0
                    3D
 Structure written by MMmdl.
157165  0  0  1  0            999 V2000
  -30.6581  -14.5730   20.5795 C   0  0  0  0  0  0
  -30.4436  -12.3695   19.4290 C   0  0  0  0  0  0
  -29.5015  -12.5126   18.2132 C   0  0  0  0  0  0
  -28.0254  -12.3507   18.6319 C   0  0  0  0  0  0
  -27.6617  -13.2016   19.8779 C   0  0  2  0  0  0
  -28.7134  -13.0018   20.9950 C   0  0  0  0  0  0
  -25.2581  -13.8121   20.5700 C   0  0  0  0  0  0
  -24.1836  -13.0406   20.9196 C   0  0  0  0  0  0
  -24.6397  -11.6874   20.8766 C   0  0  0  0  0  0
  -23.9056  -10.4271   21.0418 C   0  0  0  0  0  0
  -24.3614   -9.4180   21.9186 C   0  0  0  0  0  0
  -23.6279   -8.2225   22.0758 C   0  0  0  0  0  0
  -22.4258   -8.0280   21.3547 C   0  0  0  0  0  0
  -21.9900   -9.0252   20.4641 C   0  0  0  0  0  0
  -22.7237  -10.2122   20.3054 C   0  0  0  0  0  0
  -21.6839   -6.0740   22.5282 C   0  0  0  0  0  0
  -21.4006   -6.5643   23.8216 C   0  0  0  0  0  0
  -21.3658   -5.6796   24.9179 C   0  0  0  0  0  0
  -21.6047   -4.3060   24.7223 C   0  0  0  0  0  0
  -21.8818   -3.8151   23.4344 C   0  0  0  0  0  0
  -21.9186   -4.6970   22.3401 C   0  0  0  0  0  0
  -22.7856  -13.5210   21.1847 C   0  0  0  0  0  0
  -22.1655   -4.2160   21.0977 F   0  0  0  0  0  0
  -21.5628   -3.4541   25.7735 F   0  0  0  0  0  0
  -30.0303  -13.3612   20.4407 N   0  0  0  0  0  0
  -26.3031  -12.9288   20.3409 N   0  0  0  0  0  0
  -25.9334  -11.6458   20.5827 N   0  0  0  0  0  0
  -22.0495  -12.8206   22.0402 N   0  0  0  0  0  0
  -25.4239  -15.1845   20.4073 N   0  0  0  0  0  0
  -31.7659  -14.7683   20.0653 O   0  0  0  0  0  0
  -21.6616   -6.8885   21.4243 O   0  0  0  0  0  0
  -22.3554  -14.5528   20.6698 O   0  0  0  0  0  0
  -24.6209  -31.8650   23.2078 C   0  0  0  0  0  0
  -25.9076  -32.4815   23.8386 C   0  0  1  0  0  0
  -27.2316  -27.3715   20.1031 C   0  0  0  0  0  0
  -25.5915  -33.8612   24.2314 N   0  0  0  0  0  0
  -23.4117  -30.4889   21.5509 C   0  0  2  0  0  0
  -24.8584  -28.9516   20.1137 C   0  0  0  0  0  0
  -22.7449  -29.4641   22.4979 C   0  0  0  0  0  0
  -18.0282  -28.1380   22.8495 C   0  0  0  0  0  0
  -24.1488  -36.7299   23.2639 C   0  0  0  0  0  0
  -25.9480  -30.8118   21.3709 C   0  0  0  0  0  0
  -26.0245  -29.4430   20.7132 C   0  0  0  0  0  0
  -27.2127  -28.6629   20.7016 C   0  0  0  0  0  0
  -26.0403  -26.9205   19.4853 C   0  0  0  0  0  0
  -24.8648  -27.6922   19.4954 C   0  0  0  0  0  0
  -23.6233  -29.8245   20.1652 C   0  0  0  0  0  0
  -25.4113  -36.3105   24.0337 C   0  0  1  0  0  0
  -20.5877  -28.3674   23.1312 C   0  0  2  0  0  0
  -20.6772  -26.9404   22.5424 C   0  0  0  0  0  0
  -19.5749  -26.6385   21.5221 C   0  0  0  0  0  0
  -18.1924  -26.7927   22.1623 C   0  0  0  0  0  0
  -19.1533  -28.8842   23.2898 C   0  0  0  0  0  0
  -18.9457  -30.1445   23.8910 C   0  0  0  0  0  0
  -17.6459  -30.6584   24.0565 C   0  0  0  0  0  0
  -25.9045  -34.9474   23.5120 C   0  0  0  0  0  0
  -16.5349  -29.9083   23.6332 C   0  0  0  0  0  0
  -16.7272  -28.6501   23.0354 C   0  0  0  0  0  0
  -26.4480  -31.6603   25.0729 C   0  0  0  0  0  0
  -25.3729  -31.3716   26.1464 C   0  0  0  0  0  0
  -27.0314  -30.3040   24.6132 C   0  0  0  0  0  0
  -27.6061  -32.4317   25.7489 C   0  0  0  0  0  0
  -27.5588  -37.1802   24.8462 C   0  0  0  0  0  0
  -21.4170  -29.3033   22.3711 N   0  0  0  0  0  0
  -26.4294  -37.3798   23.9414 N   0  0  0  0  0  0
  -24.6789  -31.0697   22.1013 N   0  0  0  0  0  0
  -23.4197  -28.8176   23.3035 O   0  0  0  0  0  0
  -28.3767  -26.5725   20.1442 O   0  0  0  0  0  0
  -26.5609  -34.8929   22.4684 O   0  0  0  0  0  0
  -23.5383  -32.1423   23.7436 O   0  0  0  0  0  0
  -30.9055  -19.3748   21.6510 C   0  0  0  0  0  0
  -30.1878  -17.2323   20.8849 C   0  0  0  0  0  0
  -29.9812  -20.2601   20.7607 C   0  0  1  0  0  0
  -31.8700  -20.1046   22.5695 C   0  0  0  0  0  0
  -29.9448  -15.7629   21.3319 C   0  0  0  0  0  0
  -30.2430  -21.8297   20.8189 C   0  0  0  0  0  0
  -29.4060  -24.2169   20.4054 C   0  0  0  0  0  0
  -28.2110  -25.1305   19.9498 C   0  0  0  0  0  0
  -30.8794  -18.0849   21.7135 N   0  0  0  0  0  0
  -30.1908  -19.8416   19.3481 N   0  0  0  0  0  0
  -29.7975  -18.7290   18.8987 N   0  0  0  0  0  0
  -29.5454  -17.5802   19.6615 N   0  3  0  0  0  0
  -29.2011  -22.7281   20.2067 N   0  3  0  0  0  0
  -28.7020  -20.0658   21.0981 F   0  0  0  0  0  0
  -31.4820  -12.4968   19.1174 H   0  0  0  0  0  0
  -30.3836  -11.3623   19.8447 H   0  0  0  0  0  0
  -29.7569  -11.7752   17.4509 H   0  0  0  0  0  0
  -29.6464  -13.4905   17.7512 H   0  0  0  0  0  0
  -27.8576  -11.2945   18.8475 H   0  0  0  0  0  0
  -27.3658  -12.5968   17.7987 H   0  0  0  0  0  0
  -27.6938  -14.2446   19.5663 H   0  0  0  0  0  0
  -28.7227  -11.9587   21.3161 H   0  0  0  0  0  0
  -28.4631  -13.5648   21.8941 H   0  0  0  0  0  0
  -25.2777   -9.5637   22.4737 H   0  0  0  0  0  0
  -23.9983   -7.4620   22.7481 H   0  0  0  0  0  0
  -21.0831   -8.8777   19.8948 H   0  0  0  0  0  0
  -22.3719  -10.9660   19.6147 H   0  0  0  0  0  0
  -21.1996   -7.6154   23.9721 H   0  0  0  0  0  0
  -21.1479   -6.0527   25.9084 H   0  0  0  0  0  0
  -22.0595   -2.7612   23.2839 H   0  0  0  0  0  0
  -22.4117  -11.9855   22.4759 H   0  0  0  0  0  0
  -21.1119  -13.1239   22.2638 H   0  0  0  0  0  0
  -24.6400  -15.8218   20.5000 H   0  0  0  0  0  0
  -26.2464  -15.6287   20.0264 H   0  0  0  0  0  0
  -26.7147  -32.5510   23.1142 H   0  0  0  0  0  0
  -25.0063  -33.9772   25.0457 H   0  0  0  0  0  0
  -22.7021  -31.3072   21.4114 H   0  0  0  0  0  0
  -23.3771  -35.9611   23.3283 H   0  0  0  0  0  0
  -24.3585  -36.8935   22.2058 H   0  0  0  0  0  0
  -23.7211  -37.6484   23.6666 H   0  0  0  0  0  0
  -26.0679  -31.5791   20.6045 H   0  0  0  0  0  0
  -26.8328  -30.8641   21.9936 H   0  0  0  0  0  0
  -28.1076  -29.0369   21.1792 H   0  0  0  0  0  0
  -25.9854  -25.9623   18.9908 H   0  0  0  0  0  0
  -23.9686  -27.3091   19.0261 H   0  0  0  0  0  0
  -23.7358  -30.6020   19.4086 H   0  0  0  0  0  0
  -22.7451  -29.2489   19.8669 H   0  0  0  0  0  0
  -25.1290  -36.1969   25.0832 H   0  0  0  0  0  0
  -20.9970  -28.3246   24.1434 H   0  0  0  0  0  0
  -20.5683  -26.2280   23.3615 H   0  0  0  0  0  0
  -21.6641  -26.7446   22.1216 H   0  0  0  0  0  0
  -19.6910  -25.6301   21.1239 H   0  0  0  0  0  0
  -19.6690  -27.3206   20.6761 H   0  0  0  0  0  0
  -17.4204  -26.6696   21.4013 H   0  0  0  0  0  0
  -18.0303  -26.0059   22.9007 H   0  0  0  0  0  0
  -19.7932  -30.7257   24.2291 H   0  0  0  0  0  0
  -17.5014  -31.6273   24.5155 H   0  0  0  0  0  0
  -15.5348  -30.2987   23.7651 H   0  0  0  0  0  0
  -15.8674  -28.0824   22.7060 H   0  0  0  0  0  0
  -24.5913  -30.7053   25.7790 H   0  0  0  0  0  0
  -24.8902  -32.2871   26.4898 H   0  0  0  0  0  0
  -25.8069  -30.8892   27.0231 H   0  0  0  0  0  0
  -26.2867  -29.6800   24.1175 H   0  0  0  0  0  0
  -27.4059  -29.7284   25.4606 H   0  0  0  0  0  0
  -27.8718  -30.4352   23.9310 H   0  0  0  0  0  0
  -27.2698  -33.3620   26.2081 H   0  0  0  0  0  0
  -28.3864  -32.6869   25.0305 H   0  0  0  0  0  0
  -28.0735  -31.8425   26.5388 H   0  0  0  0  0  0
  -28.2599  -38.0110   24.7549 H   0  0  0  0  0  0
  -28.1092  -36.2645   24.6243 H   0  0  0  0  0  0
  -27.2307  -37.1406   25.8864 H   0  0  0  0  0  0
  -20.9330  -29.8758   21.6932 H   0  0  0  0  0  0
  -26.0182  -38.2871   24.1442 H   0  0  0  0  0  0
  -31.3293  -20.6480   23.3440 H   0  0  0  0  0  0
  -32.4954  -20.8002   22.0102 H   0  0  0  0  0  0
  -32.5370  -19.3988   23.0660 H   0  0  0  0  0  0
  -28.8667  -15.6135   21.3255 H   0  0  0  0  0  0
  -30.2324  -15.6758   22.3797 H   0  0  0  0  0  0
  -31.2130  -22.0617   20.3762 H   0  0  0  0  0  0
  -30.3077  -22.1331   21.8639 H   0  0  0  0  0  0
  -29.5912  -24.4063   21.4629 H   0  0  0  0  0  0
  -30.3098  -24.5212   19.8756 H   0  0  0  0  0  0
  -27.3288  -24.8026   20.5022 H   0  0  0  0  0  0
  -28.0115  -24.9438   18.8937 H   0  0  0  0  0  0
  -29.0477  -16.8720   19.1350 H   0  0  0  0  0  0
  -28.3185  -22.4560   20.6148 H   0  0  0  0  0  0
  -29.1447  -22.5252   19.2198 H   0  0  0  0  0  0
  1 25  1  0  0  0
  1 30  2  0  0  0
  1 75  1  0  0  0
  2  3  1  0  0  0
  2 25  1  0  0  0
  2 85  1  0  0  0
  2 86  1  0  0  0
  3  4  1  0  0  0
  3 87  1  0  0  0
  3 88  1  0  0  0
  4  5  1  0  0  0
  4 89  1  0  0  0
  4 90  1  0  0  0
  5  6  1  0  0  0
  5 26  1  0  0  0
  5 91  1  0  0  0
  6 25  1  0  0  0
  6 92  1  0  0  0
  6 93  1  0  0  0
  7  8  2  0  0  0
  7 26  1  0  0  0
  7 29  1  0  0  0
  8  9  1  0  0  0
  8 22  1  0  0  0
  9 10  1  0  0  0
  9 27  2  0  0  0
 10 11  2  0  0  0
 10 15  1  0  0  0
 11 12  1  0  0  0
 11 94  1  0  0  0
 12 13  2  0  0  0
 12 95  1  0  0  0
 13 14  1  0  0  0
 13 31  1  0  0  0
 14 15  2  0  0  0
 14 96  1  0  0  0
 15 97  1  0  0  0
 16 17  2  0  0  0
 16 21  1  0  0  0
 16 31  1  0  0  0
 17 18  1  0  0  0
 17 98  1  0  0  0
 18 19  2  0  0  0
 18 99  1  0  0  0
 19 20  1  0  0  0
 19 24  1  0  0  0
 20 21  2  0  0  0
 20100  1  0  0  0
 21 23  1  0  0  0
 22 28  1  0  0  0
 22 32  2  0  0  0
 26 27  1  0  0  0
 28101  1  0  0  0
 28102  1  0  0  0
 29103  1  0  0  0
 29104  1  0  0  0
 33 34  1  0  0  0
 33 66  1  0  0  0
 33 70  2  0  0  0
 34 36  1  0  0  0
 34 59  1  0  0  0
 34105  1  0  0  0
 35 44  2  0  0  0
 35 45  1  0  0  0
 35 68  1  0  0  0
 36 56  1  0  0  0
 36106  1  0  0  0
 37 39  1  0  0  0
 37 47  1  0  0  0
 37 66  1  0  0  0
 37107  1  0  0  0
 38 43  2  0  0  0
 38 46  1  0  0  0
 38 47  1  0  0  0
 39 64  1  0  0  0
 39 67  2  0  0  0
 40 52  1  0  0  0
 40 53  2  0  0  0
 40 58  1  0  0  0
 41108  1  0  0  0
 41109  1  0  0  0
 41110  1  0  0  0
 41 48  1  0  0  0
 42 43  1  0  0  0
 42 66  1  0  0  0
 42111  1  0  0  0
 42112  1  0  0  0
 43 44  1  0  0  0
 44113  1  0  0  0
 45 46  2  0  0  0
 45114  1  0  0  0
 46115  1  0  0  0
 47116  1  0  0  0
 47117  1  0  0  0
 48 56  1  0  0  0
 48 65  1  0  0  0
 48118  1  0  0  0
 49 50  1  0  0  0
 49 53  1  0  0  0
 49 64  1  0  0  0
 49119  1  0  0  0
 50 51  1  0  0  0
 50120  1  0  0  0
 50121  1  0  0  0
 51 52  1  0  0  0
 51122  1  0  0  0
 51123  1  0  0  0
 52124  1  0  0  0
 52125  1  0  0  0
 53 54  1  0  0  0
 54 55  2  0  0  0
 54126  1  0  0  0
 55 57  1  0  0  0
 55127  1  0  0  0
 56 69  2  0  0  0
 57 58  2  0  0  0
 57128  1  0  0  0
 58129  1  0  0  0
 59 60  1  0  0  0
 59 61  1  0  0  0
 59 62  1  0  0  0
 60130  1  0  0  0
 60131  1  0  0  0
 60132  1  0  0  0
 61133  1  0  0  0
 61134  1  0  0  0
 61135  1  0  0  0
 62136  1  0  0  0
 62137  1  0  0  0
 62138  1  0  0  0
 63 65  1  0  0  0
 63139  1  0  0  0
 63140  1  0  0  0
 63141  1  0  0  0
 64142  1  0  0  0
 65143  1  0  0  0
 68 78  1  0  0  0
 71 73  1  0  0  0
 71 74  1  0  0  0
 71 79  2  0  0  0
 72 75  1  0  0  0
 72 79  1  0  0  0
 72 82  2  0  0  0
 73 76  1  0  0  0
 73 80  1  0  0  0
 73 84  1  0  0  0
 74144  1  0  0  0
 74145  1  0  0  0
 74146  1  0  0  0
 75147  1  0  0  0
 75148  1  0  0  0
 76 83  1  0  0  0
 76149  1  0  0  0
 76150  1  0  0  0
 77 78  1  0  0  0
 77 83  1  0  0  0
 77151  1  0  0  0
 77152  1  0  0  0
 78153  1  0  0  0
 78154  1  0  0  0
 80 81  2  0  0  0
 81 82  1  0  0  0
 82155  1  0  0  0
 83156  1  0  0  0
 83157  1  0  0  0
M  CHG  2  82   1  83   1
M  ISO  4   1 100  68 101  75 100  78 101
M  END
> <chiral flag>
0

> <version>
0

> <s_m_source_file>
/data/baiqing/PycharmProjects/Reinvent-master-3.2/result/LINK_invent/BTK/process_docking_weight1_custom_sum_contain_oxygen_bond_distance_aromatic_linkinvent_7_9_3/rearranged_h_0053.sdf

> <i_m_source_file_index>
1

> <r_mmod_Potential_Energy-OPLS-2005>
-184.178970336914

> <r_mmod_Stretch_Energy-OPLS-2005>
74.5182342529297

> <r_mmod_Bend_Energy-OPLS-2005>
163.238250732422

> <r_mmod_Torsional_Energy-OPLS-2005>
195.38037109375

> <r_mmod_Improper_Torsional_Energy-OPLS-2005>
3.8851945400238

> <r_mmod_Van_der_Waal_Energy-OPLS-2005>
149.523788452148

> <r_mmod_Electrostatic_Energy-OPLS-2005>
173.601181030273

> <r_mmod_Solvation_Energy-OPLS-2005>
-971.548889160156

> <b_mmod_Minimization_Converged-OPLS-2005>
0

> <r_mmod_RMS_Derivative-OPLS-2005>
1.06479132175446

$$$$
1
                    3D
 Structure written by MMmdl.
157165  0  0  1  0            999 V2000
  -30.4755  -15.4013   20.2805 C   0  0  0  0  0  0
  -30.4499  -12.9111   19.4648 C   0  0  0  0  0  0
  -29.5364  -12.5748   18.2545 C   0  0  0  0  0  0
  -28.0917  -12.2788   18.7041 C   0  0  0  0  0  0
  -27.5962  -13.2938   19.7630 C   0  0  2  0  0  0
  -28.6447  -13.5862   20.8700 C   0  0  0  0  0  0
  -25.2323  -13.8171   20.5736 C   0  0  0  0  0  0
  -24.1686  -13.0335   20.9294 C   0  0  0  0  0  0
  -24.6396  -11.6874   20.8713 C   0  0  0  0  0  0
  -23.9074  -10.4236   21.0338 C   0  0  0  0  0  0
  -24.3616   -9.4183   21.9135 C   0  0  0  0  0  0
  -23.6299   -8.2224   22.0718 C   0  0  0  0  0  0
  -22.4281   -8.0253   21.3512 C   0  0  0  0  0  0
  -21.9898   -9.0217   20.4595 C   0  0  0  0  0  0
  -22.7243  -10.2097   20.2969 C   0  0  0  0  0  0
  -21.6830   -6.0731   22.5311 C   0  0  0  0  0  0
  -21.4020   -6.5631   23.8254 C   0  0  0  0  0  0
  -21.3668   -5.6775   24.9204 C   0  0  0  0  0  0
  -21.6038   -4.3044   24.7238 C   0  0  0  0  0  0
  -21.8822   -3.8135   23.4367 C   0  0  0  0  0  0
  -21.9184   -4.6957   22.3423 C   0  0  0  0  0  0
  -22.7707  -13.5071   21.1994 C   0  0  0  0  0  0
  -22.1639   -4.2150   21.1005 F   0  0  0  0  0  0
  -21.5629   -3.4511   25.7757 F   0  0  0  0  0  0
  -29.8671  -14.0966   20.2152 N   0  0  0  0  0  0
  -26.2765  -12.9529   20.3009 N   0  0  0  0  0  0
  -25.9334  -11.6612   20.5537 N   0  0  0  0  0  0
  -22.0372  -12.8033   22.0601 N   0  0  0  0  0  0
  -25.3901  -15.1839   20.4262 N   0  0  0  0  0  0
  -31.7062  -15.3135   20.1752 O   0  0  0  0  0  0
  -21.6613   -6.8877   21.4277 O   0  0  0  0  0  0
  -22.3356  -14.5349   20.6852 O   0  0  0  0  0  0
  -24.6795  -31.8134   23.1609 C   0  0  0  0  0  0
  -25.9431  -32.4549   23.8109 C   0  0  1  0  0  0
  -27.2515  -26.8491   20.1746 C   0  0  0  0  0  0
  -25.6069  -33.8360   24.2026 N   0  0  0  0  0  0
  -23.4982  -30.4217   21.5087 C   0  0  2  0  0  0
  -24.9568  -28.7885   20.1089 C   0  0  0  0  0  0
  -22.7749  -29.4393   22.4713 C   0  0  0  0  0  0
  -18.0344  -28.1475   22.8455 C   0  0  0  0  0  0
  -24.1485  -36.7183   23.2640 C   0  0  0  0  0  0
  -26.0715  -30.5944   21.4005 C   0  0  0  0  0  0
  -26.1405  -29.1730   20.7482 C   0  0  0  0  0  0
  -27.2687  -28.2232   20.7642 C   0  0  0  0  0  0
  -26.0320  -26.6369   19.4869 C   0  0  0  0  0  0
  -24.9323  -27.5410   19.4623 C   0  0  0  0  0  0
  -23.7519  -29.7351   20.1362 C   0  0  0  0  0  0
  -25.4126  -36.2924   24.0298 C   0  0  1  0  0  0
  -20.5979  -28.3827   23.1161 C   0  0  2  0  0  0
  -20.6838  -26.9499   22.5397 C   0  0  0  0  0  0
  -19.5805  -26.6422   21.5231 C   0  0  0  0  0  0
  -18.1978  -26.8002   22.1635 C   0  0  0  0  0  0
  -19.1603  -28.8967   23.2808 C   0  0  0  0  0  0
  -18.9519  -30.1535   23.8865 C   0  0  0  0  0  0
  -17.6510  -30.6648   24.0579 C   0  0  0  0  0  0
  -25.9117  -34.9317   23.4964 C   0  0  0  0  0  0
  -16.5406  -29.9145   23.6333 C   0  0  0  0  0  0
  -16.7321  -28.6580   23.0344 C   0  0  0  0  0  0
  -26.4616  -31.6533   25.0680 C   0  0  0  0  0  0
  -25.3694  -31.3880   26.1322 C   0  0  0  0  0  0
  -27.0515  -30.2889   24.6445 C   0  0  0  0  0  0
  -27.6087  -32.4339   25.7547 C   0  0  0  0  0  0
  -27.5547  -37.1763   24.8473 C   0  0  0  0  0  0
  -21.4400  -29.3086   22.3493 N   0  0  0  0  0  0
  -26.4239  -37.3685   23.9415 N   0  0  0  0  0  0
  -24.7719  -30.9731   22.0775 N   0  0  0  0  0  0
  -23.4258  -28.7933   23.2982 O   0  0  0  0  0  0
  -28.2293  -25.6935   20.3198 O   0  0  0  0  0  0
  -26.5680  -34.8876   22.4533 O   0  0  0  0  0  0
  -23.5846  -32.1110   23.6677 O   0  0  0  0  0  0
  -27.5717  -21.4744   19.5485 C   0  0  0  0  0  0
  -28.5265  -22.4130   19.9412 C   0  0  0  0  0  0
  -29.2559  -19.9490   20.0804 C   0  0  0  0  0  0
  -31.4350  -18.6383   19.4102 C   0  0  0  0  0  0
  -26.6554  -18.1590   20.1446 C   0  0  0  0  0  0
  -27.8895  -18.2495   17.8507 C   0  0  0  0  0  0
  -28.3434  -24.1764   19.5927 C   0  0  0  0  0  0
  -30.1797  -18.4207   20.2722 C   0  0  2  0  0  0
  -27.2154  -19.0212   19.0138 C   0  0  0  0  0  0
  -28.0232  -20.1288   19.5498 N   0  0  0  0  0  0
  -29.5596  -21.3670   20.2562 N   0  3  0  0  0  0
  -29.7923  -16.7488   20.2718 N   0  0  0  0  0  0
  -31.4455  -13.1460   19.0837 H   0  0  0  0  0  0
  -30.5850  -12.0466   20.1221 H   0  0  0  0  0  0
  -29.9280  -11.7359   17.6750 H   0  0  0  0  0  0
  -29.5447  -13.4233   17.5714 H   0  0  0  0  0  0
  -28.0532  -11.2669   19.1082 H   0  0  0  0  0  0
  -27.4272  -12.2643   17.8387 H   0  0  0  0  0  0
  -27.4563  -14.2084   19.1849 H   0  0  0  0  0  0
  -28.8341  -12.6991   21.4726 H   0  0  0  0  0  0
  -28.2786  -14.3666   21.5402 H   0  0  0  0  0  0
  -25.2796   -9.5679   22.4680 H   0  0  0  0  0  0
  -24.0007   -7.4610   22.7432 H   0  0  0  0  0  0
  -21.0796   -8.8715   19.8952 H   0  0  0  0  0  0
  -22.3668  -10.9587   19.6034 H   0  0  0  0  0  0
  -21.2021   -7.6141   23.9758 H   0  0  0  0  0  0
  -21.1467   -6.0503   25.9118 H   0  0  0  0  0  0
  -22.0585   -2.7587   23.2872 H   0  0  0  0  0  0
  -22.3899  -11.9638   22.4941 H   0  0  0  0  0  0
  -21.0986  -13.1060   22.2866 H   0  0  0  0  0  0
  -24.6224  -15.8348   20.5408 H   0  0  0  0  0  0
  -26.2227  -15.6275   20.0666 H   0  0  0  0  0  0
  -26.7516  -32.5074   23.0842 H   0  0  0  0  0  0
  -25.0339  -33.9409   25.0265 H   0  0  0  0  0  0
  -22.8180  -31.2567   21.3330 H   0  0  0  0  0  0
  -23.3741  -35.9513   23.3268 H   0  0  0  0  0  0
  -24.3559  -36.8847   22.2052 H   0  0  0  0  0  0
  -23.7248  -37.6386   23.6694 H   0  0  0  0  0  0
  -26.2499  -31.3253   20.6111 H   0  0  0  0  0  0
  -26.9351  -30.6655   22.0479 H   0  0  0  0  0  0
  -28.1550  -28.5187   21.3076 H   0  0  0  0  0  0
  -25.8757  -25.6792   19.0173 H   0  0  0  0  0  0
  -24.0310  -27.2277   18.9524 H   0  0  0  0  0  0
  -23.9539  -30.5107   19.3982 H   0  0  0  0  0  0
  -22.8571  -29.2206   19.7845 H   0  0  0  0  0  0
  -25.1316  -36.1674   25.0782 H   0  0  0  0  0  0
  -21.0081  -28.3457   24.1303 H   0  0  0  0  0  0
  -20.5763  -26.2457   23.3672 H   0  0  0  0  0  0
  -21.6690  -26.7515   22.1182 H   0  0  0  0  0  0
  -19.6964  -25.6316   21.1333 H   0  0  0  0  0  0
  -19.6733  -27.3188   20.6718 H   0  0  0  0  0  0
  -17.4244  -26.6760   21.4026 H   0  0  0  0  0  0
  -18.0328  -26.0180   22.9054 H   0  0  0  0  0  0
  -19.7981  -30.7349   24.2259 H   0  0  0  0  0  0
  -17.5067  -31.6315   24.5214 H   0  0  0  0  0  0
  -15.5409  -30.3061   23.7671 H   0  0  0  0  0  0
  -15.8733  -28.0915   22.7065 H   0  0  0  0  0  0
  -24.5850  -30.7246   25.7665 H   0  0  0  0  0  0
  -24.8929  -32.3146   26.4541 H   0  0  0  0  0  0
  -25.7892  -30.9196   27.0227 H   0  0  0  0  0  0
  -26.3178  -29.6547   24.1465 H   0  0  0  0  0  0
  -27.4058  -29.7285   25.5107 H   0  0  0  0  0  0
  -27.9101  -30.4103   23.9838 H   0  0  0  0  0  0
  -27.2623  -33.3649   26.2042 H   0  0  0  0  0  0
  -28.4006  -32.6878   25.0487 H   0  0  0  0  0  0
  -28.0623  -31.8508   26.5577 H   0  0  0  0  0  0
  -28.2567  -38.0057   24.7476 H   0  0  0  0  0  0
  -28.1040  -36.2587   24.6319 H   0  0  0  0  0  0
  -27.2279  -37.1431   25.8884 H   0  0  0  0  0  0
  -20.9679  -29.8803   21.6637 H   0  0  0  0  0  0
  -26.0070  -38.2732   24.1418 H   0  0  0  0  0  0
  -26.5962  -21.6962   19.1479 H   0  0  0  0  0  0
  -31.8438  -19.6309   19.6041 H   0  0  0  0  0  0
  -31.2018  -18.5879   18.3454 H   0  0  0  0  0  0
  -32.2435  -17.9384   19.6202 H   0  0  0  0  0  0
  -25.8526  -17.5382   19.7546 H   0  0  0  0  0  0
  -26.2088  -18.7863   20.9167 H   0  0  0  0  0  0
  -27.3948  -17.5327   20.6386 H   0  0  0  0  0  0
  -27.2937  -17.4005   17.5159 H   0  0  0  0  0  0
  -28.8759  -17.8590   18.0795 H   0  0  0  0  0  0
  -28.0030  -18.8900   16.9774 H   0  0  0  0  0  0
  -27.4412  -24.1812   18.9857 H   0  0  0  0  0  0
  -29.1261  -24.3557   18.8568 H   0  0  0  0  0  0
  -30.5320  -18.5435   21.2970 H   0  0  0  0  0  0
  -26.3472  -19.4909   18.5583 H   0  0  0  0  0  0
  -30.4941  -21.6437   20.5376 H   0  0  0  0  0  0
  -28.7948  -16.6233   20.3417 H   0  0  0  0  0  0
  1 25  1  0  0  0
  1 30  2  0  0  0
  1 82  1  0  0  0
  2  3  1  0  0  0
  2 25  1  0  0  0
  2 83  1  0  0  0
  2 84  1  0  0  0
  3  4  1  0  0  0
  3 85  1  0  0  0
  3 86  1  0  0  0
  4  5  1  0  0  0
  4 87  1  0  0  0
  4 88  1  0  0  0
  5  6  1  0  0  0
  5 26  1  0  0  0
  5 89  1  0  0  0
  6 25  1  0  0  0
  6 90  1  0  0  0
  6 91  1  0  0  0
  7  8  2  0  0  0
  7 26  1  0  0  0
  7 29  1  0  0  0
  8  9  1  0  0  0
  8 22  1  0  0  0
  9 10  1  0  0  0
  9 27  2  0  0  0
 10 11  2  0  0  0
 10 15  1  0  0  0
 11 12  1  0  0  0
 11 92  1  0  0  0
 12 13  2  0  0  0
 12 93  1  0  0  0
 13 14  1  0  0  0
 13 31  1  0  0  0
 14 15  2  0  0  0
 14 94  1  0  0  0
 15 95  1  0  0  0
 16 17  2  0  0  0
 16 21  1  0  0  0
 16 31  1  0  0  0
 17 18  1  0  0  0
 17 96  1  0  0  0
 18 19  2  0  0  0
 18 97  1  0  0  0
 19 20  1  0  0  0
 19 24  1  0  0  0
 20 21  2  0  0  0
 20 98  1  0  0  0
 21 23  1  0  0  0
 22 28  1  0  0  0
 22 32  2  0  0  0
 26 27  1  0  0  0
 28 99  1  0  0  0
 28100  1  0  0  0
 29101  1  0  0  0
 29102  1  0  0  0
 33 34  1  0  0  0
 33 66  1  0  0  0
 33 70  2  0  0  0
 34 36  1  0  0  0
 34 59  1  0  0  0
 34103  1  0  0  0
 35 44  2  0  0  0
 35 45  1  0  0  0
 35 68  1  0  0  0
 36 56  1  0  0  0
 36104  1  0  0  0
 37 39  1  0  0  0
 37 47  1  0  0  0
 37 66  1  0  0  0
 37105  1  0  0  0
 38 43  2  0  0  0
 38 46  1  0  0  0
 38 47  1  0  0  0
 39 64  1  0  0  0
 39 67  2  0  0  0
 40 52  1  0  0  0
 40 53  2  0  0  0
 40 58  1  0  0  0
 41106  1  0  0  0
 41107  1  0  0  0
 41108  1  0  0  0
 41 48  1  0  0  0
 42 43  1  0  0  0
 42 66  1  0  0  0
 42109  1  0  0  0
 42110  1  0  0  0
 43 44  1  0  0  0
 44111  1  0  0  0
 45 46  2  0  0  0
 45112  1  0  0  0
 46113  1  0  0  0
 47114  1  0  0  0
 47115  1  0  0  0
 48 56  1  0  0  0
 48 65  1  0  0  0
 48116  1  0  0  0
 49 50  1  0  0  0
 49 53  1  0  0  0
 49 64  1  0  0  0
 49117  1  0  0  0
 50 51  1  0  0  0
 50118  1  0  0  0
 50119  1  0  0  0
 51 52  1  0  0  0
 51120  1  0  0  0
 51121  1  0  0  0
 52122  1  0  0  0
 52123  1  0  0  0
 53 54  1  0  0  0
 54 55  2  0  0  0
 54124  1  0  0  0
 55 57  1  0  0  0
 55125  1  0  0  0
 56 69  2  0  0  0
 57 58  2  0  0  0
 57126  1  0  0  0
 58127  1  0  0  0
 59 60  1  0  0  0
 59 61  1  0  0  0
 59 62  1  0  0  0
 60128  1  0  0  0
 60129  1  0  0  0
 60130  1  0  0  0
 61131  1  0  0  0
 61132  1  0  0  0
 61133  1  0  0  0
 62134  1  0  0  0
 62135  1  0  0  0
 62136  1  0  0  0
 63 65  1  0  0  0
 63137  1  0  0  0
 63138  1  0  0  0
 63139  1  0  0  0
 64140  1  0  0  0
 65141  1  0  0  0
 68 77  1  0  0  0
 71 72  2  0  0  0
 71 80  1  0  0  0
 71142  1  0  0  0
 72 77  1  0  0  0
 72 81  1  0  0  0
 73 78  1  0  0  0
 73 80  1  0  0  0
 73 81  2  0  0  0
 74143  1  0  0  0
 74144  1  0  0  0
 74145  1  0  0  0
 74 78  1  0  0  0
 75146  1  0  0  0
 75147  1  0  0  0
 75148  1  0  0  0
 75 79  1  0  0  0
 76 79  1  0  0  0
 76149  1  0  0  0
 76150  1  0  0  0
 76151  1  0  0  0
 77152  1  0  0  0
 77153  1  0  0  0
 78 82  1  0  0  0
 78154  1  0  0  0
 79 80  1  0  0  0
 79155  1  0  0  0
 81156  1  0  0  0
 82157  1  0  0  0
M  CHG  1  81   1
M  ISO  4   1 100  68 101  77 101  82 100
M  END
> <chiral flag>
0

> <version>
0

> <s_m_source_file>
/data/baiqing/PycharmProjects/Reinvent-master-3.2/result/LINK_invent/BTK/process_docking_weight1_custom_sum_contain_oxygen_bond_distance_aromatic_linkinvent_7_9_3/rearranged_h_0053.sdf

> <i_m_source_file_index>
2

> <r_mmod_Potential_Energy-OPLS-2005>
1584.62512207031

> <r_mmod_Stretch_Energy-OPLS-2005>
728.683227539062

> <r_mmod_Bend_Energy-OPLS-2005>
572.504821777344

> <r_mmod_Torsional_Energy-OPLS-2005>
255.201629638672

> <r_mmod_Improper_Torsional_Energy-OPLS-2005>
8.51619815826416

> <r_mmod_Van_der_Waal_Energy-OPLS-2005>
105.214004516602

> <r_mmod_Electrostatic_Energy-OPLS-2005>
-258.618713378906

> <r_mmod_Solvation_Energy-OPLS-2005>
-439.544250488281

> <b_mmod_Minimization_Converged-OPLS-2005>
0

> <r_mmod_RMS_Derivative-OPLS-2005>
8.23503303527832

$$$$
2
                    3D
 Structure written by MMmdl.
155163  0  0  1  0            999 V2000
  -30.6398  -14.7342   20.5322 C   0  0  0  0  0  0
  -30.4325  -12.4636   19.4794 C   0  0  0  0  0  0
  -29.5124  -12.5240   18.2389 C   0  0  0  0  0  0
  -28.0357  -12.3454   18.6409 C   0  0  0  0  0  0
  -27.6449  -13.2268   19.8551 C   0  0  2  0  0  0
  -28.6825  -13.1073   20.9872 C   0  0  0  0  0  0
  -25.2526  -13.8185   20.5684 C   0  0  0  0  0  0
  -24.1806  -13.0438   20.9178 C   0  0  0  0  0  0
  -24.6386  -11.6911   20.8720 C   0  0  0  0  0  0
  -23.9063  -10.4292   21.0394 C   0  0  0  0  0  0
  -24.3615   -9.4212   21.9175 C   0  0  0  0  0  0
  -23.6291   -8.2248   22.0751 C   0  0  0  0  0  0
  -22.4273   -8.0279   21.3543 C   0  0  0  0  0  0
  -21.9907   -9.0251   20.4643 C   0  0  0  0  0  0
  -22.7233  -10.2132   20.3050 C   0  0  0  0  0  0
  -21.6855   -6.0733   22.5275 C   0  0  0  0  0  0
  -21.4015   -6.5638   23.8206 C   0  0  0  0  0  0
  -21.3660   -5.6793   24.9169 C   0  0  0  0  0  0
  -21.6045   -4.3054   24.7220 C   0  0  0  0  0  0
  -21.8820   -3.8146   23.4342 C   0  0  0  0  0  0
  -21.9193   -4.6962   22.3398 C   0  0  0  0  0  0
  -22.7831  -13.5226   21.1848 C   0  0  0  0  0  0
  -22.1662   -4.2149   21.0975 F   0  0  0  0  0  0
  -21.5628   -3.4536   25.7732 F   0  0  0  0  0  0
  -29.9884  -13.5122   20.4372 N   0  0  0  0  0  0
  -26.2939  -12.9380   20.3262 N   0  0  0  0  0  0
  -25.9310  -11.6523   20.5713 N   0  0  0  0  0  0
  -22.0485  -12.8220   22.0411 N   0  0  0  0  0  0
  -25.4254  -15.1910   20.4143 N   0  0  0  0  0  0
  -31.7695  -14.8256   20.0408 O   0  0  0  0  0  0
  -21.6641   -6.8875   21.4237 O   0  0  0  0  0  0
  -22.3514  -14.5533   20.6697 O   0  0  0  0  0  0
  -24.6309  -31.8551   23.1976 C   0  0  0  0  0  0
  -25.9135  -32.4753   23.8320 C   0  0  1  0  0  0
  -27.2179  -27.2609   20.1226 C   0  0  0  0  0  0
  -25.5933  -33.8555   24.2241 N   0  0  0  0  0  0
  -23.4275  -30.4779   21.5417 C   0  0  2  0  0  0
  -24.8742  -28.9261   20.1073 C   0  0  0  0  0  0
  -22.7498  -29.4599   22.4907 C   0  0  0  0  0  0
  -18.0287  -28.1385   22.8474 C   0  0  0  0  0  0
  -24.1491  -36.7283   23.2640 C   0  0  0  0  0  0
  -25.9736  -30.7673   21.3787 C   0  0  0  0  0  0
  -26.0461  -29.3910   20.7170 C   0  0  0  0  0  0
  -27.2208  -28.5713   20.7121 C   0  0  0  0  0  0
  -26.0236  -26.8682   19.4778 C   0  0  0  0  0  0
  -24.8685  -27.6732   19.4766 C   0  0  0  0  0  0
  -23.6450  -29.8131   20.1573 C   0  0  0  0  0  0
  -25.4121  -36.3065   24.0320 C   0  0  1  0  0  0
  -20.5891  -28.3695   23.1260 C   0  0  2  0  0  0
  -20.6775  -26.9412   22.5404 C   0  0  0  0  0  0
  -19.5754  -26.6380   21.5204 C   0  0  0  0  0  0
  -18.1932  -26.7926   22.1615 C   0  0  0  0  0  0
  -19.1543  -28.8856   23.2859 C   0  0  0  0  0  0
  -18.9468  -30.1456   23.8878 C   0  0  0  0  0  0
  -17.6469  -30.6586   24.0557 C   0  0  0  0  0  0
  -25.9061  -34.9437   23.5084 C   0  0  0  0  0  0
  -16.5356  -29.9081   23.6332 C   0  0  0  0  0  0
  -16.7275  -28.6501   23.0350 C   0  0  0  0  0  0
  -26.4498  -31.6585   25.0716 C   0  0  0  0  0  0
  -25.3710  -31.3745   26.1430 C   0  0  0  0  0  0
  -27.0355  -30.2997   24.6225 C   0  0  0  0  0  0
  -27.6041  -32.4336   25.7493 C   0  0  0  0  0  0
  -27.5577  -37.1796   24.8463 C   0  0  0  0  0  0
  -21.4204  -29.3042   22.3651 N   0  0  0  0  0  0
  -26.4291  -37.3766   23.9405 N   0  0  0  0  0  0
  -24.6962  -31.0515   22.0954 N   0  0  0  0  0  0
  -23.4197  -28.8133   23.3003 O   0  0  0  0  0  0
  -28.3119  -26.3647   20.1922 O   0  0  0  0  0  0
  -26.5638  -34.8915   22.4655 O   0  0  0  0  0  0
  -23.5462  -32.1377   23.7274 O   0  0  0  0  0  0
  -28.9839  -21.1477   21.1297 C   0  0  0  0  0  0
  -29.0997  -22.2425   20.2719 C   0  0  0  0  0  0
  -31.5843  -17.8692   20.8530 C   0  0  0  0  0  0
  -29.4328  -15.9028   22.3245 C   0  0  0  0  0  0
  -29.1720  -23.8121   20.5347 C   0  0  0  0  0  0
  -29.0708  -18.4831   20.7836 C   0  0  0  0  0  0
  -28.0981  -24.8850   19.9798 C   0  0  0  0  0  0
  -30.1904  -17.3450   20.4468 C   0  0  2  0  0  0
  -29.3918  -21.6565   19.0290 N   0  0  0  0  0  0
  -29.4285  -20.3394   19.1031 N   0  0  0  0  0  0
  -29.2173  -19.9590   20.3914 N   0  0  0  0  0  0
  -29.9657  -15.8944   20.9558 N   0  0  0  0  0  0
  -31.4730  -12.5827   19.1737 H   0  0  0  0  0  0
  -30.3842  -11.4776   19.9448 H   0  0  0  0  0  0
  -29.7984  -11.7562   17.5188 H   0  0  0  0  0  0
  -29.6415  -13.4820   17.7329 H   0  0  0  0  0  0
  -27.8854  -11.2932   18.8861 H   0  0  0  0  0  0
  -27.3830  -12.5554   17.7926 H   0  0  0  0  0  0
  -27.6558  -14.2599   19.5059 H   0  0  0  0  0  0
  -28.7277  -12.0804   21.3535 H   0  0  0  0  0  0
  -28.3616  -13.6917   21.8419 H   0  0  0  0  0  0
  -25.2757   -9.5694   22.4748 H   0  0  0  0  0  0
  -23.9998   -7.4646   22.7478 H   0  0  0  0  0  0
  -21.0835   -8.8767   19.8954 H   0  0  0  0  0  0
  -22.3683  -10.9667   19.6161 H   0  0  0  0  0  0
  -21.2010   -7.6146   23.9709 H   0  0  0  0  0  0
  -21.1481   -6.0521   25.9072 H   0  0  0  0  0  0
  -22.0600   -2.7608   23.2838 H   0  0  0  0  0  0
  -22.4107  -11.9880   22.4793 H   0  0  0  0  0  0
  -21.1104  -13.1243   22.2624 H   0  0  0  0  0  0
  -24.6648  -15.8501   20.5371 H   0  0  0  0  0  0
  -26.2860  -15.6299   20.1126 H   0  0  0  0  0  0
  -26.7196  -32.5397   23.1056 H   0  0  0  0  0  0
  -25.0062  -33.9688   25.0374 H   0  0  0  0  0  0
  -22.7239  -31.3004   21.3966 H   0  0  0  0  0  0
  -23.3753  -35.9616   23.3304 H   0  0  0  0  0  0
  -24.3572  -36.8909   22.2053 H   0  0  0  0  0  0
  -23.7250  -37.6481   23.6673 H   0  0  0  0  0  0
  -26.1168  -31.5311   20.6129 H   0  0  0  0  0  0
  -26.8486  -30.8119   22.0152 H   0  0  0  0  0  0
  -28.1182  -28.9221   21.2020 H   0  0  0  0  0  0
  -25.9522  -25.9139   18.9778 H   0  0  0  0  0  0
  -23.9723  -27.3133   18.9905 H   0  0  0  0  0  0
  -23.7679  -30.5906   19.4025 H   0  0  0  0  0  0
  -22.7626  -29.2473   19.8520 H   0  0  0  0  0  0
  -25.1306  -36.1906   25.0813 H   0  0  0  0  0  0
  -20.9980  -28.3277   24.1381 H   0  0  0  0  0  0
  -20.5679  -26.2301   23.3608 H   0  0  0  0  0  0
  -21.6644  -26.7435   22.1200 H   0  0  0  0  0  0
  -19.6920  -25.6290   21.1237 H   0  0  0  0  0  0
  -19.6698  -27.3183   20.6730 H   0  0  0  0  0  0
  -17.4202  -26.6658   21.4019 H   0  0  0  0  0  0
  -18.0339  -26.0075   22.9021 H   0  0  0  0  0  0
  -19.7950  -30.7267   24.2246 H   0  0  0  0  0  0
  -17.5028  -31.6268   24.5157 H   0  0  0  0  0  0
  -15.5359  -30.2977   23.7677 H   0  0  0  0  0  0
  -15.8671  -28.0820   22.7072 H   0  0  0  0  0  0
  -24.5890  -30.7090   25.7755 H   0  0  0  0  0  0
  -24.8895  -32.2918   26.4825 H   0  0  0  0  0  0
  -25.8012  -30.8941   27.0224 H   0  0  0  0  0  0
  -26.2946  -29.6732   24.1242 H   0  0  0  0  0  0
  -27.4005  -29.7273   25.4762 H   0  0  0  0  0  0
  -27.8837  -30.4256   23.9492 H   0  0  0  0  0  0
  -27.2638  -33.3646   26.2043 H   0  0  0  0  0  0
  -28.3868  -32.6883   25.0335 H   0  0  0  0  0  0
  -28.0693  -31.8482   26.5435 H   0  0  0  0  0  0
  -28.2592  -38.0097   24.7511 H   0  0  0  0  0  0
  -28.1077  -36.2622   24.6295 H   0  0  0  0  0  0
  -27.2288  -37.1449   25.8864 H   0  0  0  0  0  0
  -20.9388  -29.8774   21.6865 H   0  0  0  0  0  0
  -26.0168  -38.2836   24.1414 H   0  0  0  0  0  0
  -28.7807  -21.1148   22.1933 H   0  0  0  0  0  0
  -31.7675  -18.8599   20.4373 H   0  0  0  0  0  0
  -32.3914  -17.2318   20.4942 H   0  0  0  0  0  0
  -31.6809  -17.9493   21.9360 H   0  0  0  0  0  0
  -28.3440  -15.9639   22.3128 H   0  0  0  0  0  0
  -29.8122  -16.7476   22.8979 H   0  0  0  0  0  0
  -29.7267  -15.0219   22.8989 H   0  0  0  0  0  0
  -30.1432  -24.1506   20.1746 H   0  0  0  0  0  0
  -29.2254  -23.9652   21.6122 H   0  0  0  0  0  0
  -28.8997  -18.4948   21.8583 H   0  0  0  0  0  0
  -28.1240  -18.1472   20.3599 H   0  0  0  0  0  0
  -27.1372  -24.6075   20.4150 H   0  0  0  0  0  0
  -28.0018  -24.7306   18.9041 H   0  0  0  0  0  0
  -30.2030  -17.2595   19.3590 H   0  0  0  0  0  0
  1 25  1  0  0  0
  1 30  2  0  0  0
  1 82  1  0  0  0
  2  3  1  0  0  0
  2 25  1  0  0  0
  2 83  1  0  0  0
  2 84  1  0  0  0
  3  4  1  0  0  0
  3 85  1  0  0  0
  3 86  1  0  0  0
  4  5  1  0  0  0
  4 87  1  0  0  0
  4 88  1  0  0  0
  5  6  1  0  0  0
  5 26  1  0  0  0
  5 89  1  0  0  0
  6 25  1  0  0  0
  6 90  1  0  0  0
  6 91  1  0  0  0
  7  8  2  0  0  0
  7 26  1  0  0  0
  7 29  1  0  0  0
  8  9  1  0  0  0
  8 22  1  0  0  0
  9 10  1  0  0  0
  9 27  2  0  0  0
 10 11  2  0  0  0
 10 15  1  0  0  0
 11 12  1  0  0  0
 11 92  1  0  0  0
 12 13  2  0  0  0
 12 93  1  0  0  0
 13 14  1  0  0  0
 13 31  1  0  0  0
 14 15  2  0  0  0
 14 94  1  0  0  0
 15 95  1  0  0  0
 16 17  2  0  0  0
 16 21  1  0  0  0
 16 31  1  0  0  0
 17 18  1  0  0  0
 17 96  1  0  0  0
 18 19  2  0  0  0
 18 97  1  0  0  0
 19 20  1  0  0  0
 19 24  1  0  0  0
 20 21  2  0  0  0
 20 98  1  0  0  0
 21 23  1  0  0  0
 22 28  1  0  0  0
 22 32  2  0  0  0
 26 27  1  0  0  0
 28 99  1  0  0  0
 28100  1  0  0  0
 29101  1  0  0  0
 29102  1  0  0  0
 33 34  1  0  0  0
 33 66  1  0  0  0
 33 70  2  0  0  0
 34 36  1  0  0  0
 34 59  1  0  0  0
 34103  1  0  0  0
 35 44  2  0  0  0
 35 45  1  0  0  0
 35 68  1  0  0  0
 36 56  1  0  0  0
 36104  1  0  0  0
 37 39  1  0  0  0
 37 47  1  0  0  0
 37 66  1  0  0  0
 37105  1  0  0  0
 38 43  2  0  0  0
 38 46  1  0  0  0
 38 47  1  0  0  0
 39 64  1  0  0  0
 39 67  2  0  0  0
 40 52  1  0  0  0
 40 53  2  0  0  0
 40 58  1  0  0  0
 41106  1  0  0  0
 41107  1  0  0  0
 41108  1  0  0  0
 41 48  1  0  0  0
 42 43  1  0  0  0
 42 66  1  0  0  0
 42109  1  0  0  0
 42110  1  0  0  0
 43 44  1  0  0  0
 44111  1  0  0  0
 45 46  2  0  0  0
 45112  1  0  0  0
 46113  1  0  0  0
 47114  1  0  0  0
 47115  1  0  0  0
 48 56  1  0  0  0
 48 65  1  0  0  0
 48116  1  0  0  0
 49 50  1  0  0  0
 49 53  1  0  0  0
 49 64  1  0  0  0
 49117  1  0  0  0
 50 51  1  0  0  0
 50118  1  0  0  0
 50119  1  0  0  0
 51 52  1  0  0  0
 51120  1  0  0  0
 51121  1  0  0  0
 52122  1  0  0  0
 52123  1  0  0  0
 53 54  1  0  0  0
 54 55  2  0  0  0
 54124  1  0  0  0
 55 57  1  0  0  0
 55125  1  0  0  0
 56 69  2  0  0  0
 57 58  2  0  0  0
 57126  1  0  0  0
 58127  1  0  0  0
 59 60  1  0  0  0
 59 61  1  0  0  0
 59 62  1  0  0  0
 60128  1  0  0  0
 60129  1  0  0  0
 60130  1  0  0  0
 61131  1  0  0  0
 61132  1  0  0  0
 61133  1  0  0  0
 62134  1  0  0  0
 62135  1  0  0  0
 62136  1  0  0  0
 63 65  1  0  0  0
 63137  1  0  0  0
 63138  1  0  0  0
 63139  1  0  0  0
 64140  1  0  0  0
 65141  1  0  0  0
 68 77  1  0  0  0
 71 72  2  0  0  0
 71 81  1  0  0  0
 71142  1  0  0  0
 72 75  1  0  0  0
 72 79  1  0  0  0
 73143  1  0  0  0
 73144  1  0  0  0
 73145  1  0  0  0
 73 78  1  0  0  0
 74 82  1  0  0  0
 74146  1  0  0  0
 74147  1  0  0  0
 74148  1  0  0  0
 75 77  1  0  0  0
 75149  1  0  0  0
 75150  1  0  0  0
 76 78  1  0  0  0
 76 81  1  0  0  0
 76151  1  0  0  0
 76152  1  0  0  0
 77153  1  0  0  0
 77154  1  0  0  0
 78 82  1  0  0  0
 78155  1  0  0  0
 79 80  2  0  0  0
 80 81  1  0  0  0
M  ISO  4   1 100  68 101  77 101  82 100
M  END
> <chiral flag>
0

> <version>
0

> <s_m_source_file>
/data/baiqing/PycharmProjects/Reinvent-master-3.2/result/LINK_invent/BTK/process_docking_weight1_custom_sum_contain_oxygen_bond_distance_aromatic_linkinvent_7_9_3/rearranged_h_0053.sdf

> <i_m_source_file_index>
3

> <r_mmod_Potential_Energy-OPLS-2005>
318.5751953125

> <r_mmod_Stretch_Energy-OPLS-2005>
135.577163696289

> <r_mmod_Bend_Energy-OPLS-2005>
183.198333740234

> <r_mmod_Torsional_Energy-OPLS-2005>
274.367767333984

> <r_mmod_Improper_Torsional_Energy-OPLS-2005>
8.25249195098877

> <r_mmod_Van_der_Waal_Energy-OPLS-2005>
125.898048400879

> <r_mmod_Electrostatic_Energy-OPLS-2005>
-270.917419433594

> <r_mmod_Solvation_Energy-OPLS-2005>
-216.023178100586

> <b_mmod_Minimization_Converged-OPLS-2005>
0

> <r_mmod_RMS_Derivative-OPLS-2005>
0.738256990909576

$$$$
3
                    3D
 Structure written by MMmdl.
160168  0  0  1  0            999 V2000
  -30.6491  -14.7196   20.5839 C   0  0  0  0  0  0
  -30.4377  -12.4722   19.4646 C   0  0  0  0  0  0
  -29.5106  -12.5474   18.2289 C   0  0  0  0  0  0
  -28.0336  -12.3624   18.6270 C   0  0  0  0  0  0
  -27.6498  -13.2200   19.8591 C   0  0  2  0  0  0
  -28.6919  -13.0438   20.9793 C   0  0  0  0  0  0
  -25.2556  -13.8154   20.5677 C   0  0  0  0  0  0
  -24.1820  -13.0416   20.9174 C   0  0  0  0  0  0
  -24.6402  -11.6899   20.8705 C   0  0  0  0  0  0
  -23.9066  -10.4291   21.0386 C   0  0  0  0  0  0
  -24.3631   -9.4213   21.9156 C   0  0  0  0  0  0
  -23.6292   -8.2266   22.0756 C   0  0  0  0  0  0
  -22.4271   -8.0319   21.3550 C   0  0  0  0  0  0
  -21.9905   -9.0289   20.4647 C   0  0  0  0  0  0
  -22.7248  -10.2156   20.3035 C   0  0  0  0  0  0
  -21.6863   -6.0769   22.5279 C   0  0  0  0  0  0
  -21.4042   -6.5668   23.8224 C   0  0  0  0  0  0
  -21.3634   -5.6809   24.9178 C   0  0  0  0  0  0
  -21.6012   -4.3066   24.7223 C   0  0  0  0  0  0
  -21.8824   -3.8180   23.4340 C   0  0  0  0  0  0
  -21.9198   -4.7000   22.3402 C   0  0  0  0  0  0
  -22.7850  -13.5225   21.1862 C   0  0  0  0  0  0
  -22.1668   -4.2192   21.0982 F   0  0  0  0  0  0
  -21.5585   -3.4538   25.7720 F   0  0  0  0  0  0
  -29.9952  -13.4965   20.4562 N   0  0  0  0  0  0
  -26.2968  -12.9339   20.3255 N   0  0  0  0  0  0
  -25.9326  -11.6489   20.5667 N   0  0  0  0  0  0
  -22.0506  -12.8207   22.0427 N   0  0  0  0  0  0
  -25.4296  -15.1866   20.4174 N   0  0  0  0  0  0
  -31.7292  -14.8290   19.9931 O   0  0  0  0  0  0
  -21.6651   -6.8905   21.4240 O   0  0  0  0  0  0
  -22.3530  -14.5543   20.6737 O   0  0  0  0  0  0
  -24.6306  -31.8555   23.2013 C   0  0  0  0  0  0
  -25.9118  -32.4769   23.8344 C   0  0  1  0  0  0
  -27.2267  -27.2852   20.1248 C   0  0  0  0  0  0
  -25.5911  -33.8574   24.2243 N   0  0  0  0  0  0
  -23.4254  -30.4784   21.5475 C   0  0  2  0  0  0
  -24.8712  -28.9299   20.1121 C   0  0  0  0  0  0
  -22.7506  -29.4587   22.4962 C   0  0  0  0  0  0
  -18.0297  -28.1355   22.8472 C   0  0  0  0  0  0
  -24.1491  -36.7298   23.2636 C   0  0  0  0  0  0
  -25.9690  -30.7808   21.3706 C   0  0  0  0  0  0
  -26.0438  -29.4058   20.7122 C   0  0  0  0  0  0
  -27.2252  -28.5993   20.7007 C   0  0  0  0  0  0
  -26.0309  -26.8746   19.4895 C   0  0  0  0  0  0
  -24.8688  -27.6721   19.4889 C   0  0  0  0  0  0
  -23.6393  -29.8130   20.1631 C   0  0  0  0  0  0
  -25.4112  -36.3073   24.0311 C   0  0  1  0  0  0
  -20.5893  -28.3679   23.1326 C   0  0  2  0  0  0
  -20.6800  -26.9418   22.5420 C   0  0  0  0  0  0
  -19.5805  -26.6382   21.5212 C   0  0  0  0  0  0
  -18.1964  -26.7941   22.1556 C   0  0  0  0  0  0
  -19.1534  -28.8820   23.2898 C   0  0  0  0  0  0
  -18.9444  -30.1427   23.8891 C   0  0  0  0  0  0
  -17.6447  -30.6554   24.0524 C   0  0  0  0  0  0
  -25.9051  -34.9449   23.5080 C   0  0  0  0  0  0
  -16.5337  -29.9034   23.6316 C   0  0  0  0  0  0
  -16.7273  -28.6445   23.0340 C   0  0  0  0  0  0
  -26.4483  -31.6592   25.0732 C   0  0  0  0  0  0
  -25.3720  -31.3743   26.1463 C   0  0  0  0  0  0
  -27.0292  -30.3002   24.6192 C   0  0  0  0  0  0
  -27.6030  -32.4349   25.7524 C   0  0  0  0  0  0
  -27.5565  -37.1803   24.8461 C   0  0  0  0  0  0
  -21.4203  -29.3043   22.3731 N   0  0  0  0  0  0
  -26.4284  -37.3775   23.9404 N   0  0  0  0  0  0
  -24.6950  -31.0547   22.0973 N   0  0  0  0  0  0
  -23.4214  -28.8073   23.3022 O   0  0  0  0  0  0
  -28.3381  -26.4179   20.2045 O   0  0  0  0  0  0
  -26.5662  -34.8927   22.4671 O   0  0  0  0  0  0
  -23.5460  -32.1359   23.7316 O   0  0  0  0  0  0
  -29.5420  -18.6021   21.4154 C   0  0  0  0  0  0
  -30.0481  -17.7854   19.5006 C   0  0  0  0  0  0
  -29.3798  -19.6461   20.4974 C   0  0  0  0  0  0
  -28.2567  -21.2423   22.1392 C   0  0  0  0  0  0
  -29.0745  -15.7825   22.4548 C   0  0  0  0  0  0
  -31.4726  -16.3122   22.3432 C   0  0  0  0  0  0
  -29.1972  -23.9363   20.7089 C   0  0  0  0  0  0
  -29.5336  -22.4161   20.2239 C   0  0  0  0  0  0
  -28.1913  -24.9435   19.9647 C   0  0  0  0  0  0
  -28.7410  -21.0912   20.6871 C   0  0  1  0  0  0
  -30.2278  -16.0359   21.4614 C   0  0  0  0  0  0
  -29.7137  -19.0731   19.2600 N   0  0  0  0  0  0
  -29.9400  -17.3831   20.7815 N   0  0  0  0  0  0
  -30.4118  -11.4737   19.9051 H   0  0  0  0  0  0
  -31.4735  -12.6051   19.1498 H   0  0  0  0  0  0
  -29.7986  -11.7924   17.4943 H   0  0  0  0  0  0
  -29.6333  -13.5162   17.7398 H   0  0  0  0  0  0
  -27.8785  -11.3055   18.8462 H   0  0  0  0  0  0
  -27.3848  -12.5980   17.7819 H   0  0  0  0  0  0
  -27.6731  -14.2629   19.5437 H   0  0  0  0  0  0
  -28.7469  -11.9895   21.2577 H   0  0  0  0  0  0
  -28.3512  -13.5086   21.8915 H   0  0  0  0  0  0
  -25.2789   -9.5715   22.4713 H   0  0  0  0  0  0
  -23.9994   -7.4666   22.7502 H   0  0  0  0  0  0
  -21.0832   -8.8833   19.8943 H   0  0  0  0  0  0
  -22.3718  -10.9712   19.6153 H   0  0  0  0  0  0
  -21.2090   -7.6185   23.9740 H   0  0  0  0  0  0
  -21.1416   -6.0537   25.9067 H   0  0  0  0  0  0
  -22.0618   -2.7649   23.2827 H   0  0  0  0  0  0
  -22.4111  -11.9809   22.4693 H   0  0  0  0  0  0
  -21.1155  -13.1274   22.2699 H   0  0  0  0  0  0
  -24.6706  -15.8477   20.5380 H   0  0  0  0  0  0
  -26.2987  -15.6244   20.1377 H   0  0  0  0  0  0
  -26.7191  -32.5426   23.1099 H   0  0  0  0  0  0
  -24.9991  -33.9741   25.0334 H   0  0  0  0  0  0
  -22.7215  -31.3002   21.4070 H   0  0  0  0  0  0
  -23.3741  -35.9648   23.3314 H   0  0  0  0  0  0
  -24.3568  -36.8917   22.2048 H   0  0  0  0  0  0
  -23.7267  -37.6506   23.6672 H   0  0  0  0  0  0
  -26.1005  -31.5421   20.6003 H   0  0  0  0  0  0
  -26.8507  -30.8340   21.9976 H   0  0  0  0  0  0
  -28.1285  -28.9675   21.1673 H   0  0  0  0  0  0
  -25.9677  -25.9148   18.9991 H   0  0  0  0  0  0
  -23.9715  -27.2974   19.0167 H   0  0  0  0  0  0
  -23.7624  -30.5917   19.4087 H   0  0  0  0  0  0
  -22.7568  -29.2471   19.8595 H   0  0  0  0  0  0
  -25.1302  -36.1916   25.0804 H   0  0  0  0  0  0
  -20.9953  -28.3215   24.1461 H   0  0  0  0  0  0
  -20.5746  -26.2276   23.3599 H   0  0  0  0  0  0
  -21.6677  -26.7497   22.1190 H   0  0  0  0  0  0
  -19.6783  -27.3198   20.6738 H   0  0  0  0  0  0
  -19.7006  -25.6296   21.1242 H   0  0  0  0  0  0
  -17.4307  -26.6796   21.3870 H   0  0  0  0  0  0
  -18.0244  -26.0035   22.8880 H   0  0  0  0  0  0
  -19.7913  -30.7273   24.2227 H   0  0  0  0  0  0
  -17.4989  -31.6249   24.5067 H   0  0  0  0  0  0
  -15.5328  -30.2930   23.7596 H   0  0  0  0  0  0
  -15.8694  -28.0744   22.7031 H   0  0  0  0  0  0
  -24.5906  -30.7079   25.7796 H   0  0  0  0  0  0
  -24.8904  -32.2920   26.4868 H   0  0  0  0  0  0
  -25.8044  -30.8942   27.0250 H   0  0  0  0  0  0
  -26.2849  -29.6815   24.1172 H   0  0  0  0  0  0
  -27.3905  -29.7212   25.4696 H   0  0  0  0  0  0
  -27.8771  -30.4255   23.9455 H   0  0  0  0  0  0
  -27.2597  -33.3644   26.2091 H   0  0  0  0  0  0
  -28.3850  -32.6924   25.0368 H   0  0  0  0  0  0
  -28.0697  -31.8494   26.5463 H   0  0  0  0  0  0
  -28.2590  -38.0086   24.7476 H   0  0  0  0  0  0
  -28.1045  -36.2617   24.6324 H   0  0  0  0  0  0
  -27.2288  -37.1500   25.8864 H   0  0  0  0  0  0
  -20.9382  -29.8777   21.6956 H   0  0  0  0  0  0
  -26.0151  -38.2847   24.1402 H   0  0  0  0  0  0
  -29.3657  -18.6375   22.4813 H   0  0  0  0  0  0
  -30.3748  -17.1159   18.7157 H   0  0  0  0  0  0
  -27.5982  -20.4164   22.4158 H   0  0  0  0  0  0
  -27.6804  -22.1548   22.2838 H   0  0  0  0  0  0
  -29.0914  -21.2567   22.8418 H   0  0  0  0  0  0
  -29.2690  -14.9144   23.0824 H   0  0  0  0  0  0
  -28.9480  -16.6018   23.1602 H   0  0  0  0  0  0
  -28.1176  -15.6784   21.9440 H   0  0  0  0  0  0
  -32.3139  -16.6608   21.7408 H   0  0  0  0  0  0
  -31.2887  -17.0795   23.0929 H   0  0  0  0  0  0
  -31.8006  -15.4152   22.8719 H   0  0  0  0  0  0
  -30.1568  -24.4516   20.6662 H   0  0  0  0  0  0
  -28.9596  -23.9383   21.7722 H   0  0  0  0  0  0
  -29.6258  -22.4094   19.1384 H   0  0  0  0  0  0
  -30.5526  -22.2433   20.5744 H   0  0  0  0  0  0
  -27.1871  -24.6166   20.2339 H   0  0  0  0  0  0
  -28.2777  -24.7880   18.8902 H   0  0  0  0  0  0
  -27.8304  -21.0965   20.0875 H   0  0  0  0  0  0
  1 25  1  0  0  0
  1 30  2  0  0  0
  1 81  1  0  0  0
  2  3  1  0  0  0
  2 25  1  0  0  0
  2 84  1  0  0  0
  2 85  1  0  0  0
  3  4  1  0  0  0
  3 86  1  0  0  0
  3 87  1  0  0  0
  4  5  1  0  0  0
  4 88  1  0  0  0
  4 89  1  0  0  0
  5  6  1  0  0  0
  5 26  1  0  0  0
  5 90  1  0  0  0
  6 25  1  0  0  0
  6 91  1  0  0  0
  6 92  1  0  0  0
  7  8  2  0  0  0
  7 26  1  0  0  0
  7 29  1  0  0  0
  8  9  1  0  0  0
  8 22  1  0  0  0
  9 10  1  0  0  0
  9 27  2  0  0  0
 10 11  2  0  0  0
 10 15  1  0  0  0
 11 12  1  0  0  0
 11 93  1  0  0  0
 12 13  2  0  0  0
 12 94  1  0  0  0
 13 14  1  0  0  0
 13 31  1  0  0  0
 14 15  2  0  0  0
 14 95  1  0  0  0
 15 96  1  0  0  0
 16 17  2  0  0  0
 16 21  1  0  0  0
 16 31  1  0  0  0
 17 18  1  0  0  0
 17 97  1  0  0  0
 18 19  2  0  0  0
 18 98  1  0  0  0
 19 20  1  0  0  0
 19 24  1  0  0  0
 20 21  2  0  0  0
 20 99  1  0  0  0
 21 23  1  0  0  0
 22 28  1  0  0  0
 22 32  2  0  0  0
 26 27  1  0  0  0
 28100  1  0  0  0
 28101  1  0  0  0
 29102  1  0  0  0
 29103  1  0  0  0
 33 34  1  0  0  0
 33 66  1  0  0  0
 33 70  2  0  0  0
 34 36  1  0  0  0
 34 59  1  0  0  0
 34104  1  0  0  0
 35 44  2  0  0  0
 35 45  1  0  0  0
 35 68  1  0  0  0
 36 56  1  0  0  0
 36105  1  0  0  0
 37 39  1  0  0  0
 37 47  1  0  0  0
 37 66  1  0  0  0
 37106  1  0  0  0
 38 43  2  0  0  0
 38 46  1  0  0  0
 38 47  1  0  0  0
 39 64  1  0  0  0
 39 67  2  0  0  0
 40 52  1  0  0  0
 40 53  2  0  0  0
 40 58  1  0  0  0
 41107  1  0  0  0
 41108  1  0  0  0
 41109  1  0  0  0
 41 48  1  0  0  0
 42 43  1  0  0  0
 42 66  1  0  0  0
 42110  1  0  0  0
 42111  1  0  0  0
 43 44  1  0  0  0
 44112  1  0  0  0
 45 46  2  0  0  0
 45113  1  0  0  0
 46114  1  0  0  0
 47115  1  0  0  0
 47116  1  0  0  0
 48 56  1  0  0  0
 48 65  1  0  0  0
 48117  1  0  0  0
 49 50  1  0  0  0
 49 53  1  0  0  0
 49 64  1  0  0  0
 49118  1  0  0  0
 50 51  1  0  0  0
 50119  1  0  0  0
 50120  1  0  0  0
 51 52  1  0  0  0
 51121  1  0  0  0
 51122  1  0  0  0
 52123  1  0  0  0
 52124  1  0  0  0
 53 54  1  0  0  0
 54 55  2  0  0  0
 54125  1  0  0  0
 55 57  1  0  0  0
 55126  1  0  0  0
 56 69  2  0  0  0
 57 58  2  0  0  0
 57127  1  0  0  0
 58128  1  0  0  0
 59 60  1  0  0  0
 59 61  1  0  0  0
 59 62  1  0  0  0
 60129  1  0  0  0
 60130  1  0  0  0
 60131  1  0  0  0
 61132  1  0  0  0
 61133  1  0  0  0
 61134  1  0  0  0
 62135  1  0  0  0
 62136  1  0  0  0
 62137  1  0  0  0
 63 65  1  0  0  0
 63138  1  0  0  0
 63139  1  0  0  0
 63140  1  0  0  0
 64141  1  0  0  0
 65142  1  0  0  0
 68 79  1  0  0  0
 71 73  2  0  0  0
 71 83  1  0  0  0
 71143  1  0  0  0
 72 82  2  0  0  0
 72 83  1  0  0  0
 72144  1  0  0  0
 73 80  1  0  0  0
 73 82  1  0  0  0
 74145  1  0  0  0
 74146  1  0  0  0
 74147  1  0  0  0
 74 80  1  0  0  0
 75148  1  0  0  0
 75149  1  0  0  0
 75150  1  0  0  0
 75 81  1  0  0  0
 76 81  1  0  0  0
 76151  1  0  0  0
 76152  1  0  0  0
 76153  1  0  0  0
 77 78  1  0  0  0
 77 79  1  0  0  0
 77154  1  0  0  0
 77155  1  0  0  0
 78 80  1  0  0  0
 78156  1  0  0  0
 78157  1  0  0  0
 79158  1  0  0  0
 79159  1  0  0  0
 80160  1  0  0  0
 81 83  1  0  0  0
M  ISO  4   1 100  68 101  79 101  81 100
M  END
> <chiral flag>
0

> <version>
0

> <s_m_source_file>
/data/baiqing/PycharmProjects/Reinvent-master-3.2/result/LINK_invent/BTK/process_docking_weight1_custom_sum_contain_oxygen_bond_distance_aromatic_linkinvent_7_9_3/rearranged_h_0053.sdf

> <i_m_source_file_index>
4

> <r_mmod_Potential_Energy-OPLS-2005>
250.300308227539

> <r_mmod_Stretch_Energy-OPLS-2005>
132.132781982422

> <r_mmod_Bend_Energy-OPLS-2005>
226.148864746094

> <r_mmod_Torsional_Energy-OPLS-2005>
220.702560424805

> <r_mmod_Improper_Torsional_Energy-OPLS-2005>
2.78265976905823

> <r_mmod_Van_der_Waal_Energy-OPLS-2005>
135.091049194336

> <r_mmod_Electrostatic_Energy-OPLS-2005>
-334.063262939453

> <r_mmod_Solvation_Energy-OPLS-2005>
-199.331909179688

> <b_mmod_Minimization_Converged-OPLS-2005>
0

> <r_mmod_RMS_Derivative-OPLS-2005>
3.38113641738892

$$$$
4
                    3D
 Structure written by MMmdl.
154162  0  0  1  0            999 V2000
  -30.4735  -15.2559   20.3310 C   0  0  0  0  0  0
  -30.4381  -12.8075   19.4875 C   0  0  0  0  0  0
  -29.5214  -12.5542   18.2669 C   0  0  0  0  0  0
  -28.0781  -12.2638   18.7180 C   0  0  0  0  0  0
  -27.6029  -13.2414   19.8198 C   0  0  2  0  0  0
  -28.6547  -13.4690   20.9278 C   0  0  0  0  0  0
  -25.2427  -13.8146   20.5826 C   0  0  0  0  0  0
  -24.1733  -13.0386   20.9290 C   0  0  0  0  0  0
  -24.6350  -11.6869   20.8809 C   0  0  0  0  0  0
  -23.9041  -10.4256   21.0434 C   0  0  0  0  0  0
  -24.3601   -9.4172   21.9201 C   0  0  0  0  0  0
  -23.6280   -8.2209   22.0756 C   0  0  0  0  0  0
  -22.4263   -8.0258   21.3542 C   0  0  0  0  0  0
  -21.9898   -9.0232   20.4645 C   0  0  0  0  0  0
  -22.7224  -10.2111   20.3066 C   0  0  0  0  0  0
  -21.6843   -6.0725   22.5279 C   0  0  0  0  0  0
  -21.4007   -6.5633   23.8212 C   0  0  0  0  0  0
  -21.3657   -5.6789   24.9176 C   0  0  0  0  0  0
  -21.6043   -4.3052   24.7228 C   0  0  0  0  0  0
  -21.8821   -3.8141   23.4350 C   0  0  0  0  0  0
  -21.9190   -4.6955   22.3405 C   0  0  0  0  0  0
  -22.7760  -13.5179   21.1907 C   0  0  0  0  0  0
  -22.1660   -4.2141   21.0983 F   0  0  0  0  0  0
  -21.5631   -3.4537   25.7742 F   0  0  0  0  0  0
  -29.8739  -13.9666   20.2630 N   0  0  0  0  0  0
  -26.2805  -12.9327   20.3337 N   0  0  0  0  0  0
  -25.9280  -11.6475   20.5809 N   0  0  0  0  0  0
  -22.0397  -12.8178   22.0456 N   0  0  0  0  0  0
  -25.4130  -15.1883   20.4284 N   0  0  0  0  0  0
  -31.7119  -15.2079   20.3038 O   0  0  0  0  0  0
  -21.6625   -6.8862   21.4238 O   0  0  0  0  0  0
  -22.3465  -14.5486   20.6737 O   0  0  0  0  0  0
  -24.6608  -31.8271   23.1740 C   0  0  0  0  0  0
  -25.9302  -32.4609   23.8193 C   0  0  1  0  0  0
  -27.2211  -26.9591   20.1735 C   0  0  0  0  0  0
  -25.5979  -33.8421   24.2098 N   0  0  0  0  0  0
  -23.4744  -30.4408   21.5230 C   0  0  2  0  0  0
  -24.9288  -28.8377   20.1114 C   0  0  0  0  0  0
  -22.7659  -29.4459   22.4792 C   0  0  0  0  0  0
  -18.0322  -28.1408   22.8470 C   0  0  0  0  0  0
  -24.1491  -36.7214   23.2646 C   0  0  0  0  0  0
  -26.0432  -30.6432   21.4015 C   0  0  0  0  0  0
  -26.1127  -29.2368   20.7444 C   0  0  0  0  0  0
  -27.2542  -28.3179   20.7542 C   0  0  0  0  0  0
  -26.0079  -26.7129   19.4880 C   0  0  0  0  0  0
  -24.9003  -27.5947   19.4636 C   0  0  0  0  0  0
  -23.7132  -29.7610   20.1478 C   0  0  0  0  0  0
  -25.4131  -36.2980   24.0302 C   0  0  1  0  0  0
  -20.5946  -28.3752   23.1193 C   0  0  2  0  0  0
  -20.6799  -26.9436   22.5402 C   0  0  0  0  0  0
  -19.5771  -26.6378   21.5215 C   0  0  0  0  0  0
  -18.1953  -26.7942   22.1624 C   0  0  0  0  0  0
  -19.1583  -28.8900   23.2819 C   0  0  0  0  0  0
  -18.9493  -30.1489   23.8855 C   0  0  0  0  0  0
  -17.6486  -30.6599   24.0555 C   0  0  0  0  0  0
  -25.9096  -34.9361   23.5019 C   0  0  0  0  0  0
  -16.5377  -29.9087   23.6342 C   0  0  0  0  0  0
  -16.7304  -28.6506   23.0365 C   0  0  0  0  0  0
  -26.4559  -31.6543   25.0709 C   0  0  0  0  0  0
  -25.3690  -31.3787   26.1368 C   0  0  0  0  0  0
  -27.0453  -30.2914   24.6425 C   0  0  0  0  0  0
  -27.6052  -32.4349   25.7513 C   0  0  0  0  0  0
  -27.5570  -37.1766   24.8466 C   0  0  0  0  0  0
  -21.4331  -29.3048   22.3543 N   0  0  0  0  0  0
  -26.4279  -37.3714   23.9409 N   0  0  0  0  0  0
  -24.7472  -30.9961   22.0866 N   0  0  0  0  0  0
  -23.4218  -28.8021   23.3019 O   0  0  0  0  0  0
  -28.2092  -25.8475   20.2579 O   0  0  0  0  0  0
  -26.5699  -34.8890   22.4611 O   0  0  0  0  0  0
  -23.5682  -32.1227   23.6849 O   0  0  0  0  0  0
  -30.0919  -20.9365   20.9819 C   0  0  0  0  0  0
  -29.4718  -19.7230   20.4324 C   0  0  0  0  0  0
  -27.9114  -21.4735   19.6136 C   0  0  0  0  0  0
  -28.5359  -22.6900   20.1647 C   0  0  0  0  0  0
  -26.6315  -21.6199   18.8133 C   0  0  0  0  0  0
  -29.7633  -17.1948   17.7829 C   0  0  0  0  0  0
  -30.0699  -18.1027   20.7112 C   0  0  0  0  0  0
  -27.8215  -24.2820   20.0060 C   0  0  0  0  0  0
  -28.9408  -16.7125   18.9913 C   0  0  0  0  0  0
  -29.6719  -22.2996   20.8704 N   0  0  0  0  0  0
  -28.3368  -20.1147   19.7337 N   0  0  0  0  0  0
  -29.7612  -16.5614   20.1986 N   0  0  0  0  0  0
  -31.4501  -13.0192   19.1389 H   0  0  0  0  0  0
  -30.5183  -11.9164   20.1121 H   0  0  0  0  0  0
  -29.9026  -11.7245   17.6700 H   0  0  0  0  0  0
  -29.5313  -13.4304   17.6168 H   0  0  0  0  0  0
  -28.0524  -11.2442   19.1040 H   0  0  0  0  0  0
  -27.3985  -12.2851   17.8651 H   0  0  0  0  0  0
  -27.4640  -14.1740   19.2942 H   0  0  0  0  0  0
  -28.8423  -12.5570   21.4964 H   0  0  0  0  0  0
  -28.2974  -14.2151   21.6395 H   0  0  0  0  0  0
  -25.2742   -9.5650   22.4782 H   0  0  0  0  0  0
  -23.9986   -7.4595   22.7471 H   0  0  0  0  0  0
  -21.0830   -8.8754   19.8948 H   0  0  0  0  0  0
  -22.3688  -10.9658   19.6181 H   0  0  0  0  0  0
  -21.1997   -7.6141   23.9712 H   0  0  0  0  0  0
  -21.1478   -6.0521   25.9078 H   0  0  0  0  0  0
  -22.0604   -2.7603   23.2854 H   0  0  0  0  0  0
  -22.4014  -11.9848   22.4861 H   0  0  0  0  0  0
  -21.1008  -13.1196   22.2641 H   0  0  0  0  0  0
  -24.6512  -15.8454   20.5567 H   0  0  0  0  0  0
  -26.2763  -15.6334   20.1454 H   0  0  0  0  0  0
  -26.7371  -32.5159   23.0910 H   0  0  0  0  0  0
  -25.0088  -33.9505   25.0223 H   0  0  0  0  0  0
  -22.7863  -31.2719   21.3553 H   0  0  0  0  0  0
  -23.3766  -35.9531   23.3282 H   0  0  0  0  0  0
  -24.3568  -36.8883   22.2065 H   0  0  0  0  0  0
  -23.7234  -37.6391   23.6714 H   0  0  0  0  0  0
  -26.2202  -31.3867   20.6232 H   0  0  0  0  0  0
  -26.9044  -30.6990   22.0553 H   0  0  0  0  0  0
  -28.1477  -28.6200   21.2822 H   0  0  0  0  0  0
  -25.8678  -25.7692   18.9841 H   0  0  0  0  0  0
  -24.0018  -27.2835   18.9486 H   0  0  0  0  0  0
  -23.8667  -30.5316   19.3915 H   0  0  0  0  0  0
  -22.8238  -29.2144   19.8295 H   0  0  0  0  0  0
  -25.1328  -36.1781   25.0794 H   0  0  0  0  0  0
  -21.0035  -28.3355   24.1315 H   0  0  0  0  0  0
  -20.5681  -26.2370   23.3641 H   0  0  0  0  0  0
  -21.6663  -26.7414   22.1207 H   0  0  0  0  0  0
  -19.6928  -25.6276   21.1275 H   0  0  0  0  0  0
  -19.6707  -27.3162   20.6724 H   0  0  0  0  0  0
  -17.4222  -26.6686   21.4028 H   0  0  0  0  0  0
  -18.0348  -26.0095   22.9032 H   0  0  0  0  0  0
  -19.7968  -30.7317   24.2206 H   0  0  0  0  0  0
  -17.5038  -31.6275   24.5164 H   0  0  0  0  0  0
  -15.5375  -30.2975   23.7690 H   0  0  0  0  0  0
  -15.8704  -28.0807   22.7109 H   0  0  0  0  0  0
  -24.5889  -30.7116   25.7682 H   0  0  0  0  0  0
  -24.8858  -32.2985   26.4672 H   0  0  0  0  0  0
  -25.7926  -30.9040   27.0226 H   0  0  0  0  0  0
  -26.3119  -29.6597   24.1403 H   0  0  0  0  0  0
  -27.3965  -29.7269   25.5073 H   0  0  0  0  0  0
  -27.9067  -30.4105   23.9850 H   0  0  0  0  0  0
  -27.2620  -33.3689   26.1974 H   0  0  0  0  0  0
  -28.3926  -32.6846   25.0389 H   0  0  0  0  0  0
  -28.0650  -31.8553   26.5528 H   0  0  0  0  0  0
  -28.2571  -38.0077   24.7517 H   0  0  0  0  0  0
  -28.1082  -36.2605   24.6290 H   0  0  0  0  0  0
  -27.2286  -37.1405   25.8868 H   0  0  0  0  0  0
  -20.9577  -29.8744   21.6683 H   0  0  0  0  0  0
  -26.0129  -38.2772   24.1421 H   0  0  0  0  0  0
  -30.9884  -20.8098   21.5714 H   0  0  0  0  0  0
  -25.8715  -22.1410   19.3954 H   0  0  0  0  0  0
  -26.2219  -20.6510   18.5260 H   0  0  0  0  0  0
  -26.8175  -22.1866   17.9010 H   0  0  0  0  0  0
  -29.1316  -17.2744   16.8976 H   0  0  0  0  0  0
  -30.5713  -16.5022   17.5442 H   0  0  0  0  0  0
  -30.2035  -18.1776   17.9528 H   0  0  0  0  0  0
  -31.1392  -18.2068   20.5249 H   0  0  0  0  0  0
  -30.0105  -18.0095   21.7955 H   0  0  0  0  0  0
  -26.8816  -24.1689   20.5468 H   0  0  0  0  0  0
  -27.5353  -24.2867   18.9550 H   0  0  0  0  0  0
  -28.4935  -15.7765   18.6920 H   0  0  0  0  0  0
  -28.1095  -17.3904   19.1872 H   0  0  0  0  0  0
  1 25  1  0  0  0
  1 30  2  0  0  0
  1 82  1  0  0  0
  2  3  1  0  0  0
  2 25  1  0  0  0
  2 83  1  0  0  0
  2 84  1  0  0  0
  3  4  1  0  0  0
  3 85  1  0  0  0
  3 86  1  0  0  0
  4  5  1  0  0  0
  4 87  1  0  0  0
  4 88  1  0  0  0
  5  6  1  0  0  0
  5 26  1  0  0  0
  5 89  1  0  0  0
  6 25  1  0  0  0
  6 90  1  0  0  0
  6 91  1  0  0  0
  7  8  2  0  0  0
  7 26  1  0  0  0
  7 29  1  0  0  0
  8  9  1  0  0  0
  8 22  1  0  0  0
  9 10  1  0  0  0
  9 27  2  0  0  0
 10 11  2  0  0  0
 10 15  1  0  0  0
 11 12  1  0  0  0
 11 92  1  0  0  0
 12 13  2  0  0  0
 12 93  1  0  0  0
 13 14  1  0  0  0
 13 31  1  0  0  0
 14 15  2  0  0  0
 14 94  1  0  0  0
 15 95  1  0  0  0
 16 17  2  0  0  0
 16 21  1  0  0  0
 16 31  1  0  0  0
 17 18  1  0  0  0
 17 96  1  0  0  0
 18 19  2  0  0  0
 18 97  1  0  0  0
 19 20  1  0  0  0
 19 24  1  0  0  0
 20 21  2  0  0  0
 20 98  1  0  0  0
 21 23  1  0  0  0
 22 28  1  0  0  0
 22 32  2  0  0  0
 26 27  1  0  0  0
 28 99  1  0  0  0
 28100  1  0  0  0
 29101  1  0  0  0
 29102  1  0  0  0
 33 34  1  0  0  0
 33 66  1  0  0  0
 33 70  2  0  0  0
 34 36  1  0  0  0
 34 59  1  0  0  0
 34103  1  0  0  0
 35 44  2  0  0  0
 35 45  1  0  0  0
 35 68  1  0  0  0
 36 56  1  0  0  0
 36104  1  0  0  0
 37 39  1  0  0  0
 37 47  1  0  0  0
 37 66  1  0  0  0
 37105  1  0  0  0
 38 43  2  0  0  0
 38 46  1  0  0  0
 38 47  1  0  0  0
 39 64  1  0  0  0
 39 67  2  0  0  0
 40 52  1  0  0  0
 40 53  2  0  0  0
 40 58  1  0  0  0
 41106  1  0  0  0
 41107  1  0  0  0
 41108  1  0  0  0
 41 48  1  0  0  0
 42 43  1  0  0  0
 42 66  1  0  0  0
 42109  1  0  0  0
 42110  1  0  0  0
 43 44  1  0  0  0
 44111  1  0  0  0
 45 46  2  0  0  0
 45112  1  0  0  0
 46113  1  0  0  0
 47114  1  0  0  0
 47115  1  0  0  0
 48 56  1  0  0  0
 48 65  1  0  0  0
 48116  1  0  0  0
 49 50  1  0  0  0
 49 53  1  0  0  0
 49 64  1  0  0  0
 49117  1  0  0  0
 50 51  1  0  0  0
 50118  1  0  0  0
 50119  1  0  0  0
 51 52  1  0  0  0
 51120  1  0  0  0
 51121  1  0  0  0
 52122  1  0  0  0
 52123  1  0  0  0
 53 54  1  0  0  0
 54 55  2  0  0  0
 54124  1  0  0  0
 55 57  1  0  0  0
 55125  1  0  0  0
 56 69  2  0  0  0
 57 58  2  0  0  0
 57126  1  0  0  0
 58127  1  0  0  0
 59 60  1  0  0  0
 59 61  1  0  0  0
 59 62  1  0  0  0
 60128  1  0  0  0
 60129  1  0  0  0
 60130  1  0  0  0
 61131  1  0  0  0
 61132  1  0  0  0
 61133  1  0  0  0
 62134  1  0  0  0
 62135  1  0  0  0
 62136  1  0  0  0
 63 65  1  0  0  0
 63137  1  0  0  0
 63138  1  0  0  0
 63139  1  0  0  0
 64140  1  0  0  0
 65141  1  0  0  0
 68 78  1  0  0  0
 71 72  2  0  0  0
 71 80  1  0  0  0
 71142  1  0  0  0
 72 77  1  0  0  0
 72 81  1  0  0  0
 73 74  1  0  0  0
 73 75  1  0  0  0
 73 81  2  0  0  0
 74 78  1  0  0  0
 74 80  2  0  0  0
 75143  1  0  0  0
 75144  1  0  0  0
 75145  1  0  0  0
 76 79  1  0  0  0
 76146  1  0  0  0
 76147  1  0  0  0
 76148  1  0  0  0
 77 82  1  0  0  0
 77149  1  0  0  0
 77150  1  0  0  0
 78151  1  0  0  0
 78152  1  0  0  0
 79 82  1  0  0  0
 79153  1  0  0  0
 79154  1  0  0  0
M  ISO  4   1 100  68 101  78 101  82 100
M  END
> <chiral flag>
0

> <version>
0

> <s_m_source_file>
/data/baiqing/PycharmProjects/Reinvent-master-3.2/result/LINK_invent/BTK/process_docking_weight1_custom_sum_contain_oxygen_bond_distance_aromatic_linkinvent_7_9_3/rearranged_h_0053.sdf

> <i_m_source_file_index>
5

> <r_mmod_Potential_Energy-OPLS-2005>
1370.66906738281

> <r_mmod_Stretch_Energy-OPLS-2005>
501.151550292969

> <r_mmod_Bend_Energy-OPLS-2005>
452.411590576172

> <r_mmod_Torsional_Energy-OPLS-2005>
282.607086181641

> <r_mmod_Improper_Torsional_Energy-OPLS-2005>
7.1893253326416

> <r_mmod_Van_der_Waal_Energy-OPLS-2005>
133.026168823242

> <r_mmod_Electrostatic_Energy-OPLS-2005>
-228.672134399414

> <r_mmod_Solvation_Energy-OPLS-2005>
-221.0703125

> <b_mmod_Minimization_Converged-OPLS-2005>
0

> <r_mmod_RMS_Derivative-OPLS-2005>
0.25433224439621

$$$$
5
                    3D
 Structure written by MMmdl.
149157  0  0  1  0            999 V2000
  -30.4297  -15.3035   20.3621 C   0  0  0  0  0  0
  -30.4373  -12.8366   19.5271 C   0  0  0  0  0  0
  -29.5387  -12.5843   18.2899 C   0  0  0  0  0  0
  -28.0892  -12.2990   18.7203 C   0  0  0  0  0  0
  -27.6095  -13.2785   19.8199 C   0  0  2  0  0  0
  -28.6417  -13.4733   20.9510 C   0  0  0  0  0  0
  -25.2383  -13.8253   20.5752 C   0  0  0  0  0  0
  -24.1737  -13.0440   20.9261 C   0  0  0  0  0  0
  -24.6400  -11.6938   20.8764 C   0  0  0  0  0  0
  -23.9095  -10.4295   21.0400 C   0  0  0  0  0  0
  -24.3635   -9.4209   21.9180 C   0  0  0  0  0  0
  -23.6303   -8.2248   22.0757 C   0  0  0  0  0  0
  -22.4278   -8.0289   21.3548 C   0  0  0  0  0  0
  -21.9920   -9.0266   20.4652 C   0  0  0  0  0  0
  -22.7259  -10.2139   20.3054 C   0  0  0  0  0  0
  -21.6854   -6.0741   22.5281 C   0  0  0  0  0  0
  -21.4024   -6.5644   23.8217 C   0  0  0  0  0  0
  -21.3656   -5.6795   24.9175 C   0  0  0  0  0  0
  -21.6037   -4.3055   24.7224 C   0  0  0  0  0  0
  -21.8816   -3.8150   23.4344 C   0  0  0  0  0  0
  -21.9195   -4.6971   22.3399 C   0  0  0  0  0  0
  -22.7755  -13.5198   21.1894 C   0  0  0  0  0  0
  -22.1659   -4.2157   21.0976 F   0  0  0  0  0  0
  -21.5619   -3.4537   25.7732 F   0  0  0  0  0  0
  -29.8661  -13.9919   20.3171 N   0  0  0  0  0  0
  -26.2811  -12.9535   20.3213 N   0  0  0  0  0  0
  -25.9336  -11.6635   20.5710 N   0  0  0  0  0  0
  -22.0405  -12.8192   22.0454 N   0  0  0  0  0  0
  -25.4003  -15.1993   20.4192 N   0  0  0  0  0  0
  -31.6553  -15.2827   20.1744 O   0  0  0  0  0  0
  -21.6641   -6.8885   21.4243 O   0  0  0  0  0  0
  -22.3436  -14.5495   20.6728 O   0  0  0  0  0  0
  -24.6663  -31.8194   23.1665 C   0  0  0  0  0  0
  -25.9325  -32.4566   23.8147 C   0  0  1  0  0  0
  -27.2235  -26.8978   20.1886 C   0  0  0  0  0  0
  -25.5977  -33.8380   24.2053 N   0  0  0  0  0  0
  -23.4830  -30.4288   21.5166 C   0  0  2  0  0  0
  -24.9374  -28.8078   20.1142 C   0  0  0  0  0  0
  -22.7686  -29.4415   22.4768 C   0  0  0  0  0  0
  -18.0323  -28.1410   22.8460 C   0  0  0  0  0  0
  -24.1498  -36.7200   23.2650 C   0  0  0  0  0  0
  -26.0538  -30.6166   21.4010 C   0  0  0  0  0  0
  -26.1220  -29.2028   20.7473 C   0  0  0  0  0  0
  -27.2590  -28.2701   20.7567 C   0  0  0  0  0  0
  -26.0078  -26.6608   19.5083 C   0  0  0  0  0  0
  -24.9071  -27.5582   19.4735 C   0  0  0  0  0  0
  -23.7246  -29.7392   20.1454 C   0  0  0  0  0  0
  -25.4138  -36.2952   24.0297 C   0  0  1  0  0  0
  -20.5951  -28.3756   23.1182 C   0  0  2  0  0  0
  -20.6803  -26.9432   22.5404 C   0  0  0  0  0  0
  -19.5777  -26.6372   21.5214 C   0  0  0  0  0  0
  -18.1958  -26.7940   22.1618 C   0  0  0  0  0  0
  -19.1587  -28.8904   23.2804 C   0  0  0  0  0  0
  -18.9492  -30.1496   23.8841 C   0  0  0  0  0  0
  -17.6485  -30.6598   24.0553 C   0  0  0  0  0  0
  -25.9102  -34.9335   23.5002 C   0  0  0  0  0  0
  -16.5375  -29.9085   23.6344 C   0  0  0  0  0  0
  -16.7305  -28.6504   23.0360 C   0  0  0  0  0  0
  -26.4562  -31.6525   25.0692 C   0  0  0  0  0  0
  -25.3680  -31.3780   26.1344 C   0  0  0  0  0  0
  -27.0471  -30.2891   24.6453 C   0  0  0  0  0  0
  -27.6045  -32.4345   25.7495 C   0  0  0  0  0  0
  -27.5566  -37.1761   24.8465 C   0  0  0  0  0  0
  -21.4350  -29.3036   22.3524 N   0  0  0  0  0  0
  -26.4284  -37.3686   23.9398 N   0  0  0  0  0  0
  -24.7559  -30.9832   22.0815 N   0  0  0  0  0  0
  -23.4215  -28.7992   23.3030 O   0  0  0  0  0  0
  -28.2261  -25.7826   20.2619 O   0  0  0  0  0  0
  -26.5717  -34.8877   22.4603 O   0  0  0  0  0  0
  -23.5723  -32.1171   23.6743 O   0  0  0  0  0  0
  -26.6606  -19.8356   19.9561 C   0  0  0  0  0  0
  -28.7348  -19.4905   20.2379 C   0  0  0  0  0  0
  -30.9430  -18.4952   19.2035 C   0  0  0  0  0  0
  -28.9536  -22.5945   20.3259 C   0  0  0  0  0  0
  -27.9776  -24.1360   20.1436 C   0  0  0  0  0  0
  -29.9485  -18.2574   20.3483 C   0  0  2  0  0  0
  -27.5805  -18.8452   20.0558 N   0  0  0  0  0  0
  -27.1043  -21.0792   20.0484 N   0  0  0  0  0  0
  -28.4496  -20.9934   20.2249 N   0  0  0  0  0  0
  -29.6740  -16.5910   20.4175 N   0  0  0  0  0  0
  -31.4554  -13.0425   19.1953 H   0  0  0  0  0  0
  -30.5111  -11.9401   20.1450 H   0  0  0  0  0  0
  -29.9276  -11.7548   17.6982 H   0  0  0  0  0  0
  -29.5626  -13.4616   17.6414 H   0  0  0  0  0  0
  -28.0560  -11.2782   19.1035 H   0  0  0  0  0  0
  -27.4199  -12.3261   17.8594 H   0  0  0  0  0  0
  -27.5183  -14.2401   19.3127 H   0  0  0  0  0  0
  -28.8200  -12.5448   21.4964 H   0  0  0  0  0  0
  -28.2735  -14.1960   21.6807 H   0  0  0  0  0  0
  -25.2780   -9.5682   22.4762 H   0  0  0  0  0  0
  -24.0008   -7.4634   22.7479 H   0  0  0  0  0  0
  -21.0844   -8.8786   19.8957 H   0  0  0  0  0  0
  -22.3715  -10.9678   19.6162 H   0  0  0  0  0  0
  -21.2029   -7.6154   23.9724 H   0  0  0  0  0  0
  -21.1477   -6.0522   25.9078 H   0  0  0  0  0  0
  -22.0598   -2.7616   23.2836 H   0  0  0  0  0  0
  -22.4024  -11.9874   22.4876 H   0  0  0  0  0  0
  -21.1017  -13.1213   22.2638 H   0  0  0  0  0  0
  -24.6280  -15.8459   20.5345 H   0  0  0  0  0  0
  -26.2412  -15.6474   20.0802 H   0  0  0  0  0  0
  -26.7402  -32.5095   23.0865 H   0  0  0  0  0  0
  -25.0059  -33.9441   25.0162 H   0  0  0  0  0  0
  -22.7978  -31.2611   21.3421 H   0  0  0  0  0  0
  -23.3761  -35.9531   23.3293 H   0  0  0  0  0  0
  -24.3568  -36.8867   22.2068 H   0  0  0  0  0  0
  -23.7262  -37.6386   23.6721 H   0  0  0  0  0  0
  -26.2385  -31.3547   20.6194 H   0  0  0  0  0  0
  -26.9125  -30.6759   22.0577 H   0  0  0  0  0  0
  -28.1566  -28.5706   21.2781 H   0  0  0  0  0  0
  -25.8750  -25.7065   19.0199 H   0  0  0  0  0  0
  -24.0077  -27.2496   18.9584 H   0  0  0  0  0  0
  -23.8822  -30.5045   19.3847 H   0  0  0  0  0  0
  -22.8339  -29.1940   19.8284 H   0  0  0  0  0  0
  -25.1342  -36.1746   25.0789 H   0  0  0  0  0  0
  -21.0035  -28.3370   24.1307 H   0  0  0  0  0  0
  -20.5686  -26.2367   23.3645 H   0  0  0  0  0  0
  -21.6666  -26.7409   22.1210 H   0  0  0  0  0  0
  -19.6938  -25.6268   21.1280 H   0  0  0  0  0  0
  -19.6725  -27.3154   20.6722 H   0  0  0  0  0  0
  -17.4227  -26.6678   21.4022 H   0  0  0  0  0  0
  -18.0355  -26.0099   22.9031 H   0  0  0  0  0  0
  -19.7965  -30.7330   24.2183 H   0  0  0  0  0  0
  -17.5032  -31.6271   24.5170 H   0  0  0  0  0  0
  -15.5373  -30.2969   23.7697 H   0  0  0  0  0  0
  -15.8702  -28.0806   22.7109 H   0  0  0  0  0  0
  -24.5866  -30.7132   25.7640 H   0  0  0  0  0  0
  -24.8868  -32.2987   26.4658 H   0  0  0  0  0  0
  -25.7904  -30.9006   27.0198 H   0  0  0  0  0  0
  -26.3151  -29.6548   24.1446 H   0  0  0  0  0  0
  -27.3976  -29.7274   25.5121 H   0  0  0  0  0  0
  -27.9097  -30.4058   23.9892 H   0  0  0  0  0  0
  -27.2606  -33.3686   26.1948 H   0  0  0  0  0  0
  -28.3921  -32.6847   25.0375 H   0  0  0  0  0  0
  -28.0650  -31.8563   26.5516 H   0  0  0  0  0  0
  -28.2577  -38.0059   24.7488 H   0  0  0  0  0  0
  -28.1070  -36.2586   24.6331 H   0  0  0  0  0  0
  -27.2275  -37.1448   25.8866 H   0  0  0  0  0  0
  -20.9615  -29.8703   21.6627 H   0  0  0  0  0  0
  -26.0130  -38.2749   24.1387 H   0  0  0  0  0  0
  -25.6098  -19.6306   19.8061 H   0  0  0  0  0  0
  -31.3183  -19.5181   19.2214 H   0  0  0  0  0  0
  -30.4689  -18.3326   18.2356 H   0  0  0  0  0  0
  -31.8063  -17.8338   19.2715 H   0  0  0  0  0  0
  -29.4356  -22.6691   21.3008 H   0  0  0  0  0  0
  -29.7785  -22.6765   19.6180 H   0  0  0  0  0  0
  -27.1318  -23.9827   20.8146 H   0  0  0  0  0  0
  -27.5400  -24.0370   19.1502 H   0  0  0  0  0  0
  -30.4802  -18.4755   21.2747 H   0  0  0  0  0  0
  -28.6845  -16.4198   20.5199 H   0  0  0  0  0  0
  1 25  1  0  0  0
  1 30  2  0  0  0
  1 80  1  0  0  0
  2  3  1  0  0  0
  2 25  1  0  0  0
  2 81  1  0  0  0
  2 82  1  0  0  0
  3  4  1  0  0  0
  3 83  1  0  0  0
  3 84  1  0  0  0
  4  5  1  0  0  0
  4 85  1  0  0  0
  4 86  1  0  0  0
  5  6  1  0  0  0
  5 26  1  0  0  0
  5 87  1  0  0  0
  6 25  1  0  0  0
  6 88  1  0  0  0
  6 89  1  0  0  0
  7  8  2  0  0  0
  7 26  1  0  0  0
  7 29  1  0  0  0
  8  9  1  0  0  0
  8 22  1  0  0  0
  9 10  1  0  0  0
  9 27  2  0  0  0
 10 11  2  0  0  0
 10 15  1  0  0  0
 11 12  1  0  0  0
 11 90  1  0  0  0
 12 13  2  0  0  0
 12 91  1  0  0  0
 13 14  1  0  0  0
 13 31  1  0  0  0
 14 15  2  0  0  0
 14 92  1  0  0  0
 15 93  1  0  0  0
 16 17  2  0  0  0
 16 21  1  0  0  0
 16 31  1  0  0  0
 17 18  1  0  0  0
 17 94  1  0  0  0
 18 19  2  0  0  0
 18 95  1  0  0  0
 19 20  1  0  0  0
 19 24  1  0  0  0
 20 21  2  0  0  0
 20 96  1  0  0  0
 21 23  1  0  0  0
 22 28  1  0  0  0
 22 32  2  0  0  0
 26 27  1  0  0  0
 28 97  1  0  0  0
 28 98  1  0  0  0
 29 99  1  0  0  0
 29100  1  0  0  0
 33 34  1  0  0  0
 33 66  1  0  0  0
 33 70  2  0  0  0
 34 36  1  0  0  0
 34 59  1  0  0  0
 34101  1  0  0  0
 35 44  2  0  0  0
 35 45  1  0  0  0
 35 68  1  0  0  0
 36 56  1  0  0  0
 36102  1  0  0  0
 37 39  1  0  0  0
 37 47  1  0  0  0
 37 66  1  0  0  0
 37103  1  0  0  0
 38 43  2  0  0  0
 38 46  1  0  0  0
 38 47  1  0  0  0
 39 64  1  0  0  0
 39 67  2  0  0  0
 40 52  1  0  0  0
 40 53  2  0  0  0
 40 58  1  0  0  0
 41104  1  0  0  0
 41105  1  0  0  0
 41106  1  0  0  0
 41 48  1  0  0  0
 42 43  1  0  0  0
 42 66  1  0  0  0
 42107  1  0  0  0
 42108  1  0  0  0
 43 44  1  0  0  0
 44109  1  0  0  0
 45 46  2  0  0  0
 45110  1  0  0  0
 46111  1  0  0  0
 47112  1  0  0  0
 47113  1  0  0  0
 48 56  1  0  0  0
 48 65  1  0  0  0
 48114  1  0  0  0
 49 50  1  0  0  0
 49 53  1  0  0  0
 49 64  1  0  0  0
 49115  1  0  0  0
 50 51  1  0  0  0
 50116  1  0  0  0
 50117  1  0  0  0
 51 52  1  0  0  0
 51118  1  0  0  0
 51119  1  0  0  0
 52120  1  0  0  0
 52121  1  0  0  0
 53 54  1  0  0  0
 54 55  2  0  0  0
 54122  1  0  0  0
 55 57  1  0  0  0
 55123  1  0  0  0
 56 69  2  0  0  0
 57 58  2  0  0  0
 57124  1  0  0  0
 58125  1  0  0  0
 59 60  1  0  0  0
 59 61  1  0  0  0
 59 62  1  0  0  0
 60126  1  0  0  0
 60127  1  0  0  0
 60128  1  0  0  0
 61129  1  0  0  0
 61130  1  0  0  0
 61131  1  0  0  0
 62132  1  0  0  0
 62133  1  0  0  0
 62134  1  0  0  0
 63 65  1  0  0  0
 63135  1  0  0  0
 63136  1  0  0  0
 63137  1  0  0  0
 64138  1  0  0  0
 65139  1  0  0  0
 68 75  1  0  0  0
 71 77  1  0  0  0
 71 78  2  0  0  0
 71140  1  0  0  0
 72 76  1  0  0  0
 72 77  2  0  0  0
 72 79  1  0  0  0
 73141  1  0  0  0
 73142  1  0  0  0
 73143  1  0  0  0
 73 76  1  0  0  0
 74 75  1  0  0  0
 74 79  1  0  0  0
 74144  1  0  0  0
 74145  1  0  0  0
 75146  1  0  0  0
 75147  1  0  0  0
 76 80  1  0  0  0
 76148  1  0  0  0
 78 79  1  0  0  0
 80149  1  0  0  0
M  ISO  4   1 100  68 101  75 101  80 100
M  END
> <chiral flag>
0

> <version>
0

> <s_m_source_file>
/data/baiqing/PycharmProjects/Reinvent-master-3.2/result/LINK_invent/BTK/process_docking_weight1_custom_sum_contain_oxygen_bond_distance_aromatic_linkinvent_7_9_3/rearranged_h_0053.sdf

> <i_m_source_file_index>
6

> <r_mmod_Potential_Energy-OPLS-2005>
1347.77465820312

> <r_mmod_Stretch_Energy-OPLS-2005>
669.239807128906

> <r_mmod_Bend_Energy-OPLS-2005>
514.663818359375

> <r_mmod_Torsional_Energy-OPLS-2005>
209.645660400391

> <r_mmod_Improper_Torsional_Energy-OPLS-2005>
3.91547465324402

> <r_mmod_Van_der_Waal_Energy-OPLS-2005>
102.120758056641

> <r_mmod_Electrostatic_Energy-OPLS-2005>
-428.656585693359

> <r_mmod_Solvation_Energy-OPLS-2005>
-222.905456542969

> <b_mmod_Minimization_Converged-OPLS-2005>
0

> <r_mmod_RMS_Derivative-OPLS-2005>
1.10805261135101

$$$$
6
                    3D
 Structure written by MMmdl.
152160  0  0  1  0            999 V2000
  -30.4841  -15.1977   20.3726 C   0  0  0  0  0  0
  -30.4345  -12.7626   19.5159 C   0  0  0  0  0  0
  -29.5293  -12.5581   18.2775 C   0  0  0  0  0  0
  -28.0761  -12.2965   18.7077 C   0  0  0  0  0  0
  -27.6123  -13.2707   19.8199 C   0  0  2  0  0  0
  -28.6494  -13.4331   20.9514 C   0  0  0  0  0  0
  -25.2400  -13.8245   20.5750 C   0  0  0  0  0  0
  -24.1747  -13.0439   20.9259 C   0  0  0  0  0  0
  -24.6398  -11.6934   20.8763 C   0  0  0  0  0  0
  -23.9092  -10.4293   21.0406 C   0  0  0  0  0  0
  -24.3637   -9.4206   21.9183 C   0  0  0  0  0  0
  -23.6304   -8.2243   22.0753 C   0  0  0  0  0  0
  -22.4283   -8.0284   21.3546 C   0  0  0  0  0  0
  -21.9925   -9.0260   20.4648 C   0  0  0  0  0  0
  -22.7261  -10.2135   20.3057 C   0  0  0  0  0  0
  -21.6857   -6.0740   22.5280 C   0  0  0  0  0  0
  -21.4015   -6.5643   23.8215 C   0  0  0  0  0  0
  -21.3660   -5.6794   24.9176 C   0  0  0  0  0  0
  -21.6043   -4.3057   24.7224 C   0  0  0  0  0  0
  -21.8819   -3.8151   23.4346 C   0  0  0  0  0  0
  -21.9194   -4.6968   22.3403 C   0  0  0  0  0  0
  -22.7765  -13.5192   21.1905 C   0  0  0  0  0  0
  -22.1662   -4.2154   21.0981 F   0  0  0  0  0  0
  -21.5627   -3.4540   25.7739 F   0  0  0  0  0  0
  -29.8884  -13.9123   20.3210 N   0  0  0  0  0  0
  -26.2822  -12.9513   20.3210 N   0  0  0  0  0  0
  -25.9331  -11.6622   20.5720 N   0  0  0  0  0  0
  -22.0422  -12.8174   22.0460 N   0  0  0  0  0  0
  -25.4040  -15.1982   20.4200 N   0  0  0  0  0  0
  -31.7089  -15.1653   20.1942 O   0  0  0  0  0  0
  -21.6644   -6.8883   21.4243 O   0  0  0  0  0  0
  -22.3443  -14.5493   20.6746 O   0  0  0  0  0  0
  -24.6602  -31.8291   23.1756 C   0  0  0  0  0  0
  -25.9304  -32.4615   23.8204 C   0  0  1  0  0  0
  -27.2097  -26.9643   20.1736 C   0  0  0  0  0  0
  -25.5986  -33.8425   24.2109 N   0  0  0  0  0  0
  -23.4722  -30.4448   21.5250 C   0  0  2  0  0  0
  -24.9232  -28.8441   20.1133 C   0  0  0  0  0  0
  -22.7656  -29.4475   22.4800 C   0  0  0  0  0  0
  -18.0324  -28.1405   22.8469 C   0  0  0  0  0  0
  -24.1495  -36.7217   23.2643 C   0  0  0  0  0  0
  -26.0412  -30.6468   21.4020 C   0  0  0  0  0  0
  -26.1088  -29.2419   20.7441 C   0  0  0  0  0  0
  -27.2502  -28.3235   20.7507 C   0  0  0  0  0  0
  -25.9945  -26.7188   19.4918 C   0  0  0  0  0  0
  -24.8898  -27.6015   19.4674 C   0  0  0  0  0  0
  -23.7095  -29.7682   20.1490 C   0  0  0  0  0  0
  -25.4132  -36.2981   24.0302 C   0  0  1  0  0  0
  -20.5948  -28.3749   23.1190 C   0  0  2  0  0  0
  -20.6803  -26.9437   22.5391 C   0  0  0  0  0  0
  -19.5769  -26.6379   21.5210 C   0  0  0  0  0  0
  -18.1956  -26.7936   22.1629 C   0  0  0  0  0  0
  -19.1585  -28.8898   23.2817 C   0  0  0  0  0  0
  -18.9494  -30.1490   23.8846 C   0  0  0  0  0  0
  -17.6487  -30.6594   24.0556 C   0  0  0  0  0  0
  -25.9093  -34.9363   23.5021 C   0  0  0  0  0  0
  -16.5378  -29.9079   23.6345 C   0  0  0  0  0  0
  -16.7306  -28.6503   23.0361 C   0  0  0  0  0  0
  -26.4560  -31.6544   25.0718 C   0  0  0  0  0  0
  -25.3696  -31.3798   26.1385 C   0  0  0  0  0  0
  -27.0447  -30.2909   24.6436 C   0  0  0  0  0  0
  -27.6058  -32.4347   25.7517 C   0  0  0  0  0  0
  -27.5571  -37.1767   24.8468 C   0  0  0  0  0  0
  -21.4330  -29.3047   22.3545 N   0  0  0  0  0  0
  -26.4282  -37.3713   23.9407 N   0  0  0  0  0  0
  -24.7457  -30.9990   22.0879 N   0  0  0  0  0  0
  -23.4224  -28.8034   23.3019 O   0  0  0  0  0  0
  -28.1990  -25.8566   20.2386 O   0  0  0  0  0  0
  -26.5698  -34.8888   22.4611 O   0  0  0  0  0  0
  -23.5680  -32.1246   23.6869 O   0  0  0  0  0  0
  -28.6857  -20.2805   19.2455 C   0  0  0  0  0  0
  -28.2884  -21.6999   19.1825 C   0  0  0  0  0  0
  -29.4059  -19.6399   20.3277 C   0  0  0  0  0  0
  -28.5523  -22.7242   20.1747 C   0  0  0  0  0  0
  -29.6223  -20.7284   21.2935 C   0  0  0  0  0  0
  -30.4241  -20.4125   22.5401 C   0  0  0  0  0  0
  -31.1040  -18.1751   19.0470 C   0  0  0  0  0  0
  -27.7744  -24.2834   20.1726 C   0  0  0  0  0  0
  -30.1951  -18.0805   20.2858 C   0  0  2  0  0  0
  -29.2116  -22.0997   21.2363 N   0  0  0  0  0  0
  -29.7593  -16.4868   20.4114 N   0  0  0  0  0  0
  -31.4571  -12.9486   19.1853 H   0  0  0  0  0  0
  -30.4824  -11.8538   20.1179 H   0  0  0  0  0  0
  -29.8959  -11.7295   17.6701 H   0  0  0  0  0  0
  -29.5710  -13.4462   17.6450 H   0  0  0  0  0  0
  -28.0241  -11.2715   19.0768 H   0  0  0  0  0  0
  -27.4068  -12.3471   17.8480 H   0  0  0  0  0  0
  -27.5321  -14.2397   19.3260 H   0  0  0  0  0  0
  -28.8029  -12.4988   21.4937 H   0  0  0  0  0  0
  -28.3019  -14.1656   21.6817 H   0  0  0  0  0  0
  -25.2778   -9.5682   22.4764 H   0  0  0  0  0  0
  -24.0013   -7.4634   22.7473 H   0  0  0  0  0  0
  -21.0854   -8.8785   19.8954 H   0  0  0  0  0  0
  -22.3717  -10.9678   19.6171 H   0  0  0  0  0  0
  -21.2008   -7.6151   23.9718 H   0  0  0  0  0  0
  -21.1479   -6.0525   25.9078 H   0  0  0  0  0  0
  -22.0596   -2.7613   23.2847 H   0  0  0  0  0  0
  -22.4055  -11.9848   22.4858 H   0  0  0  0  0  0
  -21.1037  -13.1185   22.2663 H   0  0  0  0  0  0
  -24.6354  -15.8485   20.5420 H   0  0  0  0  0  0
  -26.2451  -15.6423   20.0762 H   0  0  0  0  0  0
  -26.7377  -32.5168   23.0924 H   0  0  0  0  0  0
  -25.0096  -33.9514   25.0237 H   0  0  0  0  0  0
  -22.7836  -31.2761   21.3602 H   0  0  0  0  0  0
  -23.3758  -35.9548   23.3296 H   0  0  0  0  0  0
  -24.3567  -36.8866   22.2058 H   0  0  0  0  0  0
  -23.7260  -37.6408   23.6697 H   0  0  0  0  0  0
  -26.2203  -31.3917   20.6256 H   0  0  0  0  0  0
  -26.9018  -30.6993   22.0570 H   0  0  0  0  0  0
  -28.1473  -28.6250   21.2728 H   0  0  0  0  0  0
  -25.8461  -25.7814   18.9807 H   0  0  0  0  0  0
  -23.9901  -27.2928   18.9525 H   0  0  0  0  0  0
  -23.8638  -30.5400   19.3940 H   0  0  0  0  0  0
  -22.8194  -29.2230   19.8301 H   0  0  0  0  0  0
  -25.1329  -36.1783   25.0794 H   0  0  0  0  0  0
  -21.0039  -28.3348   24.1313 H   0  0  0  0  0  0
  -20.5689  -26.2367   23.3625 H   0  0  0  0  0  0
  -21.6666  -26.7419   22.1194 H   0  0  0  0  0  0
  -19.6926  -25.6278   21.1269 H   0  0  0  0  0  0
  -19.6698  -27.3163   20.6718 H   0  0  0  0  0  0
  -17.4220  -26.6670   21.4040 H   0  0  0  0  0  0
  -18.0365  -26.0090   22.9041 H   0  0  0  0  0  0
  -19.7968  -30.7326   24.2185 H   0  0  0  0  0  0
  -17.5036  -31.6268   24.5168 H   0  0  0  0  0  0
  -15.5374  -30.2964   23.7692 H   0  0  0  0  0  0
  -15.8711  -28.0803   22.7100 H   0  0  0  0  0  0
  -24.5849  -30.7186   25.7692 H   0  0  0  0  0  0
  -24.8922  -32.3008   26.4739 H   0  0  0  0  0  0
  -25.7924  -30.8994   27.0217 H   0  0  0  0  0  0
  -26.3109  -29.6593   24.1417 H   0  0  0  0  0  0
  -27.3955  -29.7267   25.5088 H   0  0  0  0  0  0
  -27.9067  -30.4090   23.9866 H   0  0  0  0  0  0
  -27.2624  -33.3676   26.2001 H   0  0  0  0  0  0
  -28.3917  -32.6866   25.0384 H   0  0  0  0  0  0
  -28.0675  -31.8541   26.5514 H   0  0  0  0  0  0
  -28.2579  -38.0072   24.7508 H   0  0  0  0  0  0
  -28.1079  -36.2599   24.6307 H   0  0  0  0  0  0
  -27.2285  -37.1428   25.8870 H   0  0  0  0  0  0
  -20.9575  -29.8742   21.6686 H   0  0  0  0  0  0
  -26.0133  -38.2775   24.1403 H   0  0  0  0  0  0
  -28.4485  -19.6690   18.3867 H   0  0  0  0  0  0
  -27.7200  -22.0043   18.3139 H   0  0  0  0  0  0
  -31.4601  -20.1960   22.2796 H   0  0  0  0  0  0
  -30.0082  -19.5442   23.0514 H   0  0  0  0  0  0
  -30.4246  -21.2446   23.2446 H   0  0  0  0  0  0
  -31.6558  -19.1160   19.0400 H   0  0  0  0  0  0
  -30.5223  -18.1299   18.1263 H   0  0  0  0  0  0
  -31.8506  -17.3844   19.0031 H   0  0  0  0  0  0
  -27.0135  -24.1876   20.9473 H   0  0  0  0  0  0
  -27.2194  -24.2160   19.2396 H   0  0  0  0  0  0
  -30.8744  -18.1491   21.1350 H   0  0  0  0  0  0
  -28.7639  -16.3557   20.5157 H   0  0  0  0  0  0
  1 25  1  0  0  0
  1 30  2  0  0  0
  1 81  1  0  0  0
  2  3  1  0  0  0
  2 25  1  0  0  0
  2 82  1  0  0  0
  2 83  1  0  0  0
  3  4  1  0  0  0
  3 84  1  0  0  0
  3 85  1  0  0  0
  4  5  1  0  0  0
  4 86  1  0  0  0
  4 87  1  0  0  0
  5  6  1  0  0  0
  5 26  1  0  0  0
  5 88  1  0  0  0
  6 25  1  0  0  0
  6 89  1  0  0  0
  6 90  1  0  0  0
  7  8  2  0  0  0
  7 26  1  0  0  0
  7 29  1  0  0  0
  8  9  1  0  0  0
  8 22  1  0  0  0
  9 10  1  0  0  0
  9 27  2  0  0  0
 10 11  2  0  0  0
 10 15  1  0  0  0
 11 12  1  0  0  0
 11 91  1  0  0  0
 12 13  2  0  0  0
 12 92  1  0  0  0
 13 14  1  0  0  0
 13 31  1  0  0  0
 14 15  2  0  0  0
 14 93  1  0  0  0
 15 94  1  0  0  0
 16 17  2  0  0  0
 16 21  1  0  0  0
 16 31  1  0  0  0
 17 18  1  0  0  0
 17 95  1  0  0  0
 18 19  2  0  0  0
 18 96  1  0  0  0
 19 20  1  0  0  0
 19 24  1  0  0  0
 20 21  2  0  0  0
 20 97  1  0  0  0
 21 23  1  0  0  0
 22 28  1  0  0  0
 22 32  2  0  0  0
 26 27  1  0  0  0
 28 98  1  0  0  0
 28 99  1  0  0  0
 29100  1  0  0  0
 29101  1  0  0  0
 33 34  1  0  0  0
 33 66  1  0  0  0
 33 70  2  0  0  0
 34 36  1  0  0  0
 34 59  1  0  0  0
 34102  1  0  0  0
 35 44  2  0  0  0
 35 45  1  0  0  0
 35 68  1  0  0  0
 36 56  1  0  0  0
 36103  1  0  0  0
 37 39  1  0  0  0
 37 47  1  0  0  0
 37 66  1  0  0  0
 37104  1  0  0  0
 38 43  2  0  0  0
 38 46  1  0  0  0
 38 47  1  0  0  0
 39 64  1  0  0  0
 39 67  2  0  0  0
 40 52  1  0  0  0
 40 53  2  0  0  0
 40 58  1  0  0  0
 41105  1  0  0  0
 41106  1  0  0  0
 41107  1  0  0  0
 41 48  1  0  0  0
 42 43  1  0  0  0
 42 66  1  0  0  0
 42108  1  0  0  0
 42109  1  0  0  0
 43 44  1  0  0  0
 44110  1  0  0  0
 45 46  2  0  0  0
 45111  1  0  0  0
 46112  1  0  0  0
 47113  1  0  0  0
 47114  1  0  0  0
 48 56  1  0  0  0
 48 65  1  0  0  0
 48115  1  0  0  0
 49 50  1  0  0  0
 49 53  1  0  0  0
 49 64  1  0  0  0
 49116  1  0  0  0
 50 51  1  0  0  0
 50117  1  0  0  0
 50118  1  0  0  0
 51 52  1  0  0  0
 51119  1  0  0  0
 51120  1  0  0  0
 52121  1  0  0  0
 52122  1  0  0  0
 53 54  1  0  0  0
 54 55  2  0  0  0
 54123  1  0  0  0
 55 57  1  0  0  0
 55124  1  0  0  0
 56 69  2  0  0  0
 57 58  2  0  0  0
 57125  1  0  0  0
 58126  1  0  0  0
 59 60  1  0  0  0
 59 61  1  0  0  0
 59 62  1  0  0  0
 60127  1  0  0  0
 60128  1  0  0  0
 60129  1  0  0  0
 61130  1  0  0  0
 61131  1  0  0  0
 61132  1  0  0  0
 62133  1  0  0  0
 62134  1  0  0  0
 62135  1  0  0  0
 63 65  1  0  0  0
 63136  1  0  0  0
 63137  1  0  0  0
 63138  1  0  0  0
 64139  1  0  0  0
 65140  1  0  0  0
 68 78  1  0  0  0
 71 72  2  0  0  0
 71 73  1  0  0  0
 71141  1  0  0  0
 72 74  1  0  0  0
 72142  1  0  0  0
 73 75  2  0  0  0
 73 79  1  0  0  0
 74 78  1  0  0  0
 74 80  2  0  0  0
 75 76  1  0  0  0
 75 80  1  0  0  0
 76143  1  0  0  0
 76144  1  0  0  0
 76145  1  0  0  0
 77146  1  0  0  0
 77147  1  0  0  0
 77148  1  0  0  0
 77 79  1  0  0  0
 78149  1  0  0  0
 78150  1  0  0  0
 79 81  1  0  0  0
 79151  1  0  0  0
 81152  1  0  0  0
M  ISO  4   1 100  68 101  78 101  81 100
M  END
> <chiral flag>
0

> <version>
0

> <s_m_source_file>
/data/baiqing/PycharmProjects/Reinvent-master-3.2/result/LINK_invent/BTK/process_docking_weight1_custom_sum_contain_oxygen_bond_distance_aromatic_linkinvent_7_9_3/rearranged_h_0053.sdf

> <i_m_source_file_index>
7

> <r_mmod_Potential_Energy-OPLS-2005>
989.866027832031

> <r_mmod_Stretch_Energy-OPLS-2005>
472.929779052734

> <r_mmod_Bend_Energy-OPLS-2005>
431.150939941406

> <r_mmod_Torsional_Energy-OPLS-2005>
225.092208862305

> <r_mmod_Improper_Torsional_Energy-OPLS-2005>
10.0715503692627

> <r_mmod_Van_der_Waal_Energy-OPLS-2005>
137.128555297852

> <r_mmod_Electrostatic_Energy-OPLS-2005>
-456.981842041016

> <r_mmod_Solvation_Energy-OPLS-2005>
-228.030410766602

> <b_mmod_Minimization_Converged-OPLS-2005>
0

> <r_mmod_RMS_Derivative-OPLS-2005>
0.615889012813568

$$$$
7
                    3D
 Structure written by MMmdl.
147155  0  0  1  0            999 V2000
  -30.4100  -15.3662   20.3515 C   0  0  0  0  0  0
  -30.4339  -12.8786   19.5392 C   0  0  0  0  0  0
  -29.5410  -12.5979   18.3025 C   0  0  0  0  0  0
  -28.0951  -12.3010   18.7313 C   0  0  0  0  0  0
  -27.6075  -13.2858   19.8218 C   0  0  2  0  0  0
  -28.6353  -13.5072   20.9544 C   0  0  0  0  0  0
  -25.2367  -13.8263   20.5759 C   0  0  0  0  0  0
  -24.1731  -13.0439   20.9266 C   0  0  0  0  0  0
  -24.6400  -11.6941   20.8759 C   0  0  0  0  0  0
  -23.9100  -10.4294   21.0401 C   0  0  0  0  0  0
  -24.3643   -9.4206   21.9178 C   0  0  0  0  0  0
  -23.6310   -8.2246   22.0751 C   0  0  0  0  0  0
  -22.4289   -8.0285   21.3544 C   0  0  0  0  0  0
  -21.9930   -9.0260   20.4645 C   0  0  0  0  0  0
  -22.7268  -10.2134   20.3052 C   0  0  0  0  0  0
  -21.6859   -6.0738   22.5277 C   0  0  0  0  0  0
  -21.4018   -6.5639   23.8210 C   0  0  0  0  0  0
  -21.3663   -5.6792   24.9171 C   0  0  0  0  0  0
  -21.6046   -4.3055   24.7221 C   0  0  0  0  0  0
  -21.8820   -3.8147   23.4343 C   0  0  0  0  0  0
  -21.9194   -4.6965   22.3400 C   0  0  0  0  0  0
  -22.7746  -13.5184   21.1908 C   0  0  0  0  0  0
  -22.1662   -4.2151   21.0977 F   0  0  0  0  0  0
  -21.5630   -3.4538   25.7734 F   0  0  0  0  0  0
  -29.8558  -14.0418   20.3238 N   0  0  0  0  0  0
  -26.2801  -12.9557   20.3224 N   0  0  0  0  0  0
  -25.9342  -11.6651   20.5717 N   0  0  0  0  0  0
  -22.0408  -12.8164   22.0462 N   0  0  0  0  0  0
  -25.3988  -15.1999   20.4194 N   0  0  0  0  0  0
  -31.6292  -15.3425   20.1208 O   0  0  0  0  0  0
  -21.6649   -6.8884   21.4240 O   0  0  0  0  0  0
  -22.3424  -14.5482   20.6742 O   0  0  0  0  0  0
  -24.6692  -31.8165   23.1652 C   0  0  0  0  0  0
  -25.9342  -32.4552   23.8143 C   0  0  1  0  0  0
  -27.2213  -26.8602   20.1903 C   0  0  0  0  0  0
  -25.5982  -33.8370   24.2038 N   0  0  0  0  0  0
  -23.4879  -30.4253   21.5155 C   0  0  2  0  0  0
  -24.9444  -28.8012   20.1107 C   0  0  0  0  0  0
  -22.7701  -29.4402   22.4757 C   0  0  0  0  0  0
  -18.0328  -28.1414   22.8463 C   0  0  0  0  0  0
  -24.1495  -36.7191   23.2649 C   0  0  0  0  0  0
  -26.0611  -30.5995   21.4083 C   0  0  0  0  0  0
  -26.1285  -29.1828   20.7530 C   0  0  0  0  0  0
  -27.2573  -28.2339   20.7699 C   0  0  0  0  0  0
  -26.0111  -26.6546   19.4864 C   0  0  0  0  0  0
  -24.9156  -27.5596   19.4558 C   0  0  0  0  0  0
  -23.7326  -29.7363   20.1438 C   0  0  0  0  0  0
  -25.4140  -36.2946   24.0292 C   0  0  1  0  0  0
  -20.5956  -28.3764   23.1173 C   0  0  2  0  0  0
  -20.6801  -26.9438   22.5404 C   0  0  0  0  0  0
  -19.5775  -26.6375   21.5218 C   0  0  0  0  0  0
  -18.1957  -26.7945   22.1623 C   0  0  0  0  0  0
  -19.1590  -28.8912   23.2803 C   0  0  0  0  0  0
  -18.9500  -30.1498   23.8842 C   0  0  0  0  0  0
  -17.6491  -30.6601   24.0554 C   0  0  0  0  0  0
  -25.9109  -34.9331   23.4992 C   0  0  0  0  0  0
  -16.5381  -29.9086   23.6346 C   0  0  0  0  0  0
  -16.7308  -28.6507   23.0365 C   0  0  0  0  0  0
  -26.4569  -31.6527   25.0703 C   0  0  0  0  0  0
  -25.3673  -31.3804   26.1344 C   0  0  0  0  0  0
  -27.0479  -30.2881   24.6498 C   0  0  0  0  0  0
  -27.6046  -32.4355   25.7511 C   0  0  0  0  0  0
  -27.5568  -37.1757   24.8467 C   0  0  0  0  0  0
  -21.4363  -29.3039   22.3509 N   0  0  0  0  0  0
  -26.4281  -37.3689   23.9402 N   0  0  0  0  0  0
  -24.7611  -30.9762   22.0826 N   0  0  0  0  0  0
  -23.4215  -28.7980   23.3032 O   0  0  0  0  0  0
  -28.1897  -25.7032   20.3006 O   0  0  0  0  0  0
  -26.5731  -34.8878   22.4597 O   0  0  0  0  0  0
  -23.5745  -32.1167   23.6700 O   0  0  0  0  0  0
  -28.8514  -21.1237   19.5899 C   0  0  0  0  0  0
  -28.6294  -22.4699   20.3128 C   0  0  0  0  0  0
  -29.2859  -19.9474   20.3579 C   0  0  0  0  0  0
  -29.7116  -20.1289   22.8552 C   0  0  0  0  0  0
  -27.9189  -24.0856   19.9372 C   0  0  0  0  0  0
  -29.9691  -18.3096   20.0863 C   0  0  0  0  0  0
  -28.9229  -22.0336   21.5548 N   0  0  0  0  0  0
  -29.3053  -20.6680   21.5725 N   0  0  0  0  0  0
  -29.6655  -16.6738   20.4331 N   0  0  0  0  0  0
  -31.4493  -13.0894   19.2014 H   0  0  0  0  0  0
  -30.5192  -11.9889   20.1654 H   0  0  0  0  0  0
  -29.9413  -11.7649   17.7230 H   0  0  0  0  0  0
  -29.5550  -13.4667   17.6429 H   0  0  0  0  0  0
  -28.0692  -11.2829   19.1213 H   0  0  0  0  0  0
  -27.4276  -12.3166   17.8688 H   0  0  0  0  0  0
  -27.5081  -14.2405   19.3038 H   0  0  0  0  0  0
  -28.8256  -12.5881   21.5107 H   0  0  0  0  0  0
  -28.2538  -14.2334   21.6739 H   0  0  0  0  0  0
  -25.2785   -9.5682   22.4758 H   0  0  0  0  0  0
  -24.0014   -7.4639   22.7473 H   0  0  0  0  0  0
  -21.0859   -8.8785   19.8953 H   0  0  0  0  0  0
  -22.3724  -10.9675   19.6165 H   0  0  0  0  0  0
  -21.2009   -7.6147   23.9714 H   0  0  0  0  0  0
  -21.1486   -6.0520   25.9075 H   0  0  0  0  0  0
  -22.0595   -2.7609   23.2841 H   0  0  0  0  0  0
  -22.4049  -11.9845   22.4864 H   0  0  0  0  0  0
  -21.1016  -13.1165   22.2659 H   0  0  0  0  0  0
  -24.6268  -15.8487   20.5307 H   0  0  0  0  0  0
  -26.2369  -15.6407   20.0644 H   0  0  0  0  0  0
  -26.7414  -32.5068   23.0856 H   0  0  0  0  0  0
  -25.0060  -33.9439   25.0141 H   0  0  0  0  0  0
  -22.8047  -31.2587   21.3392 H   0  0  0  0  0  0
  -23.3767  -35.9512   23.3288 H   0  0  0  0  0  0
  -24.3562  -36.8866   22.2067 H   0  0  0  0  0  0
  -23.7247  -37.6368   23.6727 H   0  0  0  0  0  0
  -26.2511  -31.3361   20.6264 H   0  0  0  0  0  0
  -26.9172  -30.6582   22.0683 H   0  0  0  0  0  0
  -28.1468  -28.5222   21.3122 H   0  0  0  0  0  0
  -25.8675  -25.7104   18.9820 H   0  0  0  0  0  0
  -24.0191  -27.2622   18.9293 H   0  0  0  0  0  0
  -23.8930  -30.5030   19.3850 H   0  0  0  0  0  0
  -22.8411  -29.1938   19.8243 H   0  0  0  0  0  0
  -25.1345  -36.1736   25.0784 H   0  0  0  0  0  0
  -21.0043  -28.3380   24.1297 H   0  0  0  0  0  0
  -20.5678  -26.2386   23.3653 H   0  0  0  0  0  0
  -21.6663  -26.7405   22.1213 H   0  0  0  0  0  0
  -19.6934  -25.6271   21.1284 H   0  0  0  0  0  0
  -19.6714  -27.3155   20.6723 H   0  0  0  0  0  0
  -17.4226  -26.6687   21.4027 H   0  0  0  0  0  0
  -18.0349  -26.0101   22.9034 H   0  0  0  0  0  0
  -19.7975  -30.7330   24.2187 H   0  0  0  0  0  0
  -17.5042  -31.6275   24.5167 H   0  0  0  0  0  0
  -15.5378  -30.2971   23.7703 H   0  0  0  0  0  0
  -15.8708  -28.0807   22.7113 H   0  0  0  0  0  0
  -24.5871  -30.7138   25.7650 H   0  0  0  0  0  0
  -24.8845  -32.3015   26.4619 H   0  0  0  0  0  0
  -25.7880  -30.9067   27.0222 H   0  0  0  0  0  0
  -26.3166  -29.6536   24.1481 H   0  0  0  0  0  0
  -27.3951  -29.7276   25.5188 H   0  0  0  0  0  0
  -27.9132  -30.4041   23.9969 H   0  0  0  0  0  0
  -27.2601  -33.3703   26.1945 H   0  0  0  0  0  0
  -28.3931  -32.6840   25.0395 H   0  0  0  0  0  0
  -28.0633  -31.8580   26.5548 H   0  0  0  0  0  0
  -28.2575  -38.0061   24.7498 H   0  0  0  0  0  0
  -28.1074  -36.2585   24.6320 H   0  0  0  0  0  0
  -27.2278  -37.1427   25.8869 H   0  0  0  0  0  0
  -20.9634  -29.8713   21.6612 H   0  0  0  0  0  0
  -26.0125  -38.2747   24.1398 H   0  0  0  0  0  0
  -28.7081  -21.0425   18.5212 H   0  0  0  0  0  0
  -30.4666  -19.3548   22.7178 H   0  0  0  0  0  0
  -28.8488  -19.6931   23.3590 H   0  0  0  0  0  0
  -30.1335  -20.9131   23.4847 H   0  0  0  0  0  0
  -26.8743  -23.9743   20.2263 H   0  0  0  0  0  0
  -27.8691  -24.1129   18.8487 H   0  0  0  0  0  0
  -30.9979  -18.4040   20.4348 H   0  0  0  0  0  0
  -30.0942  -18.2662   19.0043 H   0  0  0  0  0  0
  -28.6897  -16.5184   20.6395 H   0  0  0  0  0  0
  1 25  1  0  0  0
  1 30  2  0  0  0
  1 79  1  0  0  0
  2  3  1  0  0  0
  2 25  1  0  0  0
  2 80  1  0  0  0
  2 81  1  0  0  0
  3  4  1  0  0  0
  3 82  1  0  0  0
  3 83  1  0  0  0
  4  5  1  0  0  0
  4 84  1  0  0  0
  4 85  1  0  0  0
  5  6  1  0  0  0
  5 26  1  0  0  0
  5 86  1  0  0  0
  6 25  1  0  0  0
  6 87  1  0  0  0
  6 88  1  0  0  0
  7  8  2  0  0  0
  7 26  1  0  0  0
  7 29  1  0  0  0
  8  9  1  0  0  0
  8 22  1  0  0  0
  9 10  1  0  0  0
  9 27  2  0  0  0
 10 11  2  0  0  0
 10 15  1  0  0  0
 11 12  1  0  0  0
 11 89  1  0  0  0
 12 13  2  0  0  0
 12 90  1  0  0  0
 13 14  1  0  0  0
 13 31  1  0  0  0
 14 15  2  0  0  0
 14 91  1  0  0  0
 15 92  1  0  0  0
 16 17  2  0  0  0
 16 21  1  0  0  0
 16 31  1  0  0  0
 17 18  1  0  0  0
 17 93  1  0  0  0
 18 19  2  0  0  0
 18 94  1  0  0  0
 19 20  1  0  0  0
 19 24  1  0  0  0
 20 21  2  0  0  0
 20 95  1  0  0  0
 21 23  1  0  0  0
 22 28  1  0  0  0
 22 32  2  0  0  0
 26 27  1  0  0  0
 28 96  1  0  0  0
 28 97  1  0  0  0
 29 98  1  0  0  0
 29 99  1  0  0  0
 33 34  1  0  0  0
 33 66  1  0  0  0
 33 70  2  0  0  0
 34 36  1  0  0  0
 34 59  1  0  0  0
 34100  1  0  0  0
 35 44  2  0  0  0
 35 45  1  0  0  0
 35 68  1  0  0  0
 36 56  1  0  0  0
 36101  1  0  0  0
 37 39  1  0  0  0
 37 47  1  0  0  0
 37 66  1  0  0  0
 37102  1  0  0  0
 38 43  2  0  0  0
 38 46  1  0  0  0
 38 47  1  0  0  0
 39 64  1  0  0  0
 39 67  2  0  0  0
 40 52  1  0  0  0
 40 53  2  0  0  0
 40 58  1  0  0  0
 41103  1  0  0  0
 41104  1  0  0  0
 41105  1  0  0  0
 41 48  1  0  0  0
 42 43  1  0  0  0
 42 66  1  0  0  0
 42106  1  0  0  0
 42107  1  0  0  0
 43 44  1  0  0  0
 44108  1  0  0  0
 45 46  2  0  0  0
 45109  1  0  0  0
 46110  1  0  0  0
 47111  1  0  0  0
 47112  1  0  0  0
 48 56  1  0  0  0
 48 65  1  0  0  0
 48113  1  0  0  0
 49 50  1  0  0  0
 49 53  1  0  0  0
 49 64  1  0  0  0
 49114  1  0  0  0
 50 51  1  0  0  0
 50115  1  0  0  0
 50116  1  0  0  0
 51 52  1  0  0  0
 51117  1  0  0  0
 51118  1  0  0  0
 52119  1  0  0  0
 52120  1  0  0  0
 53 54  1  0  0  0
 54 55  2  0  0  0
 54121  1  0  0  0
 55 57  1  0  0  0
 55122  1  0  0  0
 56 69  2  0  0  0
 57 58  2  0  0  0
 57123  1  0  0  0
 58124  1  0  0  0
 59 60  1  0  0  0
 59 61  1  0  0  0
 59 62  1  0  0  0
 60125  1  0  0  0
 60126  1  0  0  0
 60127  1  0  0  0
 61128  1  0  0  0
 61129  1  0  0  0
 61130  1  0  0  0
 62131  1  0  0  0
 62132  1  0  0  0
 62133  1  0  0  0
 63 65  1  0  0  0
 63134  1  0  0  0
 63135  1  0  0  0
 63136  1  0  0  0
 64137  1  0  0  0
 65138  1  0  0  0
 68 75  1  0  0  0
 71 72  1  0  0  0
 71 73  2  0  0  0
 71139  1  0  0  0
 72 75  1  0  0  0
 72 77  2  0  0  0
 73 76  1  0  0  0
 73 78  1  0  0  0
 74 78  1  0  0  0
 74140  1  0  0  0
 74141  1  0  0  0
 74142  1  0  0  0
 75143  1  0  0  0
 75144  1  0  0  0
 76 79  1  0  0  0
 76145  1  0  0  0
 76146  1  0  0  0
 77 78  1  0  0  0
 79147  1  0  0  0
M  ISO  4   1 100  68 101  75 101  79 100
M  END
> <chiral flag>
0

> <version>
0

> <s_m_source_file>
/data/baiqing/PycharmProjects/Reinvent-master-3.2/result/LINK_invent/BTK/process_docking_weight1_custom_sum_contain_oxygen_bond_distance_aromatic_linkinvent_7_9_3/rearranged_h_0053.sdf

> <i_m_source_file_index>
8

> <r_mmod_Potential_Energy-OPLS-2005>
1451.10217285156

> <r_mmod_Stretch_Energy-OPLS-2005>
679.215393066406

> <r_mmod_Bend_Energy-OPLS-2005>
501.376953125

> <r_mmod_Torsional_Energy-OPLS-2005>
216.732055664062

> <r_mmod_Improper_Torsional_Energy-OPLS-2005>
6.6087212562561

> <r_mmod_Van_der_Waal_Energy-OPLS-2005>
108.229270935059

> <r_mmod_Electrostatic_Energy-OPLS-2005>
-391.748382568359

> <r_mmod_Solvation_Energy-OPLS-2005>
-241.464401245117

> <b_mmod_Minimization_Converged-OPLS-2005>
0

> <r_mmod_RMS_Derivative-OPLS-2005>
0.349283158779144

$$$$
8
                    3D
 Structure written by MMmdl.
160168  0  0  1  0            999 V2000
  -30.6388  -14.7296   20.4940 C   0  0  0  0  0  0
  -30.4285  -12.4524   19.4881 C   0  0  0  0  0  0
  -29.5179  -12.5137   18.2446 C   0  0  0  0  0  0
  -28.0416  -12.3395   18.6463 C   0  0  0  0  0  0
  -27.6419  -13.2346   19.8491 C   0  0  2  0  0  0
  -28.6776  -13.1631   20.9888 C   0  0  0  0  0  0
  -25.2520  -13.8208   20.5686 C   0  0  0  0  0  0
  -24.1808  -13.0446   20.9203 C   0  0  0  0  0  0
  -24.6401  -11.6929   20.8744 C   0  0  0  0  0  0
  -23.9076  -10.4303   21.0406 C   0  0  0  0  0  0
  -24.3641   -9.4216   21.9167 C   0  0  0  0  0  0
  -23.6321   -8.2242   22.0733 C   0  0  0  0  0  0
  -22.4294   -8.0286   21.3514 C   0  0  0  0  0  0
  -21.9925   -9.0265   20.4628 C   0  0  0  0  0  0
  -22.7251  -10.2143   20.3036 C   0  0  0  0  0  0
  -21.6863   -6.0744   22.5276 C   0  0  0  0  0  0
  -21.4022   -6.5642   23.8214 C   0  0  0  0  0  0
  -21.3665   -5.6783   24.9173 C   0  0  0  0  0  0
  -21.6047   -4.3041   24.7207 C   0  0  0  0  0  0
  -21.8825   -3.8142   23.4327 C   0  0  0  0  0  0
  -21.9203   -4.6971   22.3391 C   0  0  0  0  0  0
  -22.7825  -13.5215   21.1866 C   0  0  0  0  0  0
  -22.1657   -4.2168   21.0964 F   0  0  0  0  0  0
  -21.5639   -3.4516   25.7707 F   0  0  0  0  0  0
  -29.9880  -13.5136   20.4247 N   0  0  0  0  0  0
  -26.2931  -12.9411   20.3237 N   0  0  0  0  0  0
  -25.9324  -11.6560   20.5718 N   0  0  0  0  0  0
  -22.0474  -12.8230   22.0439 N   0  0  0  0  0  0
  -25.4246  -15.1941   20.4126 N   0  0  0  0  0  0
  -31.7859  -14.8271   20.0492 O   0  0  0  0  0  0
  -21.6652   -6.8888   21.4233 O   0  0  0  0  0  0
  -22.3501  -14.5511   20.6708 O   0  0  0  0  0  0
  -24.6317  -31.8532   23.1979 C   0  0  0  0  0  0
  -25.9123  -32.4760   23.8326 C   0  0  1  0  0  0
  -27.2000  -27.2442   20.1412 C   0  0  0  0  0  0
  -25.5896  -33.8569   24.2204 N   0  0  0  0  0  0
  -23.4297  -30.4780   21.5418 C   0  0  2  0  0  0
  -24.8723  -28.9255   20.1117 C   0  0  0  0  0  0
  -22.7521  -29.4584   22.4896 C   0  0  0  0  0  0
  -18.0282  -28.1414   22.8457 C   0  0  0  0  0  0
  -24.1486  -36.7294   23.2629 C   0  0  0  0  0  0
  -25.9790  -30.7593   21.3858 C   0  0  0  0  0  0
  -26.0464  -29.3825   20.7255 C   0  0  0  0  0  0
  -27.2159  -28.5537   20.7291 C   0  0  0  0  0  0
  -26.0113  -26.8675   19.4791 C   0  0  0  0  0  0
  -24.8604  -27.6759   19.4753 C   0  0  0  0  0  0
  -23.6485  -29.8181   20.1564 C   0  0  0  0  0  0
  -25.4119  -36.3078   24.0305 C   0  0  1  0  0  0
  -20.5892  -28.3705   23.1253 C   0  0  2  0  0  0
  -20.6783  -26.9414   22.5407 C   0  0  0  0  0  0
  -19.5763  -26.6389   21.5207 C   0  0  0  0  0  0
  -18.1934  -26.7948   22.1616 C   0  0  0  0  0  0
  -19.1540  -28.8882   23.2847 C   0  0  0  0  0  0
  -18.9471  -30.1489   23.8854 C   0  0  0  0  0  0
  -17.6475  -30.6604   24.0568 C   0  0  0  0  0  0
  -25.9064  -34.9452   23.5069 C   0  0  0  0  0  0
  -16.5361  -29.9110   23.6345 C   0  0  0  0  0  0
  -16.7267  -28.6548   23.0316 C   0  0  0  0  0  0
  -26.4456  -31.6619   25.0744 C   0  0  0  0  0  0
  -25.3658  -31.3843   26.1456 C   0  0  0  0  0  0
  -27.0291  -30.3002   24.6314 C   0  0  0  0  0  0
  -27.5980  -32.4390   25.7534 C   0  0  0  0  0  0
  -27.5590  -37.1792   24.8444 C   0  0  0  0  0  0
  -21.4215  -29.3053   22.3658 N   0  0  0  0  0  0
  -26.4282  -37.3795   23.9422 N   0  0  0  0  0  0
  -24.6990  -31.0492   22.0966 N   0  0  0  0  0  0
  -23.4216  -28.8099   23.2981 O   0  0  0  0  0  0
  -28.2731  -26.3232   20.1869 O   0  0  0  0  0  0
  -26.5675  -34.8919   22.4662 O   0  0  0  0  0  0
  -23.5455  -32.1338   23.7264 O   0  0  0  0  0  0
  -28.6646  -19.5315   20.4780 C   0  0  0  0  0  0
  -29.6461  -18.5704   20.2055 C   0  0  0  0  0  0
  -30.5278  -20.6737   20.2193 C   0  0  0  0  0  0
  -31.5645  -21.7428   20.1215 C   0  0  0  0  0  0
  -31.1144  -16.8793   22.8117 C   0  0  0  0  0  0
  -29.6222  -17.0218   19.8708 C   0  0  0  0  0  0
  -28.9193  -23.6323   20.2085 C   0  0  0  0  0  0
  -28.4675  -22.1646   20.7434 C   0  0  0  0  0  0
  -29.8229  -16.2451   22.2590 C   0  0  0  0  0  0
  -27.9629  -24.8923   20.5559 C   0  0  0  0  0  0
  -29.2090  -20.8300   20.4536 N   0  0  0  0  0  0
  -30.7730  -19.3520   20.0553 N   0  3  0  0  0  0
  -29.9312  -15.8808   20.8402 N   0  0  0  0  0  0
  -31.4727  -12.5584   19.1922 H   0  0  0  0  0  0
  -30.3597  -11.4773   19.9710 H   0  0  0  0  0  0
  -29.8053  -11.7394   17.5337 H   0  0  0  0  0  0
  -29.6568  -13.4660   17.7315 H   0  0  0  0  0  0
  -27.8958  -11.2885   18.9021 H   0  0  0  0  0  0
  -27.3924  -12.5379   17.7926 H   0  0  0  0  0  0
  -27.6378  -14.2600   19.4792 H   0  0  0  0  0  0
  -28.7074  -12.1609   21.4195 H   0  0  0  0  0  0
  -28.3847  -13.8353   21.7942 H   0  0  0  0  0  0
  -25.2799   -9.5687   22.4726 H   0  0  0  0  0  0
  -24.0045   -7.4628   22.7432 H   0  0  0  0  0  0
  -21.0852   -8.8784   19.8928 H   0  0  0  0  0  0
  -22.3721  -10.9685   19.6141 H   0  0  0  0  0  0
  -21.2002   -7.6145   23.9724 H   0  0  0  0  0  0
  -21.1488   -6.0499   25.9079 H   0  0  0  0  0  0
  -22.0605   -2.7604   23.2813 H   0  0  0  0  0  0
  -22.4086  -11.9915   22.4880 H   0  0  0  0  0  0
  -21.1067  -13.1208   22.2579 H   0  0  0  0  0  0
  -24.6668  -15.8564   20.5369 H   0  0  0  0  0  0
  -26.2850  -15.6322   20.1094 H   0  0  0  0  0  0
  -26.7216  -32.5363   23.1088 H   0  0  0  0  0  0
  -24.9985  -33.9738   25.0310 H   0  0  0  0  0  0
  -22.7234  -31.2981   21.3962 H   0  0  0  0  0  0
  -23.3767  -35.9608   23.3251 H   0  0  0  0  0  0
  -24.3577  -36.8972   22.2052 H   0  0  0  0  0  0
  -23.7213  -37.6462   23.6698 H   0  0  0  0  0  0
  -26.1291  -31.5189   20.6173 H   0  0  0  0  0  0
  -26.8561  -30.7993   22.0228 H   0  0  0  0  0  0
  -28.1135  -28.8870   21.2302 H   0  0  0  0  0  0
  -25.9426  -25.9226   18.9595 H   0  0  0  0  0  0
  -23.9677  -27.3225   18.9754 H   0  0  0  0  0  0
  -23.7777  -30.5944   19.4011 H   0  0  0  0  0  0
  -22.7646  -29.2598   19.8451 H   0  0  0  0  0  0
  -25.1309  -36.1907   25.0801 H   0  0  0  0  0  0
  -20.9982  -28.3296   24.1373 H   0  0  0  0  0  0
  -20.5676  -26.2310   23.3614 H   0  0  0  0  0  0
  -21.6645  -26.7437   22.1189 H   0  0  0  0  0  0
  -19.6920  -25.6293   21.1243 H   0  0  0  0  0  0
  -19.6718  -27.3192   20.6730 H   0  0  0  0  0  0
  -17.4191  -26.6637   21.4035 H   0  0  0  0  0  0
  -18.0352  -26.0122   22.9045 H   0  0  0  0  0  0
  -19.7959  -30.7322   24.2168 H   0  0  0  0  0  0
  -17.5037  -31.6272   24.5203 H   0  0  0  0  0  0
  -15.5363  -30.3012   23.7729 H   0  0  0  0  0  0
  -15.8646  -28.0916   22.6995 H   0  0  0  0  0  0
  -24.5786  -30.7241   25.7795 H   0  0  0  0  0  0
  -24.8909  -32.3054   26.4847 H   0  0  0  0  0  0
  -25.7937  -30.9025   27.0253 H   0  0  0  0  0  0
  -26.2903  -29.6787   24.1233 H   0  0  0  0  0  0
  -27.3768  -29.7250   25.4905 H   0  0  0  0  0  0
  -27.8873  -30.4205   23.9701 H   0  0  0  0  0  0
  -27.2519  -33.3655   26.2138 H   0  0  0  0  0  0
  -28.3783  -32.7028   25.0384 H   0  0  0  0  0  0
  -28.0648  -31.8511   26.5444 H   0  0  0  0  0  0
  -28.2557  -38.0138   24.7568 H   0  0  0  0  0  0
  -28.1137  -36.2673   24.6175 H   0  0  0  0  0  0
  -27.2320  -37.1319   25.8844 H   0  0  0  0  0  0
  -20.9384  -29.8793   21.6888 H   0  0  0  0  0  0
  -26.0141  -38.2848   24.1502 H   0  0  0  0  0  0
  -27.6061  -19.3851   20.6473 H   0  0  0  0  0  0
  -31.3290  -22.3788   19.2695 H   0  0  0  0  0  0
  -32.5406  -21.2824   19.9703 H   0  0  0  0  0  0
  -31.5636  -22.3141   21.0492 H   0  0  0  0  0  0
  -31.0191  -17.0681   23.8813 H   0  0  0  0  0  0
  -31.3375  -17.8343   22.3383 H   0  0  0  0  0  0
  -31.9812  -16.2318   22.6697 H   0  0  0  0  0  0
  -30.2544  -16.8905   18.9907 H   0  0  0  0  0  0
  -28.6189  -16.8089   19.5007 H   0  0  0  0  0  0
  -29.0410  -23.5794   19.1274 H   0  0  0  0  0  0
  -29.9022  -23.8732   20.6057 H   0  0  0  0  0  0
  -27.4475  -22.0016   20.3962 H   0  0  0  0  0  0
  -28.3878  -22.2191   21.8294 H   0  0  0  0  0  0
  -28.9810  -16.9228   22.4018 H   0  0  0  0  0  0
  -29.5967  -15.3595   22.8544 H   0  0  0  0  0  0
  -27.8497  -24.8959   21.6398 H   0  0  0  0  0  0
  -26.9737  -24.6085   20.2044 H   0  0  0  0  0  0
  -31.6865  -18.9878   19.8068 H   0  0  0  0  0  0
  1 25  1  0  0  0
  1 30  2  0  0  0
  1 83  1  0  0  0
  2  3  1  0  0  0
  2 25  1  0  0  0
  2 84  1  0  0  0
  2 85  1  0  0  0
  3  4  1  0  0  0
  3 86  1  0  0  0
  3 87  1  0  0  0
  4  5  1  0  0  0
  4 88  1  0  0  0
  4 89  1  0  0  0
  5  6  1  0  0  0
  5 26  1  0  0  0
  5 90  1  0  0  0
  6 25  1  0  0  0
  6 91  1  0  0  0
  6 92  1  0  0  0
  7  8  2  0  0  0
  7 26  1  0  0  0
  7 29  1  0  0  0
  8  9  1  0  0  0
  8 22  1  0  0  0
  9 10  1  0  0  0
  9 27  2  0  0  0
 10 11  2  0  0  0
 10 15  1  0  0  0
 11 12  1  0  0  0
 11 93  1  0  0  0
 12 13  2  0  0  0
 12 94  1  0  0  0
 13 14  1  0  0  0
 13 31  1  0  0  0
 14 15  2  0  0  0
 14 95  1  0  0  0
 15 96  1  0  0  0
 16 17  2  0  0  0
 16 21  1  0  0  0
 16 31  1  0  0  0
 17 18  1  0  0  0
 17 97  1  0  0  0
 18 19  2  0  0  0
 18 98  1  0  0  0
 19 20  1  0  0  0
 19 24  1  0  0  0
 20 21  2  0  0  0
 20 99  1  0  0  0
 21 23  1  0  0  0
 22 28  1  0  0  0
 22 32  2  0  0  0
 26 27  1  0  0  0
 28100  1  0  0  0
 28101  1  0  0  0
 29102  1  0  0  0
 29103  1  0  0  0
 33 34  1  0  0  0
 33 66  1  0  0  0
 33 70  2  0  0  0
 34 36  1  0  0  0
 34 59  1  0  0  0
 34104  1  0  0  0
 35 44  2  0  0  0
 35 45  1  0  0  0
 35 68  1  0  0  0
 36 56  1  0  0  0
 36105  1  0  0  0
 37 39  1  0  0  0
 37 47  1  0  0  0
 37 66  1  0  0  0
 37106  1  0  0  0
 38 43  2  0  0  0
 38 46  1  0  0  0
 38 47  1  0  0  0
 39 64  1  0  0  0
 39 67  2  0  0  0
 40 52  1  0  0  0
 40 53  2  0  0  0
 40 58  1  0  0  0
 41107  1  0  0  0
 41108  1  0  0  0
 41109  1  0  0  0
 41 48  1  0  0  0
 42 43  1  0  0  0
 42 66  1  0  0  0
 42110  1  0  0  0
 42111  1  0  0  0
 43 44  1  0  0  0
 44112  1  0  0  0
 45 46  2  0  0  0
 45113  1  0  0  0
 46114  1  0  0  0
 47115  1  0  0  0
 47116  1  0  0  0
 48 56  1  0  0  0
 48 65  1  0  0  0
 48117  1  0  0  0
 49 50  1  0  0  0
 49 53  1  0  0  0
 49 64  1  0  0  0
 49118  1  0  0  0
 50 51  1  0  0  0
 50119  1  0  0  0
 50120  1  0  0  0
 51 52  1  0  0  0
 51121  1  0  0  0
 51122  1  0  0  0
 52123  1  0  0  0
 52124  1  0  0  0
 53 54  1  0  0  0
 54 55  2  0  0  0
 54125  1  0  0  0
 55 57  1  0  0  0
 55126  1  0  0  0
 56 69  2  0  0  0
 57 58  2  0  0  0
 57127  1  0  0  0
 58128  1  0  0  0
 59 60  1  0  0  0
 59 61  1  0  0  0
 59 62  1  0  0  0
 60129  1  0  0  0
 60130  1  0  0  0
 60131  1  0  0  0
 61132  1  0  0  0
 61133  1  0  0  0
 61134  1  0  0  0
 62135  1  0  0  0
 62136  1  0  0  0
 62137  1  0  0  0
 63 65  1  0  0  0
 63138  1  0  0  0
 63139  1  0  0  0
 63140  1  0  0  0
 64141  1  0  0  0
 65142  1  0  0  0
 68 80  1  0  0  0
 71 72  2  0  0  0
 71 81  1  0  0  0
 71143  1  0  0  0
 72 76  1  0  0  0
 72 82  1  0  0  0
 73 74  1  0  0  0
 73 81  1  0  0  0
 73 82  2  0  0  0
 74144  1  0  0  0
 74145  1  0  0  0
 74146  1  0  0  0
 75 79  1  0  0  0
 75147  1  0  0  0
 75148  1  0  0  0
 75149  1  0  0  0
 76 83  1  0  0  0
 76150  1  0  0  0
 76151  1  0  0  0
 77 78  1  0  0  0
 77 80  1  0  0  0
 77152  1  0  0  0
 77153  1  0  0  0
 78 81  1  0  0  0
 78154  1  0  0  0
 78155  1  0  0  0
 79 83  1  0  0  0
 79156  1  0  0  0
 79157  1  0  0  0
 80158  1  0  0  0
 80159  1  0  0  0
 82160  1  0  0  0
M  CHG  1  82   1
M  ISO  4   1 100  68 101  80 101  83 100
M  END
> <chiral flag>
0

> <version>
0

> <s_m_source_file>
/data/baiqing/PycharmProjects/Reinvent-master-3.2/result/LINK_invent/BTK/process_docking_weight1_custom_sum_contain_oxygen_bond_distance_aromatic_linkinvent_7_9_3/rearranged_h_0053.sdf

> <i_m_source_file_index>
9

> <r_mmod_Potential_Energy-OPLS-2005>
256.756072998047

> <r_mmod_Stretch_Energy-OPLS-2005>
123.023971557617

> <r_mmod_Bend_Energy-OPLS-2005>
178.843841552734

> <r_mmod_Torsional_Energy-OPLS-2005>
310.448120117188

> <r_mmod_Improper_Torsional_Energy-OPLS-2005>
7.05749797821045

> <r_mmod_Van_der_Waal_Energy-OPLS-2005>
114.1240234375

> <r_mmod_Electrostatic_Energy-OPLS-2005>
-164.566253662109

> <r_mmod_Solvation_Energy-OPLS-2005>
-400.243835449219

> <b_mmod_Minimization_Converged-OPLS-2005>
0

> <r_mmod_RMS_Derivative-OPLS-2005>
2.94870376586914

$$$$
9
                    3D
 Structure written by MMmdl.
154162  0  0  1  0            999 V2000
  -30.6118  -14.7226   20.4631 C   0  0  0  0  0  0
  -30.4377  -12.4408   19.4620 C   0  0  0  0  0  0
  -29.5122  -12.5054   18.2261 C   0  0  0  0  0  0
  -28.0356  -12.3315   18.6393 C   0  0  0  0  0  0
  -27.6433  -13.2262   19.8473 C   0  0  2  0  0  0
  -28.6911  -13.1403   20.9803 C   0  0  0  0  0  0
  -25.2502  -13.8175   20.5691 C   0  0  0  0  0  0
  -24.1796  -13.0420   20.9204 C   0  0  0  0  0  0
  -24.6376  -11.6900   20.8717 C   0  0  0  0  0  0
  -23.9031  -10.4286   21.0379 C   0  0  0  0  0  0
  -24.3596   -9.4212   21.9162 C   0  0  0  0  0  0
  -23.6281   -8.2241   22.0740 C   0  0  0  0  0  0
  -22.4265   -8.0270   21.3537 C   0  0  0  0  0  0
  -21.9888   -9.0226   20.4631 C   0  0  0  0  0  0
  -22.7200  -10.2109   20.3027 C   0  0  0  0  0  0
  -21.6850   -6.0721   22.5272 C   0  0  0  0  0  0
  -21.4008   -6.5621   23.8210 C   0  0  0  0  0  0
  -21.3675   -5.6777   24.9172 C   0  0  0  0  0  0
  -21.6066   -4.3043   24.7218 C   0  0  0  0  0  0
  -21.8819   -3.8141   23.4336 C   0  0  0  0  0  0
  -21.9191   -4.6958   22.3397 C   0  0  0  0  0  0
  -22.7818  -13.5197   21.1863 C   0  0  0  0  0  0
  -22.1647   -4.2139   21.0981 F   0  0  0  0  0  0
  -21.5656   -3.4526   25.7731 F   0  0  0  0  0  0
  -29.9944  -13.4944   20.4020 N   0  0  0  0  0  0
  -26.2936  -12.9381   20.3257 N   0  0  0  0  0  0
  -25.9308  -11.6520   20.5706 N   0  0  0  0  0  0
  -22.0463  -12.8189   22.0436 N   0  0  0  0  0  0
  -25.4156  -15.1909   20.4141 N   0  0  0  0  0  0
  -31.8062  -14.8332   20.1698 O   0  0  0  0  0  0
  -21.6648   -6.8860   21.4239 O   0  0  0  0  0  0
  -22.3504  -14.5501   20.6712 O   0  0  0  0  0  0
  -24.6305  -31.8558   23.2007 C   0  0  0  0  0  0
  -25.9131  -32.4758   23.8374 C   0  0  1  0  0  0
  -27.2240  -27.2823   20.1361 C   0  0  0  0  0  0
  -25.5920  -33.8560   24.2280 N   0  0  0  0  0  0
  -23.4252  -30.4765   21.5443 C   0  0  2  0  0  0
  -24.8727  -28.9225   20.1173 C   0  0  0  0  0  0
  -22.7498  -29.4593   22.4956 C   0  0  0  0  0  0
  -18.0281  -28.1369   22.8478 C   0  0  0  0  0  0
  -24.1479  -36.7290   23.2643 C   0  0  0  0  0  0
  -25.9688  -30.7784   21.3742 C   0  0  0  0  0  0
  -26.0449  -29.4010   20.7181 C   0  0  0  0  0  0
  -27.2265  -28.5959   20.7089 C   0  0  0  0  0  0
  -26.0302  -26.8606   19.5122 C   0  0  0  0  0  0
  -24.8688  -27.6585   19.5040 C   0  0  0  0  0  0
  -23.6419  -29.8068   20.1622 C   0  0  0  0  0  0
  -25.4101  -36.3078   24.0336 C   0  0  1  0  0  0
  -20.5884  -28.3664   23.1284 C   0  0  2  0  0  0
  -20.6749  -26.9385   22.5414 C   0  0  0  0  0  0
  -19.5742  -26.6365   21.5205 C   0  0  0  0  0  0
  -18.1918  -26.7915   22.1605 C   0  0  0  0  0  0
  -19.1528  -28.8843   23.2871 C   0  0  0  0  0  0
  -18.9462  -30.1440   23.8874 C   0  0  0  0  0  0
  -17.6461  -30.6574   24.0551 C   0  0  0  0  0  0
  -25.9059  -34.9441   23.5117 C   0  0  0  0  0  0
  -16.5347  -29.9065   23.6334 C   0  0  0  0  0  0
  -16.7264  -28.6483   23.0355 C   0  0  0  0  0  0
  -26.4500  -31.6584   25.0760 C   0  0  0  0  0  0
  -25.3741  -31.3740   26.1502 C   0  0  0  0  0  0
  -27.0344  -30.2998   24.6250 C   0  0  0  0  0  0
  -27.6065  -32.4316   25.7525 C   0  0  0  0  0  0
  -27.5591  -37.1782   24.8450 C   0  0  0  0  0  0
  -21.4219  -29.3017   22.3697 N   0  0  0  0  0  0
  -26.4274  -37.3784   23.9436 N   0  0  0  0  0  0
  -24.6937  -31.0541   22.0968 N   0  0  0  0  0  0
  -23.4211  -28.8140   23.3053 O   0  0  0  0  0  0
  -28.3341  -26.4143   20.1427 O   0  0  0  0  0  0
  -26.5641  -34.8916   22.4694 O   0  0  0  0  0  0
  -23.5454  -32.1371   23.7311 O   0  0  0  0  0  0
  -29.1503  -18.3509   20.1946 C   0  0  0  0  0  0
  -31.2367  -17.9192   20.8930 C   0  0  0  0  0  0
  -30.0680  -17.2870   20.5676 C   0  0  0  0  0  0
  -29.7855  -19.5970   20.2330 C   0  0  0  0  0  0
  -32.1430  -20.2699   20.8783 C   0  0  0  0  0  0
  -29.4016  -21.0392   19.7053 C   0  0  0  0  0  0
  -28.9873  -22.3025   20.6156 C   0  0  0  0  0  0
  -28.9190  -23.7690   19.9181 C   0  0  0  0  0  0
  -28.1590  -25.0051   20.6235 C   0  0  0  0  0  0
  -31.0775  -19.2984   20.6899 N   0  0  0  0  0  0
  -29.7953  -15.8321   20.6152 N   0  0  0  0  0  0
  -31.4786  -12.5696   19.1587 H   0  0  0  0  0  0
  -30.3844  -11.4585   19.9329 H   0  0  0  0  0  0
  -29.7930  -11.7377   17.5042 H   0  0  0  0  0  0
  -29.6465  -13.4635   17.7227 H   0  0  0  0  0  0
  -27.8941  -11.2823   18.8997 H   0  0  0  0  0  0
  -27.3763  -12.5245   17.7926 H   0  0  0  0  0  0
  -27.6377  -14.2503   19.4737 H   0  0  0  0  0  0
  -28.7204  -12.1338   21.4001 H   0  0  0  0  0  0
  -28.4277  -13.8070   21.8022 H   0  0  0  0  0  0
  -25.2744   -9.5696   22.4725 H   0  0  0  0  0  0
  -24.0009   -7.4632   22.7447 H   0  0  0  0  0  0
  -21.0832   -8.8709   19.8935 H   0  0  0  0  0  0
  -22.3652  -10.9628   19.6123 H   0  0  0  0  0  0
  -21.1981   -7.6131   23.9714 H   0  0  0  0  0  0
  -21.1512   -6.0504   25.9083 H   0  0  0  0  0  0
  -22.0590   -2.7594   23.2835 H   0  0  0  0  0  0
  -22.4029  -11.9835   22.4838 H   0  0  0  0  0  0
  -21.1083  -13.1231   22.2632 H   0  0  0  0  0  0
  -24.6429  -15.8362   20.5368 H   0  0  0  0  0  0
  -26.2572  -15.6459   20.0863 H   0  0  0  0  0  0
  -26.7203  -32.5409   23.1135 H   0  0  0  0  0  0
  -25.0026  -33.9700   25.0393 H   0  0  0  0  0  0
  -22.7199  -31.2972   21.3989 H   0  0  0  0  0  0
  -23.3765  -35.9601   23.3261 H   0  0  0  0  0  0
  -24.3594  -36.8960   22.2073 H   0  0  0  0  0  0
  -23.7201  -37.6458   23.6701 H   0  0  0  0  0  0
  -26.1017  -31.5406   20.6056 H   0  0  0  0  0  0
  -26.8475  -30.8284   22.0052 H   0  0  0  0  0  0
  -28.1305  -28.9643   21.1738 H   0  0  0  0  0  0
  -25.9871  -25.8926   19.0329 H   0  0  0  0  0  0
  -23.9696  -27.2859   19.0323 H   0  0  0  0  0  0
  -23.7624  -30.5805   19.4031 H   0  0  0  0  0  0
  -22.7618  -29.2365   19.8615 H   0  0  0  0  0  0
  -25.1278  -36.1927   25.0827 H   0  0  0  0  0  0
  -20.9955  -28.3215   24.1413 H   0  0  0  0  0  0
  -20.5598  -26.2282   23.3620 H   0  0  0  0  0  0
  -21.6627  -26.7374   22.1242 H   0  0  0  0  0  0
  -19.6891  -25.6275   21.1238 H   0  0  0  0  0  0
  -19.6692  -27.3167   20.6735 H   0  0  0  0  0  0
  -17.4199  -26.6682   21.3994 H   0  0  0  0  0  0
  -18.0297  -26.0039   22.8982 H   0  0  0  0  0  0
  -19.7940  -30.7258   24.2235 H   0  0  0  0  0  0
  -17.5017  -31.6253   24.5148 H   0  0  0  0  0  0
  -15.5347  -30.2958   23.7673 H   0  0  0  0  0  0
  -15.8667  -28.0793   22.7086 H   0  0  0  0  0  0
  -24.5886  -30.7116   25.7854 H   0  0  0  0  0  0
  -24.8970  -32.2909   26.4973 H   0  0  0  0  0  0
  -25.8066  -30.8893   27.0268 H   0  0  0  0  0  0
  -26.2932  -29.6743   24.1267 H   0  0  0  0  0  0
  -27.4009  -29.7268   25.4784 H   0  0  0  0  0  0
  -27.8820  -30.4274   23.9513 H   0  0  0  0  0  0
  -27.2687  -33.3608   26.2138 H   0  0  0  0  0  0
  -28.3870  -32.6893   25.0348 H   0  0  0  0  0  0
  -28.0763  -31.8428   26.5422 H   0  0  0  0  0  0
  -28.2554  -38.0131   24.7579 H   0  0  0  0  0  0
  -28.1136  -36.2672   24.6152 H   0  0  0  0  0  0
  -27.2342  -37.1280   25.8856 H   0  0  0  0  0  0
  -20.9407  -29.8773   21.6931 H   0  0  0  0  0  0
  -26.0152  -38.2845   24.1494 H   0  0  0  0  0  0
  -28.1331  -18.2110   19.8567 H   0  0  0  0  0  0
  -32.1835  -17.5166   21.2297 H   0  0  0  0  0  0
  -33.0114  -19.8016   21.3423 H   0  0  0  0  0  0
  -31.8037  -21.0824   21.5216 H   0  0  0  0  0  0
  -32.4453  -20.6808   19.9154 H   0  0  0  0  0  0
  -28.6041  -20.9119   18.9715 H   0  0  0  0  0  0
  -30.2439  -21.3798   19.1014 H   0  0  0  0  0  0
  -29.6894  -22.3701   21.4469 H   0  0  0  0  0  0
  -28.0232  -22.0801   21.0706 H   0  0  0  0  0  0
  -28.4737  -23.6480   18.9305 H   0  0  0  0  0  0
  -29.9466  -24.0798   19.7235 H   0  0  0  0  0  0
  -28.4751  -25.0205   21.6668 H   0  0  0  0  0  0
  -27.0993  -24.7517   20.6712 H   0  0  0  0  0  0
  -28.8209  -15.5865   20.6898 H   0  0  0  0  0  0
  1 25  1  0  0  0
  1 30  2  0  0  0
  1 81  1  0  0  0
  2  3  1  0  0  0
  2 25  1  0  0  0
  2 82  1  0  0  0
  2 83  1  0  0  0
  3  4  1  0  0  0
  3 84  1  0  0  0
  3 85  1  0  0  0
  4  5  1  0  0  0
  4 86  1  0  0  0
  4 87  1  0  0  0
  5  6  1  0  0  0
  5 26  1  0  0  0
  5 88  1  0  0  0
  6 25  1  0  0  0
  6 89  1  0  0  0
  6 90  1  0  0  0
  7  8  2  0  0  0
  7 26  1  0  0  0
  7 29  1  0  0  0
  8  9  1  0  0  0
  8 22  1  0  0  0
  9 10  1  0  0  0
  9 27  2  0  0  0
 10 11  2  0  0  0
 10 15  1  0  0  0
 11 12  1  0  0  0
 11 91  1  0  0  0
 12 13  2  0  0  0
 12 92  1  0  0  0
 13 14  1  0  0  0
 13 31  1  0  0  0
 14 15  2  0  0  0
 14 93  1  0  0  0
 15 94  1  0  0  0
 16 17  2  0  0  0
 16 21  1  0  0  0
 16 31  1  0  0  0
 17 18  1  0  0  0
 17 95  1  0  0  0
 18 19  2  0  0  0
 18 96  1  0  0  0
 19 20  1  0  0  0
 19 24  1  0  0  0
 20 21  2  0  0  0
 20 97  1  0  0  0
 21 23  1  0  0  0
 22 28  1  0  0  0
 22 32  2  0  0  0
 26 27  1  0  0  0
 28 98  1  0  0  0
 28 99  1  0  0  0
 29100  1  0  0  0
 29101  1  0  0  0
 33 34  1  0  0  0
 33 66  1  0  0  0
 33 70  2  0  0  0
 34 36  1  0  0  0
 34 59  1  0  0  0
 34102  1  0  0  0
 35 44  2  0  0  0
 35 45  1  0  0  0
 35 68  1  0  0  0
 36 56  1  0  0  0
 36103  1  0  0  0
 37 39  1  0  0  0
 37 47  1  0  0  0
 37 66  1  0  0  0
 37104  1  0  0  0
 38 43  2  0  0  0
 38 46  1  0  0  0
 38 47  1  0  0  0
 39 64  1  0  0  0
 39 67  2  0  0  0
 40 52  1  0  0  0
 40 53  2  0  0  0
 40 58  1  0  0  0
 41105  1  0  0  0
 41106  1  0  0  0
 41107  1  0  0  0
 41 48  1  0  0  0
 42 43  1  0  0  0
 42 66  1  0  0  0
 42108  1  0  0  0
 42109  1  0  0  0
 43 44  1  0  0  0
 44110  1  0  0  0
 45 46  2  0  0  0
 45111  1  0  0  0
 46112  1  0  0  0
 47113  1  0  0  0
 47114  1  0  0  0
 48 56  1  0  0  0
 48 65  1  0  0  0
 48115  1  0  0  0
 49 50  1  0  0  0
 49 53  1  0  0  0
 49 64  1  0  0  0
 49116  1  0  0  0
 50 51  1  0  0  0
 50117  1  0  0  0
 50118  1  0  0  0
 51 52  1  0  0  0
 51119  1  0  0  0
 51120  1  0  0  0
 52121  1  0  0  0
 52122  1  0  0  0
 53 54  1  0  0  0
 54 55  2  0  0  0
 54123  1  0  0  0
 55 57  1  0  0  0
 55124  1  0  0  0
 56 69  2  0  0  0
 57 58  2  0  0  0
 57125  1  0  0  0
 58126  1  0  0  0
 59 60  1  0  0  0
 59 61  1  0  0  0
 59 62  1  0  0  0
 60127  1  0  0  0
 60128  1  0  0  0
 60129  1  0  0  0
 61130  1  0  0  0
 61131  1  0  0  0
 61132  1  0  0  0
 62133  1  0  0  0
 62134  1  0  0  0
 62135  1  0  0  0
 63 65  1  0  0  0
 63136  1  0  0  0
 63137  1  0  0  0
 63138  1  0  0  0
 64139  1  0  0  0
 65140  1  0  0  0
 68 79  1  0  0  0
 71 73  1  0  0  0
 71 74  2  0  0  0
 71141  1  0  0  0
 72 73  2  0  0  0
 72 80  1  0  0  0
 72142  1  0  0  0
 73 81  1  0  0  0
 74 76  1  0  0  0
 74 80  1  0  0  0
 75 80  1  0  0  0
 75143  1  0  0  0
 75144  1  0  0  0
 75145  1  0  0  0
 76 77  1  0  0  0
 76146  1  0  0  0
 76147  1  0  0  0
 77 78  1  0  0  0
 77148  1  0  0  0
 77149  1  0  0  0
 78 79  1  0  0  0
 78150  1  0  0  0
 78151  1  0  0  0
 79152  1  0  0  0
 79153  1  0  0  0
 81154  1  0  0  0
M  ISO  4   1 100  68 101  79 101  81 100
M  END
> <chiral flag>
0

> <version>
0

> <s_m_source_file>
/data/baiqing/PycharmProjects/Reinvent-master-3.2/result/LINK_invent/BTK/process_docking_weight1_custom_sum_contain_oxygen_bond_distance_aromatic_linkinvent_7_9_3/rearranged_h_0053.sdf

> <i_m_source_file_index>
10

> <r_mmod_Potential_Energy-OPLS-2005>
133.962936401367

> <r_mmod_Stretch_Energy-OPLS-2005>
108.575401306152

> <r_mmod_Bend_Energy-OPLS-2005>
164.639389038086

> <r_mmod_Torsional_Energy-OPLS-2005>
239.705123901367

> <r_mmod_Improper_Torsional_Energy-OPLS-2005>
6.55932474136353

> <r_mmod_Van_der_Waal_Energy-OPLS-2005>
112.686935424805

> <r_mmod_Electrostatic_Energy-OPLS-2005>
-360.705993652344

> <r_mmod_Solvation_Energy-OPLS-2005>
-210.6787109375

> <b_mmod_Minimization_Converged-OPLS-2005>
0

> <r_mmod_RMS_Derivative-OPLS-2005>
2.74496293067932

$$$$
10
                    3D
 Structure written by MMmdl.
162170  0  0  1  0            999 V2000
  -30.6950  -14.4988   20.4985 C   0  0  0  0  0  0
  -30.4139  -12.3061   19.4128 C   0  0  0  0  0  0
  -29.4794  -12.4748   18.1968 C   0  0  0  0  0  0
  -27.9990  -12.3544   18.6133 C   0  0  0  0  0  0
  -27.6415  -13.1992   19.8659 C   0  0  2  0  0  0
  -28.6988  -13.0336   20.9809 C   0  0  0  0  0  0
  -25.2508  -13.8119   20.5772 C   0  0  0  0  0  0
  -24.1776  -13.0400   20.9261 C   0  0  0  0  0  0
  -24.6326  -11.6858   20.8802 C   0  0  0  0  0  0
  -23.9016  -10.4256   21.0452 C   0  0  0  0  0  0
  -24.3592   -9.4155   21.9206 C   0  0  0  0  0  0
  -23.6270   -8.2185   22.0748 C   0  0  0  0  0  0
  -22.4251   -8.0239   21.3535 C   0  0  0  0  0  0
  -21.9885   -9.0209   20.4630 C   0  0  0  0  0  0
  -22.7198  -10.2090   20.3068 C   0  0  0  0  0  0
  -21.6839   -6.0722   22.5322 C   0  0  0  0  0  0
  -21.3990   -6.5636   23.8248 C   0  0  0  0  0  0
  -21.3642   -5.6808   24.9221 C   0  0  0  0  0  0
  -21.6038   -4.3073   24.7277 C   0  0  0  0  0  0
  -21.8812   -3.8144   23.4409 C   0  0  0  0  0  0
  -21.9179   -4.6949   22.3457 C   0  0  0  0  0  0
  -22.7798  -13.5195   21.1893 C   0  0  0  0  0  0
  -22.1670   -4.2131   21.1039 F   0  0  0  0  0  0
  -21.5602   -3.4556   25.7784 F   0  0  0  0  0  0
  -30.0222  -13.3189   20.4023 N   0  0  0  0  0  0
  -26.2921  -12.9273   20.3418 N   0  0  0  0  0  0
  -25.9238  -11.6450   20.5819 N   0  0  0  0  0  0
  -22.0405  -12.8190   22.0420 N   0  0  0  0  0  0
  -25.4239  -15.1849   20.4204 N   0  0  0  0  0  0
  -31.8806  -14.6353   20.1861 O   0  0  0  0  0  0
  -21.6607   -6.8839   21.4265 O   0  0  0  0  0  0
  -22.3499  -14.5506   20.6732 O   0  0  0  0  0  0
  -24.6121  -31.8701   23.2118 C   0  0  0  0  0  0
  -25.9025  -32.4833   23.8403 C   0  0  1  0  0  0
  -27.2323  -27.4560   20.0961 C   0  0  0  0  0  0
  -25.5892  -33.8630   24.2334 N   0  0  0  0  0  0
  -23.3993  -30.4924   21.5535 C   0  0  2  0  0  0
  -24.8482  -28.9644   20.1105 C   0  0  0  0  0  0
  -22.7394  -29.4668   22.5019 C   0  0  0  0  0  0
  -18.0262  -28.1374   22.8506 C   0  0  0  0  0  0
  -24.1488  -36.7316   23.2640 C   0  0  0  0  0  0
  -25.9255  -30.8423   21.3634 C   0  0  0  0  0  0
  -26.0069  -29.4798   20.7078 C   0  0  0  0  0  0
  -27.2048  -28.7308   20.7016 C   0  0  0  0  0  0
  -26.0655  -26.9502   19.4895 C   0  0  0  0  0  0
  -24.8721  -27.6982   19.4974 C   0  0  0  0  0  0
  -23.6056  -29.8247   20.1675 C   0  0  0  0  0  0
  -25.4112  -36.3113   24.0337 C   0  0  1  0  0  0
  -20.5857  -28.3655   23.1334 C   0  0  2  0  0  0
  -20.6759  -26.9396   22.5420 C   0  0  0  0  0  0
  -19.5734  -26.6380   21.5219 C   0  0  0  0  0  0
  -18.1912  -26.7923   22.1633 C   0  0  0  0  0  0
  -19.1516  -28.8830   23.2917 C   0  0  0  0  0  0
  -18.9440  -30.1448   23.8905 C   0  0  0  0  0  0
  -17.6443  -30.6593   24.0564 C   0  0  0  0  0  0
  -25.9037  -34.9482   23.5142 C   0  0  0  0  0  0
  -16.5332  -29.9092   23.6328 C   0  0  0  0  0  0
  -16.7254  -28.6505   23.0356 C   0  0  0  0  0  0
  -26.4458  -31.6604   25.0721 C   0  0  0  0  0  0
  -25.3737  -31.3690   26.1479 C   0  0  0  0  0  0
  -27.0288  -30.3053   24.6073 C   0  0  0  0  0  0
  -27.6039  -32.4314   25.7476 C   0  0  0  0  0  0
  -27.5589  -37.1810   24.8463 C   0  0  0  0  0  0
  -21.4125  -29.3024   22.3748 N   0  0  0  0  0  0
  -26.4298  -37.3798   23.9412 N   0  0  0  0  0  0
  -24.6644  -31.0811   22.1022 N   0  0  0  0  0  0
  -23.4175  -28.8215   23.3057 O   0  0  0  0  0  0
  -28.3526  -26.6657   20.1374 O   0  0  0  0  0  0
  -26.5594  -34.8924   22.4699 O   0  0  0  0  0  0
  -23.5326  -32.1442   23.7528 O   0  0  0  0  0  0
  -28.6333  -23.2218   21.5962 C   0  0  0  0  0  0
  -30.2808  -22.9221   20.2145 C   0  0  0  0  0  0
  -28.9560  -24.4269   21.0064 C   0  0  0  0  0  0
  -29.3671  -16.1993   19.4204 C   0  0  0  0  0  0
  -31.8966  -18.6251   23.4265 C   0  0  0  0  0  0
  -28.3243  -25.7753   21.2627 C   0  0  0  0  0  0
  -29.5126  -20.8319   21.3892 C   0  0  0  0  0  0
  -30.1091  -16.5640   21.7496 C   0  0  0  0  0  0
  -30.8677  -20.3261   21.9504 C   0  0  0  0  0  0
  -30.7952  -17.9042   21.3406 C   0  0  0  0  0  0
  -30.0155  -24.2242   20.1171 N   0  0  0  0  0  0
  -29.5014  -22.2599   21.0855 N   0  0  0  0  0  0
  -29.9159  -15.5972   20.6465 N   0  0  0  0  0  0
  -30.8261  -18.9118   22.4381 N   0  3  1  0  0  0
  -31.4569  -12.4041   19.1049 H   0  0  0  0  0  0
  -30.3125  -11.3034   19.8324 H   0  0  0  0  0  0
  -29.7060  -11.7248   17.4372 H   0  0  0  0  0  0
  -29.6537  -13.4420   17.7230 H   0  0  0  0  0  0
  -27.7959  -11.3012   18.8052 H   0  0  0  0  0  0
  -27.3548  -12.6410   17.7817 H   0  0  0  0  0  0
  -27.6380  -14.2347   19.5467 H   0  0  0  0  0  0
  -28.6810  -12.0148   21.3706 H   0  0  0  0  0  0
  -28.4739  -13.6866   21.8261 H   0  0  0  0  0  0
  -25.2722   -9.5611   22.4807 H   0  0  0  0  0  0
  -23.9950   -7.4567   22.7479 H   0  0  0  0  0  0
  -21.0806   -8.8721   19.8964 H   0  0  0  0  0  0
  -22.3642  -10.9634   19.6196 H   0  0  0  0  0  0
  -21.2000   -7.6139   23.9728 H   0  0  0  0  0  0
  -21.1465   -6.0559   25.9120 H   0  0  0  0  0  0
  -22.0606   -2.7600   23.2940 H   0  0  0  0  0  0
  -22.3998  -11.9869   22.4859 H   0  0  0  0  0  0
  -21.0994  -13.1189   22.2526 H   0  0  0  0  0  0
  -24.6608  -15.8429   20.5313 H   0  0  0  0  0  0
  -26.2896  -15.6241   20.1388 H   0  0  0  0  0  0
  -26.7101  -32.5560   23.1179 H   0  0  0  0  0  0
  -25.0067  -33.9793   25.0491 H   0  0  0  0  0  0
  -22.6869  -31.3092   21.4166 H   0  0  0  0  0  0
  -23.3752  -35.9651   23.3315 H   0  0  0  0  0  0
  -24.3581  -36.8916   22.2053 H   0  0  0  0  0  0
  -23.7230  -37.6522   23.6643 H   0  0  0  0  0  0
  -26.0346  -31.6094   20.5962 H   0  0  0  0  0  0
  -26.8141  -30.8949   21.9794 H   0  0  0  0  0  0
  -28.0969  -29.1178   21.1750 H   0  0  0  0  0  0
  -26.0776  -25.9709   19.0319 H   0  0  0  0  0  0
  -23.9804  -27.2913   19.0393 H   0  0  0  0  0  0
  -23.7049  -30.5998   19.4073 H   0  0  0  0  0  0
  -22.7307  -29.2402   19.8763 H   0  0  0  0  0  0
  -25.1283  -36.1997   25.0829 H   0  0  0  0  0  0
  -20.9945  -28.3216   24.1461 H   0  0  0  0  0  0
  -20.5683  -26.2256   23.3608 H   0  0  0  0  0  0
  -21.6632  -26.7456   22.1210 H   0  0  0  0  0  0
  -19.6904  -25.6296   21.1239 H   0  0  0  0  0  0
  -19.6684  -27.3200   20.6762 H   0  0  0  0  0  0
  -17.4199  -26.6694   21.4018 H   0  0  0  0  0  0
  -18.0297  -26.0044   22.9004 H   0  0  0  0  0  0
  -19.7922  -30.7251   24.2273 H   0  0  0  0  0  0
  -17.5005  -31.6277   24.5171 H   0  0  0  0  0  0
  -15.5334  -30.2994   23.7639 H   0  0  0  0  0  0
  -15.8665  -28.0816   22.7067 H   0  0  0  0  0  0
  -24.5889  -30.7063   25.7802 H   0  0  0  0  0  0
  -24.8952  -32.2848   26.4962 H   0  0  0  0  0  0
  -25.8102  -30.8818   27.0211 H   0  0  0  0  0  0
  -26.2824  -29.6813   24.1140 H   0  0  0  0  0  0
  -27.4090  -29.7271   25.4506 H   0  0  0  0  0  0
  -27.8640  -30.4371   23.9189 H   0  0  0  0  0  0
  -27.2659  -33.3603   26.2072 H   0  0  0  0  0  0
  -28.3829  -32.6895   25.0291 H   0  0  0  0  0  0
  -28.0728  -31.8432   26.5370 H   0  0  0  0  0  0
  -28.2598  -38.0112   24.7541 H   0  0  0  0  0  0
  -28.1088  -36.2653   24.6260 H   0  0  0  0  0  0
  -27.2311  -37.1430   25.8861 H   0  0  0  0  0  0
  -20.9287  -29.8734   21.6965 H   0  0  0  0  0  0
  -26.0197  -38.2879   24.1417 H   0  0  0  0  0  0
  -27.8647  -22.9869   22.3217 H   0  0  0  0  0  0
  -31.0538  -22.4354   19.6352 H   0  0  0  0  0  0
  -28.4581  -16.7641   19.6321 H   0  0  0  0  0  0
  -29.1269  -15.4596   18.6600 H   0  0  0  0  0  0
  -30.0876  -16.8628   18.9435 H   0  0  0  0  0  0
  -31.9295  -19.3827   24.2103 H   0  0  0  0  0  0
  -32.8770  -18.5943   22.9486 H   0  0  0  0  0  0
  -31.7304  -17.6653   23.9163 H   0  0  0  0  0  0
  -28.8413  -26.2661   22.0891 H   0  0  0  0  0  0
  -27.3028  -25.6135   21.6186 H   0  0  0  0  0  0
  -28.7126  -20.6244   22.1003 H   0  0  0  0  0  0
  -29.2498  -20.3070   20.4716 H   0  0  0  0  0  0
  -29.1259  -16.7682   22.1729 H   0  0  0  0  0  0
  -30.6816  -16.0897   22.5501 H   0  0  0  0  0  0
  -31.1501  -20.9830   22.7748 H   0  0  0  0  0  0
  -31.6526  -20.4353   21.2005 H   0  0  0  0  0  0
  -30.2560  -18.3501   20.5088 H   0  0  0  0  0  0
  -31.8091  -17.7277   20.9727 H   0  0  0  0  0  0
  -29.9583  -18.8310   22.9482 H   0  0  0  0  0  0
  1 25  1  0  0  0
  1 30  2  0  0  0
  1 83  1  0  0  0
  2  3  1  0  0  0
  2 25  1  0  0  0
  2 85  1  0  0  0
  2 86  1  0  0  0
  3  4  1  0  0  0
  3 87  1  0  0  0
  3 88  1  0  0  0
  4  5  1  0  0  0
  4 89  1  0  0  0
  4 90  1  0  0  0
  5  6  1  0  0  0
  5 26  1  0  0  0
  5 91  1  0  0  0
  6 25  1  0  0  0
  6 92  1  0  0  0
  6 93  1  0  0  0
  7  8  2  0  0  0
  7 26  1  0  0  0
  7 29  1  0  0  0
  8  9  1  0  0  0
  8 22  1  0  0  0
  9 10  1  0  0  0
  9 27  2  0  0  0
 10 11  2  0  0  0
 10 15  1  0  0  0
 11 12  1  0  0  0
 11 94  1  0  0  0
 12 13  2  0  0  0
 12 95  1  0  0  0
 13 14  1  0  0  0
 13 31  1  0  0  0
 14 15  2  0  0  0
 14 96  1  0  0  0
 15 97  1  0  0  0
 16 17  2  0  0  0
 16 21  1  0  0  0
 16 31  1  0  0  0
 17 18  1  0  0  0
 17 98  1  0  0  0
 18 19  2  0  0  0
 18 99  1  0  0  0
 19 20  1  0  0  0
 19 24  1  0  0  0
 20 21  2  0  0  0
 20100  1  0  0  0
 21 23  1  0  0  0
 22 28  1  0  0  0
 22 32  2  0  0  0
 26 27  1  0  0  0
 28101  1  0  0  0
 28102  1  0  0  0
 29103  1  0  0  0
 29104  1  0  0  0
 33 34  1  0  0  0
 33 66  1  0  0  0
 33 70  2  0  0  0
 34 36  1  0  0  0
 34 59  1  0  0  0
 34105  1  0  0  0
 35 44  2  0  0  0
 35 45  1  0  0  0
 35 68  1  0  0  0
 36 56  1  0  0  0
 36106  1  0  0  0
 37 39  1  0  0  0
 37 47  1  0  0  0
 37 66  1  0  0  0
 37107  1  0  0  0
 38 43  2  0  0  0
 38 46  1  0  0  0
 38 47  1  0  0  0
 39 64  1  0  0  0
 39 67  2  0  0  0
 40 52  1  0  0  0
 40 53  2  0  0  0
 40 58  1  0  0  0
 41108  1  0  0  0
 41109  1  0  0  0
 41110  1  0  0  0
 41 48  1  0  0  0
 42 43  1  0  0  0
 42 66  1  0  0  0
 42111  1  0  0  0
 42112  1  0  0  0
 43 44  1  0  0  0
 44113  1  0  0  0
 45 46  2  0  0  0
 45114  1  0  0  0
 46115  1  0  0  0
 47116  1  0  0  0
 47117  1  0  0  0
 48 56  1  0  0  0
 48 65  1  0  0  0
 48118  1  0  0  0
 49 50  1  0  0  0
 49 53  1  0  0  0
 49 64  1  0  0  0
 49119  1  0  0  0
 50 51  1  0  0  0
 50120  1  0  0  0
 50121  1  0  0  0
 51 52  1  0  0  0
 51122  1  0  0  0
 51123  1  0  0  0
 52124  1  0  0  0
 52125  1  0  0  0
 53 54  1  0  0  0
 54 55  2  0  0  0
 54126  1  0  0  0
 55 57  1  0  0  0
 55127  1  0  0  0
 56 69  2  0  0  0
 57 58  2  0  0  0
 57128  1  0  0  0
 58129  1  0  0  0
 59 60  1  0  0  0
 59 61  1  0  0  0
 59 62  1  0  0  0
 60130  1  0  0  0
 60131  1  0  0  0
 60132  1  0  0  0
 61133  1  0  0  0
 61134  1  0  0  0
 61135  1  0  0  0
 62136  1  0  0  0
 62137  1  0  0  0
 62138  1  0  0  0
 63 65  1  0  0  0
 63139  1  0  0  0
 63140  1  0  0  0
 63141  1  0  0  0
 64142  1  0  0  0
 65143  1  0  0  0
 68 76  1  0  0  0
 71 73  2  0  0  0
 71 82  1  0  0  0
 71144  1  0  0  0
 72 81  2  0  0  0
 72 82  1  0  0  0
 72145  1  0  0  0
 73 76  1  0  0  0
 73 81  1  0  0  0
 74 83  1  0  0  0
 74146  1  0  0  0
 74147  1  0  0  0
 74148  1  0  0  0
 75149  1  0  0  0
 75150  1  0  0  0
 75151  1  0  0  0
 75 84  1  0  0  0
 76152  1  0  0  0
 76153  1  0  0  0
 77 79  1  0  0  0
 77 82  1  0  0  0
 77154  1  0  0  0
 77155  1  0  0  0
 78 80  1  0  0  0
 78 83  1  0  0  0
 78156  1  0  0  0
 78157  1  0  0  0
 79 84  1  0  0  0
 79158  1  0  0  0
 79159  1  0  0  0
 80 84  1  0  0  0
 80160  1  0  0  0
 80161  1  0  0  0
 84162  1  0  0  0
M  CHG  1  84   1
M  ISO  4   1 100  68 101  76 101  83 100
M  END
> <chiral flag>
0

> <version>
0

> <s_m_source_file>
/data/baiqing/PycharmProjects/Reinvent-master-3.2/result/LINK_invent/BTK/process_docking_weight1_custom_sum_contain_oxygen_bond_distance_aromatic_linkinvent_7_9_3/rearranged_h_0053.sdf

> <i_m_source_file_index>
11

> <r_mmod_Potential_Energy-OPLS-2005>
13.1728401184082

> <r_mmod_Stretch_Energy-OPLS-2005>
36.8880882263184

> <r_mmod_Bend_Energy-OPLS-2005>
100.086647033691

> <r_mmod_Torsional_Energy-OPLS-2005>
349.363800048828

> <r_mmod_Improper_Torsional_Energy-OPLS-2005>
9.94277572631836

> <r_mmod_Van_der_Waal_Energy-OPLS-2005>
131.813323974609

> <r_mmod_Electrostatic_Energy-OPLS-2005>
-151.04328918457

> <r_mmod_Solvation_Energy-OPLS-2005>
-483.746063232422

> <b_mmod_Minimization_Converged-OPLS-2005>
0

> <r_mmod_RMS_Derivative-OPLS-2005>
3.28441667556763

$$$$
11
                    3D
 Structure written by MMmdl.
153161  0  0  1  0            999 V2000
  -30.5604  -15.0174   20.3726 C   0  0  0  0  0  0
  -30.4380  -12.6363   19.4744 C   0  0  0  0  0  0
  -29.5096  -12.5041   18.2461 C   0  0  0  0  0  0
  -28.0555  -12.2541   18.6894 C   0  0  0  0  0  0
  -27.6114  -13.2152   19.8178 C   0  0  2  0  0  0
  -28.6683  -13.3497   20.9377 C   0  0  0  0  0  0
  -25.2429  -13.8077   20.5748 C   0  0  0  0  0  0
  -24.1729  -13.0351   20.9263 C   0  0  0  0  0  0
  -24.6328  -11.6835   20.8800 C   0  0  0  0  0  0
  -23.9022  -10.4235   21.0434 C   0  0  0  0  0  0
  -24.3593   -9.4157   21.9198 C   0  0  0  0  0  0
  -23.6269   -8.2196   22.0761 C   0  0  0  0  0  0
  -22.4254   -8.0241   21.3547 C   0  0  0  0  0  0
  -21.9884   -9.0214   20.4649 C   0  0  0  0  0  0
  -22.7209  -10.2088   20.3060 C   0  0  0  0  0  0
  -21.6834   -6.0712   22.5283 C   0  0  0  0  0  0
  -21.3995   -6.5624   23.8214 C   0  0  0  0  0  0
  -21.3658   -5.6782   24.9177 C   0  0  0  0  0  0
  -21.6050   -4.3044   24.7235 C   0  0  0  0  0  0
  -21.8820   -3.8133   23.4355 C   0  0  0  0  0  0
  -21.9187   -4.6945   22.3411 C   0  0  0  0  0  0
  -22.7764  -13.5165   21.1899 C   0  0  0  0  0  0
  -22.1659   -4.2131   21.0990 F   0  0  0  0  0  0
  -21.5636   -3.4532   25.7752 F   0  0  0  0  0  0
  -29.9282  -13.7675   20.3022 N   0  0  0  0  0  0
  -26.2811  -12.9242   20.3263 N   0  0  0  0  0  0
  -25.9246  -11.6416   20.5796 N   0  0  0  0  0  0
  -22.0403  -12.8172   22.0456 N   0  0  0  0  0  0
  -25.4049  -15.1802   20.4171 N   0  0  0  0  0  0
  -31.7940  -15.0064   20.2985 O   0  0  0  0  0  0
  -21.6611   -6.8846   21.4246 O   0  0  0  0  0  0
  -22.3475  -14.5480   20.6736 O   0  0  0  0  0  0
  -24.6449  -31.8440   23.1866 C   0  0  0  0  0  0
  -25.9212  -32.4694   23.8267 C   0  0  1  0  0  0
  -27.2246  -27.1245   20.1603 C   0  0  0  0  0  0
  -25.5953  -33.8500   24.2179 N   0  0  0  0  0  0
  -23.4496  -30.4628   21.5320 C   0  0  2  0  0  0
  -24.9012  -28.8870   20.1133 C   0  0  0  0  0  0
  -22.7576  -29.4556   22.4853 C   0  0  0  0  0  0
  -18.0307  -28.1405   22.8478 C   0  0  0  0  0  0
  -24.1489  -36.7255   23.2643 C   0  0  0  0  0  0
  -26.0072  -30.7143   21.3885 C   0  0  0  0  0  0
  -26.0797  -29.3236   20.7323 C   0  0  0  0  0  0
  -27.2425  -28.4616   20.7349 C   0  0  0  0  0  0
  -26.0210  -26.7977   19.4947 C   0  0  0  0  0  0
  -24.8872  -27.6376   19.4770 C   0  0  0  0  0  0
  -23.6769  -29.7895   20.1532 C   0  0  0  0  0  0
  -25.4125  -36.3035   24.0315 C   0  0  1  0  0  0
  -20.5916  -28.3735   23.1221 C   0  0  2  0  0  0
  -20.6789  -26.9435   22.5407 C   0  0  0  0  0  0
  -19.5761  -26.6394   21.5213 C   0  0  0  0  0  0
  -18.1948  -26.7947   22.1623 C   0  0  0  0  0  0
  -19.1564  -28.8888   23.2846 C   0  0  0  0  0  0
  -18.9485  -30.1482   23.8870 C   0  0  0  0  0  0
  -17.6478  -30.6598   24.0566 C   0  0  0  0  0  0
  -25.9078  -34.9408   23.5055 C   0  0  0  0  0  0
  -16.5369  -29.9096   23.6343 C   0  0  0  0  0  0
  -16.7293  -28.6516   23.0356 C   0  0  0  0  0  0
  -26.4520  -31.6568   25.0718 C   0  0  0  0  0  0
  -25.3694  -31.3766   26.1406 C   0  0  0  0  0  0
  -27.0387  -30.2956   24.6325 C   0  0  0  0  0  0
  -27.6042  -32.4346   25.7503 C   0  0  0  0  0  0
  -27.5575  -37.1785   24.8466 C   0  0  0  0  0  0
  -21.4262  -29.3064   22.3593 N   0  0  0  0  0  0
  -26.4289  -37.3750   23.9407 N   0  0  0  0  0  0
  -24.7204  -31.0293   22.0900 N   0  0  0  0  0  0
  -23.4212  -28.8119   23.3022 O   0  0  0  0  0  0
  -28.2800  -26.1338   20.2043 O   0  0  0  0  0  0
  -26.5672  -34.8911   22.4640 O   0  0  0  0  0  0
  -23.5564  -32.1323   23.7077 O   0  0  0  0  0  0
  -27.1892  -21.7327   21.4062 C   0  0  0  0  0  0
  -26.8899  -20.3938   21.7379 C   0  0  0  0  0  0
  -28.3965  -21.7363   20.7526 C   0  0  0  0  0  0
  -28.7337  -16.3806   19.3681 C   0  0  0  0  0  0
  -28.9430  -23.2068   20.2806 C   0  0  0  0  0  0
  -29.8764  -19.2764   20.1969 C   0  0  0  0  0  0
  -30.1866  -17.7226   20.8641 C   0  0  0  0  0  0
  -27.9781  -24.6091   20.4180 C   0  0  0  0  0  0
  -27.8227  -19.5619   21.3425 N   0  0  0  0  0  0
  -28.7976  -20.2795   20.7366 N   0  0  0  0  0  0
  -29.8399  -16.2708   20.3148 N   0  0  0  0  0  0
  -31.4626  -12.8096   19.1412 H   0  0  0  0  0  0
  -30.4595  -11.7108   20.0526 H   0  0  0  0  0  0
  -29.8468  -11.6924   17.5995 H   0  0  0  0  0  0
  -29.5592  -13.4135   17.6455 H   0  0  0  0  0  0
  -27.9911  -11.2244   19.0420 H   0  0  0  0  0  0
  -27.3780  -12.3258   17.8375 H   0  0  0  0  0  0
  -27.5065  -14.1618   19.3088 H   0  0  0  0  0  0
  -28.7903  -12.4115   21.4808 H   0  0  0  0  0  0
  -28.3531  -14.0982   21.6664 H   0  0  0  0  0  0
  -25.2732   -9.5628   22.4782 H   0  0  0  0  0  0
  -23.9970   -7.4584   22.7476 H   0  0  0  0  0  0
  -21.0818   -8.8729   19.8960 H   0  0  0  0  0  0
  -22.3671  -10.9631   19.6172 H   0  0  0  0  0  0
  -21.1969   -7.6130   23.9707 H   0  0  0  0  0  0
  -21.1483   -6.0516   25.9082 H   0  0  0  0  0  0
  -22.0602   -2.7595   23.2864 H   0  0  0  0  0  0
  -22.4007  -11.9824   22.4838 H   0  0  0  0  0  0
  -21.1027  -13.1210   22.2675 H   0  0  0  0  0  0
  -24.6373  -15.8314   20.5382 H   0  0  0  0  0  0
  -26.2598  -15.6272   20.1155 H   0  0  0  0  0  0
  -26.7286  -32.5300   23.1003 H   0  0  0  0  0  0
  -25.0061  -33.9616   25.0297 H   0  0  0  0  0  0
  -22.7530  -31.2896   21.3757 H   0  0  0  0  0  0
  -23.3759  -35.9578   23.3295 H   0  0  0  0  0  0
  -24.3574  -36.8898   22.2061 H   0  0  0  0  0  0
  -23.7235  -37.6443   23.6688 H   0  0  0  0  0  0
  -26.1672  -31.4675   20.6161 H   0  0  0  0  0  0
  -26.8752  -30.7637   22.0336 H   0  0  0  0  0  0
  -28.1411  -28.7986   21.2329 H   0  0  0  0  0  0
  -25.9257  -25.8556   18.9778 H   0  0  0  0  0  0
  -23.9939  -27.2986   18.9703 H   0  0  0  0  0  0
  -23.8128  -30.5625   19.3954 H   0  0  0  0  0  0
  -22.7923  -29.2301   19.8440 H   0  0  0  0  0  0
  -25.1312  -36.1862   25.0809 H   0  0  0  0  0  0
  -21.0018  -28.3342   24.1336 H   0  0  0  0  0  0
  -20.5678  -26.2361   23.3640 H   0  0  0  0  0  0
  -21.6661  -26.7444   22.1197 H   0  0  0  0  0  0
  -19.6921  -25.6301   21.1257 H   0  0  0  0  0  0
  -19.6687  -27.3199   20.6736 H   0  0  0  0  0  0
  -17.4214  -26.6697   21.4027 H   0  0  0  0  0  0
  -18.0332  -26.0096   22.9022 H   0  0  0  0  0  0
  -19.7962  -30.7309   24.2221 H   0  0  0  0  0  0
  -17.5035  -31.6271   24.5183 H   0  0  0  0  0  0
  -15.5366  -30.2990   23.7679 H   0  0  0  0  0  0
  -15.8696  -28.0833   22.7072 H   0  0  0  0  0  0
  -24.5894  -30.7091   25.7722 H   0  0  0  0  0  0
  -24.8864  -32.2952   26.4750 H   0  0  0  0  0  0
  -25.7977  -30.8996   27.0232 H   0  0  0  0  0  0
  -26.3008  -29.6678   24.1319 H   0  0  0  0  0  0
  -27.3956  -29.7266   25.4920 H   0  0  0  0  0  0
  -27.8935  -30.4169   23.9671 H   0  0  0  0  0  0
  -27.2621  -33.3673   26.2003 H   0  0  0  0  0  0
  -28.3886  -32.6871   25.0353 H   0  0  0  0  0  0
  -28.0671  -31.8527   26.5484 H   0  0  0  0  0  0
  -28.2586  -38.0087   24.7514 H   0  0  0  0  0  0
  -28.1077  -36.2617   24.6290 H   0  0  0  0  0  0
  -27.2296  -37.1427   25.8870 H   0  0  0  0  0  0
  -20.9484  -29.8759   21.6745 H   0  0  0  0  0  0
  -26.0153  -38.2817   24.1410 H   0  0  0  0  0  0
  -26.5678  -22.5879   21.6283 H   0  0  0  0  0  0
  -26.0209  -20.0041   22.2499 H   0  0  0  0  0  0
  -28.6733  -17.3512   18.8858 H   0  0  0  0  0  0
  -27.7937  -16.2432   19.8941 H   0  0  0  0  0  0
  -28.8229  -15.6662   18.5491 H   0  0  0  0  0  0
  -29.2667  -23.1251   19.2433 H   0  0  0  0  0  0
  -29.8601  -23.3966   20.8376 H   0  0  0  0  0  0
  -29.7450  -19.2028   19.1186 H   0  0  0  0  0  0
  -30.8145  -19.8249   20.2868 H   0  0  0  0  0  0
  -31.2698  -17.6866   20.9839 H   0  0  0  0  0  0
  -29.8253  -17.7395   21.8927 H   0  0  0  0  0  0
  -27.6107  -24.5982   21.4439 H   0  0  0  0  0  0
  -27.1041  -24.3672   19.8200 H   0  0  0  0  0  0
  1 25  1  0  0  0
  1 30  2  0  0  0
  1 81  1  0  0  0
  2  3  1  0  0  0
  2 25  1  0  0  0
  2 82  1  0  0  0
  2 83  1  0  0  0
  3  4  1  0  0  0
  3 84  1  0  0  0
  3 85  1  0  0  0
  4  5  1  0  0  0
  4 86  1  0  0  0
  4 87  1  0  0  0
  5  6  1  0  0  0
  5 26  1  0  0  0
  5 88  1  0  0  0
  6 25  1  0  0  0
  6 89  1  0  0  0
  6 90  1  0  0  0
  7  8  2  0  0  0
  7 26  1  0  0  0
  7 29  1  0  0  0
  8  9  1  0  0  0
  8 22  1  0  0  0
  9 10  1  0  0  0
  9 27  2  0  0  0
 10 11  2  0  0  0
 10 15  1  0  0  0
 11 12  1  0  0  0
 11 91  1  0  0  0
 12 13  2  0  0  0
 12 92  1  0  0  0
 13 14  1  0  0  0
 13 31  1  0  0  0
 14 15  2  0  0  0
 14 93  1  0  0  0
 15 94  1  0  0  0
 16 17  2  0  0  0
 16 21  1  0  0  0
 16 31  1  0  0  0
 17 18  1  0  0  0
 17 95  1  0  0  0
 18 19  2  0  0  0
 18 96  1  0  0  0
 19 20  1  0  0  0
 19 24  1  0  0  0
 20 21  2  0  0  0
 20 97  1  0  0  0
 21 23  1  0  0  0
 22 28  1  0  0  0
 22 32  2  0  0  0
 26 27  1  0  0  0
 28 98  1  0  0  0
 28 99  1  0  0  0
 29100  1  0  0  0
 29101  1  0  0  0
 33 34  1  0  0  0
 33 66  1  0  0  0
 33 70  2  0  0  0
 34 36  1  0  0  0
 34 59  1  0  0  0
 34102  1  0  0  0
 35 44  2  0  0  0
 35 45  1  0  0  0
 35 68  1  0  0  0
 36 56  1  0  0  0
 36103  1  0  0  0
 37 39  1  0  0  0
 37 47  1  0  0  0
 37 66  1  0  0  0
 37104  1  0  0  0
 38 43  2  0  0  0
 38 46  1  0  0  0
 38 47  1  0  0  0
 39 64  1  0  0  0
 39 67  2  0  0  0
 40 52  1  0  0  0
 40 53  2  0  0  0
 40 58  1  0  0  0
 41105  1  0  0  0
 41106  1  0  0  0
 41107  1  0  0  0
 41 48  1  0  0  0
 42 43  1  0  0  0
 42 66  1  0  0  0
 42108  1  0  0  0
 42109  1  0  0  0
 43 44  1  0  0  0
 44110  1  0  0  0
 45 46  2  0  0  0
 45111  1  0  0  0
 46112  1  0  0  0
 47113  1  0  0  0
 47114  1  0  0  0
 48 56  1  0  0  0
 48 65  1  0  0  0
 48115  1  0  0  0
 49 50  1  0  0  0
 49 53  1  0  0  0
 49 64  1  0  0  0
 49116  1  0  0  0
 50 51  1  0  0  0
 50117  1  0  0  0
 50118  1  0  0  0
 51 52  1  0  0  0
 51119  1  0  0  0
 51120  1  0  0  0
 52121  1  0  0  0
 52122  1  0  0  0
 53 54  1  0  0  0
 54 55  2  0  0  0
 54123  1  0  0  0
 55 57  1  0  0  0
 55124  1  0  0  0
 56 69  2  0  0  0
 57 58  2  0  0  0
 57125  1  0  0  0
 58126  1  0  0  0
 59 60  1  0  0  0
 59 61  1  0  0  0
 59 62  1  0  0  0
 60127  1  0  0  0
 60128  1  0  0  0
 60129  1  0  0  0
 61130  1  0  0  0
 61131  1  0  0  0
 61132  1  0  0  0
 62133  1  0  0  0
 62134  1  0  0  0
 62135  1  0  0  0
 63 65  1  0  0  0
 63136  1  0  0  0
 63137  1  0  0  0
 63138  1  0  0  0
 64139  1  0  0  0
 65140  1  0  0  0
 68 78  1  0  0  0
 71 72  1  0  0  0
 71 73  2  0  0  0
 71141  1  0  0  0
 72 79  2  0  0  0
 72142  1  0  0  0
 73 75  1  0  0  0
 73 80  1  0  0  0
 74 81  1  0  0  0
 74143  1  0  0  0
 74144  1  0  0  0
 74145  1  0  0  0
 75 78  1  0  0  0
 75146  1  0  0  0
 75147  1  0  0  0
 76 77  1  0  0  0
 76 80  1  0  0  0
 76148  1  0  0  0
 76149  1  0  0  0
 77 81  1  0  0  0
 77150  1  0  0  0
 77151  1  0  0  0
 78152  1  0  0  0
 78153  1  0  0  0
 79 80  1  0  0  0
M  ISO  4   1 100  68 101  78 101  81 100
M  END
> <chiral flag>
0

> <version>
0

> <s_m_source_file>
/data/baiqing/PycharmProjects/Reinvent-master-3.2/result/LINK_invent/BTK/process_docking_weight1_custom_sum_contain_oxygen_bond_distance_aromatic_linkinvent_7_9_3/rearranged_h_0053.sdf

> <i_m_source_file_index>
12

> <r_mmod_Potential_Energy-OPLS-2005>
793.213684082031

> <r_mmod_Stretch_Energy-OPLS-2005>
309.788665771484

> <r_mmod_Bend_Energy-OPLS-2005>
335.867584228516

> <r_mmod_Torsional_Energy-OPLS-2005>
311.937133789062

> <r_mmod_Improper_Torsional_Energy-OPLS-2005>
4.76469469070435

> <r_mmod_Van_der_Waal_Energy-OPLS-2005>
119.507461547852

> <r_mmod_Electrostatic_Energy-OPLS-2005>
-305.518035888672

> <r_mmod_Solvation_Energy-OPLS-2005>
-215.087768554688

> <b_mmod_Minimization_Converged-OPLS-2005>
0

> <r_mmod_RMS_Derivative-OPLS-2005>
1.16531407833099

$$$$
12
                    3D
 Structure written by MMmdl.
160168  0  0  1  0            999 V2000
  -30.5908  -14.7389   20.4672 C   0  0  0  0  0  0
  -30.4292  -12.4530   19.4688 C   0  0  0  0  0  0
  -29.5126  -12.5224   18.2285 C   0  0  0  0  0  0
  -28.0352  -12.3460   18.6351 C   0  0  0  0  0  0
  -27.6407  -13.2314   19.8479 C   0  0  2  0  0  0
  -28.6808  -13.1535   20.9851 C   0  0  0  0  0  0
  -25.2534  -13.8189   20.5707 C   0  0  0  0  0  0
  -24.1844  -13.0433   20.9244 C   0  0  0  0  0  0
  -24.6421  -11.6916   20.8764 C   0  0  0  0  0  0
  -23.9083  -10.4309   21.0400 C   0  0  0  0  0  0
  -24.3631   -9.4236   21.9181 C   0  0  0  0  0  0
  -23.6330   -8.2259   22.0746 C   0  0  0  0  0  0
  -22.4306   -8.0306   21.3547 C   0  0  0  0  0  0
  -21.9940   -9.0266   20.4642 C   0  0  0  0  0  0
  -22.7249  -10.2156   20.3051 C   0  0  0  0  0  0
  -21.6858   -6.0770   22.5298 C   0  0  0  0  0  0
  -21.4021   -6.5653   23.8239 C   0  0  0  0  0  0
  -21.3664   -5.6799   24.9188 C   0  0  0  0  0  0
  -21.6042   -4.3063   24.7222 C   0  0  0  0  0  0
  -21.8820   -3.8170   23.4337 C   0  0  0  0  0  0
  -21.9203   -4.6998   22.3409 C   0  0  0  0  0  0
  -22.7872  -13.5224   21.1899 C   0  0  0  0  0  0
  -22.1668   -4.2184   21.0986 F   0  0  0  0  0  0
  -21.5623   -3.4544   25.7723 F   0  0  0  0  0  0
  -29.9818  -13.5063   20.4075 N   0  0  0  0  0  0
  -26.2940  -12.9385   20.3244 N   0  0  0  0  0  0
  -25.9345  -11.6525   20.5742 N   0  0  0  0  0  0
  -22.0500  -12.8213   22.0431 N   0  0  0  0  0  0
  -25.4227  -15.1923   20.4136 N   0  0  0  0  0  0
  -31.7797  -14.8568   20.1608 O   0  0  0  0  0  0
  -21.6654   -6.8920   21.4273 O   0  0  0  0  0  0
  -22.3575  -14.5534   20.6744 O   0  0  0  0  0  0
  -24.6305  -31.8512   23.1945 C   0  0  0  0  0  0
  -25.9150  -32.4706   23.8278 C   0  0  1  0  0  0
  -27.2282  -27.2719   20.1321 C   0  0  0  0  0  0
  -25.5933  -33.8509   24.2198 N   0  0  0  0  0  0
  -23.4253  -30.4725   21.5355 C   0  0  2  0  0  0
  -24.8721  -28.9137   20.1063 C   0  0  0  0  0  0
  -22.7493  -29.4584   22.4894 C   0  0  0  0  0  0
  -18.0280  -28.1390   22.8468 C   0  0  0  0  0  0
  -24.1490  -36.7297   23.2637 C   0  0  0  0  0  0
  -25.9674  -30.7712   21.3676 C   0  0  0  0  0  0
  -26.0392  -29.3925   20.7137 C   0  0  0  0  0  0
  -27.2155  -28.5836   20.7127 C   0  0  0  0  0  0
  -26.0378  -26.8478   19.5019 C   0  0  0  0  0  0
  -24.8770  -27.6510   19.4885 C   0  0  0  0  0  0
  -23.6414  -29.7988   20.1520 C   0  0  0  0  0  0
  -25.4111  -36.3033   24.0307 C   0  0  1  0  0  0
  -20.5884  -28.3693   23.1270 C   0  0  2  0  0  0
  -20.6766  -26.9408   22.5408 C   0  0  0  0  0  0
  -19.5749  -26.6379   21.5205 C   0  0  0  0  0  0
  -18.1927  -26.7924   22.1616 C   0  0  0  0  0  0
  -19.1538  -28.8860   23.2856 C   0  0  0  0  0  0
  -18.9467  -30.1464   23.8872 C   0  0  0  0  0  0
  -17.6464  -30.6586   24.0567 C   0  0  0  0  0  0
  -25.9057  -34.9408   23.5059 C   0  0  0  0  0  0
  -16.5353  -29.9084   23.6331 C   0  0  0  0  0  0
  -16.7270  -28.6514   23.0330 C   0  0  0  0  0  0
  -26.4515  -31.6543   25.0685 C   0  0  0  0  0  0
  -25.3751  -31.3735   26.1423 C   0  0  0  0  0  0
  -27.0373  -30.2940   24.6218 C   0  0  0  0  0  0
  -27.6028  -32.4305   25.7499 C   0  0  0  0  0  0
  -27.5568  -37.1795   24.8451 C   0  0  0  0  0  0
  -21.4197  -29.3036   22.3657 N   0  0  0  0  0  0
  -26.4271  -37.3742   23.9404 N   0  0  0  0  0  0
  -24.6931  -31.0507   22.0894 N   0  0  0  0  0  0
  -23.4206  -28.8140   23.2995 O   0  0  0  0  0  0
  -28.3635  -26.4408   20.2196 O   0  0  0  0  0  0
  -26.5646  -34.8899   22.4637 O   0  0  0  0  0  0
  -23.5466  -32.1321   23.7273 O   0  0  0  0  0  0
  -30.5900  -22.5893   20.5737 C   0  0  0  0  0  0
  -31.4024  -21.4482   20.6141 C   0  0  0  0  0  0
  -29.1999  -22.4277   20.5087 C   0  0  0  0  0  0
  -29.5742  -20.0481   20.5201 C   0  0  0  0  0  0
  -32.9052  -21.5643   20.7544 C   0  0  0  0  0  0
  -28.4885  -18.3045   19.0159 C   0  0  0  0  0  0
  -27.9773  -18.3121   21.4929 C   0  0  0  0  0  0
  -28.2837  -23.7259   20.6729 C   0  0  0  0  0  0
  -30.1820  -17.3429   20.6698 C   0  0  0  0  0  0
  -28.4643  -25.0265   19.7227 C   0  0  0  0  0  0
  -29.0711  -18.5204   20.4277 C   0  0  0  0  0  0
  -30.8942  -20.2034   20.5762 N   0  0  0  0  0  0
  -28.7156  -21.1242   20.4765 N   0  0  0  0  0  0
  -29.7951  -15.8541   20.6728 N   0  0  0  0  0  0
  -31.4718  -12.5760   19.1739 H   0  0  0  0  0  0
  -30.3634  -11.4701   19.9374 H   0  0  0  0  0  0
  -29.7954  -11.7557   17.5069 H   0  0  0  0  0  0
  -29.6508  -13.4821   17.7261 H   0  0  0  0  0  0
  -27.8917  -11.2956   18.8855 H   0  0  0  0  0  0
  -27.3791  -12.5500   17.7870 H   0  0  0  0  0  0
  -27.6349  -14.2568   19.4768 H   0  0  0  0  0  0
  -28.7149  -12.1524   21.4177 H   0  0  0  0  0  0
  -28.4125  -13.8317   21.7991 H   0  0  0  0  0  0
  -25.2759   -9.5725   22.4778 H   0  0  0  0  0  0
  -24.0060   -7.4639   22.7439 H   0  0  0  0  0  0
  -21.0877   -8.8766   19.8940 H   0  0  0  0  0  0
  -22.3687  -10.9706   19.6178 H   0  0  0  0  0  0
  -21.2017   -7.6164   23.9752 H   0  0  0  0  0  0
  -21.1476   -6.0520   25.9094 H   0  0  0  0  0  0
  -22.0595   -2.7637   23.2806 H   0  0  0  0  0  0
  -22.4076  -11.9849   22.4805 H   0  0  0  0  0  0
  -21.1131  -13.1273   22.2616 H   0  0  0  0  0  0
  -24.6451  -15.8373   20.5056 H   0  0  0  0  0  0
  -26.2535  -15.6310   20.0396 H   0  0  0  0  0  0
  -26.7229  -32.5354   23.1025 H   0  0  0  0  0  0
  -25.0034  -33.9614   25.0314 H   0  0  0  0  0  0
  -22.7212  -31.2937   21.3863 H   0  0  0  0  0  0
  -23.3714  -35.9667   23.3273 H   0  0  0  0  0  0
  -24.3586  -36.8961   22.2060 H   0  0  0  0  0  0
  -23.7293  -37.6505   23.6699 H   0  0  0  0  0  0
  -26.1049  -31.5321   20.5976 H   0  0  0  0  0  0
  -26.8460  -30.8185   21.9999 H   0  0  0  0  0  0
  -28.1121  -28.9511   21.1917 H   0  0  0  0  0  0
  -25.9788  -25.8755   19.0369 H   0  0  0  0  0  0
  -23.9816  -27.2807   19.0072 H   0  0  0  0  0  0
  -23.7624  -30.5712   19.3909 H   0  0  0  0  0  0
  -22.7605  -29.2273   19.8504 H   0  0  0  0  0  0
  -25.1298  -36.1842   25.0795 H   0  0  0  0  0  0
  -20.9967  -28.3275   24.1396 H   0  0  0  0  0  0
  -20.5653  -26.2307   23.3616 H   0  0  0  0  0  0
  -21.6636  -26.7420   22.1213 H   0  0  0  0  0  0
  -19.6910  -25.6290   21.1236 H   0  0  0  0  0  0
  -19.6690  -27.3189   20.6737 H   0  0  0  0  0  0
  -17.4192  -26.6650   21.4024 H   0  0  0  0  0  0
  -18.0337  -26.0074   22.9027 H   0  0  0  0  0  0
  -19.7947  -30.7279   24.2216 H   0  0  0  0  0  0
  -17.5028  -31.6258   24.5185 H   0  0  0  0  0  0
  -15.5357  -30.2989   23.7675 H   0  0  0  0  0  0
  -15.8664  -28.0851   22.7027 H   0  0  0  0  0  0
  -24.5890  -30.7103   25.7797 H   0  0  0  0  0  0
  -24.9001  -32.2937   26.4830 H   0  0  0  0  0  0
  -25.8083  -30.8935   27.0205 H   0  0  0  0  0  0
  -26.2978  -29.6659   24.1235 H   0  0  0  0  0  0
  -27.4013  -29.7221   25.4767 H   0  0  0  0  0  0
  -27.8864  -30.4164   23.9490 H   0  0  0  0  0  0
  -27.2559  -33.3573   26.2077 H   0  0  0  0  0  0
  -28.3868  -32.6913   25.0382 H   0  0  0  0  0  0
  -28.0663  -31.8438   26.5439 H   0  0  0  0  0  0
  -28.2551  -38.0118   24.7483 H   0  0  0  0  0  0
  -28.1084  -36.2639   24.6266 H   0  0  0  0  0  0
  -27.2292  -37.1436   25.8855 H   0  0  0  0  0  0
  -20.9382  -29.8785   21.6885 H   0  0  0  0  0  0
  -26.0125  -38.2802   24.1406 H   0  0  0  0  0  0
  -31.0248  -23.5769   20.6447 H   0  0  0  0  0  0
  -33.2312  -22.6024   20.6861 H   0  0  0  0  0  0
  -33.4125  -20.9973   19.9749 H   0  0  0  0  0  0
  -33.2251  -21.1784   21.7223 H   0  0  0  0  0  0
  -27.6737  -18.9999   18.8081 H   0  0  0  0  0  0
  -28.1045  -17.2944   18.8790 H   0  0  0  0  0  0
  -29.2554  -18.4751   18.2600 H   0  0  0  0  0  0
  -27.1391  -18.9909   21.3361 H   0  0  0  0  0  0
  -28.3706  -18.5017   22.4931 H   0  0  0  0  0  0
  -27.5737  -17.3007   21.4750 H   0  0  0  0  0  0
  -28.4685  -24.0620   21.6931 H   0  0  0  0  0  0
  -27.2365  -23.4221   20.6703 H   0  0  0  0  0  0
  -30.6628  -17.5354   21.6301 H   0  0  0  0  0  0
  -30.9740  -17.4740   19.9322 H   0  0  0  0  0  0
  -27.8929  -24.8912   18.8055 H   0  0  0  0  0  0
  -29.4959  -24.9869   19.3741 H   0  0  0  0  0  0
  -28.8236  -15.6520   20.8542 H   0  0  0  0  0  0
  1 25  1  0  0  0
  1 30  2  0  0  0
  1 84  1  0  0  0
  2  3  1  0  0  0
  2 25  1  0  0  0
  2 85  1  0  0  0
  2 86  1  0  0  0
  3  4  1  0  0  0
  3 87  1  0  0  0
  3 88  1  0  0  0
  4  5  1  0  0  0
  4 89  1  0  0  0
  4 90  1  0  0  0
  5  6  1  0  0  0
  5 26  1  0  0  0
  5 91  1  0  0  0
  6 25  1  0  0  0
  6 92  1  0  0  0
  6 93  1  0  0  0
  7  8  2  0  0  0
  7 26  1  0  0  0
  7 29  1  0  0  0
  8  9  1  0  0  0
  8 22  1  0  0  0
  9 10  1  0  0  0
  9 27  2  0  0  0
 10 11  2  0  0  0
 10 15  1  0  0  0
 11 12  1  0  0  0
 11 94  1  0  0  0
 12 13  2  0  0  0
 12 95  1  0  0  0
 13 14  1  0  0  0
 13 31  1  0  0  0
 14 15  2  0  0  0
 14 96  1  0  0  0
 15 97  1  0  0  0
 16 17  2  0  0  0
 16 21  1  0  0  0
 16 31  1  0  0  0
 17 18  1  0  0  0
 17 98  1  0  0  0
 18 19  2  0  0  0
 18 99  1  0  0  0
 19 20  1  0  0  0
 19 24  1  0  0  0
 20 21  2  0  0  0
 20100  1  0  0  0
 21 23  1  0  0  0
 22 28  1  0  0  0
 22 32  2  0  0  0
 26 27  1  0  0  0
 28101  1  0  0  0
 28102  1  0  0  0
 29103  1  0  0  0
 29104  1  0  0  0
 33 34  1  0  0  0
 33 66  1  0  0  0
 33 70  2  0  0  0
 34 36  1  0  0  0
 34 59  1  0  0  0
 34105  1  0  0  0
 35 44  2  0  0  0
 35 45  1  0  0  0
 35 68  1  0  0  0
 36 56  1  0  0  0
 36106  1  0  0  0
 37 39  1  0  0  0
 37 47  1  0  0  0
 37 66  1  0  0  0
 37107  1  0  0  0
 38 43  2  0  0  0
 38 46  1  0  0  0
 38 47  1  0  0  0
 39 64  1  0  0  0
 39 67  2  0  0  0
 40 52  1  0  0  0
 40 53  2  0  0  0
 40 58  1  0  0  0
 41108  1  0  0  0
 41109  1  0  0  0
 41110  1  0  0  0
 41 48  1  0  0  0
 42 43  1  0  0  0
 42 66  1  0  0  0
 42111  1  0  0  0
 42112  1  0  0  0
 43 44  1  0  0  0
 44113  1  0  0  0
 45 46  2  0  0  0
 45114  1  0  0  0
 46115  1  0  0  0
 47116  1  0  0  0
 47117  1  0  0  0
 48 56  1  0  0  0
 48 65  1  0  0  0
 48118  1  0  0  0
 49 50  1  0  0  0
 49 53  1  0  0  0
 49 64  1  0  0  0
 49119  1  0  0  0
 50 51  1  0  0  0
 50120  1  0  0  0
 50121  1  0  0  0
 51 52  1  0  0  0
 51122  1  0  0  0
 51123  1  0  0  0
 52124  1  0  0  0
 52125  1  0  0  0
 53 54  1  0  0  0
 54 55  2  0  0  0
 54126  1  0  0  0
 55 57  1  0  0  0
 55127  1  0  0  0
 56 69  2  0  0  0
 57 58  2  0  0  0
 57128  1  0  0  0
 58129  1  0  0  0
 59 60  1  0  0  0
 59 61  1  0  0  0
 59 62  1  0  0  0
 60130  1  0  0  0
 60131  1  0  0  0
 60132  1  0  0  0
 61133  1  0  0  0
 61134  1  0  0  0
 61135  1  0  0  0
 62136  1  0  0  0
 62137  1  0  0  0
 62138  1  0  0  0
 63 65  1  0  0  0
 63139  1  0  0  0
 63140  1  0  0  0
 63141  1  0  0  0
 64142  1  0  0  0
 65143  1  0  0  0
 68 80  1  0  0  0
 71 72  2  0  0  0
 71 73  1  0  0  0
 71144  1  0  0  0
 72 75  1  0  0  0
 72 82  1  0  0  0
 73 78  1  0  0  0
 73 83  2  0  0  0
 74 81  1  0  0  0
 74 82  2  0  0  0
 74 83  1  0  0  0
 75145  1  0  0  0
 75146  1  0  0  0
 75147  1  0  0  0
 76148  1  0  0  0
 76149  1  0  0  0
 76150  1  0  0  0
 76 81  1  0  0  0
 77 81  1  0  0  0
 77151  1  0  0  0
 77152  1  0  0  0
 77153  1  0  0  0
 78 80  1  0  0  0
 78154  1  0  0  0
 78155  1  0  0  0
 79 81  1  0  0  0
 79 84  1  0  0  0
 79156  1  0  0  0
 79157  1  0  0  0
 80158  1  0  0  0
 80159  1  0  0  0
 84160  1  0  0  0
M  ISO  4   1 100  68 101  80 101  84 100
M  END
> <chiral flag>
0

> <version>
0

> <s_m_source_file>
/data/baiqing/PycharmProjects/Reinvent-master-3.2/result/LINK_invent/BTK/process_docking_weight1_custom_sum_contain_oxygen_bond_distance_aromatic_linkinvent_7_9_3/rearranged_h_0053.sdf

> <i_m_source_file_index>
13

> <r_mmod_Potential_Energy-OPLS-2005>
-273.338409423828

> <r_mmod_Stretch_Energy-OPLS-2005>
126.729957580566

> <r_mmod_Bend_Energy-OPLS-2005>
187.48551940918

> <r_mmod_Torsional_Energy-OPLS-2005>
205.424240112305

> <r_mmod_Improper_Torsional_Energy-OPLS-2005>
5.60832595825195

> <r_mmod_Van_der_Waal_Energy-OPLS-2005>
136.740951538086

> <r_mmod_Electrostatic_Energy-OPLS-2005>
-784.327087402344

> <r_mmod_Solvation_Energy-OPLS-2005>
-230.341903686523

> <b_mmod_Minimization_Converged-OPLS-2005>
0

> <r_mmod_RMS_Derivative-OPLS-2005>
2.6084942817688

$$$$
13
                    3D
 Structure written by MMmdl.
153162  0  0  1  0            999 V2000
  -30.6263  -14.7479   20.5109 C   0  0  0  0  0  0
  -30.4509  -12.4664   19.4857 C   0  0  0  0  0  0
  -29.5302  -12.4922   18.2419 C   0  0  0  0  0  0
  -28.0532  -12.3078   18.6456 C   0  0  0  0  0  0
  -27.6476  -13.2173   19.8341 C   0  0  2  0  0  0
  -28.6821  -13.1110   20.9692 C   0  0  0  0  0  0
  -25.2564  -13.8162   20.5622 C   0  0  0  0  0  0
  -24.1833  -13.0446   20.9168 C   0  0  0  0  0  0
  -24.6386  -11.6909   20.8709 C   0  0  0  0  0  0
  -23.9058  -10.4307   21.0406 C   0  0  0  0  0  0
  -24.3593   -9.4223   21.9195 C   0  0  0  0  0  0
  -23.6253   -8.2268   22.0775 C   0  0  0  0  0  0
  -22.4247   -8.0294   21.3557 C   0  0  0  0  0  0
  -21.9882   -9.0278   20.4669 C   0  0  0  0  0  0
  -22.7224  -10.2151   20.3068 C   0  0  0  0  0  0
  -21.6855   -6.0715   22.5272 C   0  0  0  0  0  0
  -21.4014   -6.5620   23.8201 C   0  0  0  0  0  0
  -21.3652   -5.6780   24.9166 C   0  0  0  0  0  0
  -21.6042   -4.3040   24.7226 C   0  0  0  0  0  0
  -21.8820   -3.8126   23.4348 C   0  0  0  0  0  0
  -21.9193   -4.6941   22.3399 C   0  0  0  0  0  0
  -22.7856  -13.5268   21.1834 C   0  0  0  0  0  0
  -22.1652   -4.2129   21.0979 F   0  0  0  0  0  0
  -21.5639   -3.4521   25.7737 F   0  0  0  0  0  0
  -29.9935  -13.5160   20.4335 N   0  0  0  0  0  0
  -26.2957  -12.9342   20.3114 N   0  0  0  0  0  0
  -25.9296  -11.6500   20.5606 N   0  0  0  0  0  0
  -22.0456  -12.8330   22.0396 N   0  0  0  0  0  0
  -25.4303  -15.1886   20.4084 N   0  0  0  0  0  0
  -31.7711  -14.8492   20.0532 O   0  0  0  0  0  0
  -21.6642   -6.8866   21.4236 O   0  0  0  0  0  0
  -22.3546  -14.5556   20.6632 O   0  0  0  0  0  0
  -24.6312  -31.8582   23.2078 C   0  0  0  0  0  0
  -25.9142  -32.4782   23.8424 C   0  0  1  0  0  0
  -27.2116  -27.2413   20.1062 C   0  0  0  0  0  0
  -25.5908  -33.8579   24.2291 N   0  0  0  0  0  0
  -23.4290  -30.4856   21.5509 C   0  0  2  0  0  0
  -24.8815  -28.9535   20.1056 C   0  0  0  0  0  0
  -22.7502  -29.4621   22.4929 C   0  0  0  0  0  0
  -18.0294  -28.1352   22.8465 C   0  0  0  0  0  0
  -24.1470  -36.7291   23.2644 C   0  0  0  0  0  0
  -25.9853  -30.7534   21.4129 C   0  0  0  0  0  0
  -26.0553  -29.3824   20.7391 C   0  0  0  0  0  0
  -27.2178  -28.5324   20.7521 C   0  0  0  0  0  0
  -26.0298  -26.9483   19.3780 C   0  0  0  0  0  0
  -24.8766  -27.7429   19.4158 C   0  0  0  0  0  0
  -23.6471  -29.8335   20.1635 C   0  0  0  0  0  0
  -25.4106  -36.3094   24.0321 C   0  0  1  0  0  0
  -20.5893  -28.3677   23.1214 C   0  0  2  0  0  0
  -20.6767  -26.9384   22.5363 C   0  0  0  0  0  0
  -19.5750  -26.6362   21.5162 C   0  0  0  0  0  0
  -18.1935  -26.7899   22.1593 C   0  0  0  0  0  0
  -19.1550  -28.8831   23.2837 C   0  0  0  0  0  0
  -18.9483  -30.1428   23.8854 C   0  0  0  0  0  0
  -17.6484  -30.6563   24.0541 C   0  0  0  0  0  0
  -25.9045  -34.9450   23.5123 C   0  0  0  0  0  0
  -16.5363  -29.9049   23.6337 C   0  0  0  0  0  0
  -16.7293  -28.6462   23.0375 C   0  0  0  0  0  0
  -26.4485  -31.6633   25.0841 C   0  0  0  0  0  0
  -25.3656  -31.3786   26.1523 C   0  0  0  0  0  0
  -27.0382  -30.3022   24.6451 C   0  0  0  0  0  0
  -27.6017  -32.4430   25.7598 C   0  0  0  0  0  0
  -27.5575  -37.1787   24.8449 C   0  0  0  0  0  0
  -21.4221  -29.3042   22.3624 N   0  0  0  0  0  0
  -26.4284  -37.3783   23.9401 N   0  0  0  0  0  0
  -24.7000  -31.0489   22.1108 N   0  0  0  0  0  0
  -23.4183  -28.8129   23.3031 O   0  0  0  0  0  0
  -28.2373  -26.2435   20.2078 O   0  0  0  0  0  0
  -26.5642  -34.8924   22.4708 O   0  0  0  0  0  0
  -23.5442  -32.1463   23.7309 O   0  0  0  0  0  0
  -27.3610  -22.3420   20.1552 C   0  0  0  0  0  0
  -29.2366  -16.0829   22.2332 C   0  0  0  0  0  0
  -29.5023  -22.5961   20.2185 C   0  0  0  0  0  0
  -28.3478  -23.3828   20.0989 C   0  0  0  0  0  0
  -29.9486  -16.0772   21.0124 C   0  0  0  0  0  0
  -28.8589  -18.3857   22.1471 C   0  0  0  0  0  0
  -29.6136  -18.5095   20.9428 C   0  0  0  0  0  0
  -28.2228  -19.5459   22.8959 C   0  0  0  0  0  0
  -27.8531  -24.8605   19.7171 C   0  0  0  0  0  0
  -30.0331  -19.9313   20.3146 C   0  0  0  0  0  0
  -28.6811  -17.1940   22.7686 N   0  0  0  0  0  0
  -27.8285  -21.0981   20.2444 N   0  0  0  0  0  0
  -30.1416  -17.3269   20.3964 N   0  0  0  0  0  0
  -29.1722  -21.2012   20.3328 N   0  0  0  0  0  0
  -31.4882  -12.6053   19.1760 H   0  0  0  0  0  0
  -30.4232  -11.4845   19.9616 H   0  0  0  0  0  0
  -29.8238  -11.6989   17.5539 H   0  0  0  0  0  0
  -29.6589  -13.4280   17.6967 H   0  0  0  0  0  0
  -27.9299  -11.2634   18.9322 H   0  0  0  0  0  0
  -27.3970  -12.4618   17.7891 H   0  0  0  0  0  0
  -27.6569  -14.2426   19.4626 H   0  0  0  0  0  0
  -28.7323  -12.0858   21.3370 H   0  0  0  0  0  0
  -28.3441  -13.6887   21.8161 H   0  0  0  0  0  0
  -25.2740   -9.5692   22.4776 H   0  0  0  0  0  0
  -23.9948   -7.4666   22.7506 H   0  0  0  0  0  0
  -21.0817   -8.8807   19.8979 H   0  0  0  0  0  0
  -22.3685  -10.9686   19.6170 H   0  0  0  0  0  0
  -21.1997   -7.6124   23.9700 H   0  0  0  0  0  0
  -21.1468   -6.0505   25.9073 H   0  0  0  0  0  0
  -22.0599   -2.7585   23.2866 H   0  0  0  0  0  0
  -22.3998  -12.0019   22.4908 H   0  0  0  0  0  0
  -21.1047  -13.1391   22.2473 H   0  0  0  0  0  0
  -24.6730  -15.8472   20.5552 H   0  0  0  0  0  0
  -26.2900  -15.6369   20.1174 H   0  0  0  0  0  0
  -26.7228  -32.5420   23.1180 H   0  0  0  0  0  0
  -24.9938  -33.9706   25.0359 H   0  0  0  0  0  0
  -22.7296  -31.3123   21.4101 H   0  0  0  0  0  0
  -23.3738  -35.9604   23.3300 H   0  0  0  0  0  0
  -24.3544  -36.8949   22.2052 H   0  0  0  0  0  0
  -23.7215  -37.6479   23.6705 H   0  0  0  0  0  0
  -26.1513  -31.5228   20.6582 H   0  0  0  0  0  0
  -26.8498  -30.7835   22.0631 H   0  0  0  0  0  0
  -28.0986  -28.8377   21.3026 H   0  0  0  0  0  0
  -25.9297  -26.0698   18.7621 H   0  0  0  0  0  0
  -23.9921  -27.4220   18.8840 H   0  0  0  0  0  0
  -23.7597  -30.6156   19.4114 H   0  0  0  0  0  0
  -22.7676  -29.2613   19.8661 H   0  0  0  0  0  0
  -25.1280  -36.1956   25.0802 H   0  0  0  0  0  0
  -20.9989  -28.3284   24.1340 H   0  0  0  0  0  0
  -20.5605  -26.2307   23.3589 H   0  0  0  0  0  0
  -21.6643  -26.7387   22.1182 H   0  0  0  0  0  0
  -19.6907  -25.6280   21.1201 H   0  0  0  0  0  0
  -19.6676  -27.3149   20.6668 H   0  0  0  0  0  0
  -17.4188  -26.6624   21.4014 H   0  0  0  0  0  0
  -18.0371  -26.0031   22.8978 H   0  0  0  0  0  0
  -19.7974  -30.7226   24.2217 H   0  0  0  0  0  0
  -17.5068  -31.6248   24.5138 H   0  0  0  0  0  0
  -15.5374  -30.2937   23.7717 H   0  0  0  0  0  0
  -15.8690  -28.0768   22.7141 H   0  0  0  0  0  0
  -24.5805  -30.7194   25.7812 H   0  0  0  0  0  0
  -24.8846  -32.2939   26.4974 H   0  0  0  0  0  0
  -25.7881  -30.8912   27.0316 H   0  0  0  0  0  0
  -26.3049  -29.6718   24.1385 H   0  0  0  0  0  0
  -27.3908  -29.7349   25.5080 H   0  0  0  0  0  0
  -27.9006  -30.4268   23.9884 H   0  0  0  0  0  0
  -27.2621  -33.3747   26.2131 H   0  0  0  0  0  0
  -28.3812  -32.6976   25.0411 H   0  0  0  0  0  0
  -28.0719  -31.8618   26.5534 H   0  0  0  0  0  0
  -28.2565  -38.0115   24.7562 H   0  0  0  0  0  0
  -28.1116  -36.2641   24.6224 H   0  0  0  0  0  0
  -27.2288  -37.1386   25.8854 H   0  0  0  0  0  0
  -20.9417  -29.8823   21.6858 H   0  0  0  0  0  0
  -26.0164  -38.2856   24.1436 H   0  0  0  0  0  0
  -26.2888  -22.4532   20.0428 H   0  0  0  0  0  0
  -29.1472  -15.2014   22.8462 H   0  0  0  0  0  0
  -30.5401  -22.8988   20.1523 H   0  0  0  0  0  0
  -27.2688  -19.8161   22.4389 H   0  0  0  0  0  0
  -28.8652  -20.4253   22.9291 H   0  0  0  0  0  0
  -28.0024  -19.2615   23.9257 H   0  0  0  0  0  0
  -26.8255  -24.7730   20.0619 H   0  0  0  0  0  0
  -27.8149  -24.9299   18.6281 H   0  0  0  0  0  0
  -30.2744  -19.7504   19.2658 H   0  0  0  0  0  0
  -30.9882  -20.1921   20.7748 H   0  0  0  0  0  0
  1 25  1  0  0  0
  1 30  2  0  0  0
  1 75  1  0  0  0
  2  3  1  0  0  0
  2 25  1  0  0  0
  2 85  1  0  0  0
  2 86  1  0  0  0
  3  4  1  0  0  0
  3 87  1  0  0  0
  3 88  1  0  0  0
  4  5  1  0  0  0
  4 89  1  0  0  0
  4 90  1  0  0  0
  5  6  1  0  0  0
  5 26  1  0  0  0
  5 91  1  0  0  0
  6 25  1  0  0  0
  6 92  1  0  0  0
  6 93  1  0  0  0
  7  8  2  0  0  0
  7 26  1  0  0  0
  7 29  1  0  0  0
  8  9  1  0  0  0
  8 22  1  0  0  0
  9 10  1  0  0  0
  9 27  2  0  0  0
 10 11  2  0  0  0
 10 15  1  0  0  0
 11 12  1  0  0  0
 11 94  1  0  0  0
 12 13  2  0  0  0
 12 95  1  0  0  0
 13 14  1  0  0  0
 13 31  1  0  0  0
 14 15  2  0  0  0
 14 96  1  0  0  0
 15 97  1  0  0  0
 16 17  2  0  0  0
 16 21  1  0  0  0
 16 31  1  0  0  0
 17 18  1  0  0  0
 17 98  1  0  0  0
 18 19  2  0  0  0
 18 99  1  0  0  0
 19 20  1  0  0  0
 19 24  1  0  0  0
 20 21  2  0  0  0
 20100  1  0  0  0
 21 23  1  0  0  0
 22 28  1  0  0  0
 22 32  2  0  0  0
 26 27  1  0  0  0
 28101  1  0  0  0
 28102  1  0  0  0
 29103  1  0  0  0
 29104  1  0  0  0
 33 34  1  0  0  0
 33 66  1  0  0  0
 33 70  2  0  0  0
 34 36  1  0  0  0
 34 59  1  0  0  0
 34105  1  0  0  0
 35 44  2  0  0  0
 35 45  1  0  0  0
 35 68  1  0  0  0
 36 56  1  0  0  0
 36106  1  0  0  0
 37 39  1  0  0  0
 37 47  1  0  0  0
 37 66  1  0  0  0
 37107  1  0  0  0
 38 43  2  0  0  0
 38 46  1  0  0  0
 38 47  1  0  0  0
 39 64  1  0  0  0
 39 67  2  0  0  0
 40 52  1  0  0  0
 40 53  2  0  0  0
 40 58  1  0  0  0
 41108  1  0  0  0
 41109  1  0  0  0
 41110  1  0  0  0
 41 48  1  0  0  0
 42 43  1  0  0  0
 42 66  1  0  0  0
 42111  1  0  0  0
 42112  1  0  0  0
 43 44  1  0  0  0
 44113  1  0  0  0
 45 46  2  0  0  0
 45114  1  0  0  0
 46115  1  0  0  0
 47116  1  0  0  0
 47117  1  0  0  0
 48 56  1  0  0  0
 48 65  1  0  0  0
 48118  1  0  0  0
 49 50  1  0  0  0
 49 53  1  0  0  0
 49 64  1  0  0  0
 49119  1  0  0  0
 50 51  1  0  0  0
 50120  1  0  0  0
 50121  1  0  0  0
 51 52  1  0  0  0
 51122  1  0  0  0
 51123  1  0  0  0
 52124  1  0  0  0
 52125  1  0  0  0
 53 54  1  0  0  0
 54 55  2  0  0  0
 54126  1  0  0  0
 55 57  1  0  0  0
 55127  1  0  0  0
 56 69  2  0  0  0
 57 58  2  0  0  0
 57128  1  0  0  0
 58129  1  0  0  0
 59 60  1  0  0  0
 59 61  1  0  0  0
 59 62  1  0  0  0
 60130  1  0  0  0
 60131  1  0  0  0
 60132  1  0  0  0
 61133  1  0  0  0
 61134  1  0  0  0
 61135  1  0  0  0
 62136  1  0  0  0
 62137  1  0  0  0
 62138  1  0  0  0
 63 65  1  0  0  0
 63139  1  0  0  0
 63140  1  0  0  0
 63141  1  0  0  0
 64142  1  0  0  0
 65143  1  0  0  0
 68 79  1  0  0  0
 71 74  1  0  0  0
 71 82  2  0  0  0
 71144  1  0  0  0
 72 75  2  0  0  0
 72 81  1  0  0  0
 72145  1  0  0  0
 73 74  2  0  0  0
 73 84  1  0  0  0
 73146  1  0  0  0
 74 79  1  0  0  0
 75 83  1  0  0  0
 76 77  1  0  0  0
 76 78  1  0  0  0
 76 81  2  0  0  0
 77 80  1  0  0  0
 77 83  2  0  0  0
 78147  1  0  0  0
 78148  1  0  0  0
 78149  1  0  0  0
 79150  1  0  0  0
 79151  1  0  0  0
 80 84  1  0  0  0
 80152  1  0  0  0
 80153  1  0  0  0
 82 84  1  0  0  0
M  ISO  4   1 100  68 101  75 100  79 101
M  END
> <chiral flag>
0

> <version>
0

> <s_m_source_file>
/data/baiqing/PycharmProjects/Reinvent-master-3.2/result/LINK_invent/BTK/process_docking_weight1_custom_sum_contain_oxygen_bond_distance_aromatic_linkinvent_7_9_3/rearranged_h_0053.sdf

> <i_m_source_file_index>
14

> <r_mmod_Potential_Energy-OPLS-2005>
480.679809570312

> <r_mmod_Stretch_Energy-OPLS-2005>
147.617050170898

> <r_mmod_Bend_Energy-OPLS-2005>
247.551345825195

> <r_mmod_Torsional_Energy-OPLS-2005>
209.004104614258

> <r_mmod_Improper_Torsional_Energy-OPLS-2005>
7.41547822952271

> <r_mmod_Van_der_Waal_Energy-OPLS-2005>
161.814590454102

> <r_mmod_Electrostatic_Energy-OPLS-2005>
-168.889038085938

> <r_mmod_Solvation_Energy-OPLS-2005>
-225.669464111328

> <b_mmod_Minimization_Converged-OPLS-2005>
0

> <r_mmod_RMS_Derivative-OPLS-2005>
4.01100063323975

$$$$
14
                    3D
 Structure written by MMmdl.
148156  0  0  1  0            999 V2000
  -30.3904  -15.3717   20.3574 C   0  0  0  0  0  0
  -30.4368  -12.8889   19.5136 C   0  0  0  0  0  0
  -29.5370  -12.5934   18.2859 C   0  0  0  0  0  0
  -28.0922  -12.2946   18.7229 C   0  0  0  0  0  0
  -27.6041  -13.2806   19.8123 C   0  0  2  0  0  0
  -28.6380  -13.5010   20.9364 C   0  0  0  0  0  0
  -25.2369  -13.8251   20.5761 C   0  0  0  0  0  0
  -24.1731  -13.0427   20.9273 C   0  0  0  0  0  0
  -24.6394  -11.6928   20.8758 C   0  0  0  0  0  0
  -23.9091  -10.4286   21.0398 C   0  0  0  0  0  0
  -24.3637   -9.4202   21.9175 C   0  0  0  0  0  0
  -23.6306   -8.2240   22.0747 C   0  0  0  0  0  0
  -22.4284   -8.0280   21.3542 C   0  0  0  0  0  0
  -21.9925   -9.0253   20.4642 C   0  0  0  0  0  0
  -22.7259  -10.2128   20.3049 C   0  0  0  0  0  0
  -21.6864   -6.0732   22.5275 C   0  0  0  0  0  0
  -21.4019   -6.5636   23.8208 C   0  0  0  0  0  0
  -21.3665   -5.6790   24.9173 C   0  0  0  0  0  0
  -21.6050   -4.3052   24.7223 C   0  0  0  0  0  0
  -21.8820   -3.8140   23.4343 C   0  0  0  0  0  0
  -21.9192   -4.6958   22.3399 C   0  0  0  0  0  0
  -22.7749  -13.5179   21.1915 C   0  0  0  0  0  0
  -22.1663   -4.2142   21.0975 F   0  0  0  0  0  0
  -21.5631   -3.4537   25.7736 F   0  0  0  0  0  0
  -29.8446  -14.0473   20.2882 N   0  0  0  0  0  0
  -26.2790  -12.9531   20.3196 N   0  0  0  0  0  0
  -25.9332  -11.6632   20.5701 N   0  0  0  0  0  0
  -22.0410  -12.8158   22.0470 N   0  0  0  0  0  0
  -25.3988  -15.1987   20.4199 N   0  0  0  0  0  0
  -31.6253  -15.3564   20.2303 O   0  0  0  0  0  0
  -21.6649   -6.8876   21.4237 O   0  0  0  0  0  0
  -22.3420  -14.5471   20.6744 O   0  0  0  0  0  0
  -24.6704  -31.8167   23.1639 C   0  0  0  0  0  0
  -25.9351  -32.4555   23.8134 C   0  0  1  0  0  0
  -27.2187  -26.8550   20.1975 C   0  0  0  0  0  0
  -25.5986  -33.8371   24.2034 N   0  0  0  0  0  0
  -23.4884  -30.4253   21.5149 C   0  0  2  0  0  0
  -24.9415  -28.7939   20.1217 C   0  0  0  0  0  0
  -22.7702  -29.4406   22.4756 C   0  0  0  0  0  0
  -18.0331  -28.1413   22.8461 C   0  0  0  0  0  0
  -24.1500  -36.7199   23.2650 C   0  0  0  0  0  0
  -26.0624  -30.5995   21.4047 C   0  0  0  0  0  0
  -26.1299  -29.1796   20.7550 C   0  0  0  0  0  0
  -27.2644  -28.2357   20.7603 C   0  0  0  0  0  0
  -25.9965  -26.6371   19.5217 C   0  0  0  0  0  0
  -24.9035  -27.5435   19.4847 C   0  0  0  0  0  0
  -23.7343  -29.7337   20.1455 C   0  0  0  0  0  0
  -25.4143  -36.2946   24.0292 C   0  0  1  0  0  0
  -20.5962  -28.3767   23.1171 C   0  0  2  0  0  0
  -20.6803  -26.9440   22.5400 C   0  0  0  0  0  0
  -19.5774  -26.6371   21.5216 C   0  0  0  0  0  0
  -18.1958  -26.7942   22.1624 C   0  0  0  0  0  0
  -19.1595  -28.8911   23.2799 C   0  0  0  0  0  0
  -18.9500  -30.1495   23.8842 C   0  0  0  0  0  0
  -17.6492  -30.6596   24.0554 C   0  0  0  0  0  0
  -25.9108  -34.9331   23.4986 C   0  0  0  0  0  0
  -16.5383  -29.9082   23.6342 C   0  0  0  0  0  0
  -16.7313  -28.6508   23.0356 C   0  0  0  0  0  0
  -26.4567  -31.6528   25.0696 C   0  0  0  0  0  0
  -25.3667  -31.3803   26.1335 C   0  0  0  0  0  0
  -27.0477  -30.2887   24.6482 C   0  0  0  0  0  0
  -27.6043  -32.4354   25.7507 C   0  0  0  0  0  0
  -27.5563  -37.1770   24.8472 C   0  0  0  0  0  0
  -21.4366  -29.3049   22.3514 N   0  0  0  0  0  0
  -26.4287  -37.3684   23.9390 N   0  0  0  0  0  0
  -24.7625  -30.9763   22.0810 N   0  0  0  0  0  0
  -23.4222  -28.7977   23.3019 O   0  0  0  0  0  0
  -28.2172  -25.7211   20.1851 O   0  0  0  0  0  0
  -26.5721  -34.8876   22.4585 O   0  0  0  0  0  0
  -23.5756  -32.1166   23.6688 O   0  0  0  0  0  0
  -29.1741  -19.9949   18.6065 C   0  0  0  0  0  0
  -29.2079  -19.8871   20.0138 C   0  0  0  0  0  0
  -28.6650  -22.3419   18.5422 C   0  0  0  0  0  0
  -28.6138  -22.5222   19.9500 C   0  0  0  0  0  0
  -28.3668  -23.4959   17.6028 C   0  0  0  0  0  0
  -29.7812  -18.3330   20.6772 C   0  0  0  0  0  0
  -27.9864  -24.0899   20.5404 C   0  0  0  0  0  0
  -28.9276  -21.1511   17.9193 N   0  0  0  0  0  0
  -28.9034  -21.2185   20.6423 N   0  0  0  0  0  0
  -29.6100  -16.6606   20.3753 N   0  0  0  0  0  0
  -31.4462  -13.1184   19.1700 H   0  0  0  0  0  0
  -30.5372  -12.0035   20.1439 H   0  0  0  0  0  0
  -29.9380  -11.7581   17.7103 H   0  0  0  0  0  0
  -29.5433  -13.4574   17.6193 H   0  0  0  0  0  0
  -28.0713  -11.2779   19.1173 H   0  0  0  0  0  0
  -27.4205  -12.3049   17.8639 H   0  0  0  0  0  0
  -27.5012  -14.2340   19.2922 H   0  0  0  0  0  0
  -28.8403  -12.5796   21.4849 H   0  0  0  0  0  0
  -28.2596  -14.2201   21.6644 H   0  0  0  0  0  0
  -25.2784   -9.5682   22.4748 H   0  0  0  0  0  0
  -24.0022   -7.4634   22.7467 H   0  0  0  0  0  0
  -21.0855   -8.8769   19.8948 H   0  0  0  0  0  0
  -22.3715  -10.9665   19.6157 H   0  0  0  0  0  0
  -21.2012   -7.6143   23.9711 H   0  0  0  0  0  0
  -21.1494   -6.0518   25.9077 H   0  0  0  0  0  0
  -22.0594   -2.7601   23.2843 H   0  0  0  0  0  0
  -22.4066  -11.9848   22.4878 H   0  0  0  0  0  0
  -21.1008  -13.1141   22.2654 H   0  0  0  0  0  0
  -24.6257  -15.8452   20.5365 H   0  0  0  0  0  0
  -26.2335  -15.6428   20.0609 H   0  0  0  0  0  0
  -26.7427  -32.5068   23.0847 H   0  0  0  0  0  0
  -25.0079  -33.9437   25.0150 H   0  0  0  0  0  0
  -22.8065  -31.2590   21.3361 H   0  0  0  0  0  0
  -23.3756  -35.9538   23.3310 H   0  0  0  0  0  0
  -24.3565  -36.8851   22.2065 H   0  0  0  0  0  0
  -23.7276  -37.6393   23.6715 H   0  0  0  0  0  0
  -26.2486  -31.3334   20.6197 H   0  0  0  0  0  0
  -26.9209  -30.6629   22.0616 H   0  0  0  0  0  0
  -28.1688  -28.5365   21.2703 H   0  0  0  0  0  0
  -25.8606  -25.6878   19.0236 H   0  0  0  0  0  0
  -24.0034  -27.2402   18.9678 H   0  0  0  0  0  0
  -23.9034  -30.4981   19.3861 H   0  0  0  0  0  0
  -22.8418  -29.1951   19.8221 H   0  0  0  0  0  0
  -25.1354  -36.1734   25.0785 H   0  0  0  0  0  0
  -21.0050  -28.3374   24.1297 H   0  0  0  0  0  0
  -20.5680  -26.2387   23.3648 H   0  0  0  0  0  0
  -21.6664  -26.7400   22.1210 H   0  0  0  0  0  0
  -19.6931  -25.6265   21.1285 H   0  0  0  0  0  0
  -19.6709  -27.3150   20.6723 H   0  0  0  0  0  0
  -17.4226  -26.6682   21.4031 H   0  0  0  0  0  0
  -18.0353  -26.0101   22.9040 H   0  0  0  0  0  0
  -19.7975  -30.7325   24.2190 H   0  0  0  0  0  0
  -17.5042  -31.6272   24.5165 H   0  0  0  0  0  0
  -15.5381  -30.2966   23.7695 H   0  0  0  0  0  0
  -15.8716  -28.0808   22.7099 H   0  0  0  0  0  0
  -24.5864  -30.7144   25.7632 H   0  0  0  0  0  0
  -24.8845  -32.3016   26.4613 H   0  0  0  0  0  0
  -25.7877  -30.9055   27.0209 H   0  0  0  0  0  0
  -26.3163  -29.6538   24.1477 H   0  0  0  0  0  0
  -27.3967  -29.7283   25.5166 H   0  0  0  0  0  0
  -27.9117  -30.4047   23.9939 H   0  0  0  0  0  0
  -27.2597  -33.3696   26.1948 H   0  0  0  0  0  0
  -28.3928  -32.6850   25.0399 H   0  0  0  0  0  0
  -28.0631  -31.8576   26.5538 H   0  0  0  0  0  0
  -28.2591  -38.0050   24.7457 H   0  0  0  0  0  0
  -28.1042  -36.2573   24.6382 H   0  0  0  0  0  0
  -27.2264  -37.1513   25.8870 H   0  0  0  0  0  0
  -20.9636  -29.8751   21.6645 H   0  0  0  0  0  0
  -26.0128  -38.2747   24.1355 H   0  0  0  0  0  0
  -29.4014  -19.1296   18.0005 H   0  0  0  0  0  0
  -28.5861  -23.2382   16.5660 H   0  0  0  0  0  0
  -28.9699  -24.3670   17.8607 H   0  0  0  0  0  0
  -27.3147  -23.7743   17.6624 H   0  0  0  0  0  0
  -29.5199  -18.4155   21.7316 H   0  0  0  0  0  0
  -30.8633  -18.4648   20.6719 H   0  0  0  0  0  0
  -26.9088  -23.9614   20.4411 H   0  0  0  0  0  0
  -28.1522  -24.0385   21.6158 H   0  0  0  0  0  0
  -28.6277  -16.4366   20.3195 H   0  0  0  0  0  0
  1 25  1  0  0  0
  1 30  2  0  0  0
  1 80  1  0  0  0
  2  3  1  0  0  0
  2 25  1  0  0  0
  2 81  1  0  0  0
  2 82  1  0  0  0
  3  4  1  0  0  0
  3 83  1  0  0  0
  3 84  1  0  0  0
  4  5  1  0  0  0
  4 85  1  0  0  0
  4 86  1  0  0  0
  5  6  1  0  0  0
  5 26  1  0  0  0
  5 87  1  0  0  0
  6 25  1  0  0  0
  6 88  1  0  0  0
  6 89  1  0  0  0
  7  8  2  0  0  0
  7 26  1  0  0  0
  7 29  1  0  0  0
  8  9  1  0  0  0
  8 22  1  0  0  0
  9 10  1  0  0  0
  9 27  2  0  0  0
 10 11  2  0  0  0
 10 15  1  0  0  0
 11 12  1  0  0  0
 11 90  1  0  0  0
 12 13  2  0  0  0
 12 91  1  0  0  0
 13 14  1  0  0  0
 13 31  1  0  0  0
 14 15  2  0  0  0
 14 92  1  0  0  0
 15 93  1  0  0  0
 16 17  2  0  0  0
 16 21  1  0  0  0
 16 31  1  0  0  0
 17 18  1  0  0  0
 17 94  1  0  0  0
 18 19  2  0  0  0
 18 95  1  0  0  0
 19 20  1  0  0  0
 19 24  1  0  0  0
 20 21  2  0  0  0
 20 96  1  0  0  0
 21 23  1  0  0  0
 22 28  1  0  0  0
 22 32  2  0  0  0
 26 27  1  0  0  0
 28 97  1  0  0  0
 28 98  1  0  0  0
 29 99  1  0  0  0
 29100  1  0  0  0
 33 34  1  0  0  0
 33 66  1  0  0  0
 33 70  2  0  0  0
 34 36  1  0  0  0
 34 59  1  0  0  0
 34101  1  0  0  0
 35 44  2  0  0  0
 35 45  1  0  0  0
 35 68  1  0  0  0
 36 56  1  0  0  0
 36102  1  0  0  0
 37 39  1  0  0  0
 37 47  1  0  0  0
 37 66  1  0  0  0
 37103  1  0  0  0
 38 43  2  0  0  0
 38 46  1  0  0  0
 38 47  1  0  0  0
 39 64  1  0  0  0
 39 67  2  0  0  0
 40 52  1  0  0  0
 40 53  2  0  0  0
 40 58  1  0  0  0
 41104  1  0  0  0
 41105  1  0  0  0
 41106  1  0  0  0
 41 48  1  0  0  0
 42 43  1  0  0  0
 42 66  1  0  0  0
 42107  1  0  0  0
 42108  1  0  0  0
 43 44  1  0  0  0
 44109  1  0  0  0
 45 46  2  0  0  0
 45110  1  0  0  0
 46111  1  0  0  0
 47112  1  0  0  0
 47113  1  0  0  0
 48 56  1  0  0  0
 48 65  1  0  0  0
 48114  1  0  0  0
 49 50  1  0  0  0
 49 53  1  0  0  0
 49 64  1  0  0  0
 49115  1  0  0  0
 50 51  1  0  0  0
 50116  1  0  0  0
 50117  1  0  0  0
 51 52  1  0  0  0
 51118  1  0  0  0
 51119  1  0  0  0
 52120  1  0  0  0
 52121  1  0  0  0
 53 54  1  0  0  0
 54 55  2  0  0  0
 54122  1  0  0  0
 55 57  1  0  0  0
 55123  1  0  0  0
 56 69  2  0  0  0
 57 58  2  0  0  0
 57124  1  0  0  0
 58125  1  0  0  0
 59 60  1  0  0  0
 59 61  1  0  0  0
 59 62  1  0  0  0
 60126  1  0  0  0
 60127  1  0  0  0
 60128  1  0  0  0
 61129  1  0  0  0
 61130  1  0  0  0
 61131  1  0  0  0
 62132  1  0  0  0
 62133  1  0  0  0
 62134  1  0  0  0
 63 65  1  0  0  0
 63135  1  0  0  0
 63136  1  0  0  0
 63137  1  0  0  0
 64138  1  0  0  0
 65139  1  0  0  0
 68 77  1  0  0  0
 71 72  2  0  0  0
 71 78  1  0  0  0
 71140  1  0  0  0
 72 76  1  0  0  0
 72 79  1  0  0  0
 73 74  1  0  0  0
 73 75  1  0  0  0
 73 78  2  0  0  0
 74 77  1  0  0  0
 74 79  2  0  0  0
 75141  1  0  0  0
 75142  1  0  0  0
 75143  1  0  0  0
 76 80  1  0  0  0
 76144  1  0  0  0
 76145  1  0  0  0
 77146  1  0  0  0
 77147  1  0  0  0
 80148  1  0  0  0
M  ISO  4   1 100  68 101  77 101  80 100
M  END
> <chiral flag>
0

> <version>
0

> <s_m_source_file>
/data/baiqing/PycharmProjects/Reinvent-master-3.2/result/LINK_invent/BTK/process_docking_weight1_custom_sum_contain_oxygen_bond_distance_aromatic_linkinvent_7_9_3/rearranged_h_0053.sdf

> <i_m_source_file_index>
15

> <r_mmod_Potential_Energy-OPLS-2005>
1574.40356445312

> <r_mmod_Stretch_Energy-OPLS-2005>
707.493469238281

> <r_mmod_Bend_Energy-OPLS-2005>
492.212982177734

> <r_mmod_Torsional_Energy-OPLS-2005>
232.55290222168

> <r_mmod_Improper_Torsional_Energy-OPLS-2005>
6.39608907699585

> <r_mmod_Van_der_Waal_Energy-OPLS-2005>
121.253120422363

> <r_mmod_Electrostatic_Energy-OPLS-2005>
-320.863861083984

> <r_mmod_Solvation_Energy-OPLS-2005>
-238.326400756836

> <b_mmod_Minimization_Converged-OPLS-2005>
0

> <r_mmod_RMS_Derivative-OPLS-2005>
0.958515405654907

$$$$
15
                    3D
 Structure written by MMmdl.
156164  0  0  1  0            999 V2000
  -29.6516  -14.4152   20.9354 C   0  0  0  0  0  0
  -30.6462  -12.5986   19.3321 C   0  0  0  0  0  0
  -29.7867  -12.5050   17.9984 C   0  0  0  0  0  0
  -28.2562  -12.2795   18.1503 C   0  0  0  0  0  0
  -27.9526  -13.1289   19.3110 C   0  0  2  0  0  0
  -28.7465  -12.4138   20.5107 C   0  0  0  0  0  0
  -25.1302  -14.4753   19.8134 C   0  0  0  0  0  0
  -24.2442  -13.7911   21.1440 C   0  0  0  0  0  0
  -24.9093  -12.2704   21.6884 C   0  0  0  0  0  0
  -24.0979  -10.8356   21.4926 C   0  0  0  0  0  0
  -24.4742   -9.6368   22.1830 C   0  0  0  0  0  0
  -23.7518   -8.3946   22.1645 C   0  0  0  0  0  0
  -22.5711   -8.2064   21.4090 C   0  0  0  0  0  0
  -22.2364   -9.2986   20.5704 C   0  0  0  0  0  0
  -22.9800  -10.5398   20.5979 C   0  0  0  0  0  0
  -21.7509   -6.1608   22.5027 C   0  0  0  0  0  0
  -21.4424   -6.6161   23.8069 C   0  0  0  0  0  0
  -21.3731   -5.7143   24.8920 C   0  0  0  0  0  0
  -21.5975   -4.3403   24.6910 C   0  0  0  0  0  0
  -21.8710   -3.8674   23.3962 C   0  0  0  0  0  0
  -21.9360   -4.7659   22.3107 C   0  0  0  0  0  0
  -22.7586  -13.9001   21.2450 C   0  0  0  0  0  0
  -22.1761   -4.2728   21.0721 F   0  0  0  0  0  0
  -21.5510   -3.4781   25.7362 F   0  0  0  0  0  0
  -29.8680  -13.1575   20.4713 N   0  0  0  0  0  0
  -26.6814  -13.2548   19.6848 N   0  0  0  0  0  0
  -26.3578  -12.0983   21.0102 N   0  0  0  0  0  0
  -22.0958  -13.0602   22.0424 N   0  0  0  0  0  0
  -25.0633  -15.6681   19.2244 N   0  0  0  0  0  0
  -30.6834  -15.1223   20.7571 O   0  0  0  0  0  0
  -21.8048   -7.0329   21.4157 O   0  0  0  0  0  0
  -22.1743  -14.7380   20.5826 O   0  0  0  0  0  0
  -24.6975  -31.7788   23.1476 C   0  0  0  0  0  0
  -25.9529  -32.4327   23.8016 C   0  0  1  0  0  0
  -26.8666  -26.3986   20.3349 C   0  0  0  0  0  0
  -25.6062  -33.8187   24.1833 N   0  0  0  0  0  0
  -23.5119  -30.4030   21.5042 C   0  0  2  0  0  0
  -24.9062  -28.7144   20.0906 C   0  0  0  0  0  0
  -22.7749  -29.4245   22.4591 C   0  0  0  0  0  0
  -18.0315  -28.1423   22.8439 C   0  0  0  0  0  0
  -24.1485  -36.7055   23.2665 C   0  0  0  0  0  0
  -26.0953  -30.3966   21.4661 C   0  0  0  0  0  0
  -26.0813  -28.9498   20.8076 C   0  0  0  0  0  0
  -27.0635  -27.8156   20.8922 C   0  0  0  0  0  0
  -25.7662  -26.4569   19.4552 C   0  0  0  0  0  0
  -24.8165  -27.5143   19.3682 C   0  0  0  0  0  0
  -23.7585  -29.7337   20.1204 C   0  0  0  0  0  0
  -25.4160  -36.2814   24.0265 C   0  0  1  0  0  0
  -20.5962  -28.3780   23.1087 C   0  0  2  0  0  0
  -20.6782  -26.9420   22.5399 C   0  0  0  0  0  0
  -19.5768  -26.6355   21.5205 C   0  0  0  0  0  0
  -18.1947  -26.7949   22.1606 C   0  0  0  0  0  0
  -19.1589  -28.8917   23.2757 C   0  0  0  0  0  0
  -18.9513  -30.1500   23.8806 C   0  0  0  0  0  0
  -17.6512  -30.6609   24.0550 C   0  0  0  0  0  0
  -25.9165  -34.9222   23.4894 C   0  0  0  0  0  0
  -16.5390  -29.9098   23.6370 C   0  0  0  0  0  0
  -16.7302  -28.6522   23.0374 C   0  0  0  0  0  0
  -26.4647  -31.6536   25.0785 C   0  0  0  0  0  0
  -25.3671  -31.3976   26.1392 C   0  0  0  0  0  0
  -27.0699  -30.2851   24.7013 C   0  0  0  0  0  0
  -27.6017  -32.4529   25.7593 C   0  0  0  0  0  0
  -27.5567  -37.1688   24.8459 C   0  0  0  0  0  0
  -21.4386  -29.3014   22.3376 N   0  0  0  0  0  0
  -26.4250  -37.3617   23.9429 N   0  0  0  0  0  0
  -24.7972  -30.9040   22.0855 N   0  0  0  0  0  0
  -23.4155  -28.7796   23.2936 O   0  0  0  0  0  0
  -27.5321  -24.9845   20.6071 O   0  0  0  0  0  0
  -26.5820  -34.8837   22.4523 O   0  0  0  0  0  0
  -23.5988  -32.1032   23.6325 O   0  0  0  0  0  0
  -27.0478  -17.7867   20.8156 C   0  0  0  0  0  0
  -26.5887  -19.3155   21.1810 C   0  0  0  0  0  0
  -26.4662  -16.4729   21.4255 C   0  0  0  0  0  0
  -26.3180  -21.7242   22.4758 C   0  0  0  0  0  0
  -25.1728  -21.4868   20.2703 C   0  0  0  0  0  0
  -24.6678  -16.8594   23.1650 C   0  0  0  0  0  0
  -26.5236  -14.4506   21.5172 C   0  0  0  0  0  0
  -27.3476  -23.1215   20.4429 C   0  0  0  0  0  0
  -26.5187  -21.3270   21.0108 C   0  0  0  0  0  0
  -25.6737  -18.7568   22.0363 N   0  0  0  0  0  0
  -25.6236  -17.3276   22.1855 N   0  0  0  0  0  0
  -28.2661  -14.7196   21.5138 N   0  0  0  0  0  0
  -31.5377  -13.2046   19.1604 H   0  0  0  0  0  0
  -31.0234  -11.6104   19.6018 H   0  0  0  0  0  0
  -30.2100  -11.7484   17.3377 H   0  0  0  0  0  0
  -29.9249  -13.4471   17.4647 H   0  0  0  0  0  0
  -28.0033  -11.2315   18.3141 H   0  0  0  0  0  0
  -27.7198  -12.6039   17.2554 H   0  0  0  0  0  0
  -28.2090  -14.1400   18.9837 H   0  0  0  0  0  0
  -28.9089  -11.3493   20.3222 H   0  0  0  0  0  0
  -28.4914  -12.3927   21.5782 H   0  0  0  0  0  0
  -25.3405   -9.6935   22.8276 H   0  0  0  0  0  0
  -24.1141   -7.5823   22.7797 H   0  0  0  0  0  0
  -21.3849   -9.2106   19.9111 H   0  0  0  0  0  0
  -22.6360  -11.3276   19.9443 H   0  0  0  0  0  0
  -21.2633   -7.6676   23.9808 H   0  0  0  0  0  0
  -21.1531   -6.0791   25.8854 H   0  0  0  0  0  0
  -22.0297   -2.8129   23.2312 H   0  0  0  0  0  0
  -22.5650  -12.3512   22.5852 H   0  0  0  0  0  0
  -21.0886  -13.1206   22.1015 H   0  0  0  0  0  0
  -24.4792  -16.3849   19.6385 H   0  0  0  0  0  0
  -25.8687  -16.0585   18.7494 H   0  0  0  0  0  0
  -26.7605  -32.4637   23.0692 H   0  0  0  0  0  0
  -25.0158  -33.9209   24.9956 H   0  0  0  0  0  0
  -22.8495  -31.2555   21.3346 H   0  0  0  0  0  0
  -23.3817  -35.9312   23.3248 H   0  0  0  0  0  0
  -24.3523  -36.8815   22.2092 H   0  0  0  0  0  0
  -23.7170  -37.6168   23.6811 H   0  0  0  0  0  0
  -26.3843  -31.1013   20.6857 H   0  0  0  0  0  0
  -26.9245  -30.4030   22.1591 H   0  0  0  0  0  0
  -27.9296  -27.9586   21.5205 H   0  0  0  0  0  0
  -25.5286  -25.5666   18.8884 H   0  0  0  0  0  0
  -23.9481  -27.3584   18.7418 H   0  0  0  0  0  0
  -23.9918  -30.5122   19.3939 H   0  0  0  0  0  0
  -22.8393  -29.2732   19.7533 H   0  0  0  0  0  0
  -25.1376  -36.1543   25.0752 H   0  0  0  0  0  0
  -21.0060  -28.3444   24.1207 H   0  0  0  0  0  0
  -20.5629  -26.2400   23.3680 H   0  0  0  0  0  0
  -21.6641  -26.7357   22.1227 H   0  0  0  0  0  0
  -19.6924  -25.6237   21.1302 H   0  0  0  0  0  0
  -19.6728  -27.3104   20.6685 H   0  0  0  0  0  0
  -17.4225  -26.6670   21.4011 H   0  0  0  0  0  0
  -18.0334  -26.0117   22.9021 H   0  0  0  0  0  0
  -19.7991  -30.7329   24.2140 H   0  0  0  0  0  0
  -17.5065  -31.6284   24.5155 H   0  0  0  0  0  0
  -15.5382  -30.2977   23.7736 H   0  0  0  0  0  0
  -15.8701  -28.0817   22.7141 H   0  0  0  0  0  0
  -24.5778  -30.7413   25.7713 H   0  0  0  0  0  0
  -24.8984  -32.3263   26.4655 H   0  0  0  0  0  0
  -25.7791  -30.9224   27.0304 H   0  0  0  0  0  0
  -26.3462  -29.6216   24.2277 H   0  0  0  0  0  0
  -27.4216  -29.7600   25.5908 H   0  0  0  0  0  0
  -27.9405  -30.3914   24.0542 H   0  0  0  0  0  0
  -27.2446  -33.3876   26.1936 H   0  0  0  0  0  0
  -28.3909  -32.7065   25.0501 H   0  0  0  0  0  0
  -28.0629  -31.8906   26.5725 H   0  0  0  0  0  0
  -28.2504  -38.0064   24.7602 H   0  0  0  0  0  0
  -28.1148  -36.2595   24.6174 H   0  0  0  0  0  0
  -27.2292  -37.1175   25.8859 H   0  0  0  0  0  0
  -20.9672  -29.8704   21.6486 H   0  0  0  0  0  0
  -26.0054  -38.2642   24.1501 H   0  0  0  0  0  0
  -27.8055  -17.6655   20.0541 H   0  0  0  0  0  0
  -25.4596  -21.2226   22.9191 H   0  0  0  0  0  0
  -26.1378  -22.7951   22.5652 H   0  0  0  0  0  0
  -27.2011  -21.4727   23.0597 H   0  0  0  0  0  0
  -24.3884  -20.8783   20.7223 H   0  0  0  0  0  0
  -25.2589  -21.1789   19.2276 H   0  0  0  0  0  0
  -24.8192  -22.5193   20.2731 H   0  0  0  0  0  0
  -24.9073  -15.8415   23.4761 H   0  0  0  0  0  0
  -23.6624  -16.8729   22.7431 H   0  0  0  0  0  0
  -24.6962  -17.5031   24.0454 H   0  0  0  0  0  0
  -25.0164  -12.6826   19.8799 H   0  0  0  0  0  0
  -26.3303  -14.1840   22.5615 H   0  0  0  0  0  0
  -27.4592  -23.0011   19.3664 H   0  0  0  0  0  0
  -28.3497  -22.9022   20.8148 H   0  0  0  0  0  0
  -28.3861  -15.6110   21.9699 H   0  0  0  0  0  0
  1 25  1  0  0  0
  1 30  2  0  0  0
  1 82  1  0  0  0
  2  3  1  0  0  0
  2 25  1  0  0  0
  2 83  1  0  0  0
  2 84  1  0  0  0
  3  4  1  0  0  0
  3 85  1  0  0  0
  3 86  1  0  0  0
  4  5  1  0  0  0
  4 87  1  0  0  0
  4 88  1  0  0  0
  5  6  1  0  0  0
  5 26  1  0  0  0
  5 89  1  0  0  0
  6 25  1  0  0  0
  6 90  1  0  0  0
  6 91  1  0  0  0
  7  8  2  0  0  0
  7 26  1  0  0  0
  7 29  1  0  0  0
  8  9  1  0  0  0
  8 22  1  0  0  0
  9 10  1  0  0  0
  9 27  2  0  0  0
 10 11  2  0  0  0
 10 15  1  0  0  0
 11 12  1  0  0  0
 11 92  1  0  0  0
 12 13  2  0  0  0
 12 93  1  0  0  0
 13 14  1  0  0  0
 13 31  1  0  0  0
 14 15  2  0  0  0
 14 94  1  0  0  0
 15 95  1  0  0  0
 16 17  2  0  0  0
 16 21  1  0  0  0
 16 31  1  0  0  0
 17 18  1  0  0  0
 17 96  1  0  0  0
 18 19  2  0  0  0
 18 97  1  0  0  0
 19 20  1  0  0  0
 19 24  1  0  0  0
 20 21  2  0  0  0
 20 98  1  0  0  0
 21 23  1  0  0  0
 22 28  1  0  0  0
 22 32  2  0  0  0
 26 27  1  0  0  0
 28 99  1  0  0  0
 28100  1  0  0  0
 29101  1  0  0  0
 29102  1  0  0  0
 33 34  1  0  0  0
 33 66  1  0  0  0
 33 70  2  0  0  0
 34 36  1  0  0  0
 34 59  1  0  0  0
 34103  1  0  0  0
 35 44  2  0  0  0
 35 45  1  0  0  0
 35 68  1  0  0  0
 36 56  1  0  0  0
 36104  1  0  0  0
 37 39  1  0  0  0
 37 47  1  0  0  0
 37 66  1  0  0  0
 37105  1  0  0  0
 38 43  2  0  0  0
 38 46  1  0  0  0
 38 47  1  0  0  0
 39 64  1  0  0  0
 39 67  2  0  0  0
 40 52  1  0  0  0
 40 53  2  0  0  0
 40 58  1  0  0  0
 41106  1  0  0  0
 41107  1  0  0  0
 41108  1  0  0  0
 41 48  1  0  0  0
 42 43  1  0  0  0
 42 66  1  0  0  0
 42109  1  0  0  0
 42110  1  0  0  0
 43 44  1  0  0  0
 44111  1  0  0  0
 45 46  2  0  0  0
 45112  1  0  0  0
 46113  1  0  0  0
 47114  1  0  0  0
 47115  1  0  0  0
 48 56  1  0  0  0
 48 65  1  0  0  0
 48116  1  0  0  0
 49 50  1  0  0  0
 49 53  1  0  0  0
 49 64  1  0  0  0
 49117  1  0  0  0
 50 51  1  0  0  0
 50118  1  0  0  0
 50119  1  0  0  0
 51 52  1  0  0  0
 51120  1  0  0  0
 51121  1  0  0  0
 52122  1  0  0  0
 52123  1  0  0  0
 53 54  1  0  0  0
 54 55  2  0  0  0
 54124  1  0  0  0
 55 57  1  0  0  0
 55125  1  0  0  0
 56 69  2  0  0  0
 57 58  2  0  0  0
 57126  1  0  0  0
 58127  1  0  0  0
 59 60  1  0  0  0
 59 61  1  0  0  0
 59 62  1  0  0  0
 60128  1  0  0  0
 60129  1  0  0  0
 60130  1  0  0  0
 61131  1  0  0  0
 61132  1  0  0  0
 61133  1  0  0  0
 62134  1  0  0  0
 62135  1  0  0  0
 62136  1  0  0  0
 63 65  1  0  0  0
 63137  1  0  0  0
 63138  1  0  0  0
 63139  1  0  0  0
 64140  1  0  0  0
 65141  1  0  0  0
 68 78  1  0  0  0
 71 72  1  0  0  0
 71 73  2  0  0  0
 71142  1  0  0  0
 72 79  1  0  0  0
 72 80  2  0  0  0
 73 77  1  0  0  0
 73 81  1  0  0  0
 74143  1  0  0  0
 74144  1  0  0  0
 74145  1  0  0  0
 74 79  1  0  0  0
 75 79  1  0  0  0
 75146  1  0  0  0
 75147  1  0  0  0
 75148  1  0  0  0
 76 81  1  0  0  0
 76149  1  0  0  0
 76150  1  0  0  0
 76151  1  0  0  0
 77 82  1  0  0  0
 77152  1  0  0  0
 77153  1  0  0  0
 78 79  1  0  0  0
 78154  1  0  0  0
 78155  1  0  0  0
 80 81  1  0  0  0
 82156  1  0  0  0
M  ISO  4   1 100  68 101  78 101  82 100
M  END
> <chiral flag>
0

> <version>
0

> <s_m_source_file>
/data/baiqing/PycharmProjects/Reinvent-master-3.2/result/LINK_invent/BTK/process_docking_weight1_custom_sum_contain_oxygen_bond_distance_aromatic_linkinvent_7_9_3/rearranged_h_0053.sdf

> <i_m_source_file_index>
16

> <r_mmod_Potential_Energy-OPLS-2005>
13411.662109375

> <r_mmod_Stretch_Energy-OPLS-2005>
8043.79638671875

> <r_mmod_Bend_Energy-OPLS-2005>
1277.7724609375

> <r_mmod_Torsional_Energy-OPLS-2005>
380.0078125

> <r_mmod_Improper_Torsional_Energy-OPLS-2005>
45.381217956543

> <r_mmod_Van_der_Waal_Energy-OPLS-2005>
2369.333984375

> <r_mmod_Electrostatic_Energy-OPLS-2005>
-467.604034423828

> <r_mmod_Solvation_Energy-OPLS-2005>
-223.80583190918

> <b_mmod_Minimization_Converged-OPLS-2005>
0

> <r_mmod_RMS_Derivative-OPLS-2005>
8.21500110626221

$$$$
16
                    3D
 Structure written by MMmdl.
157165  0  0  1  0            999 V2000
  -30.6637  -14.7244   20.5252 C   0  0  0  0  0  0
  -30.4293  -12.4595   19.4773 C   0  0  0  0  0  0
  -29.5087  -12.5221   18.2387 C   0  0  0  0  0  0
  -28.0339  -12.3498   18.6472 C   0  0  0  0  0  0
  -27.6457  -13.2331   19.8600 C   0  0  2  0  0  0
  -28.6877  -13.1307   20.9915 C   0  0  0  0  0  0
  -25.2522  -13.8205   20.5706 C   0  0  0  0  0  0
  -24.1805  -13.0449   20.9203 C   0  0  0  0  0  0
  -24.6401  -11.6925   20.8753 C   0  0  0  0  0  0
  -23.9089  -10.4298   21.0415 C   0  0  0  0  0  0
  -24.3635   -9.4206   21.9185 C   0  0  0  0  0  0
  -23.6304   -8.2248   22.0756 C   0  0  0  0  0  0
  -22.4284   -8.0290   21.3549 C   0  0  0  0  0  0
  -21.9926   -9.0266   20.4649 C   0  0  0  0  0  0
  -22.7266  -10.2141   20.3059 C   0  0  0  0  0  0
  -21.6852   -6.0746   22.5277 C   0  0  0  0  0  0
  -21.4014   -6.5654   23.8209 C   0  0  0  0  0  0
  -21.3657   -5.6806   24.9168 C   0  0  0  0  0  0
  -21.6042   -4.3067   24.7220 C   0  0  0  0  0  0
  -21.8820   -3.8164   23.4340 C   0  0  0  0  0  0
  -21.9192   -4.6978   22.3397 C   0  0  0  0  0  0
  -22.7823  -13.5224   21.1863 C   0  0  0  0  0  0
  -22.1660   -4.2163   21.0974 F   0  0  0  0  0  0
  -21.5625   -3.4548   25.7733 F   0  0  0  0  0  0
  -29.9940  -13.5156   20.4282 N   0  0  0  0  0  0
  -26.2958  -12.9412   20.3326 N   0  0  0  0  0  0
  -25.9335  -11.6552   20.5770 N   0  0  0  0  0  0
  -22.0489  -12.8198   22.0422 N   0  0  0  0  0  0
  -25.4235  -15.1928   20.4130 N   0  0  0  0  0  0
  -31.8088  -14.8029   20.0679 O   0  0  0  0  0  0
  -21.6646   -6.8889   21.4241 O   0  0  0  0  0  0
  -22.3500  -14.5532   20.6718 O   0  0  0  0  0  0
  -24.6334  -31.8584   23.1964 C   0  0  0  0  0  0
  -25.9169  -32.4774   23.8298 C   0  0  1  0  0  0
  -27.2169  -27.2592   20.1114 C   0  0  0  0  0  0
  -25.5974  -33.8567   24.2221 N   0  0  0  0  0  0
  -23.4292  -30.4845   21.5400 C   0  0  2  0  0  0
  -24.8759  -28.9392   20.1056 C   0  0  0  0  0  0
  -22.7515  -29.4645   22.4882 C   0  0  0  0  0  0
  -18.0303  -28.1436   22.8487 C   0  0  0  0  0  0
  -24.1490  -36.7257   23.2631 C   0  0  0  0  0  0
  -25.9794  -30.7671   21.3818 C   0  0  0  0  0  0
  -26.0511  -29.3916   20.7206 C   0  0  0  0  0  0
  -27.2225  -28.5628   20.7191 C   0  0  0  0  0  0
  -26.0181  -26.9011   19.4419 C   0  0  0  0  0  0
  -24.8656  -27.7009   19.4564 C   0  0  0  0  0  0
  -23.6480  -29.8247   20.1555 C   0  0  0  0  0  0
  -25.4124  -36.3060   24.0313 C   0  0  1  0  0  0
  -20.5914  -28.3756   23.1254 C   0  0  2  0  0  0
  -20.6802  -26.9472   22.5414 C   0  0  0  0  0  0
  -19.5769  -26.6423   21.5232 C   0  0  0  0  0  0
  -18.1944  -26.7979   22.1629 C   0  0  0  0  0  0
  -19.1556  -28.8911   23.2875 C   0  0  0  0  0  0
  -18.9475  -30.1509   23.8902 C   0  0  0  0  0  0
  -17.6473  -30.6624   24.0586 C   0  0  0  0  0  0
  -25.9075  -34.9444   23.5062 C   0  0  0  0  0  0
  -16.5368  -29.9125   23.6348 C   0  0  0  0  0  0
  -16.7291  -28.6550   23.0358 C   0  0  0  0  0  0
  -26.4522  -31.6597   25.0680 C   0  0  0  0  0  0
  -25.3712  -31.3802   26.1371 C   0  0  0  0  0  0
  -27.0370  -30.2997   24.6205 C   0  0  0  0  0  0
  -27.6067  -32.4340   25.7469 C   0  0  0  0  0  0
  -27.5578  -37.1784   24.8466 C   0  0  0  0  0  0
  -21.4217  -29.3093   22.3620 N   0  0  0  0  0  0
  -26.4282  -37.3773   23.9417 N   0  0  0  0  0  0
  -24.6995  -31.0547   22.0948 N   0  0  0  0  0  0
  -23.4217  -28.8182   23.2975 O   0  0  0  0  0  0
  -28.2856  -26.3231   20.1980 O   0  0  0  0  0  0
  -26.5625  -34.8932   22.4615 O   0  0  0  0  0  0
  -23.5487  -32.1412   23.7262 O   0  0  0  0  0  0
  -28.9376  -22.3908   19.5203 C   0  0  0  0  0  0
  -28.7917  -23.6115   20.1904 C   0  0  0  0  0  0
  -29.8179  -22.0695   21.5055 C   0  0  0  0  0  0
  -30.5013  -21.4780   22.6960 C   0  0  0  0  0  0
  -29.4505  -16.0479   22.2192 C   0  0  0  0  0  0
  -27.9846  -24.9038   19.7937 C   0  0  0  0  0  0
  -29.5783  -18.6573   20.6736 C   0  0  0  0  0  0
  -30.0625  -20.0241   19.9586 C   0  0  0  0  0  0
  -30.3335  -17.2747   20.2506 C   0  0  0  0  0  0
  -29.5622  -21.4422   20.3382 N   0  0  0  0  0  0
  -29.3614  -23.3435   21.4142 N   0  3  0  0  0  0
  -29.9905  -15.9067   20.8631 N   0  0  0  0  0  0
  -31.4708  -12.5712   19.1714 H   0  0  0  0  0  0
  -30.3712  -11.4767   19.9484 H   0  0  0  0  0  0
  -29.7881  -11.7493   17.5208 H   0  0  0  0  0  0
  -29.6397  -13.4776   17.7287 H   0  0  0  0  0  0
  -27.8821  -11.2982   18.8939 H   0  0  0  0  0  0
  -27.3781  -12.5614   17.8025 H   0  0  0  0  0  0
  -27.6537  -14.2643   19.5068 H   0  0  0  0  0  0
  -28.7288  -12.1138   21.3849 H   0  0  0  0  0  0
  -28.3790  -13.7481   21.8293 H   0  0  0  0  0  0
  -25.2778   -9.5677   22.4763 H   0  0  0  0  0  0
  -24.0008   -7.4642   22.7469 H   0  0  0  0  0  0
  -21.0866   -8.8794   19.8950 H   0  0  0  0  0  0
  -22.3728  -10.9687   19.6172 H   0  0  0  0  0  0
  -21.2009   -7.6162   23.9712 H   0  0  0  0  0  0
  -21.1473   -6.0535   25.9068 H   0  0  0  0  0  0
  -22.0601   -2.7627   23.2834 H   0  0  0  0  0  0
  -22.4108  -11.9844   22.4775 H   0  0  0  0  0  0
  -21.1114  -13.1215   22.2675 H   0  0  0  0  0  0
  -24.6631  -15.8531   20.5292 H   0  0  0  0  0  0
  -26.2845  -15.6285   20.1077 H   0  0  0  0  0  0
  -26.7226  -32.5421   23.1034 H   0  0  0  0  0  0
  -25.0177  -33.9706   25.0406 H   0  0  0  0  0  0
  -22.7265  -31.3076   21.3960 H   0  0  0  0  0  0
  -23.3764  -35.9577   23.3297 H   0  0  0  0  0  0
  -24.3576  -36.8876   22.2045 H   0  0  0  0  0  0
  -23.7242  -37.6458   23.6652 H   0  0  0  0  0  0
  -26.1246  -31.5292   20.6156 H   0  0  0  0  0  0
  -26.8555  -30.8112   22.0171 H   0  0  0  0  0  0
  -28.1169  -28.9021   21.2236 H   0  0  0  0  0  0
  -25.9132  -25.9740   18.9003 H   0  0  0  0  0  0
  -23.9705  -27.3530   18.9566 H   0  0  0  0  0  0
  -23.7738  -30.6020   19.4005 H   0  0  0  0  0  0
  -22.7661  -29.2594   19.8484 H   0  0  0  0  0  0
  -25.1322  -36.1870   25.0806 H   0  0  0  0  0  0
  -21.0034  -28.3360   24.1365 H   0  0  0  0  0  0
  -20.5732  -26.2386   23.3637 H   0  0  0  0  0  0
  -21.6667  -26.7516   22.1199 H   0  0  0  0  0  0
  -19.6921  -25.6326   21.1281 H   0  0  0  0  0  0
  -19.6701  -27.3223   20.6749 H   0  0  0  0  0  0
  -17.4234  -26.6772   21.4006 H   0  0  0  0  0  0
  -18.0305  -26.0130   22.9026 H   0  0  0  0  0  0
  -19.7946  -30.7341   24.2268 H   0  0  0  0  0  0
  -17.5023  -31.6295   24.5212 H   0  0  0  0  0  0
  -15.5367  -30.3035   23.7667 H   0  0  0  0  0  0
  -15.8694  -28.0876   22.7054 H   0  0  0  0  0  0
  -24.5933  -30.7091   25.7709 H   0  0  0  0  0  0
  -24.8839  -32.2996   26.4622 H   0  0  0  0  0  0
  -25.7990  -30.9117   27.0235 H   0  0  0  0  0  0
  -26.2951  -29.6737   24.1224 H   0  0  0  0  0  0
  -27.4028  -29.7282   25.4745 H   0  0  0  0  0  0
  -27.8853  -30.4252   23.9470 H   0  0  0  0  0  0
  -27.2679  -33.3681   26.1954 H   0  0  0  0  0  0
  -28.3931  -32.6824   25.0332 H   0  0  0  0  0  0
  -28.0662  -31.8508   26.5460 H   0  0  0  0  0  0
  -28.2600  -38.0080   24.7529 H   0  0  0  0  0  0
  -28.1068  -36.2614   24.6269 H   0  0  0  0  0  0
  -27.2295  -37.1409   25.8867 H   0  0  0  0  0  0
  -20.9401  -29.8782   21.6795 H   0  0  0  0  0  0
  -26.0141  -38.2831   24.1444 H   0  0  0  0  0  0
  -28.6267  -22.1320   18.5181 H   0  0  0  0  0  0
  -29.8548  -20.7111   23.1218 H   0  0  0  0  0  0
  -30.6834  -22.2595   23.4327 H   0  0  0  0  0  0
  -31.4479  -21.0423   22.3800 H   0  0  0  0  0  0
  -28.3810  -16.2591   22.1870 H   0  0  0  0  0  0
  -29.9460  -16.8564   22.7570 H   0  0  0  0  0  0
  -29.6148  -15.1659   22.8385 H   0  0  0  0  0  0
  -26.9916  -24.6648   20.1744 H   0  0  0  0  0  0
  -27.9077  -24.8935   18.7060 H   0  0  0  0  0  0
  -28.5108  -18.5378   20.4883 H   0  0  0  0  0  0
  -29.6735  -18.8006   21.7475 H   0  0  0  0  0  0
  -29.8878  -19.9222   18.8872 H   0  0  0  0  0  0
  -31.1479  -20.0710   20.0553 H   0  0  0  0  0  0
  -31.4004  -17.4308   20.4209 H   0  0  0  0  0  0
  -30.2363  -17.1636   19.1692 H   0  0  0  0  0  0
  -29.4150  -24.0208   22.1662 H   0  0  0  0  0  0
  1 25  1  0  0  0
  1 30  2  0  0  0
  1 82  1  0  0  0
  2  3  1  0  0  0
  2 25  1  0  0  0
  2 83  1  0  0  0
  2 84  1  0  0  0
  3  4  1  0  0  0
  3 85  1  0  0  0
  3 86  1  0  0  0
  4  5  1  0  0  0
  4 87  1  0  0  0
  4 88  1  0  0  0
  5  6  1  0  0  0
  5 26  1  0  0  0
  5 89  1  0  0  0
  6 25  1  0  0  0
  6 90  1  0  0  0
  6 91  1  0  0  0
  7  8  2  0  0  0
  7 26  1  0  0  0
  7 29  1  0  0  0
  8  9  1  0  0  0
  8 22  1  0  0  0
  9 10  1  0  0  0
  9 27  2  0  0  0
 10 11  2  0  0  0
 10 15  1  0  0  0
 11 12  1  0  0  0
 11 92  1  0  0  0
 12 13  2  0  0  0
 12 93  1  0  0  0
 13 14  1  0  0  0
 13 31  1  0  0  0
 14 15  2  0  0  0
 14 94  1  0  0  0
 15 95  1  0  0  0
 16 17  2  0  0  0
 16 21  1  0  0  0
 16 31  1  0  0  0
 17 18  1  0  0  0
 17 96  1  0  0  0
 18 19  2  0  0  0
 18 97  1  0  0  0
 19 20  1  0  0  0
 19 24  1  0  0  0
 20 21  2  0  0  0
 20 98  1  0  0  0
 21 23  1  0  0  0
 22 28  1  0  0  0
 22 32  2  0  0  0
 26 27  1  0  0  0
 28 99  1  0  0  0
 28100  1  0  0  0
 29101  1  0  0  0
 29102  1  0  0  0
 33 34  1  0  0  0
 33 66  1  0  0  0
 33 70  2  0  0  0
 34 36  1  0  0  0
 34 59  1  0  0  0
 34103  1  0  0  0
 35 44  2  0  0  0
 35 45  1  0  0  0
 35 68  1  0  0  0
 36 56  1  0  0  0
 36104  1  0  0  0
 37 39  1  0  0  0
 37 47  1  0  0  0
 37 66  1  0  0  0
 37105  1  0  0  0
 38 43  2  0  0  0
 38 46  1  0  0  0
 38 47  1  0  0  0
 39 64  1  0  0  0
 39 67  2  0  0  0
 40 52  1  0  0  0
 40 53  2  0  0  0
 40 58  1  0  0  0
 41106  1  0  0  0
 41107  1  0  0  0
 41108  1  0  0  0
 41 48  1  0  0  0
 42 43  1  0  0  0
 42 66  1  0  0  0
 42109  1  0  0  0
 42110  1  0  0  0
 43 44  1  0  0  0
 44111  1  0  0  0
 45 46  2  0  0  0
 45112  1  0  0  0
 46113  1  0  0  0
 47114  1  0  0  0
 47115  1  0  0  0
 48 56  1  0  0  0
 48 65  1  0  0  0
 48116  1  0  0  0
 49 50  1  0  0  0
 49 53  1  0  0  0
 49 64  1  0  0  0
 49117  1  0  0  0
 50 51  1  0  0  0
 50118  1  0  0  0
 50119  1  0  0  0
 51 52  1  0  0  0
 51120  1  0  0  0
 51121  1  0  0  0
 52122  1  0  0  0
 52123  1  0  0  0
 53 54  1  0  0  0
 54 55  2  0  0  0
 54124  1  0  0  0
 55 57  1  0  0  0
 55125  1  0  0  0
 56 69  2  0  0  0
 57 58  2  0  0  0
 57126  1  0  0  0
 58127  1  0  0  0
 59 60  1  0  0  0
 59 61  1  0  0  0
 59 62  1  0  0  0
 60128  1  0  0  0
 60129  1  0  0  0
 60130  1  0  0  0
 61131  1  0  0  0
 61132  1  0  0  0
 61133  1  0  0  0
 62134  1  0  0  0
 62135  1  0  0  0
 62136  1  0  0  0
 63 65  1  0  0  0
 63137  1  0  0  0
 63138  1  0  0  0
 63139  1  0  0  0
 64140  1  0  0  0
 65141  1  0  0  0
 68 76  1  0  0  0
 71 72  2  0  0  0
 71 80  1  0  0  0
 71142  1  0  0  0
 72 76  1  0  0  0
 72 81  1  0  0  0
 73 74  1  0  0  0
 73 80  1  0  0  0
 73 81  2  0  0  0
 74143  1  0  0  0
 74144  1  0  0  0
 74145  1  0  0  0
 75 82  1  0  0  0
 75146  1  0  0  0
 75147  1  0  0  0
 75148  1  0  0  0
 76149  1  0  0  0
 76150  1  0  0  0
 77 78  1  0  0  0
 77 79  1  0  0  0
 77151  1  0  0  0
 77152  1  0  0  0
 78 80  1  0  0  0
 78153  1  0  0  0
 78154  1  0  0  0
 79 82  1  0  0  0
 79155  1  0  0  0
 79156  1  0  0  0
 81157  1  0  0  0
M  CHG  1  81   1
M  ISO  4   1 100  68 101  76 101  82 100
M  END
> <chiral flag>
0

> <version>
0

> <s_m_source_file>
/data/baiqing/PycharmProjects/Reinvent-master-3.2/result/LINK_invent/BTK/process_docking_weight1_custom_sum_contain_oxygen_bond_distance_aromatic_linkinvent_7_9_3/rearranged_h_0053.sdf

> <i_m_source_file_index>
17

> <r_mmod_Potential_Energy-OPLS-2005>
237.17497253418

> <r_mmod_Stretch_Energy-OPLS-2005>
126.165161132812

> <r_mmod_Bend_Energy-OPLS-2005>
188.159744262695

> <r_mmod_Torsional_Energy-OPLS-2005>
281.339050292969

> <r_mmod_Improper_Torsional_Energy-OPLS-2005>
10.3833103179932

> <r_mmod_Van_der_Waal_Energy-OPLS-2005>
132.562805175781

> <r_mmod_Electrostatic_Energy-OPLS-2005>
-174.203689575195

> <r_mmod_Solvation_Energy-OPLS-2005>
-409.372955322266

> <b_mmod_Minimization_Converged-OPLS-2005>
0

> <r_mmod_RMS_Derivative-OPLS-2005>
2.18408870697021

$$$$
17
                    3D
 Structure written by MMmdl.
161169  0  0  1  0            999 V2000
  -30.3785  -15.2947   20.3745 C   0  0  0  0  0  0
  -30.4499  -12.8164   19.5377 C   0  0  0  0  0  0
  -29.5448  -12.5948   18.2955 C   0  0  0  0  0  0
  -28.0909  -12.3111   18.7133 C   0  0  0  0  0  0
  -27.6164  -13.2763   19.8264 C   0  0  2  0  0  0
  -28.6463  -13.4320   20.9645 C   0  0  0  0  0  0
  -25.2408  -13.8247   20.5729 C   0  0  0  0  0  0
  -24.1756  -13.0433   20.9247 C   0  0  0  0  0  0
  -24.6420  -11.6934   20.8742 C   0  0  0  0  0  0
  -23.9111  -10.4300   21.0399 C   0  0  0  0  0  0
  -24.3651   -9.4218   21.9184 C   0  0  0  0  0  0
  -23.6316   -8.2251   22.0756 C   0  0  0  0  0  0
  -22.4300   -8.0294   21.3540 C   0  0  0  0  0  0
  -21.9940   -9.0272   20.4643 C   0  0  0  0  0  0
  -22.7274  -10.2149   20.3059 C   0  0  0  0  0  0
  -21.6864   -6.0744   22.5285 C   0  0  0  0  0  0
  -21.4017   -6.5643   23.8219 C   0  0  0  0  0  0
  -21.3663   -5.6792   24.9179 C   0  0  0  0  0  0
  -21.6048   -4.3055   24.7229 C   0  0  0  0  0  0
  -21.8820   -3.8149   23.4349 C   0  0  0  0  0  0
  -21.9196   -4.6968   22.3406 C   0  0  0  0  0  0
  -22.7772  -13.5183   21.1910 C   0  0  0  0  0  0
  -22.1664   -4.2156   21.0983 F   0  0  0  0  0  0
  -21.5635   -3.4541   25.7738 F   0  0  0  0  0  0
  -29.8885  -13.9508   20.3642 N   0  0  0  0  0  0
  -26.2842  -12.9523   20.3201 N   0  0  0  0  0  0
  -25.9361  -11.6628   20.5706 N   0  0  0  0  0  0
  -22.0417  -12.8166   22.0456 N   0  0  0  0  0  0
  -25.4050  -15.1980   20.4176 N   0  0  0  0  0  0
  -31.5825  -15.3349   20.0674 O   0  0  0  0  0  0
  -21.6653   -6.8899   21.4251 O   0  0  0  0  0  0
  -22.3467  -14.5491   20.6767 O   0  0  0  0  0  0
  -24.6628  -31.8213   23.1678 C   0  0  0  0  0  0
  -25.9307  -32.4582   23.8154 C   0  0  1  0  0  0
  -27.2281  -26.9122   20.1900 C   0  0  0  0  0  0
  -25.5953  -33.8395   24.2056 N   0  0  0  0  0  0
  -23.4793  -30.4295   21.5161 C   0  0  2  0  0  0
  -24.9364  -28.8120   20.1090 C   0  0  0  0  0  0
  -22.7671  -29.4416   22.4767 C   0  0  0  0  0  0
  -18.0323  -28.1411   22.8464 C   0  0  0  0  0  0
  -24.1486  -36.7198   23.2649 C   0  0  0  0  0  0
  -26.0481  -30.6212   21.4018 C   0  0  0  0  0  0
  -26.1179  -29.2089   20.7474 C   0  0  0  0  0  0
  -27.2549  -28.2805   20.7632 C   0  0  0  0  0  0
  -26.0204  -26.6717   19.4957 C   0  0  0  0  0  0
  -24.9143  -27.5639   19.4628 C   0  0  0  0  0  0
  -23.7214  -29.7399   20.1437 C   0  0  0  0  0  0
  -25.4130  -36.2965   24.0302 C   0  0  1  0  0  0
  -20.5946  -28.3757   23.1189 C   0  0  2  0  0  0
  -20.6794  -26.9430   22.5428 C   0  0  0  0  0  0
  -19.5780  -26.6380   21.5227 C   0  0  0  0  0  0
  -18.1948  -26.7947   22.1608 C   0  0  0  0  0  0
  -19.1582  -28.8911   23.2807 C   0  0  0  0  0  0
  -18.9490  -30.1499   23.8848 C   0  0  0  0  0  0
  -17.6482  -30.6601   24.0566 C   0  0  0  0  0  0
  -25.9102  -34.9344   23.5013 C   0  0  0  0  0  0
  -16.5374  -29.9095   23.6338 C   0  0  0  0  0  0
  -16.7304  -28.6515   23.0356 C   0  0  0  0  0  0
  -26.4562  -31.6543   25.0690 C   0  0  0  0  0  0
  -25.3671  -31.3793   26.1329 C   0  0  0  0  0  0
  -27.0445  -30.2898   24.6448 C   0  0  0  0  0  0
  -27.6038  -32.4367   25.7492 C   0  0  0  0  0  0
  -27.5576  -37.1737   24.8452 C   0  0  0  0  0  0
  -21.4337  -29.3031   22.3524 N   0  0  0  0  0  0
  -26.4268  -37.3708   23.9423 N   0  0  0  0  0  0
  -24.7510  -30.9861   22.0820 N   0  0  0  0  0  0
  -23.4209  -28.7987   23.3020 O   0  0  0  0  0  0
  -28.2349  -25.8078   20.2961 O   0  0  0  0  0  0
  -26.5733  -34.8895   22.4623 O   0  0  0  0  0  0
  -23.5690  -32.1184   23.6773 O   0  0  0  0  0  0
  -29.1336  -19.7647   21.0496 C   0  0  0  0  0  0
  -29.4688  -18.5159   20.3484 C   0  0  0  0  0  0
  -29.3984  -20.4916   19.0386 C   0  0  0  0  0  0
  -26.9403  -22.3506   15.0373 C   0  0  0  0  0  0
  -28.9686  -23.6431   15.8013 C   0  0  0  0  0  0
  -29.4845  -16.7852   20.7238 C   0  0  0  0  0  0
  -29.5374  -21.2945   17.7845 C   0  0  0  0  0  0
  -28.1861  -21.5787   17.1036 C   0  0  0  0  0  0
  -28.9426  -22.6960   20.6372 C   0  0  0  0  0  0
  -28.0904  -24.1739   20.0119 C   0  0  0  0  0  0
  -28.3114  -22.2547   15.7229 C   0  0  0  0  0  0
  -29.0755  -21.0108   20.2538 N   0  0  0  0  0  0
  -29.5945  -19.1181   19.0954 N   0  3  0  0  0  0
  -31.4690  -13.0270   19.2112 H   0  0  0  0  0  0
  -30.5187  -11.9040   20.1326 H   0  0  0  0  0  0
  -29.9275  -11.7754   17.6853 H   0  0  0  0  0  0
  -29.5749  -13.4858   17.6659 H   0  0  0  0  0  0
  -28.0447  -11.2840   19.0755 H   0  0  0  0  0  0
  -27.4255  -12.3631   17.8510 H   0  0  0  0  0  0
  -27.5370  -14.2489   19.3406 H   0  0  0  0  0  0
  -28.8080  -12.4867   21.4848 H   0  0  0  0  0  0
  -28.2789  -14.1367   21.7119 H   0  0  0  0  0  0
  -25.2789   -9.5699   22.4769 H   0  0  0  0  0  0
  -24.0020   -7.4651   22.7486 H   0  0  0  0  0  0
  -21.0865   -8.8812   19.8944 H   0  0  0  0  0  0
  -22.3734  -10.9705   19.6185 H   0  0  0  0  0  0
  -21.2007   -7.6150   23.9725 H   0  0  0  0  0  0
  -21.1478   -6.0522   25.9087 H   0  0  0  0  0  0
  -22.0589   -2.7612   23.2853 H   0  0  0  0  0  0
  -22.4031  -11.9843   22.4864 H   0  0  0  0  0  0
  -21.1034  -13.1205   22.2637 H   0  0  0  0  0  0
  -24.6328  -15.8465   20.5309 H   0  0  0  0  0  0
  -26.2452  -15.6407   20.0696 H   0  0  0  0  0  0
  -26.7370  -32.5117   23.0863 H   0  0  0  0  0  0
  -25.0001  -33.9474   25.0136 H   0  0  0  0  0  0
  -22.7910  -31.2596   21.3430 H   0  0  0  0  0  0
  -23.3782  -35.9487   23.3245 H   0  0  0  0  0  0
  -24.3561  -36.8926   22.2076 H   0  0  0  0  0  0
  -23.7206  -37.6344   23.6760 H   0  0  0  0  0  0
  -26.2319  -31.3611   20.6215 H   0  0  0  0  0  0
  -26.9064  -30.6784   22.0602 H   0  0  0  0  0  0
  -28.1465  -28.5829   21.2959 H   0  0  0  0  0  0
  -25.8951  -25.7192   19.0008 H   0  0  0  0  0  0
  -24.0185  -27.2544   18.9416 H   0  0  0  0  0  0
  -23.8734  -30.5078   19.3843 H   0  0  0  0  0  0
  -22.8309  -29.1932   19.8281 H   0  0  0  0  0  0
  -25.1326  -36.1750   25.0790 H   0  0  0  0  0  0
  -21.0023  -28.3389   24.1320 H   0  0  0  0  0  0
  -20.5674  -26.2375   23.3678 H   0  0  0  0  0  0
  -21.6655  -26.7405   22.1236 H   0  0  0  0  0  0
  -19.6945  -25.6284   21.1283 H   0  0  0  0  0  0
  -19.6739  -27.3170   20.6742 H   0  0  0  0  0  0
  -17.4231  -26.6726   21.3994 H   0  0  0  0  0  0
  -18.0300  -26.0099   22.9002 H   0  0  0  0  0  0
  -19.7969  -30.7327   24.2188 H   0  0  0  0  0  0
  -17.5037  -31.6269   24.5191 H   0  0  0  0  0  0
  -15.5371  -30.2982   23.7702 H   0  0  0  0  0  0
  -15.8698  -28.0832   22.7082 H   0  0  0  0  0  0
  -24.5928  -30.7064   25.7635 H   0  0  0  0  0  0
  -24.8769  -32.2976   26.4555 H   0  0  0  0  0  0
  -25.7887  -30.9113   27.0231 H   0  0  0  0  0  0
  -26.3093  -29.6583   24.1450 H   0  0  0  0  0  0
  -27.3931  -29.7278   25.5120 H   0  0  0  0  0  0
  -27.9067  -30.4056   23.9885 H   0  0  0  0  0  0
  -27.2594  -33.3711   26.1943 H   0  0  0  0  0  0
  -28.3909  -32.6877   25.0368 H   0  0  0  0  0  0
  -28.0653  -31.8594   26.5519 H   0  0  0  0  0  0
  -28.2535  -38.0089   24.7547 H   0  0  0  0  0  0
  -28.1138  -36.2615   24.6210 H   0  0  0  0  0  0
  -27.2304  -37.1288   25.8856 H   0  0  0  0  0  0
  -20.9595  -29.8711   21.6641 H   0  0  0  0  0  0
  -26.0119  -38.2752   24.1488 H   0  0  0  0  0  0
  -28.9183  -19.8449   22.1078 H   0  0  0  0  0  0
  -27.0363  -22.7435   14.0243 H   0  0  0  0  0  0
  -26.2637  -23.0074   15.5861 H   0  0  0  0  0  0
  -26.4622  -21.3732   14.9609 H   0  0  0  0  0  0
  -29.0662  -24.0813   14.8074 H   0  0  0  0  0  0
  -29.9727  -23.5951   16.2216 H   0  0  0  0  0  0
  -28.3824  -24.3339   16.4089 H   0  0  0  0  0  0
  -28.4687  -16.4783   20.4798 H   0  0  0  0  0  0
  -29.4918  -16.7706   21.8129 H   0  0  0  0  0  0
  -30.1989  -20.7382   17.1196 H   0  0  0  0  0  0
  -30.0540  -22.2140   18.0567 H   0  0  0  0  0  0
  -27.5567  -22.1795   17.7596 H   0  0  0  0  0  0
  -27.6613  -20.6295   16.9786 H   0  0  0  0  0  0
  -28.6926  -22.6814   21.6972 H   0  0  0  0  0  0
  -29.9876  -23.0043   20.6295 H   0  0  0  0  0  0
  -27.0337  -23.9661   20.1815 H   0  0  0  0  0  0
  -28.1968  -24.1161   18.9288 H   0  0  0  0  0  0
  -28.9421  -21.6221   15.0964 H   0  0  0  0  0  0
  -29.8157  -18.5830   18.2624 H   0  0  0  0  0  0
  1 25  1  0  0  0
  1 30  2  0  0  0
  1 76  1  0  0  0
  2  3  1  0  0  0
  2 25  1  0  0  0
  2 84  1  0  0  0
  2 85  1  0  0  0
  3  4  1  0  0  0
  3 86  1  0  0  0
  3 87  1  0  0  0
  4  5  1  0  0  0
  4 88  1  0  0  0
  4 89  1  0  0  0
  5  6  1  0  0  0
  5 26  1  0  0  0
  5 90  1  0  0  0
  6 25  1  0  0  0
  6 91  1  0  0  0
  6 92  1  0  0  0
  7  8  2  0  0  0
  7 26  1  0  0  0
  7 29  1  0  0  0
  8  9  1  0  0  0
  8 22  1  0  0  0
  9 10  1  0  0  0
  9 27  2  0  0  0
 10 11  2  0  0  0
 10 15  1  0  0  0
 11 12  1  0  0  0
 11 93  1  0  0  0
 12 13  2  0  0  0
 12 94  1  0  0  0
 13 14  1  0  0  0
 13 31  1  0  0  0
 14 15  2  0  0  0
 14 95  1  0  0  0
 15 96  1  0  0  0
 16 17  2  0  0  0
 16 21  1  0  0  0
 16 31  1  0  0  0
 17 18  1  0  0  0
 17 97  1  0  0  0
 18 19  2  0  0  0
 18 98  1  0  0  0
 19 20  1  0  0  0
 19 24  1  0  0  0
 20 21  2  0  0  0
 20 99  1  0  0  0
 21 23  1  0  0  0
 22 28  1  0  0  0
 22 32  2  0  0  0
 26 27  1  0  0  0
 28100  1  0  0  0
 28101  1  0  0  0
 29102  1  0  0  0
 29103  1  0  0  0
 33 34  1  0  0  0
 33 66  1  0  0  0
 33 70  2  0  0  0
 34 36  1  0  0  0
 34 59  1  0  0  0
 34104  1  0  0  0
 35 44  2  0  0  0
 35 45  1  0  0  0
 35 68  1  0  0  0
 36 56  1  0  0  0
 36105  1  0  0  0
 37 39  1  0  0  0
 37 47  1  0  0  0
 37 66  1  0  0  0
 37106  1  0  0  0
 38 43  2  0  0  0
 38 46  1  0  0  0
 38 47  1  0  0  0
 39 64  1  0  0  0
 39 67  2  0  0  0
 40 52  1  0  0  0
 40 53  2  0  0  0
 40 58  1  0  0  0
 41107  1  0  0  0
 41108  1  0  0  0
 41109  1  0  0  0
 41 48  1  0  0  0
 42 43  1  0  0  0
 42 66  1  0  0  0
 42110  1  0  0  0
 42111  1  0  0  0
 43 44  1  0  0  0
 44112  1  0  0  0
 45 46  2  0  0  0
 45113  1  0  0  0
 46114  1  0  0  0
 47115  1  0  0  0
 47116  1  0  0  0
 48 56  1  0  0  0
 48 65  1  0  0  0
 48117  1  0  0  0
 49 50  1  0  0  0
 49 53  1  0  0  0
 49 64  1  0  0  0
 49118  1  0  0  0
 50 51  1  0  0  0
 50119  1  0  0  0
 50120  1  0  0  0
 51 52  1  0  0  0
 51121  1  0  0  0
 51122  1  0  0  0
 52123  1  0  0  0
 52124  1  0  0  0
 53 54  1  0  0  0
 54 55  2  0  0  0
 54125  1  0  0  0
 55 57  1  0  0  0
 55126  1  0  0  0
 56 69  2  0  0  0
 57 58  2  0  0  0
 57127  1  0  0  0
 58128  1  0  0  0
 59 60  1  0  0  0
 59 61  1  0  0  0
 59 62  1  0  0  0
 60129  1  0  0  0
 60130  1  0  0  0
 60131  1  0  0  0
 61132  1  0  0  0
 61133  1  0  0  0
 61134  1  0  0  0
 62135  1  0  0  0
 62136  1  0  0  0
 62137  1  0  0  0
 63 65  1  0  0  0
 63138  1  0  0  0
 63139  1  0  0  0
 63140  1  0  0  0
 64141  1  0  0  0
 65142  1  0  0  0
 68 80  1  0  0  0
 71 72  2  0  0  0
 71 82  1  0  0  0
 71143  1  0  0  0
 72 76  1  0  0  0
 72 83  1  0  0  0
 73 77  1  0  0  0
 73 82  1  0  0  0
 73 83  2  0  0  0
 74144  1  0  0  0
 74145  1  0  0  0
 74146  1  0  0  0
 74 81  1  0  0  0
 75 81  1  0  0  0
 75147  1  0  0  0
 75148  1  0  0  0
 75149  1  0  0  0
 76150  1  0  0  0
 76151  1  0  0  0
 77 78  1  0  0  0
 77152  1  0  0  0
 77153  1  0  0  0
 78 81  1  0  0  0
 78154  1  0  0  0
 78155  1  0  0  0
 79 80  1  0  0  0
 79 82  1  0  0  0
 79156  1  0  0  0
 79157  1  0  0  0
 80158  1  0  0  0
 80159  1  0  0  0
 81160  1  0  0  0
 83161  1  0  0  0
M  CHG  1  83   1
M  ISO  4   1 100  68 101  76 100  80 101
M  END
> <chiral flag>
0

> <version>
0

> <s_m_source_file>
/data/baiqing/PycharmProjects/Reinvent-master-3.2/result/LINK_invent/BTK/process_docking_weight1_custom_sum_contain_oxygen_bond_distance_aromatic_linkinvent_7_9_3/rearranged_h_0053.sdf

> <i_m_source_file_index>
18

> <r_mmod_Potential_Energy-OPLS-2005>
1363.74536132812

> <r_mmod_Stretch_Energy-OPLS-2005>
631.549499511719

> <r_mmod_Bend_Energy-OPLS-2005>
477.301574707031

> <r_mmod_Torsional_Energy-OPLS-2005>
201.904312133789

> <r_mmod_Improper_Torsional_Energy-OPLS-2005>
4.05924320220947

> <r_mmod_Van_der_Waal_Energy-OPLS-2005>
98.1523132324219

> <r_mmod_Electrostatic_Energy-OPLS-2005>
-123.363777160645

> <r_mmod_Solvation_Energy-OPLS-2005>
-411.65283203125

> <b_mmod_Minimization_Converged-OPLS-2005>
0

> <r_mmod_RMS_Derivative-OPLS-2005>
1.85750985145569

$$$$
18
                    3D
 Structure written by MMmdl.
165173  0  0  1  0            999 V2000
  -30.7307  -14.6385   20.5640 C   0  0  0  0  0  0
  -30.4320  -12.4302   19.4362 C   0  0  0  0  0  0
  -29.4947  -12.5198   18.2139 C   0  0  0  0  0  0
  -28.0262  -12.3234   18.6330 C   0  0  0  0  0  0
  -27.6481  -13.1785   19.8673 C   0  0  2  0  0  0
  -28.7132  -13.0399   20.9794 C   0  0  0  0  0  0
  -25.2480  -13.7911   20.5648 C   0  0  0  0  0  0
  -24.1746  -13.0272   20.9188 C   0  0  0  0  0  0
  -24.6294  -11.6720   20.8776 C   0  0  0  0  0  0
  -23.8926  -10.4180   21.0469 C   0  0  0  0  0  0
  -24.3484   -9.4100   21.9252 C   0  0  0  0  0  0
  -23.6177   -8.2135   22.0803 C   0  0  0  0  0  0
  -22.4166   -8.0195   21.3577 C   0  0  0  0  0  0
  -21.9786   -9.0148   20.4652 C   0  0  0  0  0  0
  -22.7092  -10.2044   20.3084 C   0  0  0  0  0  0
  -21.6802   -6.0649   22.5288 C   0  0  0  0  0  0
  -21.3992   -6.5577   23.8212 C   0  0  0  0  0  0
  -21.3656   -5.6741   24.9184 C   0  0  0  0  0  0
  -21.6036   -4.3008   24.7247 C   0  0  0  0  0  0
  -21.8815   -3.8084   23.4381 C   0  0  0  0  0  0
  -21.9160   -4.6880   22.3418 C   0  0  0  0  0  0
  -22.7793  -13.5164   21.1852 C   0  0  0  0  0  0
  -22.1618   -4.2041   21.1006 F   0  0  0  0  0  0
  -21.5629   -3.4518   25.7793 F   0  0  0  0  0  0
  -30.0106  -13.4609   20.4299 N   0  0  0  0  0  0
  -26.2940  -12.9076   20.3376 N   0  0  0  0  0  0
  -25.9229  -11.6260   20.5786 N   0  0  0  0  0  0
  -22.0330  -12.8223   22.0381 N   0  0  0  0  0  0
  -25.4179  -15.1602   20.3963 N   0  0  0  0  0  0
  -31.8542  -14.6676   20.0517 O   0  0  0  0  0  0
  -21.6563   -6.8779   21.4241 O   0  0  0  0  0  0
  -22.3621  -14.5567   20.6767 O   0  0  0  0  0  0
  -24.6220  -31.8627   23.2070 C   0  0  0  0  0  0
  -25.9064  -32.4806   23.8404 C   0  0  1  0  0  0
  -27.2385  -27.3652   20.1330 C   0  0  0  0  0  0
  -25.5896  -33.8613   24.2321 N   0  0  0  0  0  0
  -23.4161  -30.4832   21.5489 C   0  0  2  0  0  0
  -24.8652  -28.9450   20.1162 C   0  0  0  0  0  0
  -22.7474  -29.4610   22.4986 C   0  0  0  0  0  0
  -18.0278  -28.1378   22.8484 C   0  0  0  0  0  0
  -24.1480  -36.7309   23.2638 C   0  0  0  0  0  0
  -25.9513  -30.8103   21.3692 C   0  0  0  0  0  0
  -26.0300  -29.4415   20.7139 C   0  0  0  0  0  0
  -27.2198  -28.6656   20.7072 C   0  0  0  0  0  0
  -26.0491  -26.9094   19.5102 C   0  0  0  0  0  0
  -24.8745  -27.6820   19.5060 C   0  0  0  0  0  0
  -23.6299  -29.8161   20.1643 C   0  0  0  0  0  0
  -25.4100  -36.3114   24.0346 C   0  0  1  0  0  0
  -20.5877  -28.3665   23.1304 C   0  0  2  0  0  0
  -20.6776  -26.9397   22.5409 C   0  0  0  0  0  0
  -19.5751  -26.6379   21.5214 C   0  0  0  0  0  0
  -18.1927  -26.7923   22.1631 C   0  0  0  0  0  0
  -19.1531  -28.8838   23.2887 C   0  0  0  0  0  0
  -18.9459  -30.1446   23.8896 C   0  0  0  0  0  0
  -17.6461  -30.6585   24.0555 C   0  0  0  0  0  0
  -25.9030  -34.9474   23.5135 C   0  0  0  0  0  0
  -16.5348  -29.9079   23.6327 C   0  0  0  0  0  0
  -16.7267  -28.6494   23.0348 C   0  0  0  0  0  0
  -26.4457  -31.6612   25.0761 C   0  0  0  0  0  0
  -25.3715  -31.3722   26.1510 C   0  0  0  0  0  0
  -27.0281  -30.3056   24.6156 C   0  0  0  0  0  0
  -27.6039  -32.4330   25.7514 C   0  0  0  0  0  0
  -27.5583  -37.1810   24.8470 C   0  0  0  0  0  0
  -21.4190  -29.3032   22.3723 N   0  0  0  0  0  0
  -26.4291  -37.3801   23.9418 N   0  0  0  0  0  0
  -24.6813  -31.0676   22.0992 N   0  0  0  0  0  0
  -23.4212  -28.8137   23.3045 O   0  0  0  0  0  0
  -28.3804  -26.5633   20.2238 O   0  0  0  0  0  0
  -26.5602  -34.8927   22.4707 O   0  0  0  0  0  0
  -23.5389  -32.1384   23.7420 O   0  0  0  0  0  0
  -30.7183  -21.3468   21.5870 C   0  0  0  0  0  0
  -30.1413  -20.2065   19.8335 C   0  0  0  0  0  0
  -29.9757  -21.4691   20.3724 C   0  0  0  0  0  0
  -29.4255  -22.6988   18.2506 C   0  0  0  0  0  0
  -28.2068  -16.8819   20.2647 C   0  0  0  0  0  0
  -28.1727  -15.8204   22.6734 C   0  0  0  0  0  0
  -29.3412  -24.1080   20.3902 C   0  0  0  0  0  0
  -31.4503  -18.0335   20.4230 C   0  0  0  0  0  0
  -31.3163  -16.8925   21.5095 C   0  0  0  0  0  0
  -28.2332  -25.1411   19.9289 C   0  0  0  0  0  0
  -29.1692  -22.6578   19.7720 C   0  0  2  0  0  0
  -28.9773  -16.4146   21.5074 C   0  0  0  0  0  0
  -31.2548  -20.1315   21.7640 N   0  0  0  0  0  0
  -30.8914  -19.3963   20.6836 N   0  0  0  0  0  0
  -30.3102  -15.8049   21.2185 N   0  0  0  0  0  0
  -31.4643  -12.5384   19.0948 H   0  0  0  0  0  0
  -30.3965  -11.4287   19.8680 H   0  0  0  0  0  0
  -29.7749  -11.7719   17.4716 H   0  0  0  0  0  0
  -29.6146  -13.4919   17.7333 H   0  0  0  0  0  0
  -27.8845  -11.2653   18.8531 H   0  0  0  0  0  0
  -27.3621  -12.5490   17.7986 H   0  0  0  0  0  0
  -27.6444  -14.1910   19.5014 H   0  0  0  0  0  0
  -28.7638  -11.9945   21.2843 H   0  0  0  0  0  0
  -28.4579  -13.5435   21.8950 H   0  0  0  0  0  0
  -25.2647   -9.5534   22.4809 H   0  0  0  0  0  0
  -23.9874   -7.4473   22.7491 H   0  0  0  0  0  0
  -21.0719   -8.8571   19.8955 H   0  0  0  0  0  0
  -22.3531  -10.9552   19.6155 H   0  0  0  0  0  0
  -21.2009   -7.6098   23.9692 H   0  0  0  0  0  0
  -21.1482   -6.0497   25.9073 H   0  0  0  0  0  0
  -22.0626   -2.7548   23.2926 H   0  0  0  0  0  0
  -22.3916  -11.9949   22.4915 H   0  0  0  0  0  0
  -21.0997  -13.1411   22.2586 H   0  0  0  0  0  0
  -24.6654  -15.8254   20.5266 H   0  0  0  0  0  0
  -26.3033  -15.5984   20.1845 H   0  0  0  0  0  0
  -26.7130  -32.5486   23.1167 H   0  0  0  0  0  0
  -25.0061  -33.9769   25.0475 H   0  0  0  0  0  0
  -22.7068  -31.3013   21.4075 H   0  0  0  0  0  0
  -23.3755  -35.9632   23.3301 H   0  0  0  0  0  0
  -24.3570  -36.8918   22.2051 H   0  0  0  0  0  0
  -23.7208  -37.6512   23.6634 H   0  0  0  0  0  0
  -26.0762  -31.5739   20.6008 H   0  0  0  0  0  0
  -26.8351  -30.8632   21.9930 H   0  0  0  0  0  0
  -28.1182  -29.0448   21.1744 H   0  0  0  0  0  0
  -25.9868  -25.9409   19.0374 H   0  0  0  0  0  0
  -23.9812  -27.2894   19.0401 H   0  0  0  0  0  0
  -23.7471  -30.5922   19.4084 H   0  0  0  0  0  0
  -22.7523  -29.2417   19.8623 H   0  0  0  0  0  0
  -25.1270  -36.2000   25.0841 H   0  0  0  0  0  0
  -20.9958  -28.3220   24.1435 H   0  0  0  0  0  0
  -20.5686  -26.2270   23.3594 H   0  0  0  0  0  0
  -21.6637  -26.7440   22.1192 H   0  0  0  0  0  0
  -19.6909  -25.6290   21.1234 H   0  0  0  0  0  0
  -19.6688  -27.3195   20.6743 H   0  0  0  0  0  0
  -17.4197  -26.6661   21.4033 H   0  0  0  0  0  0
  -18.0338  -26.0063   22.9027 H   0  0  0  0  0  0
  -19.7926  -30.7264   24.2275 H   0  0  0  0  0  0
  -17.5004  -31.6265   24.5159 H   0  0  0  0  0  0
  -15.5344  -30.2980   23.7650 H   0  0  0  0  0  0
  -15.8669  -28.0812   22.7074 H   0  0  0  0  0  0
  -24.5912  -30.7032   25.7858 H   0  0  0  0  0  0
  -24.8872  -32.2870   26.4949 H   0  0  0  0  0  0
  -25.8083  -30.8920   27.0282 H   0  0  0  0  0  0
  -26.2833  -29.6852   24.1162 H   0  0  0  0  0  0
  -27.3989  -29.7266   25.4624 H   0  0  0  0  0  0
  -27.8699  -30.4377   23.9355 H   0  0  0  0  0  0
  -27.2682  -33.3645   26.2092 H   0  0  0  0  0  0
  -28.3853  -32.6874   25.0335 H   0  0  0  0  0  0
  -28.0704  -31.8452   26.5434 H   0  0  0  0  0  0
  -28.2609  -38.0099   24.7529 H   0  0  0  0  0  0
  -28.1073  -36.2641   24.6286 H   0  0  0  0  0  0
  -27.2304  -37.1449   25.8873 H   0  0  0  0  0  0
  -20.9380  -29.8766   21.6938 H   0  0  0  0  0  0
  -26.0193  -38.2888   24.1426 H   0  0  0  0  0  0
  -30.8879  -22.1047   22.3383 H   0  0  0  0  0  0
  -29.7935  -19.8193   18.8867 H   0  0  0  0  0  0
  -29.0811  -21.7881   17.7607 H   0  0  0  0  0  0
  -30.4910  -22.8028   18.0438 H   0  0  0  0  0  0
  -28.9208  -23.5207   17.7467 H   0  0  0  0  0  0
  -28.7283  -17.7100   19.7880 H   0  0  0  0  0  0
  -27.2272  -17.2761   20.5364 H   0  0  0  0  0  0
  -28.1042  -16.1326   19.4927 H   0  0  0  0  0  0
  -27.8010  -16.6109   23.3301 H   0  0  0  0  0  0
  -28.7895  -15.1780   23.3031 H   0  0  0  0  0  0
  -27.2913  -15.2745   22.3429 H   0  0  0  0  0  0
  -29.2936  -24.0422   21.4792 H   0  0  0  0  0  0
  -30.3346  -24.4884   20.1586 H   0  0  0  0  0  0
  -31.0757  -17.6766   19.4648 H   0  0  0  0  0  0
  -32.5164  -18.1838   20.2557 H   0  0  0  0  0  0
  -31.1615  -17.3215   22.4998 H   0  0  0  0  0  0
  -32.3010  -16.4375   21.6282 H   0  0  0  0  0  0
  -27.2944  -24.7673   20.3419 H   0  0  0  0  0  0
  -28.1249  -25.1078   18.8486 H   0  0  0  0  0  0
  -28.1123  -22.4213   19.9087 H   0  0  0  0  0  0
  -29.1517  -17.4003   21.9464 H   0  0  0  0  0  0
  1 25  1  0  0  0
  1 30  2  0  0  0
  1 85  1  0  0  0
  2  3  1  0  0  0
  2 25  1  0  0  0
  2 86  1  0  0  0
  2 87  1  0  0  0
  3  4  1  0  0  0
  3 88  1  0  0  0
  3 89  1  0  0  0
  4  5  1  0  0  0
  4 90  1  0  0  0
  4 91  1  0  0  0
  5  6  1  0  0  0
  5 26  1  0  0  0
  5 92  1  0  0  0
  6 25  1  0  0  0
  6 93  1  0  0  0
  6 94  1  0  0  0
  7  8  2  0  0  0
  7 26  1  0  0  0
  7 29  1  0  0  0
  8  9  1  0  0  0
  8 22  1  0  0  0
  9 10  1  0  0  0
  9 27  2  0  0  0
 10 11  2  0  0  0
 10 15  1  0  0  0
 11 12  1  0  0  0
 11 95  1  0  0  0
 12 13  2  0  0  0
 12 96  1  0  0  0
 13 14  1  0  0  0
 13 31  1  0  0  0
 14 15  2  0  0  0
 14 97  1  0  0  0
 15 98  1  0  0  0
 16 17  2  0  0  0
 16 21  1  0  0  0
 16 31  1  0  0  0
 17 18  1  0  0  0
 17 99  1  0  0  0
 18 19  2  0  0  0
 18100  1  0  0  0
 19 20  1  0  0  0
 19 24  1  0  0  0
 20 21  2  0  0  0
 20101  1  0  0  0
 21 23  1  0  0  0
 22 28  1  0  0  0
 22 32  2  0  0  0
 26 27  1  0  0  0
 28102  1  0  0  0
 28103  1  0  0  0
 29104  1  0  0  0
 29105  1  0  0  0
 33 34  1  0  0  0
 33 66  1  0  0  0
 33 70  2  0  0  0
 34 36  1  0  0  0
 34 59  1  0  0  0
 34106  1  0  0  0
 35 44  2  0  0  0
 35 45  1  0  0  0
 35 68  1  0  0  0
 36 56  1  0  0  0
 36107  1  0  0  0
 37 39  1  0  0  0
 37 47  1  0  0  0
 37 66  1  0  0  0
 37108  1  0  0  0
 38 43  2  0  0  0
 38 46  1  0  0  0
 38 47  1  0  0  0
 39 64  1  0  0  0
 39 67  2  0  0  0
 40 52  1  0  0  0
 40 53  2  0  0  0
 40 58  1  0  0  0
 41109  1  0  0  0
 41110  1  0  0  0
 41111  1  0  0  0
 41 48  1  0  0  0
 42 43  1  0  0  0
 42 66  1  0  0  0
 42112  1  0  0  0
 42113  1  0  0  0
 43 44  1  0  0  0
 44114  1  0  0  0
 45 46  2  0  0  0
 45115  1  0  0  0
 46116  1  0  0  0
 47117  1  0  0  0
 47118  1  0  0  0
 48 56  1  0  0  0
 48 65  1  0  0  0
 48119  1  0  0  0
 49 50  1  0  0  0
 49 53  1  0  0  0
 49 64  1  0  0  0
 49120  1  0  0  0
 50 51  1  0  0  0
 50121  1  0  0  0
 50122  1  0  0  0
 51 52  1  0  0  0
 51123  1  0  0  0
 51124  1  0  0  0
 52125  1  0  0  0
 52126  1  0  0  0
 53 54  1  0  0  0
 54 55  2  0  0  0
 54127  1  0  0  0
 55 57  1  0  0  0
 55128  1  0  0  0
 56 69  2  0  0  0
 57 58  2  0  0  0
 57129  1  0  0  0
 58130  1  0  0  0
 59 60  1  0  0  0
 59 61  1  0  0  0
 59 62  1  0  0  0
 60131  1  0  0  0
 60132  1  0  0  0
 60133  1  0  0  0
 61134  1  0  0  0
 61135  1  0  0  0
 61136  1  0  0  0
 62137  1  0  0  0
 62138  1  0  0  0
 62139  1  0  0  0
 63 65  1  0  0  0
 63140  1  0  0  0
 63141  1  0  0  0
 63142  1  0  0  0
 64143  1  0  0  0
 65144  1  0  0  0
 68 80  1  0  0  0
 71 73  1  0  0  0
 71 83  2  0  0  0
 71145  1  0  0  0
 72 73  2  0  0  0
 72 84  1  0  0  0
 72146  1  0  0  0
 73 81  1  0  0  0
 74147  1  0  0  0
 74148  1  0  0  0
 74149  1  0  0  0
 74 81  1  0  0  0
 75150  1  0  0  0
 75151  1  0  0  0
 75152  1  0  0  0
 75 82  1  0  0  0
 76 82  1  0  0  0
 76153  1  0  0  0
 76154  1  0  0  0
 76155  1  0  0  0
 77 80  1  0  0  0
 77 81  1  0  0  0
 77156  1  0  0  0
 77157  1  0  0  0
 78 79  1  0  0  0
 78 84  1  0  0  0
 78158  1  0  0  0
 78159  1  0  0  0
 79 85  1  0  0  0
 79160  1  0  0  0
 79161  1  0  0  0
 80162  1  0  0  0
 80163  1  0  0  0
 81164  1  0  0  0
 82 85  1  0  0  0
 82165  1  0  0  0
 83 84  1  0  0  0
M  ISO  4   1 100  68 101  80 101  85 100
M  END
> <chiral flag>
0

> <version>
0

> <s_m_source_file>
/data/baiqing/PycharmProjects/Reinvent-master-3.2/result/LINK_invent/BTK/process_docking_weight1_custom_sum_contain_oxygen_bond_distance_aromatic_linkinvent_7_9_3/rearranged_h_0053.sdf

> <i_m_source_file_index>
19

> <r_mmod_Potential_Energy-OPLS-2005>
312.675201416016

> <r_mmod_Stretch_Energy-OPLS-2005>
79.9743576049805

> <r_mmod_Bend_Energy-OPLS-2005>
216.060546875

> <r_mmod_Torsional_Energy-OPLS-2005>
286.967742919922

> <r_mmod_Improper_Torsional_Energy-OPLS-2005>
2.97904586791992

> <r_mmod_Van_der_Waal_Energy-OPLS-2005>
149.183319091797

> <r_mmod_Electrostatic_Energy-OPLS-2005>
-259.253997802734

> <r_mmod_Solvation_Energy-OPLS-2005>
-203.807739257812

> <b_mmod_Minimization_Converged-OPLS-2005>
0

> <r_mmod_RMS_Derivative-OPLS-2005>
5.39915561676025

$$$$
19
                    3D
 Structure written by MMmdl.
153162  0  0  1  0            999 V2000
  -30.3944  -15.4409   20.3441 C   0  0  0  0  0  0
  -30.4299  -12.9436   19.5175 C   0  0  0  0  0  0
  -29.5361  -12.6133   18.2926 C   0  0  0  0  0  0
  -28.0946  -12.3028   18.7318 C   0  0  0  0  0  0
  -27.6006  -13.2935   19.8137 C   0  0  2  0  0  0
  -28.6332  -13.5540   20.9321 C   0  0  0  0  0  0
  -25.2342  -13.8263   20.5794 C   0  0  0  0  0  0
  -24.1723  -13.0435   20.9303 C   0  0  0  0  0  0
  -24.6400  -11.6943   20.8782 C   0  0  0  0  0  0
  -23.9106  -10.4292   21.0402 C   0  0  0  0  0  0
  -24.3651   -9.4209   21.9182 C   0  0  0  0  0  0
  -23.6331   -8.2234   22.0745 C   0  0  0  0  0  0
  -22.4305   -8.0273   21.3536 C   0  0  0  0  0  0
  -21.9944   -9.0245   20.4639 C   0  0  0  0  0  0
  -22.7270  -10.2135   20.3055 C   0  0  0  0  0  0
  -21.6851   -6.0748   22.5279 C   0  0  0  0  0  0
  -21.4001   -6.5656   23.8220 C   0  0  0  0  0  0
  -21.3667   -5.6807   24.9176 C   0  0  0  0  0  0
  -21.6041   -4.3071   24.7219 C   0  0  0  0  0  0
  -21.8817   -3.8160   23.4337 C   0  0  0  0  0  0
  -21.9186   -4.6973   22.3401 C   0  0  0  0  0  0
  -22.7733  -13.5166   21.1919 C   0  0  0  0  0  0
  -22.1661   -4.2161   21.0975 F   0  0  0  0  0  0
  -21.5635   -3.4552   25.7730 F   0  0  0  0  0  0
  -29.8312  -14.1155   20.2761 N   0  0  0  0  0  0
  -26.2783  -12.9579   20.3239 N   0  0  0  0  0  0
  -25.9339  -11.6664   20.5715 N   0  0  0  0  0  0
  -22.0413  -12.8134   22.0488 N   0  0  0  0  0  0
  -25.3941  -15.1997   20.4230 N   0  0  0  0  0  0
  -31.6291  -15.3766   20.2255 O   0  0  0  0  0  0
  -21.6653   -6.8883   21.4237 O   0  0  0  0  0  0
  -22.3415  -14.5467   20.6768 O   0  0  0  0  0  0
  -24.6719  -31.8149   23.1647 C   0  0  0  0  0  0
  -25.9354  -32.4558   23.8157 C   0  0  1  0  0  0
  -27.2270  -26.8312   20.2087 C   0  0  0  0  0  0
  -25.5990  -33.8381   24.2046 N   0  0  0  0  0  0
  -23.4939  -30.4226   21.5147 C   0  0  2  0  0  0
  -24.9503  -28.7886   20.1258 C   0  0  0  0  0  0
  -22.7717  -29.4405   22.4753 C   0  0  0  0  0  0
  -18.0332  -28.1434   22.8472 C   0  0  0  0  0  0
  -24.1482  -36.7171   23.2653 C   0  0  0  0  0  0
  -26.0704  -30.5928   21.4104 C   0  0  0  0  0  0
  -26.1388  -29.1687   20.7620 C   0  0  0  0  0  0
  -27.2697  -28.2175   20.7681 C   0  0  0  0  0  0
  -26.0047  -26.6262   19.5277 C   0  0  0  0  0  0
  -24.9141  -27.5379   19.4888 C   0  0  0  0  0  0
  -23.7423  -29.7299   20.1464 C   0  0  0  0  0  0
  -25.4132  -36.2939   24.0291 C   0  0  1  0  0  0
  -20.5966  -28.3781   23.1180 C   0  0  2  0  0  0
  -20.6809  -26.9447   22.5420 C   0  0  0  0  0  0
  -19.5776  -26.6389   21.5236 C   0  0  0  0  0  0
  -18.1957  -26.7979   22.1630 C   0  0  0  0  0  0
  -19.1593  -28.8931   23.2819 C   0  0  0  0  0  0
  -18.9498  -30.1510   23.8863 C   0  0  0  0  0  0
  -17.6488  -30.6620   24.0550 C   0  0  0  0  0  0
  -25.9103  -34.9328   23.4989 C   0  0  0  0  0  0
  -16.5380  -29.9097   23.6348 C   0  0  0  0  0  0
  -16.7308  -28.6517   23.0374 C   0  0  0  0  0  0
  -26.4569  -31.6547   25.0722 C   0  0  0  0  0  0
  -25.3668  -31.3821   26.1356 C   0  0  0  0  0  0
  -27.0472  -30.2912   24.6523 C   0  0  0  0  0  0
  -27.6073  -32.4365   25.7500 C   0  0  0  0  0  0
  -27.5554  -37.1735   24.8459 C   0  0  0  0  0  0
  -21.4375  -29.3055   22.3510 N   0  0  0  0  0  0
  -26.4267  -37.3685   23.9413 N   0  0  0  0  0  0
  -24.7678  -30.9721   22.0836 N   0  0  0  0  0  0
  -23.4222  -28.7963   23.3021 O   0  0  0  0  0  0
  -28.2274  -25.6869   20.1875 O   0  0  0  0  0  0
  -26.5718  -34.8879   22.4585 O   0  0  0  0  0  0
  -23.5761  -32.1152   23.6676 O   0  0  0  0  0  0
  -28.8978  -20.6228   18.8211 C   0  0  0  0  0  0
  -28.5715  -21.9956   18.8646 C   0  0  0  0  0  0
  -32.8231  -18.4568   18.3131 C   0  0  0  0  0  0
  -29.2219  -20.0720   20.1156 C   0  0  0  0  0  0
  -31.3164  -18.5408   19.7521 C   0  0  0  0  0  0
  -32.7118  -19.5981   21.6092 C   0  0  0  0  0  0
  -27.9531  -24.1133   20.6425 C   0  0  0  0  0  0
  -29.9939  -18.4562   20.4791 C   0  0  2  0  0  0
  -31.5034  -18.1503   18.4872 N   0  0  0  0  0  0
  -33.4283  -18.9959   19.3687 N   0  0  0  0  0  0
  -29.0022  -21.3276   20.8691 N   0  0  0  0  0  0
  -28.6018  -22.5898   20.1327 N   0  0  0  0  0  0
  -32.4363  -19.0503   20.2930 N   0  0  0  0  0  0
  -29.6602  -16.7712   20.3604 N   0  0  0  0  0  0
  -31.4364  -13.1776   19.1659 H   0  0  0  0  0  0
  -30.5465  -12.0691   20.1599 H   0  0  0  0  0  0
  -29.9487  -11.7743   17.7310 H   0  0  0  0  0  0
  -29.5338  -13.4656   17.6115 H   0  0  0  0  0  0
  -28.0806  -11.2873   19.1277 H   0  0  0  0  0  0
  -27.4220  -12.3043   17.8741 H   0  0  0  0  0  0
  -27.4833  -14.2398   19.2840 H   0  0  0  0  0  0
  -28.8515  -12.6498   21.5018 H   0  0  0  0  0  0
  -28.2426  -14.2848   21.6426 H   0  0  0  0  0  0
  -25.2796   -9.5699   22.4764 H   0  0  0  0  0  0
  -24.0040   -7.4624   22.7467 H   0  0  0  0  0  0
  -21.0868   -8.8758   19.8960 H   0  0  0  0  0  0
  -22.3697  -10.9675   19.6178 H   0  0  0  0  0  0
  -21.1988   -7.6164   23.9721 H   0  0  0  0  0  0
  -21.1498   -6.0541   25.9082 H   0  0  0  0  0  0
  -22.0585   -2.7622   23.2832 H   0  0  0  0  0  0
  -22.4070  -11.9817   22.4881 H   0  0  0  0  0  0
  -21.1018  -13.1112   22.2698 H   0  0  0  0  0  0
  -24.6236  -15.8494   20.5344 H   0  0  0  0  0  0
  -26.2345  -15.6397   20.0750 H   0  0  0  0  0  0
  -26.7430  -32.5068   23.0874 H   0  0  0  0  0  0
  -25.0089  -33.9474   25.0168 H   0  0  0  0  0  0
  -22.8121  -31.2550   21.3315 H   0  0  0  0  0  0
  -23.3770  -35.9478   23.3291 H   0  0  0  0  0  0
  -24.3558  -36.8849   22.2071 H   0  0  0  0  0  0
  -23.7211  -37.6335   23.6738 H   0  0  0  0  0  0
  -26.2612  -31.3266   20.6252 H   0  0  0  0  0  0
  -26.9291  -30.6592   22.0673 H   0  0  0  0  0  0
  -28.1726  -28.5247   21.2754 H   0  0  0  0  0  0
  -25.8649  -25.6801   19.0248 H   0  0  0  0  0  0
  -24.0162  -27.2375   18.9690 H   0  0  0  0  0  0
  -23.9123  -30.4956   19.3880 H   0  0  0  0  0  0
  -22.8508  -29.1922   19.8175 H   0  0  0  0  0  0
  -25.1332  -36.1701   25.0779 H   0  0  0  0  0  0
  -21.0066  -28.3393   24.1302 H   0  0  0  0  0  0
  -20.5697  -26.2390   23.3678 H   0  0  0  0  0  0
  -21.6652  -26.7414   22.1201 H   0  0  0  0  0  0
  -19.6925  -25.6280   21.1303 H   0  0  0  0  0  0
  -19.6725  -27.3171   20.6744 H   0  0  0  0  0  0
  -17.4226  -26.6752   21.4025 H   0  0  0  0  0  0
  -18.0305  -26.0147   22.9039 H   0  0  0  0  0  0
  -19.7961  -30.7341   24.2230 H   0  0  0  0  0  0
  -17.5031  -31.6296   24.5150 H   0  0  0  0  0  0
  -15.5374  -30.2981   23.7722 H   0  0  0  0  0  0
  -15.8710  -28.0815   22.7121 H   0  0  0  0  0  0
  -24.5875  -30.7145   25.7649 H   0  0  0  0  0  0
  -24.8813  -32.3022   26.4617 H   0  0  0  0  0  0
  -25.7880  -30.9074   27.0231 H   0  0  0  0  0  0
  -26.3142  -29.6589   24.1507 H   0  0  0  0  0  0
  -27.3943  -29.7278   25.5194 H   0  0  0  0  0  0
  -27.9118  -30.4085   24.0000 H   0  0  0  0  0  0
  -27.2670  -33.3746   26.1902 H   0  0  0  0  0  0
  -28.3976  -32.6807   25.0384 H   0  0  0  0  0  0
  -28.0665  -31.8595   26.5538 H   0  0  0  0  0  0
  -28.2537  -38.0058   24.7509 H   0  0  0  0  0  0
  -28.1073  -36.2576   24.6273 H   0  0  0  0  0  0
  -27.2277  -37.1352   25.8864 H   0  0  0  0  0  0
  -20.9642  -29.8711   21.6598 H   0  0  0  0  0  0
  -26.0083  -38.2723   24.1467 H   0  0  0  0  0  0
  -28.9456  -20.0608   17.8982 H   0  0  0  0  0  0
  -28.2732  -22.6228   18.0357 H   0  0  0  0  0  0
  -33.3495  -18.2905   17.3828 H   0  0  0  0  0  0
  -32.9120  -18.7866   22.3096 H   0  0  0  0  0  0
  -31.8609  -20.1787   21.9682 H   0  0  0  0  0  0
  -33.5849  -20.2513   21.5729 H   0  0  0  0  0  0
  -28.1137  -24.1309   21.7195 H   0  0  0  0  0  0
  -26.8769  -23.9879   20.5286 H   0  0  0  0  0  0
  -30.2153  -18.5176   21.5444 H   0  0  0  0  0  0
  -28.6636  -16.6211   20.3422 H   0  0  0  0  0  0
  1 25  1  0  0  0
  1 30  2  0  0  0
  1 84  1  0  0  0
  2  3  1  0  0  0
  2 25  1  0  0  0
  2 85  1  0  0  0
  2 86  1  0  0  0
  3  4  1  0  0  0
  3 87  1  0  0  0
  3 88  1  0  0  0
  4  5  1  0  0  0
  4 89  1  0  0  0
  4 90  1  0  0  0
  5  6  1  0  0  0
  5 26  1  0  0  0
  5 91  1  0  0  0
  6 25  1  0  0  0
  6 92  1  0  0  0
  6 93  1  0  0  0
  7  8  2  0  0  0
  7 26  1  0  0  0
  7 29  1  0  0  0
  8  9  1  0  0  0
  8 22  1  0  0  0
  9 10  1  0  0  0
  9 27  2  0  0  0
 10 11  2  0  0  0
 10 15  1  0  0  0
 11 12  1  0  0  0
 11 94  1  0  0  0
 12 13  2  0  0  0
 12 95  1  0  0  0
 13 14  1  0  0  0
 13 31  1  0  0  0
 14 15  2  0  0  0
 14 96  1  0  0  0
 15 97  1  0  0  0
 16 17  2  0  0  0
 16 21  1  0  0  0
 16 31  1  0  0  0
 17 18  1  0  0  0
 17 98  1  0  0  0
 18 19  2  0  0  0
 18 99  1  0  0  0
 19 20  1  0  0  0
 19 24  1  0  0  0
 20 21  2  0  0  0
 20100  1  0  0  0
 21 23  1  0  0  0
 22 28  1  0  0  0
 22 32  2  0  0  0
 26 27  1  0  0  0
 28101  1  0  0  0
 28102  1  0  0  0
 29103  1  0  0  0
 29104  1  0  0  0
 33 34  1  0  0  0
 33 66  1  0  0  0
 33 70  2  0  0  0
 34 36  1  0  0  0
 34 59  1  0  0  0
 34105  1  0  0  0
 35 44  2  0  0  0
 35 45  1  0  0  0
 35 68  1  0  0  0
 36 56  1  0  0  0
 36106  1  0  0  0
 37 39  1  0  0  0
 37 47  1  0  0  0
 37 66  1  0  0  0
 37107  1  0  0  0
 38 43  2  0  0  0
 38 46  1  0  0  0
 38 47  1  0  0  0
 39 64  1  0  0  0
 39 67  2  0  0  0
 40 52  1  0  0  0
 40 53  2  0  0  0
 40 58  1  0  0  0
 41108  1  0  0  0
 41109  1  0  0  0
 41110  1  0  0  0
 41 48  1  0  0  0
 42 43  1  0  0  0
 42 66  1  0  0  0
 42111  1  0  0  0
 42112  1  0  0  0
 43 44  1  0  0  0
 44113  1  0  0  0
 45 46  2  0  0  0
 45114  1  0  0  0
 46115  1  0  0  0
 47116  1  0  0  0
 47117  1  0  0  0
 48 56  1  0  0  0
 48 65  1  0  0  0
 48118  1  0  0  0
 49 50  1  0  0  0
 49 53  1  0  0  0
 49 64  1  0  0  0
 49119  1  0  0  0
 50 51  1  0  0  0
 50120  1  0  0  0
 50121  1  0  0  0
 51 52  1  0  0  0
 51122  1  0  0  0
 51123  1  0  0  0
 52124  1  0  0  0
 52125  1  0  0  0
 53 54  1  0  0  0
 54 55  2  0  0  0
 54126  1  0  0  0
 55 57  1  0  0  0
 55127  1  0  0  0
 56 69  2  0  0  0
 57 58  2  0  0  0
 57128  1  0  0  0
 58129  1  0  0  0
 59 60  1  0  0  0
 59 61  1  0  0  0
 59 62  1  0  0  0
 60130  1  0  0  0
 60131  1  0  0  0
 60132  1  0  0  0
 61133  1  0  0  0
 61134  1  0  0  0
 61135  1  0  0  0
 62136  1  0  0  0
 62137  1  0  0  0
 62138  1  0  0  0
 63 65  1  0  0  0
 63139  1  0  0  0
 63140  1  0  0  0
 63141  1  0  0  0
 64142  1  0  0  0
 65143  1  0  0  0
 68 77  1  0  0  0
 71 72  2  0  0  0
 71 74  1  0  0  0
 71144  1  0  0  0
 72 82  1  0  0  0
 72145  1  0  0  0
 73 79  1  0  0  0
 73 80  2  0  0  0
 73146  1  0  0  0
 74 78  1  0  0  0
 74 81  2  0  0  0
 75 78  1  0  0  0
 75 79  2  0  0  0
 75 83  1  0  0  0
 76 83  1  0  0  0
 76147  1  0  0  0
 76148  1  0  0  0
 76149  1  0  0  0
 77 82  1  0  0  0
 77150  1  0  0  0
 77151  1  0  0  0
 78 84  1  0  0  0
 78152  1  0  0  0
 80 83  1  0  0  0
 81 82  1  0  0  0
 84153  1  0  0  0
M  ISO  4   1 100  68 101  77 101  84 100
M  END
> <chiral flag>
0

> <version>
0

> <s_m_source_file>
/data/baiqing/PycharmProjects/Reinvent-master-3.2/result/LINK_invent/BTK/process_docking_weight1_custom_sum_contain_oxygen_bond_distance_aromatic_linkinvent_7_9_3/rearranged_h_0053.sdf

> <i_m_source_file_index>
20

> <r_mmod_Potential_Energy-OPLS-2005>
1608.75744628906

> <r_mmod_Stretch_Energy-OPLS-2005>
770.591369628906

> <r_mmod_Bend_Energy-OPLS-2005>
561.401123046875

> <r_mmod_Torsional_Energy-OPLS-2005>
231.087432861328

> <r_mmod_Improper_Torsional_Energy-OPLS-2005>
8.03408050537109

> <r_mmod_Van_der_Waal_Energy-OPLS-2005>
98.6642608642578

> <r_mmod_Electrostatic_Energy-OPLS-2005>
-425.610321044922

> <r_mmod_Solvation_Energy-OPLS-2005>
-269.776428222656

> <b_mmod_Minimization_Converged-OPLS-2005>
0

> <r_mmod_RMS_Derivative-OPLS-2005>
2.91379523277283

$$$$
20
                    3D
 Structure written by MMmdl.
151159  0  0  1  0            999 V2000
  -30.3743  -15.4432   20.3303 C   0  0  0  0  0  0
  -30.4361  -12.9461   19.5048 C   0  0  0  0  0  0
  -29.5346  -12.5724   18.2943 C   0  0  0  0  0  0
  -28.1160  -12.2176   18.7723 C   0  0  0  0  0  0
  -27.5985  -13.2470   19.7972 C   0  0  2  0  0  0
  -28.6256  -13.5407   20.9163 C   0  0  0  0  0  0
  -25.2395  -13.8079   20.5631 C   0  0  0  0  0  0
  -24.1743  -13.0352   20.9257 C   0  0  0  0  0  0
  -24.6369  -11.6836   20.8827 C   0  0  0  0  0  0
  -23.9051  -10.4227   21.0464 C   0  0  0  0  0  0
  -24.3585   -9.4152   21.9254 C   0  0  0  0  0  0
  -23.6257   -8.2185   22.0795 C   0  0  0  0  0  0
  -22.4269   -8.0216   21.3530 C   0  0  0  0  0  0
  -21.9871   -9.0226   20.4687 C   0  0  0  0  0  0
  -22.7207  -10.2099   20.3126 C   0  0  0  0  0  0
  -21.6833   -6.0713   22.5277 C   0  0  0  0  0  0
  -21.4007   -6.5667   23.8204 C   0  0  0  0  0  0
  -21.3634   -5.6828   24.9167 C   0  0  0  0  0  0
  -21.6016   -4.3086   24.7234 C   0  0  0  0  0  0
  -21.8823   -3.8152   23.4380 C   0  0  0  0  0  0
  -21.9196   -4.6940   22.3415 C   0  0  0  0  0  0
  -22.7774  -13.5141   21.1896 C   0  0  0  0  0  0
  -22.1664   -4.2114   21.0986 F   0  0  0  0  0  0
  -21.5610   -3.4599   25.7766 F   0  0  0  0  0  0
  -29.8194  -14.1121   20.2560 N   0  0  0  0  0  0
  -26.2774  -12.9294   20.3136 N   0  0  0  0  0  0
  -25.9285  -11.6438   20.5736 N   0  0  0  0  0  0
  -22.0474  -12.8163   22.0504 N   0  0  0  0  0  0
  -25.4035  -15.1741   20.3743 N   0  0  0  0  0  0
  -31.6106  -15.3902   20.2291 O   0  0  0  0  0  0
  -21.6638   -6.8820   21.4216 O   0  0  0  0  0  0
  -22.3493  -14.5448   20.6719 O   0  0  0  0  0  0
  -24.6730  -31.8122   23.1629 C   0  0  0  0  0  0
  -25.9381  -32.4534   23.8124 C   0  0  1  0  0  0
  -27.2309  -26.8516   20.1991 C   0  0  0  0  0  0
  -25.5974  -33.8345   24.1996 N   0  0  0  0  0  0
  -23.4935  -30.4193   21.5133 C   0  0  2  0  0  0
  -24.9491  -28.7891   20.1239 C   0  0  0  0  0  0
  -22.7732  -29.4361   22.4749 C   0  0  0  0  0  0
  -18.0332  -28.1396   22.8473 C   0  0  0  0  0  0
  -24.1488  -36.7189   23.2652 C   0  0  0  0  0  0
  -26.0693  -30.6002   21.3975 C   0  0  0  0  0  0
  -26.1425  -29.1790   20.7464 C   0  0  0  0  0  0
  -27.2789  -28.2410   20.7436 C   0  0  0  0  0  0
  -25.9999  -26.6263   19.5423 C   0  0  0  0  0  0
  -24.9079  -27.5315   19.4964 C   0  0  0  0  0  0
  -23.7393  -29.7248   20.1451 C   0  0  0  0  0  0
  -25.4124  -36.2914   24.0281 C   0  0  1  0  0  0
  -20.5960  -28.3710   23.1173 C   0  0  2  0  0  0
  -20.6801  -26.9361   22.5447 C   0  0  0  0  0  0
  -19.5789  -26.6334   21.5247 C   0  0  0  0  0  0
  -18.1968  -26.7933   22.1648 C   0  0  0  0  0  0
  -19.1591  -28.8895   23.2785 C   0  0  0  0  0  0
  -18.9480  -30.1508   23.8809 C   0  0  0  0  0  0
  -17.6446  -30.6606   24.0474 C   0  0  0  0  0  0
  -25.9105  -34.9317   23.4970 C   0  0  0  0  0  0
  -16.5345  -29.9051   23.6319 C   0  0  0  0  0  0
  -16.7289  -28.6448   23.0388 C   0  0  0  0  0  0
  -26.4587  -31.6553   25.0723 C   0  0  0  0  0  0
  -25.3696  -31.3852   26.1369 C   0  0  0  0  0  0
  -27.0484  -30.2900   24.6536 C   0  0  0  0  0  0
  -27.6032  -32.4384   25.7562 C   0  0  0  0  0  0
  -27.5535  -37.1743   24.8458 C   0  0  0  0  0  0
  -21.4375  -29.2989   22.3518 N   0  0  0  0  0  0
  -26.4253  -37.3659   23.9402 N   0  0  0  0  0  0
  -24.7693  -30.9710   22.0789 N   0  0  0  0  0  0
  -23.4250  -28.7948   23.3029 O   0  0  0  0  0  0
  -28.2270  -25.7172   20.1833 O   0  0  0  0  0  0
  -26.5715  -34.8872   22.4578 O   0  0  0  0  0  0
  -23.5780  -32.1093   23.6672 O   0  0  0  0  0  0
  -28.5127  -21.8375   18.8476 C   0  0  0  0  0  0
  -28.5822  -22.4865   20.0821 C   0  0  0  0  0  0
  -29.2646  -20.0129   20.1264 C   0  0  0  0  0  0
  -28.9508  -19.5967   17.7100 C   0  0  0  0  0  0
  -28.1805  -16.7466   20.1656 C   0  0  0  0  0  0
  -27.9808  -24.0971   20.5728 C   0  0  0  0  0  0
  -30.0096  -18.4262   20.5305 C   0  0  0  0  0  0
  -28.9013  -20.4690   18.8937 N   0  0  0  0  0  0
  -29.0530  -21.2715   20.8198 N   0  3  0  0  0  0
  -29.6302  -16.7805   20.3271 N   0  0  0  0  0  0
  -31.4326  -13.2066   19.1398 H   0  0  0  0  0  0
  -30.5883  -12.0924   20.1675 H   0  0  0  0  0  0
  -29.9706  -11.7339   17.7487 H   0  0  0  0  0  0
  -29.4828  -13.4073   17.5920 H   0  0  0  0  0  0
  -28.1695  -11.2422   19.2603 H   0  0  0  0  0  0
  -27.4263  -12.1101   17.9330 H   0  0  0  0  0  0
  -27.4631  -14.1441   19.1980 H   0  0  0  0  0  0
  -28.8614  -12.6494   21.5017 H   0  0  0  0  0  0
  -28.2146  -14.2576   21.6276 H   0  0  0  0  0  0
  -25.2722   -9.5652   22.4852 H   0  0  0  0  0  0
  -23.9982   -7.4559   22.7503 H   0  0  0  0  0  0
  -21.0817   -8.8732   19.8980 H   0  0  0  0  0  0
  -22.3656  -10.9649   19.6266 H   0  0  0  0  0  0
  -21.2020   -7.6181   23.9680 H   0  0  0  0  0  0
  -21.1431   -6.0582   25.9063 H   0  0  0  0  0  0
  -22.0640   -2.7619   23.2889 H   0  0  0  0  0  0
  -22.4043  -11.9751   22.4765 H   0  0  0  0  0  0
  -21.1115  -13.1187   22.2747 H   0  0  0  0  0  0
  -24.6277  -15.8299   20.4165 H   0  0  0  0  0  0
  -26.2326  -15.5660   19.9448 H   0  0  0  0  0  0
  -26.7489  -32.5066   23.0865 H   0  0  0  0  0  0
  -25.0033  -33.9406   25.0075 H   0  0  0  0  0  0
  -22.8112  -31.2525   21.3309 H   0  0  0  0  0  0
  -23.3730  -35.9545   23.3298 H   0  0  0  0  0  0
  -24.3557  -36.8874   22.2076 H   0  0  0  0  0  0
  -23.7297  -37.6390   23.6733 H   0  0  0  0  0  0
  -26.2470  -31.3350   20.6109 H   0  0  0  0  0  0
  -26.9287  -30.6665   22.0554 H   0  0  0  0  0  0
  -28.1931  -28.5458   21.2352 H   0  0  0  0  0  0
  -25.8575  -25.6630   19.0728 H   0  0  0  0  0  0
  -24.0051  -27.2190   18.9858 H   0  0  0  0  0  0
  -23.9019  -30.4824   19.3775 H   0  0  0  0  0  0
  -22.8518  -29.1763   19.8267 H   0  0  0  0  0  0
  -25.1340  -36.1682   25.0769 H   0  0  0  0  0  0
  -21.0043  -28.3379   24.1293 H   0  0  0  0  0  0
  -20.5631  -26.2332   23.3700 H   0  0  0  0  0  0
  -21.6668  -26.7260   22.1285 H   0  0  0  0  0  0
  -19.6919  -25.6239   21.1280 H   0  0  0  0  0  0
  -19.6794  -27.3153   20.6796 H   0  0  0  0  0  0
  -17.4230  -26.6630   21.4067 H   0  0  0  0  0  0
  -18.0377  -26.0133   22.9084 H   0  0  0  0  0  0
  -19.7936  -30.7346   24.2197 H   0  0  0  0  0  0
  -17.4955  -31.6279   24.5077 H   0  0  0  0  0  0
  -15.5322  -30.2915   23.7651 H   0  0  0  0  0  0
  -15.8701  -28.0727   22.7160 H   0  0  0  0  0  0
  -24.5862  -30.7204   25.7700 H   0  0  0  0  0  0
  -24.8920  -32.3090   26.4652 H   0  0  0  0  0  0
  -25.7935  -30.9129   27.0246 H   0  0  0  0  0  0
  -26.3178  -29.6560   24.1495 H   0  0  0  0  0  0
  -27.3906  -29.7297   25.5254 H   0  0  0  0  0  0
  -27.9172  -30.4028   24.0039 H   0  0  0  0  0  0
  -27.2525  -33.3685   26.2034 H   0  0  0  0  0  0
  -28.3926  -32.6947   25.0489 H   0  0  0  0  0  0
  -28.0599  -31.8599   26.5599 H   0  0  0  0  0  0
  -28.2538  -38.0035   24.7437 H   0  0  0  0  0  0
  -28.1025  -36.2562   24.6348 H   0  0  0  0  0  0
  -27.2241  -37.1475   25.8852 H   0  0  0  0  0  0
  -20.9663  -29.8764   21.6682 H   0  0  0  0  0  0
  -26.0080  -38.2708   24.1414 H   0  0  0  0  0  0
  -28.1796  -22.2576   17.9101 H   0  0  0  0  0  0
  -28.6742  -20.1669   16.8223 H   0  0  0  0  0  0
  -28.2403  -18.7763   17.8115 H   0  0  0  0  0  0
  -29.9616  -19.2072   17.5762 H   0  0  0  0  0  0
  -27.7047  -16.3065   21.0424 H   0  0  0  0  0  0
  -27.7586  -17.7439   20.0752 H   0  0  0  0  0  0
  -27.8870  -16.2302   19.2515 H   0  0  0  0  0  0
  -26.8973  -23.9932   20.4872 H   0  0  0  0  0  0
  -28.1331  -24.1032   21.6536 H   0  0  0  0  0  0
  -31.0232  -18.5264   20.1437 H   0  0  0  0  0  0
  -30.1308  -18.5052   21.6113 H   0  0  0  0  0  0
  -29.2348  -21.3308   21.8158 H   0  0  0  0  0  0
  1 25  1  0  0  0
  1 30  2  0  0  0
  1 80  1  0  0  0
  2  3  1  0  0  0
  2 25  1  0  0  0
  2 81  1  0  0  0
  2 82  1  0  0  0
  3  4  1  0  0  0
  3 83  1  0  0  0
  3 84  1  0  0  0
  4  5  1  0  0  0
  4 85  1  0  0  0
  4 86  1  0  0  0
  5  6  1  0  0  0
  5 26  1  0  0  0
  5 87  1  0  0  0
  6 25  1  0  0  0
  6 88  1  0  0  0
  6 89  1  0  0  0
  7  8  2  0  0  0
  7 26  1  0  0  0
  7 29  1  0  0  0
  8  9  1  0  0  0
  8 22  1  0  0  0
  9 10  1  0  0  0
  9 27  2  0  0  0
 10 11  2  0  0  0
 10 15  1  0  0  0
 11 12  1  0  0  0
 11 90  1  0  0  0
 12 13  2  0  0  0
 12 91  1  0  0  0
 13 14  1  0  0  0
 13 31  1  0  0  0
 14 15  2  0  0  0
 14 92  1  0  0  0
 15 93  1  0  0  0
 16 17  2  0  0  0
 16 21  1  0  0  0
 16 31  1  0  0  0
 17 18  1  0  0  0
 17 94  1  0  0  0
 18 19  2  0  0  0
 18 95  1  0  0  0
 19 20  1  0  0  0
 19 24  1  0  0  0
 20 21  2  0  0  0
 20 96  1  0  0  0
 21 23  1  0  0  0
 22 28  1  0  0  0
 22 32  2  0  0  0
 26 27  1  0  0  0
 28 97  1  0  0  0
 28 98  1  0  0  0
 29 99  1  0  0  0
 29100  1  0  0  0
 33 34  1  0  0  0
 33 66  1  0  0  0
 33 70  2  0  0  0
 34 36  1  0  0  0
 34 59  1  0  0  0
 34101  1  0  0  0
 35 44  2  0  0  0
 35 45  1  0  0  0
 35 68  1  0  0  0
 36 56  1  0  0  0
 36102  1  0  0  0
 37 39  1  0  0  0
 37 47  1  0  0  0
 37 66  1  0  0  0
 37103  1  0  0  0
 38 43  2  0  0  0
 38 46  1  0  0  0
 38 47  1  0  0  0
 39 64  1  0  0  0
 39 67  2  0  0  0
 40 52  1  0  0  0
 40 53  2  0  0  0
 40 58  1  0  0  0
 41104  1  0  0  0
 41105  1  0  0  0
 41106  1  0  0  0
 41 48  1  0  0  0
 42 43  1  0  0  0
 42 66  1  0  0  0
 42107  1  0  0  0
 42108  1  0  0  0
 43 44  1  0  0  0
 44109  1  0  0  0
 45 46  2  0  0  0
 45110  1  0  0  0
 46111  1  0  0  0
 47112  1  0  0  0
 47113  1  0  0  0
 48 56  1  0  0  0
 48 65  1  0  0  0
 48114  1  0  0  0
 49 50  1  0  0  0
 49 53  1  0  0  0
 49 64  1  0  0  0
 49115  1  0  0  0
 50 51  1  0  0  0
 50116  1  0  0  0
 50117  1  0  0  0
 51 52  1  0  0  0
 51118  1  0  0  0
 51119  1  0  0  0
 52120  1  0  0  0
 52121  1  0  0  0
 53 54  1  0  0  0
 54 55  2  0  0  0
 54122  1  0  0  0
 55 57  1  0  0  0
 55123  1  0  0  0
 56 69  2  0  0  0
 57 58  2  0  0  0
 57124  1  0  0  0
 58125  1  0  0  0
 59 60  1  0  0  0
 59 61  1  0  0  0
 59 62  1  0  0  0
 60126  1  0  0  0
 60127  1  0  0  0
 60128  1  0  0  0
 61129  1  0  0  0
 61130  1  0  0  0
 61131  1  0  0  0
 62132  1  0  0  0
 62133  1  0  0  0
 62134  1  0  0  0
 63 65  1  0  0  0
 63135  1  0  0  0
 63136  1  0  0  0
 63137  1  0  0  0
 64138  1  0  0  0
 65139  1  0  0  0
 68 76  1  0  0  0
 71 72  2  0  0  0
 71 78  1  0  0  0
 71140  1  0  0  0
 72 76  1  0  0  0
 72 79  1  0  0  0
 73 77  1  0  0  0
 73 78  1  0  0  0
 73 79  2  0  0  0
 74 78  1  0  0  0
 74141  1  0  0  0
 74142  1  0  0  0
 74143  1  0  0  0
 75 80  1  0  0  0
 75144  1  0  0  0
 75145  1  0  0  0
 75146  1  0  0  0
 76147  1  0  0  0
 76148  1  0  0  0
 77 80  1  0  0  0
 77149  1  0  0  0
 77150  1  0  0  0
 79151  1  0  0  0
M  CHG  1  79   1
M  ISO  4   1 100  68 101  76 101  80 100
M  END
> <chiral flag>
0

> <version>
0

> <s_m_source_file>
/data/baiqing/PycharmProjects/Reinvent-master-3.2/result/LINK_invent/BTK/process_docking_weight1_custom_sum_contain_oxygen_bond_distance_aromatic_linkinvent_7_9_3/rearranged_h_0053.sdf

> <i_m_source_file_index>
21

> <r_mmod_Potential_Energy-OPLS-2005>
1585.47790527344

> <r_mmod_Stretch_Energy-OPLS-2005>
704.734741210938

> <r_mmod_Bend_Energy-OPLS-2005>
497.4208984375

> <r_mmod_Torsional_Energy-OPLS-2005>
272.610931396484

> <r_mmod_Improper_Torsional_Energy-OPLS-2005>
6.91695976257324

> <r_mmod_Van_der_Waal_Energy-OPLS-2005>
109.127662658691

> <r_mmod_Electrostatic_Energy-OPLS-2005>
-202.738571166992

> <r_mmod_Solvation_Energy-OPLS-2005>
-433.038513183594

> <b_mmod_Minimization_Converged-OPLS-2005>
0

> <r_mmod_RMS_Derivative-OPLS-2005>
7.19376182556152

$$$$
21
                    3D
 Structure written by MMmdl.
178186  0  0  1  0            999 V2000
  -30.7814  -14.4602   20.5194 C   0  0  0  0  0  0
  -30.4000  -12.2981   19.4217 C   0  0  0  0  0  0
  -29.4808  -12.4736   18.1992 C   0  0  0  0  0  0
  -28.0052  -12.3421   18.6211 C   0  0  0  0  0  0
  -27.6455  -13.2132   19.8545 C   0  0  2  0  0  0
  -28.7001  -13.0884   20.9782 C   0  0  0  0  0  0
  -25.2461  -13.8101   20.5643 C   0  0  0  0  0  0
  -24.1771  -13.0369   20.9200 C   0  0  0  0  0  0
  -24.6380  -11.6863   20.8765 C   0  0  0  0  0  0
  -23.9054  -10.4259   21.0416 C   0  0  0  0  0  0
  -24.3612   -9.4178   21.9191 C   0  0  0  0  0  0
  -23.6286   -8.2217   22.0754 C   0  0  0  0  0  0
  -22.4266   -8.0267   21.3540 C   0  0  0  0  0  0
  -21.9905   -9.0235   20.4640 C   0  0  0  0  0  0
  -22.7234  -10.2113   20.3055 C   0  0  0  0  0  0
  -21.6850   -6.0732   22.5278 C   0  0  0  0  0  0
  -21.4012   -6.5637   23.8211 C   0  0  0  0  0  0
  -21.3655   -5.6789   24.9172 C   0  0  0  0  0  0
  -21.6039   -4.3052   24.7224 C   0  0  0  0  0  0
  -21.8821   -3.8144   23.4346 C   0  0  0  0  0  0
  -21.9192   -4.6961   22.3401 C   0  0  0  0  0  0
  -22.7800  -13.5170   21.1854 C   0  0  0  0  0  0
  -22.1663   -4.2152   21.0981 F   0  0  0  0  0  0
  -21.5626   -3.4537   25.7735 F   0  0  0  0  0  0
  -30.0254  -13.3360   20.3930 N   0  0  0  0  0  0
  -26.2952  -12.9330   20.3339 N   0  0  0  0  0  0
  -25.9318  -11.6487   20.5816 N   0  0  0  0  0  0
  -22.0451  -12.8173   22.0424 N   0  0  0  0  0  0
  -25.3954  -15.1798   20.3948 N   0  0  0  0  0  0
  -31.9790  -14.4735   20.2446 O   0  0  0  0  0  0
  -21.6629   -6.8870   21.4239 O   0  0  0  0  0  0
  -22.3484  -14.5482   20.6710 O   0  0  0  0  0  0
  -24.6134  -31.8692   23.2129 C   0  0  0  0  0  0
  -25.9032  -32.4835   23.8406 C   0  0  1  0  0  0
  -27.2263  -27.4463   20.0879 C   0  0  0  0  0  0
  -25.5886  -33.8626   24.2341 N   0  0  0  0  0  0
  -23.3989  -30.4944   21.5554 C   0  0  2  0  0  0
  -24.8394  -28.9646   20.1194 C   0  0  0  0  0  0
  -22.7401  -29.4666   22.5030 C   0  0  0  0  0  0
  -18.0254  -28.1378   22.8474 C   0  0  0  0  0  0
  -24.1479  -36.7313   23.2636 C   0  0  0  0  0  0
  -25.9261  -30.8398   21.3607 C   0  0  0  0  0  0
  -26.0013  -29.4754   20.7091 C   0  0  0  0  0  0
  -27.1953  -28.7235   20.6896 C   0  0  0  0  0  0
  -26.0398  -26.9428   19.5030 C   0  0  0  0  0  0
  -24.8535  -27.6963   19.5169 C   0  0  0  0  0  0
  -23.6034  -29.8301   20.1693 C   0  0  0  0  0  0
  -25.4105  -36.3117   24.0340 C   0  0  1  0  0  0
  -20.5845  -28.3643   23.1355 C   0  0  2  0  0  0
  -20.6745  -26.9378   22.5441 C   0  0  0  0  0  0
  -19.5738  -26.6377   21.5218 C   0  0  0  0  0  0
  -18.1901  -26.7924   22.1609 C   0  0  0  0  0  0
  -19.1503  -28.8829   23.2902 C   0  0  0  0  0  0
  -18.9441  -30.1432   23.8907 C   0  0  0  0  0  0
  -17.6448  -30.6582   24.0565 C   0  0  0  0  0  0
  -25.9033  -34.9478   23.5139 C   0  0  0  0  0  0
  -16.5332  -29.9086   23.6337 C   0  0  0  0  0  0
  -16.7244  -28.6513   23.0336 C   0  0  0  0  0  0
  -26.4467  -31.6607   25.0727 C   0  0  0  0  0  0
  -25.3734  -31.3694   26.1486 C   0  0  0  0  0  0
  -27.0289  -30.3056   24.6057 C   0  0  0  0  0  0
  -27.6068  -32.4315   25.7470 C   0  0  0  0  0  0
  -27.5586  -37.1806   24.8467 C   0  0  0  0  0  0
  -21.4131  -29.3012   22.3774 N   0  0  0  0  0  0
  -26.4293  -37.3795   23.9413 N   0  0  0  0  0  0
  -24.6648  -31.0808   22.1024 N   0  0  0  0  0  0
  -23.4193  -28.8202   23.3053 O   0  0  0  0  0  0
  -28.4222  -26.7586   20.0863 O   0  0  0  0  0  0
  -26.5587  -34.8920   22.4696 O   0  0  0  0  0  0
  -23.5330  -32.1438   23.7527 O   0  0  0  0  0  0
  -27.6667  -17.9984   23.3360 C   0  0  0  0  0  0
  -30.1322  -18.8010   22.5835 C   0  0  0  0  0  0
  -28.0111  -19.3714   23.2720 C   0  0  0  0  0  0
  -29.7508  -17.4379   22.5334 C   0  0  0  0  0  0
  -28.1816  -16.9612   19.8973 C   0  0  0  0  0  0
  -29.7013  -17.7200   17.4358 C   0  0  0  0  0  0
  -30.8994  -18.6295   19.4052 C   0  0  0  0  0  0
  -31.7782  -16.6388   18.2192 C   0  0  0  0  0  0
  -26.9870  -20.4629   23.5535 C   0  0  0  0  0  0
  -30.6710  -16.3869   21.9270 C   0  0  0  0  0  0
  -27.9595  -24.5571   21.0817 C   0  0  0  0  0  0
  -26.7928  -21.4382   22.3700 C   0  0  0  0  0  0
  -28.0704  -23.0291   20.8927 C   0  0  0  0  0  0
  -28.4296  -25.3498   19.8432 C   0  0  0  0  0  0
  -29.5712  -16.3710   19.5842 C   0  0  1  0  0  0
  -30.4859  -17.3206   18.7064 C   0  0  0  0  0  0
  -29.2634  -19.7756   22.9442 N   0  0  0  0  0  0
  -28.5391  -17.0248   22.9802 N   0  0  0  0  0  0
  -30.1484  -15.6343   20.7604 N   0  0  0  0  0  0
  -27.9884  -22.2879   22.1725 N   0  3  0  0  0  0
  -31.4462  -12.3544   19.1151 H   0  0  0  0  0  0
  -30.2718  -11.3075   19.8616 H   0  0  0  0  0  0
  -29.7177  -11.7259   17.4404 H   0  0  0  0  0  0
  -29.6531  -13.4449   17.7338 H   0  0  0  0  0  0
  -27.8241  -11.2910   18.8464 H   0  0  0  0  0  0
  -27.3509  -12.5879   17.7843 H   0  0  0  0  0  0
  -27.6462  -14.2421   19.5054 H   0  0  0  0  0  0
  -28.6742  -12.0935   21.4247 H   0  0  0  0  0  0
  -28.4845  -13.7936   21.7830 H   0  0  0  0  0  0
  -25.2760   -9.5658   22.4766 H   0  0  0  0  0  0
  -23.9995   -7.4607   22.7478 H   0  0  0  0  0  0
  -21.0835   -8.8754   19.8945 H   0  0  0  0  0  0
  -22.3695  -10.9655   19.6167 H   0  0  0  0  0  0
  -21.2013   -7.6145   23.9717 H   0  0  0  0  0  0
  -21.1471   -6.0517   25.9072 H   0  0  0  0  0  0
  -22.0608   -2.7611   23.2842 H   0  0  0  0  0  0
  -22.4088  -11.9847   22.4810 H   0  0  0  0  0  0
  -21.1068  -13.1196   22.2631 H   0  0  0  0  0  0
  -24.6199  -15.8233   20.5056 H   0  0  0  0  0  0
  -26.2494  -15.6295   20.0925 H   0  0  0  0  0  0
  -26.7098  -32.5560   23.1175 H   0  0  0  0  0  0
  -25.0068  -33.9801   25.0503 H   0  0  0  0  0  0
  -22.6873  -31.3111   21.4191 H   0  0  0  0  0  0
  -23.3739  -35.9652   23.3317 H   0  0  0  0  0  0
  -24.3558  -36.8909   22.2039 H   0  0  0  0  0  0
  -23.7234  -37.6523   23.6641 H   0  0  0  0  0  0
  -26.0310  -31.6060   20.5916 H   0  0  0  0  0  0
  -26.8189  -30.8988   21.9723 H   0  0  0  0  0  0
  -28.0969  -29.1163   21.1390 H   0  0  0  0  0  0
  -25.9985  -25.9782   19.0201 H   0  0  0  0  0  0
  -23.9579  -27.2981   19.0598 H   0  0  0  0  0  0
  -23.7101  -30.6065   19.4098 H   0  0  0  0  0  0
  -22.7260  -29.2499   19.8738 H   0  0  0  0  0  0
  -25.1270  -36.1988   25.0830 H   0  0  0  0  0  0
  -20.9912  -28.3187   24.1492 H   0  0  0  0  0  0
  -20.5657  -26.2219   23.3602 H   0  0  0  0  0  0
  -21.6619  -26.7451   22.1226 H   0  0  0  0  0  0
  -19.6908  -25.6297   21.1228 H   0  0  0  0  0  0
  -19.6710  -27.3201   20.6755 H   0  0  0  0  0  0
  -17.4181  -26.6666   21.3987 H   0  0  0  0  0  0
  -18.0290  -26.0070   22.9006 H   0  0  0  0  0  0
  -19.7916  -30.7230   24.2285 H   0  0  0  0  0  0
  -17.5007  -31.6271   24.5142 H   0  0  0  0  0  0
  -15.5331  -30.2988   23.7679 H   0  0  0  0  0  0
  -15.8637  -28.0856   22.7041 H   0  0  0  0  0  0
  -24.5968  -30.6963   25.7849 H   0  0  0  0  0  0
  -24.8846  -32.2816   26.4911 H   0  0  0  0  0  0
  -25.8116  -30.8930   27.0266 H   0  0  0  0  0  0
  -26.2818  -29.6813   24.1156 H   0  0  0  0  0  0
  -27.4117  -29.7305   25.4495 H   0  0  0  0  0  0
  -27.8617  -30.4384   23.9157 H   0  0  0  0  0  0
  -27.2741  -33.3638   26.2051 H   0  0  0  0  0  0
  -28.3880  -32.6832   25.0284 H   0  0  0  0  0  0
  -28.0717  -31.8412   26.5373 H   0  0  0  0  0  0
  -28.2617  -38.0089   24.7522 H   0  0  0  0  0  0
  -28.1076  -36.2628   24.6302 H   0  0  0  0  0  0
  -27.2308  -37.1474   25.8870 H   0  0  0  0  0  0
  -20.9279  -29.8756   21.7030 H   0  0  0  0  0  0
  -26.0194  -38.2884   24.1419 H   0  0  0  0  0  0
  -26.6787  -17.6795   23.6358 H   0  0  0  0  0  0
  -31.1141  -19.1248   22.2726 H   0  0  0  0  0  0
  -27.5486  -17.0086   19.0114 H   0  0  0  0  0  0
  -28.2331  -17.9666   20.3108 H   0  0  0  0  0  0
  -27.6651  -16.3442   20.6256 H   0  0  0  0  0  0
  -30.3196  -18.2897   16.7409 H   0  0  0  0  0  0
  -28.8415  -18.3503   17.6653 H   0  0  0  0  0  0
  -29.3371  -16.8458   16.8947 H   0  0  0  0  0  0
  -31.3750  -19.3120   18.6995 H   0  0  0  0  0  0
  -31.6312  -18.4633   20.1914 H   0  0  0  0  0  0
  -30.0501  -19.1653   19.8260 H   0  0  0  0  0  0
  -32.2775  -17.2313   17.4516 H   0  0  0  0  0  0
  -31.5824  -15.6558   17.7893 H   0  0  0  0  0  0
  -32.5051  -16.5284   19.0233 H   0  0  0  0  0  0
  -27.2699  -21.0003   24.4585 H   0  0  0  0  0  0
  -26.0299  -19.9868   23.7708 H   0  0  0  0  0  0
  -30.9051  -15.6900   22.7351 H   0  0  0  0  0  0
  -31.6269  -16.8389   21.6639 H   0  0  0  0  0  0
  -28.5715  -24.8656   21.9302 H   0  0  0  0  0  0
  -26.9313  -24.8222   21.3309 H   0  0  0  0  0  0
  -25.9253  -22.0758   22.5448 H   0  0  0  0  0  0
  -26.5897  -20.8655   21.4632 H   0  0  0  0  0  0
  -29.0401  -22.7914   20.4534 H   0  0  0  0  0  0
  -27.3214  -22.6783   20.1794 H   0  0  0  0  0  0
  -27.8832  -25.0740   18.9419 H   0  0  0  0  0  0
  -29.4635  -25.0794   19.6300 H   0  0  0  0  0  0
  -29.3229  -15.5747   18.8810 H   0  0  0  0  0  0
  -28.7757  -21.6527   22.2175 H   0  0  0  0  0  0
  -28.0810  -22.9254   22.9462 H   0  0  0  0  0  0
  1 25  1  0  0  0
  1 30  2  0  0  0
  1 89  1  0  0  0
  2  3  1  0  0  0
  2 25  1  0  0  0
  2 91  1  0  0  0
  2 92  1  0  0  0
  3  4  1  0  0  0
  3 93  1  0  0  0
  3 94  1  0  0  0
  4  5  1  0  0  0
  4 95  1  0  0  0
  4 96  1  0  0  0
  5  6  1  0  0  0
  5 26  1  0  0  0
  5 97  1  0  0  0
  6 25  1  0  0  0
  6 98  1  0  0  0
  6 99  1  0  0  0
  7  8  2  0  0  0
  7 26  1  0  0  0
  7 29  1  0  0  0
  8  9  1  0  0  0
  8 22  1  0  0  0
  9 10  1  0  0  0
  9 27  2  0  0  0
 10 11  2  0  0  0
 10 15  1  0  0  0
 11 12  1  0  0  0
 11100  1  0  0  0
 12 13  2  0  0  0
 12101  1  0  0  0
 13 14  1  0  0  0
 13 31  1  0  0  0
 14 15  2  0  0  0
 14102  1  0  0  0
 15103  1  0  0  0
 16 17  2  0  0  0
 16 21  1  0  0  0
 16 31  1  0  0  0
 17 18  1  0  0  0
 17104  1  0  0  0
 18 19  2  0  0  0
 18105  1  0  0  0
 19 20  1  0  0  0
 19 24  1  0  0  0
 20 21  2  0  0  0
 20106  1  0  0  0
 21 23  1  0  0  0
 22 28  1  0  0  0
 22 32  2  0  0  0
 26 27  1  0  0  0
 28107  1  0  0  0
 28108  1  0  0  0
 29109  1  0  0  0
 29110  1  0  0  0
 33 34  1  0  0  0
 33 66  1  0  0  0
 33 70  2  0  0  0
 34 36  1  0  0  0
 34 59  1  0  0  0
 34111  1  0  0  0
 35 44  2  0  0  0
 35 45  1  0  0  0
 35 68  1  0  0  0
 36 56  1  0  0  0
 36112  1  0  0  0
 37 39  1  0  0  0
 37 47  1  0  0  0
 37 66  1  0  0  0
 37113  1  0  0  0
 38 43  2  0  0  0
 38 46  1  0  0  0
 38 47  1  0  0  0
 39 64  1  0  0  0
 39 67  2  0  0  0
 40 52  1  0  0  0
 40 53  2  0  0  0
 40 58  1  0  0  0
 41114  1  0  0  0
 41115  1  0  0  0
 41116  1  0  0  0
 41 48  1  0  0  0
 42 43  1  0  0  0
 42 66  1  0  0  0
 42117  1  0  0  0
 42118  1  0  0  0
 43 44  1  0  0  0
 44119  1  0  0  0
 45 46  2  0  0  0
 45120  1  0  0  0
 46121  1  0  0  0
 47122  1  0  0  0
 47123  1  0  0  0
 48 56  1  0  0  0
 48 65  1  0  0  0
 48124  1  0  0  0
 49 50  1  0  0  0
 49 53  1  0  0  0
 49 64  1  0  0  0
 49125  1  0  0  0
 50 51  1  0  0  0
 50126  1  0  0  0
 50127  1  0  0  0
 51 52  1  0  0  0
 51128  1  0  0  0
 51129  1  0  0  0
 52130  1  0  0  0
 52131  1  0  0  0
 53 54  1  0  0  0
 54 55  2  0  0  0
 54132  1  0  0  0
 55 57  1  0  0  0
 55133  1  0  0  0
 56 69  2  0  0  0
 57 58  2  0  0  0
 57134  1  0  0  0
 58135  1  0  0  0
 59 60  1  0  0  0
 59 61  1  0  0  0
 59 62  1  0  0  0
 60136  1  0  0  0
 60137  1  0  0  0
 60138  1  0  0  0
 61139  1  0  0  0
 61140  1  0  0  0
 61141  1  0  0  0
 62142  1  0  0  0
 62143  1  0  0  0
 62144  1  0  0  0
 63 65  1  0  0  0
 63145  1  0  0  0
 63146  1  0  0  0
 63147  1  0  0  0
 64148  1  0  0  0
 65149  1  0  0  0
 68 84  1  0  0  0
 71 73  2  0  0  0
 71 88  1  0  0  0
 71150  1  0  0  0
 72 74  1  0  0  0
 72 87  2  0  0  0
 72151  1  0  0  0
 73 79  1  0  0  0
 73 87  1  0  0  0
 74 80  1  0  0  0
 74 88  2  0  0  0
 75152  1  0  0  0
 75153  1  0  0  0
 75154  1  0  0  0
 75 85  1  0  0  0
 76155  1  0  0  0
 76156  1  0  0  0
 76157  1  0  0  0
 76 86  1  0  0  0
 77 86  1  0  0  0
 77158  1  0  0  0
 77159  1  0  0  0
 77160  1  0  0  0
 78 86  1  0  0  0
 78161  1  0  0  0
 78162  1  0  0  0
 78163  1  0  0  0
 79 82  1  0  0  0
 79164  1  0  0  0
 79165  1  0  0  0
 80 89  1  0  0  0
 80166  1  0  0  0
 80167  1  0  0  0
 81 83  1  0  0  0
 81 84  1  0  0  0
 81168  1  0  0  0
 81169  1  0  0  0
 82 90  1  0  0  0
 82170  1  0  0  0
 82171  1  0  0  0
 83 90  1  0  0  0
 83172  1  0  0  0
 83173  1  0  0  0
 84174  1  0  0  0
 84175  1  0  0  0
 85 86  1  0  0  0
 85 89  1  0  0  0
 85176  1  0  0  0
 90177  1  0  0  0
 90178  1  0  0  0
M  CHG  1  90   1
M  ISO  4   1 100  68 101  84 101  89 100
M  END
> <chiral flag>
0

> <version>
0

> <s_m_source_file>
/data/baiqing/PycharmProjects/Reinvent-master-3.2/result/LINK_invent/BTK/process_docking_weight1_custom_sum_contain_oxygen_bond_distance_aromatic_linkinvent_7_9_3/rearranged_h_0053.sdf

> <i_m_source_file_index>
22

> <r_mmod_Potential_Energy-OPLS-2005>
17.040735244751

> <r_mmod_Stretch_Energy-OPLS-2005>
44.8094024658203

> <r_mmod_Bend_Energy-OPLS-2005>
136.276992797852

> <r_mmod_Torsional_Energy-OPLS-2005>
344.175231933594

> <r_mmod_Improper_Torsional_Energy-OPLS-2005>
6.29285192489624

> <r_mmod_Van_der_Waal_Energy-OPLS-2005>
164.046081542969

> <r_mmod_Electrostatic_Energy-OPLS-2005>
-271.016418457031

> <r_mmod_Solvation_Energy-OPLS-2005>
-434.851745605469

> <b_mmod_Minimization_Converged-OPLS-2005>
0

> <r_mmod_RMS_Derivative-OPLS-2005>
2.16018128395081

$$$$
22
                    3D
 Structure written by MMmdl.
164172  0  0  1  0            999 V2000
  -30.7504  -14.4049   20.3356 C   0  0  0  0  0  0
  -30.4009  -12.1901   19.4556 C   0  0  0  0  0  0
  -29.4977  -12.3564   18.2201 C   0  0  0  0  0  0
  -28.0076  -12.3215   18.6194 C   0  0  0  0  0  0
  -27.6537  -13.2103   19.8438 C   0  0  2  0  0  0
  -28.7054  -13.0826   20.9712 C   0  0  0  0  0  0
  -25.2577  -13.8182   20.5664 C   0  0  0  0  0  0
  -24.1829  -13.0445   20.9185 C   0  0  0  0  0  0
  -24.6388  -11.6920   20.8749 C   0  0  0  0  0  0
  -23.9049  -10.4294   21.0411 C   0  0  0  0  0  0
  -24.3594   -9.4192   21.9176 C   0  0  0  0  0  0
  -23.6254   -8.2237   22.0750 C   0  0  0  0  0  0
  -22.4240   -8.0283   21.3535 C   0  0  0  0  0  0
  -21.9880   -9.0265   20.4638 C   0  0  0  0  0  0
  -22.7225  -10.2139   20.3046 C   0  0  0  0  0  0
  -21.6838   -6.0736   22.5281 C   0  0  0  0  0  0
  -21.4012   -6.5638   23.8224 C   0  0  0  0  0  0
  -21.3655   -5.6788   24.9184 C   0  0  0  0  0  0
  -21.6023   -4.3049   24.7230 C   0  0  0  0  0  0
  -21.8807   -3.8146   23.4350 C   0  0  0  0  0  0
  -21.9179   -4.6965   22.3406 C   0  0  0  0  0  0
  -22.7855  -13.5253   21.1854 C   0  0  0  0  0  0
  -22.1662   -4.2157   21.0984 F   0  0  0  0  0  0
  -21.5609   -3.4528   25.7733 F   0  0  0  0  0  0
  -30.0431  -13.2569   20.3888 N   0  0  0  0  0  0
  -26.3000  -12.9358   20.3272 N   0  0  0  0  0  0
  -25.9310  -11.6527   20.5763 N   0  0  0  0  0  0
  -22.0493  -12.8246   22.0420 N   0  0  0  0  0  0
  -25.4250  -15.1902   20.4098 N   0  0  0  0  0  0
  -31.9761  -14.4693   20.3695 O   0  0  0  0  0  0
  -21.6601   -6.8879   21.4239 O   0  0  0  0  0  0
  -22.3533  -14.5556   20.6700 O   0  0  0  0  0  0
  -24.6125  -31.8769   23.2239 C   0  0  0  0  0  0
  -25.9038  -32.4880   23.8496 C   0  0  1  0  0  0
  -27.2159  -27.4757   20.0640 C   0  0  0  0  0  0
  -25.5915  -33.8676   24.2413 N   0  0  0  0  0  0
  -23.3960  -30.5126   21.5658 C   0  0  2  0  0  0
  -24.8334  -29.0086   20.1169 C   0  0  0  0  0  0
  -22.7392  -29.4719   22.5025 C   0  0  0  0  0  0
  -18.0271  -28.1370   22.8494 C   0  0  0  0  0  0
  -24.1493  -36.7336   23.2633 C   0  0  0  0  0  0
  -25.9291  -30.8519   21.3796 C   0  0  0  0  0  0
  -26.0007  -29.4961   20.7184 C   0  0  0  0  0  0
  -27.1919  -28.7330   20.7053 C   0  0  0  0  0  0
  -26.0172  -27.0349   19.4267 C   0  0  0  0  0  0
  -24.8330  -27.7699   19.4771 C   0  0  0  0  0  0
  -23.5999  -29.8712   20.1734 C   0  0  0  0  0  0
  -25.4107  -36.3144   24.0348 C   0  0  1  0  0  0
  -20.5857  -28.3646   23.1322 C   0  0  2  0  0  0
  -20.6765  -26.9391   22.5399 C   0  0  0  0  0  0
  -19.5744  -26.6382   21.5199 C   0  0  0  0  0  0
  -18.1926  -26.7918   22.1621 C   0  0  0  0  0  0
  -19.1518  -28.8822   23.2912 C   0  0  0  0  0  0
  -18.9448  -30.1430   23.8920 C   0  0  0  0  0  0
  -17.6453  -30.6579   24.0560 C   0  0  0  0  0  0
  -25.9026  -34.9504   23.5165 C   0  0  0  0  0  0
  -16.5341  -29.9086   23.6323 C   0  0  0  0  0  0
  -16.7259  -28.6499   23.0350 C   0  0  0  0  0  0
  -26.4469  -31.6620   25.0785 C   0  0  0  0  0  0
  -25.3757  -31.3692   26.1545 C   0  0  0  0  0  0
  -27.0280  -30.3073   24.6106 C   0  0  0  0  0  0
  -27.6067  -32.4307   25.7535 C   0  0  0  0  0  0
  -27.5587  -37.1832   24.8470 C   0  0  0  0  0  0
  -21.4123  -29.3046   22.3754 N   0  0  0  0  0  0
  -26.4306  -37.3813   23.9405 N   0  0  0  0  0  0
  -24.6646  -31.0918   22.1140 N   0  0  0  0  0  0
  -23.4193  -28.8219   23.3009 O   0  0  0  0  0  0
  -28.3728  -26.7022   20.0905 O   0  0  0  0  0  0
  -26.5567  -34.8930   22.4713 O   0  0  0  0  0  0
  -23.5320  -32.1508   23.7636 O   0  0  0  0  0  0
  -28.9691  -19.0492   17.8376 C   0  0  0  0  0  0
  -27.8806  -19.4229   18.5607 C   0  0  0  0  0  0
  -29.4748  -15.6693   16.6626 C   0  0  0  0  0  0
  -28.9178  -21.2192   20.8002 C   0  0  0  0  0  0
  -27.4212  -20.7951   18.8716 C   0  0  0  0  0  0
  -29.0183  -24.1595   19.8683 C   0  0  0  0  0  0
  -30.8049  -16.3299   18.8144 C   0  0  0  0  0  0
  -28.1140  -23.0279   19.3089 C   0  0  0  0  0  0
  -28.1210  -25.3741   19.6442 C   0  0  0  0  0  0
  -30.0086  -16.7807   17.5742 C   0  0  2  0  0  0
  -27.2248  -18.2896   19.0378 N   0  0  0  0  0  0
  -27.8844  -17.2435   18.6663 N   0  0  0  0  0  0
  -28.9630  -17.6857   17.9733 N   0  0  0  0  0  0
  -30.1004  -15.3686   19.6782 N   0  0  0  0  0  0
  -28.5259  -21.6209   19.4276 N   0  3  1  0  0  0
  -31.4550  -12.2193   19.1710 H   0  0  0  0  0  0
  -30.2373  -11.2175   19.9215 H   0  0  0  0  0  0
  -29.7049  -11.5582   17.5065 H   0  0  0  0  0  0
  -29.7447  -13.2747   17.7044 H   0  0  0  0  0  0
  -27.7732  -11.2808   18.8475 H   0  0  0  0  0  0
  -27.3784  -12.5887   17.7689 H   0  0  0  0  0  0
  -27.6656  -14.2396   19.4889 H   0  0  0  0  0  0
  -28.6378  -12.1064   21.4531 H   0  0  0  0  0  0
  -28.5234  -13.8282   21.7466 H   0  0  0  0  0  0
  -25.2743   -9.5644   22.4742 H   0  0  0  0  0  0
  -23.9947   -7.4615   22.7466 H   0  0  0  0  0  0
  -21.0812   -8.8788   19.8936 H   0  0  0  0  0  0
  -22.3696  -10.9675   19.6137 H   0  0  0  0  0  0
  -21.2027   -7.6150   23.9736 H   0  0  0  0  0  0
  -21.1482   -6.0515   25.9086 H   0  0  0  0  0  0
  -22.0583   -2.7607   23.2838 H   0  0  0  0  0  0
  -22.4100  -11.9912   22.4814 H   0  0  0  0  0  0
  -21.1093  -13.1234   22.2583 H   0  0  0  0  0  0
  -24.6497  -15.8350   20.5179 H   0  0  0  0  0  0
  -26.2762  -15.6524   20.1157 H   0  0  0  0  0  0
  -26.7111  -32.5617   23.1269 H   0  0  0  0  0  0
  -25.0084  -33.9865   25.0566 H   0  0  0  0  0  0
  -22.6836  -31.3301   21.4403 H   0  0  0  0  0  0
  -23.3748  -35.9677   23.3319 H   0  0  0  0  0  0
  -24.3595  -36.8915   22.2043 H   0  0  0  0  0  0
  -23.7250  -37.6557   23.6615 H   0  0  0  0  0  0
  -26.0442  -31.6251   20.6189 H   0  0  0  0  0  0
  -26.8167  -30.8947   21.9975 H   0  0  0  0  0  0
  -28.0854  -29.0996   21.1922 H   0  0  0  0  0  0
  -25.9292  -26.1119   18.8731 H   0  0  0  0  0  0
  -23.9379  -27.3915   19.0029 H   0  0  0  0  0  0
  -23.7119  -30.6576   19.4260 H   0  0  0  0  0  0
  -22.7226  -29.2973   19.8702 H   0  0  0  0  0  0
  -25.1280  -36.2030   25.0843 H   0  0  0  0  0  0
  -20.9944  -28.3185   24.1441 H   0  0  0  0  0  0
  -20.5657  -26.2250   23.3574 H   0  0  0  0  0  0
  -21.6646  -26.7444   22.1199 H   0  0  0  0  0  0
  -19.6907  -25.6299   21.1221 H   0  0  0  0  0  0
  -19.6689  -27.3196   20.6735 H   0  0  0  0  0  0
  -17.4189  -26.6643   21.4037 H   0  0  0  0  0  0
  -18.0353  -26.0060   22.9022 H   0  0  0  0  0  0
  -19.7920  -30.7234   24.2312 H   0  0  0  0  0  0
  -17.5008  -31.6267   24.5147 H   0  0  0  0  0  0
  -15.5342  -30.2995   23.7636 H   0  0  0  0  0  0
  -15.8656  -28.0821   22.7063 H   0  0  0  0  0  0
  -24.5937  -30.7024   25.7896 H   0  0  0  0  0  0
  -24.8935  -32.2827   26.5035 H   0  0  0  0  0  0
  -25.8138  -30.8849   27.0281 H   0  0  0  0  0  0
  -26.2810  -29.6873   24.1133 H   0  0  0  0  0  0
  -27.4047  -29.7262   25.4533 H   0  0  0  0  0  0
  -27.8657  -30.4422   23.9257 H   0  0  0  0  0  0
  -27.2713  -33.3587   26.2181 H   0  0  0  0  0  0
  -28.3845  -32.6895   25.0336 H   0  0  0  0  0  0
  -28.0772  -31.8382   26.5394 H   0  0  0  0  0  0
  -28.2624  -38.0112   24.7505 H   0  0  0  0  0  0
  -28.1065  -36.2647   24.6313 H   0  0  0  0  0  0
  -27.2307  -37.1508   25.8874 H   0  0  0  0  0  0
  -20.9251  -29.8824   21.7044 H   0  0  0  0  0  0
  -26.0207  -38.2903   24.1379 H   0  0  0  0  0  0
  -29.7413  -19.5959   17.3102 H   0  0  0  0  0  0
  -30.2773  -14.9979   16.3593 H   0  0  0  0  0  0
  -29.0516  -16.0950   15.7522 H   0  0  0  0  0  0
  -28.6861  -15.0897   17.1390 H   0  0  0  0  0  0
  -29.1876  -20.1642   20.8414 H   0  0  0  0  0  0
  -28.1040  -21.3860   21.5065 H   0  0  0  0  0  0
  -29.7863  -21.7817   21.1427 H   0  0  0  0  0  0
  -27.0343  -21.2339   17.9495 H   0  0  0  0  0  0
  -26.5785  -20.7759   19.5652 H   0  0  0  0  0  0
  -29.9614  -24.2432   19.3271 H   0  0  0  0  0  0
  -29.2316  -24.0352   20.9298 H   0  0  0  0  0  0
  -31.0894  -17.1957   19.4148 H   0  0  0  0  0  0
  -31.7389  -15.9064   18.4394 H   0  0  0  0  0  0
  -27.9452  -23.2275   18.2490 H   0  0  0  0  0  0
  -27.1315  -23.0683   19.7847 H   0  0  0  0  0  0
  -27.2203  -25.0799   20.1859 H   0  0  0  0  0  0
  -27.9192  -25.4336   18.5722 H   0  0  0  0  0  0
  -30.7032  -17.3619   16.9651 H   0  0  0  0  0  0
  -29.1109  -15.2453   19.5358 H   0  0  0  0  0  0
  -29.3241  -21.4758   18.8287 H   0  0  0  0  0  0
  1 25  1  0  0  0
  1 30  2  0  0  0
  1 84  1  0  0  0
  2  3  1  0  0  0
  2 25  1  0  0  0
  2 86  1  0  0  0
  2 87  1  0  0  0
  3  4  1  0  0  0
  3 88  1  0  0  0
  3 89  1  0  0  0
  4  5  1  0  0  0
  4 90  1  0  0  0
  4 91  1  0  0  0
  5  6  1  0  0  0
  5 26  1  0  0  0
  5 92  1  0  0  0
  6 25  1  0  0  0
  6 93  1  0  0  0
  6 94  1  0  0  0
  7  8  2  0  0  0
  7 26  1  0  0  0
  7 29  1  0  0  0
  8  9  1  0  0  0
  8 22  1  0  0  0
  9 10  1  0  0  0
  9 27  2  0  0  0
 10 11  2  0  0  0
 10 15  1  0  0  0
 11 12  1  0  0  0
 11 95  1  0  0  0
 12 13  2  0  0  0
 12 96  1  0  0  0
 13 14  1  0  0  0
 13 31  1  0  0  0
 14 15  2  0  0  0
 14 97  1  0  0  0
 15 98  1  0  0  0
 16 17  2  0  0  0
 16 21  1  0  0  0
 16 31  1  0  0  0
 17 18  1  0  0  0
 17 99  1  0  0  0
 18 19  2  0  0  0
 18100  1  0  0  0
 19 20  1  0  0  0
 19 24  1  0  0  0
 20 21  2  0  0  0
 20101  1  0  0  0
 21 23  1  0  0  0
 22 28  1  0  0  0
 22 32  2  0  0  0
 26 27  1  0  0  0
 28102  1  0  0  0
 28103  1  0  0  0
 29104  1  0  0  0
 29105  1  0  0  0
 33 34  1  0  0  0
 33 66  1  0  0  0
 33 70  2  0  0  0
 34 36  1  0  0  0
 34 59  1  0  0  0
 34106  1  0  0  0
 35 44  2  0  0  0
 35 45  1  0  0  0
 35 68  1  0  0  0
 36 56  1  0  0  0
 36107  1  0  0  0
 37 39  1  0  0  0
 37 47  1  0  0  0
 37 66  1  0  0  0
 37108  1  0  0  0
 38 43  2  0  0  0
 38 46  1  0  0  0
 38 47  1  0  0  0
 39 64  1  0  0  0
 39 67  2  0  0  0
 40 52  1  0  0  0
 40 53  2  0  0  0
 40 58  1  0  0  0
 41109  1  0  0  0
 41110  1  0  0  0
 41111  1  0  0  0
 41 48  1  0  0  0
 42 43  1  0  0  0
 42 66  1  0  0  0
 42112  1  0  0  0
 42113  1  0  0  0
 43 44  1  0  0  0
 44114  1  0  0  0
 45 46  2  0  0  0
 45115  1  0  0  0
 46116  1  0  0  0
 47117  1  0  0  0
 47118  1  0  0  0
 48 56  1  0  0  0
 48 65  1  0  0  0
 48119  1  0  0  0
 49 50  1  0  0  0
 49 53  1  0  0  0
 49 64  1  0  0  0
 49120  1  0  0  0
 50 51  1  0  0  0
 50121  1  0  0  0
 50122  1  0  0  0
 51 52  1  0  0  0
 51123  1  0  0  0
 51124  1  0  0  0
 52125  1  0  0  0
 52126  1  0  0  0
 53 54  1  0  0  0
 54 55  2  0  0  0
 54127  1  0  0  0
 55 57  1  0  0  0
 55128  1  0  0  0
 56 69  2  0  0  0
 57 58  2  0  0  0
 57129  1  0  0  0
 58130  1  0  0  0
 59 60  1  0  0  0
 59 61  1  0  0  0
 59 62  1  0  0  0
 60131  1  0  0  0
 60132  1  0  0  0
 60133  1  0  0  0
 61134  1  0  0  0
 61135  1  0  0  0
 61136  1  0  0  0
 62137  1  0  0  0
 62138  1  0  0  0
 62139  1  0  0  0
 63 65  1  0  0  0
 63140  1  0  0  0
 63141  1  0  0  0
 63142  1  0  0  0
 64143  1  0  0  0
 65144  1  0  0  0
 68 79  1  0  0  0
 71 72  2  0  0  0
 71 83  1  0  0  0
 71145  1  0  0  0
 72 75  1  0  0  0
 72 81  1  0  0  0
 73146  1  0  0  0
 73147  1  0  0  0
 73148  1  0  0  0
 73 80  1  0  0  0
 74149  1  0  0  0
 74150  1  0  0  0
 74151  1  0  0  0
 74 85  1  0  0  0
 75 85  1  0  0  0
 75152  1  0  0  0
 75153  1  0  0  0
 76 78  1  0  0  0
 76 79  1  0  0  0
 76154  1  0  0  0
 76155  1  0  0  0
 77 80  1  0  0  0
 77 84  1  0  0  0
 77156  1  0  0  0
 77157  1  0  0  0
 78 85  1  0  0  0
 78158  1  0  0  0
 78159  1  0  0  0
 79160  1  0  0  0
 79161  1  0  0  0
 80 83  1  0  0  0
 80162  1  0  0  0
 81 82  2  0  0  0
 82 83  1  0  0  0
 84163  1  0  0  0
 85164  1  0  0  0
M  CHG  1  85   1
M  ISO  4   1 100  68 101  79 101  84 100
M  END
> <chiral flag>
0

> <version>
0

> <s_m_source_file>
/data/baiqing/PycharmProjects/Reinvent-master-3.2/result/LINK_invent/BTK/process_docking_weight1_custom_sum_contain_oxygen_bond_distance_aromatic_linkinvent_7_9_3/rearranged_h_0053.sdf

> <i_m_source_file_index>
23

> <r_mmod_Potential_Energy-OPLS-2005>
-122.088188171387

> <r_mmod_Stretch_Energy-OPLS-2005>
32.6376991271973

> <r_mmod_Bend_Energy-OPLS-2005>
143.066253662109

> <r_mmod_Torsional_Energy-OPLS-2005>
260.932922363281

> <r_mmod_Improper_Torsional_Energy-OPLS-2005>
19.8387851715088

> <r_mmod_Van_der_Waal_Energy-OPLS-2005>
168.84880065918

> <r_mmod_Electrostatic_Energy-OPLS-2005>
-317.516204833984

> <r_mmod_Solvation_Energy-OPLS-2005>
-476.540740966797

> <b_mmod_Minimization_Converged-OPLS-2005>
0

> <r_mmod_RMS_Derivative-OPLS-2005>
1.84861695766449

$$$$
23
                    3D
 Structure written by MMmdl.
159167  0  0  1  0            999 V2000
  -30.7244  -14.5035   20.5494 C   0  0  0  0  0  0
  -30.4188  -12.3228   19.4373 C   0  0  0  0  0  0
  -29.4983  -12.4984   18.2136 C   0  0  0  0  0  0
  -28.0222  -12.3535   18.6291 C   0  0  0  0  0  0
  -27.6587  -13.2170   19.8672 C   0  0  2  0  0  0
  -28.7025  -13.0484   20.9959 C   0  0  0  0  0  0
  -25.2555  -13.8178   20.5662 C   0  0  0  0  0  0
  -24.1823  -13.0447   20.9189 C   0  0  0  0  0  0
  -24.6382  -11.6916   20.8718 C   0  0  0  0  0  0
  -23.9057  -10.4294   21.0386 C   0  0  0  0  0  0
  -24.3606   -9.4204   21.9169 C   0  0  0  0  0  0
  -23.6280   -8.2241   22.0745 C   0  0  0  0  0  0
  -22.4253   -8.0290   21.3556 C   0  0  0  0  0  0
  -21.9889   -9.0256   20.4649 C   0  0  0  0  0  0
  -22.7219  -10.2130   20.3043 C   0  0  0  0  0  0
  -21.6853   -6.0733   22.5278 C   0  0  0  0  0  0
  -21.4016   -6.5633   23.8209 C   0  0  0  0  0  0
  -21.3654   -5.6785   24.9173 C   0  0  0  0  0  0
  -21.6035   -4.3050   24.7220 C   0  0  0  0  0  0
  -21.8819   -3.8147   23.4345 C   0  0  0  0  0  0
  -21.9177   -4.6967   22.3396 C   0  0  0  0  0  0
  -22.7835  -13.5244   21.1856 C   0  0  0  0  0  0
  -22.1663   -4.2149   21.0975 F   0  0  0  0  0  0
  -21.5623   -3.4527   25.7729 F   0  0  0  0  0  0
  -30.0328  -13.3363   20.4345 N   0  0  0  0  0  0
  -26.3003  -12.9369   20.3339 N   0  0  0  0  0  0
  -25.9313  -11.6520   20.5749 N   0  0  0  0  0  0
  -22.0461  -12.8246   22.0411 N   0  0  0  0  0  0
  -25.4295  -15.1886   20.4043 N   0  0  0  0  0  0
  -31.8626  -14.6419   20.0920 O   0  0  0  0  0  0
  -21.6638   -6.8878   21.4239 O   0  0  0  0  0  0
  -22.3516  -14.5548   20.6701 O   0  0  0  0  0  0
  -24.6196  -31.8671   23.2091 C   0  0  0  0  0  0
  -25.9067  -32.4809   23.8395 C   0  0  1  0  0  0
  -27.2260  -27.3956   20.0884 C   0  0  0  0  0  0
  -25.5904  -33.8612   24.2316 N   0  0  0  0  0  0
  -23.4077  -30.4946   21.5514 C   0  0  2  0  0  0
  -24.8526  -28.9640   20.1112 C   0  0  0  0  0  0
  -22.7433  -29.4674   22.4967 C   0  0  0  0  0  0
  -18.0285  -28.1394   22.8489 C   0  0  0  0  0  0
  -24.1487  -36.7321   23.2640 C   0  0  0  0  0  0
  -25.9443  -30.8178   21.3720 C   0  0  0  0  0  0
  -26.0192  -29.4524   20.7137 C   0  0  0  0  0  0
  -27.2081  -28.6764   20.7006 C   0  0  0  0  0  0
  -26.0421  -26.9539   19.4503 C   0  0  0  0  0  0
  -24.8611  -27.7150   19.4753 C   0  0  0  0  0  0
  -23.6169  -29.8352   20.1656 C   0  0  0  0  0  0
  -25.4105  -36.3108   24.0336 C   0  0  1  0  0  0
  -20.5876  -28.3688   23.1303 C   0  0  2  0  0  0
  -20.6778  -26.9421   22.5412 C   0  0  0  0  0  0
  -19.5753  -26.6395   21.5216 C   0  0  0  0  0  0
  -18.1930  -26.7943   22.1627 C   0  0  0  0  0  0
  -19.1533  -28.8855   23.2897 C   0  0  0  0  0  0
  -18.9461  -30.1458   23.8911 C   0  0  0  0  0  0
  -17.6462  -30.6592   24.0573 C   0  0  0  0  0  0
  -25.9035  -34.9470   23.5120 C   0  0  0  0  0  0
  -16.5353  -29.9093   23.6331 C   0  0  0  0  0  0
  -16.7276  -28.6516   23.0342 C   0  0  0  0  0  0
  -26.4486  -31.6587   25.0724 C   0  0  0  0  0  0
  -25.3757  -31.3706   26.1474 C   0  0  0  0  0  0
  -27.0326  -30.3019   24.6128 C   0  0  0  0  0  0
  -27.6053  -32.4327   25.7475 C   0  0  0  0  0  0
  -27.5580  -37.1814   24.8466 C   0  0  0  0  0  0
  -21.4154  -29.3047   22.3692 N   0  0  0  0  0  0
  -26.4296  -37.3786   23.9405 N   0  0  0  0  0  0
  -24.6759  -31.0749   22.1013 N   0  0  0  0  0  0
  -23.4187  -28.8206   23.3024 O   0  0  0  0  0  0
  -28.3595  -26.5889   20.1108 O   0  0  0  0  0  0
  -26.5597  -34.8929   22.4687 O   0  0  0  0  0  0
  -23.5376  -32.1437   23.7457 O   0  0  0  0  0  0
  -30.5985  -24.5235   20.4643 C   0  0  0  0  0  0
  -31.5247  -23.4675   20.4444 C   0  0  0  0  0  0
  -29.2431  -24.1770   20.3727 C   0  0  0  0  0  0
  -29.8290  -21.9391   20.2523 C   0  0  0  0  0  0
  -33.0162  -23.7196   20.5315 C   0  0  0  0  0  0
  -28.2594  -20.3003   19.2776 C   0  0  0  0  0  0
  -28.0969  -25.1997   20.4645 C   0  0  0  0  0  0
  -29.6602  -18.0549   20.5617 C   0  0  0  0  0  0
  -30.5920  -16.9520   21.1450 C   0  0  0  0  0  0
  -30.3274  -19.4711   20.4475 C   0  0  0  0  0  0
  -31.1302  -22.1801   20.3465 N   0  0  0  0  0  0
  -28.8818  -22.8733   20.2605 N   0  0  0  0  0  0
  -30.0617  -15.5676   21.0549 N   0  0  0  0  0  0
  -29.4226  -20.5979   20.1155 N   0  0  0  0  0  0
  -31.4668  -12.4009   19.1415 H   0  0  0  0  0  0
  -30.3075  -11.3247   19.8622 H   0  0  0  0  0  0
  -29.7506  -11.7682   17.4416 H   0  0  0  0  0  0
  -29.6544  -13.4808   17.7635 H   0  0  0  0  0  0
  -27.8447  -11.3014   18.8547 H   0  0  0  0  0  0
  -27.3671  -12.5993   17.7943 H   0  0  0  0  0  0
  -27.6898  -14.2559   19.5371 H   0  0  0  0  0  0
  -28.6776  -12.0303   21.3828 H   0  0  0  0  0  0
  -28.4663  -13.6900   21.8450 H   0  0  0  0  0  0
  -25.2748   -9.5691   22.4754 H   0  0  0  0  0  0
  -23.9994   -7.4624   22.7455 H   0  0  0  0  0  0
  -21.0823   -8.8779   19.8934 H   0  0  0  0  0  0
  -22.3689  -10.9679   19.6151 H   0  0  0  0  0  0
  -21.2047   -7.6144   23.9720 H   0  0  0  0  0  0
  -21.1469   -6.0520   25.9081 H   0  0  0  0  0  0
  -22.0606   -2.7609   23.2831 H   0  0  0  0  0  0
  -22.4074  -11.9922   22.4832 H   0  0  0  0  0  0
  -21.1084  -13.1287   22.2586 H   0  0  0  0  0  0
  -24.6689  -15.8504   20.5149 H   0  0  0  0  0  0
  -26.2900  -15.6190   20.0865 H   0  0  0  0  0  0
  -26.7129  -32.5516   23.1150 H   0  0  0  0  0  0
  -25.0057  -33.9768   25.0462 H   0  0  0  0  0  0
  -22.6978  -31.3134   21.4143 H   0  0  0  0  0  0
  -23.3734  -35.9672   23.3326 H   0  0  0  0  0  0
  -24.3577  -36.8916   22.2050 H   0  0  0  0  0  0
  -23.7257  -37.6538   23.6645 H   0  0  0  0  0  0
  -26.0657  -31.5864   20.6073 H   0  0  0  0  0  0
  -26.8289  -30.8652   21.9959 H   0  0  0  0  0  0
  -28.1035  -29.0451   21.1810 H   0  0  0  0  0  0
  -26.0040  -26.0237   18.9046 H   0  0  0  0  0  0
  -23.9703  -27.3395   18.9906 H   0  0  0  0  0  0
  -23.7275  -30.6132   19.4097 H   0  0  0  0  0  0
  -22.7389  -29.2596   19.8669 H   0  0  0  0  0  0
  -25.1283  -36.1973   25.0829 H   0  0  0  0  0  0
  -20.9978  -28.3273   24.1419 H   0  0  0  0  0  0
  -20.5691  -26.2305   23.3606 H   0  0  0  0  0  0
  -21.6649  -26.7474   22.1200 H   0  0  0  0  0  0
  -19.6921  -25.6313   21.1237 H   0  0  0  0  0  0
  -19.6691  -27.3217   20.6754 H   0  0  0  0  0  0
  -17.4201  -26.6693   21.4024 H   0  0  0  0  0  0
  -18.0332  -26.0082   22.9023 H   0  0  0  0  0  0
  -19.7934  -30.7270   24.2282 H   0  0  0  0  0  0
  -17.5018  -31.6268   24.5179 H   0  0  0  0  0  0
  -15.5354  -30.3000   23.7645 H   0  0  0  0  0  0
  -15.8681  -28.0843   22.7042 H   0  0  0  0  0  0
  -24.5914  -30.7064   25.7815 H   0  0  0  0  0  0
  -24.8971  -32.2873   26.4931 H   0  0  0  0  0  0
  -25.8115  -30.8862   27.0221 H   0  0  0  0  0  0
  -26.2878  -29.6751   24.1202 H   0  0  0  0  0  0
  -27.4100  -29.7272   25.4595 H   0  0  0  0  0  0
  -27.8714  -30.4307   23.9284 H   0  0  0  0  0  0
  -27.2654  -33.3625   26.2046 H   0  0  0  0  0  0
  -28.3849  -32.6894   25.0291 H   0  0  0  0  0  0
  -28.0735  -31.8465   26.5388 H   0  0  0  0  0  0
  -28.2609  -38.0097   24.7488 H   0  0  0  0  0  0
  -28.1063  -36.2629   24.6320 H   0  0  0  0  0  0
  -27.2303  -37.1501   25.8871 H   0  0  0  0  0  0
  -20.9311  -29.8762   21.6911 H   0  0  0  0  0  0
  -26.0189  -38.2870   24.1387 H   0  0  0  0  0  0
  -30.9071  -25.5572   20.5584 H   0  0  0  0  0  0
  -33.2245  -24.7087   20.9410 H   0  0  0  0  0  0
  -33.4711  -23.6616   19.5418 H   0  0  0  0  0  0
  -33.4995  -22.9816   21.1739 H   0  0  0  0  0  0
  -27.8248  -21.1874   18.8153 H   0  0  0  0  0  0
  -27.4788  -19.8278   19.8741 H   0  0  0  0  0  0
  -28.5300  -19.6231   18.4660 H   0  0  0  0  0  0
  -27.7269  -25.1745   21.4901 H   0  0  0  0  0  0
  -27.3096  -24.7686   19.8522 H   0  0  0  0  0  0
  -28.7613  -18.1175   21.1781 H   0  0  0  0  0  0
  -29.3380  -17.7367   19.5691 H   0  0  0  0  0  0
  -30.7949  -17.1749   22.1941 H   0  0  0  0  0  0
  -31.5586  -17.0247   20.6415 H   0  0  0  0  0  0
  -31.1241  -19.4372   19.7034 H   0  0  0  0  0  0
  -30.8157  -19.7054   21.3958 H   0  0  0  0  0  0
  -29.1256  -15.3993   21.3935 H   0  0  0  0  0  0
  1 25  1  0  0  0
  1 30  2  0  0  0
  1 83  1  0  0  0
  2  3  1  0  0  0
  2 25  1  0  0  0
  2 85  1  0  0  0
  2 86  1  0  0  0
  3  4  1  0  0  0
  3 87  1  0  0  0
  3 88  1  0  0  0
  4  5  1  0  0  0
  4 89  1  0  0  0
  4 90  1  0  0  0
  5  6  1  0  0  0
  5 26  1  0  0  0
  5 91  1  0  0  0
  6 25  1  0  0  0
  6 92  1  0  0  0
  6 93  1  0  0  0
  7  8  2  0  0  0
  7 26  1  0  0  0
  7 29  1  0  0  0
  8  9  1  0  0  0
  8 22  1  0  0  0
  9 10  1  0  0  0
  9 27  2  0  0  0
 10 11  2  0  0  0
 10 15  1  0  0  0
 11 12  1  0  0  0
 11 94  1  0  0  0
 12 13  2  0  0  0
 12 95  1  0  0  0
 13 14  1  0  0  0
 13 31  1  0  0  0
 14 15  2  0  0  0
 14 96  1  0  0  0
 15 97  1  0  0  0
 16 17  2  0  0  0
 16 21  1  0  0  0
 16 31  1  0  0  0
 17 18  1  0  0  0
 17 98  1  0  0  0
 18 19  2  0  0  0
 18 99  1  0  0  0
 19 20  1  0  0  0
 19 24  1  0  0  0
 20 21  2  0  0  0
 20100  1  0  0  0
 21 23  1  0  0  0
 22 28  1  0  0  0
 22 32  2  0  0  0
 26 27  1  0  0  0
 28101  1  0  0  0
 28102  1  0  0  0
 29103  1  0  0  0
 29104  1  0  0  0
 33 34  1  0  0  0
 33 66  1  0  0  0
 33 70  2  0  0  0
 34 36  1  0  0  0
 34 59  1  0  0  0
 34105  1  0  0  0
 35 44  2  0  0  0
 35 45  1  0  0  0
 35 68  1  0  0  0
 36 56  1  0  0  0
 36106  1  0  0  0
 37 39  1  0  0  0
 37 47  1  0  0  0
 37 66  1  0  0  0
 37107  1  0  0  0
 38 43  2  0  0  0
 38 46  1  0  0  0
 38 47  1  0  0  0
 39 64  1  0  0  0
 39 67  2  0  0  0
 40 52  1  0  0  0
 40 53  2  0  0  0
 40 58  1  0  0  0
 41108  1  0  0  0
 41109  1  0  0  0
 41110  1  0  0  0
 41 48  1  0  0  0
 42 43  1  0  0  0
 42 66  1  0  0  0
 42111  1  0  0  0
 42112  1  0  0  0
 43 44  1  0  0  0
 44113  1  0  0  0
 45 46  2  0  0  0
 45114  1  0  0  0
 46115  1  0  0  0
 47116  1  0  0  0
 47117  1  0  0  0
 48 56  1  0  0  0
 48 65  1  0  0  0
 48118  1  0  0  0
 49 50  1  0  0  0
 49 53  1  0  0  0
 49 64  1  0  0  0
 49119  1  0  0  0
 50 51  1  0  0  0
 50120  1  0  0  0
 50121  1  0  0  0
 51 52  1  0  0  0
 51122  1  0  0  0
 51123  1  0  0  0
 52124  1  0  0  0
 52125  1  0  0  0
 53 54  1  0  0  0
 54 55  2  0  0  0
 54126  1  0  0  0
 55 57  1  0  0  0
 55127  1  0  0  0
 56 69  2  0  0  0
 57 58  2  0  0  0
 57128  1  0  0  0
 58129  1  0  0  0
 59 60  1  0  0  0
 59 61  1  0  0  0
 59 62  1  0  0  0
 60130  1  0  0  0
 60131  1  0  0  0
 60132  1  0  0  0
 61133  1  0  0  0
 61134  1  0  0  0
 61135  1  0  0  0
 62136  1  0  0  0
 62137  1  0  0  0
 62138  1  0  0  0
 63 65  1  0  0  0
 63139  1  0  0  0
 63140  1  0  0  0
 63141  1  0  0  0
 64142  1  0  0  0
 65143  1  0  0  0
 68 77  1  0  0  0
 71 72  2  0  0  0
 71 73  1  0  0  0
 71144  1  0  0  0
 72 75  1  0  0  0
 72 81  1  0  0  0
 73 77  1  0  0  0
 73 82  2  0  0  0
 74 81  2  0  0  0
 74 82  1  0  0  0
 74 84  1  0  0  0
 75145  1  0  0  0
 75146  1  0  0  0
 75147  1  0  0  0
 76 84  1  0  0  0
 76148  1  0  0  0
 76149  1  0  0  0
 76150  1  0  0  0
 77151  1  0  0  0
 77152  1  0  0  0
 78 79  1  0  0  0
 78 80  1  0  0  0
 78153  1  0  0  0
 78154  1  0  0  0
 79 83  1  0  0  0
 79155  1  0  0  0
 79156  1  0  0  0
 80 84  1  0  0  0
 80157  1  0  0  0
 80158  1  0  0  0
 83159  1  0  0  0
M  ISO  4   1 100  68 101  77 101  83 100
M  END
> <chiral flag>
0

> <version>
0

> <s_m_source_file>
/data/baiqing/PycharmProjects/Reinvent-master-3.2/result/LINK_invent/BTK/process_docking_weight1_custom_sum_contain_oxygen_bond_distance_aromatic_linkinvent_7_9_3/rearranged_h_0053.sdf

> <i_m_source_file_index>
24

> <r_mmod_Potential_Energy-OPLS-2005>
-550.761657714844

> <r_mmod_Stretch_Energy-OPLS-2005>
46.4138298034668

> <r_mmod_Bend_Energy-OPLS-2005>
107.980293273926

> <r_mmod_Torsional_Energy-OPLS-2005>
209.359634399414

> <r_mmod_Improper_Torsional_Energy-OPLS-2005>
4.03323364257812

> <r_mmod_Van_der_Waal_Energy-OPLS-2005>
175.424209594727

> <r_mmod_Electrostatic_Energy-OPLS-2005>
-867.607055664062

> <r_mmod_Solvation_Energy-OPLS-2005>
-247.734283447266

> <b_mmod_Minimization_Converged-OPLS-2005>
0

> <r_mmod_RMS_Derivative-OPLS-2005>
3.06834959983826

$$$$
24
                    3D
 Structure written by MMmdl.
145153  0  0  1  0            999 V2000
  -30.3841  -15.2907   20.3810 C   0  0  0  0  0  0
  -30.4506  -12.8153   19.5403 C   0  0  0  0  0  0
  -29.5470  -12.5930   18.2978 C   0  0  0  0  0  0
  -28.0928  -12.3094   18.7150 C   0  0  0  0  0  0
  -27.6175  -13.2756   19.8274 C   0  0  2  0  0  0
  -28.6472  -13.4319   20.9664 C   0  0  0  0  0  0
  -25.2414  -13.8245   20.5737 C   0  0  0  0  0  0
  -24.1759  -13.0436   20.9239 C   0  0  0  0  0  0
  -24.6412  -11.6932   20.8741 C   0  0  0  0  0  0
  -23.9101  -10.4293   21.0395 C   0  0  0  0  0  0
  -24.3642   -9.4208   21.9177 C   0  0  0  0  0  0
  -23.6307   -8.2248   22.0753 C   0  0  0  0  0  0
  -22.4288   -8.0286   21.3545 C   0  0  0  0  0  0
  -21.9930   -9.0260   20.4645 C   0  0  0  0  0  0
  -22.7268  -10.2134   20.3049 C   0  0  0  0  0  0
  -21.6858   -6.0739   22.5279 C   0  0  0  0  0  0
  -21.4018   -6.5641   23.8212 C   0  0  0  0  0  0
  -21.3661   -5.6793   24.9174 C   0  0  0  0  0  0
  -21.6045   -4.3056   24.7224 C   0  0  0  0  0  0
  -21.8819   -3.8148   23.4344 C   0  0  0  0  0  0
  -21.9194   -4.6966   22.3401 C   0  0  0  0  0  0
  -22.7775  -13.5188   21.1894 C   0  0  0  0  0  0
  -22.1662   -4.2151   21.0979 F   0  0  0  0  0  0
  -21.5629   -3.4538   25.7736 F   0  0  0  0  0  0
  -29.8892  -13.9491   20.3667 N   0  0  0  0  0  0
  -26.2845  -12.9521   20.3206 N   0  0  0  0  0  0
  -25.9352  -11.6624   20.5695 N   0  0  0  0  0  0
  -22.0436  -12.8169   22.0451 N   0  0  0  0  0  0
  -25.4058  -15.1981   20.4201 N   0  0  0  0  0  0
  -31.5859  -15.3276   20.0669 O   0  0  0  0  0  0
  -21.6647   -6.8885   21.4242 O   0  0  0  0  0  0
  -22.3450  -14.5489   20.6738 O   0  0  0  0  0  0
  -24.6636  -31.8214   23.1682 C   0  0  0  0  0  0
  -25.9311  -32.4576   23.8155 C   0  0  1  0  0  0
  -27.2248  -26.9144   20.1872 C   0  0  0  0  0  0
  -25.5973  -33.8392   24.2059 N   0  0  0  0  0  0
  -23.4797  -30.4306   21.5173 C   0  0  2  0  0  0
  -24.9348  -28.8127   20.1111 C   0  0  0  0  0  0
  -22.7671  -29.4425   22.4775 C   0  0  0  0  0  0
  -18.0323  -28.1409   22.8466 C   0  0  0  0  0  0
  -24.1494  -36.7203   23.2648 C   0  0  0  0  0  0
  -26.0486  -30.6232   21.4006 C   0  0  0  0  0  0
  -26.1174  -29.2111   20.7461 C   0  0  0  0  0  0
  -27.2546  -28.2829   20.7590 C   0  0  0  0  0  0
  -26.0144  -26.6707   19.4998 C   0  0  0  0  0  0
  -24.9095  -27.5637   19.4673 C   0  0  0  0  0  0
  -23.7205  -29.7418   20.1448 C   0  0  0  0  0  0
  -25.4136  -36.2961   24.0297 C   0  0  1  0  0  0
  -20.5947  -28.3753   23.1186 C   0  0  2  0  0  0
  -20.6797  -26.9433   22.5404 C   0  0  0  0  0  0
  -19.5773  -26.6375   21.5215 C   0  0  0  0  0  0
  -18.1955  -26.7942   22.1622 C   0  0  0  0  0  0
  -19.1584  -28.8903   23.2812 C   0  0  0  0  0  0
  -18.9494  -30.1492   23.8848 C   0  0  0  0  0  0
  -17.6487  -30.6598   24.0554 C   0  0  0  0  0  0
  -25.9102  -34.9344   23.5003 C   0  0  0  0  0  0
  -16.5377  -29.9084   23.6344 C   0  0  0  0  0  0
  -16.7305  -28.6505   23.0363 C   0  0  0  0  0  0
  -26.4560  -31.6531   25.0692 C   0  0  0  0  0  0
  -25.3682  -31.3786   26.1346 C   0  0  0  0  0  0
  -27.0463  -30.2896   24.6441 C   0  0  0  0  0  0
  -27.6046  -32.4348   25.7498 C   0  0  0  0  0  0
  -27.5570  -37.1758   24.8466 C   0  0  0  0  0  0
  -21.4339  -29.3038   22.3529 N   0  0  0  0  0  0
  -26.4280  -37.3698   23.9406 N   0  0  0  0  0  0
  -24.7520  -30.9861   22.0823 N   0  0  0  0  0  0
  -23.4211  -28.8004   23.3030 O   0  0  0  0  0  0
  -28.2327  -25.8121   20.2874 O   0  0  0  0  0  0
  -26.5718  -34.8883   22.4603 O   0  0  0  0  0  0
  -23.5703  -32.1191   23.6765 O   0  0  0  0  0  0
  -29.3474  -19.7988   21.0287 C   0  0  0  0  0  0
  -28.9820  -20.3895   19.0590 C   0  0  0  0  0  0
  -29.4608  -18.5038   20.3266 C   0  0  0  0  0  0
  -29.5123  -16.7848   20.7646 C   0  0  0  0  0  0
  -28.9759  -22.7130   20.6030 C   0  0  0  0  0  0
  -28.0686  -24.1768   20.0329 C   0  0  0  0  0  0
  -29.1827  -19.0246   19.0365 N   0  0  0  0  0  0
  -29.0335  -21.0545   20.2447 N   0  0  0  0  0  0
  -31.4695  -13.0256   19.2135 H   0  0  0  0  0  0
  -30.5204  -11.9024   20.1341 H   0  0  0  0  0  0
  -29.9309  -11.7734   17.6892 H   0  0  0  0  0  0
  -29.5775  -13.4835   17.6680 H   0  0  0  0  0  0
  -28.0469  -11.2821   19.0782 H   0  0  0  0  0  0
  -27.4289  -12.3596   17.8512 H   0  0  0  0  0  0
  -27.5391  -14.2481   19.3401 H   0  0  0  0  0  0
  -28.8097  -12.4878   21.4886 H   0  0  0  0  0  0
  -28.2799  -14.1372   21.7132 H   0  0  0  0  0  0
  -25.2785   -9.5682   22.4755 H   0  0  0  0  0  0
  -24.0012   -7.4640   22.7475 H   0  0  0  0  0  0
  -21.0860   -8.8783   19.8950 H   0  0  0  0  0  0
  -22.3726  -10.9673   19.6157 H   0  0  0  0  0  0
  -21.2012   -7.6149   23.9716 H   0  0  0  0  0  0
  -21.1484   -6.0523   25.9077 H   0  0  0  0  0  0
  -22.0596   -2.7610   23.2844 H   0  0  0  0  0  0
  -22.4072  -11.9841   22.4842 H   0  0  0  0  0  0
  -21.1047  -13.1173   22.2654 H   0  0  0  0  0  0
  -24.6364  -15.8486   20.5372 H   0  0  0  0  0  0
  -26.2506  -15.6425   20.0847 H   0  0  0  0  0  0
  -26.7381  -32.5110   23.0869 H   0  0  0  0  0  0
  -25.0060  -33.9467   25.0169 H   0  0  0  0  0  0
  -22.7936  -31.2623   21.3438 H   0  0  0  0  0  0
  -23.3768  -35.9521   23.3278 H   0  0  0  0  0  0
  -24.3568  -36.8884   22.2068 H   0  0  0  0  0  0
  -23.7240  -37.6376   23.6728 H   0  0  0  0  0  0
  -26.2298  -31.3631   20.6199 H   0  0  0  0  0  0
  -26.9080  -30.6817   22.0566 H   0  0  0  0  0  0
  -28.1480  -28.5854   21.2869 H   0  0  0  0  0  0
  -25.8891  -25.7158   19.0101 H   0  0  0  0  0  0
  -24.0113  -27.2530   18.9515 H   0  0  0  0  0  0
  -23.8755  -30.5084   19.3848 H   0  0  0  0  0  0
  -22.8303  -29.1953   19.8286 H   0  0  0  0  0  0
  -25.1336  -36.1754   25.0788 H   0  0  0  0  0  0
  -21.0035  -28.3363   24.1310 H   0  0  0  0  0  0
  -20.5674  -26.2373   23.3647 H   0  0  0  0  0  0
  -21.6661  -26.7405   22.1214 H   0  0  0  0  0  0
  -19.6931  -25.6273   21.1278 H   0  0  0  0  0  0
  -19.6713  -27.3157   20.6722 H   0  0  0  0  0  0
  -17.4224  -26.6685   21.4025 H   0  0  0  0  0  0
  -18.0348  -26.0095   22.9030 H   0  0  0  0  0  0
  -19.7969  -30.7321   24.2196 H   0  0  0  0  0  0
  -17.5038  -31.6273   24.5164 H   0  0  0  0  0  0
  -15.5375  -30.2969   23.7695 H   0  0  0  0  0  0
  -15.8706  -28.0805   22.7107 H   0  0  0  0  0  0
  -24.5877  -30.7124   25.7652 H   0  0  0  0  0  0
  -24.8857  -32.2990   26.4645 H   0  0  0  0  0  0
  -25.7908  -30.9034   27.0207 H   0  0  0  0  0  0
  -26.3135  -29.6562   24.1430 H   0  0  0  0  0  0
  -27.3969  -29.7271   25.5105 H   0  0  0  0  0  0
  -27.9084  -30.4072   23.9874 H   0  0  0  0  0  0
  -27.2608  -33.3692   26.1946 H   0  0  0  0  0  0
  -28.3925  -32.6841   25.0378 H   0  0  0  0  0  0
  -28.0640  -31.8564   26.5524 H   0  0  0  0  0  0
  -28.2567  -38.0073   24.7513 H   0  0  0  0  0  0
  -28.1088  -36.2599   24.6295 H   0  0  0  0  0  0
  -27.2286  -37.1401   25.8868 H   0  0  0  0  0  0
  -20.9598  -29.8717   21.6646 H   0  0  0  0  0  0
  -26.0127  -38.2756   24.1414 H   0  0  0  0  0  0
  -29.4540  -19.9269   22.0986 H   0  0  0  0  0  0
  -28.8015  -20.9329   18.1417 H   0  0  0  0  0  0
  -28.4847  -16.4511   20.6277 H   0  0  0  0  0  0
  -29.6137  -16.7909   21.8493 H   0  0  0  0  0  0
  -28.8447  -22.7359   21.6844 H   0  0  0  0  0  0
  -30.0147  -23.0158   20.4738 H   0  0  0  0  0  0
  -27.0311  -23.9735   20.2981 H   0  0  0  0  0  0
  -28.0798  -24.0986   18.9457 H   0  0  0  0  0  0
  1 25  1  0  0  0
  1 30  2  0  0  0
  1 74  1  0  0  0
  2  3  1  0  0  0
  2 25  1  0  0  0
  2 79  1  0  0  0
  2 80  1  0  0  0
  3  4  1  0  0  0
  3 81  1  0  0  0
  3 82  1  0  0  0
  4  5  1  0  0  0
  4 83  1  0  0  0
  4 84  1  0  0  0
  5  6  1  0  0  0
  5 26  1  0  0  0
  5 85  1  0  0  0
  6 25  1  0  0  0
  6 86  1  0  0  0
  6 87  1  0  0  0
  7  8  2  0  0  0
  7 26  1  0  0  0
  7 29  1  0  0  0
  8  9  1  0  0  0
  8 22  1  0  0  0
  9 10  1  0  0  0
  9 27  2  0  0  0
 10 11  2  0  0  0
 10 15  1  0  0  0
 11 12  1  0  0  0
 11 88  1  0  0  0
 12 13  2  0  0  0
 12 89  1  0  0  0
 13 14  1  0  0  0
 13 31  1  0  0  0
 14 15  2  0  0  0
 14 90  1  0  0  0
 15 91  1  0  0  0
 16 17  2  0  0  0
 16 21  1  0  0  0
 16 31  1  0  0  0
 17 18  1  0  0  0
 17 92  1  0  0  0
 18 19  2  0  0  0
 18 93  1  0  0  0
 19 20  1  0  0  0
 19 24  1  0  0  0
 20 21  2  0  0  0
 20 94  1  0  0  0
 21 23  1  0  0  0
 22 28  1  0  0  0
 22 32  2  0  0  0
 26 27  1  0  0  0
 28 95  1  0  0  0
 28 96  1  0  0  0
 29 97  1  0  0  0
 29 98  1  0  0  0
 33 34  1  0  0  0
 33 66  1  0  0  0
 33 70  2  0  0  0
 34 36  1  0  0  0
 34 59  1  0  0  0
 34 99  1  0  0  0
 35 44  2  0  0  0
 35 45  1  0  0  0
 35 68  1  0  0  0
 36 56  1  0  0  0
 36100  1  0  0  0
 37 39  1  0  0  0
 37 47  1  0  0  0
 37 66  1  0  0  0
 37101  1  0  0  0
 38 43  2  0  0  0
 38 46  1  0  0  0
 38 47  1  0  0  0
 39 64  1  0  0  0
 39 67  2  0  0  0
 40 52  1  0  0  0
 40 53  2  0  0  0
 40 58  1  0  0  0
 41102  1  0  0  0
 41103  1  0  0  0
 41104  1  0  0  0
 41 48  1  0  0  0
 42 43  1  0  0  0
 42 66  1  0  0  0
 42105  1  0  0  0
 42106  1  0  0  0
 43 44  1  0  0  0
 44107  1  0  0  0
 45 46  2  0  0  0
 45108  1  0  0  0
 46109  1  0  0  0
 47110  1  0  0  0
 47111  1  0  0  0
 48 56  1  0  0  0
 48 65  1  0  0  0
 48112  1  0  0  0
 49 50  1  0  0  0
 49 53  1  0  0  0
 49 64  1  0  0  0
 49113  1  0  0  0
 50 51  1  0  0  0
 50114  1  0  0  0
 50115  1  0  0  0
 51 52  1  0  0  0
 51116  1  0  0  0
 51117  1  0  0  0
 52118  1  0  0  0
 52119  1  0  0  0
 53 54  1  0  0  0
 54 55  2  0  0  0
 54120  1  0  0  0
 55 57  1  0  0  0
 55121  1  0  0  0
 56 69  2  0  0  0
 57 58  2  0  0  0
 57122  1  0  0  0
 58123  1  0  0  0
 59 60  1  0  0  0
 59 61  1  0  0  0
 59 62  1  0  0  0
 60124  1  0  0  0
 60125  1  0  0  0
 60126  1  0  0  0
 61127  1  0  0  0
 61128  1  0  0  0
 61129  1  0  0  0
 62130  1  0  0  0
 62131  1  0  0  0
 62132  1  0  0  0
 63 65  1  0  0  0
 63133  1  0  0  0
 63134  1  0  0  0
 63135  1  0  0  0
 64136  1  0  0  0
 65137  1  0  0  0
 68 76  1  0  0  0
 71 73  2  0  0  0
 71 78  1  0  0  0
 71138  1  0  0  0
 72 77  2  0  0  0
 72 78  1  0  0  0
 72139  1  0  0  0
 73 74  1  0  0  0
 73 77  1  0  0  0
 74140  1  0  0  0
 74141  1  0  0  0
 75 76  1  0  0  0
 75 78  1  0  0  0
 75142  1  0  0  0
 75143  1  0  0  0
 76144  1  0  0  0
 76145  1  0  0  0
M  ISO  4   1 100  68 101  74 100  76 101
M  END
> <chiral flag>
0

> <version>
0

> <s_m_source_file>
/data/baiqing/PycharmProjects/Reinvent-master-3.2/result/LINK_invent/BTK/process_docking_weight1_custom_sum_contain_oxygen_bond_distance_aromatic_linkinvent_7_9_3/rearranged_h_0053.sdf

> <i_m_source_file_index>
25

> <r_mmod_Potential_Energy-OPLS-2005>
1391.44836425781

> <r_mmod_Stretch_Energy-OPLS-2005>
623.360900878906

> <r_mmod_Bend_Energy-OPLS-2005>
481.614440917969

> <r_mmod_Torsional_Energy-OPLS-2005>
191.734329223633

> <r_mmod_Improper_Torsional_Energy-OPLS-2005>
4.16654253005981

> <r_mmod_Van_der_Waal_Energy-OPLS-2005>
105.215751647949

> <r_mmod_Electrostatic_Energy-OPLS-2005>
-265.359771728516

> <r_mmod_Solvation_Energy-OPLS-2005>
-230.024749755859

> <b_mmod_Minimization_Converged-OPLS-2005>
0

> <r_mmod_RMS_Derivative-OPLS-2005>
0.113266438245773

$$$$
25
                    3D
 Structure written by MMmdl.
160168  0  0  1  0            999 V2000
  -30.5661  -14.8796   20.5055 C   0  0  0  0  0  0
  -30.4446  -12.5583   19.5015 C   0  0  0  0  0  0
  -29.5249  -12.5427   18.2570 C   0  0  0  0  0  0
  -28.0543  -12.3293   18.6626 C   0  0  0  0  0  0
  -27.6377  -13.2373   19.8468 C   0  0  2  0  0  0
  -28.6728  -13.1978   20.9884 C   0  0  0  0  0  0
  -25.2492  -13.8195   20.5692 C   0  0  0  0  0  0
  -24.1790  -13.0436   20.9180 C   0  0  0  0  0  0
  -24.6388  -11.6910   20.8720 C   0  0  0  0  0  0
  -23.9063  -10.4288   21.0390 C   0  0  0  0  0  0
  -24.3609   -9.4211   21.9182 C   0  0  0  0  0  0
  -23.6288   -8.2249   22.0756 C   0  0  0  0  0  0
  -22.4274   -8.0277   21.3546 C   0  0  0  0  0  0
  -21.9901   -9.0246   20.4649 C   0  0  0  0  0  0
  -22.7223  -10.2129   20.3050 C   0  0  0  0  0  0
  -21.6855   -6.0728   22.5272 C   0  0  0  0  0  0
  -21.4020   -6.5629   23.8206 C   0  0  0  0  0  0
  -21.3666   -5.6781   24.9169 C   0  0  0  0  0  0
  -21.6041   -4.3044   24.7217 C   0  0  0  0  0  0
  -21.8824   -3.8134   23.4340 C   0  0  0  0  0  0
  -21.9199   -4.6956   22.3399 C   0  0  0  0  0  0
  -22.7817  -13.5220   21.1846 C   0  0  0  0  0  0
  -22.1666   -4.2137   21.0978 F   0  0  0  0  0  0
  -21.5628   -3.4533   25.7735 F   0  0  0  0  0  0
  -29.9647  -13.6234   20.4289 N   0  0  0  0  0  0
  -26.2905  -12.9405   20.3226 N   0  0  0  0  0  0
  -25.9310  -11.6540   20.5691 N   0  0  0  0  0  0
  -22.0467  -12.8230   22.0417 N   0  0  0  0  0  0
  -25.4211  -15.1924   20.4163 N   0  0  0  0  0  0
  -31.7054  -14.9930   20.0376 O   0  0  0  0  0  0
  -21.6646   -6.8871   21.4237 O   0  0  0  0  0  0
  -22.3498  -14.5528   20.6689 O   0  0  0  0  0  0
  -24.6421  -31.8459   23.1959 C   0  0  0  0  0  0
  -25.9206  -32.4692   23.8328 C   0  0  1  0  0  0
  -27.1976  -27.1518   20.1347 C   0  0  0  0  0  0
  -25.5953  -33.8497   24.2233 N   0  0  0  0  0  0
  -23.4457  -30.4720   21.5411 C   0  0  2  0  0  0
  -24.8890  -28.9154   20.1078 C   0  0  0  0  0  0
  -22.7573  -29.4561   22.4875 C   0  0  0  0  0  0
  -18.0328  -28.1376   22.8483 C   0  0  0  0  0  0
  -24.1488  -36.7279   23.2646 C   0  0  0  0  0  0
  -26.0027  -30.7235   21.3955 C   0  0  0  0  0  0
  -26.0692  -29.3416   20.7298 C   0  0  0  0  0  0
  -27.2268  -28.4740   20.7313 C   0  0  0  0  0  0
  -25.9935  -26.8438   19.4555 C   0  0  0  0  0  0
  -24.8624  -27.6791   19.4555 C   0  0  0  0  0  0
  -23.6675  -29.8145   20.1570 C   0  0  0  0  0  0
  -25.4113  -36.3033   24.0318 C   0  0  1  0  0  0
  -20.5942  -28.3711   23.1231 C   0  0  2  0  0  0
  -20.6814  -26.9411   22.5400 C   0  0  0  0  0  0
  -19.5776  -26.6376   21.5217 C   0  0  0  0  0  0
  -18.1960  -26.7924   22.1624 C   0  0  0  0  0  0
  -19.1581  -28.8859   23.2854 C   0  0  0  0  0  0
  -18.9494  -30.1463   23.8867 C   0  0  0  0  0  0
  -17.6485  -30.6578   24.0549 C   0  0  0  0  0  0
  -25.9060  -34.9397   23.5088 C   0  0  0  0  0  0
  -16.5383  -29.9069   23.6329 C   0  0  0  0  0  0
  -16.7311  -28.6490   23.0355 C   0  0  0  0  0  0
  -26.4533  -31.6551   25.0760 C   0  0  0  0  0  0
  -25.3744  -31.3684   26.1473 C   0  0  0  0  0  0
  -27.0419  -30.2953   24.6338 C   0  0  0  0  0  0
  -27.6057  -32.4342   25.7529 C   0  0  0  0  0  0
  -27.5583  -37.1781   24.8464 C   0  0  0  0  0  0
  -21.4272  -29.3052   22.3603 N   0  0  0  0  0  0
  -26.4296  -37.3743   23.9402 N   0  0  0  0  0  0
  -24.7167  -31.0329   22.0999 N   0  0  0  0  0  0
  -23.4215  -28.8079   23.3005 O   0  0  0  0  0  0
  -28.2171  -26.1339   20.2290 O   0  0  0  0  0  0
  -26.5647  -34.8887   22.4668 O   0  0  0  0  0  0
  -23.5538  -32.1323   23.7175 O   0  0  0  0  0  0
  -28.5466  -23.2372   20.2510 C   0  0  0  0  0  0
  -28.3491  -22.5092   21.4631 C   0  0  0  0  0  0
  -29.1312  -22.3513   19.2766 C   0  0  0  0  0  0
  -29.2098  -20.4104   20.6717 C   0  0  0  0  0  0
  -27.6716  -23.1695   22.6480 C   0  0  0  0  0  0
  -28.1299  -22.3233   16.9541 C   0  0  0  0  0  0
  -29.5722  -16.1089   22.3702 C   0  0  0  0  0  0
  -27.8141  -24.6757   19.9150 C   0  0  0  0  0  0
  -29.3036  -22.7897   17.8310 C   0  0  0  0  0  0
  -29.7319  -18.9028   21.0816 C   0  0  0  0  0  0
  -29.6442  -17.4492   20.2564 C   0  0  0  0  0  0
  -28.6692  -21.1754   21.6441 N   0  0  0  0  0  0
  -29.4792  -21.0218   19.5026 N   0  0  0  0  0  0
  -29.8412  -16.0308   20.9302 N   0  0  0  0  0  0
  -31.4771  -12.7208   19.1885 H   0  0  0  0  0  0
  -30.4430  -11.5884   19.9993 H   0  0  0  0  0  0
  -29.8395  -11.7623   17.5614 H   0  0  0  0  0  0
  -29.6221  -13.4875   17.7195 H   0  0  0  0  0  0
  -27.9366  -11.2819   18.9436 H   0  0  0  0  0  0
  -27.3980  -12.4928   17.8076 H   0  0  0  0  0  0
  -27.6241  -14.2547   19.4557 H   0  0  0  0  0  0
  -28.7449  -12.1951   21.4127 H   0  0  0  0  0  0
  -28.3372  -13.8416   21.7988 H   0  0  0  0  0  0
  -25.2751   -9.5697   22.4755 H   0  0  0  0  0  0
  -23.9991   -7.4649   22.7483 H   0  0  0  0  0  0
  -21.0827   -8.8757   19.8965 H   0  0  0  0  0  0
  -22.3666  -10.9663   19.6157 H   0  0  0  0  0  0
  -21.2015   -7.6133   23.9705 H   0  0  0  0  0  0
  -21.1485   -6.0512   25.9072 H   0  0  0  0  0  0
  -22.0604   -2.7595   23.2842 H   0  0  0  0  0  0
  -22.4082  -11.9894   22.4811 H   0  0  0  0  0  0
  -21.1086  -13.1267   22.2614 H   0  0  0  0  0  0
  -24.6588  -15.8511   20.5300 H   0  0  0  0  0  0
  -26.2846  -15.6331   20.1248 H   0  0  0  0  0  0
  -26.7273  -32.5279   23.1054 H   0  0  0  0  0  0
  -25.0051  -33.9580   25.0349 H   0  0  0  0  0  0
  -22.7488  -31.2995   21.3946 H   0  0  0  0  0  0
  -23.3743  -35.9623   23.3284 H   0  0  0  0  0  0
  -24.3592  -36.8935   22.2074 H   0  0  0  0  0  0
  -23.7242  -37.6464   23.6707 H   0  0  0  0  0  0
  -26.1628  -31.4821   20.6276 H   0  0  0  0  0  0
  -26.8720  -30.7658   22.0410 H   0  0  0  0  0  0
  -28.1227  -28.7879   21.2483 H   0  0  0  0  0  0
  -25.8607  -25.9136   18.9276 H   0  0  0  0  0  0
  -23.9620  -27.3518   18.9538 H   0  0  0  0  0  0
  -23.7986  -30.5926   19.4039 H   0  0  0  0  0  0
  -22.7804  -29.2573   19.8492 H   0  0  0  0  0  0
  -25.1288  -36.1895   25.0811 H   0  0  0  0  0  0
  -21.0036  -28.3318   24.1350 H   0  0  0  0  0  0
  -20.5736  -26.2316   23.3617 H   0  0  0  0  0  0
  -21.6672  -26.7433   22.1169 H   0  0  0  0  0  0
  -19.6927  -25.6285   21.1253 H   0  0  0  0  0  0
  -19.6712  -27.3172   20.6732 H   0  0  0  0  0  0
  -17.4239  -26.6692   21.4022 H   0  0  0  0  0  0
  -18.0341  -26.0061   22.9000 H   0  0  0  0  0  0
  -19.7971  -30.7292   24.2218 H   0  0  0  0  0  0
  -17.5045  -31.6249   24.5157 H   0  0  0  0  0  0
  -15.5370  -30.2948   23.7688 H   0  0  0  0  0  0
  -15.8722  -28.0797   22.7071 H   0  0  0  0  0  0
  -24.5963  -30.6973   25.7811 H   0  0  0  0  0  0
  -24.8872  -32.2819   26.4879 H   0  0  0  0  0  0
  -25.8069  -30.8900   27.0270 H   0  0  0  0  0  0
  -26.3040  -29.6647   24.1364 H   0  0  0  0  0  0
  -27.4054  -29.7264   25.4901 H   0  0  0  0  0  0
  -27.8938  -30.4177   23.9654 H   0  0  0  0  0  0
  -27.2669  -33.3704   26.1970 H   0  0  0  0  0  0
  -28.3933  -32.6795   25.0400 H   0  0  0  0  0  0
  -28.0669  -31.8572   26.5545 H   0  0  0  0  0  0
  -28.2564  -38.0118   24.7538 H   0  0  0  0  0  0
  -28.1122  -36.2631   24.6272 H   0  0  0  0  0  0
  -27.2300  -37.1411   25.8872 H   0  0  0  0  0  0
  -20.9488  -29.8760   21.6776 H   0  0  0  0  0  0
  -26.0165  -38.2812   24.1416 H   0  0  0  0  0  0
  -28.0535  -24.1805   22.7940 H   0  0  0  0  0  0
  -27.8400  -22.6120   23.5707 H   0  0  0  0  0  0
  -26.5959  -23.2315   22.4829 H   0  0  0  0  0  0
  -28.2643  -22.6280   15.9160 H   0  0  0  0  0  0
  -27.1867  -22.7403   17.3060 H   0  0  0  0  0  0
  -28.0357  -21.2371   16.9689 H   0  0  0  0  0  0
  -28.5565  -16.4623   22.5539 H   0  0  0  0  0  0
  -30.2704  -16.7957   22.8497 H   0  0  0  0  0  0
  -29.6886  -15.1579   22.8919 H   0  0  0  0  0  0
  -26.8353  -24.5402   20.3762 H   0  0  0  0  0  0
  -27.6186  -24.6578   18.8433 H   0  0  0  0  0  0
  -30.2367  -22.3827   17.4408 H   0  0  0  0  0  0
  -29.4136  -23.8719   17.7703 H   0  0  0  0  0  0
  -29.2071  -18.7294   22.0208 H   0  0  0  0  0  0
  -30.7720  -19.0327   21.3788 H   0  0  0  0  0  0
  -30.3164  -17.5059   19.4006 H   0  0  0  0  0  0
  -28.6447  -17.4086   19.8218 H   0  0  0  0  0  0
  1 25  1  0  0  0
  1 30  2  0  0  0
  1 84  1  0  0  0
  2  3  1  0  0  0
  2 25  1  0  0  0
  2 85  1  0  0  0
  2 86  1  0  0  0
  3  4  1  0  0  0
  3 87  1  0  0  0
  3 88  1  0  0  0
  4  5  1  0  0  0
  4 89  1  0  0  0
  4 90  1  0  0  0
  5  6  1  0  0  0
  5 26  1  0  0  0
  5 91  1  0  0  0
  6 25  1  0  0  0
  6 92  1  0  0  0
  6 93  1  0  0  0
  7  8  2  0  0  0
  7 26  1  0  0  0
  7 29  1  0  0  0
  8  9  1  0  0  0
  8 22  1  0  0  0
  9 10  1  0  0  0
  9 27  2  0  0  0
 10 11  2  0  0  0
 10 15  1  0  0  0
 11 12  1  0  0  0
 11 94  1  0  0  0
 12 13  2  0  0  0
 12 95  1  0  0  0
 13 14  1  0  0  0
 13 31  1  0  0  0
 14 15  2  0  0  0
 14 96  1  0  0  0
 15 97  1  0  0  0
 16 17  2  0  0  0
 16 21  1  0  0  0
 16 31  1  0  0  0
 17 18  1  0  0  0
 17 98  1  0  0  0
 18 19  2  0  0  0
 18 99  1  0  0  0
 19 20  1  0  0  0
 19 24  1  0  0  0
 20 21  2  0  0  0
 20100  1  0  0  0
 21 23  1  0  0  0
 22 28  1  0  0  0
 22 32  2  0  0  0
 26 27  1  0  0  0
 28101  1  0  0  0
 28102  1  0  0  0
 29103  1  0  0  0
 29104  1  0  0  0
 33 34  1  0  0  0
 33 66  1  0  0  0
 33 70  2  0  0  0
 34 36  1  0  0  0
 34 59  1  0  0  0
 34105  1  0  0  0
 35 44  2  0  0  0
 35 45  1  0  0  0
 35 68  1  0  0  0
 36 56  1  0  0  0
 36106  1  0  0  0
 37 39  1  0  0  0
 37 47  1  0  0  0
 37 66  1  0  0  0
 37107  1  0  0  0
 38 43  2  0  0  0
 38 46  1  0  0  0
 38 47  1  0  0  0
 39 64  1  0  0  0
 39 67  2  0  0  0
 40 52  1  0  0  0
 40 53  2  0  0  0
 40 58  1  0  0  0
 41108  1  0  0  0
 41109  1  0  0  0
 41110  1  0  0  0
 41 48  1  0  0  0
 42 43  1  0  0  0
 42 66  1  0  0  0
 42111  1  0  0  0
 42112  1  0  0  0
 43 44  1  0  0  0
 44113  1  0  0  0
 45 46  2  0  0  0
 45114  1  0  0  0
 46115  1  0  0  0
 47116  1  0  0  0
 47117  1  0  0  0
 48 56  1  0  0  0
 48 65  1  0  0  0
 48118  1  0  0  0
 49 50  1  0  0  0
 49 53  1  0  0  0
 49 64  1  0  0  0
 49119  1  0  0  0
 50 51  1  0  0  0
 50120  1  0  0  0
 50121  1  0  0  0
 51 52  1  0  0  0
 51122  1  0  0  0
 51123  1  0  0  0
 52124  1  0  0  0
 52125  1  0  0  0
 53 54  1  0  0  0
 54 55  2  0  0  0
 54126  1  0  0  0
 55 57  1  0  0  0
 55127  1  0  0  0
 56 69  2  0  0  0
 57 58  2  0  0  0
 57128  1  0  0  0
 58129  1  0  0  0
 59 60  1  0  0  0
 59 61  1  0  0  0
 59 62  1  0  0  0
 60130  1  0  0  0
 60131  1  0  0  0
 60132  1  0  0  0
 61133  1  0  0  0
 61134  1  0  0  0
 61135  1  0  0  0
 62136  1  0  0  0
 62137  1  0  0  0
 62138  1  0  0  0
 63 65  1  0  0  0
 63139  1  0  0  0
 63140  1  0  0  0
 63141  1  0  0  0
 64142  1  0  0  0
 65143  1  0  0  0
 68 78  1  0  0  0
 71 72  2  0  0  0
 71 73  1  0  0  0
 71 78  1  0  0  0
 72 75  1  0  0  0
 72 82  1  0  0  0
 73 79  1  0  0  0
 73 83  2  0  0  0
 74 80  1  0  0  0
 74 82  2  0  0  0
 74 83  1  0  0  0
 75144  1  0  0  0
 75145  1  0  0  0
 75146  1  0  0  0
 76 79  1  0  0  0
 76147  1  0  0  0
 76148  1  0  0  0
 76149  1  0  0  0
 77 84  1  0  0  0
 77150  1  0  0  0
 77151  1  0  0  0
 77152  1  0  0  0
 78153  1  0  0  0
 78154  1  0  0  0
 79155  1  0  0  0
 79156  1  0  0  0
 80 81  1  0  0  0
 80157  1  0  0  0
 80158  1  0  0  0
 81 84  1  0  0  0
 81159  1  0  0  0
 81160  1  0  0  0
M  ISO  4   1 100  68 101  78 101  84 100
M  END
> <chiral flag>
0

> <version>
0

> <s_m_source_file>
/data/baiqing/PycharmProjects/Reinvent-master-3.2/result/LINK_invent/BTK/process_docking_weight1_custom_sum_contain_oxygen_bond_distance_aromatic_linkinvent_7_9_3/rearranged_h_0053.sdf

> <i_m_source_file_index>
26

> <r_mmod_Potential_Energy-OPLS-2005>
209.889083862305

> <r_mmod_Stretch_Energy-OPLS-2005>
219.193923950195

> <r_mmod_Bend_Energy-OPLS-2005>
269.302947998047

> <r_mmod_Torsional_Energy-OPLS-2005>
289.570098876953

> <r_mmod_Improper_Torsional_Energy-OPLS-2005>
10.4171152114868

> <r_mmod_Van_der_Waal_Energy-OPLS-2005>
150.386749267578

> <r_mmod_Electrostatic_Energy-OPLS-2005>
-671.993347167969

> <r_mmod_Solvation_Energy-OPLS-2005>
-222.86669921875

> <b_mmod_Minimization_Converged-OPLS-2005>
0

> <r_mmod_RMS_Derivative-OPLS-2005>
2.48158288002014

$$$$
26
                    3D
 Structure written by MMmdl.
171179  0  0  1  0            999 V2000
  -30.7923  -14.3939   20.6804 C   0  0  0  0  0  0
  -30.3962  -12.2961   19.4206 C   0  0  0  0  0  0
  -29.4924  -12.5518   18.1966 C   0  0  0  0  0  0
  -28.0068  -12.4196   18.5811 C   0  0  0  0  0  0
  -27.6566  -13.2193   19.8628 C   0  0  2  0  0  0
  -28.6860  -12.9811   20.9826 C   0  0  0  0  0  0
  -25.2563  -13.8182   20.5629 C   0  0  0  0  0  0
  -24.1847  -13.0434   20.9147 C   0  0  0  0  0  0
  -24.6400  -11.6887   20.8654 C   0  0  0  0  0  0
  -23.9060  -10.4278   21.0365 C   0  0  0  0  0  0
  -24.3602   -9.4203   21.9146 C   0  0  0  0  0  0
  -23.6302   -8.2224   22.0733 C   0  0  0  0  0  0
  -22.4278   -8.0259   21.3548 C   0  0  0  0  0  0
  -21.9905   -9.0219   20.4658 C   0  0  0  0  0  0
  -22.7220  -10.2095   20.3034 C   0  0  0  0  0  0
  -21.6890   -6.0728   22.5275 C   0  0  0  0  0  0
  -21.4052   -6.5624   23.8210 C   0  0  0  0  0  0
  -21.3657   -5.6759   24.9169 C   0  0  0  0  0  0
  -21.6044   -4.3020   24.7213 C   0  0  0  0  0  0
  -21.8833   -3.8119   23.4331 C   0  0  0  0  0  0
  -21.9210   -4.6946   22.3381 C   0  0  0  0  0  0
  -22.7865  -13.5231   21.1809 C   0  0  0  0  0  0
  -22.1688   -4.2140   21.0964 F   0  0  0  0  0  0
  -21.5598   -3.4497   25.7731 F   0  0  0  0  0  0
  -30.0386  -13.2672   20.4722 N   0  0  0  0  0  0
  -26.2973  -12.9360   20.3215 N   0  0  0  0  0  0
  -25.9327  -11.6508   20.5653 N   0  0  0  0  0  0
  -22.0498  -12.8241   22.0375 N   0  0  0  0  0  0
  -25.4313  -15.1902   20.4121 N   0  0  0  0  0  0
  -31.7904  -14.6265   19.9925 O   0  0  0  0  0  0
  -21.6650   -6.8855   21.4238 O   0  0  0  0  0  0
  -22.3580  -14.5528   20.6623 O   0  0  0  0  0  0
  -24.6218  -31.8666   23.2111 C   0  0  0  0  0  0
  -25.9085  -32.4809   23.8420 C   0  0  1  0  0  0
  -27.2475  -27.4089   20.0933 C   0  0  0  0  0  0
  -25.5921  -33.8610   24.2327 N   0  0  0  0  0  0
  -23.4157  -30.4928   21.5492 C   0  0  2  0  0  0
  -24.8695  -28.9509   20.1309 C   0  0  0  0  0  0
  -22.7451  -29.4669   22.4928 C   0  0  0  0  0  0
  -18.0286  -28.1407   22.8466 C   0  0  0  0  0  0
  -24.1485  -36.7311   23.2631 C   0  0  0  0  0  0
  -25.9536  -30.8143   21.3813 C   0  0  0  0  0  0
  -26.0343  -29.4412   20.7416 C   0  0  0  0  0  0
  -27.2314  -28.6726   20.7390 C   0  0  0  0  0  0
  -26.0636  -26.9411   19.4915 C   0  0  0  0  0  0
  -24.8775  -27.6929   19.5104 C   0  0  0  0  0  0
  -23.6372  -29.8286   20.1664 C   0  0  0  0  0  0
  -25.4099  -36.3093   24.0330 C   0  0  1  0  0  0
  -20.5884  -28.3717   23.1256 C   0  0  2  0  0  0
  -20.6770  -26.9443   22.5385 C   0  0  0  0  0  0
  -19.5757  -26.6402   21.5184 C   0  0  0  0  0  0
  -18.1937  -26.7945   22.1611 C   0  0  0  0  0  0
  -19.1533  -28.8882   23.2869 C   0  0  0  0  0  0
  -18.9468  -30.1463   23.8887 C   0  0  0  0  0  0
  -17.6467  -30.6614   24.0564 C   0  0  0  0  0  0
  -25.9040  -34.9464   23.5123 C   0  0  0  0  0  0
  -16.5359  -29.9112   23.6329 C   0  0  0  0  0  0
  -16.7263  -28.6541   23.0344 C   0  0  0  0  0  0
  -26.4489  -31.6589   25.0757 C   0  0  0  0  0  0
  -25.3742  -31.3726   26.1503 C   0  0  0  0  0  0
  -27.0306  -30.3006   24.6165 C   0  0  0  0  0  0
  -27.6064  -32.4306   25.7514 C   0  0  0  0  0  0
  -27.5584  -37.1792   24.8451 C   0  0  0  0  0  0
  -21.4179  -29.3084   22.3662 N   0  0  0  0  0  0
  -26.4268  -37.3792   23.9437 N   0  0  0  0  0  0
  -24.6814  -31.0723   22.1045 N   0  0  0  0  0  0
  -23.4179  -28.8183   23.2992 O   0  0  0  0  0  0
  -28.3332  -26.5770   19.8993 O   0  0  0  0  0  0
  -26.5601  -34.8915   22.4682 O   0  0  0  0  0  0
  -23.5387  -32.1441   23.7452 O   0  0  0  0  0  0
  -27.9912  -24.4293   22.4610 C   0  0  0  0  0  0
  -28.2298  -22.3526   22.9304 C   0  0  0  0  0  0
  -29.1297  -22.6337   21.9132 C   0  0  0  0  0  0
  -27.9771  -21.0883   23.6951 C   0  0  0  0  0  0
  -28.4465  -17.6154   21.8894 C   0  0  0  0  0  0
  -29.4775  -17.5789   19.5890 C   0  0  0  0  0  0
  -30.1883  -14.8332   23.0172 C   0  0  0  0  0  0
  -30.1383  -21.7107   21.2302 C   0  0  0  0  0  0
  -29.8215  -24.9057   20.8246 C   0  0  0  0  0  0
  -30.8160  -16.7208   21.5553 C   0  0  0  0  0  0
  -30.3930  -19.1962   21.3597 C   0  0  0  0  0  0
  -29.4138  -26.4226   20.8104 C   0  0  0  0  0  0
  -29.7629  -17.7779   21.0912 C   0  0  0  0  0  0
  -27.4894  -23.4867   23.2434 N   0  0  0  0  0  0
  -29.0118  -24.0290   21.6842 N   0  0  0  0  0  0
  -30.3841  -15.2901   21.6251 N   0  0  0  0  0  0
  -29.6324  -20.3635   20.8250 N   0  3  0  0  0  0
  -31.4477  -12.3537   19.1351 H   0  0  0  0  0  0
  -30.2553  -11.2774   19.7906 H   0  0  0  0  0  0
  -29.7375  -11.8554   17.3943 H   0  0  0  0  0  0
  -29.6878  -13.5512   17.8005 H   0  0  0  0  0  0
  -27.7771  -11.3633   18.7192 H   0  0  0  0  0  0
  -27.3796  -12.7520   17.7515 H   0  0  0  0  0  0
  -27.7023  -14.2755   19.5949 H   0  0  0  0  0  0
  -28.6382  -11.9496   21.3336 H   0  0  0  0  0  0
  -28.3940  -13.5958   21.8288 H   0  0  0  0  0  0
  -25.2766   -9.5687   22.4707 H   0  0  0  0  0  0
  -24.0040   -7.4623   22.7440 H   0  0  0  0  0  0
  -21.0833   -8.8722   19.8992 H   0  0  0  0  0  0
  -22.3685  -10.9597   19.6106 H   0  0  0  0  0  0
  -21.2088   -7.6144   23.9734 H   0  0  0  0  0  0
  -21.1465   -6.0470   25.9070 H   0  0  0  0  0  0
  -22.0630   -2.7591   23.2814 H   0  0  0  0  0  0
  -22.4140  -11.9940   22.4816 H   0  0  0  0  0  0
  -21.1094  -13.1289   22.2514 H   0  0  0  0  0  0
  -24.6785  -15.8554   20.5549 H   0  0  0  0  0  0
  -26.2996  -15.6229   20.1168 H   0  0  0  0  0  0
  -26.7168  -32.5520   23.1196 H   0  0  0  0  0  0
  -25.0051  -33.9777   25.0457 H   0  0  0  0  0  0
  -22.7099  -31.3136   21.4045 H   0  0  0  0  0  0
  -23.3749  -35.9640   23.3236 H   0  0  0  0  0  0
  -24.3602  -36.8990   22.2061 H   0  0  0  0  0  0
  -23.7223  -37.6491   23.6685 H   0  0  0  0  0  0
  -26.0748  -31.5679   20.6019 H   0  0  0  0  0  0
  -26.8394  -30.8723   22.0025 H   0  0  0  0  0  0
  -28.1317  -29.0565   21.1989 H   0  0  0  0  0  0
  -26.0667  -25.9813   18.9935 H   0  0  0  0  0  0
  -23.9868  -27.3060   19.0342 H   0  0  0  0  0  0
  -23.7678  -30.6065   19.4136 H   0  0  0  0  0  0
  -22.7599  -29.2612   19.8519 H   0  0  0  0  0  0
  -25.1262  -36.1933   25.0817 H   0  0  0  0  0  0
  -20.9980  -28.3299   24.1374 H   0  0  0  0  0  0
  -20.5660  -26.2338   23.3591 H   0  0  0  0  0  0
  -21.6643  -26.7478   22.1190 H   0  0  0  0  0  0
  -19.6927  -25.6309   21.1229 H   0  0  0  0  0  0
  -19.6695  -27.3191   20.6697 H   0  0  0  0  0  0
  -17.4197  -26.6660   21.4027 H   0  0  0  0  0  0
  -18.0379  -26.0094   22.9032 H   0  0  0  0  0  0
  -19.7952  -30.7265   24.2263 H   0  0  0  0  0  0
  -17.5046  -31.6286   24.5186 H   0  0  0  0  0  0
  -15.5360  -30.3029   23.7666 H   0  0  0  0  0  0
  -15.8662  -28.0855   22.7055 H   0  0  0  0  0  0
  -24.5901  -30.7081   25.7854 H   0  0  0  0  0  0
  -24.8954  -32.2898   26.4944 H   0  0  0  0  0  0
  -25.8091  -30.8903   27.0267 H   0  0  0  0  0  0
  -26.2857  -29.6778   24.1194 H   0  0  0  0  0  0
  -27.4018  -29.7232   25.4642 H   0  0  0  0  0  0
  -27.8730  -30.4286   23.9362 H   0  0  0  0  0  0
  -27.2695  -33.3644   26.2028 H   0  0  0  0  0  0
  -28.3908  -32.6793   25.0353 H   0  0  0  0  0  0
  -28.0676  -31.8454   26.5480 H   0  0  0  0  0  0
  -28.2532  -38.0155   24.7573 H   0  0  0  0  0  0
  -28.1138  -36.2685   24.6150 H   0  0  0  0  0  0
  -27.2324  -37.1295   25.8855 H   0  0  0  0  0  0
  -20.9350  -29.8830   21.6894 H   0  0  0  0  0  0
  -26.0133  -38.2845   24.1507 H   0  0  0  0  0  0
  -27.6212  -25.4432   22.4907 H   0  0  0  0  0  0
  -28.7145  -20.3195   23.4790 H   0  0  0  0  0  0
  -26.9902  -20.6808   23.4732 H   0  0  0  0  0  0
  -28.0240  -21.2685   24.7702 H   0  0  0  0  0  0
  -27.9764  -16.6493   21.7100 H   0  0  0  0  0  0
  -27.7038  -18.3686   21.6214 H   0  0  0  0  0  0
  -28.6232  -17.6924   22.9626 H   0  0  0  0  0  0
  -29.1864  -16.5515   19.3635 H   0  0  0  0  0  0
  -30.3649  -17.7963   18.9910 H   0  0  0  0  0  0
  -28.6703  -18.2191   19.2316 H   0  0  0  0  0  0
  -29.1974  -15.1089   23.3793 H   0  0  0  0  0  0
  -30.9205  -15.2598   23.7032 H   0  0  0  0  0  0
  -30.3030  -13.7537   23.1267 H   0  0  0  0  0  0
  -31.0248  -21.6058   21.8601 H   0  0  0  0  0  0
  -30.4990  -22.1797   20.3167 H   0  0  0  0  0  0
  -30.8554  -24.8242   21.1638 H   0  0  0  0  0  0
  -29.8039  -24.5023   19.8100 H   0  0  0  0  0  0
  -31.1975  -17.0290   22.5279 H   0  0  0  0  0  0
  -31.6901  -16.8303   20.9073 H   0  0  0  0  0  0
  -31.3984  -19.2374   20.9324 H   0  0  0  0  0  0
  -30.5261  -19.3230   22.4358 H   0  0  0  0  0  0
  -30.2469  -27.0046   20.4156 H   0  0  0  0  0  0
  -29.2087  -26.8116   21.8076 H   0  0  0  0  0  0
  -29.7091  -20.3227   19.8213 H   0  0  0  0  0  0
  -28.6537  -20.2793   21.0390 H   0  0  0  0  0  0
  1 25  1  0  0  0
  1 30  2  0  0  0
  1 86  1  0  0  0
  2  3  1  0  0  0
  2 25  1  0  0  0
  2 88  1  0  0  0
  2 89  1  0  0  0
  3  4  1  0  0  0
  3 90  1  0  0  0
  3 91  1  0  0  0
  4  5  1  0  0  0
  4 92  1  0  0  0
  4 93  1  0  0  0
  5  6  1  0  0  0
  5 26  1  0  0  0
  5 94  1  0  0  0
  6 25  1  0  0  0
  6 95  1  0  0  0
  6 96  1  0  0  0
  7  8  2  0  0  0
  7 26  1  0  0  0
  7 29  1  0  0  0
  8  9  1  0  0  0
  8 22  1  0  0  0
  9 10  1  0  0  0
  9 27  2  0  0  0
 10 11  2  0  0  0
 10 15  1  0  0  0
 11 12  1  0  0  0
 11 97  1  0  0  0
 12 13  2  0  0  0
 12 98  1  0  0  0
 13 14  1  0  0  0
 13 31  1  0  0  0
 14 15  2  0  0  0
 14 99  1  0  0  0
 15100  1  0  0  0
 16 17  2  0  0  0
 16 21  1  0  0  0
 16 31  1  0  0  0
 17 18  1  0  0  0
 17101  1  0  0  0
 18 19  2  0  0  0
 18102  1  0  0  0
 19 20  1  0  0  0
 19 24  1  0  0  0
 20 21  2  0  0  0
 20103  1  0  0  0
 21 23  1  0  0  0
 22 28  1  0  0  0
 22 32  2  0  0  0
 26 27  1  0  0  0
 28104  1  0  0  0
 28105  1  0  0  0
 29106  1  0  0  0
 29107  1  0  0  0
 33 34  1  0  0  0
 33 66  1  0  0  0
 33 70  2  0  0  0
 34 36  1  0  0  0
 34 59  1  0  0  0
 34108  1  0  0  0
 35 44  2  0  0  0
 35 45  1  0  0  0
 35 68  1  0  0  0
 36 56  1  0  0  0
 36109  1  0  0  0
 37 39  1  0  0  0
 37 47  1  0  0  0
 37 66  1  0  0  0
 37110  1  0  0  0
 38 43  2  0  0  0
 38 46  1  0  0  0
 38 47  1  0  0  0
 39 64  1  0  0  0
 39 67  2  0  0  0
 40 52  1  0  0  0
 40 53  2  0  0  0
 40 58  1  0  0  0
 41111  1  0  0  0
 41112  1  0  0  0
 41113  1  0  0  0
 41 48  1  0  0  0
 42 43  1  0  0  0
 42 66  1  0  0  0
 42114  1  0  0  0
 42115  1  0  0  0
 43 44  1  0  0  0
 44116  1  0  0  0
 45 46  2  0  0  0
 45117  1  0  0  0
 46118  1  0  0  0
 47119  1  0  0  0
 47120  1  0  0  0
 48 56  1  0  0  0
 48 65  1  0  0  0
 48121  1  0  0  0
 49 50  1  0  0  0
 49 53  1  0  0  0
 49 64  1  0  0  0
 49122  1  0  0  0
 50 51  1  0  0  0
 50123  1  0  0  0
 50124  1  0  0  0
 51 52  1  0  0  0
 51125  1  0  0  0
 51126  1  0  0  0
 52127  1  0  0  0
 52128  1  0  0  0
 53 54  1  0  0  0
 54 55  2  0  0  0
 54129  1  0  0  0
 55 57  1  0  0  0
 55130  1  0  0  0
 56 69  2  0  0  0
 57 58  2  0  0  0
 57131  1  0  0  0
 58132  1  0  0  0
 59 60  1  0  0  0
 59 61  1  0  0  0
 59 62  1  0  0  0
 60133  1  0  0  0
 60134  1  0  0  0
 60135  1  0  0  0
 61136  1  0  0  0
 61137  1  0  0  0
 61138  1  0  0  0
 62139  1  0  0  0
 62140  1  0  0  0
 62141  1  0  0  0
 63 65  1  0  0  0
 63142  1  0  0  0
 63143  1  0  0  0
 63144  1  0  0  0
 64145  1  0  0  0
 65146  1  0  0  0
 68 82  1  0  0  0
 71 84  2  0  0  0
 71 85  1  0  0  0
 71147  1  0  0  0
 72 73  2  0  0  0
 72 74  1  0  0  0
 72 84  1  0  0  0
 73 78  1  0  0  0
 73 85  1  0  0  0
 74148  1  0  0  0
 74149  1  0  0  0
 74150  1  0  0  0
 75151  1  0  0  0
 75152  1  0  0  0
 75153  1  0  0  0
 75 83  1  0  0  0
 76 83  1  0  0  0
 76154  1  0  0  0
 76155  1  0  0  0
 76156  1  0  0  0
 77 86  1  0  0  0
 77157  1  0  0  0
 77158  1  0  0  0
 77159  1  0  0  0
 78 87  1  0  0  0
 78160  1  0  0  0
 78161  1  0  0  0
 79 82  1  0  0  0
 79 85  1  0  0  0
 79162  1  0  0  0
 79163  1  0  0  0
 80 83  1  0  0  0
 80 86  1  0  0  0
 80164  1  0  0  0
 80165  1  0  0  0
 81 83  1  0  0  0
 81 87  1  0  0  0
 81166  1  0  0  0
 81167  1  0  0  0
 82168  1  0  0  0
 82169  1  0  0  0
 87170  1  0  0  0
 87171  1  0  0  0
M  CHG  1  87   1
M  ISO  4   1 100  68 101  82 101  86 100
M  END
> <chiral flag>
0

> <version>
0

> <s_m_source_file>
/data/baiqing/PycharmProjects/Reinvent-master-3.2/result/LINK_invent/BTK/process_docking_weight1_custom_sum_contain_oxygen_bond_distance_aromatic_linkinvent_7_9_3/rearranged_h_0053.sdf

> <i_m_source_file_index>
27

> <r_mmod_Potential_Energy-OPLS-2005>
-68.6012344360352

> <r_mmod_Stretch_Energy-OPLS-2005>
52.886302947998

> <r_mmod_Bend_Energy-OPLS-2005>
150.323043823242

> <r_mmod_Torsional_Energy-OPLS-2005>
305.327545166016

> <r_mmod_Improper_Torsional_Energy-OPLS-2005>
4.84832811355591

> <r_mmod_Van_der_Waal_Energy-OPLS-2005>
125.891624450684

> <r_mmod_Electrostatic_Energy-OPLS-2005>
-260.201477050781

> <r_mmod_Solvation_Energy-OPLS-2005>
-463.110534667969

> <b_mmod_Minimization_Converged-OPLS-2005>
0

> <r_mmod_RMS_Derivative-OPLS-2005>
5.21172142028809

$$$$
27
                    3D
 Structure written by MMmdl.
163171  0  0  1  0            999 V2000
  -30.6517  -14.5738   20.5306 C   0  0  0  0  0  0
  -30.4412  -12.3629   19.4365 C   0  0  0  0  0  0
  -29.5115  -12.5065   18.2109 C   0  0  0  0  0  0
  -28.0338  -12.3436   18.6257 C   0  0  0  0  0  0
  -27.6576  -13.2051   19.8624 C   0  0  2  0  0  0
  -28.7012  -13.0337   20.9898 C   0  0  0  0  0  0
  -25.2566  -13.8120   20.5647 C   0  0  0  0  0  0
  -24.1829  -13.0415   20.9173 C   0  0  0  0  0  0
  -24.6391  -11.6888   20.8736 C   0  0  0  0  0  0
  -23.9060  -10.4278   21.0415 C   0  0  0  0  0  0
  -24.3610   -9.4194   21.9212 C   0  0  0  0  0  0
  -23.6270   -8.2233   22.0776 C   0  0  0  0  0  0
  -22.4266   -8.0291   21.3558 C   0  0  0  0  0  0
  -21.9891   -9.0266   20.4666 C   0  0  0  0  0  0
  -22.7237  -10.2139   20.3071 C   0  0  0  0  0  0
  -21.6846   -6.0730   22.5275 C   0  0  0  0  0  0
  -21.4016   -6.5621   23.8220 C   0  0  0  0  0  0
  -21.3662   -5.6766   24.9180 C   0  0  0  0  0  0
  -21.6039   -4.3030   24.7215 C   0  0  0  0  0  0
  -21.8818   -3.8134   23.4333 C   0  0  0  0  0  0
  -21.9196   -4.6948   22.3396 C   0  0  0  0  0  0
  -22.7853  -13.5241   21.1815 C   0  0  0  0  0  0
  -22.1662   -4.2143   21.0962 F   0  0  0  0  0  0
  -21.5635   -3.4526   25.7730 F   0  0  0  0  0  0
  -30.0213  -13.3660   20.4279 N   0  0  0  0  0  0
  -26.3002  -12.9295   20.3274 N   0  0  0  0  0  0
  -25.9309  -11.6460   20.5704 N   0  0  0  0  0  0
  -22.0430  -12.8315   22.0380 N   0  0  0  0  0  0
  -25.4238  -15.1830   20.4026 N   0  0  0  0  0  0
  -31.8109  -14.7530   20.1509 O   0  0  0  0  0  0
  -21.6620   -6.8878   21.4245 O   0  0  0  0  0  0
  -22.3568  -14.5542   20.6649 O   0  0  0  0  0  0
  -24.6171  -31.8665   23.2066 C   0  0  0  0  0  0
  -25.9044  -32.4823   23.8375 C   0  0  1  0  0  0
  -27.2311  -27.3989   20.1135 C   0  0  0  0  0  0
  -25.5864  -33.8612   24.2299 N   0  0  0  0  0  0
  -23.4078  -30.4892   21.5480 C   0  0  2  0  0  0
  -24.8551  -28.9485   20.1169 C   0  0  0  0  0  0
  -22.7431  -29.4654   22.4977 C   0  0  0  0  0  0
  -18.0275  -28.1388   22.8495 C   0  0  0  0  0  0
  -24.1474  -36.7304   23.2643 C   0  0  0  0  0  0
  -25.9404  -30.8241   21.3627 C   0  0  0  0  0  0
  -26.0189  -29.4546   20.7104 C   0  0  0  0  0  0
  -27.2141  -28.6897   20.6985 C   0  0  0  0  0  0
  -26.0518  -26.9198   19.5050 C   0  0  0  0  0  0
  -24.8677  -27.6813   19.5099 C   0  0  0  0  0  0
  -23.6192  -29.8205   20.1632 C   0  0  0  0  0  0
  -25.4093  -36.3106   24.0346 C   0  0  1  0  0  0
  -20.5871  -28.3676   23.1310 C   0  0  2  0  0  0
  -20.6749  -26.9405   22.5415 C   0  0  0  0  0  0
  -19.5718  -26.6384   21.5215 C   0  0  0  0  0  0
  -18.1904  -26.7932   22.1629 C   0  0  0  0  0  0
  -19.1530  -28.8850   23.2897 C   0  0  0  0  0  0
  -18.9447  -30.1461   23.8899 C   0  0  0  0  0  0
  -17.6453  -30.6594   24.0572 C   0  0  0  0  0  0
  -25.9028  -34.9484   23.5131 C   0  0  0  0  0  0
  -16.5344  -29.9098   23.6329 C   0  0  0  0  0  0
  -16.7272  -28.6517   23.0343 C   0  0  0  0  0  0
  -26.4444  -31.6621   25.0732 C   0  0  0  0  0  0
  -25.3698  -31.3769   26.1484 C   0  0  0  0  0  0
  -27.0253  -30.3040   24.6135 C   0  0  0  0  0  0
  -27.5999  -32.4363   25.7503 C   0  0  0  0  0  0
  -27.5577  -37.1794   24.8467 C   0  0  0  0  0  0
  -21.4144  -29.3046   22.3720 N   0  0  0  0  0  0
  -26.4274  -37.3792   23.9435 N   0  0  0  0  0  0
  -24.6741  -31.0749   22.0971 N   0  0  0  0  0  0
  -23.4190  -28.8189   23.3014 O   0  0  0  0  0  0
  -28.3674  -26.6080   20.1198 O   0  0  0  0  0  0
  -26.5606  -34.8942   22.4700 O   0  0  0  0  0  0
  -23.5361  -32.1405   23.7451 O   0  0  0  0  0  0
  -29.1348  -22.8618   20.6740 C   0  0  0  0  0  0
  -29.7116  -21.8195   19.9042 C   0  0  0  0  0  0
  -28.8617  -24.0984   20.0327 C   0  0  0  0  0  0
  -29.6620  -23.2193   18.0736 C   0  0  0  0  0  0
  -30.0079  -23.4418   16.6178 C   0  0  0  0  0  0
  -27.7992  -17.5200   20.1764 C   0  0  0  0  0  0
  -28.7978  -19.5878   22.3059 C   0  0  0  0  0  0
  -30.2211  -20.4695   20.4802 C   0  0  0  0  0  0
  -28.2229  -25.3046   20.7600 C   0  0  0  0  0  0
  -30.1660  -17.0563   21.1141 C   0  0  0  0  0  0
  -29.2316  -18.0741   20.3331 C   0  0  2  0  0  0
  -29.9466  -22.0257   18.5910 N   0  0  0  0  0  0
  -29.1362  -24.2490   18.7227 N   0  0  0  0  0  0
  -29.8604  -15.6080   20.9103 N   0  0  0  0  0  0
  -29.1533  -19.4942   20.8666 N   0  3  1  0  0  0
  -31.4852  -12.4861   19.1413 H   0  0  0  0  0  0
  -30.3727  -11.3606   19.8610 H   0  0  0  0  0  0
  -29.7724  -11.7667   17.4522 H   0  0  0  0  0  0
  -29.6561  -13.4841   17.7437 H   0  0  0  0  0  0
  -27.8754  -11.2910   18.8623 H   0  0  0  0  0  0
  -27.3773  -12.5738   17.7851 H   0  0  0  0  0  0
  -27.6850  -14.2428   19.5322 H   0  0  0  0  0  0
  -28.7013  -12.0073   21.3624 H   0  0  0  0  0  0
  -28.4549  -13.6531   21.8522 H   0  0  0  0  0  0
  -25.2762   -9.5666   22.4777 H   0  0  0  0  0  0
  -24.0000   -7.4609   22.7478 H   0  0  0  0  0  0
  -21.0845   -8.8791   19.8957 H   0  0  0  0  0  0
  -22.3730  -10.9681   19.6160 H   0  0  0  0  0  0
  -21.2024   -7.6140   23.9722 H   0  0  0  0  0  0
  -21.1472   -6.0490   25.9073 H   0  0  0  0  0  0
  -22.0601   -2.7601   23.2808 H   0  0  0  0  0  0
  -22.3979  -12.0025   22.4893 H   0  0  0  0  0  0
  -21.1037  -13.1402   22.2464 H   0  0  0  0  0  0
  -24.6499  -15.8311   20.5016 H   0  0  0  0  0  0
  -26.2580  -15.6142   20.0312 H   0  0  0  0  0  0
  -26.7136  -32.5522   23.1160 H   0  0  0  0  0  0
  -24.9981  -33.9773   25.0421 H   0  0  0  0  0  0
  -22.6969  -31.3054   21.4061 H   0  0  0  0  0  0
  -23.3742  -35.9628   23.3299 H   0  0  0  0  0  0
  -24.3578  -36.8925   22.2063 H   0  0  0  0  0  0
  -23.7210  -37.6500   23.6652 H   0  0  0  0  0  0
  -26.0563  -31.5912   20.5959 H   0  0  0  0  0  0
  -26.8258  -30.8780   21.9842 H   0  0  0  0  0  0
  -28.1136  -29.0766   21.1561 H   0  0  0  0  0  0
  -26.0478  -25.9481   19.0316 H   0  0  0  0  0  0
  -23.9730  -27.2849   19.0501 H   0  0  0  0  0  0
  -23.7338  -30.5939   19.4026 H   0  0  0  0  0  0
  -22.7418  -29.2438   19.8647 H   0  0  0  0  0  0
  -25.1263  -36.1964   25.0834 H   0  0  0  0  0  0
  -20.9960  -28.3238   24.1432 H   0  0  0  0  0  0
  -20.5639  -26.2282   23.3605 H   0  0  0  0  0  0
  -21.6624  -26.7429   22.1223 H   0  0  0  0  0  0
  -19.6866  -25.6292   21.1246 H   0  0  0  0  0  0
  -19.6655  -27.3194   20.6744 H   0  0  0  0  0  0
  -17.4169  -26.6700   21.4034 H   0  0  0  0  0  0
  -18.0291  -26.0074   22.9022 H   0  0  0  0  0  0
  -19.7934  -30.7274   24.2240 H   0  0  0  0  0  0
  -17.5022  -31.6275   24.5178 H   0  0  0  0  0  0
  -15.5347  -30.3006   23.7648 H   0  0  0  0  0  0
  -15.8671  -28.0860   22.7027 H   0  0  0  0  0  0
  -24.5839  -30.7146   25.7836 H   0  0  0  0  0  0
  -24.8934  -32.2957   26.4912 H   0  0  0  0  0  0
  -25.8049  -30.8947   27.0246 H   0  0  0  0  0  0
  -26.2807  -29.6853   24.1110 H   0  0  0  0  0  0
  -27.3901  -29.7237   25.4619 H   0  0  0  0  0  0
  -27.8698  -30.4327   23.9362 H   0  0  0  0  0  0
  -27.2553  -33.3622   26.2117 H   0  0  0  0  0  0
  -28.3770  -32.7002   25.0321 H   0  0  0  0  0  0
  -28.0692  -31.8478   26.5395 H   0  0  0  0  0  0
  -28.2586  -38.0099   24.7531 H   0  0  0  0  0  0
  -28.1073  -36.2634   24.6242 H   0  0  0  0  0  0
  -27.2321  -37.1416   25.8876 H   0  0  0  0  0  0
  -20.9285  -29.8821   21.7008 H   0  0  0  0  0  0
  -26.0165  -38.2868   24.1432 H   0  0  0  0  0  0
  -28.9420  -22.7456   21.7319 H   0  0  0  0  0  0
  -30.8325  -22.7959   16.3125 H   0  0  0  0  0  0
  -30.3135  -24.4743   16.4479 H   0  0  0  0  0  0
  -29.1480  -23.2299   15.9828 H   0  0  0  0  0  0
  -27.7836  -16.6616   19.5079 H   0  0  0  0  0  0
  -27.1248  -18.2596   19.7434 H   0  0  0  0  0  0
  -27.3748  -17.2054   21.1295 H   0  0  0  0  0  0
  -28.4125  -20.5779   22.5490 H   0  0  0  0  0  0
  -29.6636  -19.4060   22.9446 H   0  0  0  0  0  0
  -28.0278  -18.8718   22.5890 H   0  0  0  0  0  0
  -30.8635  -20.6856   21.3356 H   0  0  0  0  0  0
  -30.8822  -20.0094   19.7440 H   0  0  0  0  0  0
  -28.6691  -25.3752   21.7524 H   0  0  0  0  0  0
  -27.1771  -25.0514   20.9393 H   0  0  0  0  0  0
  -30.0745  -17.2170   22.1871 H   0  0  0  0  0  0
  -31.2115  -17.2597   20.8762 H   0  0  0  0  0  0
  -29.6199  -18.1438   19.3156 H   0  0  0  0  0  0
  -28.9192  -15.3354   21.1463 H   0  0  0  0  0  0
  -28.3603  -19.8816   20.3759 H   0  0  0  0  0  0
  1 25  1  0  0  0
  1 30  2  0  0  0
  1 84  1  0  0  0
  2  3  1  0  0  0
  2 25  1  0  0  0
  2 86  1  0  0  0
  2 87  1  0  0  0
  3  4  1  0  0  0
  3 88  1  0  0  0
  3 89  1  0  0  0
  4  5  1  0  0  0
  4 90  1  0  0  0
  4 91  1  0  0  0
  5  6  1  0  0  0
  5 26  1  0  0  0
  5 92  1  0  0  0
  6 25  1  0  0  0
  6 93  1  0  0  0
  6 94  1  0  0  0
  7  8  2  0  0  0
  7 26  1  0  0  0
  7 29  1  0  0  0
  8  9  1  0  0  0
  8 22  1  0  0  0
  9 10  1  0  0  0
  9 27  2  0  0  0
 10 11  2  0  0  0
 10 15  1  0  0  0
 11 12  1  0  0  0
 11 95  1  0  0  0
 12 13  2  0  0  0
 12 96  1  0  0  0
 13 14  1  0  0  0
 13 31  1  0  0  0
 14 15  2  0  0  0
 14 97  1  0  0  0
 15 98  1  0  0  0
 16 17  2  0  0  0
 16 21  1  0  0  0
 16 31  1  0  0  0
 17 18  1  0  0  0
 17 99  1  0  0  0
 18 19  2  0  0  0
 18100  1  0  0  0
 19 20  1  0  0  0
 19 24  1  0  0  0
 20 21  2  0  0  0
 20101  1  0  0  0
 21 23  1  0  0  0
 22 28  1  0  0  0
 22 32  2  0  0  0
 26 27  1  0  0  0
 28102  1  0  0  0
 28103  1  0  0  0
 29104  1  0  0  0
 29105  1  0  0  0
 33 34  1  0  0  0
 33 66  1  0  0  0
 33 70  2  0  0  0
 34 36  1  0  0  0
 34 59  1  0  0  0
 34106  1  0  0  0
 35 44  2  0  0  0
 35 45  1  0  0  0
 35 68  1  0  0  0
 36 56  1  0  0  0
 36107  1  0  0  0
 37 39  1  0  0  0
 37 47  1  0  0  0
 37 66  1  0  0  0
 37108  1  0  0  0
 38 43  2  0  0  0
 38 46  1  0  0  0
 38 47  1  0  0  0
 39 64  1  0  0  0
 39 67  2  0  0  0
 40 52  1  0  0  0
 40 53  2  0  0  0
 40 58  1  0  0  0
 41109  1  0  0  0
 41110  1  0  0  0
 41111  1  0  0  0
 41 48  1  0  0  0
 42 43  1  0  0  0
 42 66  1  0  0  0
 42112  1  0  0  0
 42113  1  0  0  0
 43 44  1  0  0  0
 44114  1  0  0  0
 45 46  2  0  0  0
 45115  1  0  0  0
 46116  1  0  0  0
 47117  1  0  0  0
 47118  1  0  0  0
 48 56  1  0  0  0
 48 65  1  0  0  0
 48119  1  0  0  0
 49 50  1  0  0  0
 49 53  1  0  0  0
 49 64  1  0  0  0
 49120  1  0  0  0
 50 51  1  0  0  0
 50121  1  0  0  0
 50122  1  0  0  0
 51 52  1  0  0  0
 51123  1  0  0  0
 51124  1  0  0  0
 52125  1  0  0  0
 52126  1  0  0  0
 53 54  1  0  0  0
 54 55  2  0  0  0
 54127  1  0  0  0
 55 57  1  0  0  0
 55128  1  0  0  0
 56 69  2  0  0  0
 57 58  2  0  0  0
 57129  1  0  0  0
 58130  1  0  0  0
 59 60  1  0  0  0
 59 61  1  0  0  0
 59 62  1  0  0  0
 60131  1  0  0  0
 60132  1  0  0  0
 60133  1  0  0  0
 61134  1  0  0  0
 61135  1  0  0  0
 61136  1  0  0  0
 62137  1  0  0  0
 62138  1  0  0  0
 62139  1  0  0  0
 63 65  1  0  0  0
 63140  1  0  0  0
 63141  1  0  0  0
 63142  1  0  0  0
 64143  1  0  0  0
 65144  1  0  0  0
 68 79  1  0  0  0
 71 72  2  0  0  0
 71 73  1  0  0  0
 71145  1  0  0  0
 72 78  1  0  0  0
 72 82  1  0  0  0
 73 79  1  0  0  0
 73 83  2  0  0  0
 74 75  1  0  0  0
 74 82  2  0  0  0
 74 83  1  0  0  0
 75146  1  0  0  0
 75147  1  0  0  0
 75148  1  0  0  0
 76149  1  0  0  0
 76150  1  0  0  0
 76151  1  0  0  0
 76 81  1  0  0  0
 77152  1  0  0  0
 77153  1  0  0  0
 77154  1  0  0  0
 77 85  1  0  0  0
 78 85  1  0  0  0
 78155  1  0  0  0
 78156  1  0  0  0
 79157  1  0  0  0
 79158  1  0  0  0
 80 81  1  0  0  0
 80 84  1  0  0  0
 80159  1  0  0  0
 80160  1  0  0  0
 81 85  1  0  0  0
 81161  1  0  0  0
 84162  1  0  0  0
 85163  1  0  0  0
M  CHG  1  85   1
M  ISO  4   1 100  68 101  79 101  84 100
M  END
> <chiral flag>
0

> <version>
0

> <s_m_source_file>
/data/baiqing/PycharmProjects/Reinvent-master-3.2/result/LINK_invent/BTK/process_docking_weight1_custom_sum_contain_oxygen_bond_distance_aromatic_linkinvent_7_9_3/rearranged_h_0053.sdf

> <i_m_source_file_index>
28

> <r_mmod_Potential_Energy-OPLS-2005>
-656.942260742188

> <r_mmod_Stretch_Energy-OPLS-2005>
54.0204086303711

> <r_mmod_Bend_Energy-OPLS-2005>
121.528106689453

> <r_mmod_Torsional_Energy-OPLS-2005>
247.492630004883

> <r_mmod_Improper_Torsional_Energy-OPLS-2005>
4.39500427246094

> <r_mmod_Van_der_Waal_Energy-OPLS-2005>
151.207748413086

> <r_mmod_Electrostatic_Energy-OPLS-2005>
-767.434387207031

> <r_mmod_Solvation_Energy-OPLS-2005>
-494.705902099609

> <b_mmod_Minimization_Converged-OPLS-2005>
0

> <r_mmod_RMS_Derivative-OPLS-2005>
3.53470730781555

$$$$
28
                    3D
 Structure written by MMmdl.
157165  0  0  1  0            999 V2000
  -30.5666  -14.7392   20.5001 C   0  0  0  0  0  0
  -30.4469  -12.4573   19.4640 C   0  0  0  0  0  0
  -29.5143  -12.5188   18.2324 C   0  0  0  0  0  0
  -28.0384  -12.3385   18.6435 C   0  0  0  0  0  0
  -27.6489  -13.2204   19.8590 C   0  0  2  0  0  0
  -28.6933  -13.1022   20.9890 C   0  0  0  0  0  0
  -25.2554  -13.8180   20.5694 C   0  0  0  0  0  0
  -24.1814  -13.0431   20.9178 C   0  0  0  0  0  0
  -24.6394  -11.6908   20.8729 C   0  0  0  0  0  0
  -23.9070  -10.4286   21.0408 C   0  0  0  0  0  0
  -24.3619   -9.4200   21.9185 C   0  0  0  0  0  0
  -23.6288   -8.2241   22.0761 C   0  0  0  0  0  0
  -22.4272   -8.0281   21.3546 C   0  0  0  0  0  0
  -21.9907   -9.0260   20.4648 C   0  0  0  0  0  0
  -22.7244  -10.2133   20.3059 C   0  0  0  0  0  0
  -21.6851   -6.0731   22.5275 C   0  0  0  0  0  0
  -21.4014   -6.5638   23.8207 C   0  0  0  0  0  0
  -21.3659   -5.6790   24.9168 C   0  0  0  0  0  0
  -21.6043   -4.3052   24.7221 C   0  0  0  0  0  0
  -21.8823   -3.8143   23.4346 C   0  0  0  0  0  0
  -21.9190   -4.6960   22.3399 C   0  0  0  0  0  0
  -22.7840  -13.5224   21.1837 C   0  0  0  0  0  0
  -22.1659   -4.2141   21.0979 F   0  0  0  0  0  0
  -21.5631   -3.4538   25.7737 F   0  0  0  0  0  0
  -29.9933  -13.4877   20.4259 N   0  0  0  0  0  0
  -26.2972  -12.9351   20.3316 N   0  0  0  0  0  0
  -25.9320  -11.6507   20.5757 N   0  0  0  0  0  0
  -22.0486  -12.8218   22.0403 N   0  0  0  0  0  0
  -25.4245  -15.1899   20.4114 N   0  0  0  0  0  0
  -31.7229  -14.8909   20.0912 O   0  0  0  0  0  0
  -21.6638   -6.8876   21.4239 O   0  0  0  0  0  0
  -22.3525  -14.5522   20.6680 O   0  0  0  0  0  0
  -24.6297  -31.8564   23.1988 C   0  0  0  0  0  0
  -25.9120  -32.4758   23.8340 C   0  0  1  0  0  0
  -27.2230  -27.2618   20.1274 C   0  0  0  0  0  0
  -25.5937  -33.8563   24.2290 N   0  0  0  0  0  0
  -23.4274  -30.4784   21.5424 C   0  0  2  0  0  0
  -24.8741  -28.9243   20.1131 C   0  0  0  0  0  0
  -22.7505  -29.4600   22.4912 C   0  0  0  0  0  0
  -18.0294  -28.1378   22.8464 C   0  0  0  0  0  0
  -24.1480  -36.7277   23.2632 C   0  0  0  0  0  0
  -25.9725  -30.7694   21.3797 C   0  0  0  0  0  0
  -26.0434  -29.3909   20.7228 C   0  0  0  0  0  0
  -27.2152  -28.5706   20.7195 C   0  0  0  0  0  0
  -26.0221  -26.8574   19.4976 C   0  0  0  0  0  0
  -24.8688  -27.6673   19.4912 C   0  0  0  0  0  0
  -23.6458  -29.8120   20.1598 C   0  0  0  0  0  0
  -25.4105  -36.3069   24.0326 C   0  0  1  0  0  0
  -20.5888  -28.3682   23.1261 C   0  0  2  0  0  0
  -20.6776  -26.9402   22.5394 C   0  0  0  0  0  0
  -19.5756  -26.6377   21.5192 C   0  0  0  0  0  0
  -18.1938  -26.7919   22.1607 C   0  0  0  0  0  0
  -19.1543  -28.8849   23.2852 C   0  0  0  0  0  0
  -18.9462  -30.1454   23.8863 C   0  0  0  0  0  0
  -17.6462  -30.6572   24.0561 C   0  0  0  0  0  0
  -25.9052  -34.9444   23.5108 C   0  0  0  0  0  0
  -16.5353  -29.9069   23.6335 C   0  0  0  0  0  0
  -16.7286  -28.6495   23.0342 C   0  0  0  0  0  0
  -26.4508  -31.6570   25.0721 C   0  0  0  0  0  0
  -25.3730  -31.3708   26.1448 C   0  0  0  0  0  0
  -27.0364  -30.2990   24.6201 C   0  0  0  0  0  0
  -27.6076  -32.4307   25.7481 C   0  0  0  0  0  0
  -27.5593  -37.1786   24.8451 C   0  0  0  0  0  0
  -21.4204  -29.3039   22.3655 N   0  0  0  0  0  0
  -26.4279  -37.3772   23.9421 N   0  0  0  0  0  0
  -24.6964  -31.0523   22.0974 N   0  0  0  0  0  0
  -23.4197  -28.8140   23.3017 O   0  0  0  0  0  0
  -28.3509  -26.4105   20.2108 O   0  0  0  0  0  0
  -26.5598  -34.8909   22.4664 O   0  0  0  0  0  0
  -23.5443  -32.1405   23.7271 O   0  0  0  0  0  0
  -31.3621  -20.6451   21.0479 C   0  0  0  0  0  0
  -31.7400  -18.5634   20.7709 C   0  0  0  0  0  0
  -30.1548  -20.0984   20.6637 C   0  0  0  0  0  0
  -30.0815  -16.3049   22.5027 C   0  0  0  0  0  0
  -28.8726  -20.9882   20.5195 C   0  0  0  0  0  0
  -29.6478  -17.4215   20.1590 C   0  0  0  0  0  0
  -28.6040  -23.6870   20.5811 C   0  0  0  0  0  0
  -28.4257  -25.0114   19.6597 C   0  0  0  0  0  0
  -29.7610  -16.0382   21.0217 C   0  0  1  0  0  0
  -32.3629  -19.6859   21.0930 N   0  0  0  0  0  0
  -30.4195  -18.6635   20.5507 N   0  0  0  0  0  0
  -28.9965  -22.3765   19.8630 N   0  3  0  0  0  0
  -31.4825  -12.6095   19.1558 H   0  0  0  0  0  0
  -30.4189  -11.4685   19.9235 H   0  0  0  0  0  0
  -29.7949  -11.7537   17.5073 H   0  0  0  0  0  0
  -29.6381  -13.4799   17.7298 H   0  0  0  0  0  0
  -27.8904  -11.2866   18.8921 H   0  0  0  0  0  0
  -27.3811  -12.5469   17.7988 H   0  0  0  0  0  0
  -27.6565  -14.2499   19.5027 H   0  0  0  0  0  0
  -28.7321  -12.0820   21.3719 H   0  0  0  0  0  0
  -28.4222  -13.7181   21.8453 H   0  0  0  0  0  0
  -25.2771   -9.5671   22.4754 H   0  0  0  0  0  0
  -23.9989   -7.4638   22.7488 H   0  0  0  0  0  0
  -21.0837   -8.8785   19.8962 H   0  0  0  0  0  0
  -22.3710  -10.9670   19.6166 H   0  0  0  0  0  0
  -21.2010   -7.6149   23.9704 H   0  0  0  0  0  0
  -21.1476   -6.0522   25.9065 H   0  0  0  0  0  0
  -22.0601   -2.7606   23.2847 H   0  0  0  0  0  0
  -22.4105  -11.9877   22.4788 H   0  0  0  0  0  0
  -21.1112  -13.1253   22.2618 H   0  0  0  0  0  0
  -24.6599  -15.8446   20.5306 H   0  0  0  0  0  0
  -26.2787  -15.6313   20.0950 H   0  0  0  0  0  0
  -26.7188  -32.5416   23.1084 H   0  0  0  0  0  0
  -25.0113  -33.9698   25.0456 H   0  0  0  0  0  0
  -22.7233  -31.3002   21.3966 H   0  0  0  0  0  0
  -23.3747  -35.9611   23.3282 H   0  0  0  0  0  0
  -24.3557  -36.8911   22.2043 H   0  0  0  0  0  0
  -23.7246  -37.6481   23.6651 H   0  0  0  0  0  0
  -26.1053  -31.5261   20.6045 H   0  0  0  0  0  0
  -26.8537  -30.8228   22.0075 H   0  0  0  0  0  0
  -28.1136  -28.9253   21.2054 H   0  0  0  0  0  0
  -25.9186  -25.8964   19.0239 H   0  0  0  0  0  0
  -23.9675  -27.3020   19.0175 H   0  0  0  0  0  0
  -23.7714  -30.5884   19.4049 H   0  0  0  0  0  0
  -22.7653  -29.2439   19.8551 H   0  0  0  0  0  0
  -25.1284  -36.1913   25.0821 H   0  0  0  0  0  0
  -20.9971  -28.3255   24.1389 H   0  0  0  0  0  0
  -20.5656  -26.2294   23.3594 H   0  0  0  0  0  0
  -21.6649  -26.7415   22.1208 H   0  0  0  0  0  0
  -19.6907  -25.6282   21.1236 H   0  0  0  0  0  0
  -19.6699  -27.3163   20.6700 H   0  0  0  0  0  0
  -17.4211  -26.6653   21.4013 H   0  0  0  0  0  0
  -18.0340  -26.0064   22.9004 H   0  0  0  0  0  0
  -19.7940  -30.7274   24.2218 H   0  0  0  0  0  0
  -17.5024  -31.6246   24.5162 H   0  0  0  0  0  0
  -15.5351  -30.2967   23.7674 H   0  0  0  0  0  0
  -15.8692  -28.0821   22.7058 H   0  0  0  0  0  0
  -24.5917  -30.7033   25.7788 H   0  0  0  0  0  0
  -24.8877  -32.2852   26.4858 H   0  0  0  0  0  0
  -25.8050  -30.8915   27.0240 H   0  0  0  0  0  0
  -26.2954  -29.6708   24.1227 H   0  0  0  0  0  0
  -27.4060  -29.7272   25.4723 H   0  0  0  0  0  0
  -27.8829  -30.4273   23.9448 H   0  0  0  0  0  0
  -27.2719  -33.3624   26.2046 H   0  0  0  0  0  0
  -28.3888  -32.6844   25.0300 H   0  0  0  0  0  0
  -28.0743  -31.8435   26.5397 H   0  0  0  0  0  0
  -28.2573  -38.0124   24.7585 H   0  0  0  0  0  0
  -28.1155  -36.2672   24.6190 H   0  0  0  0  0  0
  -27.2320  -37.1313   25.8853 H   0  0  0  0  0  0
  -20.9375  -29.8793   21.6892 H   0  0  0  0  0  0
  -26.0162  -38.2840   24.1471 H   0  0  0  0  0  0
  -31.5920  -21.6790   21.2712 H   0  0  0  0  0  0
  -32.2650  -17.6213   20.6981 H   0  0  0  0  0  0
  -29.4254  -17.0766   22.9059 H   0  0  0  0  0  0
  -31.1118  -16.6281   22.6480 H   0  0  0  0  0  0
  -29.9300  -15.4076   23.1041 H   0  0  0  0  0  0
  -28.4331  -21.1199   21.5075 H   0  0  0  0  0  0
  -28.1257  -20.4326   19.9535 H   0  0  0  0  0  0
  -28.5975  -17.7143   20.1281 H   0  0  0  0  0  0
  -29.9028  -17.2009   19.1216 H   0  0  0  0  0  0
  -27.6758  -23.5251   21.1304 H   0  0  0  0  0  0
  -29.3650  -23.8878   21.3364 H   0  0  0  0  0  0
  -27.6310  -24.8090   18.9494 H   0  0  0  0  0  0
  -29.3133  -25.0534   19.0282 H   0  0  0  0  0  0
  -28.7234  -15.7123   21.0177 H   0  0  0  0  0  0
  -28.4024  -22.3113   19.0510 H   0  0  0  0  0  0
  -29.9321  -22.4707   19.5031 H   0  0  0  0  0  0
  1 25  1  0  0  0
  1 30  2  0  0  0
  1 79  1  0  0  0
  2  3  1  0  0  0
  2 25  1  0  0  0
  2 83  1  0  0  0
  2 84  1  0  0  0
  3  4  1  0  0  0
  3 85  1  0  0  0
  3 86  1  0  0  0
  4  5  1  0  0  0
  4 87  1  0  0  0
  4 88  1  0  0  0
  5  6  1  0  0  0
  5 26  1  0  0  0
  5 89  1  0  0  0
  6 25  1  0  0  0
  6 90  1  0  0  0
  6 91  1  0  0  0
  7  8  2  0  0  0
  7 26  1  0  0  0
  7 29  1  0  0  0
  8  9  1  0  0  0
  8 22  1  0  0  0
  9 10  1  0  0  0
  9 27  2  0  0  0
 10 11  2  0  0  0
 10 15  1  0  0  0
 11 12  1  0  0  0
 11 92  1  0  0  0
 12 13  2  0  0  0
 12 93  1  0  0  0
 13 14  1  0  0  0
 13 31  1  0  0  0
 14 15  2  0  0  0
 14 94  1  0  0  0
 15 95  1  0  0  0
 16 17  2  0  0  0
 16 21  1  0  0  0
 16 31  1  0  0  0
 17 18  1  0  0  0
 17 96  1  0  0  0
 18 19  2  0  0  0
 18 97  1  0  0  0
 19 20  1  0  0  0
 19 24  1  0  0  0
 20 21  2  0  0  0
 20 98  1  0  0  0
 21 23  1  0  0  0
 22 28  1  0  0  0
 22 32  2  0  0  0
 26 27  1  0  0  0
 28 99  1  0  0  0
 28100  1  0  0  0
 29101  1  0  0  0
 29102  1  0  0  0
 33 34  1  0  0  0
 33 66  1  0  0  0
 33 70  2  0  0  0
 34 36  1  0  0  0
 34 59  1  0  0  0
 34103  1  0  0  0
 35 44  2  0  0  0
 35 45  1  0  0  0
 35 68  1  0  0  0
 36 56  1  0  0  0
 36104  1  0  0  0
 37 39  1  0  0  0
 37 47  1  0  0  0
 37 66  1  0  0  0
 37105  1  0  0  0
 38 43  2  0  0  0
 38 46  1  0  0  0
 38 47  1  0  0  0
 39 64  1  0  0  0
 39 67  2  0  0  0
 40 52  1  0  0  0
 40 53  2  0  0  0
 40 58  1  0  0  0
 41106  1  0  0  0
 41107  1  0  0  0
 41108  1  0  0  0
 41 48  1  0  0  0
 42 43  1  0  0  0
 42 66  1  0  0  0
 42109  1  0  0  0
 42110  1  0  0  0
 43 44  1  0  0  0
 44111  1  0  0  0
 45 46  2  0  0  0
 45112  1  0  0  0
 46113  1  0  0  0
 47114  1  0  0  0
 47115  1  0  0  0
 48 56  1  0  0  0
 48 65  1  0  0  0
 48116  1  0  0  0
 49 50  1  0  0  0
 49 53  1  0  0  0
 49 64  1  0  0  0
 49117  1  0  0  0
 50 51  1  0  0  0
 50118  1  0  0  0
 50119  1  0  0  0
 51 52  1  0  0  0
 51120  1  0  0  0
 51121  1  0  0  0
 52122  1  0  0  0
 52123  1  0  0  0
 53 54  1  0  0  0
 54 55  2  0  0  0
 54124  1  0  0  0
 55 57  1  0  0  0
 55125  1  0  0  0
 56 69  2  0  0  0
 57 58  2  0  0  0
 57126  1  0  0  0
 58127  1  0  0  0
 59 60  1  0  0  0
 59 61  1  0  0  0
 59 62  1  0  0  0
 60128  1  0  0  0
 60129  1  0  0  0
 60130  1  0  0  0
 61131  1  0  0  0
 61132  1  0  0  0
 61133  1  0  0  0
 62134  1  0  0  0
 62135  1  0  0  0
 62136  1  0  0  0
 63 65  1  0  0  0
 63137  1  0  0  0
 63138  1  0  0  0
 63139  1  0  0  0
 64140  1  0  0  0
 65141  1  0  0  0
 68 78  1  0  0  0
 71 73  2  0  0  0
 71 80  1  0  0  0
 71142  1  0  0  0
 72 80  2  0  0  0
 72 81  1  0  0  0
 72143  1  0  0  0
 73 75  1  0  0  0
 73 81  1  0  0  0
 74144  1  0  0  0
 74145  1  0  0  0
 74146  1  0  0  0
 74 79  1  0  0  0
 75 82  1  0  0  0
 75147  1  0  0  0
 75148  1  0  0  0
 76 79  1  0  0  0
 76 81  1  0  0  0
 76149  1  0  0  0
 76150  1  0  0  0
 77 78  1  0  0  0
 77 82  1  0  0  0
 77151  1  0  0  0
 77152  1  0  0  0
 78153  1  0  0  0
 78154  1  0  0  0
 79155  1  0  0  0
 82156  1  0  0  0
 82157  1  0  0  0
M  CHG  1  82   1
M  ISO  4   1 100  68 101  78 101  79 100
M  END
> <chiral flag>
0

> <version>
0

> <s_m_source_file>
/data/baiqing/PycharmProjects/Reinvent-master-3.2/result/LINK_invent/BTK/process_docking_weight1_custom_sum_contain_oxygen_bond_distance_aromatic_linkinvent_7_9_3/rearranged_h_0053.sdf

> <i_m_source_file_index>
29

> <r_mmod_Potential_Energy-OPLS-2005>
52.3485260009766

> <r_mmod_Stretch_Energy-OPLS-2005>
132.119247436523

> <r_mmod_Bend_Energy-OPLS-2005>
217.480590820312

> <r_mmod_Torsional_Energy-OPLS-2005>
195.569488525391

> <r_mmod_Improper_Torsional_Energy-OPLS-2005>
2.91577458381653

> <r_mmod_Van_der_Waal_Energy-OPLS-2005>
113.00772857666

> <r_mmod_Electrostatic_Energy-OPLS-2005>
-211.299499511719

> <r_mmod_Solvation_Energy-OPLS-2005>
-476.958862304688

> <b_mmod_Minimization_Converged-OPLS-2005>
0

> <r_mmod_RMS_Derivative-OPLS-2005>
2.70245146751404

$$$$
29
                    3D
 Structure written by MMmdl.
165173  0  0  1  0            999 V2000
  -30.7598  -14.3566   20.6759 C   0  0  0  0  0  0
  -30.4107  -12.2849   19.3847 C   0  0  0  0  0  0
  -29.4766  -12.4990   18.1801 C   0  0  0  0  0  0
  -28.0015  -12.3563   18.6009 C   0  0  0  0  0  0
  -27.6562  -13.1948   19.8594 C   0  0  2  0  0  0
  -28.6901  -12.9441   20.9761 C   0  0  0  0  0  0
  -25.2549  -13.8133   20.5630 C   0  0  0  0  0  0
  -24.1815  -13.0439   20.9176 C   0  0  0  0  0  0
  -24.6333  -11.6892   20.8715 C   0  0  0  0  0  0
  -23.9003  -10.4288   21.0396 C   0  0  0  0  0  0
  -24.3573   -9.4218   21.9179 C   0  0  0  0  0  0
  -23.6278   -8.2246   22.0748 C   0  0  0  0  0  0
  -22.4264   -8.0265   21.3538 C   0  0  0  0  0  0
  -21.9888   -9.0228   20.4632 C   0  0  0  0  0  0
  -22.7189  -10.2117   20.3043 C   0  0  0  0  0  0
  -21.6855   -6.0729   22.5283 C   0  0  0  0  0  0
  -21.4008   -6.5635   23.8217 C   0  0  0  0  0  0
  -21.3658   -5.6791   24.9181 C   0  0  0  0  0  0
  -21.6045   -4.3058   24.7233 C   0  0  0  0  0  0
  -21.8820   -3.8149   23.4352 C   0  0  0  0  0  0
  -21.9188   -4.6960   22.3404 C   0  0  0  0  0  0
  -22.7845  -13.5230   21.1873 C   0  0  0  0  0  0
  -22.1665   -4.2146   21.0988 F   0  0  0  0  0  0
  -21.5621   -3.4537   25.7744 F   0  0  0  0  0  0
  -30.0319  -13.2375   20.4361 N   0  0  0  0  0  0
  -26.2961  -12.9285   20.3245 N   0  0  0  0  0  0
  -25.9242  -11.6459   20.5688 N   0  0  0  0  0  0
  -22.0472  -12.8228   22.0413 N   0  0  0  0  0  0
  -25.4303  -15.1858   20.4021 N   0  0  0  0  0  0
  -31.8107  -14.6284   20.0883 O   0  0  0  0  0  0
  -21.6632   -6.8863   21.4242 O   0  0  0  0  0  0
  -22.3545  -14.5555   20.6738 O   0  0  0  0  0  0
  -24.6094  -31.8725   23.2075 C   0  0  0  0  0  0
  -25.9042  -32.4838   23.8356 C   0  0  1  0  0  0
  -27.2205  -27.4354   20.1314 C   0  0  0  0  0  0
  -25.5915  -33.8624   24.2265 N   0  0  0  0  0  0
  -23.3927  -30.4955   21.5486 C   0  0  2  0  0  0
  -24.8373  -28.9594   20.1088 C   0  0  0  0  0  0
  -22.7377  -29.4693   22.5007 C   0  0  0  0  0  0
  -18.0255  -28.1428   22.8465 C   0  0  0  0  0  0
  -24.1508  -36.7292   23.2642 C   0  0  0  0  0  0
  -25.9147  -30.8460   21.3508 C   0  0  0  0  0  0
  -25.9950  -29.4805   20.7027 C   0  0  0  0  0  0
  -27.1884  -28.7258   20.7072 C   0  0  0  0  0  0
  -26.0492  -26.9282   19.5237 C   0  0  0  0  0  0
  -24.8599  -27.6843   19.5160 C   0  0  0  0  0  0
  -23.5966  -29.8252   20.1609 C   0  0  0  0  0  0
  -25.4141  -36.3092   24.0295 C   0  0  1  0  0  0
  -20.5830  -28.3702   23.1337 C   0  0  2  0  0  0
  -20.6788  -26.9459   22.5427 C   0  0  0  0  0  0
  -19.5756  -26.6418   21.5238 C   0  0  0  0  0  0
  -18.1908  -26.7960   22.1624 C   0  0  0  0  0  0
  -19.1500  -28.8878   23.2871 C   0  0  0  0  0  0
  -18.9467  -30.1477   23.8892 C   0  0  0  0  0  0
  -17.6484  -30.6625   24.0580 C   0  0  0  0  0  0
  -25.9063  -34.9466   23.5067 C   0  0  0  0  0  0
  -16.5363  -29.9149   23.6366 C   0  0  0  0  0  0
  -16.7251  -28.6582   23.0339 C   0  0  0  0  0  0
  -26.4468  -31.6621   25.0677 C   0  0  0  0  0  0
  -25.3713  -31.3729   26.1412 C   0  0  0  0  0  0
  -27.0325  -30.3086   24.6032 C   0  0  0  0  0  0
  -27.6019  -32.4352   25.7454 C   0  0  0  0  0  0
  -27.5583  -37.1786   24.8464 C   0  0  0  0  0  0
  -21.4119  -29.3035   22.3741 N   0  0  0  0  0  0
  -26.4316  -37.3782   23.9380 N   0  0  0  0  0  0
  -24.6571  -31.0850   22.0964 N   0  0  0  0  0  0
  -23.4190  -28.8252   23.3049 O   0  0  0  0  0  0
  -28.3933  -26.7195   20.2019 O   0  0  0  0  0  0
  -26.5657  -34.8917   22.4640 O   0  0  0  0  0  0
  -23.5321  -32.1477   23.7519 O   0  0  0  0  0  0
  -28.0886  -22.3807   21.1032 C   0  0  0  0  0  0
  -28.2421  -21.2313   21.8307 C   0  0  0  0  0  0
  -27.7421  -22.8881   23.2343 C   0  0  0  0  0  0
  -27.3763  -23.5803   24.5089 C   0  0  0  0  0  0
  -30.6984  -20.3347   20.4345 C   0  0  0  0  0  0
  -28.5370  -19.8279   21.4086 C   0  0  0  0  0  0
  -31.3370  -17.4414   21.6236 C   0  0  0  0  0  0
  -27.5587  -24.8175   21.6471 C   0  0  0  0  0  0
  -31.0406  -16.1411   22.4000 C   0  0  0  0  0  0
  -30.0864  -18.0847   20.9995 C   0  0  0  0  0  0
  -28.3185  -25.2967   20.3778 C   0  0  0  0  0  0
  -27.8119  -23.3970   21.9866 N   0  0  0  0  0  0
  -28.0448  -21.5880   23.1364 N   0  3  0  0  0  0
  -30.2846  -15.1338   21.6552 N   0  0  0  0  0  0
  -29.9645  -19.4935   21.3862 N   0  0  0  0  0  0
  -31.4521  -12.3919   19.0772 H   0  0  0  0  0  0
  -30.3196  -11.2642   19.7619 H   0  0  0  0  0  0
  -29.7099  -11.7762   17.3958 H   0  0  0  0  0  0
  -29.6477  -13.4865   17.7491 H   0  0  0  0  0  0
  -27.8157  -11.3009   18.8003 H   0  0  0  0  0  0
  -27.3484  -12.6290   17.7713 H   0  0  0  0  0  0
  -27.7137  -14.2469   19.5749 H   0  0  0  0  0  0
  -28.6493  -11.9006   21.2945 H   0  0  0  0  0  0
  -28.4263  -13.5227   21.8614 H   0  0  0  0  0  0
  -25.2717   -9.5720   22.4758 H   0  0  0  0  0  0
  -23.9996   -7.4643   22.7462 H   0  0  0  0  0  0
  -21.0831   -8.8724   19.8929 H   0  0  0  0  0  0
  -22.3643  -10.9644   19.6154 H   0  0  0  0  0  0
  -21.2008   -7.6147   23.9720 H   0  0  0  0  0  0
  -21.1477   -6.0519   25.9077 H   0  0  0  0  0  0
  -22.0598   -2.7603   23.2856 H   0  0  0  0  0  0
  -22.4075  -11.9873   22.4801 H   0  0  0  0  0  0
  -21.1071  -13.1233   22.2578 H   0  0  0  0  0  0
  -24.6638  -15.8422   20.5026 H   0  0  0  0  0  0
  -26.2800  -15.6155   20.0597 H   0  0  0  0  0  0
  -26.7119  -32.5596   23.1141 H   0  0  0  0  0  0
  -24.9994  -33.9760   25.0373 H   0  0  0  0  0  0
  -22.6758  -31.3103   21.4150 H   0  0  0  0  0  0
  -23.3741  -35.9661   23.3359 H   0  0  0  0  0  0
  -24.3590  -36.8870   22.2053 H   0  0  0  0  0  0
  -23.7273  -37.6487   23.6679 H   0  0  0  0  0  0
  -26.0048  -31.6129   20.5809 H   0  0  0  0  0  0
  -26.8077  -30.9100   21.9598 H   0  0  0  0  0  0
  -28.0783  -29.1134   21.1836 H   0  0  0  0  0  0
  -26.0365  -25.9493   19.0688 H   0  0  0  0  0  0
  -23.9661  -27.2752   19.0645 H   0  0  0  0  0  0
  -23.6954  -30.5978   19.3966 H   0  0  0  0  0  0
  -22.7217  -29.2422   19.8732 H   0  0  0  0  0  0
  -25.1314  -36.1954   25.0789 H   0  0  0  0  0  0
  -20.9872  -28.3314   24.1486 H   0  0  0  0  0  0
  -20.5792  -26.2318   23.3612 H   0  0  0  0  0  0
  -21.6652  -26.7613   22.1153 H   0  0  0  0  0  0
  -19.6944  -25.6317   21.1293 H   0  0  0  0  0  0
  -19.6714  -27.3263   20.6794 H   0  0  0  0  0  0
  -17.4195  -26.6705   21.4022 H   0  0  0  0  0  0
  -18.0267  -26.0140   22.9058 H   0  0  0  0  0  0
  -19.7955  -30.7265   24.2287 H   0  0  0  0  0  0
  -17.5074  -31.6329   24.5166 H   0  0  0  0  0  0
  -15.5357  -30.3067   23.7761 H   0  0  0  0  0  0
  -15.8620  -28.0956   22.7036 H   0  0  0  0  0  0
  -24.5920  -30.7055   25.7721 H   0  0  0  0  0  0
  -24.8862  -32.2886   26.4811 H   0  0  0  0  0  0
  -25.8035  -30.8931   27.0193 H   0  0  0  0  0  0
  -26.2866  -29.6791   24.1171 H   0  0  0  0  0  0
  -27.4193  -29.7390   25.4477 H   0  0  0  0  0  0
  -27.8633  -30.4383   23.9087 H   0  0  0  0  0  0
  -27.2634  -33.3651   26.2032 H   0  0  0  0  0  0
  -28.3850  -32.6913   25.0318 H   0  0  0  0  0  0
  -28.0682  -31.8496   26.5385 H   0  0  0  0  0  0
  -28.2585  -38.0106   24.7511 H   0  0  0  0  0  0
  -28.1065  -36.2599   24.6300 H   0  0  0  0  0  0
  -27.2260  -37.1422   25.8859 H   0  0  0  0  0  0
  -20.9334  -29.8699   21.6870 H   0  0  0  0  0  0
  -26.0184  -38.2826   24.1443 H   0  0  0  0  0  0
  -28.1584  -22.5289   20.0351 H   0  0  0  0  0  0
  -26.3391  -23.9048   24.4359 H   0  0  0  0  0  0
  -28.0397  -24.4282   24.6678 H   0  0  0  0  0  0
  -27.4833  -22.8767   25.3363 H   0  0  0  0  0  0
  -30.8027  -21.3524   20.8143 H   0  0  0  0  0  0
  -30.1922  -20.3904   19.4670 H   0  0  0  0  0  0
  -31.7079  -19.9612   20.2577 H   0  0  0  0  0  0
  -28.0856  -19.6510   20.4330 H   0  0  0  0  0  0
  -28.0267  -19.1557   22.1023 H   0  0  0  0  0  0
  -32.0759  -17.2546   20.8441 H   0  0  0  0  0  0
  -31.8166  -18.1334   22.3191 H   0  0  0  0  0  0
  -26.4815  -24.9404   21.5247 H   0  0  0  0  0  0
  -27.8563  -25.4250   22.5005 H   0  0  0  0  0  0
  -30.4670  -16.3810   23.2979 H   0  0  0  0  0  0
  -31.9717  -15.6939   22.7533 H   0  0  0  0  0  0
  -29.2167  -17.5276   21.3500 H   0  0  0  0  0  0
  -30.0886  -17.9666   19.9123 H   0  0  0  0  0  0
  -27.9401  -24.8158   19.4735 H   0  0  0  0  0  0
  -29.3522  -24.9614   20.4777 H   0  0  0  0  0  0
  -28.1073  -20.9460   23.9212 H   0  0  0  0  0  0
  -29.3769  -14.8830   22.0229 H   0  0  0  0  0  0
  1 25  1  0  0  0
  1 30  2  0  0  0
  1 84  1  0  0  0
  2  3  1  0  0  0
  2 25  1  0  0  0
  2 86  1  0  0  0
  2 87  1  0  0  0
  3  4  1  0  0  0
  3 88  1  0  0  0
  3 89  1  0  0  0
  4  5  1  0  0  0
  4 90  1  0  0  0
  4 91  1  0  0  0
  5  6  1  0  0  0
  5 26  1  0  0  0
  5 92  1  0  0  0
  6 25  1  0  0  0
  6 93  1  0  0  0
  6 94  1  0  0  0
  7  8  2  0  0  0
  7 26  1  0  0  0
  7 29  1  0  0  0
  8  9  1  0  0  0
  8 22  1  0  0  0
  9 10  1  0  0  0
  9 27  2  0  0  0
 10 11  2  0  0  0
 10 15  1  0  0  0
 11 12  1  0  0  0
 11 95  1  0  0  0
 12 13  2  0  0  0
 12 96  1  0  0  0
 13 14  1  0  0  0
 13 31  1  0  0  0
 14 15  2  0  0  0
 14 97  1  0  0  0
 15 98  1  0  0  0
 16 17  2  0  0  0
 16 21  1  0  0  0
 16 31  1  0  0  0
 17 18  1  0  0  0
 17 99  1  0  0  0
 18 19  2  0  0  0
 18100  1  0  0  0
 19 20  1  0  0  0
 19 24  1  0  0  0
 20 21  2  0  0  0
 20101  1  0  0  0
 21 23  1  0  0  0
 22 28  1  0  0  0
 22 32  2  0  0  0
 26 27  1  0  0  0
 28102  1  0  0  0
 28103  1  0  0  0
 29104  1  0  0  0
 29105  1  0  0  0
 33 34  1  0  0  0
 33 66  1  0  0  0
 33 70  2  0  0  0
 34 36  1  0  0  0
 34 59  1  0  0  0
 34106  1  0  0  0
 35 44  2  0  0  0
 35 45  1  0  0  0
 35 68  1  0  0  0
 36 56  1  0  0  0
 36107  1  0  0  0
 37 39  1  0  0  0
 37 47  1  0  0  0
 37 66  1  0  0  0
 37108  1  0  0  0
 38 43  2  0  0  0
 38 46  1  0  0  0
 38 47  1  0  0  0
 39 64  1  0  0  0
 39 67  2  0  0  0
 40 52  1  0  0  0
 40 53  2  0  0  0
 40 58  1  0  0  0
 41109  1  0  0  0
 41110  1  0  0  0
 41111  1  0  0  0
 41 48  1  0  0  0
 42 43  1  0  0  0
 42 66  1  0  0  0
 42112  1  0  0  0
 42113  1  0  0  0
 43 44  1  0  0  0
 44114  1  0  0  0
 45 46  2  0  0  0
 45115  1  0  0  0
 46116  1  0  0  0
 47117  1  0  0  0
 47118  1  0  0  0
 48 56  1  0  0  0
 48 65  1  0  0  0
 48119  1  0  0  0
 49 50  1  0  0  0
 49 53  1  0  0  0
 49 64  1  0  0  0
 49120  1  0  0  0
 50 51  1  0  0  0
 50121  1  0  0  0
 50122  1  0  0  0
 51 52  1  0  0  0
 51123  1  0  0  0
 51124  1  0  0  0
 52125  1  0  0  0
 52126  1  0  0  0
 53 54  1  0  0  0
 54 55  2  0  0  0
 54127  1  0  0  0
 55 57  1  0  0  0
 55128  1  0  0  0
 56 69  2  0  0  0
 57 58  2  0  0  0
 57129  1  0  0  0
 58130  1  0  0  0
 59 60  1  0  0  0
 59 61  1  0  0  0
 59 62  1  0  0  0
 60131  1  0  0  0
 60132  1  0  0  0
 60133  1  0  0  0
 61134  1  0  0  0
 61135  1  0  0  0
 61136  1  0  0  0
 62137  1  0  0  0
 62138  1  0  0  0
 62139  1  0  0  0
 63 65  1  0  0  0
 63140  1  0  0  0
 63141  1  0  0  0
 63142  1  0  0  0
 64143  1  0  0  0
 65144  1  0  0  0
 68 81  1  0  0  0
 71 72  2  0  0  0
 71 82  1  0  0  0
 71145  1  0  0  0
 72 76  1  0  0  0
 72 83  1  0  0  0
 73 74  1  0  0  0
 73 82  1  0  0  0
 73 83  2  0  0  0
 74146  1  0  0  0
 74147  1  0  0  0
 74148  1  0  0  0
 75 85  1  0  0  0
 75149  1  0  0  0
 75150  1  0  0  0
 75151  1  0  0  0
 76 85  1  0  0  0
 76152  1  0  0  0
 76153  1  0  0  0
 77 79  1  0  0  0
 77 80  1  0  0  0
 77154  1  0  0  0
 77155  1  0  0  0
 78 81  1  0  0  0
 78 82  1  0  0  0
 78156  1  0  0  0
 78157  1  0  0  0
 79 84  1  0  0  0
 79158  1  0  0  0
 79159  1  0  0  0
 80 85  1  0  0  0
 80160  1  0  0  0
 80161  1  0  0  0
 81162  1  0  0  0
 81163  1  0  0  0
 83164  1  0  0  0
 84165  1  0  0  0
M  CHG  1  83   1
M  ISO  4   1 100  68 101  81 101  84 100
M  END
> <chiral flag>
0

> <version>
0

> <s_m_source_file>
/data/baiqing/PycharmProjects/Reinvent-master-3.2/result/LINK_invent/BTK/process_docking_weight1_custom_sum_contain_oxygen_bond_distance_aromatic_linkinvent_7_9_3/rearranged_h_0053.sdf

> <i_m_source_file_index>
30

> <r_mmod_Potential_Energy-OPLS-2005>
-111.289199829102

> <r_mmod_Stretch_Energy-OPLS-2005>
33.6223564147949

> <r_mmod_Bend_Energy-OPLS-2005>
99.9164886474609

> <r_mmod_Torsional_Energy-OPLS-2005>
235.758575439453

> <r_mmod_Improper_Torsional_Energy-OPLS-2005>
2.41362547874451

> <r_mmod_Van_der_Waal_Energy-OPLS-2005>
137.478988647461

> <r_mmod_Electrostatic_Energy-OPLS-2005>
-217.048355102539

> <r_mmod_Solvation_Energy-OPLS-2005>
-415.070678710938

> <b_mmod_Minimization_Converged-OPLS-2005>
0

> <r_mmod_RMS_Derivative-OPLS-2005>
4.65026664733887

$$$$
30
                    3D
 Structure written by MMmdl.
149157  0  0  1  0            999 V2000
  -30.4403  -15.1457   20.4221 C   0  0  0  0  0  0
  -30.4519  -12.7188   19.5204 C   0  0  0  0  0  0
  -29.5366  -12.5691   18.2784 C   0  0  0  0  0  0
  -28.0767  -12.3119   18.6962 C   0  0  0  0  0  0
  -27.6254  -13.2605   19.8346 C   0  0  2  0  0  0
  -28.6622  -13.3468   20.9739 C   0  0  0  0  0  0
  -25.2450  -13.8227   20.5726 C   0  0  0  0  0  0
  -24.1777  -13.0436   20.9233 C   0  0  0  0  0  0
  -24.6408  -11.6925   20.8746 C   0  0  0  0  0  0
  -23.9091  -10.4291   21.0400 C   0  0  0  0  0  0
  -24.3634   -9.4206   21.9181 C   0  0  0  0  0  0
  -23.6301   -8.2246   22.0754 C   0  0  0  0  0  0
  -22.4283   -8.0285   21.3544 C   0  0  0  0  0  0
  -21.9923   -9.0259   20.4646 C   0  0  0  0  0  0
  -22.7259  -10.2134   20.3053 C   0  0  0  0  0  0
  -21.6856   -6.0737   22.5278 C   0  0  0  0  0  0
  -21.4017   -6.5640   23.8211 C   0  0  0  0  0  0
  -21.3659   -5.6792   24.9173 C   0  0  0  0  0  0
  -21.6044   -4.3055   24.7224 C   0  0  0  0  0  0
  -21.8819   -3.8147   23.4345 C   0  0  0  0  0  0
  -21.9194   -4.6964   22.3401 C   0  0  0  0  0  0
  -22.7796  -13.5199   21.1887 C   0  0  0  0  0  0
  -22.1661   -4.2149   21.0979 F   0  0  0  0  0  0
  -21.5628   -3.4539   25.7736 F   0  0  0  0  0  0
  -29.9195  -13.8295   20.3812 N   0  0  0  0  0  0
  -26.2875  -12.9476   20.3228 N   0  0  0  0  0  0
  -25.9345  -11.6594   20.5716 N   0  0  0  0  0  0
  -22.0450  -12.8184   22.0443 N   0  0  0  0  0  0
  -25.4114  -15.1958   20.4166 N   0  0  0  0  0  0
  -31.6239  -15.2142   20.0583 O   0  0  0  0  0  0
  -21.6644   -6.8883   21.4241 O   0  0  0  0  0  0
  -22.3476  -14.5502   20.6730 O   0  0  0  0  0  0
  -24.6552  -31.8306   23.1759 C   0  0  0  0  0  0
  -25.9268  -32.4622   23.8199 C   0  0  1  0  0  0
  -27.2226  -27.0061   20.1726 C   0  0  0  0  0  0
  -25.5963  -33.8434   24.2109 N   0  0  0  0  0  0
  -23.4662  -30.4436   21.5232 C   0  0  2  0  0  0
  -24.9194  -28.8436   20.1092 C   0  0  0  0  0  0
  -22.7629  -29.4473   22.4806 C   0  0  0  0  0  0
  -18.0315  -28.1405   22.8471 C   0  0  0  0  0  0
  -24.1490  -36.7221   23.2646 C   0  0  0  0  0  0
  -26.0297  -30.6620   21.3943 C   0  0  0  0  0  0
  -26.0993  -29.2595   20.7381 C   0  0  0  0  0  0
  -27.2464  -28.3592   20.7482 C   0  0  0  0  0  0
  -26.0166  -26.7225   19.4945 C   0  0  0  0  0  0
  -24.8988  -27.5937   19.4687 C   0  0  0  0  0  0
  -23.7011  -29.7617   20.1473 C   0  0  0  0  0  0
  -25.4128  -36.2987   24.0305 C   0  0  1  0  0  0
  -20.5935  -28.3742   23.1207 C   0  0  2  0  0  0
  -20.6793  -26.9431   22.5406 C   0  0  0  0  0  0
  -19.5767  -26.6380   21.5215 C   0  0  0  0  0  0
  -18.1948  -26.7940   22.1622 C   0  0  0  0  0  0
  -19.1576  -28.8893   23.2827 C   0  0  0  0  0  0
  -18.9489  -30.1485   23.8859 C   0  0  0  0  0  0
  -17.6484  -30.6597   24.0557 C   0  0  0  0  0  0
  -25.9090  -34.9367   23.5026 C   0  0  0  0  0  0
  -16.5374  -29.9086   23.6344 C   0  0  0  0  0  0
  -16.7298  -28.6507   23.0362 C   0  0  0  0  0  0
  -26.4548  -31.6544   25.0698 C   0  0  0  0  0  0
  -25.3696  -31.3774   26.1371 C   0  0  0  0  0  0
  -27.0440  -30.2922   24.6381 C   0  0  0  0  0  0
  -27.6049  -32.4346   25.7497 C   0  0  0  0  0  0
  -27.5570  -37.1765   24.8466 C   0  0  0  0  0  0
  -21.4308  -29.3041   22.3560 N   0  0  0  0  0  0
  -26.4280  -37.3716   23.9410 N   0  0  0  0  0  0
  -24.7377  -31.0040   22.0853 N   0  0  0  0  0  0
  -23.4213  -28.8041   23.3020 O   0  0  0  0  0  0
  -28.2500  -25.9543   20.2703 O   0  0  0  0  0  0
  -26.5696  -34.8892   22.4618 O   0  0  0  0  0  0
  -23.5642  -32.1243   23.6900 O   0  0  0  0  0  0
  -30.3401  -20.5441   20.2608 C   0  0  0  0  0  0
  -28.2372  -18.9820   20.5566 C   0  0  0  0  0  0
  -29.0877  -21.2946   20.3520 C   0  0  0  0  0  0
  -29.4884  -18.2295   20.4803 C   0  0  0  0  0  0
  -29.8362  -16.6076   22.4684 C   0  0  0  0  0  0
  -28.9914  -22.9967   20.6232 C   0  0  0  0  0  0
  -28.0744  -24.3644   20.0071 C   0  0  0  0  0  0
  -29.6140  -16.5700   20.9452 C   0  0  2  0  0  0
  -28.0454  -20.3906   20.5178 N   0  0  0  0  0  0
  -30.5352  -19.1355   20.3357 N   0  0  0  0  0  0
  -31.4760  -12.9124   19.1988 H   0  0  0  0  0  0
  -30.4951  -11.7842   20.0821 H   0  0  0  0  0  0
  -29.8927  -11.7602   17.6392 H   0  0  0  0  0  0
  -29.5889  -13.4795   17.6795 H   0  0  0  0  0  0
  -28.0077  -11.2770   19.0336 H   0  0  0  0  0  0
  -27.4110  -12.3984   17.8365 H   0  0  0  0  0  0
  -27.5692  -14.2496   19.3793 H   0  0  0  0  0  0
  -28.7945  -12.3802   21.4624 H   0  0  0  0  0  0
  -28.3189  -14.0349   21.7473 H   0  0  0  0  0  0
  -25.2778   -9.5680   22.4757 H   0  0  0  0  0  0
  -24.0005   -7.4639   22.7478 H   0  0  0  0  0  0
  -21.0852   -8.8784   19.8955 H   0  0  0  0  0  0
  -22.3718  -10.9674   19.6162 H   0  0  0  0  0  0
  -21.2012   -7.6148   23.9714 H   0  0  0  0  0  0
  -21.1480   -6.0523   25.9075 H   0  0  0  0  0  0
  -22.0598   -2.7609   23.2846 H   0  0  0  0  0  0
  -22.4079  -11.9849   22.4828 H   0  0  0  0  0  0
  -21.1065  -13.1199   22.2651 H   0  0  0  0  0  0
  -24.6390  -15.8443   20.5241 H   0  0  0  0  0  0
  -26.2495  -15.6348   20.0599 H   0  0  0  0  0  0
  -26.7333  -32.5184   23.0917 H   0  0  0  0  0  0
  -25.0067  -33.9522   25.0230 H   0  0  0  0  0  0
  -22.7753  -31.2729   21.3572 H   0  0  0  0  0  0
  -23.3760  -35.9542   23.3287 H   0  0  0  0  0  0
  -24.3568  -36.8887   22.2065 H   0  0  0  0  0  0
  -23.7238  -37.6401   23.6713 H   0  0  0  0  0  0
  -26.2011  -31.4083   20.6172 H   0  0  0  0  0  0
  -26.8933  -30.7165   22.0454 H   0  0  0  0  0  0
  -28.1402  -28.6725   21.2691 H   0  0  0  0  0  0
  -25.9070  -25.7662   19.0043 H   0  0  0  0  0  0
  -24.0003  -27.2711   18.9605 H   0  0  0  0  0  0
  -23.8480  -30.5313   19.3886 H   0  0  0  0  0  0
  -22.8128  -29.2103   19.8338 H   0  0  0  0  0  0
  -25.1322  -36.1793   25.0795 H   0  0  0  0  0  0
  -21.0026  -28.3346   24.1329 H   0  0  0  0  0  0
  -20.5680  -26.2356   23.3638 H   0  0  0  0  0  0
  -21.6656  -26.7418   22.1207 H   0  0  0  0  0  0
  -19.6927  -25.6281   21.1268 H   0  0  0  0  0  0
  -19.6706  -27.3170   20.6729 H   0  0  0  0  0  0
  -17.4217  -26.6688   21.4025 H   0  0  0  0  0  0
  -18.0343  -26.0091   22.9028 H   0  0  0  0  0  0
  -19.7966  -30.7311   24.2210 H   0  0  0  0  0  0
  -17.5036  -31.6273   24.5166 H   0  0  0  0  0  0
  -15.5372  -30.2975   23.7688 H   0  0  0  0  0  0
  -15.8700  -28.0811   22.7101 H   0  0  0  0  0  0
  -24.5891  -30.7108   25.7688 H   0  0  0  0  0  0
  -24.8869  -32.2966   26.4698 H   0  0  0  0  0  0
  -25.7946  -30.9013   27.0216 H   0  0  0  0  0  0
  -26.3096  -29.6606   24.1373 H   0  0  0  0  0  0
  -27.3987  -29.7272   25.5011 H   0  0  0  0  0  0
  -27.9026  -30.4122   23.9771 H   0  0  0  0  0  0
  -27.2624  -33.3684   26.1969 H   0  0  0  0  0  0
  -28.3914  -32.6852   25.0365 H   0  0  0  0  0  0
  -28.0657  -31.8544   26.5502 H   0  0  0  0  0  0
  -28.2571  -38.0076   24.7516 H   0  0  0  0  0  0
  -28.1082  -36.2603   24.6291 H   0  0  0  0  0  0
  -27.2286  -37.1405   25.8869 H   0  0  0  0  0  0
  -20.9548  -29.8732   21.6700 H   0  0  0  0  0  0
  -26.0133  -38.2775   24.1424 H   0  0  0  0  0  0
  -31.2603  -21.1075   20.2041 H   0  0  0  0  0  0
  -27.3306  -18.4272   20.7507 H   0  0  0  0  0  0
  -29.0267  -17.1405   22.9674 H   0  0  0  0  0  0
  -30.7674  -17.1215   22.7079 H   0  0  0  0  0  0
  -29.8858  -15.6123   22.9116 H   0  0  0  0  0  0
  -30.0253  -23.3057   20.4707 H   0  0  0  0  0  0
  -28.8662  -23.0582   21.7039 H   0  0  0  0  0  0
  -27.0370  -24.1443   20.2582 H   0  0  0  0  0  0
  -28.1160  -24.2760   18.9216 H   0  0  0  0  0  0
  -28.5823  -16.2491   20.8049 H   0  0  0  0  0  0
  1 25  1  0  0  0
  1 30  2  0  0  0
  1 78  1  0  0  0
  2  3  1  0  0  0
  2 25  1  0  0  0
  2 81  1  0  0  0
  2 82  1  0  0  0
  3  4  1  0  0  0
  3 83  1  0  0  0
  3 84  1  0  0  0
  4  5  1  0  0  0
  4 85  1  0  0  0
  4 86  1  0  0  0
  5  6  1  0  0  0
  5 26  1  0  0  0
  5 87  1  0  0  0
  6 25  1  0  0  0
  6 88  1  0  0  0
  6 89  1  0  0  0
  7  8  2  0  0  0
  7 26  1  0  0  0
  7 29  1  0  0  0
  8  9  1  0  0  0
  8 22  1  0  0  0
  9 10  1  0  0  0
  9 27  2  0  0  0
 10 11  2  0  0  0
 10 15  1  0  0  0
 11 12  1  0  0  0
 11 90  1  0  0  0
 12 13  2  0  0  0
 12 91  1  0  0  0
 13 14  1  0  0  0
 13 31  1  0  0  0
 14 15  2  0  0  0
 14 92  1  0  0  0
 15 93  1  0  0  0
 16 17  2  0  0  0
 16 21  1  0  0  0
 16 31  1  0  0  0
 17 18  1  0  0  0
 17 94  1  0  0  0
 18 19  2  0  0  0
 18 95  1  0  0  0
 19 20  1  0  0  0
 19 24  1  0  0  0
 20 21  2  0  0  0
 20 96  1  0  0  0
 21 23  1  0  0  0
 22 28  1  0  0  0
 22 32  2  0  0  0
 26 27  1  0  0  0
 28 97  1  0  0  0
 28 98  1  0  0  0
 29 99  1  0  0  0
 29100  1  0  0  0
 33 34  1  0  0  0
 33 66  1  0  0  0
 33 70  2  0  0  0
 34 36  1  0  0  0
 34 59  1  0  0  0
 34101  1  0  0  0
 35 44  2  0  0  0
 35 45  1  0  0  0
 35 68  1  0  0  0
 36 56  1  0  0  0
 36102  1  0  0  0
 37 39  1  0  0  0
 37 47  1  0  0  0
 37 66  1  0  0  0
 37103  1  0  0  0
 38 43  2  0  0  0
 38 46  1  0  0  0
 38 47  1  0  0  0
 39 64  1  0  0  0
 39 67  2  0  0  0
 40 52  1  0  0  0
 40 53  2  0  0  0
 40 58  1  0  0  0
 41104  1  0  0  0
 41105  1  0  0  0
 41106  1  0  0  0
 41 48  1  0  0  0
 42 43  1  0  0  0
 42 66  1  0  0  0
 42107  1  0  0  0
 42108  1  0  0  0
 43 44  1  0  0  0
 44109  1  0  0  0
 45 46  2  0  0  0
 45110  1  0  0  0
 46111  1  0  0  0
 47112  1  0  0  0
 47113  1  0  0  0
 48 56  1  0  0  0
 48 65  1  0  0  0
 48114  1  0  0  0
 49 50  1  0  0  0
 49 53  1  0  0  0
 49 64  1  0  0  0
 49115  1  0  0  0
 50 51  1  0  0  0
 50116  1  0  0  0
 50117  1  0  0  0
 51 52  1  0  0  0
 51118  1  0  0  0
 51119  1  0  0  0
 52120  1  0  0  0
 52121  1  0  0  0
 53 54  1  0  0  0
 54 55  2  0  0  0
 54122  1  0  0  0
 55 57  1  0  0  0
 55123  1  0  0  0
 56 69  2  0  0  0
 57 58  2  0  0  0
 57124  1  0  0  0
 58125  1  0  0  0
 59 60  1  0  0  0
 59 61  1  0  0  0
 59 62  1  0  0  0
 60126  1  0  0  0
 60127  1  0  0  0
 60128  1  0  0  0
 61129  1  0  0  0
 61130  1  0  0  0
 61131  1  0  0  0
 62132  1  0  0  0
 62133  1  0  0  0
 62134  1  0  0  0
 63 65  1  0  0  0
 63135  1  0  0  0
 63136  1  0  0  0
 63137  1  0  0  0
 64138  1  0  0  0
 65139  1  0  0  0
 68 77  1  0  0  0
 71 73  2  0  0  0
 71 80  1  0  0  0
 71140  1  0  0  0
 72 74  1  0  0  0
 72 79  2  0  0  0
 72141  1  0  0  0
 73 76  1  0  0  0
 73 79  1  0  0  0
 74 78  1  0  0  0
 74 80  2  0  0  0
 75142  1  0  0  0
 75143  1  0  0  0
 75144  1  0  0  0
 75 78  1  0  0  0
 76 77  1  0  0  0
 76145  1  0  0  0
 76146  1  0  0  0
 77147  1  0  0  0
 77148  1  0  0  0
 78149  1  0  0  0
M  ISO  4   1 100  68 101  77 101  78 100
M  END
> <chiral flag>
0

> <version>
0

> <s_m_source_file>
/data/baiqing/PycharmProjects/Reinvent-master-3.2/result/LINK_invent/BTK/process_docking_weight1_custom_sum_contain_oxygen_bond_distance_aromatic_linkinvent_7_9_3/rearranged_h_0053.sdf

> <i_m_source_file_index>
31

> <r_mmod_Potential_Energy-OPLS-2005>
1072.91955566406

> <r_mmod_Stretch_Energy-OPLS-2005>
445.392883300781

> <r_mmod_Bend_Energy-OPLS-2005>
417.814666748047

> <r_mmod_Torsional_Energy-OPLS-2005>
176.526977539062

> <r_mmod_Improper_Torsional_Energy-OPLS-2005>
6.74390172958374

> <r_mmod_Van_der_Waal_Energy-OPLS-2005>
128.933441162109

> <r_mmod_Electrostatic_Energy-OPLS-2005>
-222.433212280273

> <r_mmod_Solvation_Energy-OPLS-2005>
-221.909027099609

> <b_mmod_Minimization_Converged-OPLS-2005>
0

> <r_mmod_RMS_Derivative-OPLS-2005>
0.290110737085342

$$$$
31
                    3D
 Structure written by MMmdl.
165173  0  0  1  0            999 V2000
  -30.6102  -14.8142   20.3792 C   0  0  0  0  0  0
  -30.4412  -12.4840   19.4750 C   0  0  0  0  0  0
  -29.5134  -12.4109   18.2414 C   0  0  0  0  0  0
  -28.0341  -12.2845   18.6607 C   0  0  0  0  0  0
  -27.6311  -13.2248   19.8287 C   0  0  2  0  0  0
  -28.6840  -13.2424   20.9546 C   0  0  0  0  0  0
  -25.2489  -13.8147   20.5766 C   0  0  0  0  0  0
  -24.1776  -13.0403   20.9243 C   0  0  0  0  0  0
  -24.6366  -11.6891   20.8767 C   0  0  0  0  0  0
  -23.9051  -10.4280   21.0416 C   0  0  0  0  0  0
  -24.3614   -9.4198   21.9186 C   0  0  0  0  0  0
  -23.6295   -8.2230   22.0747 C   0  0  0  0  0  0
  -22.4277   -8.0272   21.3536 C   0  0  0  0  0  0
  -21.9910   -9.0242   20.4636 C   0  0  0  0  0  0
  -22.7231  -10.2125   20.3054 C   0  0  0  0  0  0
  -21.6848   -6.0739   22.5281 C   0  0  0  0  0  0
  -21.4006   -6.5640   23.8214 C   0  0  0  0  0  0
  -21.3663   -5.6792   24.9172 C   0  0  0  0  0  0
  -21.6046   -4.3054   24.7217 C   0  0  0  0  0  0
  -21.8823   -3.8151   23.4335 C   0  0  0  0  0  0
  -21.9194   -4.6971   22.3396 C   0  0  0  0  0  0
  -22.7806  -13.5209   21.1895 C   0  0  0  0  0  0
  -22.1668   -4.2156   21.0972 F   0  0  0  0  0  0
  -21.5634   -3.4537   25.7731 F   0  0  0  0  0  0
  -29.9668  -13.5921   20.3355 N   0  0  0  0  0  0
  -26.2902  -12.9355   20.3269 N   0  0  0  0  0  0
  -25.9294  -11.6511   20.5775 N   0  0  0  0  0  0
  -22.0438  -12.8192   22.0436 N   0  0  0  0  0  0
  -25.4133  -15.1863   20.4302 N   0  0  0  0  0  0
  -31.8403  -14.8408   20.2727 O   0  0  0  0  0  0
  -21.6635   -6.8875   21.4240 O   0  0  0  0  0  0
  -22.3494  -14.5512   20.6736 O   0  0  0  0  0  0
  -24.6306  -31.8546   23.1970 C   0  0  0  0  0  0
  -25.9125  -32.4752   23.8322 C   0  0  1  0  0  0
  -27.2263  -27.2631   20.1481 C   0  0  0  0  0  0
  -25.5913  -33.8549   24.2244 N   0  0  0  0  0  0
  -23.4272  -30.4755   21.5400 C   0  0  2  0  0  0
  -24.8757  -28.9136   20.1170 C   0  0  0  0  0  0
  -22.7501  -29.4603   22.4919 C   0  0  0  0  0  0
  -18.0298  -28.1386   22.8505 C   0  0  0  0  0  0
  -24.1475  -36.7277   23.2644 C   0  0  0  0  0  0
  -25.9713  -30.7717   21.3722 C   0  0  0  0  0  0
  -26.0470  -29.3905   20.7218 C   0  0  0  0  0  0
  -27.2277  -28.5811   20.7175 C   0  0  0  0  0  0
  -26.0337  -26.8439   19.5237 C   0  0  0  0  0  0
  -24.8750  -27.6489   19.5041 C   0  0  0  0  0  0
  -23.6458  -29.8020   20.1585 C   0  0  0  0  0  0
  -25.4102  -36.3065   24.0333 C   0  0  1  0  0  0
  -20.5904  -28.3692   23.1281 C   0  0  2  0  0  0
  -20.6777  -26.9406   22.5414 C   0  0  0  0  0  0
  -19.5743  -26.6383   21.5222 C   0  0  0  0  0  0
  -18.1930  -26.7931   22.1641 C   0  0  0  0  0  0
  -19.1554  -28.8861   23.2887 C   0  0  0  0  0  0
  -18.9465  -30.1465   23.8893 C   0  0  0  0  0  0
  -17.6462  -30.6586   24.0573 C   0  0  0  0  0  0
  -25.9048  -34.9439   23.5098 C   0  0  0  0  0  0
  -16.5355  -29.9075   23.6336 C   0  0  0  0  0  0
  -16.7285  -28.6498   23.0357 C   0  0  0  0  0  0
  -26.4492  -31.6577   25.0711 C   0  0  0  0  0  0
  -25.3725  -31.3721   26.1446 C   0  0  0  0  0  0
  -27.0336  -30.2995   24.6183 C   0  0  0  0  0  0
  -27.6044  -32.4321   25.7488 C   0  0  0  0  0  0
  -27.5568  -37.1798   24.8469 C   0  0  0  0  0  0
  -21.4209  -29.3040   22.3674 N   0  0  0  0  0  0
  -26.4277  -37.3765   23.9420 N   0  0  0  0  0  0
  -24.6953  -31.0527   22.0930 N   0  0  0  0  0  0
  -23.4208  -28.8170   23.3031 O   0  0  0  0  0  0
  -28.3337  -26.3884   20.1400 O   0  0  0  0  0  0
  -26.5627  -34.8920   22.4666 O   0  0  0  0  0  0
  -23.5459  -32.1351   23.7282 O   0  0  0  0  0  0
  -28.0773  -18.8469   21.0455 C   0  0  0  0  0  0
  -29.4590  -18.6962   20.7416 C   0  0  0  0  0  0
  -27.7923  -20.1979   21.0796 C   0  0  0  0  0  0
  -28.1019  -16.8102   18.5408 C   0  0  0  0  0  0
  -25.6623  -21.3877   20.3202 C   0  0  0  0  0  0
  -26.5063  -21.7302   22.6914 C   0  0  0  0  0  0
  -30.3458  -17.3619   20.7453 C   0  0  0  0  0  0
  -28.6764  -23.6362   20.0485 C   0  0  0  0  0  0
  -29.2780  -22.4098   20.9395 C   0  0  0  0  0  0
  -29.5009  -16.2179   18.7692 C   0  0  0  0  0  0
  -28.2212  -25.0256   20.7656 C   0  0  0  0  0  0
  -26.4584  -20.7813   21.4824 C   0  0  0  0  0  0
  -29.9591  -19.9587   20.5752 N   0  0  0  0  0  0
  -28.9540  -20.9160   20.7655 N   0  0  0  0  0  0
  -29.8774  -16.0036   20.1887 N   0  0  0  0  0  0
  -31.4730  -12.6298   19.1503 H   0  0  0  0  0  0
  -30.4293  -11.5444   20.0298 H   0  0  0  0  0  0
  -29.7901  -11.5489   17.6322 H   0  0  0  0  0  0
  -29.6549  -13.2713   17.5922 H   0  0  0  0  0  0
  -27.8811  -11.2476   18.9623 H   0  0  0  0  0  0
  -27.3820  -12.4465   17.8014 H   0  0  0  0  0  0
  -27.5957  -14.2214   19.3973 H   0  0  0  0  0  0
  -28.7442  -12.2764   21.4580 H   0  0  0  0  0  0
  -28.4158  -13.9794   21.7134 H   0  0  0  0  0  0
  -25.2750   -9.5691   22.4761 H   0  0  0  0  0  0
  -24.0014   -7.4624   22.7462 H   0  0  0  0  0  0
  -21.0844   -8.8753   19.8932 H   0  0  0  0  0  0
  -22.3683  -10.9668   19.6170 H   0  0  0  0  0  0
  -21.1985   -7.6147   23.9717 H   0  0  0  0  0  0
  -21.1488   -6.0517   25.9076 H   0  0  0  0  0  0
  -22.0596   -2.7614   23.2827 H   0  0  0  0  0  0
  -22.4069  -11.9869   22.4842 H   0  0  0  0  0  0
  -21.1045  -13.1203   22.2618 H   0  0  0  0  0  0
  -24.6483  -15.8393   20.5546 H   0  0  0  0  0  0
  -26.2744  -15.6285   20.1400 H   0  0  0  0  0  0
  -26.7199  -32.5423   23.1077 H   0  0  0  0  0  0
  -25.0050  -33.9666   25.0386 H   0  0  0  0  0  0
  -22.7238  -31.2974   21.3924 H   0  0  0  0  0  0
  -23.3737  -35.9609   23.3301 H   0  0  0  0  0  0
  -24.3565  -36.8894   22.2058 H   0  0  0  0  0  0
  -23.7232  -37.6480   23.6668 H   0  0  0  0  0  0
  -26.1039  -31.5279   20.5973 H   0  0  0  0  0  0
  -26.8518  -30.8278   22.0008 H   0  0  0  0  0  0
  -28.1293  -28.9506   21.1867 H   0  0  0  0  0  0
  -25.9956  -25.8705   19.0546 H   0  0  0  0  0  0
  -23.9803  -27.2777   19.0233 H   0  0  0  0  0  0
  -23.7711  -30.5753   19.3999 H   0  0  0  0  0  0
  -22.7638  -29.2338   19.8564 H   0  0  0  0  0  0
  -25.1288  -36.1900   25.0827 H   0  0  0  0  0  0
  -21.0010  -28.3255   24.1395 H   0  0  0  0  0  0
  -20.5667  -26.2299   23.3618 H   0  0  0  0  0  0
  -21.6642  -26.7411   22.1215 H   0  0  0  0  0  0
  -19.6878  -25.6292   21.1239 H   0  0  0  0  0  0
  -19.6667  -27.3207   20.6760 H   0  0  0  0  0  0
  -17.4200  -26.6711   21.4034 H   0  0  0  0  0  0
  -18.0315  -26.0064   22.9025 H   0  0  0  0  0  0
  -19.7936  -30.7303   24.2246 H   0  0  0  0  0  0
  -17.5002  -31.6262   24.5169 H   0  0  0  0  0  0
  -15.5354  -30.2969   23.7646 H   0  0  0  0  0  0
  -15.8697  -28.0808   22.7059 H   0  0  0  0  0  0
  -24.5916  -30.7040   25.7797 H   0  0  0  0  0  0
  -24.8903  -32.2886   26.4858 H   0  0  0  0  0  0
  -25.8068  -30.8932   27.0230 H   0  0  0  0  0  0
  -26.2909  -29.6751   24.1208 H   0  0  0  0  0  0
  -27.4013  -29.7253   25.4697 H   0  0  0  0  0  0
  -27.8789  -30.4266   23.9417 H   0  0  0  0  0  0
  -27.2644  -33.3632   26.2035 H   0  0  0  0  0  0
  -28.3880  -32.6856   25.0335 H   0  0  0  0  0  0
  -28.0684  -31.8463   26.5433 H   0  0  0  0  0  0
  -28.2600  -38.0080   24.7517 H   0  0  0  0  0  0
  -28.1046  -36.2622   24.6294 H   0  0  0  0  0  0
  -27.2296  -37.1458   25.8872 H   0  0  0  0  0  0
  -20.9387  -29.8748   21.6875 H   0  0  0  0  0  0
  -26.0144  -38.2831   24.1428 H   0  0  0  0  0  0
  -27.3808  -18.0537   21.2767 H   0  0  0  0  0  0
  -28.1291  -17.8987   18.5094 H   0  0  0  0  0  0
  -27.4011  -16.5182   19.3156 H   0  0  0  0  0  0
  -27.6939  -16.4869   17.5828 H   0  0  0  0  0  0
  -25.5963  -20.6953   19.4798 H   0  0  0  0  0  0
  -26.0980  -22.3138   19.9614 H   0  0  0  0  0  0
  -24.6452  -21.6215   20.6353 H   0  0  0  0  0  0
  -27.0612  -21.2860   23.5176 H   0  0  0  0  0  0
  -25.4996  -21.9440   23.0514 H   0  0  0  0  0  0
  -26.9632  -22.6882   22.4540 H   0  0  0  0  0  0
  -30.6282  -17.1699   21.7816 H   0  0  0  0  0  0
  -31.2950  -17.5864   20.2555 H   0  0  0  0  0  0
  -27.8776  -23.2842   19.4026 H   0  0  0  0  0  0
  -29.4648  -23.8997   19.3436 H   0  0  0  0  0  0
  -29.0962  -22.6362   21.9884 H   0  0  0  0  0  0
  -30.3632  -22.4925   20.8638 H   0  0  0  0  0  0
  -30.2463  -16.8418   18.2729 H   0  0  0  0  0  0
  -29.5326  -15.2857   18.2107 H   0  0  0  0  0  0
  -28.8257  -25.1121   21.6687 H   0  0  0  0  0  0
  -27.2060  -24.8877   21.1399 H   0  0  0  0  0  0
  -25.8558  -19.9358   21.8197 H   0  0  0  0  0  0
  1 25  1  0  0  0
  1 30  2  0  0  0
  1 85  1  0  0  0
  2  3  1  0  0  0
  2 25  1  0  0  0
  2 86  1  0  0  0
  2 87  1  0  0  0
  3  4  1  0  0  0
  3 88  1  0  0  0
  3 89  1  0  0  0
  4  5  1  0  0  0
  4 90  1  0  0  0
  4 91  1  0  0  0
  5  6  1  0  0  0
  5 26  1  0  0  0
  5 92  1  0  0  0
  6 25  1  0  0  0
  6 93  1  0  0  0
  6 94  1  0  0  0
  7  8  2  0  0  0
  7 26  1  0  0  0
  7 29  1  0  0  0
  8  9  1  0  0  0
  8 22  1  0  0  0
  9 10  1  0  0  0
  9 27  2  0  0  0
 10 11  2  0  0  0
 10 15  1  0  0  0
 11 12  1  0  0  0
 11 95  1  0  0  0
 12 13  2  0  0  0
 12 96  1  0  0  0
 13 14  1  0  0  0
 13 31  1  0  0  0
 14 15  2  0  0  0
 14 97  1  0  0  0
 15 98  1  0  0  0
 16 17  2  0  0  0
 16 21  1  0  0  0
 16 31  1  0  0  0
 17 18  1  0  0  0
 17 99  1  0  0  0
 18 19  2  0  0  0
 18100  1  0  0  0
 19 20  1  0  0  0
 19 24  1  0  0  0
 20 21  2  0  0  0
 20101  1  0  0  0
 21 23  1  0  0  0
 22 28  1  0  0  0
 22 32  2  0  0  0
 26 27  1  0  0  0
 28102  1  0  0  0
 28103  1  0  0  0
 29104  1  0  0  0
 29105  1  0  0  0
 33 34  1  0  0  0
 33 66  1  0  0  0
 33 70  2  0  0  0
 34 36  1  0  0  0
 34 59  1  0  0  0
 34106  1  0  0  0
 35 44  2  0  0  0
 35 45  1  0  0  0
 35 68  1  0  0  0
 36 56  1  0  0  0
 36107  1  0  0  0
 37 39  1  0  0  0
 37 47  1  0  0  0
 37 66  1  0  0  0
 37108  1  0  0  0
 38 43  2  0  0  0
 38 46  1  0  0  0
 38 47  1  0  0  0
 39 64  1  0  0  0
 39 67  2  0  0  0
 40 52  1  0  0  0
 40 53  2  0  0  0
 40 58  1  0  0  0
 41109  1  0  0  0
 41110  1  0  0  0
 41111  1  0  0  0
 41 48  1  0  0  0
 42 43  1  0  0  0
 42 66  1  0  0  0
 42112  1  0  0  0
 42113  1  0  0  0
 43 44  1  0  0  0
 44114  1  0  0  0
 45 46  2  0  0  0
 45115  1  0  0  0
 46116  1  0  0  0
 47117  1  0  0  0
 47118  1  0  0  0
 48 56  1  0  0  0
 48 65  1  0  0  0
 48119  1  0  0  0
 49 50  1  0  0  0
 49 53  1  0  0  0
 49 64  1  0  0  0
 49120  1  0  0  0
 50 51  1  0  0  0
 50121  1  0  0  0
 50122  1  0  0  0
 51 52  1  0  0  0
 51123  1  0  0  0
 51124  1  0  0  0
 52125  1  0  0  0
 52126  1  0  0  0
 53 54  1  0  0  0
 54 55  2  0  0  0
 54127  1  0  0  0
 55 57  1  0  0  0
 55128  1  0  0  0
 56 69  2  0  0  0
 57 58  2  0  0  0
 57129  1  0  0  0
 58130  1  0  0  0
 59 60  1  0  0  0
 59 61  1  0  0  0
 59 62  1  0  0  0
 60131  1  0  0  0
 60132  1  0  0  0
 60133  1  0  0  0
 61134  1  0  0  0
 61135  1  0  0  0
 61136  1  0  0  0
 62137  1  0  0  0
 62138  1  0  0  0
 62139  1  0  0  0
 63 65  1  0  0  0
 63140  1  0  0  0
 63141  1  0  0  0
 63142  1  0  0  0
 64143  1  0  0  0
 65144  1  0  0  0
 68 81  1  0  0  0
 71 72  1  0  0  0
 71 73  2  0  0  0
 71145  1  0  0  0
 72 77  1  0  0  0
 72 83  2  0  0  0
 73 82  1  0  0  0
 73 84  1  0  0  0
 74 80  1  0  0  0
 74146  1  0  0  0
 74147  1  0  0  0
 74148  1  0  0  0
 75149  1  0  0  0
 75150  1  0  0  0
 75151  1  0  0  0
 75 82  1  0  0  0
 76 82  1  0  0  0
 76152  1  0  0  0
 76153  1  0  0  0
 76154  1  0  0  0
 77 85  1  0  0  0
 77155  1  0  0  0
 77156  1  0  0  0
 78 79  1  0  0  0
 78 81  1  0  0  0
 78157  1  0  0  0
 78158  1  0  0  0
 79 84  1  0  0  0
 79159  1  0  0  0
 79160  1  0  0  0
 80 85  1  0  0  0
 80161  1  0  0  0
 80162  1  0  0  0
 81163  1  0  0  0
 81164  1  0  0  0
 82165  1  0  0  0
 83 84  1  0  0  0
M  ISO  4   1 100  68 101  81 101  85 100
M  END
> <chiral flag>
0

> <version>
0

> <s_m_source_file>
/data/baiqing/PycharmProjects/Reinvent-master-3.2/result/LINK_invent/BTK/process_docking_weight1_custom_sum_contain_oxygen_bond_distance_aromatic_linkinvent_7_9_3/rearranged_h_0053.sdf

> <i_m_source_file_index>
32

> <r_mmod_Potential_Energy-OPLS-2005>
368.565673828125

> <r_mmod_Stretch_Energy-OPLS-2005>
138.276809692383

> <r_mmod_Bend_Energy-OPLS-2005>
211.535995483398

> <r_mmod_Torsional_Energy-OPLS-2005>
350.530334472656

> <r_mmod_Improper_Torsional_Energy-OPLS-2005>
16.1027793884277

> <r_mmod_Van_der_Waal_Energy-OPLS-2005>
109.221145629883

> <r_mmod_Electrostatic_Energy-OPLS-2005>
-365.060089111328

> <r_mmod_Solvation_Energy-OPLS-2005>
-202.947387695312

> <b_mmod_Minimization_Converged-OPLS-2005>
0

> <r_mmod_RMS_Derivative-OPLS-2005>
1.49658358097076

$$$$
32
                    3D
 Structure written by MMmdl.
165173  0  0  1  0            999 V2000
  -30.7519  -14.5823   20.4903 C   0  0  0  0  0  0
  -30.4085  -12.3562   19.4605 C   0  0  0  0  0  0
  -29.4974  -12.4862   18.2252 C   0  0  0  0  0  0
  -28.0164  -12.3507   18.6290 C   0  0  0  0  0  0
  -27.6373  -13.2231   19.8566 C   0  0  2  0  0  0
  -28.6982  -13.1487   20.9843 C   0  0  0  0  0  0
  -25.2306  -13.8016   20.5623 C   0  0  0  0  0  0
  -24.1689  -13.0267   20.9250 C   0  0  0  0  0  0
  -24.6383  -11.6798   20.8827 C   0  0  0  0  0  0
  -23.9095  -10.4196   21.0463 C   0  0  0  0  0  0
  -24.3634   -9.4106   21.9234 C   0  0  0  0  0  0
  -23.6280   -8.2164   22.0773 C   0  0  0  0  0  0
  -22.4249   -8.0269   21.3565 C   0  0  0  0  0  0
  -21.9908   -9.0255   20.4662 C   0  0  0  0  0  0
  -22.7274  -10.2104   20.3084 C   0  0  0  0  0  0
  -21.6848   -6.0736   22.5298 C   0  0  0  0  0  0
  -21.4009   -6.5644   23.8236 C   0  0  0  0  0  0
  -21.3630   -5.6790   24.9192 C   0  0  0  0  0  0
  -21.6043   -4.3057   24.7234 C   0  0  0  0  0  0
  -21.8808   -3.8153   23.4358 C   0  0  0  0  0  0
  -21.9182   -4.6966   22.3412 C   0  0  0  0  0  0
  -22.7700  -13.5083   21.1852 C   0  0  0  0  0  0
  -22.1647   -4.2154   21.0979 F   0  0  0  0  0  0
  -21.5605   -3.4534   25.7739 F   0  0  0  0  0  0
  -30.0179  -13.4255   20.3981 N   0  0  0  0  0  0
  -26.2896  -12.9332   20.3385 N   0  0  0  0  0  0
  -25.9337  -11.6489   20.5915 N   0  0  0  0  0  0
  -22.0351  -12.8139   22.0446 N   0  0  0  0  0  0
  -25.3469  -15.1686   20.3723 N   0  0  0  0  0  0
  -31.9404  -14.6096   20.1716 O   0  0  0  0  0  0
  -21.6613   -6.8875   21.4263 O   0  0  0  0  0  0
  -22.3397  -14.5400   20.6686 O   0  0  0  0  0  0
  -24.6170  -31.8660   23.2085 C   0  0  0  0  0  0
  -25.9058  -32.4824   23.8386 C   0  0  1  0  0  0
  -27.2443  -27.4069   20.1143 C   0  0  0  0  0  0
  -25.5911  -33.8610   24.2328 N   0  0  0  0  0  0
  -23.4079  -30.4866   21.5507 C   0  0  2  0  0  0
  -24.8561  -28.9499   20.1181 C   0  0  0  0  0  0
  -22.7434  -29.4641   22.5003 C   0  0  0  0  0  0
  -18.0267  -28.1401   22.8494 C   0  0  0  0  0  0
  -24.1476  -36.7305   23.2632 C   0  0  0  0  0  0
  -25.9378  -30.8274   21.3620 C   0  0  0  0  0  0
  -26.0190  -29.4569   20.7132 C   0  0  0  0  0  0
  -27.2165  -28.6973   20.7024 C   0  0  0  0  0  0
  -26.0631  -26.9235   19.5070 C   0  0  0  0  0  0
  -24.8763  -27.6839   19.5061 C   0  0  0  0  0  0
  -23.6186  -29.8218   20.1655 C   0  0  0  0  0  0
  -25.4106  -36.3104   24.0337 C   0  0  1  0  0  0
  -20.5859  -28.3670   23.1328 C   0  0  2  0  0  0
  -20.6747  -26.9402   22.5435 C   0  0  0  0  0  0
  -19.5723  -26.6402   21.5230 C   0  0  0  0  0  0
  -18.1902  -26.7945   22.1641 C   0  0  0  0  0  0
  -19.1519  -28.8859   23.2900 C   0  0  0  0  0  0
  -18.9442  -30.1467   23.8896 C   0  0  0  0  0  0
  -17.6445  -30.6597   24.0579 C   0  0  0  0  0  0
  -25.9046  -34.9469   23.5137 C   0  0  0  0  0  0
  -16.5333  -29.9105   23.6324 C   0  0  0  0  0  0
  -16.7256  -28.6533   23.0321 C   0  0  0  0  0  0
  -26.4459  -31.6600   25.0732 C   0  0  0  0  0  0
  -25.3708  -31.3732   26.1483 C   0  0  0  0  0  0
  -27.0296  -30.3032   24.6126 C   0  0  0  0  0  0
  -27.6059  -32.4284   25.7499 C   0  0  0  0  0  0
  -27.5561  -37.1807   24.8465 C   0  0  0  0  0  0
  -21.4156  -29.3028   22.3742 N   0  0  0  0  0  0
  -26.4283  -37.3794   23.9408 N   0  0  0  0  0  0
  -24.6726  -31.0747   22.0990 N   0  0  0  0  0  0
  -23.4210  -28.8163   23.3026 O   0  0  0  0  0  0
  -28.4050  -26.6484   20.0914 O   0  0  0  0  0  0
  -26.5591  -34.8934   22.4688 O   0  0  0  0  0  0
  -23.5361  -32.1425   23.7490 O   0  0  0  0  0  0
  -30.3118  -19.2186   20.4790 C   0  0  0  0  0  0
  -30.5580  -20.5369   20.9734 C   0  0  0  0  0  0
  -30.6953  -18.3223   21.4615 C   0  0  0  0  0  0
  -27.1518  -17.3497   18.8410 C   0  0  0  0  0  0
  -31.6485  -18.7687   23.7999 C   0  0  0  0  0  0
  -30.4155  -21.8825   20.2447 C   0  0  0  0  0  0
  -30.7692  -16.7811   21.6463 C   0  0  0  0  0  0
  -28.0271  -16.9575   20.0375 C   0  0  0  0  0  0
  -29.4793  -22.9508   20.8929 C   0  0  0  0  0  0
  -29.3827  -24.3128   20.1194 C   0  0  0  0  0  0
  -29.3595  -16.3223   19.6017 C   0  0  0  0  0  0
  -28.3304  -25.3234   20.6728 C   0  0  0  0  0  0
  -31.0720  -20.4724   22.1912 N   0  0  0  0  0  0
  -31.1420  -19.1491   22.4901 N   0  0  0  0  0  0
  -30.1105  -15.7724   20.7375 N   0  0  0  0  0  0
  -31.4581  -12.4142   19.1662 H   0  0  0  0  0  0
  -30.2855  -11.3806   19.9330 H   0  0  0  0  0  0
  -29.7524  -11.7237   17.4896 H   0  0  0  0  0  0
  -29.6643  -13.4465   17.7349 H   0  0  0  0  0  0
  -27.8294  -11.3005   18.8515 H   0  0  0  0  0  0
  -27.3737  -12.5981   17.7849 H   0  0  0  0  0  0
  -27.6052  -14.2402   19.4867 H   0  0  0  0  0  0
  -28.6987  -12.1642   21.4497 H   0  0  0  0  0  0
  -28.4624  -13.8622   21.7753 H   0  0  0  0  0  0
  -25.2783   -9.5567   22.4812 H   0  0  0  0  0  0
  -23.9983   -7.4535   22.7467 H   0  0  0  0  0  0
  -21.0843   -8.8810   19.8970 H   0  0  0  0  0  0
  -22.3784  -10.9666   19.6182 H   0  0  0  0  0  0
  -21.2034   -7.6152   23.9746 H   0  0  0  0  0  0
  -21.1442   -6.0519   25.9094 H   0  0  0  0  0  0
  -22.0613   -2.7620   23.2858 H   0  0  0  0  0  0
  -22.3979  -11.9839   22.4909 H   0  0  0  0  0  0
  -21.0991  -13.1207   22.2663 H   0  0  0  0  0  0
  -24.5244  -15.7596   20.4014 H   0  0  0  0  0  0
  -26.1599  -15.6380   19.9955 H   0  0  0  0  0  0
  -26.7152  -32.5525   23.1170 H   0  0  0  0  0  0
  -25.0071  -33.9781   25.0480 H   0  0  0  0  0  0
  -22.6968  -31.3024   21.4138 H   0  0  0  0  0  0
  -23.3741  -35.9630   23.3322 H   0  0  0  0  0  0
  -24.3579  -36.8891   22.2039 H   0  0  0  0  0  0
  -23.7242  -37.6523   23.6638 H   0  0  0  0  0  0
  -26.0464  -31.5928   20.5926 H   0  0  0  0  0  0
  -26.8265  -30.8886   21.9786 H   0  0  0  0  0  0
  -28.1149  -29.0957   21.1547 H   0  0  0  0  0  0
  -26.0610  -25.9581   19.0234 H   0  0  0  0  0  0
  -23.9866  -27.2914   19.0340 H   0  0  0  0  0  0
  -23.7308  -30.6004   19.4108 H   0  0  0  0  0  0
  -22.7418  -29.2455   19.8640 H   0  0  0  0  0  0
  -25.1276  -36.1959   25.0826 H   0  0  0  0  0  0
  -20.9922  -28.3227   24.1457 H   0  0  0  0  0  0
  -20.5644  -26.2265   23.3623 H   0  0  0  0  0  0
  -21.6611  -26.7442   22.1211 H   0  0  0  0  0  0
  -19.6872  -25.6321   21.1233 H   0  0  0  0  0  0
  -19.6658  -27.3232   20.6772 H   0  0  0  0  0  0
  -17.4157  -26.6680   21.4050 H   0  0  0  0  0  0
  -18.0295  -26.0111   22.9051 H   0  0  0  0  0  0
  -19.7930  -30.7290   24.2247 H   0  0  0  0  0  0
  -17.5009  -31.6271   24.5205 H   0  0  0  0  0  0
  -15.5336  -30.3009   23.7685 H   0  0  0  0  0  0
  -15.8654  -28.0900   22.6989 H   0  0  0  0  0  0
  -24.5907  -30.7040   25.7826 H   0  0  0  0  0  0
  -24.8869  -32.2896   26.4851 H   0  0  0  0  0  0
  -25.8047  -30.8968   27.0283 H   0  0  0  0  0  0
  -26.2864  -29.6820   24.1115 H   0  0  0  0  0  0
  -27.3987  -29.7234   25.4591 H   0  0  0  0  0  0
  -27.8720  -30.4345   23.9340 H   0  0  0  0  0  0
  -27.2717  -33.3592   26.2084 H   0  0  0  0  0  0
  -28.3877  -32.6812   25.0324 H   0  0  0  0  0  0
  -28.0717  -31.8390   26.5404 H   0  0  0  0  0  0
  -28.2597  -38.0074   24.7490 H   0  0  0  0  0  0
  -28.1037  -36.2621   24.6321 H   0  0  0  0  0  0
  -27.2288  -37.1479   25.8866 H   0  0  0  0  0  0
  -20.9323  -29.8800   21.7011 H   0  0  0  0  0  0
  -26.0171  -38.2863   24.1428 H   0  0  0  0  0  0
  -29.9052  -19.0015   19.5047 H   0  0  0  0  0  0
  -26.2496  -17.8677   19.1695 H   0  0  0  0  0  0
  -26.8474  -16.4810   18.2519 H   0  0  0  0  0  0
  -27.6903  -18.0207   18.1704 H   0  0  0  0  0  0
  -32.1423  -19.6099   24.2881 H   0  0  0  0  0  0
  -32.3698  -17.9520   23.7192 H   0  0  0  0  0  0
  -30.8196  -18.4422   24.4278 H   0  0  0  0  0  0
  -30.0429  -21.6922   19.2358 H   0  0  0  0  0  0
  -31.4047  -22.3134   20.1023 H   0  0  0  0  0  0
  -31.8279  -16.5368   21.7359 H   0  0  0  0  0  0
  -30.3645  -16.5518   22.6320 H   0  0  0  0  0  0
  -27.5187  -16.2763   20.7113 H   0  0  0  0  0  0
  -28.1759  -17.8456   20.6484 H   0  0  0  0  0  0
  -29.8361  -23.1586   21.9005 H   0  0  0  0  0  0
  -28.4837  -22.5229   21.0071 H   0  0  0  0  0  0
  -30.3670  -24.7862   20.1214 H   0  0  0  0  0  0
  -29.1539  -24.1115   19.0706 H   0  0  0  0  0  0
  -29.9902  -17.0032   19.0358 H   0  0  0  0  0  0
  -29.1513  -15.5500   18.8606 H   0  0  0  0  0  0
  -27.3406  -24.8779   20.5672 H   0  0  0  0  0  0
  -28.4788  -25.4409   21.7483 H   0  0  0  0  0  0
  1 25  1  0  0  0
  1 30  2  0  0  0
  1 85  1  0  0  0
  2  3  1  0  0  0
  2 25  1  0  0  0
  2 86  1  0  0  0
  2 87  1  0  0  0
  3  4  1  0  0  0
  3 88  1  0  0  0
  3 89  1  0  0  0
  4  5  1  0  0  0
  4 90  1  0  0  0
  4 91  1  0  0  0
  5  6  1  0  0  0
  5 26  1  0  0  0
  5 92  1  0  0  0
  6 25  1  0  0  0
  6 93  1  0  0  0
  6 94  1  0  0  0
  7  8  2  0  0  0
  7 26  1  0  0  0
  7 29  1  0  0  0
  8  9  1  0  0  0
  8 22  1  0  0  0
  9 10  1  0  0  0
  9 27  2  0  0  0
 10 11  2  0  0  0
 10 15  1  0  0  0
 11 12  1  0  0  0
 11 95  1  0  0  0
 12 13  2  0  0  0
 12 96  1  0  0  0
 13 14  1  0  0  0
 13 31  1  0  0  0
 14 15  2  0  0  0
 14 97  1  0  0  0
 15 98  1  0  0  0
 16 17  2  0  0  0
 16 21  1  0  0  0
 16 31  1  0  0  0
 17 18  1  0  0  0
 17 99  1  0  0  0
 18 19  2  0  0  0
 18100  1  0  0  0
 19 20  1  0  0  0
 19 24  1  0  0  0
 20 21  2  0  0  0
 20101  1  0  0  0
 21 23  1  0  0  0
 22 28  1  0  0  0
 22 32  2  0  0  0
 26 27  1  0  0  0
 28102  1  0  0  0
 28103  1  0  0  0
 29104  1  0  0  0
 29105  1  0  0  0
 33 34  1  0  0  0
 33 66  1  0  0  0
 33 70  2  0  0  0
 34 36  1  0  0  0
 34 59  1  0  0  0
 34106  1  0  0  0
 35 44  2  0  0  0
 35 45  1  0  0  0
 35 68  1  0  0  0
 36 56  1  0  0  0
 36107  1  0  0  0
 37 39  1  0  0  0
 37 47  1  0  0  0
 37 66  1  0  0  0
 37108  1  0  0  0
 38 43  2  0  0  0
 38 46  1  0  0  0
 38 47  1  0  0  0
 39 64  1  0  0  0
 39 67  2  0  0  0
 40 52  1  0  0  0
 40 53  2  0  0  0
 40 58  1  0  0  0
 41109  1  0  0  0
 41110  1  0  0  0
 41111  1  0  0  0
 41 48  1  0  0  0
 42 43  1  0  0  0
 42 66  1  0  0  0
 42112  1  0  0  0
 42113  1  0  0  0
 43 44  1  0  0  0
 44114  1  0  0  0
 45 46  2  0  0  0
 45115  1  0  0  0
 46116  1  0  0  0
 47117  1  0  0  0
 47118  1  0  0  0
 48 56  1  0  0  0
 48 65  1  0  0  0
 48119  1  0  0  0
 49 50  1  0  0  0
 49 53  1  0  0  0
 49 64  1  0  0  0
 49120  1  0  0  0
 50 51  1  0  0  0
 50121  1  0  0  0
 50122  1  0  0  0
 51 52  1  0  0  0
 51123  1  0  0  0
 51124  1  0  0  0
 52125  1  0  0  0
 52126  1  0  0  0
 53 54  1  0  0  0
 54 55  2  0  0  0
 54127  1  0  0  0
 55 57  1  0  0  0
 55128  1  0  0  0
 56 69  2  0  0  0
 57 58  2  0  0  0
 57129  1  0  0  0
 58130  1  0  0  0
 59 60  1  0  0  0
 59 61  1  0  0  0
 59 62  1  0  0  0
 60131  1  0  0  0
 60132  1  0  0  0
 60133  1  0  0  0
 61134  1  0  0  0
 61135  1  0  0  0
 61136  1  0  0  0
 62137  1  0  0  0
 62138  1  0  0  0
 62139  1  0  0  0
 63 65  1  0  0  0
 63140  1  0  0  0
 63141  1  0  0  0
 63142  1  0  0  0
 64143  1  0  0  0
 65144  1  0  0  0
 68 82  1  0  0  0
 71 72  1  0  0  0
 71 73  2  0  0  0
 71145  1  0  0  0
 72 76  1  0  0  0
 72 83  2  0  0  0
 73 77  1  0  0  0
 73 84  1  0  0  0
 74 78  1  0  0  0
 74146  1  0  0  0
 74147  1  0  0  0
 74148  1  0  0  0
 75 84  1  0  0  0
 75149  1  0  0  0
 75150  1  0  0  0
 75151  1  0  0  0
 76 79  1  0  0  0
 76152  1  0  0  0
 76153  1  0  0  0
 77 85  1  0  0  0
 77154  1  0  0  0
 77155  1  0  0  0
 78 81  1  0  0  0
 78156  1  0  0  0
 78157  1  0  0  0
 79 80  1  0  0  0
 79158  1  0  0  0
 79159  1  0  0  0
 80 82  1  0  0  0
 80160  1  0  0  0
 80161  1  0  0  0
 81 85  1  0  0  0
 81162  1  0  0  0
 81163  1  0  0  0
 82164  1  0  0  0
 82165  1  0  0  0
 83 84  1  0  0  0
M  ISO  4   1 100  68 101  82 101  85 100
M  END
> <chiral flag>
0

> <version>
0

> <s_m_source_file>
/data/baiqing/PycharmProjects/Reinvent-master-3.2/result/LINK_invent/BTK/process_docking_weight1_custom_sum_contain_oxygen_bond_distance_aromatic_linkinvent_7_9_3/rearranged_h_0053.sdf

> <i_m_source_file_index>
33

> <r_mmod_Potential_Energy-OPLS-2005>
110.889366149902

> <r_mmod_Stretch_Energy-OPLS-2005>
56.4932098388672

> <r_mmod_Bend_Energy-OPLS-2005>
136.545043945312

> <r_mmod_Torsional_Energy-OPLS-2005>
292.994842529297

> <r_mmod_Improper_Torsional_Energy-OPLS-2005>
8.10640144348145

> <r_mmod_Van_der_Waal_Energy-OPLS-2005>
134.918548583984

> <r_mmod_Electrostatic_Energy-OPLS-2005>
-351.822875976562

> <r_mmod_Solvation_Energy-OPLS-2005>
-200.618041992188

> <b_mmod_Minimization_Converged-OPLS-2005>
0

> <r_mmod_RMS_Derivative-OPLS-2005>
4.45076847076416

$$$$
33
                    3D
 Structure written by MMmdl.
153161  0  0  1  0            999 V2000
  -30.5142  -15.0418   20.4649 C   0  0  0  0  0  0
  -30.4495  -12.6653   19.5045 C   0  0  0  0  0  0
  -29.5267  -12.5666   18.2631 C   0  0  0  0  0  0
  -28.0597  -12.3322   18.6732 C   0  0  0  0  0  0
  -27.6315  -13.2477   19.8475 C   0  0  2  0  0  0
  -28.6771  -13.2339   20.9797 C   0  0  0  0  0  0
  -25.2446  -13.8192   20.5693 C   0  0  0  0  0  0
  -24.1766  -13.0420   20.9214 C   0  0  0  0  0  0
  -24.6388  -11.6907   20.8752 C   0  0  0  0  0  0
  -23.9069  -10.4278   21.0404 C   0  0  0  0  0  0
  -24.3618   -9.4193   21.9181 C   0  0  0  0  0  0
  -23.6290   -8.2233   22.0756 C   0  0  0  0  0  0
  -22.4271   -8.0274   21.3547 C   0  0  0  0  0  0
  -21.9909   -9.0242   20.4647 C   0  0  0  0  0  0
  -22.7239  -10.2120   20.3054 C   0  0  0  0  0  0
  -21.6848   -6.0734   22.5283 C   0  0  0  0  0  0
  -21.4011   -6.5639   23.8215 C   0  0  0  0  0  0
  -21.3659   -5.6794   24.9176 C   0  0  0  0  0  0
  -21.6043   -4.3057   24.7228 C   0  0  0  0  0  0
  -21.8817   -3.8146   23.4347 C   0  0  0  0  0  0
  -21.9188   -4.6963   22.3402 C   0  0  0  0  0  0
  -22.7788  -13.5196   21.1873 C   0  0  0  0  0  0
  -22.1659   -4.2151   21.0980 F   0  0  0  0  0  0
  -21.5625   -3.4540   25.7738 F   0  0  0  0  0  0
  -29.9326  -13.7536   20.4018 N   0  0  0  0  0  0
  -26.2885  -12.9428   20.3269 N   0  0  0  0  0  0
  -25.9326  -11.6555   20.5749 N   0  0  0  0  0  0
  -22.0443  -12.8188   22.0439 N   0  0  0  0  0  0
  -25.4080  -15.1916   20.4076 N   0  0  0  0  0  0
  -31.6886  -15.0958   20.0746 O   0  0  0  0  0  0
  -21.6634   -6.8874   21.4243 O   0  0  0  0  0  0
  -22.3467  -14.5495   20.6713 O   0  0  0  0  0  0
  -24.6497  -31.8389   23.1854 C   0  0  0  0  0  0
  -25.9244  -32.4670   23.8257 C   0  0  1  0  0  0
  -27.2134  -27.0696   20.1622 C   0  0  0  0  0  0
  -25.5968  -33.8479   24.2163 N   0  0  0  0  0  0
  -23.4569  -30.4580   21.5323 C   0  0  2  0  0  0
  -24.9073  -28.8755   20.1142 C   0  0  0  0  0  0
  -22.7594  -29.4526   22.4843 C   0  0  0  0  0  0
  -18.0310  -28.1401   22.8474 C   0  0  0  0  0  0
  -24.1492  -36.7241   23.2643 C   0  0  0  0  0  0
  -26.0185  -30.6904   21.3966 C   0  0  0  0  0  0
  -26.0883  -29.2950   20.7401 C   0  0  0  0  0  0
  -27.2418  -28.4103   20.7456 C   0  0  0  0  0  0
  -26.0091  -26.7806   19.4800 C   0  0  0  0  0  0
  -24.8845  -27.6335   19.4669 C   0  0  0  0  0  0
  -23.6880  -29.7864   20.1536 C   0  0  0  0  0  0
  -25.4130  -36.3016   24.0307 C   0  0  1  0  0  0
  -20.5925  -28.3736   23.1218 C   0  0  2  0  0  0
  -20.6792  -26.9433   22.5400 C   0  0  0  0  0  0
  -19.5765  -26.6383   21.5210 C   0  0  0  0  0  0
  -18.1950  -26.7938   22.1623 C   0  0  0  0  0  0
  -19.1568  -28.8886   23.2837 C   0  0  0  0  0  0
  -18.9482  -30.1479   23.8868 C   0  0  0  0  0  0
  -17.6477  -30.6596   24.0558 C   0  0  0  0  0  0
  -25.9085  -34.9394   23.5047 C   0  0  0  0  0  0
  -16.5368  -29.9086   23.6340 C   0  0  0  0  0  0
  -16.7292  -28.6504   23.0363 C   0  0  0  0  0  0
  -26.4544  -31.6564   25.0727 C   0  0  0  0  0  0
  -25.3707  -31.3767   26.1404 C   0  0  0  0  0  0
  -27.0420  -30.2950   24.6360 C   0  0  0  0  0  0
  -27.6059  -32.4341   25.7522 C   0  0  0  0  0  0
  -27.5573  -37.1780   24.8466 C   0  0  0  0  0  0
  -21.4281  -29.3054   22.3581 N   0  0  0  0  0  0
  -26.4287  -37.3736   23.9406 N   0  0  0  0  0  0
  -24.7285  -31.0183   22.0926 N   0  0  0  0  0  0
  -23.4203  -28.8075   23.3019 O   0  0  0  0  0  0
  -28.2382  -26.0301   20.2054 O   0  0  0  0  0  0
  -26.5671  -34.8898   22.4627 O   0  0  0  0  0  0
  -23.5599  -32.1297   23.7030 O   0  0  0  0  0  0
  -29.9280  -22.8007   19.4546 C   0  0  0  0  0  0
  -28.7542  -23.0913   20.2249 C   0  0  0  0  0  0
  -30.2115  -21.4331   19.5243 C   0  0  0  0  0  0
  -31.3322  -20.6941   18.8716 C   0  0  0  0  0  0
  -28.8404  -16.2608   21.8463 C   0  0  0  0  0  0
  -27.8555  -24.5027   20.4120 C   0  0  0  0  0  0
  -29.1496  -19.2072   20.7563 C   0  0  0  0  0  0
  -30.0147  -17.8019   20.2370 C   0  0  0  0  0  0
  -28.4049  -21.8188   20.7177 N   0  0  0  0  0  0
  -29.2755  -20.7531   20.3061 N   0  0  0  0  0  0
  -29.7760  -16.2742   20.7187 N   0  0  0  0  0  0
  -31.4732  -12.8532   19.1776 H   0  0  0  0  0  0
  -30.4931  -11.7114   20.0316 H   0  0  0  0  0  0
  -29.8637  -11.7673   17.6015 H   0  0  0  0  0  0
  -29.5971  -13.4907   17.6877 H   0  0  0  0  0  0
  -27.9617  -11.2870   18.9691 H   0  0  0  0  0  0
  -27.3967  -12.4703   17.8184 H   0  0  0  0  0  0
  -27.6017  -14.2593   19.4422 H   0  0  0  0  0  0
  -28.8079  -12.2207   21.3616 H   0  0  0  0  0  0
  -28.3284  -13.7941   21.8392 H   0  0  0  0  0  0
  -25.2759   -9.5667   22.4763 H   0  0  0  0  0  0
  -23.9990   -7.4623   22.7479 H   0  0  0  0  0  0
  -21.0838   -8.8754   19.8958 H   0  0  0  0  0  0
  -22.3687  -10.9656   19.6167 H   0  0  0  0  0  0
  -21.2009   -7.6150   23.9719 H   0  0  0  0  0  0
  -21.1486   -6.0527   25.9081 H   0  0  0  0  0  0
  -22.0598   -2.7611   23.2847 H   0  0  0  0  0  0
  -22.4070  -11.9852   22.4819 H   0  0  0  0  0  0
  -21.1067  -13.1219   22.2665 H   0  0  0  0  0  0
  -24.6381  -15.8428   20.5183 H   0  0  0  0  0  0
  -26.2557  -15.6325   20.0753 H   0  0  0  0  0  0
  -26.7309  -32.5256   23.0980 H   0  0  0  0  0  0
  -25.0089  -33.9584   25.0294 H   0  0  0  0  0  0
  -22.7634  -31.2866   21.3742 H   0  0  0  0  0  0
  -23.3762  -35.9565   23.3295 H   0  0  0  0  0  0
  -24.3575  -36.8888   22.2060 H   0  0  0  0  0  0
  -23.7238  -37.6429   23.6693 H   0  0  0  0  0  0
  -26.1820  -31.4404   20.6219 H   0  0  0  0  0  0
  -26.8857  -30.7430   22.0429 H   0  0  0  0  0  0
  -28.1388  -28.7266   21.2593 H   0  0  0  0  0  0
  -25.8984  -25.8516   18.9436 H   0  0  0  0  0  0
  -23.9898  -27.3126   18.9516 H   0  0  0  0  0  0
  -23.8305  -30.5597   19.3978 H   0  0  0  0  0  0
  -22.8010  -29.2330   19.8403 H   0  0  0  0  0  0
  -25.1321  -36.1839   25.0797 H   0  0  0  0  0  0
  -21.0018  -28.3332   24.1339 H   0  0  0  0  0  0
  -20.5685  -26.2352   23.3626 H   0  0  0  0  0  0
  -21.6659  -26.7430   22.1200 H   0  0  0  0  0  0
  -19.6929  -25.6285   21.1264 H   0  0  0  0  0  0
  -19.6705  -27.3172   20.6723 H   0  0  0  0  0  0
  -17.4216  -26.6676   21.4031 H   0  0  0  0  0  0
  -18.0353  -26.0088   22.9028 H   0  0  0  0  0  0
  -19.7957  -30.7305   24.2226 H   0  0  0  0  0  0
  -17.5030  -31.6276   24.5163 H   0  0  0  0  0  0
  -15.5368  -30.2980   23.7684 H   0  0  0  0  0  0
  -15.8692  -28.0813   22.7101 H   0  0  0  0  0  0
  -24.5905  -30.7095   25.7720 H   0  0  0  0  0  0
  -24.8875  -32.2947   26.4752 H   0  0  0  0  0  0
  -25.7971  -30.8993   27.0235 H   0  0  0  0  0  0
  -26.3054  -29.6662   24.1341 H   0  0  0  0  0  0
  -27.3977  -29.7267   25.4967 H   0  0  0  0  0  0
  -27.8989  -30.4173   23.9731 H   0  0  0  0  0  0
  -27.2642  -33.3664   26.2034 H   0  0  0  0  0  0
  -28.3909  -32.6866   25.0381 H   0  0  0  0  0  0
  -28.0685  -31.8512   26.5498 H   0  0  0  0  0  0
  -28.2582  -38.0085   24.7510 H   0  0  0  0  0  0
  -28.1076  -36.2611   24.6299 H   0  0  0  0  0  0
  -27.2286  -37.1430   25.8867 H   0  0  0  0  0  0
  -20.9505  -29.8756   21.6742 H   0  0  0  0  0  0
  -26.0148  -38.2800   24.1416 H   0  0  0  0  0  0
  -30.4966  -23.5227   18.8848 H   0  0  0  0  0  0
  -30.9501  -19.9181   18.2087 H   0  0  0  0  0  0
  -31.9726  -20.2210   19.6153 H   0  0  0  0  0  0
  -31.9530  -21.3633   18.2758 H   0  0  0  0  0  0
  -27.8455  -15.9653   21.5179 H   0  0  0  0  0  0
  -28.7407  -17.2197   22.3447 H   0  0  0  0  0  0
  -29.1780  -15.5863   22.6346 H   0  0  0  0  0  0
  -27.4805  -24.4824   21.4357 H   0  0  0  0  0  0
  -26.9637  -24.3201   19.8202 H   0  0  0  0  0  0
  -29.2903  -19.2535   21.8352 H   0  0  0  0  0  0
  -28.0942  -18.9665   20.6280 H   0  0  0  0  0  0
  -31.0720  -17.9978   20.4155 H   0  0  0  0  0  0
  -29.9210  -17.7680   19.1517 H   0  0  0  0  0  0
  1 25  1  0  0  0
  1 30  2  0  0  0
  1 81  1  0  0  0
  2  3  1  0  0  0
  2 25  1  0  0  0
  2 82  1  0  0  0
  2 83  1  0  0  0
  3  4  1  0  0  0
  3 84  1  0  0  0
  3 85  1  0  0  0
  4  5  1  0  0  0
  4 86  1  0  0  0
  4 87  1  0  0  0
  5  6  1  0  0  0
  5 26  1  0  0  0
  5 88  1  0  0  0
  6 25  1  0  0  0
  6 89  1  0  0  0
  6 90  1  0  0  0
  7  8  2  0  0  0
  7 26  1  0  0  0
  7 29  1  0  0  0
  8  9  1  0  0  0
  8 22  1  0  0  0
  9 10  1  0  0  0
  9 27  2  0  0  0
 10 11  2  0  0  0
 10 15  1  0  0  0
 11 12  1  0  0  0
 11 91  1  0  0  0
 12 13  2  0  0  0
 12 92  1  0  0  0
 13 14  1  0  0  0
 13 31  1  0  0  0
 14 15  2  0  0  0
 14 93  1  0  0  0
 15 94  1  0  0  0
 16 17  2  0  0  0
 16 21  1  0  0  0
 16 31  1  0  0  0
 17 18  1  0  0  0
 17 95  1  0  0  0
 18 19  2  0  0  0
 18 96  1  0  0  0
 19 20  1  0  0  0
 19 24  1  0  0  0
 20 21  2  0  0  0
 20 97  1  0  0  0
 21 23  1  0  0  0
 22 28  1  0  0  0
 22 32  2  0  0  0
 26 27  1  0  0  0
 28 98  1  0  0  0
 28 99  1  0  0  0
 29100  1  0  0  0
 29101  1  0  0  0
 33 34  1  0  0  0
 33 66  1  0  0  0
 33 70  2  0  0  0
 34 36  1  0  0  0
 34 59  1  0  0  0
 34102  1  0  0  0
 35 44  2  0  0  0
 35 45  1  0  0  0
 35 68  1  0  0  0
 36 56  1  0  0  0
 36103  1  0  0  0
 37 39  1  0  0  0
 37 47  1  0  0  0
 37 66  1  0  0  0
 37104  1  0  0  0
 38 43  2  0  0  0
 38 46  1  0  0  0
 38 47  1  0  0  0
 39 64  1  0  0  0
 39 67  2  0  0  0
 40 52  1  0  0  0
 40 53  2  0  0  0
 40 58  1  0  0  0
 41105  1  0  0  0
 41106  1  0  0  0
 41107  1  0  0  0
 41 48  1  0  0  0
 42 43  1  0  0  0
 42 66  1  0  0  0
 42108  1  0  0  0
 42109  1  0  0  0
 43 44  1  0  0  0
 44110  1  0  0  0
 45 46  2  0  0  0
 45111  1  0  0  0
 46112  1  0  0  0
 47113  1  0  0  0
 47114  1  0  0  0
 48 56  1  0  0  0
 48 65  1  0  0  0
 48115  1  0  0  0
 49 50  1  0  0  0
 49 53  1  0  0  0
 49 64  1  0  0  0
 49116  1  0  0  0
 50 51  1  0  0  0
 50117  1  0  0  0
 50118  1  0  0  0
 51 52  1  0  0  0
 51119  1  0  0  0
 51120  1  0  0  0
 52121  1  0  0  0
 52122  1  0  0  0
 53 54  1  0  0  0
 54 55  2  0  0  0
 54123  1  0  0  0
 55 57  1  0  0  0
 55124  1  0  0  0
 56 69  2  0  0  0
 57 58  2  0  0  0
 57125  1  0  0  0
 58126  1  0  0  0
 59 60  1  0  0  0
 59 61  1  0  0  0
 59 62  1  0  0  0
 60127  1  0  0  0
 60128  1  0  0  0
 60129  1  0  0  0
 61130  1  0  0  0
 61131  1  0  0  0
 61132  1  0  0  0
 62133  1  0  0  0
 62134  1  0  0  0
 62135  1  0  0  0
 63 65  1  0  0  0
 63136  1  0  0  0
 63137  1  0  0  0
 63138  1  0  0  0
 64139  1  0  0  0
 65140  1  0  0  0
 68 76  1  0  0  0
 71 72  1  0  0  0
 71 73  2  0  0  0
 71141  1  0  0  0
 72 76  1  0  0  0
 72 79  2  0  0  0
 73 74  1  0  0  0
 73 80  1  0  0  0
 74142  1  0  0  0
 74143  1  0  0  0
 74144  1  0  0  0
 75 81  1  0  0  0
 75145  1  0  0  0
 75146  1  0  0  0
 75147  1  0  0  0
 76148  1  0  0  0
 76149  1  0  0  0
 77 78  1  0  0  0
 77 80  1  0  0  0
 77150  1  0  0  0
 77151  1  0  0  0
 78 81  1  0  0  0
 78152  1  0  0  0
 78153  1  0  0  0
 79 80  1  0  0  0
M  ISO  4   1 100  68 101  76 101  81 100
M  END
> <chiral flag>
0

> <version>
0

> <s_m_source_file>
/data/baiqing/PycharmProjects/Reinvent-master-3.2/result/LINK_invent/BTK/process_docking_weight1_custom_sum_contain_oxygen_bond_distance_aromatic_linkinvent_7_9_3/rearranged_h_0053.sdf

> <i_m_source_file_index>
34

> <r_mmod_Potential_Energy-OPLS-2005>
827.409362792969

> <r_mmod_Stretch_Energy-OPLS-2005>
352.185729980469

> <r_mmod_Bend_Energy-OPLS-2005>
320.391784667969

> <r_mmod_Torsional_Energy-OPLS-2005>
289.161956787109

> <r_mmod_Improper_Torsional_Energy-OPLS-2005>
6.23141431808472

> <r_mmod_Van_der_Waal_Energy-OPLS-2005>
121.675903320312

> <r_mmod_Electrostatic_Energy-OPLS-2005>
-295.128784179688

> <r_mmod_Solvation_Energy-OPLS-2005>
-218.034072875977

> <b_mmod_Minimization_Converged-OPLS-2005>
0

> <r_mmod_RMS_Derivative-OPLS-2005>
0.874305009841919

$$$$
34
                    3D
 Structure written by MMmdl.
163171  0  0  1  0            999 V2000
  -30.7549  -14.4118   20.6889 C   0  0  0  0  0  0
  -30.4148  -12.3223   19.3992 C   0  0  0  0  0  0
  -29.4835  -12.5367   18.1909 C   0  0  0  0  0  0
  -28.0086  -12.3774   18.6051 C   0  0  0  0  0  0
  -27.6606  -13.2022   19.8714 C   0  0  2  0  0  0
  -28.6988  -12.9475   20.9856 C   0  0  0  0  0  0
  -25.2563  -13.8134   20.5629 C   0  0  0  0  0  0
  -24.1831  -13.0415   20.9181 C   0  0  0  0  0  0
  -24.6385  -11.6890   20.8728 C   0  0  0  0  0  0
  -23.9048  -10.4284   21.0396 C   0  0  0  0  0  0
  -24.3609   -9.4206   21.9177 C   0  0  0  0  0  0
  -23.6287   -8.2240   22.0750 C   0  0  0  0  0  0
  -22.4266   -8.0280   21.3540 C   0  0  0  0  0  0
  -21.9901   -9.0244   20.4642 C   0  0  0  0  0  0
  -22.7226  -10.2128   20.3046 C   0  0  0  0  0  0
  -21.6853   -6.0739   22.5281 C   0  0  0  0  0  0
  -21.4009   -6.5635   23.8218 C   0  0  0  0  0  0
  -21.3659   -5.6787   24.9177 C   0  0  0  0  0  0
  -21.6045   -4.3050   24.7229 C   0  0  0  0  0  0
  -21.8820   -3.8146   23.4347 C   0  0  0  0  0  0
  -21.9187   -4.6962   22.3405 C   0  0  0  0  0  0
  -22.7861  -13.5229   21.1850 C   0  0  0  0  0  0
  -22.1659   -4.2149   21.0982 F   0  0  0  0  0  0
  -21.5634   -3.4535   25.7741 F   0  0  0  0  0  0
  -30.0333  -13.2774   20.4551 N   0  0  0  0  0  0
  -26.3001  -12.9306   20.3310 N   0  0  0  0  0  0
  -25.9300  -11.6470   20.5721 N   0  0  0  0  0  0
  -22.0495  -12.8225   22.0411 N   0  0  0  0  0  0
  -25.4211  -15.1848   20.3952 N   0  0  0  0  0  0
  -31.7693  -14.6707   20.0310 O   0  0  0  0  0  0
  -21.6632   -6.8877   21.4243 O   0  0  0  0  0  0
  -22.3549  -14.5535   20.6703 O   0  0  0  0  0  0
  -24.6138  -31.8694   23.2066 C   0  0  0  0  0  0
  -25.9022  -32.4830   23.8382 C   0  0  1  0  0  0
  -27.2381  -27.4480   20.0815 C   0  0  0  0  0  0
  -25.5901  -33.8627   24.2333 N   0  0  0  0  0  0
  -23.4011  -30.4926   21.5476 C   0  0  2  0  0  0
  -24.8470  -28.9559   20.1166 C   0  0  0  0  0  0
  -22.7380  -29.4700   22.4976 C   0  0  0  0  0  0
  -18.0279  -28.1389   22.8479 C   0  0  0  0  0  0
  -24.1501  -36.7341   23.2643 C   0  0  0  0  0  0
  -25.9290  -30.8375   21.3586 C   0  0  0  0  0  0
  -26.0082  -29.4720   20.7068 C   0  0  0  0  0  0
  -27.2089  -28.7271   20.6805 C   0  0  0  0  0  0
  -26.0602  -26.9434   19.4889 C   0  0  0  0  0  0
  -24.8673  -27.6905   19.5061 C   0  0  0  0  0  0
  -23.6060  -29.8187   20.1655 C   0  0  0  0  0  0
  -25.4110  -36.3126   24.0347 C   0  0  1  0  0  0
  -20.5865  -28.3691   23.1305 C   0  0  2  0  0  0
  -20.6772  -26.9427   22.5413 C   0  0  0  0  0  0
  -19.5758  -26.6385   21.5210 C   0  0  0  0  0  0
  -18.1932  -26.7934   22.1615 C   0  0  0  0  0  0
  -19.1523  -28.8843   23.2903 C   0  0  0  0  0  0
  -18.9451  -30.1437   23.8939 C   0  0  0  0  0  0
  -17.6457  -30.6595   24.0568 C   0  0  0  0  0  0
  -25.9024  -34.9480   23.5133 C   0  0  0  0  0  0
  -16.5347  -29.9097   23.6338 C   0  0  0  0  0  0
  -16.7270  -28.6515   23.0357 C   0  0  0  0  0  0
  -26.4434  -31.6604   25.0698 C   0  0  0  0  0  0
  -25.3683  -31.3687   26.1435 C   0  0  0  0  0  0
  -27.0274  -30.3061   24.6045 C   0  0  0  0  0  0
  -27.6036  -32.4299   25.7439 C   0  0  0  0  0  0
  -27.5592  -37.1814   24.8458 C   0  0  0  0  0  0
  -21.4106  -29.3074   22.3708 N   0  0  0  0  0  0
  -26.4311  -37.3791   23.9397 N   0  0  0  0  0  0
  -24.6665  -31.0787   22.0977 N   0  0  0  0  0  0
  -23.4152  -28.8235   23.3010 O   0  0  0  0  0  0
  -28.4060  -26.7176   20.0677 O   0  0  0  0  0  0
  -26.5569  -34.8916   22.4680 O   0  0  0  0  0  0
  -23.5331  -32.1445   23.7454 O   0  0  0  0  0  0
  -30.7892  -17.9202   21.3768 C   0  0  0  0  0  0
  -28.8477  -17.1265   20.8374 C   0  0  0  0  0  0
  -29.9826  -18.9533   20.9490 C   0  0  0  0  0  0
  -31.5399  -15.4574   22.8571 C   0  0  0  0  0  0
  -26.9174  -22.6942   21.0445 C   0  0  0  0  0  0
  -30.2721  -20.4363   20.9954 C   0  0  0  0  0  0
  -30.0233  -21.2267   19.6879 C   0  0  0  0  0  0
  -28.5845  -21.7580   19.4978 C   0  0  0  0  0  0
  -28.3769  -24.2414   19.7459 C   0  0  0  0  0  0
  -28.3451  -25.4432   20.7283 C   0  0  0  0  0  0
  -30.3895  -15.4014   21.8311 C   0  0  1  0  0  0
  -28.7379  -18.4335   20.5972 N   0  0  0  0  0  0
  -30.0283  -16.7472   21.3519 N   0  0  0  0  0  0
  -28.2418  -22.8997   20.4022 N   0  3  1  0  0  0
  -31.4582  -12.4218   19.0951 H   0  0  0  0  0  0
  -30.3195  -11.3011   19.7718 H   0  0  0  0  0  0
  -29.7272  -11.8309   17.3953 H   0  0  0  0  0  0
  -29.6430  -13.5333   17.7756 H   0  0  0  0  0  0
  -27.8268  -11.3184   18.7917 H   0  0  0  0  0  0
  -27.3523  -12.6559   17.7799 H   0  0  0  0  0  0
  -27.7152  -14.2548   19.5938 H   0  0  0  0  0  0
  -28.6805  -11.8942   21.2698 H   0  0  0  0  0  0
  -28.4101  -13.4745   21.8891 H   0  0  0  0  0  0
  -25.2758   -9.5685   22.4750 H   0  0  0  0  0  0
  -23.9997   -7.4632   22.7470 H   0  0  0  0  0  0
  -21.0835   -8.8763   19.8951 H   0  0  0  0  0  0
  -22.3683  -10.9663   19.6154 H   0  0  0  0  0  0
  -21.2000   -7.6143   23.9722 H   0  0  0  0  0  0
  -21.1480   -6.0516   25.9081 H   0  0  0  0  0  0
  -22.0599   -2.7606   23.2848 H   0  0  0  0  0  0
  -22.4098  -11.9881   22.4797 H   0  0  0  0  0  0
  -21.1114  -13.1264   22.2613 H   0  0  0  0  0  0
  -24.6321  -15.8189   20.4661 H   0  0  0  0  0  0
  -26.2292  -15.6121   19.9629 H   0  0  0  0  0  0
  -26.7096  -32.5527   23.1159 H   0  0  0  0  0  0
  -25.0058  -33.9795   25.0481 H   0  0  0  0  0  0
  -22.6928  -31.3112   21.4027 H   0  0  0  0  0  0
  -23.3753  -35.9693   23.3312 H   0  0  0  0  0  0
  -24.3637  -36.8945   22.2068 H   0  0  0  0  0  0
  -23.7252  -37.6546   23.6646 H   0  0  0  0  0  0
  -26.0389  -31.6018   20.5882 H   0  0  0  0  0  0
  -26.8203  -30.8958   21.9727 H   0  0  0  0  0  0
  -28.1110  -29.1226   21.1249 H   0  0  0  0  0  0
  -26.0583  -25.9812   18.9998 H   0  0  0  0  0  0
  -23.9744  -27.2903   19.0464 H   0  0  0  0  0  0
  -23.7053  -30.5898   19.4007 H   0  0  0  0  0  0
  -22.7311  -29.2337   19.8758 H   0  0  0  0  0  0
  -25.1280  -36.2028   25.0844 H   0  0  0  0  0  0
  -20.9973  -28.3287   24.1425 H   0  0  0  0  0  0
  -20.5690  -26.2303   23.3596 H   0  0  0  0  0  0
  -21.6633  -26.7488   22.1194 H   0  0  0  0  0  0
  -19.6919  -25.6287   21.1262 H   0  0  0  0  0  0
  -19.6701  -27.3176   20.6718 H   0  0  0  0  0  0
  -17.4190  -26.6686   21.4028 H   0  0  0  0  0  0
  -18.0351  -26.0070   22.9008 H   0  0  0  0  0  0
  -19.7926  -30.7224   24.2359 H   0  0  0  0  0  0
  -17.5023  -31.6293   24.5140 H   0  0  0  0  0  0
  -15.5358  -30.3019   23.7623 H   0  0  0  0  0  0
  -15.8670  -28.0832   22.7082 H   0  0  0  0  0  0
  -24.5872  -30.7026   25.7745 H   0  0  0  0  0  0
  -24.8813  -32.2810   26.4880 H   0  0  0  0  0  0
  -25.8006  -30.8838   27.0197 H   0  0  0  0  0  0
  -26.2813  -29.6808   24.1118 H   0  0  0  0  0  0
  -27.4109  -29.7310   25.4483 H   0  0  0  0  0  0
  -27.8615  -30.4428   23.9164 H   0  0  0  0  0  0
  -27.2726  -33.3619   26.2038 H   0  0  0  0  0  0
  -28.3823  -32.6823   25.0228 H   0  0  0  0  0  0
  -28.0727  -31.8379   26.5310 H   0  0  0  0  0  0
  -28.2589  -38.0128   24.7523 H   0  0  0  0  0  0
  -28.1103  -36.2649   24.6275 H   0  0  0  0  0  0
  -27.2309  -37.1473   25.8861 H   0  0  0  0  0  0
  -20.9246  -29.8801   21.6946 H   0  0  0  0  0  0
  -26.0219  -38.2887   24.1358 H   0  0  0  0  0  0
  -31.8011  -17.9455   21.7582 H   0  0  0  0  0  0
  -28.0251  -16.4397   20.6979 H   0  0  0  0  0  0
  -31.3072  -16.1439   23.6712 H   0  0  0  0  0  0
  -32.4777  -15.7797   22.4037 H   0  0  0  0  0  0
  -31.7118  -14.4760   23.3001 H   0  0  0  0  0  0
  -26.8584  -21.7127   21.5172 H   0  0  0  0  0  0
  -26.1138  -22.7593   20.3110 H   0  0  0  0  0  0
  -26.7182  -23.4200   21.8319 H   0  0  0  0  0  0
  -31.3249  -20.5647   21.2506 H   0  0  0  0  0  0
  -29.7312  -20.8949   21.8226 H   0  0  0  0  0  0
  -30.3044  -20.6072   18.8359 H   0  0  0  0  0  0
  -30.7004  -22.0810   19.6559 H   0  0  0  0  0  0
  -27.8918  -20.9252   19.6343 H   0  0  0  0  0  0
  -28.4474  -22.0653   18.4599 H   0  0  0  0  0  0
  -29.3265  -24.2761   19.2105 H   0  0  0  0  0  0
  -27.6004  -24.3490   18.9896 H   0  0  0  0  0  0
  -29.2054  -25.3826   21.3946 H   0  0  0  0  0  0
  -27.4696  -25.4066   21.3764 H   0  0  0  0  0  0
  -29.5310  -15.0599   22.3968 H   0  0  0  0  0  0
  -28.9127  -22.8674   21.1558 H   0  0  0  0  0  0
  1 25  1  0  0  0
  1 30  2  0  0  0
  1 81  1  0  0  0
  2  3  1  0  0  0
  2 25  1  0  0  0
  2 85  1  0  0  0
  2 86  1  0  0  0
  3  4  1  0  0  0
  3 87  1  0  0  0
  3 88  1  0  0  0
  4  5  1  0  0  0
  4 89  1  0  0  0
  4 90  1  0  0  0
  5  6  1  0  0  0
  5 26  1  0  0  0
  5 91  1  0  0  0
  6 25  1  0  0  0
  6 92  1  0  0  0
  6 93  1  0  0  0
  7  8  2  0  0  0
  7 26  1  0  0  0
  7 29  1  0  0  0
  8  9  1  0  0  0
  8 22  1  0  0  0
  9 10  1  0  0  0
  9 27  2  0  0  0
 10 11  2  0  0  0
 10 15  1  0  0  0
 11 12  1  0  0  0
 11 94  1  0  0  0
 12 13  2  0  0  0
 12 95  1  0  0  0
 13 14  1  0  0  0
 13 31  1  0  0  0
 14 15  2  0  0  0
 14 96  1  0  0  0
 15 97  1  0  0  0
 16 17  2  0  0  0
 16 21  1  0  0  0
 16 31  1  0  0  0
 17 18  1  0  0  0
 17 98  1  0  0  0
 18 19  2  0  0  0
 18 99  1  0  0  0
 19 20  1  0  0  0
 19 24  1  0  0  0
 20 21  2  0  0  0
 20100  1  0  0  0
 21 23  1  0  0  0
 22 28  1  0  0  0
 22 32  2  0  0  0
 26 27  1  0  0  0
 28101  1  0  0  0
 28102  1  0  0  0
 29103  1  0  0  0
 29104  1  0  0  0
 33 34  1  0  0  0
 33 66  1  0  0  0
 33 70  2  0  0  0
 34 36  1  0  0  0
 34 59  1  0  0  0
 34105  1  0  0  0
 35 44  2  0  0  0
 35 45  1  0  0  0
 35 68  1  0  0  0
 36 56  1  0  0  0
 36106  1  0  0  0
 37 39  1  0  0  0
 37 47  1  0  0  0
 37 66  1  0  0  0
 37107  1  0  0  0
 38 43  2  0  0  0
 38 46  1  0  0  0
 38 47  1  0  0  0
 39 64  1  0  0  0
 39 67  2  0  0  0
 40 52  1  0  0  0
 40 53  2  0  0  0
 40 58  1  0  0  0
 41108  1  0  0  0
 41109  1  0  0  0
 41110  1  0  0  0
 41 48  1  0  0  0
 42 43  1  0  0  0
 42 66  1  0  0  0
 42111  1  0  0  0
 42112  1  0  0  0
 43 44  1  0  0  0
 44113  1  0  0  0
 45 46  2  0  0  0
 45114  1  0  0  0
 46115  1  0  0  0
 47116  1  0  0  0
 47117  1  0  0  0
 48 56  1  0  0  0
 48 65  1  0  0  0
 48118  1  0  0  0
 49 50  1  0  0  0
 49 53  1  0  0  0
 49 64  1  0  0  0
 49119  1  0  0  0
 50 51  1  0  0  0
 50120  1  0  0  0
 50121  1  0  0  0
 51 52  1  0  0  0
 51122  1  0  0  0
 51123  1  0  0  0
 52124  1  0  0  0
 52125  1  0  0  0
 53 54  1  0  0  0
 54 55  2  0  0  0
 54126  1  0  0  0
 55 57  1  0  0  0
 55127  1  0  0  0
 56 69  2  0  0  0
 57 58  2  0  0  0
 57128  1  0  0  0
 58129  1  0  0  0
 59 60  1  0  0  0
 59 61  1  0  0  0
 59 62  1  0  0  0
 60130  1  0  0  0
 60131  1  0  0  0
 60132  1  0  0  0
 61133  1  0  0  0
 61134  1  0  0  0
 61135  1  0  0  0
 62136  1  0  0  0
 62137  1  0  0  0
 62138  1  0  0  0
 63 65  1  0  0  0
 63139  1  0  0  0
 63140  1  0  0  0
 63141  1  0  0  0
 64142  1  0  0  0
 65143  1  0  0  0
 68 80  1  0  0  0
 71 73  2  0  0  0
 71 83  1  0  0  0
 71144  1  0  0  0
 72 82  2  0  0  0
 72 83  1  0  0  0
 72145  1  0  0  0
 73 76  1  0  0  0
 73 82  1  0  0  0
 74146  1  0  0  0
 74147  1  0  0  0
 74148  1  0  0  0
 74 81  1  0  0  0
 75149  1  0  0  0
 75150  1  0  0  0
 75151  1  0  0  0
 75 84  1  0  0  0
 76 77  1  0  0  0
 76152  1  0  0  0
 76153  1  0  0  0
 77 78  1  0  0  0
 77154  1  0  0  0
 77155  1  0  0  0
 78 84  1  0  0  0
 78156  1  0  0  0
 78157  1  0  0  0
 79 80  1  0  0  0
 79 84  1  0  0  0
 79158  1  0  0  0
 79159  1  0  0  0
 80160  1  0  0  0
 80161  1  0  0  0
 81 83  1  0  0  0
 81162  1  0  0  0
 84163  1  0  0  0
M  CHG  1  84   1
M  ISO  4   1 100  68 101  80 101  81 100
M  END
> <chiral flag>
0

> <version>
0

> <s_m_source_file>
/data/baiqing/PycharmProjects/Reinvent-master-3.2/result/LINK_invent/BTK/process_docking_weight1_custom_sum_contain_oxygen_bond_distance_aromatic_linkinvent_7_9_3/rearranged_h_0053.sdf

> <i_m_source_file_index>
35

> <r_mmod_Potential_Energy-OPLS-2005>
-109.515953063965

> <r_mmod_Stretch_Energy-OPLS-2005>
38.3742790222168

> <r_mmod_Bend_Energy-OPLS-2005>
108.381538391113

> <r_mmod_Torsional_Energy-OPLS-2005>
234.665573120117

> <r_mmod_Improper_Torsional_Energy-OPLS-2005>
3.20774793624878

> <r_mmod_Van_der_Waal_Energy-OPLS-2005>
124.773078918457

> <r_mmod_Electrostatic_Energy-OPLS-2005>
-221.174926757812

> <r_mmod_Solvation_Energy-OPLS-2005>
-406.495483398438

> <b_mmod_Minimization_Converged-OPLS-2005>
0

> <r_mmod_RMS_Derivative-OPLS-2005>
2.1682722568512

$$$$
35
                    3D
 Structure written by MMmdl.
162170  0  0  1  0            999 V2000
  -30.5743  -15.0618   20.3756 C   0  0  0  0  0  0
  -30.4291  -12.6756   19.4714 C   0  0  0  0  0  0
  -29.5118  -12.5260   18.2391 C   0  0  0  0  0  0
  -28.0554  -12.3080   18.6791 C   0  0  0  0  0  0
  -27.6176  -13.2697   19.8137 C   0  0  2  0  0  0
  -28.6725  -13.4003   20.9290 C   0  0  0  0  0  0
  -25.2497  -13.8310   20.5783 C   0  0  0  0  0  0
  -24.1820  -13.0466   20.9277 C   0  0  0  0  0  0
  -24.6459  -11.6969   20.8772 C   0  0  0  0  0  0
  -23.9136  -10.4331   21.0416 C   0  0  0  0  0  0
  -24.3656   -9.4227   21.9193 C   0  0  0  0  0  0
  -23.6324   -8.2264   22.0746 C   0  0  0  0  0  0
  -22.4300   -8.0295   21.3533 C   0  0  0  0  0  0
  -21.9970   -9.0300   20.4645 C   0  0  0  0  0  0
  -22.7303  -10.2165   20.3077 C   0  0  0  0  0  0
  -21.6869   -6.0743   22.5271 C   0  0  0  0  0  0
  -21.4032   -6.5659   23.8195 C   0  0  0  0  0  0
  -21.3655   -5.6794   24.9154 C   0  0  0  0  0  0
  -21.6028   -4.3056   24.7218 C   0  0  0  0  0  0
  -21.8836   -3.8149   23.4354 C   0  0  0  0  0  0
  -21.9228   -4.6981   22.3399 C   0  0  0  0  0  0
  -22.7849  -13.5227   21.1911 C   0  0  0  0  0  0
  -22.1712   -4.2172   21.0978 F   0  0  0  0  0  0
  -21.5607   -3.4548   25.7730 F   0  0  0  0  0  0
  -29.9105  -13.8302   20.2650 N   0  0  0  0  0  0
  -26.2892  -12.9542   20.3247 N   0  0  0  0  0  0
  -25.9393  -11.6650   20.5764 N   0  0  0  0  0  0
  -22.0532  -12.8136   22.0431 N   0  0  0  0  0  0
  -25.4203  -15.2041   20.4239 N   0  0  0  0  0  0
  -31.8073  -14.9659   20.4031 O   0  0  0  0  0  0
  -21.6672   -6.8880   21.4206 O   0  0  0  0  0  0
  -22.3522  -14.5506   20.6756 O   0  0  0  0  0  0
  -24.6489  -31.8365   23.1825 C   0  0  0  0  0  0
  -25.9255  -32.4647   23.8204 C   0  0  1  0  0  0
  -27.2088  -27.0674   20.1378 C   0  0  0  0  0  0
  -25.6021  -33.8482   24.2129 N   0  0  0  0  0  0
  -23.4556  -30.4505   21.5328 C   0  0  2  0  0  0
  -24.9064  -28.8712   20.1090 C   0  0  0  0  0  0
  -22.7583  -29.4490   22.4866 C   0  0  0  0  0  0
  -18.0290  -28.1368   22.8459 C   0  0  0  0  0  0
  -24.1520  -36.7225   23.2632 C   0  0  0  0  0  0
  -26.0197  -30.6772   21.4034 C   0  0  0  0  0  0
  -26.0867  -29.2849   20.7419 C   0  0  0  0  0  0
  -27.2400  -28.3997   20.7408 C   0  0  0  0  0  0
  -26.0092  -26.7854   19.4482 C   0  0  0  0  0  0
  -24.8848  -27.6370   19.4451 C   0  0  0  0  0  0
  -23.6847  -29.7778   20.1549 C   0  0  0  0  0  0
  -25.4175  -36.3039   24.0289 C   0  0  1  0  0  0
  -20.5908  -28.3715   23.1217 C   0  0  2  0  0  0
  -20.6791  -26.9414   22.5401 C   0  0  0  0  0  0
  -19.5774  -26.6349   21.5198 C   0  0  0  0  0  0
  -18.1947  -26.7897   22.1595 C   0  0  0  0  0  0
  -19.1549  -28.8865   23.2813 C   0  0  0  0  0  0
  -18.9468  -30.1470   23.8810 C   0  0  0  0  0  0
  -17.6471  -30.6572   24.0547 C   0  0  0  0  0  0
  -25.9127  -34.9403   23.5022 C   0  0  0  0  0  0
  -16.5361  -29.9056   23.6361 C   0  0  0  0  0  0
  -16.7276  -28.6493   23.0353 C   0  0  0  0  0  0
  -26.4567  -31.6521   25.0665 C   0  0  0  0  0  0
  -25.3715  -31.3684   26.1301 C   0  0  0  0  0  0
  -27.0455  -30.2912   24.6326 C   0  0  0  0  0  0
  -27.6091  -32.4263   25.7450 C   0  0  0  0  0  0
  -27.5605  -37.1770   24.8458 C   0  0  0  0  0  0
  -21.4266  -29.3024   22.3585 N   0  0  0  0  0  0
  -26.4328  -37.3763   23.9390 N   0  0  0  0  0  0
  -24.7279  -31.0121   22.0922 N   0  0  0  0  0  0
  -23.4189  -28.8069   23.3074 O   0  0  0  0  0  0
  -28.2243  -26.0197   20.1446 O   0  0  0  0  0  0
  -26.5696  -34.8909   22.4590 O   0  0  0  0  0  0
  -23.5599  -32.1321   23.6979 O   0  0  0  0  0  0
  -28.6566  -21.7987   20.8276 C   0  0  0  0  0  0
  -28.5754  -23.0393   20.1118 C   0  0  0  0  0  0
  -29.1708  -22.5496   18.8960 C   0  0  0  0  0  0
  -28.8152  -22.6694   16.3622 C   0  0  0  0  0  0
  -31.4586  -15.9411   17.7164 C   0  0  0  0  0  0
  -29.0487  -16.6832   17.5765 C   0  0  0  0  0  0
  -27.8327  -24.5186   20.4682 C   0  0  0  0  0  0
  -29.3721  -23.3535   17.6256 C   0  0  0  0  0  0
  -29.8994  -19.2415   20.5659 C   0  0  0  0  0  0
  -29.3125  -17.6216   20.5015 C   0  0  0  0  0  0
  -30.3247  -16.7097   18.4523 C   0  0  0  0  0  0
  -29.6012  -21.2510   18.9411 N   0  0  0  0  0  0
  -29.2721  -20.6718   20.1371 N   0  0  0  0  0  0
  -30.0162  -16.3126   19.8677 N   0  0  0  0  0  0
  -31.4579  -12.8326   19.1446 H   0  0  0  0  0  0
  -30.4338  -11.7616   20.0700 H   0  0  0  0  0  0
  -29.8360  -11.6961   17.6089 H   0  0  0  0  0  0
  -29.5829  -13.4218   17.6189 H   0  0  0  0  0  0
  -27.9708  -11.2734   19.0146 H   0  0  0  0  0  0
  -27.3857  -12.4144   17.8270 H   0  0  0  0  0  0
  -27.5444  -14.2493   19.3378 H   0  0  0  0  0  0
  -28.8026  -12.4741   21.4900 H   0  0  0  0  0  0
  -28.3682  -14.1604   21.6483 H   0  0  0  0  0  0
  -25.2813   -9.5688   22.4751 H   0  0  0  0  0  0
  -24.0041   -7.4643   22.7452 H   0  0  0  0  0  0
  -21.0929   -8.8859   19.8942 H   0  0  0  0  0  0
  -22.3811  -10.9714   19.6193 H   0  0  0  0  0  0
  -21.2026   -7.6167   23.9709 H   0  0  0  0  0  0
  -21.1447   -6.0516   25.9031 H   0  0  0  0  0  0
  -22.0626   -2.7624   23.2854 H   0  0  0  0  0  0
  -22.4245  -11.9818   22.4777 H   0  0  0  0  0  0
  -21.1147  -13.1075   22.2664 H   0  0  0  0  0  0
  -24.6581  -15.8637   20.5341 H   0  0  0  0  0  0
  -26.2731  -15.6430   20.1036 H   0  0  0  0  0  0
  -26.7301  -32.5207   23.0889 H   0  0  0  0  0  0
  -25.0245  -33.9577   25.0333 H   0  0  0  0  0  0
  -22.7620  -31.2787   21.3738 H   0  0  0  0  0  0
  -23.3834  -35.9495   23.3257 H   0  0  0  0  0  0
  -24.3604  -36.8909   22.2054 H   0  0  0  0  0  0
  -23.7199  -37.6375   23.6702 H   0  0  0  0  0  0
  -26.2043  -31.4278   20.6344 H   0  0  0  0  0  0
  -26.8790  -30.7132   22.0597 H   0  0  0  0  0  0
  -28.1357  -28.7086   21.2615 H   0  0  0  0  0  0
  -25.9118  -25.8590   18.9012 H   0  0  0  0  0  0
  -23.9955  -27.3231   18.9151 H   0  0  0  0  0  0
  -23.8163  -30.5443   19.3922 H   0  0  0  0  0  0
  -22.8007  -29.2168   19.8505 H   0  0  0  0  0  0
  -25.1359  -36.1880   25.0782 H   0  0  0  0  0  0
  -20.9967  -28.3319   24.1347 H   0  0  0  0  0  0
  -20.5726  -26.2314   23.3613 H   0  0  0  0  0  0
  -21.6659  -26.7428   22.1201 H   0  0  0  0  0  0
  -19.6969  -25.6260   21.1233 H   0  0  0  0  0  0
  -19.6721  -27.3144   20.6721 H   0  0  0  0  0  0
  -17.4224  -26.6623   21.3990 H   0  0  0  0  0  0
  -18.0362  -26.0038   22.9000 H   0  0  0  0  0  0
  -19.7956  -30.7305   24.2123 H   0  0  0  0  0  0
  -17.5033  -31.6236   24.5157 H   0  0  0  0  0  0
  -15.5369  -30.2938   23.7718 H   0  0  0  0  0  0
  -15.8675  -28.0798   22.7082 H   0  0  0  0  0  0
  -24.6002  -30.6928   25.7582 H   0  0  0  0  0  0
  -24.8786  -32.2843   26.4576 H   0  0  0  0  0  0
  -25.7985  -30.8968   27.0163 H   0  0  0  0  0  0
  -26.3108  -29.6573   24.1361 H   0  0  0  0  0  0
  -27.4066  -29.7274   25.4939 H   0  0  0  0  0  0
  -27.9027  -30.4124   23.9694 H   0  0  0  0  0  0
  -27.2742  -33.3626   26.1915 H   0  0  0  0  0  0
  -28.3969  -32.6679   25.0298 H   0  0  0  0  0  0
  -28.0689  -31.8439   26.5442 H   0  0  0  0  0  0
  -28.2575  -38.0122   24.7610 H   0  0  0  0  0  0
  -28.1149  -36.2641   24.6196 H   0  0  0  0  0  0
  -27.2294  -37.1313   25.8851 H   0  0  0  0  0  0
  -20.9497  -29.8747   21.6748 H   0  0  0  0  0  0
  -26.0191  -38.2827   24.1411 H   0  0  0  0  0  0
  -28.3133  -21.6216   21.8375 H   0  0  0  0  0  0
  -28.9003  -23.3235   15.4935 H   0  0  0  0  0  0
  -27.7665  -22.4003   16.4864 H   0  0  0  0  0  0
  -29.3681  -21.7570   16.1384 H   0  0  0  0  0  0
  -31.4977  -16.2152   16.6618 H   0  0  0  0  0  0
  -31.3558  -14.8603   17.7536 H   0  0  0  0  0  0
  -32.4395  -16.1826   18.1299 H   0  0  0  0  0  0
  -29.2609  -17.0025   16.5541 H   0  0  0  0  0  0
  -28.2909  -17.3824   17.9337 H   0  0  0  0  0  0
  -28.5982  -15.6884   17.5172 H   0  0  0  0  0  0
  -27.7278  -24.5509   21.5528 H   0  0  0  0  0  0
  -26.8024  -24.3964   20.1429 H   0  0  0  0  0  0
  -30.4256  -23.5997   17.4869 H   0  0  0  0  0  0
  -28.8638  -24.3122   17.7266 H   0  0  0  0  0  0
  -30.9155  -19.2263   20.1767 H   0  0  0  0  0  0
  -30.0818  -19.3855   21.6321 H   0  0  0  0  0  0
  -28.3001  -17.6669   20.1053 H   0  0  0  0  0  0
  -29.1359  -17.3450   21.5423 H   0  0  0  0  0  0
  -30.6800  -17.7410   18.4650 H   0  0  0  0  0  0
  1 25  1  0  0  0
  1 30  2  0  0  0
  1 84  1  0  0  0
  2  3  1  0  0  0
  2 25  1  0  0  0
  2 85  1  0  0  0
  2 86  1  0  0  0
  3  4  1  0  0  0
  3 87  1  0  0  0
  3 88  1  0  0  0
  4  5  1  0  0  0
  4 89  1  0  0  0
  4 90  1  0  0  0
  5  6  1  0  0  0
  5 26  1  0  0  0
  5 91  1  0  0  0
  6 25  1  0  0  0
  6 92  1  0  0  0
  6 93  1  0  0  0
  7  8  2  0  0  0
  7 26  1  0  0  0
  7 29  1  0  0  0
  8  9  1  0  0  0
  8 22  1  0  0  0
  9 10  1  0  0  0
  9 27  2  0  0  0
 10 11  2  0  0  0
 10 15  1  0  0  0
 11 12  1  0  0  0
 11 94  1  0  0  0
 12 13  2  0  0  0
 12 95  1  0  0  0
 13 14  1  0  0  0
 13 31  1  0  0  0
 14 15  2  0  0  0
 14 96  1  0  0  0
 15 97  1  0  0  0
 16 17  2  0  0  0
 16 21  1  0  0  0
 16 31  1  0  0  0
 17 18  1  0  0  0
 17 98  1  0  0  0
 18 19  2  0  0  0
 18 99  1  0  0  0
 19 20  1  0  0  0
 19 24  1  0  0  0
 20 21  2  0  0  0
 20100  1  0  0  0
 21 23  1  0  0  0
 22 28  1  0  0  0
 22 32  2  0  0  0
 26 27  1  0  0  0
 28101  1  0  0  0
 28102  1  0  0  0
 29103  1  0  0  0
 29104  1  0  0  0
 33 34  1  0  0  0
 33 66  1  0  0  0
 33 70  2  0  0  0
 34 36  1  0  0  0
 34 59  1  0  0  0
 34105  1  0  0  0
 35 44  2  0  0  0
 35 45  1  0  0  0
 35 68  1  0  0  0
 36 56  1  0  0  0
 36106  1  0  0  0
 37 39  1  0  0  0
 37 47  1  0  0  0
 37 66  1  0  0  0
 37107  1  0  0  0
 38 43  2  0  0  0
 38 46  1  0  0  0
 38 47  1  0  0  0
 39 64  1  0  0  0
 39 67  2  0  0  0
 40 52  1  0  0  0
 40 53  2  0  0  0
 40 58  1  0  0  0
 41108  1  0  0  0
 41109  1  0  0  0
 41110  1  0  0  0
 41 48  1  0  0  0
 42 43  1  0  0  0
 42 66  1  0  0  0
 42111  1  0  0  0
 42112  1  0  0  0
 43 44  1  0  0  0
 44113  1  0  0  0
 45 46  2  0  0  0
 45114  1  0  0  0
 46115  1  0  0  0
 47116  1  0  0  0
 47117  1  0  0  0
 48 56  1  0  0  0
 48 65  1  0  0  0
 48118  1  0  0  0
 49 50  1  0  0  0
 49 53  1  0  0  0
 49 64  1  0  0  0
 49119  1  0  0  0
 50 51  1  0  0  0
 50120  1  0  0  0
 50121  1  0  0  0
 51 52  1  0  0  0
 51122  1  0  0  0
 51123  1  0  0  0
 52124  1  0  0  0
 52125  1  0  0  0
 53 54  1  0  0  0
 54 55  2  0  0  0
 54126  1  0  0  0
 55 57  1  0  0  0
 55127  1  0  0  0
 56 69  2  0  0  0
 57 58  2  0  0  0
 57128  1  0  0  0
 58129  1  0  0  0
 59 60  1  0  0  0
 59 61  1  0  0  0
 59 62  1  0  0  0
 60130  1  0  0  0
 60131  1  0  0  0
 60132  1  0  0  0
 61133  1  0  0  0
 61134  1  0  0  0
 61135  1  0  0  0
 62136  1  0  0  0
 62137  1  0  0  0
 62138  1  0  0  0
 63 65  1  0  0  0
 63139  1  0  0  0
 63140  1  0  0  0
 63141  1  0  0  0
 64142  1  0  0  0
 65143  1  0  0  0
 68 77  1  0  0  0
 71 72  2  0  0  0
 71 83  1  0  0  0
 71144  1  0  0  0
 72 73  1  0  0  0
 72 77  1  0  0  0
 73 78  1  0  0  0
 73 82  2  0  0  0
 74 78  1  0  0  0
 74145  1  0  0  0
 74146  1  0  0  0
 74147  1  0  0  0
 75148  1  0  0  0
 75149  1  0  0  0
 75150  1  0  0  0
 75 81  1  0  0  0
 76 81  1  0  0  0
 76151  1  0  0  0
 76152  1  0  0  0
 76153  1  0  0  0
 77154  1  0  0  0
 77155  1  0  0  0
 78156  1  0  0  0
 78157  1  0  0  0
 79 80  1  0  0  0
 79 83  1  0  0  0
 79158  1  0  0  0
 79159  1  0  0  0
 80 84  1  0  0  0
 80160  1  0  0  0
 80161  1  0  0  0
 81 84  1  0  0  0
 81162  1  0  0  0
 82 83  1  0  0  0
M  ISO  4   1 100  68 101  77 101  84 100
M  END
> <chiral flag>
0

> <version>
0

> <s_m_source_file>
/data/baiqing/PycharmProjects/Reinvent-master-3.2/result/LINK_invent/BTK/process_docking_weight1_custom_sum_contain_oxygen_bond_distance_aromatic_linkinvent_7_9_3/rearranged_h_0053.sdf

> <i_m_source_file_index>
36

> <r_mmod_Potential_Energy-OPLS-2005>
1010.91796875

> <r_mmod_Stretch_Energy-OPLS-2005>
348.141052246094

> <r_mmod_Bend_Energy-OPLS-2005>
357.743225097656

> <r_mmod_Torsional_Energy-OPLS-2005>
367.078643798828

> <r_mmod_Improper_Torsional_Energy-OPLS-2005>
25.9229068756104

> <r_mmod_Van_der_Waal_Energy-OPLS-2005>
113.665428161621

> <r_mmod_Electrostatic_Energy-OPLS-2005>
-281.497344970703

> <r_mmod_Solvation_Energy-OPLS-2005>
-206.137573242188

> <b_mmod_Minimization_Converged-OPLS-2005>
0

> <r_mmod_RMS_Derivative-OPLS-2005>
5.47108888626099

$$$$
36
                    3D
 Structure written by MMmdl.
154162  0  0  1  0            999 V2000
  -30.5211  -14.9657   20.4928 C   0  0  0  0  0  0
  -30.4555  -12.6174   19.4821 C   0  0  0  0  0  0
  -29.5141  -12.5568   18.2507 C   0  0  0  0  0  0
  -28.0447  -12.3395   18.6663 C   0  0  0  0  0  0
  -27.6395  -13.2328   19.8657 C   0  0  2  0  0  0
  -28.7007  -13.1655   20.9870 C   0  0  0  0  0  0
  -25.2431  -13.8131   20.5703 C   0  0  0  0  0  0
  -24.1759  -13.0366   20.9225 C   0  0  0  0  0  0
  -24.6386  -11.6863   20.8768 C   0  0  0  0  0  0
  -23.9069  -10.4251   21.0415 C   0  0  0  0  0  0
  -24.3616   -9.4176   21.9198 C   0  0  0  0  0  0
  -23.6297   -8.2215   22.0761 C   0  0  0  0  0  0
  -22.4268   -8.0267   21.3562 C   0  0  0  0  0  0
  -21.9910   -9.0233   20.4649 C   0  0  0  0  0  0
  -22.7241  -10.2116   20.3064 C   0  0  0  0  0  0
  -21.6839   -6.0731   22.5279 C   0  0  0  0  0  0
  -21.4001   -6.5638   23.8211 C   0  0  0  0  0  0
  -21.3662   -5.6800   24.9177 C   0  0  0  0  0  0
  -21.6038   -4.3058   24.7225 C   0  0  0  0  0  0
  -21.8825   -3.8151   23.4342 C   0  0  0  0  0  0
  -21.9189   -4.6963   22.3395 C   0  0  0  0  0  0
  -22.7785  -13.5159   21.1864 C   0  0  0  0  0  0
  -22.1661   -4.2146   21.0975 F   0  0  0  0  0  0
  -21.5629   -3.4543   25.7736 F   0  0  0  0  0  0
  -29.9552  -13.6792   20.4141 N   0  0  0  0  0  0
  -26.2930  -12.9383   20.3412 N   0  0  0  0  0  0
  -25.9337  -11.6513   20.5835 N   0  0  0  0  0  0
  -22.0429  -12.8171   22.0426 N   0  0  0  0  0  0
  -25.3939  -15.1856   20.4043 N   0  0  0  0  0  0
  -31.6929  -15.0264   20.0977 O   0  0  0  0  0  0
  -21.6635   -6.8869   21.4240 O   0  0  0  0  0  0
  -22.3452  -14.5444   20.6673 O   0  0  0  0  0  0
  -24.6414  -31.8417   23.1860 C   0  0  0  0  0  0
  -25.9182  -32.4682   23.8249 C   0  0  1  0  0  0
  -27.2286  -27.1248   20.1745 C   0  0  0  0  0  0
  -25.5933  -33.8498   24.2181 N   0  0  0  0  0  0
  -23.4474  -30.4569   21.5301 C   0  0  2  0  0  0
  -24.8997  -28.8743   20.1188 C   0  0  0  0  0  0
  -22.7549  -29.4516   22.4850 C   0  0  0  0  0  0
  -18.0288  -28.1416   22.8435 C   0  0  0  0  0  0
  -24.1482  -36.7232   23.2631 C   0  0  0  0  0  0
  -26.0020  -30.7156   21.3834 C   0  0  0  0  0  0
  -26.0765  -29.3214   20.7344 C   0  0  0  0  0  0
  -27.2383  -28.4615   20.7449 C   0  0  0  0  0  0
  -26.0231  -26.7790   19.5202 C   0  0  0  0  0  0
  -24.8853  -27.6168   19.4978 C   0  0  0  0  0  0
  -23.6779  -29.7799   20.1536 C   0  0  0  0  0  0
  -25.4117  -36.3017   24.0299 C   0  0  1  0  0  0
  -20.5902  -28.3719   23.1219 C   0  0  2  0  0  0
  -20.6791  -26.9426   22.5409 C   0  0  0  0  0  0
  -19.5785  -26.6387   21.5189 C   0  0  0  0  0  0
  -18.1948  -26.7940   22.1591 C   0  0  0  0  0  0
  -19.1554  -28.8874   23.2818 C   0  0  0  0  0  0
  -18.9494  -30.1472   23.8839 C   0  0  0  0  0  0
  -17.6500  -30.6605   24.0544 C   0  0  0  0  0  0
  -25.9069  -34.9392   23.5059 C   0  0  0  0  0  0
  -16.5375  -29.9109   23.6343 C   0  0  0  0  0  0
  -16.7280  -28.6543   23.0326 C   0  0  0  0  0  0
  -26.4504  -31.6548   25.0683 C   0  0  0  0  0  0
  -25.3676  -31.3764   26.1366 C   0  0  0  0  0  0
  -27.0359  -30.2940   24.6259 C   0  0  0  0  0  0
  -27.6040  -32.4280   25.7488 C   0  0  0  0  0  0
  -27.5563  -37.1758   24.8458 C   0  0  0  0  0  0
  -21.4240  -29.3041   22.3590 N   0  0  0  0  0  0
  -26.4279  -37.3731   23.9406 N   0  0  0  0  0  0
  -24.7170  -31.0250   22.0911 N   0  0  0  0  0  0
  -23.4171  -28.8070   23.3016 O   0  0  0  0  0  0
  -28.2975  -26.1548   20.2470 O   0  0  0  0  0  0
  -26.5665  -34.8886   22.4643 O   0  0  0  0  0  0
  -23.5537  -32.1284   23.7103 O   0  0  0  0  0  0
  -30.0443  -20.7501   20.5140 C   0  0  0  0  0  0
  -27.9446  -21.0549   20.4102 C   0  0  0  0  0  0
  -29.5065  -19.4220   20.4791 C   0  0  0  0  0  0
  -28.2961  -16.4049   21.0345 C   0  0  0  0  0  0
  -30.3080  -16.5514   22.4744 C   0  0  0  0  0  0
  -30.1891  -17.9147   20.2680 C   0  0  0  0  0  0
  -29.2323  -23.4078   20.4483 C   0  0  0  0  0  0
  -28.0631  -24.6057   20.2205 C   0  0  0  0  0  0
  -29.8333  -16.4290   21.0088 C   0  0  0  0  0  0
  -28.1296  -19.7059   20.3897 N   0  0  0  0  0  0
  -29.0525  -21.8221   20.4492 N   0  0  0  0  0  0
  -31.4746  -12.8117   19.1443 H   0  0  0  0  0  0
  -30.5045  -11.6483   19.9794 H   0  0  0  0  0  0
  -29.8296  -11.7655   17.5684 H   0  0  0  0  0  0
  -29.5948  -13.4935   17.6952 H   0  0  0  0  0  0
  -27.9209  -11.2899   18.9323 H   0  0  0  0  0  0
  -27.3786  -12.5185   17.8206 H   0  0  0  0  0  0
  -27.6207  -14.2475   19.4771 H   0  0  0  0  0  0
  -28.8144  -12.1292   21.3061 H   0  0  0  0  0  0
  -28.4182  -13.6797   21.8997 H   0  0  0  0  0  0
  -25.2752   -9.5644   22.4792 H   0  0  0  0  0  0
  -23.9988   -7.4588   22.7480 H   0  0  0  0  0  0
  -21.0850   -8.8769   19.8940 H   0  0  0  0  0  0
  -22.3709  -10.9674   19.6188 H   0  0  0  0  0  0
  -21.1990   -7.6147   23.9711 H   0  0  0  0  0  0
  -21.1479   -6.0531   25.9082 H   0  0  0  0  0  0
  -22.0598   -2.7612   23.2845 H   0  0  0  0  0  0
  -22.4071  -11.9866   22.4860 H   0  0  0  0  0  0
  -21.1047  -13.1205   22.2618 H   0  0  0  0  0  0
  -24.6223  -15.8307   20.5305 H   0  0  0  0  0  0
  -26.2548  -15.6426   20.1343 H   0  0  0  0  0  0
  -26.7238  -32.5268   23.0974 H   0  0  0  0  0  0
  -25.0063  -33.9630   25.0318 H   0  0  0  0  0  0
  -22.7505  -31.2817   21.3667 H   0  0  0  0  0  0
  -23.3753  -35.9553   23.3295 H   0  0  0  0  0  0
  -24.3561  -36.8867   22.2045 H   0  0  0  0  0  0
  -23.7243  -37.6429   23.6681 H   0  0  0  0  0  0
  -26.1481  -31.4680   20.6050 H   0  0  0  0  0  0
  -26.8798  -30.7775   22.0178 H   0  0  0  0  0  0
  -28.1325  -28.7977   21.2512 H   0  0  0  0  0  0
  -25.9278  -25.8174   19.0386 H   0  0  0  0  0  0
  -23.9843  -27.2671   19.0106 H   0  0  0  0  0  0
  -23.8256  -30.5515   19.3976 H   0  0  0  0  0  0
  -22.7924  -29.2242   19.8398 H   0  0  0  0  0  0
  -25.1307  -36.1843   25.0789 H   0  0  0  0  0  0
  -20.9975  -28.3347   24.1351 H   0  0  0  0  0  0
  -20.5665  -26.2346   23.3633 H   0  0  0  0  0  0
  -21.6660  -26.7453   22.1210 H   0  0  0  0  0  0
  -19.6982  -25.6289   21.1246 H   0  0  0  0  0  0
  -19.6754  -27.3164   20.6684 H   0  0  0  0  0  0
  -17.4220  -26.6629   21.3999 H   0  0  0  0  0  0
  -18.0391  -26.0119   22.9027 H   0  0  0  0  0  0
  -19.7999  -30.7280   24.2191 H   0  0  0  0  0  0
  -17.5088  -31.6278   24.5168 H   0  0  0  0  0  0
  -15.5389  -30.3012   23.7730 H   0  0  0  0  0  0
  -15.8663  -28.0882   22.7042 H   0  0  0  0  0  0
  -24.5921  -30.7035   25.7681 H   0  0  0  0  0  0
  -24.8778  -32.2950   26.4617 H   0  0  0  0  0  0
  -25.7941  -30.9102   27.0251 H   0  0  0  0  0  0
  -26.3000  -29.6674   24.1213 H   0  0  0  0  0  0
  -27.3903  -29.7223   25.4837 H   0  0  0  0  0  0
  -27.8914  -30.4131   23.9603 H   0  0  0  0  0  0
  -27.2678  -33.3634   26.1972 H   0  0  0  0  0  0
  -28.3950  -32.6718   25.0383 H   0  0  0  0  0  0
  -28.0578  -31.8441   26.5502 H   0  0  0  0  0  0
  -28.2537  -38.0091   24.7542 H   0  0  0  0  0  0
  -28.1109  -36.2623   24.6266 H   0  0  0  0  0  0
  -27.2263  -37.1343   25.8851 H   0  0  0  0  0  0
  -20.9459  -29.8761   21.6768 H   0  0  0  0  0  0
  -26.0135  -38.2771   24.1522 H   0  0  0  0  0  0
  -31.0919  -21.0224   20.5357 H   0  0  0  0  0  0
  -26.9583  -21.4958   20.3788 H   0  0  0  0  0  0
  -27.8990  -16.3978   20.0223 H   0  0  0  0  0  0
  -27.9041  -17.2992   21.5211 H   0  0  0  0  0  0
  -27.8604  -15.5930   21.6010 H   0  0  0  0  0  0
  -29.8255  -17.3776   22.9980 H   0  0  0  0  0  0
  -31.3838  -16.7213   22.5272 H   0  0  0  0  0  0
  -30.0996  -15.6419   23.0432 H   0  0  0  0  0  0
  -31.2662  -18.0395   20.3922 H   0  0  0  0  0  0
  -30.0957  -17.7065   19.2024 H   0  0  0  0  0  0
  -29.7106  -23.6381   21.3995 H   0  0  0  0  0  0
  -30.0011  -23.6058   19.7000 H   0  0  0  0  0  0
  -27.2861  -24.4106   20.9604 H   0  0  0  0  0  0
  -27.6058  -24.3831   19.2576 H   0  0  0  0  0  0
  1 25  1  0  0  0
  1 30  2  0  0  0
  1 79  1  0  0  0
  2  3  1  0  0  0
  2 25  1  0  0  0
  2 82  1  0  0  0
  2 83  1  0  0  0
  3  4  1  0  0  0
  3 84  1  0  0  0
  3 85  1  0  0  0
  4  5  1  0  0  0
  4 86  1  0  0  0
  4 87  1  0  0  0
  5  6  1  0  0  0
  5 26  1  0  0  0
  5 88  1  0  0  0
  6 25  1  0  0  0
  6 89  1  0  0  0
  6 90  1  0  0  0
  7  8  2  0  0  0
  7 26  1  0  0  0
  7 29  1  0  0  0
  8  9  1  0  0  0
  8 22  1  0  0  0
  9 10  1  0  0  0
  9 27  2  0  0  0
 10 11  2  0  0  0
 10 15  1  0  0  0
 11 12  1  0  0  0
 11 91  1  0  0  0
 12 13  2  0  0  0
 12 92  1  0  0  0
 13 14  1  0  0  0
 13 31  1  0  0  0
 14 15  2  0  0  0
 14 93  1  0  0  0
 15 94  1  0  0  0
 16 17  2  0  0  0
 16 21  1  0  0  0
 16 31  1  0  0  0
 17 18  1  0  0  0
 17 95  1  0  0  0
 18 19  2  0  0  0
 18 96  1  0  0  0
 19 20  1  0  0  0
 19 24  1  0  0  0
 20 21  2  0  0  0
 20 97  1  0  0  0
 21 23  1  0  0  0
 22 28  1  0  0  0
 22 32  2  0  0  0
 26 27  1  0  0  0
 28 98  1  0  0  0
 28 99  1  0  0  0
 29100  1  0  0  0
 29101  1  0  0  0
 33 34  1  0  0  0
 33 66  1  0  0  0
 33 70  2  0  0  0
 34 36  1  0  0  0
 34 59  1  0  0  0
 34102  1  0  0  0
 35 44  2  0  0  0
 35 45  1  0  0  0
 35 68  1  0  0  0
 36 56  1  0  0  0
 36103  1  0  0  0
 37 39  1  0  0  0
 37 47  1  0  0  0
 37 66  1  0  0  0
 37104  1  0  0  0
 38 43  2  0  0  0
 38 46  1  0  0  0
 38 47  1  0  0  0
 39 64  1  0  0  0
 39 67  2  0  0  0
 40 52  1  0  0  0
 40 53  2  0  0  0
 40 58  1  0  0  0
 41105  1  0  0  0
 41106  1  0  0  0
 41107  1  0  0  0
 41 48  1  0  0  0
 42 43  1  0  0  0
 42 66  1  0  0  0
 42108  1  0  0  0
 42109  1  0  0  0
 43 44  1  0  0  0
 44110  1  0  0  0
 45 46  2  0  0  0
 45111  1  0  0  0
 46112  1  0  0  0
 47113  1  0  0  0
 47114  1  0  0  0
 48 56  1  0  0  0
 48 65  1  0  0  0
 48115  1  0  0  0
 49 50  1  0  0  0
 49 53  1  0  0  0
 49 64  1  0  0  0
 49116  1  0  0  0
 50 51  1  0  0  0
 50117  1  0  0  0
 50118  1  0  0  0
 51 52  1  0  0  0
 51119  1  0  0  0
 51120  1  0  0  0
 52121  1  0  0  0
 52122  1  0  0  0
 53 54  1  0  0  0
 54 55  2  0  0  0
 54123  1  0  0  0
 55 57  1  0  0  0
 55124  1  0  0  0
 56 69  2  0  0  0
 57 58  2  0  0  0
 57125  1  0  0  0
 58126  1  0  0  0
 59 60  1  0  0  0
 59 61  1  0  0  0
 59 62  1  0  0  0
 60127  1  0  0  0
 60128  1  0  0  0
 60129  1  0  0  0
 61130  1  0  0  0
 61131  1  0  0  0
 61132  1  0  0  0
 62133  1  0  0  0
 62134  1  0  0  0
 62135  1  0  0  0
 63 65  1  0  0  0
 63136  1  0  0  0
 63137  1  0  0  0
 63138  1  0  0  0
 64139  1  0  0  0
 65140  1  0  0  0
 68 78  1  0  0  0
 71 73  2  0  0  0
 71 81  1  0  0  0
 71141  1  0  0  0
 72 80  2  0  0  0
 72 81  1  0  0  0
 72142  1  0  0  0
 73 76  1  0  0  0
 73 80  1  0  0  0
 74143  1  0  0  0
 74144  1  0  0  0
 74145  1  0  0  0
 74 79  1  0  0  0
 75 79  1  0  0  0
 75146  1  0  0  0
 75147  1  0  0  0
 75148  1  0  0  0
 76 79  1  0  0  0
 76149  1  0  0  0
 76150  1  0  0  0
 77 78  1  0  0  0
 77 81  1  0  0  0
 77151  1  0  0  0
 77152  1  0  0  0
 78153  1  0  0  0
 78154  1  0  0  0
M  ISO  4   1 100  68 101  78 101  79 100
M  END
> <chiral flag>
0

> <version>
0

> <s_m_source_file>
/data/baiqing/PycharmProjects/Reinvent-master-3.2/result/LINK_invent/BTK/process_docking_weight1_custom_sum_contain_oxygen_bond_distance_aromatic_linkinvent_7_9_3/rearranged_h_0053.sdf

> <i_m_source_file_index>
37

> <r_mmod_Potential_Energy-OPLS-2005>
580.211181640625

> <r_mmod_Stretch_Energy-OPLS-2005>
293.59228515625

> <r_mmod_Bend_Energy-OPLS-2005>
296.748504638672

> <r_mmod_Torsional_Energy-OPLS-2005>
202.802154541016

> <r_mmod_Improper_Torsional_Energy-OPLS-2005>
2.75689172744751

> <r_mmod_Van_der_Waal_Energy-OPLS-2005>
116.768478393555

> <r_mmod_Electrostatic_Energy-OPLS-2005>
-319.320343017578

> <r_mmod_Solvation_Energy-OPLS-2005>
-203.411560058594

> <b_mmod_Minimization_Converged-OPLS-2005>
0

> <r_mmod_RMS_Derivative-OPLS-2005>
3.12880897521973

$$$$
37
                    3D
 Structure written by MMmdl.
160168  0  0  1  0            999 V2000
  -30.7766  -14.6903   20.4010 C   0  0  0  0  0  0
  -30.4239  -12.4421   19.4402 C   0  0  0  0  0  0
  -29.4925  -12.4531   18.2148 C   0  0  0  0  0  0
  -28.0326  -12.2851   18.6668 C   0  0  0  0  0  0
  -27.6430  -13.2399   19.8301 C   0  0  2  0  0  0
  -28.7109  -13.2668   20.9479 C   0  0  0  0  0  0
  -25.2527  -13.8222   20.5742 C   0  0  0  0  0  0
  -24.1808  -13.0448   20.9225 C   0  0  0  0  0  0
  -24.6401  -11.6946   20.8745 C   0  0  0  0  0  0
  -23.9082  -10.4293   21.0390 C   0  0  0  0  0  0
  -24.3599   -9.4217   21.9181 C   0  0  0  0  0  0
  -23.6262   -8.2260   22.0745 C   0  0  0  0  0  0
  -22.4253   -8.0289   21.3529 C   0  0  0  0  0  0
  -21.9884   -9.0302   20.4653 C   0  0  0  0  0  0
  -22.7254  -10.2152   20.3055 C   0  0  0  0  0  0
  -21.6884   -6.0685   22.5266 C   0  0  0  0  0  0
  -21.4058   -6.5591   23.8201 C   0  0  0  0  0  0
  -21.3664   -5.6735   24.9173 C   0  0  0  0  0  0
  -21.6026   -4.2994   24.7235 C   0  0  0  0  0  0
  -21.8825   -3.8099   23.4362 C   0  0  0  0  0  0
  -21.9217   -4.6903   22.3416 C   0  0  0  0  0  0
  -22.7802  -13.5227   21.1850 C   0  0  0  0  0  0
  -22.1679   -4.2073   21.0990 F   0  0  0  0  0  0
  -21.5643   -3.4497   25.7753 F   0  0  0  0  0  0
  -29.9961  -13.5627   20.3000 N   0  0  0  0  0  0
  -26.2991  -12.9478   20.3294 N   0  0  0  0  0  0
  -25.9354  -11.6623   20.5788 N   0  0  0  0  0  0
  -22.0393  -12.8276   22.0374 N   0  0  0  0  0  0
  -25.4171  -15.1956   20.4204 N   0  0  0  0  0  0
  -31.9963  -14.5442   20.3915 O   0  0  0  0  0  0
  -21.6680   -6.8849   21.4224 O   0  0  0  0  0  0
  -22.3500  -14.5542   20.6692 O   0  0  0  0  0  0
  -24.6241  -31.8629   23.2032 C   0  0  0  0  0  0
  -25.9094  -32.4819   23.8310 C   0  0  1  0  0  0
  -27.2078  -27.3325   20.1243 C   0  0  0  0  0  0
  -25.5942  -33.8612   24.2294 N   0  0  0  0  0  0
  -23.4174  -30.4805   21.5444 C   0  0  2  0  0  0
  -24.8642  -28.9462   20.0993 C   0  0  0  0  0  0
  -22.7490  -29.4576   22.4961 C   0  0  0  0  0  0
  -18.0284  -28.1392   22.8446 C   0  0  0  0  0  0
  -24.1488  -36.7310   23.2613 C   0  0  0  0  0  0
  -25.9512  -30.7968   21.3689 C   0  0  0  0  0  0
  -26.0280  -29.4250   20.7151 C   0  0  0  0  0  0
  -27.2105  -28.6300   20.7168 C   0  0  0  0  0  0
  -26.0332  -26.9096   19.4662 C   0  0  0  0  0  0
  -24.8674  -27.6965   19.4572 C   0  0  0  0  0  0
  -23.6317  -29.8245   20.1552 C   0  0  0  0  0  0
  -25.4104  -36.3100   24.0329 C   0  0  1  0  0  0
  -20.5862  -28.3698   23.1307 C   0  0  2  0  0  0
  -20.6746  -26.9416   22.5456 C   0  0  0  0  0  0
  -19.5760  -26.6354   21.5235 C   0  0  0  0  0  0
  -18.1927  -26.7926   22.1604 C   0  0  0  0  0  0
  -19.1509  -28.8866   23.2860 C   0  0  0  0  0  0
  -18.9439  -30.1460   23.8919 C   0  0  0  0  0  0
  -17.6453  -30.6592   24.0561 C   0  0  0  0  0  0
  -25.9048  -34.9491   23.5090 C   0  0  0  0  0  0
  -16.5333  -29.9104   23.6307 C   0  0  0  0  0  0
  -16.7256  -28.6521   23.0332 C   0  0  0  0  0  0
  -26.4520  -31.6579   25.0657 C   0  0  0  0  0  0
  -25.3780  -31.3677   26.1402 C   0  0  0  0  0  0
  -27.0329  -30.3003   24.6032 C   0  0  0  0  0  0
  -27.6133  -32.4286   25.7412 C   0  0  0  0  0  0
  -27.5592  -37.1794   24.8466 C   0  0  0  0  0  0
  -21.4195  -29.3050   22.3757 N   0  0  0  0  0  0
  -26.4303  -37.3787   23.9415 N   0  0  0  0  0  0
  -24.6819  -31.0622   22.0987 N   0  0  0  0  0  0
  -23.4231  -28.8092   23.3003 O   0  0  0  0  0  0
  -28.2875  -26.4522   20.1829 O   0  0  0  0  0  0
  -26.5590  -34.8937   22.4647 O   0  0  0  0  0  0
  -23.5424  -32.1494   23.7347 O   0  0  0  0  0  0
  -29.6116  -20.3701   21.5274 C   0  0  0  0  0  0
  -28.3673  -19.0089   19.5705 C   0  0  0  0  0  0
  -28.7050  -21.0534   20.6597 C   0  0  0  0  0  0
  -29.2147  -18.3092   20.4771 C   0  0  0  0  0  0
  -30.4797  -17.2282   17.6756 C   0  0  0  0  0  0
  -32.2379  -17.5795   19.5789 C   0  0  0  0  0  0
  -28.1400  -22.4871   20.9705 C   0  0  0  0  0  0
  -29.2310  -16.7334   20.5393 C   0  0  0  0  0  0
  -28.6437  -23.8017   20.2421 C   0  0  0  0  0  0
  -27.9940  -25.1449   20.8038 C   0  0  0  0  0  0
  -31.1943  -16.6337   18.9179 C   0  0  0  0  0  0
  -28.1137  -20.3517   19.6546 N   0  0  0  0  0  0
  -29.8559  -19.0225   21.4483 N   0  0  0  0  0  0
  -30.3102  -15.9096   19.9022 N   0  0  0  0  0  0
  -31.4574  -12.5404   19.1057 H   0  0  0  0  0  0
  -30.3651  -11.5007   19.9865 H   0  0  0  0  0  0
  -29.7711  -11.6486   17.5288 H   0  0  0  0  0  0
  -29.6131  -13.3846   17.6636 H   0  0  0  0  0  0
  -27.9260  -11.2536   19.0000 H   0  0  0  0  0  0
  -27.3482  -12.4070   17.8279 H   0  0  0  0  0  0
  -27.6129  -14.2388   19.3947 H   0  0  0  0  0  0
  -28.7491  -12.3144   21.4813 H   0  0  0  0  0  0
  -28.4637  -14.0330   21.6837 H   0  0  0  0  0  0
  -25.2735   -9.5671   22.4780 H   0  0  0  0  0  0
  -23.9943   -7.4637   22.7462 H   0  0  0  0  0  0
  -21.0801   -8.8873   19.8964 H   0  0  0  0  0  0
  -22.3733  -10.9704   19.6154 H   0  0  0  0  0  0
  -21.2077   -7.6085   23.9703 H   0  0  0  0  0  0
  -21.1452   -6.0447   25.9050 H   0  0  0  0  0  0
  -22.0583   -2.7551   23.2905 H   0  0  0  0  0  0
  -22.3968  -12.0028   22.4958 H   0  0  0  0  0  0
  -21.0994  -13.1310   22.2494 H   0  0  0  0  0  0
  -24.6420  -15.8358   20.5540 H   0  0  0  0  0  0
  -26.2507  -15.6478   20.0714 H   0  0  0  0  0  0
  -26.7164  -32.5518   23.1046 H   0  0  0  0  0  0
  -25.0194  -33.9725   25.0507 H   0  0  0  0  0  0
  -22.7061  -31.2962   21.4090 H   0  0  0  0  0  0
  -23.3767  -35.9626   23.3286 H   0  0  0  0  0  0
  -24.3580  -36.8919   22.2025 H   0  0  0  0  0  0
  -23.7234  -37.6511   23.6633 H   0  0  0  0  0  0
  -26.0587  -31.5553   20.5926 H   0  0  0  0  0  0
  -26.8395  -30.8584   21.9842 H   0  0  0  0  0  0
  -28.1076  -28.9836   21.2047 H   0  0  0  0  0  0
  -26.0067  -25.9488   18.9691 H   0  0  0  0  0  0
  -23.9867  -27.3422   18.9399 H   0  0  0  0  0  0
  -23.7496  -30.6077   19.4059 H   0  0  0  0  0  0
  -22.7516  -29.2552   19.8535 H   0  0  0  0  0  0
  -25.1270  -36.1960   25.0829 H   0  0  0  0  0  0
  -20.9890  -28.3238   24.1434 H   0  0  0  0  0  0
  -20.5565  -26.2336   23.3668 H   0  0  0  0  0  0
  -21.6611  -26.7397   22.1279 H   0  0  0  0  0  0
  -19.6918  -25.6220   21.1371 H   0  0  0  0  0  0
  -19.6754  -27.3099   20.6707 H   0  0  0  0  0  0
  -17.4199  -26.6651   21.4009 H   0  0  0  0  0  0
  -18.0302  -26.0088   22.9029 H   0  0  0  0  0  0
  -19.7928  -30.7207   24.2359 H   0  0  0  0  0  0
  -17.5018  -31.6259   24.5203 H   0  0  0  0  0  0
  -15.5352  -30.3030   23.7608 H   0  0  0  0  0  0
  -15.8629  -28.0831   22.7084 H   0  0  0  0  0  0
  -24.5974  -30.7013   25.7711 H   0  0  0  0  0  0
  -24.8955  -32.2826   26.4864 H   0  0  0  0  0  0
  -25.8142  -30.8835   27.0144 H   0  0  0  0  0  0
  -26.2823  -29.6751   24.1187 H   0  0  0  0  0  0
  -27.4183  -29.7264   25.4462 H   0  0  0  0  0  0
  -27.8637  -30.4287   23.9089 H   0  0  0  0  0  0
  -27.2785  -33.3569   26.2034 H   0  0  0  0  0  0
  -28.3901  -32.6869   25.0210 H   0  0  0  0  0  0
  -28.0842  -31.8386   26.5268 H   0  0  0  0  0  0
  -28.2629  -38.0081   24.7517 H   0  0  0  0  0  0
  -28.1078  -36.2618   24.6293 H   0  0  0  0  0  0
  -27.2314  -37.1437   25.8872 H   0  0  0  0  0  0
  -20.9392  -29.8886   21.7047 H   0  0  0  0  0  0
  -26.0209  -38.2870   24.1450 H   0  0  0  0  0  0
  -30.0831  -20.8927   22.3507 H   0  0  0  0  0  0
  -27.8172  -18.4690   18.8130 H   0  0  0  0  0  0
  -31.0978  -17.0892   16.7840 H   0  0  0  0  0  0
  -30.3101  -18.3028   17.7453 H   0  0  0  0  0  0
  -29.5293  -16.7393   17.4671 H   0  0  0  0  0  0
  -33.2267  -17.4149   19.1454 H   0  0  0  0  0  0
  -32.3340  -17.3999   20.6525 H   0  0  0  0  0  0
  -32.0106  -18.6414   19.4549 H   0  0  0  0  0  0
  -28.2146  -22.6442   22.0491 H   0  0  0  0  0  0
  -27.0638  -22.4164   20.7949 H   0  0  0  0  0  0
  -28.2986  -16.3964   20.0864 H   0  0  0  0  0  0
  -29.1517  -16.4539   21.5928 H   0  0  0  0  0  0
  -28.4324  -23.7182   19.1744 H   0  0  0  0  0  0
  -29.7282  -23.8629   20.3310 H   0  0  0  0  0  0
  -28.3039  -25.2430   21.8460 H   0  0  0  0  0  0
  -26.9159  -24.9793   20.8695 H   0  0  0  0  0  0
  -31.8022  -15.8590   18.4382 H   0  0  0  0  0  0
  1 25  1  0  0  0
  1 30  2  0  0  0
  1 84  1  0  0  0
  2  3  1  0  0  0
  2 25  1  0  0  0
  2 85  1  0  0  0
  2 86  1  0  0  0
  3  4  1  0  0  0
  3 87  1  0  0  0
  3 88  1  0  0  0
  4  5  1  0  0  0
  4 89  1  0  0  0
  4 90  1  0  0  0
  5  6  1  0  0  0
  5 26  1  0  0  0
  5 91  1  0  0  0
  6 25  1  0  0  0
  6 92  1  0  0  0
  6 93  1  0  0  0
  7  8  2  0  0  0
  7 26  1  0  0  0
  7 29  1  0  0  0
  8  9  1  0  0  0
  8 22  1  0  0  0
  9 10  1  0  0  0
  9 27  2  0  0  0
 10 11  2  0  0  0
 10 15  1  0  0  0
 11 12  1  0  0  0
 11 94  1  0  0  0
 12 13  2  0  0  0
 12 95  1  0  0  0
 13 14  1  0  0  0
 13 31  1  0  0  0
 14 15  2  0  0  0
 14 96  1  0  0  0
 15 97  1  0  0  0
 16 17  2  0  0  0
 16 21  1  0  0  0
 16 31  1  0  0  0
 17 18  1  0  0  0
 17 98  1  0  0  0
 18 19  2  0  0  0
 18 99  1  0  0  0
 19 20  1  0  0  0
 19 24  1  0  0  0
 20 21  2  0  0  0
 20100  1  0  0  0
 21 23  1  0  0  0
 22 28  1  0  0  0
 22 32  2  0  0  0
 26 27  1  0  0  0
 28101  1  0  0  0
 28102  1  0  0  0
 29103  1  0  0  0
 29104  1  0  0  0
 33 34  1  0  0  0
 33 66  1  0  0  0
 33 70  2  0  0  0
 34 36  1  0  0  0
 34 59  1  0  0  0
 34105  1  0  0  0
 35 44  2  0  0  0
 35 45  1  0  0  0
 35 68  1  0  0  0
 36 56  1  0  0  0
 36106  1  0  0  0
 37 39  1  0  0  0
 37 47  1  0  0  0
 37 66  1  0  0  0
 37107  1  0  0  0
 38 43  2  0  0  0
 38 46  1  0  0  0
 38 47  1  0  0  0
 39 64  1  0  0  0
 39 67  2  0  0  0
 40 52  1  0  0  0
 40 53  2  0  0  0
 40 58  1  0  0  0
 41108  1  0  0  0
 41109  1  0  0  0
 41110  1  0  0  0
 41 48  1  0  0  0
 42 43  1  0  0  0
 42 66  1  0  0  0
 42111  1  0  0  0
 42112  1  0  0  0
 43 44  1  0  0  0
 44113  1  0  0  0
 45 46  2  0  0  0
 45114  1  0  0  0
 46115  1  0  0  0
 47116  1  0  0  0
 47117  1  0  0  0
 48 56  1  0  0  0
 48 65  1  0  0  0
 48118  1  0  0  0
 49 50  1  0  0  0
 49 53  1  0  0  0
 49 64  1  0  0  0
 49119  1  0  0  0
 50 51  1  0  0  0
 50120  1  0  0  0
 50121  1  0  0  0
 51 52  1  0  0  0
 51122  1  0  0  0
 51123  1  0  0  0
 52124  1  0  0  0
 52125  1  0  0  0
 53 54  1  0  0  0
 54 55  2  0  0  0
 54126  1  0  0  0
 55 57  1  0  0  0
 55127  1  0  0  0
 56 69  2  0  0  0
 57 58  2  0  0  0
 57128  1  0  0  0
 58129  1  0  0  0
 59 60  1  0  0  0
 59 61  1  0  0  0
 59 62  1  0  0  0
 60130  1  0  0  0
 60131  1  0  0  0
 60132  1  0  0  0
 61133  1  0  0  0
 61134  1  0  0  0
 61135  1  0  0  0
 62136  1  0  0  0
 62137  1  0  0  0
 62138  1  0  0  0
 63 65  1  0  0  0
 63139  1  0  0  0
 63140  1  0  0  0
 63141  1  0  0  0
 64142  1  0  0  0
 65143  1  0  0  0
 68 80  1  0  0  0
 71 73  2  0  0  0
 71 83  1  0  0  0
 71144  1  0  0  0
 72 74  1  0  0  0
 72 82  2  0  0  0
 72145  1  0  0  0
 73 77  1  0  0  0
 73 82  1  0  0  0
 74 78  1  0  0  0
 74 83  2  0  0  0
 75146  1  0  0  0
 75147  1  0  0  0
 75148  1  0  0  0
 75 81  1  0  0  0
 76 81  1  0  0  0
 76149  1  0  0  0
 76150  1  0  0  0
 76151  1  0  0  0
 77 79  1  0  0  0
 77152  1  0  0  0
 77153  1  0  0  0
 78 84  1  0  0  0
 78154  1  0  0  0
 78155  1  0  0  0
 79 80  1  0  0  0
 79156  1  0  0  0
 79157  1  0  0  0
 80158  1  0  0  0
 80159  1  0  0  0
 81 84  1  0  0  0
 81160  1  0  0  0
M  ISO  4   1 100  68 101  80 101  84 100
M  END
> <chiral flag>
0

> <version>
0

> <s_m_source_file>
/data/baiqing/PycharmProjects/Reinvent-master-3.2/result/LINK_invent/BTK/process_docking_weight1_custom_sum_contain_oxygen_bond_distance_aromatic_linkinvent_7_9_3/rearranged_h_0053.sdf

> <i_m_source_file_index>
38

> <r_mmod_Potential_Energy-OPLS-2005>
404.155212402344

> <r_mmod_Stretch_Energy-OPLS-2005>
88.9540557861328

> <r_mmod_Bend_Energy-OPLS-2005>
161.476165771484

> <r_mmod_Torsional_Energy-OPLS-2005>
329.941162109375

> <r_mmod_Improper_Torsional_Energy-OPLS-2005>
25.730562210083

> <r_mmod_Van_der_Waal_Energy-OPLS-2005>
146.51383972168

> <r_mmod_Electrostatic_Energy-OPLS-2005>
-236.402740478516

> <r_mmod_Solvation_Energy-OPLS-2005>
-206.463729858398

> <b_mmod_Minimization_Converged-OPLS-2005>
0

> <r_mmod_RMS_Derivative-OPLS-2005>
7.25861120223999

$$$$
38
                    3D
 Structure written by MMmdl.
172180  0  0  1  0            999 V2000
  -30.6787  -14.5970   20.6056 C   0  0  0  0  0  0
  -30.4187  -12.4070   19.4567 C   0  0  0  0  0  0
  -29.4935  -12.5415   18.2313 C   0  0  0  0  0  0
  -28.0325  -12.3302   18.6587 C   0  0  0  0  0  0
  -27.6477  -13.2076   19.8741 C   0  0  2  0  0  0
  -28.6772  -13.0834   21.0171 C   0  0  0  0  0  0
  -25.2522  -13.8180   20.5665 C   0  0  0  0  0  0
  -24.1816  -13.0482   20.9122 C   0  0  0  0  0  0
  -24.6281  -11.6912   20.8649 C   0  0  0  0  0  0
  -23.8959  -10.4282   21.0330 C   0  0  0  0  0  0
  -24.3534   -9.4207   21.9124 C   0  0  0  0  0  0
  -23.6227   -8.2237   22.0714 C   0  0  0  0  0  0
  -22.4219   -8.0213   21.3480 C   0  0  0  0  0  0
  -21.9828   -9.0175   20.4606 C   0  0  0  0  0  0
  -22.7133  -10.2082   20.3003 C   0  0  0  0  0  0
  -21.6853   -6.0665   22.5224 C   0  0  0  0  0  0
  -21.4039   -6.5605   23.8162 C   0  0  0  0  0  0
  -21.3648   -5.6794   24.9138 C   0  0  0  0  0  0
  -21.6041   -4.3035   24.7225 C   0  0  0  0  0  0
  -21.8839   -3.8106   23.4361 C   0  0  0  0  0  0
  -21.9188   -4.6903   22.3394 C   0  0  0  0  0  0
  -22.7824  -13.5225   21.1782 C   0  0  0  0  0  0
  -22.1676   -4.2112   21.0973 F   0  0  0  0  0  0
  -21.5586   -3.4517   25.7735 F   0  0  0  0  0  0
  -30.0000  -13.4122   20.4646 N   0  0  0  0  0  0
  -26.2903  -12.9320   20.3297 N   0  0  0  0  0  0
  -25.9206  -11.6488   20.5722 N   0  0  0  0  0  0
  -22.0504  -12.8222   22.0367 N   0  0  0  0  0  0
  -25.4391  -15.1906   20.4027 N   0  0  0  0  0  0
  -31.7649  -14.7503   20.0390 O   0  0  0  0  0  0
  -21.6622   -6.8786   21.4174 O   0  0  0  0  0  0
  -22.3550  -14.5528   20.6580 O   0  0  0  0  0  0
  -24.6255  -31.8618   23.2049 C   0  0  0  0  0  0
  -25.9094  -32.4790   23.8384 C   0  0  1  0  0  0
  -27.2437  -27.3527   20.1382 C   0  0  0  0  0  0
  -25.5911  -33.8598   24.2303 N   0  0  0  0  0  0
  -23.4218  -30.4768   21.5490 C   0  0  2  0  0  0
  -24.8756  -28.9364   20.1117 C   0  0  0  0  0  0
  -22.7514  -29.4569   22.4992 C   0  0  0  0  0  0
  -18.0244  -28.1263   22.8381 C   0  0  0  0  0  0
  -24.1515  -36.7321   23.2637 C   0  0  0  0  0  0
  -25.9604  -30.8069   21.3694 C   0  0  0  0  0  0
  -26.0407  -29.4319   20.7206 C   0  0  0  0  0  0
  -27.2317  -28.6503   20.7272 C   0  0  0  0  0  0
  -26.0682  -26.8952   19.5135 C   0  0  0  0  0  0
  -24.8900  -27.6724   19.4948 C   0  0  0  0  0  0
  -23.6339  -29.8086   20.1646 C   0  0  0  0  0  0
  -25.4132  -36.3087   24.0319 C   0  0  1  0  0  0
  -20.5847  -28.3612   23.1237 C   0  0  2  0  0  0
  -20.6806  -26.9334   22.5372 C   0  0  0  0  0  0
  -19.5813  -26.6274   21.5136 C   0  0  0  0  0  0
  -18.1938  -26.7804   22.1494 C   0  0  0  0  0  0
  -19.1484  -28.8757   23.2777 C   0  0  0  0  0  0
  -18.9418  -30.1330   23.8862 C   0  0  0  0  0  0
  -17.6427  -30.6482   24.0508 C   0  0  0  0  0  0
  -25.9029  -34.9445   23.5106 C   0  0  0  0  0  0
  -16.5319  -29.8998   23.6270 C   0  0  0  0  0  0
  -16.7222  -28.6397   23.0326 C   0  0  0  0  0  0
  -26.4462  -31.6596   25.0761 C   0  0  0  0  0  0
  -25.3599  -31.3743   26.1432 C   0  0  0  0  0  0
  -27.0342  -30.3035   24.6158 C   0  0  0  0  0  0
  -27.6031  -32.4327   25.7506 C   0  0  0  0  0  0
  -27.5625  -37.1838   24.8463 C   0  0  0  0  0  0
  -21.4228  -29.3010   22.3747 N   0  0  0  0  0  0
  -26.4332  -37.3748   23.9396 N   0  0  0  0  0  0
  -24.6874  -31.0634   22.0984 N   0  0  0  0  0  0
  -23.4267  -28.8099   23.3038 O   0  0  0  0  0  0
  -28.3760  -26.5485   20.0331 O   0  0  0  0  0  0
  -26.5597  -34.8896   22.4672 O   0  0  0  0  0  0
  -23.5408  -32.1399   23.7390 O   0  0  0  0  0  0
  -26.9347  -23.9928   21.7492 C   0  0  0  0  0  0
  -26.4897  -22.6765   21.8959 C   0  0  0  0  0  0
  -28.1956  -24.2006   21.1728 C   0  0  0  0  0  0
  -28.4264  -21.8537   20.9504 C   0  0  0  0  0  0
  -25.1514  -22.3279   22.5141 C   0  0  0  0  0  0
  -33.4457  -15.7792   23.5825 C   0  0  0  0  0  0
  -30.3500  -20.8855   19.5031 C   0  0  0  0  0  0
  -28.5691  -19.2497   22.4848 C   0  0  0  0  0  0
  -28.7591  -25.6657   21.1284 C   0  0  0  0  0  0
  -32.0576  -15.2205   23.2551 C   0  0  0  0  0  0
  -31.1993  -16.1954   22.4037 C   0  0  0  0  0  0
  -29.1413  -16.5707   21.1671 C   0  0  0  0  0  0
  -29.5398  -17.9714   20.4812 C   0  0  0  0  0  0
  -29.1033  -20.5488   20.3462 C   0  0  1  0  0  0
  -27.2262  -21.6387   21.4801 N   0  0  0  0  0  0
  -28.9427  -23.1045   20.7850 N   0  0  0  0  0  0
  -30.2234  -15.5656   21.4801 N   0  0  0  0  0  0
  -29.3551  -19.3078   21.2258 N   0  3  1  0  0  0
  -31.4614  -12.5152   19.1447 H   0  0  0  0  0  0
  -30.3471  -11.4032   19.8745 H   0  0  0  0  0  0
  -29.7604  -11.8192   17.4580 H   0  0  0  0  0  0
  -29.6183  -13.5312   17.7806 H   0  0  0  0  0  0
  -27.9019  -11.2760   18.9058 H   0  0  0  0  0  0
  -27.3649  -12.5387   17.8273 H   0  0  0  0  0  0
  -27.6691  -14.2361   19.5138 H   0  0  0  0  0  0
  -28.6800  -12.0638   21.4085 H   0  0  0  0  0  0
  -28.3974  -13.7379   21.8460 H   0  0  0  0  0  0
  -25.2636   -9.5735   22.4756 H   0  0  0  0  0  0
  -23.9909   -7.4671   22.7488 H   0  0  0  0  0  0
  -21.0735   -8.8693   19.8947 H   0  0  0  0  0  0
  -22.3506  -10.9614   19.6167 H   0  0  0  0  0  0
  -21.2111   -7.6137   23.9649 H   0  0  0  0  0  0
  -21.1423   -6.0528   25.9041 H   0  0  0  0  0  0
  -22.0637   -2.7561   23.2863 H   0  0  0  0  0  0
  -22.4114  -11.9847   22.4707 H   0  0  0  0  0  0
  -21.1120  -13.1261   22.2644 H   0  0  0  0  0  0
  -24.6791  -15.8604   20.4499 H   0  0  0  0  0  0
  -26.3023  -15.5869   20.0593 H   0  0  0  0  0  0
  -26.7260  -32.5433   23.1236 H   0  0  0  0  0  0
  -25.0090  -33.9682   25.0480 H   0  0  0  0  0  0
  -22.7087  -31.2918   21.4173 H   0  0  0  0  0  0
  -23.3711  -35.9716   23.3288 H   0  0  0  0  0  0
  -24.3617  -36.8959   22.2051 H   0  0  0  0  0  0
  -23.7325  -37.6545   23.6662 H   0  0  0  0  0  0
  -26.0662  -31.5754   20.6011 H   0  0  0  0  0  0
  -26.8493  -30.8656   21.9887 H   0  0  0  0  0  0
  -28.1341  -29.0463   21.1767 H   0  0  0  0  0  0
  -26.0645  -25.9224   19.0410 H   0  0  0  0  0  0
  -24.0043  -27.2896   19.0084 H   0  0  0  0  0  0
  -23.7480  -30.5947   19.4173 H   0  0  0  0  0  0
  -22.7544  -29.2350   19.8639 H   0  0  0  0  0  0
  -25.1313  -36.1977   25.0807 H   0  0  0  0  0  0
  -20.9811  -28.3204   24.1401 H   0  0  0  0  0  0
  -20.5700  -26.2239   23.3587 H   0  0  0  0  0  0
  -21.6686  -26.7413   22.1169 H   0  0  0  0  0  0
  -19.7079  -25.6165   21.1193 H   0  0  0  0  0  0
  -19.6791  -27.3044   20.6632 H   0  0  0  0  0  0
  -17.4258  -26.6396   21.3868 H   0  0  0  0  0  0
  -18.0403  -25.9935   22.8888 H   0  0  0  0  0  0
  -19.7915  -30.7037   24.2336 H   0  0  0  0  0  0
  -17.5003  -31.6170   24.5048 H   0  0  0  0  0  0
  -15.5299  -30.2919   23.7590 H   0  0  0  0  0  0
  -15.8616  -28.0705   22.7174 H   0  0  0  0  0  0
  -24.5729  -30.7168   25.7710 H   0  0  0  0  0  0
  -24.8797  -32.2928   26.4778 H   0  0  0  0  0  0
  -25.7777  -30.8922   27.0272 H   0  0  0  0  0  0
  -26.2944  -29.6746   24.1207 H   0  0  0  0  0  0
  -27.4123  -29.7329   25.4651 H   0  0  0  0  0  0
  -27.8749  -30.4349   23.9350 H   0  0  0  0  0  0
  -27.2668  -33.3633   26.2069 H   0  0  0  0  0  0
  -28.3813  -32.6872   25.0298 H   0  0  0  0  0  0
  -28.0710  -31.8462   26.5387 H   0  0  0  0  0  0
  -28.2624  -38.0173   24.7509 H   0  0  0  0  0  0
  -28.1165  -36.2690   24.6302 H   0  0  0  0  0  0
  -27.2333  -37.1466   25.8871 H   0  0  0  0  0  0
  -20.9458  -29.8827   21.6991 H   0  0  0  0  0  0
  -26.0215  -38.2831   24.1349 H   0  0  0  0  0  0
  -26.3328  -24.8254   22.0956 H   0  0  0  0  0  0
  -24.7534  -23.1160   23.1609 H   0  0  0  0  0  0
  -25.2404  -21.4141   23.0999 H   0  0  0  0  0  0
  -24.4409  -22.1252   21.7140 H   0  0  0  0  0  0
  -34.0625  -14.9878   24.0116 H   0  0  0  0  0  0
  -33.4067  -16.5998   24.3012 H   0  0  0  0  0  0
  -33.9309  -16.1485   22.6751 H   0  0  0  0  0  0
  -30.1227  -21.6404   18.7485 H   0  0  0  0  0  0
  -30.7310  -20.0176   18.9676 H   0  0  0  0  0  0
  -31.1506  -21.2771   20.1290 H   0  0  0  0  0  0
  -28.9638  -18.5001   23.1672 H   0  0  0  0  0  0
  -27.5147  -19.0221   22.3187 H   0  0  0  0  0  0
  -28.6590  -20.1873   23.0352 H   0  0  0  0  0  0
  -29.8520  -25.6458   21.1832 H   0  0  0  0  0  0
  -28.4552  -26.1629   22.0494 H   0  0  0  0  0  0
  -31.5625  -14.9691   24.1942 H   0  0  0  0  0  0
  -32.2062  -14.2743   22.7444 H   0  0  0  0  0  0
  -31.8527  -16.8202   21.7914 H   0  0  0  0  0  0
  -30.6965  -16.8842   23.0873 H   0  0  0  0  0  0
  -28.4813  -16.0667   20.4598 H   0  0  0  0  0  0
  -28.5040  -16.6929   22.0394 H   0  0  0  0  0  0
  -28.9374  -18.0259   19.5694 H   0  0  0  0  0  0
  -30.5606  -17.9140   20.0980 H   0  0  0  0  0  0
  -28.3327  -20.2155   19.6509 H   0  0  0  0  0  0
  -30.2720  -19.4949   21.5998 H   0  0  0  0  0  0
  1 25  1  0  0  0
  1 30  2  0  0  0
  1 87  1  0  0  0
  2  3  1  0  0  0
  2 25  1  0  0  0
  2 89  1  0  0  0
  2 90  1  0  0  0
  3  4  1  0  0  0
  3 91  1  0  0  0
  3 92  1  0  0  0
  4  5  1  0  0  0
  4 93  1  0  0  0
  4 94  1  0  0  0
  5  6  1  0  0  0
  5 26  1  0  0  0
  5 95  1  0  0  0
  6 25  1  0  0  0
  6 96  1  0  0  0
  6 97  1  0  0  0
  7  8  2  0  0  0
  7 26  1  0  0  0
  7 29  1  0  0  0
  8  9  1  0  0  0
  8 22  1  0  0  0
  9 10  1  0  0  0
  9 27  2  0  0  0
 10 11  2  0  0  0
 10 15  1  0  0  0
 11 12  1  0  0  0
 11 98  1  0  0  0
 12 13  2  0  0  0
 12 99  1  0  0  0
 13 14  1  0  0  0
 13 31  1  0  0  0
 14 15  2  0  0  0
 14100  1  0  0  0
 15101  1  0  0  0
 16 17  2  0  0  0
 16 21  1  0  0  0
 16 31  1  0  0  0
 17 18  1  0  0  0
 17102  1  0  0  0
 18 19  2  0  0  0
 18103  1  0  0  0
 19 20  1  0  0  0
 19 24  1  0  0  0
 20 21  2  0  0  0
 20104  1  0  0  0
 21 23  1  0  0  0
 22 28  1  0  0  0
 22 32  2  0  0  0
 26 27  1  0  0  0
 28105  1  0  0  0
 28106  1  0  0  0
 29107  1  0  0  0
 29108  1  0  0  0
 33 34  1  0  0  0
 33 66  1  0  0  0
 33 70  2  0  0  0
 34 36  1  0  0  0
 34 59  1  0  0  0
 34109  1  0  0  0
 35 44  2  0  0  0
 35 45  1  0  0  0
 35 68  1  0  0  0
 36 56  1  0  0  0
 36110  1  0  0  0
 37 39  1  0  0  0
 37 47  1  0  0  0
 37 66  1  0  0  0
 37111  1  0  0  0
 38 43  2  0  0  0
 38 46  1  0  0  0
 38 47  1  0  0  0
 39 64  1  0  0  0
 39 67  2  0  0  0
 40 52  1  0  0  0
 40 53  2  0  0  0
 40 58  1  0  0  0
 41112  1  0  0  0
 41113  1  0  0  0
 41114  1  0  0  0
 41 48  1  0  0  0
 42 43  1  0  0  0
 42 66  1  0  0  0
 42115  1  0  0  0
 42116  1  0  0  0
 43 44  1  0  0  0
 44117  1  0  0  0
 45 46  2  0  0  0
 45118  1  0  0  0
 46119  1  0  0  0
 47120  1  0  0  0
 47121  1  0  0  0
 48 56  1  0  0  0
 48 65  1  0  0  0
 48122  1  0  0  0
 49 50  1  0  0  0
 49 53  1  0  0  0
 49 64  1  0  0  0
 49123  1  0  0  0
 50 51  1  0  0  0
 50124  1  0  0  0
 50125  1  0  0  0
 51 52  1  0  0  0
 51126  1  0  0  0
 51127  1  0  0  0
 52128  1  0  0  0
 52129  1  0  0  0
 53 54  1  0  0  0
 54 55  2  0  0  0
 54130  1  0  0  0
 55 57  1  0  0  0
 55131  1  0  0  0
 56 69  2  0  0  0
 57 58  2  0  0  0
 57132  1  0  0  0
 58133  1  0  0  0
 59 60  1  0  0  0
 59 61  1  0  0  0
 59 62  1  0  0  0
 60134  1  0  0  0
 60135  1  0  0  0
 60136  1  0  0  0
 61137  1  0  0  0
 61138  1  0  0  0
 61139  1  0  0  0
 62140  1  0  0  0
 62141  1  0  0  0
 62142  1  0  0  0
 63 65  1  0  0  0
 63143  1  0  0  0
 63144  1  0  0  0
 63145  1  0  0  0
 64146  1  0  0  0
 65147  1  0  0  0
 68 79  1  0  0  0
 71 72  2  0  0  0
 71 73  1  0  0  0
 71148  1  0  0  0
 72 75  1  0  0  0
 72 85  1  0  0  0
 73 79  1  0  0  0
 73 86  2  0  0  0
 74 84  1  0  0  0
 74 85  2  0  0  0
 74 86  1  0  0  0
 75149  1  0  0  0
 75150  1  0  0  0
 75151  1  0  0  0
 76 80  1  0  0  0
 76152  1  0  0  0
 76153  1  0  0  0
 76154  1  0  0  0
 77155  1  0  0  0
 77156  1  0  0  0
 77157  1  0  0  0
 77 84  1  0  0  0
 78158  1  0  0  0
 78159  1  0  0  0
 78160  1  0  0  0
 78 88  1  0  0  0
 79161  1  0  0  0
 79162  1  0  0  0
 80 81  1  0  0  0
 80163  1  0  0  0
 80164  1  0  0  0
 81 87  1  0  0  0
 81165  1  0  0  0
 81166  1  0  0  0
 82 83  1  0  0  0
 82 87  1  0  0  0
 82167  1  0  0  0
 82168  1  0  0  0
 83 88  1  0  0  0
 83169  1  0  0  0
 83170  1  0  0  0
 84 88  1  0  0  0
 84171  1  0  0  0
 88172  1  0  0  0
M  CHG  1  88   1
M  ISO  4   1 100  68 101  79 101  87 100
M  END
> <chiral flag>
0

> <version>
0

> <s_m_source_file>
/data/baiqing/PycharmProjects/Reinvent-master-3.2/result/LINK_invent/BTK/process_docking_weight1_custom_sum_contain_oxygen_bond_distance_aromatic_linkinvent_7_9_3/rearranged_h_0053.sdf

> <i_m_source_file_index>
39

> <r_mmod_Potential_Energy-OPLS-2005>
-254.770904541016

> <r_mmod_Stretch_Energy-OPLS-2005>
95.0526275634766

> <r_mmod_Bend_Energy-OPLS-2005>
186.722076416016

> <r_mmod_Torsional_Energy-OPLS-2005>
370.197357177734

> <r_mmod_Improper_Torsional_Energy-OPLS-2005>
7.42021083831787

> <r_mmod_Van_der_Waal_Energy-OPLS-2005>
153.032104492188

> <r_mmod_Electrostatic_Energy-OPLS-2005>
-678.871826171875

> <r_mmod_Solvation_Energy-OPLS-2005>
-421.733123779297

> <b_mmod_Minimization_Converged-OPLS-2005>
0

> <r_mmod_RMS_Derivative-OPLS-2005>
8.92018699645996

$$$$
39
                    3D
 Structure written by MMmdl.
161170  0  0  1  0            999 V2000
  -30.6498  -14.6767   20.4602 C   0  0  0  0  0  0
  -30.4213  -12.4087   19.4757 C   0  0  0  0  0  0
  -29.5057  -12.4998   18.2360 C   0  0  0  0  0  0
  -28.0298  -12.3383   18.6460 C   0  0  0  0  0  0
  -27.6441  -13.2303   19.8569 C   0  0  2  0  0  0
  -28.6875  -13.1477   20.9942 C   0  0  0  0  0  0
  -25.2507  -13.8201   20.5694 C   0  0  0  0  0  0
  -24.1797  -13.0446   20.9206 C   0  0  0  0  0  0
  -24.6387  -11.6923   20.8753 C   0  0  0  0  0  0
  -23.9068  -10.4296   21.0408 C   0  0  0  0  0  0
  -24.3619   -9.4209   21.9184 C   0  0  0  0  0  0
  -23.6294   -8.2245   22.0753 C   0  0  0  0  0  0
  -22.4277   -8.0281   21.3543 C   0  0  0  0  0  0
  -21.9913   -9.0256   20.4646 C   0  0  0  0  0  0
  -22.7242  -10.2135   20.3056 C   0  0  0  0  0  0
  -21.6854   -6.0733   22.5277 C   0  0  0  0  0  0
  -21.4015   -6.5638   23.8210 C   0  0  0  0  0  0
  -21.3660   -5.6793   24.9173 C   0  0  0  0  0  0
  -21.6046   -4.3056   24.7226 C   0  0  0  0  0  0
  -21.8819   -3.8146   23.4347 C   0  0  0  0  0  0
  -21.9192   -4.6960   22.3402 C   0  0  0  0  0  0
  -22.7817  -13.5222   21.1869 C   0  0  0  0  0  0
  -22.1660   -4.2145   21.0979 F   0  0  0  0  0  0
  -21.5630   -3.4540   25.7740 F   0  0  0  0  0  0
  -29.9982  -13.4689   20.4176 N   0  0  0  0  0  0
  -26.2941  -12.9410   20.3309 N   0  0  0  0  0  0
  -25.9319  -11.6552   20.5769 N   0  0  0  0  0  0
  -22.0468  -12.8205   22.0425 N   0  0  0  0  0  0
  -25.4197  -15.1925   20.4096 N   0  0  0  0  0  0
  -31.8301  -14.7547   20.1118 O   0  0  0  0  0  0
  -21.6641   -6.8877   21.4238 O   0  0  0  0  0  0
  -22.3498  -14.5527   20.6717 O   0  0  0  0  0  0
  -24.6267  -31.8587   23.2023 C   0  0  0  0  0  0
  -25.9110  -32.4770   23.8354 C   0  0  1  0  0  0
  -27.2170  -27.3035   20.1326 C   0  0  0  0  0  0
  -25.5926  -33.8571   24.2279 N   0  0  0  0  0  0
  -23.4227  -30.4808   21.5440 C   0  0  2  0  0  0
  -24.8728  -28.9357   20.1083 C   0  0  0  0  0  0
  -22.7481  -29.4610   22.4926 C   0  0  0  0  0  0
  -18.0287  -28.1382   22.8484 C   0  0  0  0  0  0
  -24.1490  -36.7290   23.2640 C   0  0  0  0  0  0
  -25.9645  -30.7839   21.3784 C   0  0  0  0  0  0
  -26.0396  -29.4088   20.7240 C   0  0  0  0  0  0
  -27.2187  -28.6018   20.7314 C   0  0  0  0  0  0
  -26.0440  -26.9002   19.4633 C   0  0  0  0  0  0
  -24.8766  -27.6866   19.4675 C   0  0  0  0  0  0
  -23.6401  -29.8161   20.1589 C   0  0  0  0  0  0
  -25.4114  -36.3077   24.0331 C   0  0  1  0  0  0
  -20.5889  -28.3689   23.1276 C   0  0  2  0  0  0
  -20.6777  -26.9410   22.5408 C   0  0  0  0  0  0
  -19.5751  -26.6382   21.5210 C   0  0  0  0  0  0
  -18.1930  -26.7925   22.1621 C   0  0  0  0  0  0
  -19.1542  -28.8851   23.2875 C   0  0  0  0  0  0
  -18.9465  -30.1450   23.8895 C   0  0  0  0  0  0
  -17.6467  -30.6587   24.0560 C   0  0  0  0  0  0
  -25.9054  -34.9446   23.5108 C   0  0  0  0  0  0
  -16.5356  -29.9085   23.6332 C   0  0  0  0  0  0
  -16.7275  -28.6501   23.0355 C   0  0  0  0  0  0
  -26.4497  -31.6576   25.0724 C   0  0  0  0  0  0
  -25.3729  -31.3714   26.1451 C   0  0  0  0  0  0
  -27.0347  -30.2997   24.6184 C   0  0  0  0  0  0
  -27.6056  -32.4316   25.7496 C   0  0  0  0  0  0
  -27.5578  -37.1795   24.8463 C   0  0  0  0  0  0
  -21.4194  -29.3041   22.3667 N   0  0  0  0  0  0
  -26.4289  -37.3771   23.9410 N   0  0  0  0  0  0
  -24.6896  -31.0585   22.0982 N   0  0  0  0  0  0
  -23.4193  -28.8153   23.3017 O   0  0  0  0  0  0
  -28.2910  -26.3965   20.1559 O   0  0  0  0  0  0
  -26.5625  -34.8914   22.4675 O   0  0  0  0  0  0
  -23.5425  -32.1400   23.7335 O   0  0  0  0  0  0
  -29.7458  -20.1974   22.1558 C   0  0  0  0  0  0
  -29.3680  -21.2032   21.2371 C   0  0  0  0  0  0
  -29.1422  -20.7451   19.9356 C   0  0  0  0  0  0
  -29.7607  -18.5501   20.5297 C   0  0  0  0  0  0
  -29.2095  -22.7031   21.6462 C   0  0  0  0  0  0
  -28.7068  -21.7557   18.8690 C   0  0  0  0  0  0
  -28.0546  -23.0690   19.4254 C   0  0  0  0  0  0
  -28.8714  -23.7945   20.5323 C   0  0  1  0  0  0
  -26.8555  -24.9564   21.6819 C   0  0  0  0  0  0
  -29.1687  -25.7272   22.2061 C   0  0  0  0  0  0
  -30.3315  -17.1608   20.0523 C   0  0  0  0  0  0
  -28.2617  -25.2101   21.0730 C   0  0  0  0  0  0
  -29.9418  -18.8976   21.8036 N   0  0  0  0  0  0
  -29.3491  -19.4336   19.5949 N   0  0  0  0  0  0
  -29.9156  -15.8258   20.6267 N   0  0  0  0  0  0
  -31.4667  -12.5046   19.1781 H   0  0  0  0  0  0
  -30.3366  -11.4278   19.9465 H   0  0  0  0  0  0
  -29.7768  -11.7345   17.5075 H   0  0  0  0  0  0
  -29.6476  -13.4606   17.7389 H   0  0  0  0  0  0
  -27.8720  -11.2886   18.8956 H   0  0  0  0  0  0
  -27.3764  -12.5495   17.7984 H   0  0  0  0  0  0
  -27.6457  -14.2555   19.4866 H   0  0  0  0  0  0
  -28.7017  -12.1507   21.4371 H   0  0  0  0  0  0
  -28.4352  -13.8374   21.8012 H   0  0  0  0  0  0
  -25.2763   -9.5685   22.4761 H   0  0  0  0  0  0
  -24.0003   -7.4635   22.7470 H   0  0  0  0  0  0
  -21.0847   -8.8775   19.8949 H   0  0  0  0  0  0
  -22.3700  -10.9675   19.6167 H   0  0  0  0  0  0
  -21.2008   -7.6147   23.9711 H   0  0  0  0  0  0
  -21.1484   -6.0524   25.9076 H   0  0  0  0  0  0
  -22.0598   -2.7607   23.2850 H   0  0  0  0  0  0
  -22.4093  -11.9867   22.4808 H   0  0  0  0  0  0
  -21.1084  -13.1218   22.2637 H   0  0  0  0  0  0
  -24.6497  -15.8448   20.5128 H   0  0  0  0  0  0
  -26.2626  -15.6304   20.0612 H   0  0  0  0  0  0
  -26.7172  -32.5445   23.1097 H   0  0  0  0  0  0
  -25.0064  -33.9718   25.0416 H   0  0  0  0  0  0
  -22.7174  -31.3017   21.3987 H   0  0  0  0  0  0
  -23.3752  -35.9622   23.3302 H   0  0  0  0  0  0
  -24.3577  -36.8917   22.2054 H   0  0  0  0  0  0
  -23.7249  -37.6492   23.6666 H   0  0  0  0  0  0
  -26.0976  -31.5452   20.6087 H   0  0  0  0  0  0
  -26.8440  -30.8344   22.0082 H   0  0  0  0  0  0
  -28.1123  -28.9525   21.2282 H   0  0  0  0  0  0
  -26.0230  -25.9402   18.9670 H   0  0  0  0  0  0
  -23.9861  -27.3222   18.9736 H   0  0  0  0  0  0
  -23.7582  -30.5933   19.4028 H   0  0  0  0  0  0
  -22.7603  -29.2446   19.8573 H   0  0  0  0  0  0
  -25.1290  -36.1929   25.0824 H   0  0  0  0  0  0
  -20.9978  -28.3272   24.1398 H   0  0  0  0  0  0
  -20.5675  -26.2304   23.3612 H   0  0  0  0  0  0
  -21.6645  -26.7442   22.1198 H   0  0  0  0  0  0
  -19.6922  -25.6293   21.1240 H   0  0  0  0  0  0
  -19.6690  -27.3192   20.6739 H   0  0  0  0  0  0
  -17.4200  -26.6670   21.4024 H   0  0  0  0  0  0
  -18.0329  -26.0071   22.9020 H   0  0  0  0  0  0
  -19.7944  -30.7256   24.2270 H   0  0  0  0  0  0
  -17.5029  -31.6269   24.5154 H   0  0  0  0  0  0
  -15.5357  -30.2985   23.7662 H   0  0  0  0  0  0
  -15.8676  -28.0817   22.7078 H   0  0  0  0  0  0
  -24.5915  -30.7052   25.7777 H   0  0  0  0  0  0
  -24.8906  -32.2877   26.4866 H   0  0  0  0  0  0
  -25.8052  -30.8901   27.0234 H   0  0  0  0  0  0
  -26.2927  -29.6741   24.1210 H   0  0  0  0  0  0
  -27.4045  -29.7257   25.4690 H   0  0  0  0  0  0
  -27.8794  -30.4277   23.9413 H   0  0  0  0  0  0
  -27.2669  -33.3624   26.2058 H   0  0  0  0  0  0
  -28.3874  -32.6865   25.0329 H   0  0  0  0  0  0
  -28.0715  -31.8453   26.5428 H   0  0  0  0  0  0
  -28.2583  -38.0102   24.7518 H   0  0  0  0  0  0
  -28.1085  -36.2634   24.6277 H   0  0  0  0  0  0
  -27.2298  -37.1429   25.8866 H   0  0  0  0  0  0
  -20.9376  -29.8767   21.6877 H   0  0  0  0  0  0
  -26.0173  -38.2844   24.1417 H   0  0  0  0  0  0
  -29.9272  -20.4432   23.1917 H   0  0  0  0  0  0
  -30.1202  -23.0019   22.1669 H   0  0  0  0  0  0
  -28.4329  -22.7041   22.4081 H   0  0  0  0  0  0
  -28.0117  -21.2687   18.1845 H   0  0  0  0  0  0
  -29.5868  -22.0132   18.2788 H   0  0  0  0  0  0
  -27.0774  -22.8058   19.8292 H   0  0  0  0  0  0
  -27.8639  -23.7560   18.6008 H   0  0  0  0  0  0
  -29.8249  -24.0436   20.0633 H   0  0  0  0  0  0
  -26.1349  -24.6322   20.9328 H   0  0  0  0  0  0
  -26.4508  -25.8438   22.1700 H   0  0  0  0  0  0
  -26.8708  -24.1862   22.4498 H   0  0  0  0  0  0
  -29.2046  -25.0421   23.0527 H   0  0  0  0  0  0
  -28.8168  -26.6841   22.5925 H   0  0  0  0  0  0
  -30.1910  -25.8743   21.8557 H   0  0  0  0  0  0
  -31.4138  -17.2530   20.1540 H   0  0  0  0  0  0
  -30.1591  -17.0945   18.9774 H   0  0  0  0  0  0
  -28.9557  -15.7478   20.9220 H   0  0  0  0  0  0
  1 25  1  0  0  0
  1 30  2  0  0  0
  1 85  1  0  0  0
  2  3  1  0  0  0
  2 25  1  0  0  0
  2 86  1  0  0  0
  2 87  1  0  0  0
  3  4  1  0  0  0
  3 88  1  0  0  0
  3 89  1  0  0  0
  4  5  1  0  0  0
  4 90  1  0  0  0
  4 91  1  0  0  0
  5  6  1  0  0  0
  5 26  1  0  0  0
  5 92  1  0  0  0
  6 25  1  0  0  0
  6 93  1  0  0  0
  6 94  1  0  0  0
  7  8  2  0  0  0
  7 26  1  0  0  0
  7 29  1  0  0  0
  8  9  1  0  0  0
  8 22  1  0  0  0
  9 10  1  0  0  0
  9 27  2  0  0  0
 10 11  2  0  0  0
 10 15  1  0  0  0
 11 12  1  0  0  0
 11 95  1  0  0  0
 12 13  2  0  0  0
 12 96  1  0  0  0
 13 14  1  0  0  0
 13 31  1  0  0  0
 14 15  2  0  0  0
 14 97  1  0  0  0
 15 98  1  0  0  0
 16 17  2  0  0  0
 16 21  1  0  0  0
 16 31  1  0  0  0
 17 18  1  0  0  0
 17 99  1  0  0  0
 18 19  2  0  0  0
 18100  1  0  0  0
 19 20  1  0  0  0
 19 24  1  0  0  0
 20 21  2  0  0  0
 20101  1  0  0  0
 21 23  1  0  0  0
 22 28  1  0  0  0
 22 32  2  0  0  0
 26 27  1  0  0  0
 28102  1  0  0  0
 28103  1  0  0  0
 29104  1  0  0  0
 29105  1  0  0  0
 33 34  1  0  0  0
 33 66  1  0  0  0
 33 70  2  0  0  0
 34 36  1  0  0  0
 34 59  1  0  0  0
 34106  1  0  0  0
 35 44  2  0  0  0
 35 45  1  0  0  0
 35 68  1  0  0  0
 36 56  1  0  0  0
 36107  1  0  0  0
 37 39  1  0  0  0
 37 47  1  0  0  0
 37 66  1  0  0  0
 37108  1  0  0  0
 38 43  2  0  0  0
 38 46  1  0  0  0
 38 47  1  0  0  0
 39 64  1  0  0  0
 39 67  2  0  0  0
 40 52  1  0  0  0
 40 53  2  0  0  0
 40 58  1  0  0  0
 41109  1  0  0  0
 41110  1  0  0  0
 41111  1  0  0  0
 41 48  1  0  0  0
 42 43  1  0  0  0
 42 66  1  0  0  0
 42112  1  0  0  0
 42113  1  0  0  0
 43 44  1  0  0  0
 44114  1  0  0  0
 45 46  2  0  0  0
 45115  1  0  0  0
 46116  1  0  0  0
 47117  1  0  0  0
 47118  1  0  0  0
 48 56  1  0  0  0
 48 65  1  0  0  0
 48119  1  0  0  0
 49 50  1  0  0  0
 49 53  1  0  0  0
 49 64  1  0  0  0
 49120  1  0  0  0
 50 51  1  0  0  0
 50121  1  0  0  0
 50122  1  0  0  0
 51 52  1  0  0  0
 51123  1  0  0  0
 51124  1  0  0  0
 52125  1  0  0  0
 52126  1  0  0  0
 53 54  1  0  0  0
 54 55  2  0  0  0
 54127  1  0  0  0
 55 57  1  0  0  0
 55128  1  0  0  0
 56 69  2  0  0  0
 57 58  2  0  0  0
 57129  1  0  0  0
 58130  1  0  0  0
 59 60  1  0  0  0
 59 61  1  0  0  0
 59 62  1  0  0  0
 60131  1  0  0  0
 60132  1  0  0  0
 60133  1  0  0  0
 61134  1  0  0  0
 61135  1  0  0  0
 61136  1  0  0  0
 62137  1  0  0  0
 62138  1  0  0  0
 62139  1  0  0  0
 63 65  1  0  0  0
 63140  1  0  0  0
 63141  1  0  0  0
 63142  1  0  0  0
 64143  1  0  0  0
 65144  1  0  0  0
 68 82  1  0  0  0
 71 72  2  0  0  0
 71 83  1  0  0  0
 71145  1  0  0  0
 72 73  1  0  0  0
 72 75  1  0  0  0
 73 76  1  0  0  0
 73 84  2  0  0  0
 74 81  1  0  0  0
 74 83  2  0  0  0
 74 84  1  0  0  0
 75146  1  0  0  0
 75147  1  0  0  0
 75 78  1  0  0  0
 76 77  1  0  0  0
 76148  1  0  0  0
 76149  1  0  0  0
 77 78  1  0  0  0
 77150  1  0  0  0
 77151  1  0  0  0
 78 82  1  0  0  0
 78152  1  0  0  0
 79153  1  0  0  0
 79154  1  0  0  0
 79155  1  0  0  0
 79 82  1  0  0  0
 80 82  1  0  0  0
 80156  1  0  0  0
 80157  1  0  0  0
 80158  1  0  0  0
 81 85  1  0  0  0
 81159  1  0  0  0
 81160  1  0  0  0
 85161  1  0  0  0
M  ISO  4   1 100  68 101  82 101  85 100
M  END
> <chiral flag>
0

> <version>
0

> <s_m_source_file>
/data/baiqing/PycharmProjects/Reinvent-master-3.2/result/LINK_invent/BTK/process_docking_weight1_custom_sum_contain_oxygen_bond_distance_aromatic_linkinvent_7_9_3/rearranged_h_0053.sdf

> <i_m_source_file_index>
40

> <r_mmod_Potential_Energy-OPLS-2005>
-417.042297363281

> <r_mmod_Stretch_Energy-OPLS-2005>
93.2909851074219

> <r_mmod_Bend_Energy-OPLS-2005>
159.932678222656

> <r_mmod_Torsional_Energy-OPLS-2005>
251.386810302734

> <r_mmod_Improper_Torsional_Energy-OPLS-2005>
8.90585327148438

> <r_mmod_Van_der_Waal_Energy-OPLS-2005>
154.958862304688

> <r_mmod_Electrostatic_Energy-OPLS-2005>
-922.03759765625

> <r_mmod_Solvation_Energy-OPLS-2005>
-227.369262695312

> <b_mmod_Minimization_Converged-OPLS-2005>
0

> <r_mmod_RMS_Derivative-OPLS-2005>
0.601261377334595

$$$$
40
                    3D
 Structure written by MMmdl.
166174  0  0  1  0            999 V2000
  -30.5178  -15.1009   20.3849 C   0  0  0  0  0  0
  -30.4393  -12.6967   19.4999 C   0  0  0  0  0  0
  -29.5172  -12.5254   18.2694 C   0  0  0  0  0  0
  -28.0716  -12.2398   18.7157 C   0  0  0  0  0  0
  -27.6049  -13.2054   19.8277 C   0  0  2  0  0  0
  -28.6568  -13.3715   20.9502 C   0  0  0  0  0  0
  -25.2358  -13.8000   20.5744 C   0  0  0  0  0  0
  -24.1699  -13.0290   20.9315 C   0  0  0  0  0  0
  -24.6313  -11.6766   20.8862 C   0  0  0  0  0  0
  -23.9003  -10.4190   21.0487 C   0  0  0  0  0  0
  -24.3562   -9.4104   21.9251 C   0  0  0  0  0  0
  -23.6241   -8.2143   22.0776 C   0  0  0  0  0  0
  -22.4232   -8.0218   21.3536 C   0  0  0  0  0  0
  -21.9867   -9.0200   20.4646 C   0  0  0  0  0  0
  -22.7202  -10.2071   20.3095 C   0  0  0  0  0  0
  -21.6821   -6.0702   22.5281 C   0  0  0  0  0  0
  -21.3998   -6.5622   23.8217 C   0  0  0  0  0  0
  -21.3665   -5.6785   24.9185 C   0  0  0  0  0  0
  -21.6034   -4.3046   24.7249 C   0  0  0  0  0  0
  -21.8805   -3.8126   23.4377 C   0  0  0  0  0  0
  -21.9172   -4.6931   22.3425 C   0  0  0  0  0  0
  -22.7740  -13.5120   21.1925 C   0  0  0  0  0  0
  -22.1654   -4.2122   21.1004 F   0  0  0  0  0  0
  -21.5635   -3.4537   25.7771 F   0  0  0  0  0  0
  -29.9073  -13.8313   20.3186 N   0  0  0  0  0  0
  -26.2763  -12.9159   20.3312 N   0  0  0  0  0  0
  -25.9223  -11.6339   20.5850 N   0  0  0  0  0  0
  -22.0366  -12.8165   22.0479 N   0  0  0  0  0  0
  -25.3861  -15.1716   20.4025 N   0  0  0  0  0  0
  -31.7492  -15.0883   20.2649 O   0  0  0  0  0  0
  -21.6581   -6.8833   21.4243 O   0  0  0  0  0  0
  -22.3455  -14.5435   20.6745 O   0  0  0  0  0  0
  -24.6460  -31.8399   23.1826 C   0  0  0  0  0  0
  -25.9220  -32.4672   23.8230 C   0  0  1  0  0  0
  -27.2264  -27.0999   20.1848 C   0  0  0  0  0  0
  -25.5948  -33.8478   24.2161 N   0  0  0  0  0  0
  -23.4522  -30.4568   21.5278 C   0  0  2  0  0  0
  -24.9022  -28.8614   20.1217 C   0  0  0  0  0  0
  -22.7560  -29.4545   22.4839 C   0  0  0  0  0  0
  -18.0328  -28.1375   22.8505 C   0  0  0  0  0  0
  -24.1489  -36.7245   23.2644 C   0  0  0  0  0  0
  -26.0077  -30.7054   21.3819 C   0  0  0  0  0  0
  -26.0791  -29.3079   20.7346 C   0  0  0  0  0  0
  -27.2436  -28.4482   20.7344 C   0  0  0  0  0  0
  -26.0205  -26.7470   19.5462 C   0  0  0  0  0  0
  -24.8873  -27.5956   19.5090 C   0  0  0  0  0  0
  -23.6820  -29.7733   20.1519 C   0  0  0  0  0  0
  -25.4126  -36.3024   24.0318 C   0  0  1  0  0  0
  -20.5930  -28.3742   23.1213 C   0  0  2  0  0  0
  -20.6812  -26.9447   22.5380 C   0  0  0  0  0  0
  -19.5768  -26.6375   21.5214 C   0  0  0  0  0  0
  -18.1960  -26.7907   22.1657 C   0  0  0  0  0  0
  -19.1581  -28.8875   23.2853 C   0  0  0  0  0  0
  -18.9488  -30.1483   23.8855 C   0  0  0  0  0  0
  -17.6487  -30.6601   24.0544 C   0  0  0  0  0  0
  -25.9082  -34.9399   23.5059 C   0  0  0  0  0  0
  -16.5382  -29.9068   23.6347 C   0  0  0  0  0  0
  -16.7308  -28.6475   23.0386 C   0  0  0  0  0  0
  -26.4530  -31.6540   25.0676 C   0  0  0  0  0  0
  -25.3706  -31.3716   26.1364 C   0  0  0  0  0  0
  -27.0399  -30.2934   24.6263 C   0  0  0  0  0  0
  -27.6053  -32.4308   25.7473 C   0  0  0  0  0  0
  -27.5579  -37.1781   24.8470 C   0  0  0  0  0  0
  -21.4247  -29.3078   22.3586 N   0  0  0  0  0  0
  -26.4290  -37.3740   23.9411 N   0  0  0  0  0  0
  -24.7227  -31.0243   22.0855 N   0  0  0  0  0  0
  -23.4171  -28.8130   23.3048 O   0  0  0  0  0  0
  -28.3310  -26.1649   20.1493 O   0  0  0  0  0  0
  -26.5674  -34.8901   22.4640 O   0  0  0  0  0  0
  -23.5577  -32.1293   23.7038 O   0  0  0  0  0  0
  -29.7200  -20.6978   20.1263 C   0  0  0  0  0  0
  -29.4495  -19.3399   20.5089 C   0  0  0  0  0  0
  -27.6755  -20.7986   20.9018 C   0  0  0  0  0  0
  -27.8229  -24.6506   22.0975 C   0  0  0  0  0  0
  -26.2056  -21.4228   22.8531 C   0  0  0  0  0  0
  -25.4044  -19.7476   21.2069 C   0  0  0  0  0  0
  -25.4911  -22.1203   20.5358 C   0  0  0  0  0  0
  -28.4802  -16.4076   19.7512 C   0  0  0  0  0  0
  -30.2943  -17.8847   20.5140 C   0  0  0  0  0  0
  -28.4500  -23.1794   19.8634 C   0  0  0  0  0  0
  -28.4223  -24.6825   20.6881 C   0  0  1  0  0  0
  -26.2350  -21.0494   21.3589 C   0  0  0  0  0  0
  -28.6387  -21.6224   20.3716 N   0  0  0  0  0  0
  -28.1900  -19.5352   21.0332 N   0  3  0  0  0  0
  -29.7911  -16.3680   20.3810 N   0  0  0  0  0  0
  -31.4597  -12.8807   19.1629 H   0  0  0  0  0  0
  -30.4811  -11.7816   20.0919 H   0  0  0  0  0  0
  -29.8789  -11.7156   17.6339 H   0  0  0  0  0  0
  -29.5492  -13.4304   17.6616 H   0  0  0  0  0  0
  -28.0398  -11.2160   19.0903 H   0  0  0  0  0  0
  -27.3900  -12.2744   17.8664 H   0  0  0  0  0  0
  -27.4759  -14.1324   19.2955 H   0  0  0  0  0  0
  -28.8021  -12.4358   21.4924 H   0  0  0  0  0  0
  -28.3187  -14.1023   21.6872 H   0  0  0  0  0  0
  -25.2713   -9.5558   22.4828 H   0  0  0  0  0  0
  -23.9921   -7.4518   22.7498 H   0  0  0  0  0  0
  -21.0794   -8.8739   19.8955 H   0  0  0  0  0  0
  -22.3700  -10.9622   19.6195 H   0  0  0  0  0  0
  -21.1973   -7.6126   23.9721 H   0  0  0  0  0  0
  -21.1526   -6.0521   25.9091 H   0  0  0  0  0  0
  -22.0574   -2.7590   23.2897 H   0  0  0  0  0  0
  -22.3964  -11.9834   22.4888 H   0  0  0  0  0  0
  -21.0998  -13.1216   22.2701 H   0  0  0  0  0  0
  -24.5980  -15.8051   20.4801 H   0  0  0  0  0  0
  -26.2006  -15.6000   19.9881 H   0  0  0  0  0  0
  -26.7284  -32.5266   23.0955 H   0  0  0  0  0  0
  -25.0041  -33.9572   25.0276 H   0  0  0  0  0  0
  -22.7573  -31.2842   21.3666 H   0  0  0  0  0  0
  -23.3760  -35.9566   23.3298 H   0  0  0  0  0  0
  -24.3575  -36.8889   22.2060 H   0  0  0  0  0  0
  -23.7244  -37.6436   23.6691 H   0  0  0  0  0  0
  -26.1625  -31.4534   20.6043 H   0  0  0  0  0  0
  -26.8779  -30.7620   22.0240 H   0  0  0  0  0  0
  -28.1539  -28.8007   21.1998 H   0  0  0  0  0  0
  -25.9493  -25.7769   19.0762 H   0  0  0  0  0  0
  -23.9895  -27.2492   19.0166 H   0  0  0  0  0  0
  -23.8235  -30.5429   19.3924 H   0  0  0  0  0  0
  -22.7944  -29.2187   19.8412 H   0  0  0  0  0  0
  -25.1320  -36.1842   25.0812 H   0  0  0  0  0  0
  -21.0046  -28.3339   24.1327 H   0  0  0  0  0  0
  -20.5728  -26.2353   23.3593 H   0  0  0  0  0  0
  -21.6675  -26.7480   22.1147 H   0  0  0  0  0  0
  -19.6981  -25.6288   21.1251 H   0  0  0  0  0  0
  -19.6661  -27.3168   20.6726 H   0  0  0  0  0  0
  -17.4202  -26.6649   21.4093 H   0  0  0  0  0  0
  -18.0389  -26.0064   22.9074 H   0  0  0  0  0  0
  -19.7973  -30.7320   24.2175 H   0  0  0  0  0  0
  -17.5040  -31.6304   24.5108 H   0  0  0  0  0  0
  -15.5377  -30.2943   23.7709 H   0  0  0  0  0  0
  -15.8696  -28.0780   22.7137 H   0  0  0  0  0  0
  -24.5905  -30.7049   25.7671 H   0  0  0  0  0  0
  -24.8859  -32.2881   26.4732 H   0  0  0  0  0  0
  -25.7983  -30.8923   27.0180 H   0  0  0  0  0  0
  -26.3007  -29.6649   24.1277 H   0  0  0  0  0  0
  -27.4020  -29.7253   25.4842 H   0  0  0  0  0  0
  -27.8916  -30.4176   23.9577 H   0  0  0  0  0  0
  -27.2649  -33.3635   26.1992 H   0  0  0  0  0  0
  -28.3898  -32.6829   25.0322 H   0  0  0  0  0  0
  -28.0682  -31.8458   26.5435 H   0  0  0  0  0  0
  -28.2597  -38.0073   24.7512 H   0  0  0  0  0  0
  -28.1075  -36.2606   24.6309 H   0  0  0  0  0  0
  -27.2292  -37.1449   25.8870 H   0  0  0  0  0  0
  -20.9491  -29.8711   21.6678 H   0  0  0  0  0  0
  -26.0156  -38.2810   24.1395 H   0  0  0  0  0  0
  -30.6207  -21.0698   19.6566 H   0  0  0  0  0  0
  -28.2229  -23.8067   22.6568 H   0  0  0  0  0  0
  -26.7367  -24.5980   22.0915 H   0  0  0  0  0  0
  -28.1019  -25.5444   22.6587 H   0  0  0  0  0  0
  -26.7291  -20.6810   23.4574 H   0  0  0  0  0  0
  -25.1840  -21.4826   23.2285 H   0  0  0  0  0  0
  -26.6691  -22.3826   23.0530 H   0  0  0  0  0  0
  -25.7710  -18.9381   21.8391 H   0  0  0  0  0  0
  -25.4125  -19.3935   20.1757 H   0  0  0  0  0  0
  -24.3603  -19.8945   21.4870 H   0  0  0  0  0  0
  -25.8940  -23.1178   20.6741 H   0  0  0  0  0  0
  -24.4429  -22.1798   20.8341 H   0  0  0  0  0  0
  -25.5071  -21.8882   19.4701 H   0  0  0  0  0  0
  -28.1667  -17.3935   19.4155 H   0  0  0  0  0  0
  -27.7379  -16.0583   20.4605 H   0  0  0  0  0  0
  -28.4889  -15.8239   18.8329 H   0  0  0  0  0  0
  -30.8937  -17.8994   21.4258 H   0  0  0  0  0  0
  -31.0337  -17.9865   19.7187 H   0  0  0  0  0  0
  -29.2487  -23.2924   19.1301 H   0  0  0  0  0  0
  -27.5672  -23.1635   19.2294 H   0  0  0  0  0  0
  -29.4850  -24.7231   20.9288 H   0  0  0  0  0  0
  -27.6465  -18.7902   21.4537 H   0  0  0  0  0  0
  1 25  1  0  0  0
  1 30  2  0  0  0
  1 85  1  0  0  0
  2  3  1  0  0  0
  2 25  1  0  0  0
  2 86  1  0  0  0
  2 87  1  0  0  0
  3  4  1  0  0  0
  3 88  1  0  0  0
  3 89  1  0  0  0
  4  5  1  0  0  0
  4 90  1  0  0  0
  4 91  1  0  0  0
  5  6  1  0  0  0
  5 26  1  0  0  0
  5 92  1  0  0  0
  6 25  1  0  0  0
  6 93  1  0  0  0
  6 94  1  0  0  0
  7  8  2  0  0  0
  7 26  1  0  0  0
  7 29  1  0  0  0
  8  9  1  0  0  0
  8 22  1  0  0  0
  9 10  1  0  0  0
  9 27  2  0  0  0
 10 11  2  0  0  0
 10 15  1  0  0  0
 11 12  1  0  0  0
 11 95  1  0  0  0
 12 13  2  0  0  0
 12 96  1  0  0  0
 13 14  1  0  0  0
 13 31  1  0  0  0
 14 15  2  0  0  0
 14 97  1  0  0  0
 15 98  1  0  0  0
 16 17  2  0  0  0
 16 21  1  0  0  0
 16 31  1  0  0  0
 17 18  1  0  0  0
 17 99  1  0  0  0
 18 19  2  0  0  0
 18100  1  0  0  0
 19 20  1  0  0  0
 19 24  1  0  0  0
 20 21  2  0  0  0
 20101  1  0  0  0
 21 23  1  0  0  0
 22 28  1  0  0  0
 22 32  2  0  0  0
 26 27  1  0  0  0
 28102  1  0  0  0
 28103  1  0  0  0
 29104  1  0  0  0
 29105  1  0  0  0
 33 34  1  0  0  0
 33 66  1  0  0  0
 33 70  2  0  0  0
 34 36  1  0  0  0
 34 59  1  0  0  0
 34106  1  0  0  0
 35 44  2  0  0  0
 35 45  1  0  0  0
 35 68  1  0  0  0
 36 56  1  0  0  0
 36107  1  0  0  0
 37 39  1  0  0  0
 37 47  1  0  0  0
 37 66  1  0  0  0
 37108  1  0  0  0
 38 43  2  0  0  0
 38 46  1  0  0  0
 38 47  1  0  0  0
 39 64  1  0  0  0
 39 67  2  0  0  0
 40 52  1  0  0  0
 40 53  2  0  0  0
 40 58  1  0  0  0
 41109  1  0  0  0
 41110  1  0  0  0
 41111  1  0  0  0
 41 48  1  0  0  0
 42 43  1  0  0  0
 42 66  1  0  0  0
 42112  1  0  0  0
 42113  1  0  0  0
 43 44  1  0  0  0
 44114  1  0  0  0
 45 46  2  0  0  0
 45115  1  0  0  0
 46116  1  0  0  0
 47117  1  0  0  0
 47118  1  0  0  0
 48 56  1  0  0  0
 48 65  1  0  0  0
 48119  1  0  0  0
 49 50  1  0  0  0
 49 53  1  0  0  0
 49 64  1  0  0  0
 49120  1  0  0  0
 50 51  1  0  0  0
 50121  1  0  0  0
 50122  1  0  0  0
 51 52  1  0  0  0
 51123  1  0  0  0
 51124  1  0  0  0
 52125  1  0  0  0
 52126  1  0  0  0
 53 54  1  0  0  0
 54 55  2  0  0  0
 54127  1  0  0  0
 55 57  1  0  0  0
 55128  1  0  0  0
 56 69  2  0  0  0
 57 58  2  0  0  0
 57129  1  0  0  0
 58130  1  0  0  0
 59 60  1  0  0  0
 59 61  1  0  0  0
 59 62  1  0  0  0
 60131  1  0  0  0
 60132  1  0  0  0
 60133  1  0  0  0
 61134  1  0  0  0
 61135  1  0  0  0
 61136  1  0  0  0
 62137  1  0  0  0
 62138  1  0  0  0
 62139  1  0  0  0
 63 65  1  0  0  0
 63140  1  0  0  0
 63141  1  0  0  0
 63142  1  0  0  0
 64143  1  0  0  0
 65144  1  0  0  0
 68 81  1  0  0  0
 71 72  2  0  0  0
 71 83  1  0  0  0
 71145  1  0  0  0
 72 79  1  0  0  0
 72 84  1  0  0  0
 73 82  1  0  0  0
 73 83  1  0  0  0
 73 84  2  0  0  0
 74146  1  0  0  0
 74147  1  0  0  0
 74148  1  0  0  0
 74 81  1  0  0  0
 75149  1  0  0  0
 75150  1  0  0  0
 75151  1  0  0  0
 75 82  1  0  0  0
 76 82  1  0  0  0
 76152  1  0  0  0
 76153  1  0  0  0
 76154  1  0  0  0
 77 82  1  0  0  0
 77155  1  0  0  0
 77156  1  0  0  0
 77157  1  0  0  0
 78 85  1  0  0  0
 78158  1  0  0  0
 78159  1  0  0  0
 78160  1  0  0  0
 79 85  1  0  0  0
 79161  1  0  0  0
 79162  1  0  0  0
 80 81  1  0  0  0
 80 83  1  0  0  0
 80163  1  0  0  0
 80164  1  0  0  0
 81165  1  0  0  0
 84166  1  0  0  0
M  CHG  1  84   1
M  ISO  4   1 100  68 101  81 101  85 100
M  END
> <chiral flag>
0

> <version>
0

> <s_m_source_file>
/data/baiqing/PycharmProjects/Reinvent-master-3.2/result/LINK_invent/BTK/process_docking_weight1_custom_sum_contain_oxygen_bond_distance_aromatic_linkinvent_7_9_3/rearranged_h_0053.sdf

> <i_m_source_file_index>
41

> <r_mmod_Potential_Energy-OPLS-2005>
807.063720703125

> <r_mmod_Stretch_Energy-OPLS-2005>
335.820953369141

> <r_mmod_Bend_Energy-OPLS-2005>
369.353546142578

> <r_mmod_Torsional_Energy-OPLS-2005>
303.135833740234

> <r_mmod_Improper_Torsional_Energy-OPLS-2005>
8.2883768081665

> <r_mmod_Van_der_Waal_Energy-OPLS-2005>
120.788284301758

> <r_mmod_Electrostatic_Energy-OPLS-2005>
-191.426086425781

> <r_mmod_Solvation_Energy-OPLS-2005>
-406.032470703125

> <b_mmod_Minimization_Converged-OPLS-2005>
0

> <r_mmod_RMS_Derivative-OPLS-2005>
2.96340441703796

$$$$
41
                    3D
 Structure written by MMmdl.
159167  0  0  1  0            999 V2000
  -30.6386  -14.7272   20.5309 C   0  0  0  0  0  0
  -30.4434  -12.4726   19.4499 C   0  0  0  0  0  0
  -29.5087  -12.5125   18.2181 C   0  0  0  0  0  0
  -28.0323  -12.3384   18.6267 C   0  0  0  0  0  0
  -27.6470  -13.2190   19.8434 C   0  0  2  0  0  0
  -28.6902  -13.0911   20.9691 C   0  0  0  0  0  0
  -25.2552  -13.8163   20.5629 C   0  0  0  0  0  0
  -24.1826  -13.0433   20.9162 C   0  0  0  0  0  0
  -24.6396  -11.6904   20.8714 C   0  0  0  0  0  0
  -23.9058  -10.4301   21.0389 C   0  0  0  0  0  0
  -24.3610   -9.4229   21.9179 C   0  0  0  0  0  0
  -23.6284   -8.2263   22.0760 C   0  0  0  0  0  0
  -22.4268   -8.0294   21.3544 C   0  0  0  0  0  0
  -21.9910   -9.0262   20.4633 C   0  0  0  0  0  0
  -22.7234  -10.2138   20.3039 C   0  0  0  0  0  0
  -21.6853   -6.0743   22.5274 C   0  0  0  0  0  0
  -21.4004   -6.5638   23.8204 C   0  0  0  0  0  0
  -21.3651   -5.6793   24.9161 C   0  0  0  0  0  0
  -21.6047   -4.3062   24.7219 C   0  0  0  0  0  0
  -21.8817   -3.8151   23.4340 C   0  0  0  0  0  0
  -21.9189   -4.6969   22.3394 C   0  0  0  0  0  0
  -22.7858  -13.5240   21.1823 C   0  0  0  0  0  0
  -22.1663   -4.2151   21.0978 F   0  0  0  0  0  0
  -21.5629   -3.4548   25.7734 F   0  0  0  0  0  0
  -29.9898  -13.5086   20.4150 N   0  0  0  0  0  0
  -26.2963  -12.9338   20.3196 N   0  0  0  0  0  0
  -25.9315  -11.6492   20.5687 N   0  0  0  0  0  0
  -22.0496  -12.8242   22.0370 N   0  0  0  0  0  0
  -25.4313  -15.1881   20.4058 N   0  0  0  0  0  0
  -31.7877  -14.8303   20.0860 O   0  0  0  0  0  0
  -21.6639   -6.8889   21.4240 O   0  0  0  0  0  0
  -22.3561  -14.5537   20.6653 O   0  0  0  0  0  0
  -24.6328  -31.8550   23.2008 C   0  0  0  0  0  0
  -25.9155  -32.4767   23.8336 C   0  0  1  0  0  0
  -27.2236  -27.2723   20.0948 C   0  0  0  0  0  0
  -25.5947  -33.8573   24.2229 N   0  0  0  0  0  0
  -23.4284  -30.4831   21.5415 C   0  0  2  0  0  0
  -24.8714  -28.9366   20.1083 C   0  0  0  0  0  0
  -22.7487  -29.4636   22.4879 C   0  0  0  0  0  0
  -18.0305  -28.1420   22.8421 C   0  0  0  0  0  0
  -24.1501  -36.7278   23.2637 C   0  0  0  0  0  0
  -25.9769  -30.7657   21.3845 C   0  0  0  0  0  0
  -26.0438  -29.3921   20.7195 C   0  0  0  0  0  0
  -27.2165  -28.5684   20.7153 C   0  0  0  0  0  0
  -26.0262  -26.8980   19.4370 C   0  0  0  0  0  0
  -24.8658  -27.6926   19.4648 C   0  0  0  0  0  0
  -23.6452  -29.8248   20.1558 C   0  0  0  0  0  0
  -25.4141  -36.3064   24.0320 C   0  0  1  0  0  0
  -20.5910  -28.3729   23.1233 C   0  0  2  0  0  0
  -20.6815  -26.9448   22.5384 C   0  0  0  0  0  0
  -19.5793  -26.6394   21.5193 C   0  0  0  0  0  0
  -18.1950  -26.7954   22.1577 C   0  0  0  0  0  0
  -19.1558  -28.8875   23.2823 C   0  0  0  0  0  0
  -18.9495  -30.1457   23.8875 C   0  0  0  0  0  0
  -17.6499  -30.6597   24.0553 C   0  0  0  0  0  0
  -25.9104  -34.9452   23.5085 C   0  0  0  0  0  0
  -16.5376  -29.9106   23.6346 C   0  0  0  0  0  0
  -16.7293  -28.6540   23.0326 C   0  0  0  0  0  0
  -26.4526  -31.6616   25.0737 C   0  0  0  0  0  0
  -25.3713  -31.3776   26.1425 C   0  0  0  0  0  0
  -27.0419  -30.3041   24.6261 C   0  0  0  0  0  0
  -27.6050  -32.4383   25.7509 C   0  0  0  0  0  0
  -27.5594  -37.1781   24.8463 C   0  0  0  0  0  0
  -21.4200  -29.3074   22.3587 N   0  0  0  0  0  0
  -26.4302  -37.3773   23.9424 N   0  0  0  0  0  0
  -24.6994  -31.0507   22.0984 N   0  0  0  0  0  0
  -23.4158  -28.8168   23.2998 O   0  0  0  0  0  0
  -28.3345  -26.3931   20.1677 O   0  0  0  0  0  0
  -26.5657  -34.8928   22.4633 O   0  0  0  0  0  0
  -23.5489  -32.1382   23.7306 O   0  0  0  0  0  0
  -28.4243  -22.5041   17.9130 C   0  0  0  0  0  0
  -28.9070  -20.4481   18.1905 C   0  0  0  0  0  0
  -28.9020  -22.4145   19.2091 C   0  0  0  0  0  0
  -30.5567  -24.0471   20.2779 C   0  0  0  0  0  0
  -29.3412  -15.9377   22.2343 C   0  0  0  0  0  0
  -29.2914  -18.5472   20.5650 C   0  0  0  0  0  0
  -29.7791  -20.1035   20.4659 C   0  0  0  0  0  0
  -30.3386  -17.3074   20.4556 C   0  0  0  0  0  0
  -28.2867  -25.0197   19.5616 C   0  0  0  0  0  0
  -29.0700  -23.7012   20.1058 C   0  0  1  0  0  0
  -28.4306  -21.2744   17.2743 N   0  0  0  0  0  0
  -29.1922  -20.9886   19.3876 N   0  0  0  0  0  0
  -29.9420  -15.8883   20.8961 N   0  0  0  0  0  0
  -31.4736  -12.6250   19.1224 H   0  0  0  0  0  0
  -30.4332  -11.4850   19.9136 H   0  0  0  0  0  0
  -29.7908  -11.7307   17.5096 H   0  0  0  0  0  0
  -29.6323  -13.4605   17.6909 H   0  0  0  0  0  0
  -27.8766  -11.2867   18.8688 H   0  0  0  0  0  0
  -27.3799  -12.5505   17.7778 H   0  0  0  0  0  0
  -27.6584  -14.2534   19.4970 H   0  0  0  0  0  0
  -28.7497  -12.0574   21.3150 H   0  0  0  0  0  0
  -28.3710  -13.6584   21.8361 H   0  0  0  0  0  0
  -25.2757   -9.5705   22.4744 H   0  0  0  0  0  0
  -23.9985   -7.4661   22.7485 H   0  0  0  0  0  0
  -21.0844   -8.8770   19.8931 H   0  0  0  0  0  0
  -22.3700  -10.9666   19.6132 H   0  0  0  0  0  0
  -21.1990   -7.6150   23.9695 H   0  0  0  0  0  0
  -21.1466   -6.0534   25.9060 H   0  0  0  0  0  0
  -22.0598   -2.7618   23.2839 H   0  0  0  0  0  0
  -22.4114  -11.9939   22.4807 H   0  0  0  0  0  0
  -21.1075  -13.1240   22.2472 H   0  0  0  0  0  0
  -24.6700  -15.8489   20.5140 H   0  0  0  0  0  0
  -26.2915  -15.6201   20.0908 H   0  0  0  0  0  0
  -26.7186  -32.5365   23.1036 H   0  0  0  0  0  0
  -25.0132  -33.9738   25.0402 H   0  0  0  0  0  0
  -22.7296  -31.3089   21.3959 H   0  0  0  0  0  0
  -23.3785  -35.9583   23.3301 H   0  0  0  0  0  0
  -24.3590  -36.8927   22.2052 H   0  0  0  0  0  0
  -23.7257  -37.6472   23.6679 H   0  0  0  0  0  0
  -26.1271  -31.5266   20.6172 H   0  0  0  0  0  0
  -26.8514  -30.8030   22.0218 H   0  0  0  0  0  0
  -28.1094  -28.9091   21.2185 H   0  0  0  0  0  0
  -25.9226  -25.9781   18.8834 H   0  0  0  0  0  0
  -23.9727  -27.3403   18.9684 H   0  0  0  0  0  0
  -23.7794  -30.6024   19.4030 H   0  0  0  0  0  0
  -22.7607  -29.2661   19.8453 H   0  0  0  0  0  0
  -25.1325  -36.1900   25.0817 H   0  0  0  0  0  0
  -20.9998  -28.3339   24.1361 H   0  0  0  0  0  0
  -20.5745  -26.2337   23.3600 H   0  0  0  0  0  0
  -21.6689  -26.7522   22.1142 H   0  0  0  0  0  0
  -19.6999  -25.6297   21.1251 H   0  0  0  0  0  0
  -19.6769  -27.3191   20.6707 H   0  0  0  0  0  0
  -17.4245  -26.6693   21.3960 H   0  0  0  0  0  0
  -18.0315  -26.0125   22.8999 H   0  0  0  0  0  0
  -19.7986  -30.7238   24.2245 H   0  0  0  0  0  0
  -17.5091  -31.6281   24.5153 H   0  0  0  0  0  0
  -15.5379  -30.3007   23.7705 H   0  0  0  0  0  0
  -15.8694  -28.0859   22.7056 H   0  0  0  0  0  0
  -24.5927  -30.7109   25.7725 H   0  0  0  0  0  0
  -24.8874  -32.2950   26.4769 H   0  0  0  0  0  0
  -25.7999  -30.8984   27.0235 H   0  0  0  0  0  0
  -26.3038  -29.6724   24.1317 H   0  0  0  0  0  0
  -27.4151  -29.7387   25.4806 H   0  0  0  0  0  0
  -27.8872  -30.4354   23.9517 H   0  0  0  0  0  0
  -27.2673  -33.3735   26.1985 H   0  0  0  0  0  0
  -28.3899  -32.6878   25.0363 H   0  0  0  0  0  0
  -28.0667  -31.8576   26.5507 H   0  0  0  0  0  0
  -28.2567  -38.0112   24.7530 H   0  0  0  0  0  0
  -28.1119  -36.2629   24.6246 H   0  0  0  0  0  0
  -27.2285  -37.1396   25.8855 H   0  0  0  0  0  0
  -20.9393  -29.8781   21.6779 H   0  0  0  0  0  0
  -26.0169  -38.2839   24.1443 H   0  0  0  0  0  0
  -28.0968  -23.3770   17.3656 H   0  0  0  0  0  0
  -29.0667  -19.4008   17.9691 H   0  0  0  0  0  0
  -31.1212  -23.2033   20.6752 H   0  0  0  0  0  0
  -30.6873  -24.8847   20.9632 H   0  0  0  0  0  0
  -31.0061  -24.3335   19.3261 H   0  0  0  0  0  0
  -28.2533  -15.9603   22.1635 H   0  0  0  0  0  0
  -29.6603  -16.8227   22.7864 H   0  0  0  0  0  0
  -29.6308  -15.0934   22.8622 H   0  0  0  0  0  0
  -28.4774  -18.3650   19.8640 H   0  0  0  0  0  0
  -28.7903  -18.4757   21.5300 H   0  0  0  0  0  0
  -30.8627  -20.1215   20.3426 H   0  0  0  0  0  0
  -29.5989  -20.5918   21.4253 H   0  0  0  0  0  0
  -31.2353  -17.5684   21.0197 H   0  0  0  0  0  0
  -30.6700  -17.2439   19.4183 H   0  0  0  0  0  0
  -27.2641  -24.6621   19.5102 H   0  0  0  0  0  0
  -28.6074  -25.1962   18.5337 H   0  0  0  0  0  0
  -28.6700  -23.4741   21.0942 H   0  0  0  0  0  0
  1 25  1  0  0  0
  1 30  2  0  0  0
  1 83  1  0  0  0
  2  3  1  0  0  0
  2 25  1  0  0  0
  2 84  1  0  0  0
  2 85  1  0  0  0
  3  4  1  0  0  0
  3 86  1  0  0  0
  3 87  1  0  0  0
  4  5  1  0  0  0
  4 88  1  0  0  0
  4 89  1  0  0  0
  5  6  1  0  0  0
  5 26  1  0  0  0
  5 90  1  0  0  0
  6 25  1  0  0  0
  6 91  1  0  0  0
  6 92  1  0  0  0
  7  8  2  0  0  0
  7 26  1  0  0  0
  7 29  1  0  0  0
  8  9  1  0  0  0
  8 22  1  0  0  0
  9 10  1  0  0  0
  9 27  2  0  0  0
 10 11  2  0  0  0
 10 15  1  0  0  0
 11 12  1  0  0  0
 11 93  1  0  0  0
 12 13  2  0  0  0
 12 94  1  0  0  0
 13 14  1  0  0  0
 13 31  1  0  0  0
 14 15  2  0  0  0
 14 95  1  0  0  0
 15 96  1  0  0  0
 16 17  2  0  0  0
 16 21  1  0  0  0
 16 31  1  0  0  0
 17 18  1  0  0  0
 17 97  1  0  0  0
 18 19  2  0  0  0
 18 98  1  0  0  0
 19 20  1  0  0  0
 19 24  1  0  0  0
 20 21  2  0  0  0
 20 99  1  0  0  0
 21 23  1  0  0  0
 22 28  1  0  0  0
 22 32  2  0  0  0
 26 27  1  0  0  0
 28100  1  0  0  0
 28101  1  0  0  0
 29102  1  0  0  0
 29103  1  0  0  0
 33 34  1  0  0  0
 33 66  1  0  0  0
 33 70  2  0  0  0
 34 36  1  0  0  0
 34 59  1  0  0  0
 34104  1  0  0  0
 35 44  2  0  0  0
 35 45  1  0  0  0
 35 68  1  0  0  0
 36 56  1  0  0  0
 36105  1  0  0  0
 37 39  1  0  0  0
 37 47  1  0  0  0
 37 66  1  0  0  0
 37106  1  0  0  0
 38 43  2  0  0  0
 38 46  1  0  0  0
 38 47  1  0  0  0
 39 64  1  0  0  0
 39 67  2  0  0  0
 40 52  1  0  0  0
 40 53  2  0  0  0
 40 58  1  0  0  0
 41107  1  0  0  0
 41108  1  0  0  0
 41109  1  0  0  0
 41 48  1  0  0  0
 42 43  1  0  0  0
 42 66  1  0  0  0
 42110  1  0  0  0
 42111  1  0  0  0
 43 44  1  0  0  0
 44112  1  0  0  0
 45 46  2  0  0  0
 45113  1  0  0  0
 46114  1  0  0  0
 47115  1  0  0  0
 47116  1  0  0  0
 48 56  1  0  0  0
 48 65  1  0  0  0
 48117  1  0  0  0
 49 50  1  0  0  0
 49 53  1  0  0  0
 49 64  1  0  0  0
 49118  1  0  0  0
 50 51  1  0  0  0
 50119  1  0  0  0
 50120  1  0  0  0
 51 52  1  0  0  0
 51121  1  0  0  0
 51122  1  0  0  0
 52123  1  0  0  0
 52124  1  0  0  0
 53 54  1  0  0  0
 54 55  2  0  0  0
 54125  1  0  0  0
 55 57  1  0  0  0
 55126  1  0  0  0
 56 69  2  0  0  0
 57 58  2  0  0  0
 57127  1  0  0  0
 58128  1  0  0  0
 59 60  1  0  0  0
 59 61  1  0  0  0
 59 62  1  0  0  0
 60129  1  0  0  0
 60130  1  0  0  0
 60131  1  0  0  0
 61132  1  0  0  0
 61133  1  0  0  0
 61134  1  0  0  0
 62135  1  0  0  0
 62136  1  0  0  0
 62137  1  0  0  0
 63 65  1  0  0  0
 63138  1  0  0  0
 63139  1  0  0  0
 63140  1  0  0  0
 64141  1  0  0  0
 65142  1  0  0  0
 68 79  1  0  0  0
 71 73  2  0  0  0
 71 81  1  0  0  0
 71143  1  0  0  0
 72 81  2  0  0  0
 72 82  1  0  0  0
 72144  1  0  0  0
 73 80  1  0  0  0
 73 82  1  0  0  0
 74145  1  0  0  0
 74146  1  0  0  0
 74147  1  0  0  0
 74 80  1  0  0  0
 75 83  1  0  0  0
 75148  1  0  0  0
 75149  1  0  0  0
 75150  1  0  0  0
 76 77  1  0  0  0
 76 78  1  0  0  0
 76151  1  0  0  0
 76152  1  0  0  0
 77 82  1  0  0  0
 77153  1  0  0  0
 77154  1  0  0  0
 78 83  1  0  0  0
 78155  1  0  0  0
 78156  1  0  0  0
 79 80  1  0  0  0
 79157  1  0  0  0
 79158  1  0  0  0
 80159  1  0  0  0
M  ISO  4   1 100  68 101  79 101  83 100
M  END
> <chiral flag>
0

> <version>
0

> <s_m_source_file>
/data/baiqing/PycharmProjects/Reinvent-master-3.2/result/LINK_invent/BTK/process_docking_weight1_custom_sum_contain_oxygen_bond_distance_aromatic_linkinvent_7_9_3/rearranged_h_0053.sdf

> <i_m_source_file_index>
42

> <r_mmod_Potential_Energy-OPLS-2005>
372.898162841797

> <r_mmod_Stretch_Energy-OPLS-2005>
142.17414855957

> <r_mmod_Bend_Energy-OPLS-2005>
212.191268920898

> <r_mmod_Torsional_Energy-OPLS-2005>
289.230163574219

> <r_mmod_Improper_Torsional_Energy-OPLS-2005>
8.89608383178711

> <r_mmod_Van_der_Waal_Energy-OPLS-2005>
135.148223876953

> <r_mmod_Electrostatic_Energy-OPLS-2005>
-273.538238525391

> <r_mmod_Solvation_Energy-OPLS-2005>
-215.091949462891

> <b_mmod_Minimization_Converged-OPLS-2005>
0

> <r_mmod_RMS_Derivative-OPLS-2005>
4.03357267379761

$$$$
42
                    3D
 Structure written by MMmdl.
154162  0  0  1  0            999 V2000
  -30.4864  -14.9863   20.3883 C   0  0  0  0  0  0
  -30.4371  -12.6033   19.5125 C   0  0  0  0  0  0
  -29.5283  -12.5503   18.2610 C   0  0  0  0  0  0
  -28.0432  -12.3655   18.6540 C   0  0  0  0  0  0
  -27.6272  -13.2657   19.8468 C   0  0  2  0  0  0
  -28.6723  -13.2634   20.9823 C   0  0  0  0  0  0
  -25.2447  -13.8244   20.5853 C   0  0  0  0  0  0
  -24.1773  -13.0419   20.9338 C   0  0  0  0  0  0
  -24.6441  -11.6936   20.8816 C   0  0  0  0  0  0
  -23.9146  -10.4301   21.0432 C   0  0  0  0  0  0
  -24.3682   -9.4208   21.9205 C   0  0  0  0  0  0
  -23.6359   -8.2226   22.0737 C   0  0  0  0  0  0
  -22.4323   -8.0305   21.3533 C   0  0  0  0  0  0
  -21.9999   -9.0308   20.4633 C   0  0  0  0  0  0
  -22.7334  -10.2190   20.3057 C   0  0  0  0  0  0
  -21.6854   -6.0774   22.5314 C   0  0  0  0  0  0
  -21.4029   -6.5681   23.8249 C   0  0  0  0  0  0
  -21.3645   -5.6827   24.9207 C   0  0  0  0  0  0
  -21.6050   -4.3091   24.7267 C   0  0  0  0  0  0
  -21.8808   -3.8186   23.4388 C   0  0  0  0  0  0
  -21.9189   -4.7001   22.3446 C   0  0  0  0  0  0
  -22.7789  -13.5170   21.1915 C   0  0  0  0  0  0
  -22.1643   -4.2192   21.1010 F   0  0  0  0  0  0
  -21.5637   -3.4548   25.7764 F   0  0  0  0  0  0
  -29.9349  -13.7035   20.3860 N   0  0  0  0  0  0
  -26.2888  -12.9515   20.3321 N   0  0  0  0  0  0
  -25.9377  -11.6633   20.5807 N   0  0  0  0  0  0
  -22.0487  -12.8133   22.0490 N   0  0  0  0  0  0
  -25.4011  -15.1968   20.4287 N   0  0  0  0  0  0
  -31.6864  -15.0693   20.1118 O   0  0  0  0  0  0
  -21.6631   -6.8912   21.4257 O   0  0  0  0  0  0
  -22.3476  -14.5466   20.6732 O   0  0  0  0  0  0
  -24.6453  -31.8450   23.1832 C   0  0  0  0  0  0
  -25.9227  -32.4685   23.8227 C   0  0  1  0  0  0
  -27.2109  -27.1068   20.1357 C   0  0  0  0  0  0
  -25.5992  -33.8474   24.2185 N   0  0  0  0  0  0
  -23.4488  -30.4660   21.5363 C   0  0  2  0  0  0
  -24.8960  -28.8807   20.1174 C   0  0  0  0  0  0
  -22.7551  -29.4586   22.4878 C   0  0  0  0  0  0
  -18.0295  -28.1413   22.8494 C   0  0  0  0  0  0
  -24.1501  -36.7233   23.2651 C   0  0  0  0  0  0
  -26.0061  -30.7059   21.3864 C   0  0  0  0  0  0
  -26.0790  -29.3098   20.7325 C   0  0  0  0  0  0
  -27.2420  -28.4417   20.7255 C   0  0  0  0  0  0
  -26.0050  -26.7923   19.4779 C   0  0  0  0  0  0
  -24.8714  -27.6353   19.4755 C   0  0  0  0  0  0
  -23.6752  -29.7898   20.1601 C   0  0  0  0  0  0
  -25.4137  -36.3025   24.0329 C   0  0  1  0  0  0
  -20.5899  -28.3731   23.1220 C   0  0  2  0  0  0
  -20.6794  -26.9437   22.5376 C   0  0  0  0  0  0
  -19.5779  -26.6412   21.5189 C   0  0  0  0  0  0
  -18.1952  -26.7958   22.1619 C   0  0  0  0  0  0
  -19.1560  -28.8882   23.2847 C   0  0  0  0  0  0
  -18.9495  -30.1489   23.8870 C   0  0  0  0  0  0
  -17.6494  -30.6598   24.0574 C   0  0  0  0  0  0
  -25.9091  -34.9400   23.5064 C   0  0  0  0  0  0
  -16.5371  -29.9098   23.6335 C   0  0  0  0  0  0
  -16.7292  -28.6515   23.0344 C   0  0  0  0  0  0
  -26.4534  -31.6515   25.0666 C   0  0  0  0  0  0
  -25.3710  -31.3653   26.1348 C   0  0  0  0  0  0
  -27.0427  -30.2937   24.6216 C   0  0  0  0  0  0
  -27.6112  -32.4244   25.7422 C   0  0  0  0  0  0
  -27.5578  -37.1778   24.8481 C   0  0  0  0  0  0
  -21.4242  -29.3060   22.3597 N   0  0  0  0  0  0
  -26.4298  -37.3725   23.9410 N   0  0  0  0  0  0
  -24.7200  -31.0267   22.0911 N   0  0  0  0  0  0
  -23.4134  -28.8116   23.3057 O   0  0  0  0  0  0
  -28.2467  -26.0921   20.1176 O   0  0  0  0  0  0
  -26.5654  -34.8920   22.4625 O   0  0  0  0  0  0
  -23.5565  -32.1378   23.7021 O   0  0  0  0  0  0
  -28.7984  -23.0918   18.4912 C   0  0  0  0  0  0
  -29.1190  -21.8444   17.9127 C   0  0  0  0  0  0
  -28.5669  -23.1769   19.8718 C   0  0  0  0  0  0
  -29.0510  -20.7103   19.9469 C   0  0  0  0  0  0
  -29.3411  -21.7229   16.4132 C   0  0  0  0  0  0
  -27.5874  -18.9090   21.1138 C   0  0  0  0  0  0
  -27.9446  -24.5922   20.5070 C   0  0  0  0  0  0
  -29.8219  -17.7344   20.2170 C   0  0  0  0  0  0
  -29.0491  -19.2154   20.7079 C   0  0  1  0  0  0
  -29.2210  -20.6933   18.6259 N   0  0  0  0  0  0
  -28.7059  -21.9310   20.5618 N   0  0  0  0  0  0
  -29.6566  -16.1525   20.4970 N   0  0  0  0  0  0
  -31.4765  -12.7558   19.2220 H   0  0  0  0  0  0
  -30.4167  -11.6547   20.0528 H   0  0  0  0  0  0
  -29.8416  -11.7406   17.5999 H   0  0  0  0  0  0
  -29.6457  -13.4758   17.6942 H   0  0  0  0  0  0
  -27.8947  -11.3171   18.9138 H   0  0  0  0  0  0
  -27.4009  -12.5684   17.7960 H   0  0  0  0  0  0
  -27.5835  -14.2765   19.4383 H   0  0  0  0  0  0
  -28.7669  -12.2689   21.4241 H   0  0  0  0  0  0
  -28.3728  -13.9319   21.7915 H   0  0  0  0  0  0
  -25.2835   -9.5672   22.4765 H   0  0  0  0  0  0
  -24.0052   -7.4609   22.7455 H   0  0  0  0  0  0
  -21.0932   -8.8893   19.8943 H   0  0  0  0  0  0
  -22.3847  -10.9732   19.6153 H   0  0  0  0  0  0
  -21.2021   -7.6179   23.9798 H   0  0  0  0  0  0
  -21.1453   -6.0530   25.9112 H   0  0  0  0  0  0
  -22.0580   -2.7646   23.2892 H   0  0  0  0  0  0
  -22.4103  -11.9788   22.4872 H   0  0  0  0  0  0
  -21.1108  -13.1106   22.2659 H   0  0  0  0  0  0
  -24.6193  -15.8314   20.5428 H   0  0  0  0  0  0
  -26.2050  -15.6339   19.9977 H   0  0  0  0  0  0
  -26.7234  -32.5323   23.0906 H   0  0  0  0  0  0
  -25.0120  -33.9554   25.0316 H   0  0  0  0  0  0
  -22.7559  -31.2966   21.3756 H   0  0  0  0  0  0
  -23.3800  -35.9541   23.3305 H   0  0  0  0  0  0
  -24.3563  -36.8879   22.2063 H   0  0  0  0  0  0
  -23.7229  -37.6426   23.6676 H   0  0  0  0  0  0
  -26.1580  -31.4547   20.6079 H   0  0  0  0  0  0
  -26.8732  -30.7620   22.0320 H   0  0  0  0  0  0
  -28.1431  -28.7764   21.2217 H   0  0  0  0  0  0
  -25.9259  -25.8522   18.9525 H   0  0  0  0  0  0
  -23.9731  -27.3065   18.9724 H   0  0  0  0  0  0
  -23.8158  -30.5622   19.4018 H   0  0  0  0  0  0
  -22.7882  -29.2368   19.8483 H   0  0  0  0  0  0
  -25.1302  -36.1869   25.0822 H   0  0  0  0  0  0
  -20.9999  -28.3377   24.1358 H   0  0  0  0  0  0
  -20.5717  -26.2361   23.3601 H   0  0  0  0  0  0
  -21.6666  -26.7509   22.1190 H   0  0  0  0  0  0
  -19.6968  -25.6313   21.1263 H   0  0  0  0  0  0
  -19.6737  -27.3203   20.6696 H   0  0  0  0  0  0
  -17.4221  -26.6693   21.4017 H   0  0  0  0  0  0
  -18.0400  -26.0076   22.9008 H   0  0  0  0  0  0
  -19.7968  -30.7310   24.2248 H   0  0  0  0  0  0
  -17.5044  -31.6302   24.5171 H   0  0  0  0  0  0
  -15.5362  -30.2989   23.7699 H   0  0  0  0  0  0
  -15.8701  -28.0832   22.7053 H   0  0  0  0  0  0
  -24.5966  -30.6928   25.7612 H   0  0  0  0  0  0
  -24.8801  -32.2794   26.4710 H   0  0  0  0  0  0
  -25.8015  -30.8872   27.0157 H   0  0  0  0  0  0
  -26.3048  -29.6618   24.1284 H   0  0  0  0  0  0
  -27.4130  -29.7263   25.4749 H   0  0  0  0  0  0
  -27.8879  -30.4193   23.9462 H   0  0  0  0  0  0
  -27.2805  -33.3611   26.1903 H   0  0  0  0  0  0
  -28.3963  -32.6675   25.0245 H   0  0  0  0  0  0
  -28.0722  -31.8419   26.5404 H   0  0  0  0  0  0
  -28.2590  -38.0071   24.7520 H   0  0  0  0  0  0
  -28.1088  -36.2610   24.6336 H   0  0  0  0  0  0
  -27.2283  -37.1422   25.8878 H   0  0  0  0  0  0
  -20.9463  -29.8755   21.6743 H   0  0  0  0  0  0
  -26.0205  -38.2822   24.1408 H   0  0  0  0  0  0
  -28.6791  -23.9772   17.8786 H   0  0  0  0  0  0
  -30.3752  -21.9458   16.1518 H   0  0  0  0  0  0
  -28.7036  -22.4118   15.8576 H   0  0  0  0  0  0
  -29.1137  -20.7151   16.0660 H   0  0  0  0  0  0
  -26.9500  -18.7527   20.2432 H   0  0  0  0  0  0
  -27.1569  -19.7435   21.6716 H   0  0  0  0  0  0
  -27.5068  -18.0321   21.7565 H   0  0  0  0  0  0
  -26.8670  -24.4472   20.4475 H   0  0  0  0  0  0
  -28.1541  -24.5359   21.5752 H   0  0  0  0  0  0
  -29.0512  -17.5679   19.4594 H   0  0  0  0  0  0
  -29.7605  -17.5414   21.2866 H   0  0  0  0  0  0
  -29.5646  -19.4998   21.6291 H   0  0  0  0  0  0
  -28.7060  -15.9001   20.7241 H   0  0  0  0  0  0
  1 25  1  0  0  0
  1 30  2  0  0  0
  1 82  1  0  0  0
  2  3  1  0  0  0
  2 25  1  0  0  0
  2 83  1  0  0  0
  2 84  1  0  0  0
  3  4  1  0  0  0
  3 85  1  0  0  0
  3 86  1  0  0  0
  4  5  1  0  0  0
  4 87  1  0  0  0
  4 88  1  0  0  0
  5  6  1  0  0  0
  5 26  1  0  0  0
  5 89  1  0  0  0
  6 25  1  0  0  0
  6 90  1  0  0  0
  6 91  1  0  0  0
  7  8  2  0  0  0
  7 26  1  0  0  0
  7 29  1  0  0  0
  8  9  1  0  0  0
  8 22  1  0  0  0
  9 10  1  0  0  0
  9 27  2  0  0  0
 10 11  2  0  0  0
 10 15  1  0  0  0
 11 12  1  0  0  0
 11 92  1  0  0  0
 12 13  2  0  0  0
 12 93  1  0  0  0
 13 14  1  0  0  0
 13 31  1  0  0  0
 14 15  2  0  0  0
 14 94  1  0  0  0
 15 95  1  0  0  0
 16 17  2  0  0  0
 16 21  1  0  0  0
 16 31  1  0  0  0
 17 18  1  0  0  0
 17 96  1  0  0  0
 18 19  2  0  0  0
 18 97  1  0  0  0
 19 20  1  0  0  0
 19 24  1  0  0  0
 20 21  2  0  0  0
 20 98  1  0  0  0
 21 23  1  0  0  0
 22 28  1  0  0  0
 22 32  2  0  0  0
 26 27  1  0  0  0
 28 99  1  0  0  0
 28100  1  0  0  0
 29101  1  0  0  0
 29102  1  0  0  0
 33 34  1  0  0  0
 33 66  1  0  0  0
 33 70  2  0  0  0
 34 36  1  0  0  0
 34 59  1  0  0  0
 34103  1  0  0  0
 35 44  2  0  0  0
 35 45  1  0  0  0
 35 68  1  0  0  0
 36 56  1  0  0  0
 36104  1  0  0  0
 37 39  1  0  0  0
 37 47  1  0  0  0
 37 66  1  0  0  0
 37105  1  0  0  0
 38 43  2  0  0  0
 38 46  1  0  0  0
 38 47  1  0  0  0
 39 64  1  0  0  0
 39 67  2  0  0  0
 40 52  1  0  0  0
 40 53  2  0  0  0
 40 58  1  0  0  0
 41106  1  0  0  0
 41107  1  0  0  0
 41108  1  0  0  0
 41 48  1  0  0  0
 42 43  1  0  0  0
 42 66  1  0  0  0
 42109  1  0  0  0
 42110  1  0  0  0
 43 44  1  0  0  0
 44111  1  0  0  0
 45 46  2  0  0  0
 45112  1  0  0  0
 46113  1  0  0  0
 47114  1  0  0  0
 47115  1  0  0  0
 48 56  1  0  0  0
 48 65  1  0  0  0
 48116  1  0  0  0
 49 50  1  0  0  0
 49 53  1  0  0  0
 49 64  1  0  0  0
 49117  1  0  0  0
 50 51  1  0  0  0
 50118  1  0  0  0
 50119  1  0  0  0
 51 52  1  0  0  0
 51120  1  0  0  0
 51121  1  0  0  0
 52122  1  0  0  0
 52123  1  0  0  0
 53 54  1  0  0  0
 54 55  2  0  0  0
 54124  1  0  0  0
 55 57  1  0  0  0
 55125  1  0  0  0
 56 69  2  0  0  0
 57 58  2  0  0  0
 57126  1  0  0  0
 58127  1  0  0  0
 59 60  1  0  0  0
 59 61  1  0  0  0
 59 62  1  0  0  0
 60128  1  0  0  0
 60129  1  0  0  0
 60130  1  0  0  0
 61131  1  0  0  0
 61132  1  0  0  0
 61133  1  0  0  0
 62134  1  0  0  0
 62135  1  0  0  0
 62136  1  0  0  0
 63 65  1  0  0  0
 63137  1  0  0  0
 63138  1  0  0  0
 63139  1  0  0  0
 64140  1  0  0  0
 65141  1  0  0  0
 68 77  1  0  0  0
 71 72  2  0  0  0
 71 73  1  0  0  0
 71142  1  0  0  0
 72 75  1  0  0  0
 72 80  1  0  0  0
 73 77  1  0  0  0
 73 81  2  0  0  0
 74 79  1  0  0  0
 74 80  2  0  0  0
 74 81  1  0  0  0
 75143  1  0  0  0
 75144  1  0  0  0
 75145  1  0  0  0
 76146  1  0  0  0
 76147  1  0  0  0
 76148  1  0  0  0
 76 79  1  0  0  0
 77149  1  0  0  0
 77150  1  0  0  0
 78 79  1  0  0  0
 78 82  1  0  0  0
 78151  1  0  0  0
 78152  1  0  0  0
 79153  1  0  0  0
 82154  1  0  0  0
M  ISO  4   1 100  68 101  77 101  82 100
M  END
> <chiral flag>
0

> <version>
0

> <s_m_source_file>
/data/baiqing/PycharmProjects/Reinvent-master-3.2/result/LINK_invent/BTK/process_docking_weight1_custom_sum_contain_oxygen_bond_distance_aromatic_linkinvent_7_9_3/rearranged_h_0053.sdf

> <i_m_source_file_index>
43

> <r_mmod_Potential_Energy-OPLS-2005>
428.402374267578

> <r_mmod_Stretch_Energy-OPLS-2005>
321.24951171875

> <r_mmod_Bend_Energy-OPLS-2005>
498.923828125

> <r_mmod_Torsional_Energy-OPLS-2005>
231.86442565918

> <r_mmod_Improper_Torsional_Energy-OPLS-2005>
6.99262666702271

> <r_mmod_Van_der_Waal_Energy-OPLS-2005>
135.952743530273

> <r_mmod_Electrostatic_Energy-OPLS-2005>
-739.972534179688

> <r_mmod_Solvation_Energy-OPLS-2005>
-245.152694702148

> <b_mmod_Minimization_Converged-OPLS-2005>
0

> <r_mmod_RMS_Derivative-OPLS-2005>
6.38942813873291

$$$$
43
                    3D
 Structure written by MMmdl.
159167  0  0  1  0            999 V2000
  -30.6369  -14.5904   20.4477 C   0  0  0  0  0  0
  -30.4268  -12.3585   19.4215 C   0  0  0  0  0  0
  -29.4911  -12.5039   18.2016 C   0  0  0  0  0  0
  -28.0156  -12.3412   18.6197 C   0  0  0  0  0  0
  -27.6454  -13.2068   19.8504 C   0  0  2  0  0  0
  -28.6987  -13.0730   20.9774 C   0  0  0  0  0  0
  -25.2537  -13.8143   20.5681 C   0  0  0  0  0  0
  -24.1816  -13.0426   20.9211 C   0  0  0  0  0  0
  -24.6364  -11.6889   20.8746 C   0  0  0  0  0  0
  -23.9035  -10.4283   21.0403 C   0  0  0  0  0  0
  -24.3591   -9.4210   21.9180 C   0  0  0  0  0  0
  -23.6295   -8.2234   22.0738 C   0  0  0  0  0  0
  -22.4274   -8.0263   21.3549 C   0  0  0  0  0  0
  -21.9900   -9.0237   20.4655 C   0  0  0  0  0  0
  -22.7203  -10.2122   20.3071 C   0  0  0  0  0  0
  -21.6879   -6.0728   22.5264 C   0  0  0  0  0  0
  -21.4037   -6.5630   23.8196 C   0  0  0  0  0  0
  -21.3673   -5.6780   24.9155 C   0  0  0  0  0  0
  -21.6041   -4.3042   24.7215 C   0  0  0  0  0  0
  -21.8826   -3.8136   23.4339 C   0  0  0  0  0  0
  -21.9201   -4.6953   22.3391 C   0  0  0  0  0  0
  -22.7844  -13.5218   21.1903 C   0  0  0  0  0  0
  -22.1664   -4.2132   21.0980 F   0  0  0  0  0  0
  -21.5635   -3.4534   25.7734 F   0  0  0  0  0  0
  -30.0209  -13.3738   20.4099 N   0  0  0  0  0  0
  -26.2952  -12.9295   20.3294 N   0  0  0  0  0  0
  -25.9276  -11.6470   20.5726 N   0  0  0  0  0  0
  -22.0514  -12.8222   22.0475 N   0  0  0  0  0  0
  -25.4339  -15.1851   20.4067 N   0  0  0  0  0  0
  -31.8152  -14.7205   20.0992 O   0  0  0  0  0  0
  -21.6665   -6.8852   21.4224 O   0  0  0  0  0  0
  -22.3540  -14.5542   20.6751 O   0  0  0  0  0  0
  -24.6184  -31.8666   23.2096 C   0  0  0  0  0  0
  -25.9025  -32.4869   23.8474 C   0  0  1  0  0  0
  -27.2101  -27.3884   20.0688 C   0  0  0  0  0  0
  -25.5865  -33.8693   24.2348 N   0  0  0  0  0  0
  -23.4083  -30.4935   21.5528 C   0  0  2  0  0  0
  -24.8457  -28.9593   20.1103 C   0  0  0  0  0  0
  -22.7397  -29.4649   22.4976 C   0  0  0  0  0  0
  -18.0298  -28.1425   22.8483 C   0  0  0  0  0  0
  -24.1448  -36.7271   23.2652 C   0  0  0  0  0  0
  -25.9453  -30.8050   21.3830 C   0  0  0  0  0  0
  -26.0101  -29.4434   20.7190 C   0  0  0  0  0  0
  -27.1906  -28.6595   20.7062 C   0  0  0  0  0  0
  -26.0198  -26.9344   19.4549 C   0  0  0  0  0  0
  -24.8466  -27.7073   19.4819 C   0  0  0  0  0  0
  -23.6145  -29.8308   20.1669 C   0  0  0  0  0  0
  -25.4102  -36.3151   24.0333 C   0  0  1  0  0  0
  -20.5874  -28.3676   23.1298 C   0  0  2  0  0  0
  -20.6760  -26.9404   22.5395 C   0  0  0  0  0  0
  -19.5718  -26.6367   21.5225 C   0  0  0  0  0  0
  -18.1917  -26.7968   22.1635 C   0  0  0  0  0  0
  -19.1558  -28.8887   23.2879 C   0  0  0  0  0  0
  -18.9471  -30.1516   23.8850 C   0  0  0  0  0  0
  -17.6481  -30.6603   24.0612 C   0  0  0  0  0  0
  -25.9034  -34.9528   23.5132 C   0  0  0  0  0  0
  -16.5363  -29.9091   23.6409 C   0  0  0  0  0  0
  -16.7299  -28.6545   23.0343 C   0  0  0  0  0  0
  -26.4412  -31.6781   25.0909 C   0  0  0  0  0  0
  -25.3624  -31.3982   26.1657 C   0  0  0  0  0  0
  -27.0296  -30.3224   24.6415 C   0  0  0  0  0  0
  -27.5954  -32.4607   25.7629 C   0  0  0  0  0  0
  -27.5556  -37.1790   24.8457 C   0  0  0  0  0  0
  -21.4132  -29.3023   22.3692 N   0  0  0  0  0  0
  -26.4265  -37.3831   23.9425 N   0  0  0  0  0  0
  -24.6764  -31.0727   22.1040 N   0  0  0  0  0  0
  -23.4173  -28.8191   23.3002 O   0  0  0  0  0  0
  -28.3782  -26.6375   20.0768 O   0  0  0  0  0  0
  -26.5576  -34.8929   22.4689 O   0  0  0  0  0  0
  -23.5335  -32.1484   23.7392 O   0  0  0  0  0  0
  -29.4477  -21.6730   21.7736 C   0  0  0  0  0  0
  -29.3618  -21.0805   20.4854 C   0  0  0  0  0  0
  -30.1432  -16.9994   18.3997 C   0  0  0  0  0  0
  -28.7902  -18.4488   21.6927 C   0  0  0  0  0  0
  -30.0419  -19.7824   20.0171 C   0  0  0  0  0  0
  -29.8123  -15.8922   20.7420 C   0  0  0  0  0  0
  -27.6366  -24.1832   20.1234 C   0  0  0  0  0  0
  -28.4279  -25.3385   19.4312 C   0  0  0  0  0  0
  -30.1808  -17.2271   19.9452 C   0  0  2  0  0  0
  -28.8610  -22.8449   21.7953 N   0  0  0  0  0  0
  -28.6927  -21.9216   19.7074 N   0  0  0  0  0  0
  -28.4209  -22.9956   20.5194 N   0  0  0  0  0  0
  -29.3623  -18.4662   20.3196 N   0  3  1  0  0  0
  -31.4647  -12.4852   19.1090 H   0  0  0  0  0  0
  -30.3616  -11.3556   19.8446 H   0  0  0  0  0  0
  -29.7421  -11.7671   17.4378 H   0  0  0  0  0  0
  -29.6436  -13.4818   17.7405 H   0  0  0  0  0  0
  -27.8536  -11.2856   18.8514 H   0  0  0  0  0  0
  -27.3562  -12.5845   17.7843 H   0  0  0  0  0  0
  -27.6430  -14.2313   19.4827 H   0  0  0  0  0  0
  -28.6969  -12.0628   21.3882 H   0  0  0  0  0  0
  -28.4646  -13.7370   21.8130 H   0  0  0  0  0  0
  -25.2723   -9.5716   22.4774 H   0  0  0  0  0  0
  -24.0027   -7.4625   22.7437 H   0  0  0  0  0  0
  -21.0847   -8.8752   19.8958 H   0  0  0  0  0  0
  -22.3645  -10.9672   19.6209 H   0  0  0  0  0  0
  -21.2057   -7.6138   23.9706 H   0  0  0  0  0  0
  -21.1484   -6.0510   25.9059 H   0  0  0  0  0  0
  -22.0602   -2.7607   23.2843 H   0  0  0  0  0  0
  -22.4105  -11.9833   22.4813 H   0  0  0  0  0  0
  -21.1154  -13.1274   22.2739 H   0  0  0  0  0  0
  -24.6706  -15.8475   20.4791 H   0  0  0  0  0  0
  -26.2867  -15.6021   20.0611 H   0  0  0  0  0  0
  -26.7093  -32.5499   23.1235 H   0  0  0  0  0  0
  -25.0178  -33.9980   25.0600 H   0  0  0  0  0  0
  -22.6983  -31.3152   21.4147 H   0  0  0  0  0  0
  -23.3767  -35.9542   23.3344 H   0  0  0  0  0  0
  -24.3506  -36.8840   22.2039 H   0  0  0  0  0  0
  -23.7108  -37.6436   23.6674 H   0  0  0  0  0  0
  -26.0875  -31.5708   20.6199 H   0  0  0  0  0  0
  -26.8190  -30.8375   22.0216 H   0  0  0  0  0  0
  -28.0829  -29.0241   21.1959 H   0  0  0  0  0  0
  -25.9595  -25.9813   18.9494 H   0  0  0  0  0  0
  -23.9428  -27.3342   19.0205 H   0  0  0  0  0  0
  -23.7115  -30.6062   19.4051 H   0  0  0  0  0  0
  -22.7346  -29.2525   19.8880 H   0  0  0  0  0  0
  -25.1276  -36.2032   25.0820 H   0  0  0  0  0  0
  -21.0034  -28.3229   24.1397 H   0  0  0  0  0  0
  -20.5655  -26.2276   23.3586 H   0  0  0  0  0  0
  -21.6622  -26.7403   22.1167 H   0  0  0  0  0  0
  -19.6816  -25.6268   21.1259 H   0  0  0  0  0  0
  -19.6673  -27.3187   20.6765 H   0  0  0  0  0  0
  -17.4174  -26.6792   21.4035 H   0  0  0  0  0  0
  -18.0263  -26.0170   22.9075 H   0  0  0  0  0  0
  -19.7950  -30.7405   24.2066 H   0  0  0  0  0  0
  -17.5031  -31.6274   24.5248 H   0  0  0  0  0  0
  -15.5359  -30.2960   23.7783 H   0  0  0  0  0  0
  -15.8705  -28.0883   22.6966 H   0  0  0  0  0  0
  -24.5614  -30.7567   25.7973 H   0  0  0  0  0  0
  -24.9061  -32.3222   26.5242 H   0  0  0  0  0  0
  -25.7872  -30.8984   27.0376 H   0  0  0  0  0  0
  -26.2931  -29.6972   24.1361 H   0  0  0  0  0  0
  -27.3888  -29.7523   25.4984 H   0  0  0  0  0  0
  -27.8827  -30.4538   23.9760 H   0  0  0  0  0  0
  -27.2491  -33.3848   26.2274 H   0  0  0  0  0  0
  -28.3672  -32.7306   25.0421 H   0  0  0  0  0  0
  -28.0772  -31.8798   26.5489 H   0  0  0  0  0  0
  -28.2601  -38.0061   24.7600 H   0  0  0  0  0  0
  -28.1014  -36.2618   24.6217 H   0  0  0  0  0  0
  -27.2285  -37.1359   25.8853 H   0  0  0  0  0  0
  -20.9279  -29.8838   21.7009 H   0  0  0  0  0  0
  -26.0144  -38.2878   24.1549 H   0  0  0  0  0  0
  -29.9451  -21.2937   22.6599 H   0  0  0  0  0  0
  -30.9093  -16.2864   18.0793 H   0  0  0  0  0  0
  -30.3454  -17.9057   17.8233 H   0  0  0  0  0  0
  -29.1889  -16.5950   18.0576 H   0  0  0  0  0  0
  -28.0114  -19.2065   21.8037 H   0  0  0  0  0  0
  -29.5606  -18.6277   22.4431 H   0  0  0  0  0  0
  -28.2831  -17.5182   21.9423 H   0  0  0  0  0  0
  -31.0366  -19.7517   20.4657 H   0  0  0  0  0  0
  -30.2192  -19.8547   18.9451 H   0  0  0  0  0  0
  -28.7598  -15.6937   20.5569 H   0  0  0  0  0  0
  -29.9071  -16.0494   21.8182 H   0  0  0  0  0  0
  -26.8180  -23.8472   19.4853 H   0  0  0  0  0  0
  -27.1555  -24.5849   21.0149 H   0  0  0  0  0  0
  -28.1238  -25.4382   18.3885 H   0  0  0  0  0  0
  -29.4769  -25.0543   19.3809 H   0  0  0  0  0  0
  -31.2142  -17.4603   20.2098 H   0  0  0  0  0  0
  -28.5559  -18.4576   19.7118 H   0  0  0  0  0  0
  1 25  1  0  0  0
  1 30  2  0  0  0
  1 76  1  0  0  0
  2  3  1  0  0  0
  2 25  1  0  0  0
  2 84  1  0  0  0
  2 85  1  0  0  0
  3  4  1  0  0  0
  3 86  1  0  0  0
  3 87  1  0  0  0
  4  5  1  0  0  0
  4 88  1  0  0  0
  4 89  1  0  0  0
  5  6  1  0  0  0
  5 26  1  0  0  0
  5 90  1  0  0  0
  6 25  1  0  0  0
  6 91  1  0  0  0
  6 92  1  0  0  0
  7  8  2  0  0  0
  7 26  1  0  0  0
  7 29  1  0  0  0
  8  9  1  0  0  0
  8 22  1  0  0  0
  9 10  1  0  0  0
  9 27  2  0  0  0
 10 11  2  0  0  0
 10 15  1  0  0  0
 11 12  1  0  0  0
 11 93  1  0  0  0
 12 13  2  0  0  0
 12 94  1  0  0  0
 13 14  1  0  0  0
 13 31  1  0  0  0
 14 15  2  0  0  0
 14 95  1  0  0  0
 15 96  1  0  0  0
 16 17  2  0  0  0
 16 21  1  0  0  0
 16 31  1  0  0  0
 17 18  1  0  0  0
 17 97  1  0  0  0
 18 19  2  0  0  0
 18 98  1  0  0  0
 19 20  1  0  0  0
 19 24  1  0  0  0
 20 21  2  0  0  0
 20 99  1  0  0  0
 21 23  1  0  0  0
 22 28  1  0  0  0
 22 32  2  0  0  0
 26 27  1  0  0  0
 28100  1  0  0  0
 28101  1  0  0  0
 29102  1  0  0  0
 29103  1  0  0  0
 33 34  1  0  0  0
 33 66  1  0  0  0
 33 70  2  0  0  0
 34 36  1  0  0  0
 34 59  1  0  0  0
 34104  1  0  0  0
 35 44  2  0  0  0
 35 45  1  0  0  0
 35 68  1  0  0  0
 36 56  1  0  0  0
 36105  1  0  0  0
 37 39  1  0  0  0
 37 47  1  0  0  0
 37 66  1  0  0  0
 37106  1  0  0  0
 38 43  2  0  0  0
 38 46  1  0  0  0
 38 47  1  0  0  0
 39 64  1  0  0  0
 39 67  2  0  0  0
 40 52  1  0  0  0
 40 53  2  0  0  0
 40 58  1  0  0  0
 41107  1  0  0  0
 41108  1  0  0  0
 41109  1  0  0  0
 41 48  1  0  0  0
 42 43  1  0  0  0
 42 66  1  0  0  0
 42110  1  0  0  0
 42111  1  0  0  0
 43 44  1  0  0  0
 44112  1  0  0  0
 45 46  2  0  0  0
 45113  1  0  0  0
 46114  1  0  0  0
 47115  1  0  0  0
 47116  1  0  0  0
 48 56  1  0  0  0
 48 65  1  0  0  0
 48117  1  0  0  0
 49 50  1  0  0  0
 49 53  1  0  0  0
 49 64  1  0  0  0
 49118  1  0  0  0
 50 51  1  0  0  0
 50119  1  0  0  0
 50120  1  0  0  0
 51 52  1  0  0  0
 51121  1  0  0  0
 51122  1  0  0  0
 52123  1  0  0  0
 52124  1  0  0  0
 53 54  1  0  0  0
 54 55  2  0  0  0
 54125  1  0  0  0
 55 57  1  0  0  0
 55126  1  0  0  0
 56 69  2  0  0  0
 57 58  2  0  0  0
 57127  1  0  0  0
 58128  1  0  0  0
 59 60  1  0  0  0
 59 61  1  0  0  0
 59 62  1  0  0  0
 60129  1  0  0  0
 60130  1  0  0  0
 60131  1  0  0  0
 61132  1  0  0  0
 61133  1  0  0  0
 61134  1  0  0  0
 62135  1  0  0  0
 62136  1  0  0  0
 62137  1  0  0  0
 63 65  1  0  0  0
 63138  1  0  0  0
 63139  1  0  0  0
 63140  1  0  0  0
 64141  1  0  0  0
 65142  1  0  0  0
 68 78  1  0  0  0
 71 72  1  0  0  0
 71 80  2  0  0  0
 71143  1  0  0  0
 72 75  1  0  0  0
 72 81  2  0  0  0
 73144  1  0  0  0
 73145  1  0  0  0
 73146  1  0  0  0
 73 79  1  0  0  0
 74147  1  0  0  0
 74148  1  0  0  0
 74149  1  0  0  0
 74 83  1  0  0  0
 75 83  1  0  0  0
 75150  1  0  0  0
 75151  1  0  0  0
 76 79  1  0  0  0
 76152  1  0  0  0
 76153  1  0  0  0
 77 78  1  0  0  0
 77 82  1  0  0  0
 77154  1  0  0  0
 77155  1  0  0  0
 78156  1  0  0  0
 78157  1  0  0  0
 79 83  1  0  0  0
 79158  1  0  0  0
 80 82  1  0  0  0
 81 82  1  0  0  0
 83159  1  0  0  0
M  CHG  1  83   1
M  ISO  4   1 100  68 101  76 100  78 101
M  END
> <chiral flag>
0

> <version>
0

> <s_m_source_file>
/data/baiqing/PycharmProjects/Reinvent-master-3.2/result/LINK_invent/BTK/process_docking_weight1_custom_sum_contain_oxygen_bond_distance_aromatic_linkinvent_7_9_3/rearranged_h_0053.sdf

> <i_m_source_file_index>
44

> <r_mmod_Potential_Energy-OPLS-2005>
-143.456039428711

> <r_mmod_Stretch_Energy-OPLS-2005>
58.8005981445312

> <r_mmod_Bend_Energy-OPLS-2005>
130.084899902344

> <r_mmod_Torsional_Energy-OPLS-2005>
186.813430786133

> <r_mmod_Improper_Torsional_Energy-OPLS-2005>
4.83568382263184

> <r_mmod_Van_der_Waal_Energy-OPLS-2005>
133.358749389648

> <r_mmod_Electrostatic_Energy-OPLS-2005>
-231.037094116211

> <r_mmod_Solvation_Energy-OPLS-2005>
-458.9296875

> <b_mmod_Minimization_Converged-OPLS-2005>
0

> <r_mmod_RMS_Derivative-OPLS-2005>
6.87877464294434

$$$$
44
                    3D
 Structure written by MMmdl.
150158  0  0  1  0            999 V2000
  -30.5258  -15.0112   20.4119 C   0  0  0  0  0  0
  -30.4414  -12.6316   19.5105 C   0  0  0  0  0  0
  -29.5311  -12.5567   18.2625 C   0  0  0  0  0  0
  -28.0638  -12.3325   18.6744 C   0  0  0  0  0  0
  -27.6281  -13.2605   19.8380 C   0  0  2  0  0  0
  -28.6674  -13.3177   20.9776 C   0  0  0  0  0  0
  -25.2434  -13.8235   20.5693 C   0  0  0  0  0  0
  -24.1761  -13.0446   20.9206 C   0  0  0  0  0  0
  -24.6402  -11.6938   20.8745 C   0  0  0  0  0  0
  -23.9080  -10.4303   21.0405 C   0  0  0  0  0  0
  -24.3632   -9.4216   21.9177 C   0  0  0  0  0  0
  -23.6297   -8.2258   22.0759 C   0  0  0  0  0  0
  -22.4269   -8.0296   21.3559 C   0  0  0  0  0  0
  -21.9909   -9.0269   20.4661 C   0  0  0  0  0  0
  -22.7249  -10.2141   20.3056 C   0  0  0  0  0  0
  -21.6855   -6.0735   22.5272 C   0  0  0  0  0  0
  -21.4029   -6.5629   23.8205 C   0  0  0  0  0  0
  -21.3669   -5.6787   24.9171 C   0  0  0  0  0  0
  -21.6041   -4.3046   24.7217 C   0  0  0  0  0  0
  -21.8817   -3.8136   23.4338 C   0  0  0  0  0  0
  -21.9194   -4.6967   22.3401 C   0  0  0  0  0  0
  -22.7775  -13.5208   21.1863 C   0  0  0  0  0  0
  -22.1656   -4.2144   21.0981 F   0  0  0  0  0  0
  -21.5636   -3.4534   25.7739 F   0  0  0  0  0  0
  -29.9377  -13.7417   20.3757 N   0  0  0  0  0  0
  -26.2878  -12.9493   20.3227 N   0  0  0  0  0  0
  -25.9335  -11.6608   20.5697 N   0  0  0  0  0  0
  -22.0428  -12.8214   22.0444 N   0  0  0  0  0  0
  -25.4065  -15.1969   20.4122 N   0  0  0  0  0  0
  -31.7308  -15.0655   20.1445 O   0  0  0  0  0  0
  -21.6645   -6.8877   21.4235 O   0  0  0  0  0  0
  -22.3444  -14.5508   20.6709 O   0  0  0  0  0  0
  -24.6500  -31.8395   23.1865 C   0  0  0  0  0  0
  -25.9246  -32.4661   23.8272 C   0  0  1  0  0  0
  -27.2049  -27.0738   20.1561 C   0  0  0  0  0  0
  -25.5974  -33.8472   24.2175 N   0  0  0  0  0  0
  -23.4552  -30.4604   21.5338 C   0  0  2  0  0  0
  -24.9038  -28.8823   20.1104 C   0  0  0  0  0  0
  -22.7598  -29.4526   22.4846 C   0  0  0  0  0  0
  -18.0312  -28.1393   22.8476 C   0  0  0  0  0  0
  -24.1495  -36.7252   23.2639 C   0  0  0  0  0  0
  -26.0172  -30.6891   21.4002 C   0  0  0  0  0  0
  -26.0840  -29.2965   20.7411 C   0  0  0  0  0  0
  -27.2349  -28.4094   20.7490 C   0  0  0  0  0  0
  -26.0063  -26.7965   19.4578 C   0  0  0  0  0  0
  -24.8823  -27.6485   19.4496 C   0  0  0  0  0  0
  -23.6848  -29.7926   20.1532 C   0  0  0  0  0  0
  -25.4126  -36.3008   24.0307 C   0  0  1  0  0  0
  -20.5927  -28.3725   23.1227 C   0  0  2  0  0  0
  -20.6799  -26.9423   22.5405 C   0  0  0  0  0  0
  -19.5763  -26.6376   21.5218 C   0  0  0  0  0  0
  -18.1949  -26.7928   22.1636 C   0  0  0  0  0  0
  -19.1570  -28.8882   23.2841 C   0  0  0  0  0  0
  -18.9479  -30.1482   23.8863 C   0  0  0  0  0  0
  -17.6470  -30.6587   24.0561 C   0  0  0  0  0  0
  -25.9080  -34.9383   23.5047 C   0  0  0  0  0  0
  -16.5364  -29.9075   23.6338 C   0  0  0  0  0  0
  -16.7294  -28.6497   23.0354 C   0  0  0  0  0  0
  -26.4524  -31.6549   25.0745 C   0  0  0  0  0  0
  -25.3694  -31.3806   26.1440 C   0  0  0  0  0  0
  -27.0360  -30.2911   24.6396 C   0  0  0  0  0  0
  -27.6055  -32.4319   25.7521 C   0  0  0  0  0  0
  -27.5576  -37.1782   24.8458 C   0  0  0  0  0  0
  -21.4285  -29.3046   22.3592 N   0  0  0  0  0  0
  -26.4284  -37.3730   23.9401 N   0  0  0  0  0  0
  -24.7278  -31.0192   22.0940 N   0  0  0  0  0  0
  -23.4219  -28.8070   23.3013 O   0  0  0  0  0  0
  -28.2155  -26.0222   20.2129 O   0  0  0  0  0  0
  -26.5671  -34.8888   22.4630 O   0  0  0  0  0  0
  -23.5606  -32.1300   23.7048 O   0  0  0  0  0  0
  -28.1436  -21.7207   20.6376 C   0  0  0  0  0  0
  -30.1113  -21.4189   19.9417 C   0  0  0  0  0  0
  -28.5968  -23.0517   20.3431 C   0  0  0  0  0  0
  -28.1869  -18.7877   21.8868 C   0  0  0  0  0  0
  -27.7763  -24.5151   20.4190 C   0  0  0  0  0  0
  -30.0635  -17.7806   20.3782 C   0  0  0  0  0  0
  -28.9173  -19.0388   20.5572 C   0  0  2  0  0  0
  -29.9025  -22.7718   19.8849 N   0  0  0  0  0  0
  -29.1001  -20.6380   20.4027 N   0  0  0  0  0  0
  -29.7495  -16.2122   20.5364 N   0  0  0  0  0  0
  -31.4764  -12.7923   19.2042 H   0  0  0  0  0  0
  -30.4362  -11.6859   20.0540 H   0  0  0  0  0  0
  -29.8622  -11.7611   17.5940 H   0  0  0  0  0  0
  -29.6159  -13.4878   17.6985 H   0  0  0  0  0  0
  -27.9581  -11.2899   18.9740 H   0  0  0  0  0  0
  -27.4085  -12.4748   17.8143 H   0  0  0  0  0  0
  -27.5834  -14.2598   19.4048 H   0  0  0  0  0  0
  -28.7649  -12.3556   21.4797 H   0  0  0  0  0  0
  -28.3568  -14.0342   21.7401 H   0  0  0  0  0  0
  -25.2789   -9.5685   22.4738 H   0  0  0  0  0  0
  -24.0016   -7.4632   22.7467 H   0  0  0  0  0  0
  -21.0832   -8.8774   19.8958 H   0  0  0  0  0  0
  -22.3697  -10.9674   19.6153 H   0  0  0  0  0  0
  -21.2022   -7.6144   23.9701 H   0  0  0  0  0  0
  -21.1496   -6.0525   25.9069 H   0  0  0  0  0  0
  -22.0586   -2.7601   23.2839 H   0  0  0  0  0  0
  -22.4064  -11.9906   22.4878 H   0  0  0  0  0  0
  -21.1044  -13.1232   22.2646 H   0  0  0  0  0  0
  -24.6330  -15.8427   20.5195 H   0  0  0  0  0  0
  -26.2420  -15.6389   20.0526 H   0  0  0  0  0  0
  -26.7315  -32.5228   23.0998 H   0  0  0  0  0  0
  -25.0084  -33.9579   25.0295 H   0  0  0  0  0  0
  -22.7607  -31.2893   21.3799 H   0  0  0  0  0  0
  -23.3753  -35.9587   23.3265 H   0  0  0  0  0  0
  -24.3588  -36.8929   22.2062 H   0  0  0  0  0  0
  -23.7254  -37.6437   23.6708 H   0  0  0  0  0  0
  -26.1858  -31.4388   20.6265 H   0  0  0  0  0  0
  -26.8833  -30.7373   22.0481 H   0  0  0  0  0  0
  -28.1278  -28.7173   21.2742 H   0  0  0  0  0  0
  -25.8960  -25.8802   18.8999 H   0  0  0  0  0  0
  -23.9917  -27.3370   18.9215 H   0  0  0  0  0  0
  -23.8284  -30.5677   19.3999 H   0  0  0  0  0  0
  -22.7962  -29.2425   19.8386 H   0  0  0  0  0  0
  -25.1306  -36.1830   25.0798 H   0  0  0  0  0  0
  -21.0016  -28.3319   24.1349 H   0  0  0  0  0  0
  -20.5703  -26.2334   23.3629 H   0  0  0  0  0  0
  -21.6663  -26.7438   22.1192 H   0  0  0  0  0  0
  -19.6926  -25.6276   21.1271 H   0  0  0  0  0  0
  -19.6688  -27.3170   20.6731 H   0  0  0  0  0  0
  -17.4212  -26.6664   21.4049 H   0  0  0  0  0  0
  -18.0361  -26.0084   22.9049 H   0  0  0  0  0  0
  -19.7946  -30.7326   24.2208 H   0  0  0  0  0  0
  -17.5011  -31.6257   24.5173 H   0  0  0  0  0  0
  -15.5363  -30.2963   23.7672 H   0  0  0  0  0  0
  -15.8696  -28.0808   22.7077 H   0  0  0  0  0  0
  -24.5782  -30.7268   25.7746 H   0  0  0  0  0  0
  -24.9007  -32.3036   26.4870 H   0  0  0  0  0  0
  -25.7939  -30.8920   27.0221 H   0  0  0  0  0  0
  -26.2977  -29.6647   24.1380 H   0  0  0  0  0  0
  -27.3867  -29.7218   25.5013 H   0  0  0  0  0  0
  -27.8946  -30.4070   23.9783 H   0  0  0  0  0  0
  -27.2637  -33.3638   26.2037 H   0  0  0  0  0  0
  -28.3894  -32.6853   25.0371 H   0  0  0  0  0  0
  -28.0686  -31.8490   26.5492 H   0  0  0  0  0  0
  -28.2569  -38.0097   24.7497 H   0  0  0  0  0  0
  -28.1092  -36.2625   24.6276 H   0  0  0  0  0  0
  -27.2302  -37.1421   25.8862 H   0  0  0  0  0  0
  -20.9511  -29.8743   21.6745 H   0  0  0  0  0  0
  -26.0139  -38.2797   24.1394 H   0  0  0  0  0  0
  -27.1575  -21.4567   20.9978 H   0  0  0  0  0  0
  -31.0445  -20.9782   19.6155 H   0  0  0  0  0  0
  -27.9089  -17.7414   22.0005 H   0  0  0  0  0  0
  -27.2644  -19.3640   21.9547 H   0  0  0  0  0  0
  -28.8162  -19.0567   22.7367 H   0  0  0  0  0  0
  -27.3333  -24.5400   21.4147 H   0  0  0  0  0  0
  -26.9168  -24.3497   19.7785 H   0  0  0  0  0  0
  -30.8805  -17.9880   21.0696 H   0  0  0  0  0  0
  -30.5096  -17.8930   19.3894 H   0  0  0  0  0  0
  -28.1852  -18.8066   19.7834 H   0  0  0  0  0  0
  -28.7758  -16.0164   20.7101 H   0  0  0  0  0  0
  1 25  1  0  0  0
  1 30  2  0  0  0
  1 80  1  0  0  0
  2  3  1  0  0  0
  2 25  1  0  0  0
  2 81  1  0  0  0
  2 82  1  0  0  0
  3  4  1  0  0  0
  3 83  1  0  0  0
  3 84  1  0  0  0
  4  5  1  0  0  0
  4 85  1  0  0  0
  4 86  1  0  0  0
  5  6  1  0  0  0
  5 26  1  0  0  0
  5 87  1  0  0  0
  6 25  1  0  0  0
  6 88  1  0  0  0
  6 89  1  0  0  0
  7  8  2  0  0  0
  7 26  1  0  0  0
  7 29  1  0  0  0
  8  9  1  0  0  0
  8 22  1  0  0  0
  9 10  1  0  0  0
  9 27  2  0  0  0
 10 11  2  0  0  0
 10 15  1  0  0  0
 11 12  1  0  0  0
 11 90  1  0  0  0
 12 13  2  0  0  0
 12 91  1  0  0  0
 13 14  1  0  0  0
 13 31  1  0  0  0
 14 15  2  0  0  0
 14 92  1  0  0  0
 15 93  1  0  0  0
 16 17  2  0  0  0
 16 21  1  0  0  0
 16 31  1  0  0  0
 17 18  1  0  0  0
 17 94  1  0  0  0
 18 19  2  0  0  0
 18 95  1  0  0  0
 19 20  1  0  0  0
 19 24  1  0  0  0
 20 21  2  0  0  0
 20 96  1  0  0  0
 21 23  1  0  0  0
 22 28  1  0  0  0
 22 32  2  0  0  0
 26 27  1  0  0  0
 28 97  1  0  0  0
 28 98  1  0  0  0
 29 99  1  0  0  0
 29100  1  0  0  0
 33 34  1  0  0  0
 33 66  1  0  0  0
 33 70  2  0  0  0
 34 36  1  0  0  0
 34 59  1  0  0  0
 34101  1  0  0  0
 35 44  2  0  0  0
 35 45  1  0  0  0
 35 68  1  0  0  0
 36 56  1  0  0  0
 36102  1  0  0  0
 37 39  1  0  0  0
 37 47  1  0  0  0
 37 66  1  0  0  0
 37103  1  0  0  0
 38 43  2  0  0  0
 38 46  1  0  0  0
 38 47  1  0  0  0
 39 64  1  0  0  0
 39 67  2  0  0  0
 40 52  1  0  0  0
 40 53  2  0  0  0
 40 58  1  0  0  0
 41104  1  0  0  0
 41105  1  0  0  0
 41106  1  0  0  0
 41 48  1  0  0  0
 42 43  1  0  0  0
 42 66  1  0  0  0
 42107  1  0  0  0
 42108  1  0  0  0
 43 44  1  0  0  0
 44109  1  0  0  0
 45 46  2  0  0  0
 45110  1  0  0  0
 46111  1  0  0  0
 47112  1  0  0  0
 47113  1  0  0  0
 48 56  1  0  0  0
 48 65  1  0  0  0
 48114  1  0  0  0
 49 50  1  0  0  0
 49 53  1  0  0  0
 49 64  1  0  0  0
 49115  1  0  0  0
 50 51  1  0  0  0
 50116  1  0  0  0
 50117  1  0  0  0
 51 52  1  0  0  0
 51118  1  0  0  0
 51119  1  0  0  0
 52120  1  0  0  0
 52121  1  0  0  0
 53 54  1  0  0  0
 54 55  2  0  0  0
 54122  1  0  0  0
 55 57  1  0  0  0
 55123  1  0  0  0
 56 69  2  0  0  0
 57 58  2  0  0  0
 57124  1  0  0  0
 58125  1  0  0  0
 59 60  1  0  0  0
 59 61  1  0  0  0
 59 62  1  0  0  0
 60126  1  0  0  0
 60127  1  0  0  0
 60128  1  0  0  0
 61129  1  0  0  0
 61130  1  0  0  0
 61131  1  0  0  0
 62132  1  0  0  0
 62133  1  0  0  0
 62134  1  0  0  0
 63 65  1  0  0  0
 63135  1  0  0  0
 63136  1  0  0  0
 63137  1  0  0  0
 64138  1  0  0  0
 65139  1  0  0  0
 68 75  1  0  0  0
 71 73  2  0  0  0
 71 79  1  0  0  0
 71140  1  0  0  0
 72 78  2  0  0  0
 72 79  1  0  0  0
 72141  1  0  0  0
 73 75  1  0  0  0
 73 78  1  0  0  0
 74142  1  0  0  0
 74143  1  0  0  0
 74144  1  0  0  0
 74 77  1  0  0  0
 75145  1  0  0  0
 75146  1  0  0  0
 76 77  1  0  0  0
 76 80  1  0  0  0
 76147  1  0  0  0
 76148  1  0  0  0
 77 79  1  0  0  0
 77149  1  0  0  0
 80150  1  0  0  0
M  ISO  4   1 100  68 101  75 101  80 100
M  END
> <chiral flag>
0

> <version>
0

> <s_m_source_file>
/data/baiqing/PycharmProjects/Reinvent-master-3.2/result/LINK_invent/BTK/process_docking_weight1_custom_sum_contain_oxygen_bond_distance_aromatic_linkinvent_7_9_3/rearranged_h_0053.sdf

> <i_m_source_file_index>
45

> <r_mmod_Potential_Energy-OPLS-2005>
633.189392089844

> <r_mmod_Stretch_Energy-OPLS-2005>
315.039855957031

> <r_mmod_Bend_Energy-OPLS-2005>
310.603118896484

> <r_mmod_Torsional_Energy-OPLS-2005>
241.062591552734

> <r_mmod_Improper_Torsional_Energy-OPLS-2005>
4.87867879867554

> <r_mmod_Van_der_Waal_Energy-OPLS-2005>
112.214241027832

> <r_mmod_Electrostatic_Energy-OPLS-2005>
-358.100708007812

> <r_mmod_Solvation_Energy-OPLS-2005>
-242.298156738281

> <b_mmod_Minimization_Converged-OPLS-2005>
0

> <r_mmod_RMS_Derivative-OPLS-2005>
2.27065014839172

$$$$
45
                    3D
 Structure written by MMmdl.
160168  0  0  1  0            999 V2000
  -30.6373  -14.7432   20.3348 C   0  0  0  0  0  0
  -30.4391  -12.4156   19.4635 C   0  0  0  0  0  0
  -29.5169  -12.3763   18.2263 C   0  0  0  0  0  0
  -28.0298  -12.3012   18.6399 C   0  0  0  0  0  0
  -27.6370  -13.2244   19.8292 C   0  0  2  0  0  0
  -28.6994  -13.2154   20.9465 C   0  0  0  0  0  0
  -25.2558  -13.8200   20.5745 C   0  0  0  0  0  0
  -24.1825  -13.0449   20.9206 C   0  0  0  0  0  0
  -24.6408  -11.6922   20.8749 C   0  0  0  0  0  0
  -23.9069  -10.4308   21.0402 C   0  0  0  0  0  0
  -24.3624   -9.4226   21.9166 C   0  0  0  0  0  0
  -23.6314   -8.2252   22.0745 C   0  0  0  0  0  0
  -22.4295   -8.0287   21.3531 C   0  0  0  0  0  0
  -21.9930   -9.0253   20.4625 C   0  0  0  0  0  0
  -22.7248  -10.2144   20.3042 C   0  0  0  0  0  0
  -21.6881   -6.0733   22.5257 C   0  0  0  0  0  0
  -21.4020   -6.5628   23.8187 C   0  0  0  0  0  0
  -21.3682   -5.6773   24.9149 C   0  0  0  0  0  0
  -21.6077   -4.3045   24.7200 C   0  0  0  0  0  0
  -21.8812   -3.8135   23.4316 C   0  0  0  0  0  0
  -21.9209   -4.6960   22.3378 C   0  0  0  0  0  0
  -22.7849  -13.5230   21.1866 C   0  0  0  0  0  0
  -22.1670   -4.2140   21.0963 F   0  0  0  0  0  0
  -21.5651   -3.4530   25.7725 F   0  0  0  0  0  0
  -29.9873  -13.5295   20.3191 N   0  0  0  0  0  0
  -26.2961  -12.9361   20.3285 N   0  0  0  0  0  0
  -25.9344  -11.6518   20.5771 N   0  0  0  0  0  0
  -22.0513  -12.8191   22.0413 N   0  0  0  0  0  0
  -25.4290  -15.1928   20.4242 N   0  0  0  0  0  0
  -31.8681  -14.7856   20.2850 O   0  0  0  0  0  0
  -21.6666   -6.8877   21.4224 O   0  0  0  0  0  0
  -22.3510  -14.5536   20.6754 O   0  0  0  0  0  0
  -24.6252  -31.8611   23.1998 C   0  0  0  0  0  0
  -25.9088  -32.4800   23.8342 C   0  0  1  0  0  0
  -27.2260  -27.3087   20.1410 C   0  0  0  0  0  0
  -25.5919  -33.8604   24.2280 N   0  0  0  0  0  0
  -23.4208  -30.4784   21.5465 C   0  0  2  0  0  0
  -24.8684  -28.9236   20.1205 C   0  0  0  0  0  0
  -22.7477  -29.4607   22.4982 C   0  0  0  0  0  0
  -18.0279  -28.1381   22.8477 C   0  0  0  0  0  0
  -24.1503  -36.7288   23.2640 C   0  0  0  0  0  0
  -25.9608  -30.7886   21.3707 C   0  0  0  0  0  0
  -26.0364  -29.4110   20.7205 C   0  0  0  0  0  0
  -27.2218  -28.6178   20.7144 C   0  0  0  0  0  0
  -26.0359  -26.8648   19.5283 C   0  0  0  0  0  0
  -24.8694  -27.6549   19.5152 C   0  0  0  0  0  0
  -23.6363  -29.8055   20.1645 C   0  0  0  0  0  0
  -25.4130  -36.3105   24.0334 C   0  0  1  0  0  0
  -20.5870  -28.3677   23.1295 C   0  0  2  0  0  0
  -20.6775  -26.9411   22.5407 C   0  0  0  0  0  0
  -19.5753  -26.6382   21.5211 C   0  0  0  0  0  0
  -18.1927  -26.7918   22.1621 C   0  0  0  0  0  0
  -19.1527  -28.8849   23.2872 C   0  0  0  0  0  0
  -18.9463  -30.1454   23.8888 C   0  0  0  0  0  0
  -17.6469  -30.6595   24.0550 C   0  0  0  0  0  0
  -25.9057  -34.9478   23.5107 C   0  0  0  0  0  0
  -16.5354  -29.9093   23.6335 C   0  0  0  0  0  0
  -16.7267  -28.6505   23.0354 C   0  0  0  0  0  0
  -26.4461  -31.6613   25.0724 C   0  0  0  0  0  0
  -25.3664  -31.3772   26.1438 C   0  0  0  0  0  0
  -27.0309  -30.3051   24.6163 C   0  0  0  0  0  0
  -27.6044  -32.4329   25.7480 C   0  0  0  0  0  0
  -27.5589  -37.1806   24.8468 C   0  0  0  0  0  0
  -21.4191  -29.3034   22.3720 N   0  0  0  0  0  0
  -26.4309  -37.3796   23.9403 N   0  0  0  0  0  0
  -24.6884  -31.0590   22.0960 N   0  0  0  0  0  0
  -23.4195  -28.8160   23.3071 O   0  0  0  0  0  0
  -28.3496  -26.4719   20.1422 O   0  0  0  0  0  0
  -26.5639  -34.8934   22.4683 O   0  0  0  0  0  0
  -23.5417  -32.1422   23.7312 O   0  0  0  0  0  0
  -29.0469  -21.2004   19.9385 C   0  0  0  0  0  0
  -29.4142  -20.0054   20.6469 C   0  0  0  0  0  0
  -29.1792  -22.4803   20.5750 C   0  0  0  0  0  0
  -29.9768  -21.3459   22.4237 C   0  0  0  0  0  0
  -30.5187  -21.4320   23.8329 C   0  0  0  0  0  0
  -30.6317  -16.5780   17.7072 C   0  0  0  0  0  0
  -29.2166  -18.5367   20.1108 C   0  0  0  0  0  0
  -28.9760  -23.8888   19.8811 C   0  0  0  0  0  0
  -29.5030  -16.0329   18.6154 C   0  0  0  0  0  0
  -30.1217  -17.2890   20.6292 C   0  0  0  0  0  0
  -28.2060  -25.0732   20.6360 C   0  0  0  0  0  0
  -29.8543  -20.1235   21.9102 N   0  0  0  0  0  0
  -29.6824  -22.5011   21.8257 N   0  0  0  0  0  0
  -29.9001  -15.8933   20.0331 N   0  0  0  0  0  0
  -31.4818  -12.5285   19.1569 H   0  0  0  0  0  0
  -30.3827  -11.4717   20.0086 H   0  0  0  0  0  0
  -29.7595  -11.4990   17.6256 H   0  0  0  0  0  0
  -29.7119  -13.2126   17.5617 H   0  0  0  0  0  0
  -27.8394  -11.2635   18.9111 H   0  0  0  0  0  0
  -27.3903  -12.5067   17.7812 H   0  0  0  0  0  0
  -27.5949  -14.2323   19.4267 H   0  0  0  0  0  0
  -28.7386  -12.2506   21.4550 H   0  0  0  0  0  0
  -28.4607  -13.9611   21.7069 H   0  0  0  0  0  0
  -25.2769   -9.5737   22.4716 H   0  0  0  0  0  0
  -24.0053   -7.4659   22.7477 H   0  0  0  0  0  0
  -21.0863   -8.8762   19.8910 H   0  0  0  0  0  0
  -22.3704  -10.9675   19.6137 H   0  0  0  0  0  0
  -21.1982   -7.6128   23.9684 H   0  0  0  0  0  0
  -21.1537   -6.0502   25.9053 H   0  0  0  0  0  0
  -22.0581   -2.7597   23.2814 H   0  0  0  0  0  0
  -22.4192  -11.9862   22.4758 H   0  0  0  0  0  0
  -21.1119  -13.1152   22.2645 H   0  0  0  0  0  0
  -24.6757  -15.8565   20.5661 H   0  0  0  0  0  0
  -26.2996  -15.6335   20.1585 H   0  0  0  0  0  0
  -26.7166  -32.5474   23.1105 H   0  0  0  0  0  0
  -25.0062  -33.9764   25.0420 H   0  0  0  0  0  0
  -22.7132  -31.2964   21.3996 H   0  0  0  0  0  0
  -23.3789  -35.9594   23.3307 H   0  0  0  0  0  0
  -24.3582  -36.8899   22.2048 H   0  0  0  0  0  0
  -23.7227  -37.6480   23.6652 H   0  0  0  0  0  0
  -26.0848  -31.5448   20.5938 H   0  0  0  0  0  0
  -26.8435  -30.8470   21.9960 H   0  0  0  0  0  0
  -28.1227  -28.9905   21.1824 H   0  0  0  0  0  0
  -26.0020  -25.8891   19.0646 H   0  0  0  0  0  0
  -23.9717  -27.2689   19.0531 H   0  0  0  0  0  0
  -23.7618  -30.5790   19.4065 H   0  0  0  0  0  0
  -22.7558  -29.2346   19.8625 H   0  0  0  0  0  0
  -25.1315  -36.1964   25.0828 H   0  0  0  0  0  0
  -20.9935  -28.3243   24.1422 H   0  0  0  0  0  0
  -20.5691  -26.2288   23.3598 H   0  0  0  0  0  0
  -21.6643  -26.7465   22.1186 H   0  0  0  0  0  0
  -19.6918  -25.6291   21.1245 H   0  0  0  0  0  0
  -19.6684  -27.3190   20.6735 H   0  0  0  0  0  0
  -17.4189  -26.6641   21.4030 H   0  0  0  0  0  0
  -18.0342  -26.0073   22.9034 H   0  0  0  0  0  0
  -19.7945  -30.7263   24.2247 H   0  0  0  0  0  0
  -17.5034  -31.6273   24.5159 H   0  0  0  0  0  0
  -15.5355  -30.3000   23.7685 H   0  0  0  0  0  0
  -15.8653  -28.0839   22.7080 H   0  0  0  0  0  0
  -24.5813  -30.7170   25.7728 H   0  0  0  0  0  0
  -24.8881  -32.2960   26.4854 H   0  0  0  0  0  0
  -25.7939  -30.8917   27.0219 H   0  0  0  0  0  0
  -26.2895  -29.6812   24.1168 H   0  0  0  0  0  0
  -27.4010  -29.7300   25.4654 H   0  0  0  0  0  0
  -27.8749  -30.4374   23.9393 H   0  0  0  0  0  0
  -27.2696  -33.3637   26.2070 H   0  0  0  0  0  0
  -28.3840  -32.6874   25.0286 H   0  0  0  0  0  0
  -28.0729  -31.8437   26.5373 H   0  0  0  0  0  0
  -28.2626  -38.0091   24.7533 H   0  0  0  0  0  0
  -28.1079  -36.2627   24.6302 H   0  0  0  0  0  0
  -27.2298  -37.1456   25.8870 H   0  0  0  0  0  0
  -20.9389  -29.8758   21.6919 H   0  0  0  0  0  0
  -26.0204  -38.2878   24.1400 H   0  0  0  0  0  0
  -28.6772  -21.1355   18.9231 H   0  0  0  0  0  0
  -30.6893  -20.4405   24.2531 H   0  0  0  0  0  0
  -29.8150  -21.9568   24.4781 H   0  0  0  0  0  0
  -31.4669  -21.9690   23.8427 H   0  0  0  0  0  0
  -31.4322  -15.8481   17.5787 H   0  0  0  0  0  0
  -31.0860  -17.4923   18.0920 H   0  0  0  0  0  0
  -30.2454  -16.8167   16.7159 H   0  0  0  0  0  0
  -29.3314  -18.6471   19.0330 H   0  0  0  0  0  0
  -28.1653  -18.2915   20.2670 H   0  0  0  0  0  0
  -28.4861  -23.7241   18.9203 H   0  0  0  0  0  0
  -29.9725  -24.2562   19.6345 H   0  0  0  0  0  0
  -28.6007  -16.6353   18.5228 H   0  0  0  0  0  0
  -29.1886  -15.0859   18.2011 H   0  0  0  0  0  0
  -29.9964  -17.2022   21.7088 H   0  0  0  0  0  0
  -31.1719  -17.5477   20.4839 H   0  0  0  0  0  0
  -28.5969  -25.1030   21.6539 H   0  0  0  0  0  0
  -27.1594  -24.7919   20.7548 H   0  0  0  0  0  0
  1 25  1  0  0  0
  1 30  2  0  0  0
  1 84  1  0  0  0
  2  3  1  0  0  0
  2 25  1  0  0  0
  2 85  1  0  0  0
  2 86  1  0  0  0
  3  4  1  0  0  0
  3 87  1  0  0  0
  3 88  1  0  0  0
  4  5  1  0  0  0
  4 89  1  0  0  0
  4 90  1  0  0  0
  5  6  1  0  0  0
  5 26  1  0  0  0
  5 91  1  0  0  0
  6 25  1  0  0  0
  6 92  1  0  0  0
  6 93  1  0  0  0
  7  8  2  0  0  0
  7 26  1  0  0  0
  7 29  1  0  0  0
  8  9  1  0  0  0
  8 22  1  0  0  0
  9 10  1  0  0  0
  9 27  2  0  0  0
 10 11  2  0  0  0
 10 15  1  0  0  0
 11 12  1  0  0  0
 11 94  1  0  0  0
 12 13  2  0  0  0
 12 95  1  0  0  0
 13 14  1  0  0  0
 13 31  1  0  0  0
 14 15  2  0  0  0
 14 96  1  0  0  0
 15 97  1  0  0  0
 16 17  2  0  0  0
 16 21  1  0  0  0
 16 31  1  0  0  0
 17 18  1  0  0  0
 17 98  1  0  0  0
 18 19  2  0  0  0
 18 99  1  0  0  0
 19 20  1  0  0  0
 19 24  1  0  0  0
 20 21  2  0  0  0
 20100  1  0  0  0
 21 23  1  0  0  0
 22 28  1  0  0  0
 22 32  2  0  0  0
 26 27  1  0  0  0
 28101  1  0  0  0
 28102  1  0  0  0
 29103  1  0  0  0
 29104  1  0  0  0
 33 34  1  0  0  0
 33 66  1  0  0  0
 33 70  2  0  0  0
 34 36  1  0  0  0
 34 59  1  0  0  0
 34105  1  0  0  0
 35 44  2  0  0  0
 35 45  1  0  0  0
 35 68  1  0  0  0
 36 56  1  0  0  0
 36106  1  0  0  0
 37 39  1  0  0  0
 37 47  1  0  0  0
 37 66  1  0  0  0
 37107  1  0  0  0
 38 43  2  0  0  0
 38 46  1  0  0  0
 38 47  1  0  0  0
 39 64  1  0  0  0
 39 67  2  0  0  0
 40 52  1  0  0  0
 40 53  2  0  0  0
 40 58  1  0  0  0
 41108  1  0  0  0
 41109  1  0  0  0
 41110  1  0  0  0
 41 48  1  0  0  0
 42 43  1  0  0  0
 42 66  1  0  0  0
 42111  1  0  0  0
 42112  1  0  0  0
 43 44  1  0  0  0
 44113  1  0  0  0
 45 46  2  0  0  0
 45114  1  0  0  0
 46115  1  0  0  0
 47116  1  0  0  0
 47117  1  0  0  0
 48 56  1  0  0  0
 48 65  1  0  0  0
 48118  1  0  0  0
 49 50  1  0  0  0
 49 53  1  0  0  0
 49 64  1  0  0  0
 49119  1  0  0  0
 50 51  1  0  0  0
 50120  1  0  0  0
 50121  1  0  0  0
 51 52  1  0  0  0
 51122  1  0  0  0
 51123  1  0  0  0
 52124  1  0  0  0
 52125  1  0  0  0
 53 54  1  0  0  0
 54 55  2  0  0  0
 54126  1  0  0  0
 55 57  1  0  0  0
 55127  1  0  0  0
 56 69  2  0  0  0
 57 58  2  0  0  0
 57128  1  0  0  0
 58129  1  0  0  0
 59 60  1  0  0  0
 59 61  1  0  0  0
 59 62  1  0  0  0
 60130  1  0  0  0
 60131  1  0  0  0
 60132  1  0  0  0
 61133  1  0  0  0
 61134  1  0  0  0
 61135  1  0  0  0
 62136  1  0  0  0
 62137  1  0  0  0
 62138  1  0  0  0
 63 65  1  0  0  0
 63139  1  0  0  0
 63140  1  0  0  0
 63141  1  0  0  0
 64142  1  0  0  0
 65143  1  0  0  0
 68 81  1  0  0  0
 71 72  2  0  0  0
 71 73  1  0  0  0
 71144  1  0  0  0
 72 77  1  0  0  0
 72 82  1  0  0  0
 73 78  1  0  0  0
 73 83  2  0  0  0
 74 75  1  0  0  0
 74 82  2  0  0  0
 74 83  1  0  0  0
 75145  1  0  0  0
 75146  1  0  0  0
 75147  1  0  0  0
 76 79  1  0  0  0
 76148  1  0  0  0
 76149  1  0  0  0
 76150  1  0  0  0
 77 80  1  0  0  0
 77151  1  0  0  0
 77152  1  0  0  0
 78 81  1  0  0  0
 78153  1  0  0  0
 78154  1  0  0  0
 79 84  1  0  0  0
 79155  1  0  0  0
 79156  1  0  0  0
 80 84  1  0  0  0
 80157  1  0  0  0
 80158  1  0  0  0
 81159  1  0  0  0
 81160  1  0  0  0
M  ISO  4   1 100  68 101  81 101  84 100
M  END
> <chiral flag>
0

> <version>
0

> <s_m_source_file>
/data/baiqing/PycharmProjects/Reinvent-master-3.2/result/LINK_invent/BTK/process_docking_weight1_custom_sum_contain_oxygen_bond_distance_aromatic_linkinvent_7_9_3/rearranged_h_0053.sdf

> <i_m_source_file_index>
46

> <r_mmod_Potential_Energy-OPLS-2005>
-44.4569206237793

> <r_mmod_Stretch_Energy-OPLS-2005>
101.76537322998

> <r_mmod_Bend_Energy-OPLS-2005>
155.278579711914

> <r_mmod_Torsional_Energy-OPLS-2005>
332.039154052734

> <r_mmod_Improper_Torsional_Energy-OPLS-2005>
13.4258699417114

> <r_mmod_Van_der_Waal_Energy-OPLS-2005>
152.774215698242

> <r_mmod_Electrostatic_Energy-OPLS-2005>
-665.089111328125

> <r_mmod_Solvation_Energy-OPLS-2005>
-222.037490844727

> <b_mmod_Minimization_Converged-OPLS-2005>
0

> <r_mmod_RMS_Derivative-OPLS-2005>
3.24191904067993

$$$$
46
                    3D
 Structure written by MMmdl.
159167  0  0  1  0            999 V2000
  -30.6513  -14.7227   20.4782 C   0  0  0  0  0  0
  -30.4392  -12.4469   19.4764 C   0  0  0  0  0  0
  -29.5014  -12.4888   18.2485 C   0  0  0  0  0  0
  -28.0330  -12.3235   18.6761 C   0  0  0  0  0  0
  -27.6467  -13.2354   19.8693 C   0  0  2  0  0  0
  -28.6971  -13.1576   20.9999 C   0  0  0  0  0  0
  -25.2492  -13.8202   20.5704 C   0  0  0  0  0  0
  -24.1789  -13.0421   20.9234 C   0  0  0  0  0  0
  -24.6411  -11.6920   20.8800 C   0  0  0  0  0  0
  -23.9107  -10.4289   21.0444 C   0  0  0  0  0  0
  -24.3646   -9.4186   21.9191 C   0  0  0  0  0  0
  -23.6301   -8.2232   22.0745 C   0  0  0  0  0  0
  -22.4296   -8.0290   21.3523 C   0  0  0  0  0  0
  -21.9941   -9.0284   20.4636 C   0  0  0  0  0  0
  -22.7304  -10.2142   20.3069 C   0  0  0  0  0  0
  -21.6829   -6.0729   22.5268 C   0  0  0  0  0  0
  -21.4009   -6.5634   23.8209 C   0  0  0  0  0  0
  -21.3668   -5.6784   24.9165 C   0  0  0  0  0  0
  -21.6061   -4.3053   24.7226 C   0  0  0  0  0  0
  -21.8824   -3.8147   23.4347 C   0  0  0  0  0  0
  -21.9202   -4.6955   22.3395 C   0  0  0  0  0  0
  -22.7815  -13.5204   21.1904 C   0  0  0  0  0  0
  -22.1653   -4.2137   21.0969 F   0  0  0  0  0  0
  -21.5665   -3.4543   25.7738 F   0  0  0  0  0  0
  -30.0040  -13.5061   20.4169 N   0  0  0  0  0  0
  -26.2963  -12.9428   20.3422 N   0  0  0  0  0  0
  -25.9357  -11.6567   20.5868 N   0  0  0  0  0  0
  -22.0520  -12.8115   22.0446 N   0  0  0  0  0  0
  -25.4182  -15.1878   20.4084 N   0  0  0  0  0  0
  -31.8229  -14.8211   20.1066 O   0  0  0  0  0  0
  -21.6637   -6.8890   21.4233 O   0  0  0  0  0  0
  -22.3455  -14.5504   20.6785 O   0  0  0  0  0  0
  -24.6303  -31.8480   23.1945 C   0  0  0  0  0  0
  -25.9115  -32.4675   23.8276 C   0  0  1  0  0  0
  -27.2454  -27.2569   20.1239 C   0  0  0  0  0  0
  -25.5858  -33.8467   24.2171 N   0  0  0  0  0  0
  -23.4314  -30.4695   21.5370 C   0  0  2  0  0  0
  -24.8892  -28.9099   20.1138 C   0  0  0  0  0  0
  -22.7483  -29.4599   22.4879 C   0  0  0  0  0  0
  -18.0220  -28.1450   22.8442 C   0  0  0  0  0  0
  -24.1474  -36.7305   23.2648 C   0  0  0  0  0  0
  -25.9805  -30.7485   21.3954 C   0  0  0  0  0  0
  -26.0543  -29.3772   20.7262 C   0  0  0  0  0  0
  -27.2310  -28.5637   20.7186 C   0  0  0  0  0  0
  -26.0549  -26.8476   19.4849 C   0  0  0  0  0  0
  -24.8935  -27.6537   19.4876 C   0  0  0  0  0  0
  -23.6601  -29.7980   20.1562 C   0  0  0  0  0  0
  -25.4093  -36.3028   24.0297 C   0  0  1  0  0  0
  -20.5856  -28.3785   23.1226 C   0  0  2  0  0  0
  -20.6779  -26.9488   22.5439 C   0  0  0  0  0  0
  -19.5755  -26.6424   21.5254 C   0  0  0  0  0  0
  -18.1900  -26.7961   22.1622 C   0  0  0  0  0  0
  -19.1488  -28.8928   23.2794 C   0  0  0  0  0  0
  -18.9449  -30.1540   23.8814 C   0  0  0  0  0  0
  -17.6462  -30.6636   24.0588 C   0  0  0  0  0  0
  -25.9019  -34.9383   23.5065 C   0  0  0  0  0  0
  -16.5339  -29.9160   23.6357 C   0  0  0  0  0  0
  -16.7225  -28.6631   23.0308 C   0  0  0  0  0  0
  -26.4462  -31.6544   25.0745 C   0  0  0  0  0  0
  -25.3621  -31.3844   26.1461 C   0  0  0  0  0  0
  -27.0412  -30.2871   24.6529 C   0  0  0  0  0  0
  -27.5917  -32.4432   25.7501 C   0  0  0  0  0  0
  -27.5557  -37.1753   24.8404 C   0  0  0  0  0  0
  -21.4191  -29.3082   22.3570 N   0  0  0  0  0  0
  -26.4259  -37.3737   23.9403 N   0  0  0  0  0  0
  -24.6971  -31.0431   22.0940 N   0  0  0  0  0  0
  -23.4159  -28.8146   23.3012 O   0  0  0  0  0  0
  -28.3940  -26.4271   20.2021 O   0  0  0  0  0  0
  -26.5650  -34.8880   22.4668 O   0  0  0  0  0  0
  -23.5434  -32.1320   23.7195 O   0  0  0  0  0  0
  -28.4485  -21.0092   20.4720 C   0  0  0  0  0  0
  -29.0895  -22.3133   20.5411 C   0  0  0  0  0  0
  -29.4120  -19.9959   20.4118 C   0  0  0  0  0  0
  -29.0749  -18.1636   18.6884 C   0  0  0  0  0  0
  -27.8491  -17.9966   20.8054 C   0  0  0  0  0  0
  -31.9922  -20.2799   20.5211 C   0  0  0  0  0  0
  -28.5214  -23.7768   20.8275 C   0  0  0  0  0  0
  -30.3033  -17.3454   20.7550 C   0  0  0  0  0  0
  -28.4966  -24.9875   19.7554 C   0  0  0  0  0  0
  -29.2163  -18.4183   20.2065 C   0  0  0  0  0  0
  -30.4009  -22.0880   20.5541 N   0  0  0  0  0  0
  -30.6066  -20.7315   20.4772 N   0  0  0  0  0  0
  -29.9199  -15.8545   20.7828 N   0  0  0  0  0  0
  -31.4744  -12.5766   19.1511 H   0  0  0  0  0  0
  -30.4049  -11.4734   19.9681 H   0  0  0  0  0  0
  -29.7713  -11.6991   17.5481 H   0  0  0  0  0  0
  -29.6225  -13.4330   17.7196 H   0  0  0  0  0  0
  -27.8974  -11.2785   18.9554 H   0  0  0  0  0  0
  -27.3640  -12.5006   17.8340 H   0  0  0  0  0  0
  -27.6504  -14.2581   19.4888 H   0  0  0  0  0  0
  -28.7194  -12.1529   21.4299 H   0  0  0  0  0  0
  -28.4317  -13.8303   21.8179 H   0  0  0  0  0  0
  -25.2816   -9.5621   22.4736 H   0  0  0  0  0  0
  -24.0026   -7.4596   22.7419 H   0  0  0  0  0  0
  -21.0906   -8.8840   19.8879 H   0  0  0  0  0  0
  -22.3840  -10.9695   19.6155 H   0  0  0  0  0  0
  -21.1973   -7.6132   23.9694 H   0  0  0  0  0  0
  -21.1486   -6.0515   25.9063 H   0  0  0  0  0  0
  -22.0597   -2.7602   23.2851 H   0  0  0  0  0  0
  -22.4263  -11.9805   22.4786 H   0  0  0  0  0  0
  -21.1122  -13.1020   22.2729 H   0  0  0  0  0  0
  -24.6617  -15.8543   20.5234 H   0  0  0  0  0  0
  -26.2751  -15.6097   20.0738 H   0  0  0  0  0  0
  -26.7175  -32.5294   23.0990 H   0  0  0  0  0  0
  -24.9855  -33.9553   25.0211 H   0  0  0  0  0  0
  -22.7314  -31.2899   21.3804 H   0  0  0  0  0  0
  -23.3744  -35.9615   23.3275 H   0  0  0  0  0  0
  -24.3496  -36.9065   22.2075 H   0  0  0  0  0  0
  -23.7304  -37.6500   23.6764 H   0  0  0  0  0  0
  -26.1391  -31.5139   20.6345 H   0  0  0  0  0  0
  -26.8398  -30.7685   22.0571 H   0  0  0  0  0  0
  -28.1291  -28.9283   21.1996 H   0  0  0  0  0  0
  -25.9876  -25.8937   18.9839 H   0  0  0  0  0  0
  -23.9936  -27.2961   19.0050 H   0  0  0  0  0  0
  -23.7910  -30.5689   19.3957 H   0  0  0  0  0  0
  -22.7755  -29.2382   19.8527 H   0  0  0  0  0  0
  -25.1279  -36.1816   25.0787 H   0  0  0  0  0  0
  -20.9839  -28.3484   24.1382 H   0  0  0  0  0  0
  -20.5823  -26.2396   23.3667 H   0  0  0  0  0  0
  -21.6633  -26.7613   22.1179 H   0  0  0  0  0  0
  -19.6965  -25.6329   21.1309 H   0  0  0  0  0  0
  -19.6733  -27.3231   20.6793 H   0  0  0  0  0  0
  -17.4202  -26.6662   21.4006 H   0  0  0  0  0  0
  -18.0284  -26.0067   22.9003 H   0  0  0  0  0  0
  -19.7949  -30.7326   24.2188 H   0  0  0  0  0  0
  -17.5050  -31.6262   24.5281 H   0  0  0  0  0  0
  -15.5360  -30.3079   23.7781 H   0  0  0  0  0  0
  -15.8591  -28.1024   22.7034 H   0  0  0  0  0  0
  -24.5559  -30.7494   25.7812 H   0  0  0  0  0  0
  -24.9107  -32.3145   26.4938 H   0  0  0  0  0  0
  -25.7777  -30.8877   27.0231 H   0  0  0  0  0  0
  -26.3151  -29.6448   24.1563 H   0  0  0  0  0  0
  -27.3969  -29.7314   25.5237 H   0  0  0  0  0  0
  -27.9037  -30.4096   23.9964 H   0  0  0  0  0  0
  -27.2411  -33.3731   26.2001 H   0  0  0  0  0  0
  -28.3727  -32.7086   25.0365 H   0  0  0  0  0  0
  -28.0587  -31.8674   26.5519 H   0  0  0  0  0  0
  -28.2486  -38.0134   24.7483 H   0  0  0  0  0  0
  -28.1153  -36.2640   24.6184 H   0  0  0  0  0  0
  -27.2181  -37.1332   25.8773 H   0  0  0  0  0  0
  -20.9435  -29.8826   21.6736 H   0  0  0  0  0  0
  -26.0107  -38.2769   24.1527 H   0  0  0  0  0  0
  -27.3782  -20.8398   20.4856 H   0  0  0  0  0  0
  -28.2944  -18.7912   18.2580 H   0  0  0  0  0  0
  -28.7941  -17.1326   18.4664 H   0  0  0  0  0  0
  -29.9907  -18.3679   18.1303 H   0  0  0  0  0  0
  -27.0200  -18.5452   20.3596 H   0  0  0  0  0  0
  -27.8031  -18.1405   21.8825 H   0  0  0  0  0  0
  -27.6254  -16.9469   20.6174 H   0  0  0  0  0  0
  -32.2354  -19.7078   19.6302 H   0  0  0  0  0  0
  -32.1655  -19.6740   21.4136 H   0  0  0  0  0  0
  -32.6797  -21.1319   20.5587 H   0  0  0  0  0  0
  -29.0771  -24.1519   21.6878 H   0  0  0  0  0  0
  -27.5018  -23.6720   21.1966 H   0  0  0  0  0  0
  -30.5663  -17.6265   21.7775 H   0  0  0  0  0  0
  -31.2270  -17.4659   20.1827 H   0  0  0  0  0  0
  -27.7745  -24.7667   18.9757 H   0  0  0  0  0  0
  -29.4566  -24.9523   19.2370 H   0  0  0  0  0  0
  -28.9852  -15.6646   21.1134 H   0  0  0  0  0  0
  1 25  1  0  0  0
  1 30  2  0  0  0
  1 83  1  0  0  0
  2  3  1  0  0  0
  2 25  1  0  0  0
  2 84  1  0  0  0
  2 85  1  0  0  0
  3  4  1  0  0  0
  3 86  1  0  0  0
  3 87  1  0  0  0
  4  5  1  0  0  0
  4 88  1  0  0  0
  4 89  1  0  0  0
  5  6  1  0  0  0
  5 26  1  0  0  0
  5 90  1  0  0  0
  6 25  1  0  0  0
  6 91  1  0  0  0
  6 92  1  0  0  0
  7  8  2  0  0  0
  7 26  1  0  0  0
  7 29  1  0  0  0
  8  9  1  0  0  0
  8 22  1  0  0  0
  9 10  1  0  0  0
  9 27  2  0  0  0
 10 11  2  0  0  0
 10 15  1  0  0  0
 11 12  1  0  0  0
 11 93  1  0  0  0
 12 13  2  0  0  0
 12 94  1  0  0  0
 13 14  1  0  0  0
 13 31  1  0  0  0
 14 15  2  0  0  0
 14 95  1  0  0  0
 15 96  1  0  0  0
 16 17  2  0  0  0
 16 21  1  0  0  0
 16 31  1  0  0  0
 17 18  1  0  0  0
 17 97  1  0  0  0
 18 19  2  0  0  0
 18 98  1  0  0  0
 19 20  1  0  0  0
 19 24  1  0  0  0
 20 21  2  0  0  0
 20 99  1  0  0  0
 21 23  1  0  0  0
 22 28  1  0  0  0
 22 32  2  0  0  0
 26 27  1  0  0  0
 28100  1  0  0  0
 28101  1  0  0  0
 29102  1  0  0  0
 29103  1  0  0  0
 33 34  1  0  0  0
 33 66  1  0  0  0
 33 70  2  0  0  0
 34 36  1  0  0  0
 34 59  1  0  0  0
 34104  1  0  0  0
 35 44  2  0  0  0
 35 45  1  0  0  0
 35 68  1  0  0  0
 36 56  1  0  0  0
 36105  1  0  0  0
 37 39  1  0  0  0
 37 47  1  0  0  0
 37 66  1  0  0  0
 37106  1  0  0  0
 38 43  2  0  0  0
 38 46  1  0  0  0
 38 47  1  0  0  0
 39 64  1  0  0  0
 39 67  2  0  0  0
 40 52  1  0  0  0
 40 53  2  0  0  0
 40 58  1  0  0  0
 41107  1  0  0  0
 41108  1  0  0  0
 41109  1  0  0  0
 41 48  1  0  0  0
 42 43  1  0  0  0
 42 66  1  0  0  0
 42110  1  0  0  0
 42111  1  0  0  0
 43 44  1  0  0  0
 44112  1  0  0  0
 45 46  2  0  0  0
 45113  1  0  0  0
 46114  1  0  0  0
 47115  1  0  0  0
 47116  1  0  0  0
 48 56  1  0  0  0
 48 65  1  0  0  0
 48117  1  0  0  0
 49 50  1  0  0  0
 49 53  1  0  0  0
 49 64  1  0  0  0
 49118  1  0  0  0
 50 51  1  0  0  0
 50119  1  0  0  0
 50120  1  0  0  0
 51 52  1  0  0  0
 51121  1  0  0  0
 51122  1  0  0  0
 52123  1  0  0  0
 52124  1  0  0  0
 53 54  1  0  0  0
 54 55  2  0  0  0
 54125  1  0  0  0
 55 57  1  0  0  0
 55126  1  0  0  0
 56 69  2  0  0  0
 57 58  2  0  0  0
 57127  1  0  0  0
 58128  1  0  0  0
 59 60  1  0  0  0
 59 61  1  0  0  0
 59 62  1  0  0  0
 60129  1  0  0  0
 60130  1  0  0  0
 60131  1  0  0  0
 61132  1  0  0  0
 61133  1  0  0  0
 61134  1  0  0  0
 62135  1  0  0  0
 62136  1  0  0  0
 62137  1  0  0  0
 63 65  1  0  0  0
 63138  1  0  0  0
 63139  1  0  0  0
 63140  1  0  0  0
 64141  1  0  0  0
 65142  1  0  0  0
 68 79  1  0  0  0
 71 72  1  0  0  0
 71 73  2  0  0  0
 71143  1  0  0  0
 72 77  1  0  0  0
 72 81  2  0  0  0
 73 80  1  0  0  0
 73 82  1  0  0  0
 74144  1  0  0  0
 74145  1  0  0  0
 74146  1  0  0  0
 74 80  1  0  0  0
 75 80  1  0  0  0
 75147  1  0  0  0
 75148  1  0  0  0
 75149  1  0  0  0
 76 82  1  0  0  0
 76150  1  0  0  0
 76151  1  0  0  0
 76152  1  0  0  0
 77 79  1  0  0  0
 77153  1  0  0  0
 77154  1  0  0  0
 78 80  1  0  0  0
 78 83  1  0  0  0
 78155  1  0  0  0
 78156  1  0  0  0
 79157  1  0  0  0
 79158  1  0  0  0
 81 82  1  0  0  0
 83159  1  0  0  0
M  ISO  4   1 100  68 101  79 101  83 100
M  END
> <chiral flag>
0

> <version>
0

> <s_m_source_file>
/data/baiqing/PycharmProjects/Reinvent-master-3.2/result/LINK_invent/BTK/process_docking_weight1_custom_sum_contain_oxygen_bond_distance_aromatic_linkinvent_7_9_3/rearranged_h_0053.sdf

> <i_m_source_file_index>
47

> <r_mmod_Potential_Energy-OPLS-2005>
78.1283416748047

> <r_mmod_Stretch_Energy-OPLS-2005>
128.042266845703

> <r_mmod_Bend_Energy-OPLS-2005>
198.638626098633

> <r_mmod_Torsional_Energy-OPLS-2005>
212.7490234375

> <r_mmod_Improper_Torsional_Energy-OPLS-2005>
4.90221071243286

> <r_mmod_Van_der_Waal_Energy-OPLS-2005>
112.483993530273

> <r_mmod_Electrostatic_Energy-OPLS-2005>
-435.404144287109

> <r_mmod_Solvation_Energy-OPLS-2005>
-222.16633605957

> <b_mmod_Minimization_Converged-OPLS-2005>
0

> <r_mmod_RMS_Derivative-OPLS-2005>
7.92462587356567

$$$$
47
                    3D
 Structure written by MMmdl.
151159  0  0  1  0            999 V2000
  -30.2156  -15.7129   20.3173 C   0  0  0  0  0  0
  -30.4418  -13.1318   19.5417 C   0  0  0  0  0  0
  -29.5632  -12.6830   18.3302 C   0  0  0  0  0  0
  -28.1365  -12.2979   18.7609 C   0  0  0  0  0  0
  -27.6004  -13.2863   19.8154 C   0  0  2  0  0  0
  -28.6239  -13.5965   20.9300 C   0  0  0  0  0  0
  -25.2387  -13.8212   20.5796 C   0  0  0  0  0  0
  -24.1740  -13.0398   20.9264 C   0  0  0  0  0  0
  -24.6412  -11.6899   20.8750 C   0  0  0  0  0  0
  -23.9101  -10.4270   21.0400 C   0  0  0  0  0  0
  -24.3640   -9.4188   21.9184 C   0  0  0  0  0  0
  -23.6303   -8.2231   22.0754 C   0  0  0  0  0  0
  -22.4284   -8.0275   21.3541 C   0  0  0  0  0  0
  -21.9931   -9.0248   20.4641 C   0  0  0  0  0  0
  -22.7271  -10.2121   20.3050 C   0  0  0  0  0  0
  -21.6852   -6.0735   22.5280 C   0  0  0  0  0  0
  -21.4011   -6.5637   23.8213 C   0  0  0  0  0  0
  -21.3664   -5.6790   24.9176 C   0  0  0  0  0  0
  -21.6046   -4.3053   24.7228 C   0  0  0  0  0  0
  -21.8816   -3.8145   23.4346 C   0  0  0  0  0  0
  -21.9193   -4.6964   22.3405 C   0  0  0  0  0  0
  -22.7760  -13.5159   21.1905 C   0  0  0  0  0  0
  -22.1661   -4.2149   21.0982 F   0  0  0  0  0  0
  -21.5636   -3.4537   25.7741 F   0  0  0  0  0  0
  -29.7851  -14.2948   20.3054 N   0  0  0  0  0  0
  -26.2805  -12.9481   20.3240 N   0  0  0  0  0  0
  -25.9353  -11.6578   20.5683 N   0  0  0  0  0  0
  -22.0413  -12.8144   22.0454 N   0  0  0  0  0  0
  -25.4040  -15.1955   20.4296 N   0  0  0  0  0  0
  -31.4514  -15.6824   20.1394 O   0  0  0  0  0  0
  -21.6636   -6.8881   21.4244 O   0  0  0  0  0  0
  -22.3442  -14.5464   20.6746 O   0  0  0  0  0  0
  -24.6881  -31.7946   23.1468 C   0  0  0  0  0  0
  -25.9438  -32.4440   23.8033 C   0  0  1  0  0  0
  -27.2400  -26.6660   20.2132 C   0  0  0  0  0  0
  -25.5997  -33.8268   24.1916 N   0  0  0  0  0  0
  -23.5172  -30.3930   21.5020 C   0  0  2  0  0  0
  -24.9776  -28.7261   20.1184 C   0  0  0  0  0  0
  -22.7791  -29.4285   22.4701 C   0  0  0  0  0  0
  -18.0341  -28.1425   22.8452 C   0  0  0  0  0  0
  -24.1496  -36.7144   23.2652 C   0  0  0  0  0  0
  -26.0993  -30.5155   21.4167 C   0  0  0  0  0  0
  -26.1676  -29.0757   20.7673 C   0  0  0  0  0  0
  -27.2810  -28.0752   20.7813 C   0  0  0  0  0  0
  -26.0151  -26.5366   19.5058 C   0  0  0  0  0  0
  -24.9428  -27.4822   19.4636 C   0  0  0  0  0  0
  -23.7738  -29.6842   20.1400 C   0  0  0  0  0  0
  -25.4146  -36.2878   24.0276 C   0  0  1  0  0  0
  -20.5979  -28.3788   23.1129 C   0  0  2  0  0  0
  -20.6806  -26.9443   22.5403 C   0  0  0  0  0  0
  -19.5784  -26.6370   21.5215 C   0  0  0  0  0  0
  -18.1964  -26.7951   22.1618 C   0  0  0  0  0  0
  -19.1608  -28.8933   23.2769 C   0  0  0  0  0  0
  -18.9515  -30.1514   23.8818 C   0  0  0  0  0  0
  -17.6505  -30.6606   24.0550 C   0  0  0  0  0  0
  -25.9130  -34.9270   23.4937 C   0  0  0  0  0  0
  -16.5394  -29.9086   23.6351 C   0  0  0  0  0  0
  -16.7320  -28.6509   23.0369 C   0  0  0  0  0  0
  -26.4604  -31.6491   25.0673 C   0  0  0  0  0  0
  -25.3659  -31.3819   26.1281 C   0  0  0  0  0  0
  -27.0538  -30.2821   24.6600 C   0  0  0  0  0  0
  -27.6043  -32.4361   25.7498 C   0  0  0  0  0  0
  -27.5562  -37.1726   24.8463 C   0  0  0  0  0  0
  -21.4433  -29.3026   22.3450 N   0  0  0  0  0  0
  -26.4266  -37.3644   23.9407 N   0  0  0  0  0  0
  -24.7921  -30.9349   22.0743 N   0  0  0  0  0  0
  -23.4212  -28.7896   23.3071 O   0  0  0  0  0  0
  -28.1956  -25.4259   20.2963 O   0  0  0  0  0  0
  -26.5779  -34.8859   22.4560 O   0  0  0  0  0  0
  -23.5889  -32.1038   23.6392 O   0  0  0  0  0  0
  -28.4398  -20.4395   19.9391 C   0  0  0  0  0  0
  -28.7574  -21.9568   20.2703 C   0  0  0  0  0  0
  -29.3237  -19.2782   20.3230 C   0  0  0  0  0  0
  -28.3009  -17.1654   19.1674 C   0  0  0  0  0  0
  -28.4594  -17.2197   21.6769 C   0  0  0  0  0  0
  -31.4056  -19.8275   21.6655 C   0  0  0  0  0  0
  -27.9438  -23.6802   20.0822 C   0  0  0  0  0  0
  -29.2479  -17.3762   20.3654 C   0  0  0  0  0  0
  -29.9245  -21.6257   20.8959 N   0  0  0  0  0  0
  -30.2123  -20.2080   20.9373 N   0  0  0  0  0  0
  -31.4188  -13.4318   19.1618 H   0  0  0  0  0  0
  -30.6510  -12.2880   20.2012 H   0  0  0  0  0  0
  -30.0339  -11.8521   17.8033 H   0  0  0  0  0  0
  -29.5085  -13.5055   17.6159 H   0  0  0  0  0  0
  -28.1679  -11.2935   19.1845 H   0  0  0  0  0  0
  -27.4717  -12.2509   17.8971 H   0  0  0  0  0  0
  -27.4496  -14.1977   19.2487 H   0  0  0  0  0  0
  -28.9164  -12.6813   21.4473 H   0  0  0  0  0  0
  -28.1695  -14.2023   21.7059 H   0  0  0  0  0  0
  -25.2780   -9.5659   22.4768 H   0  0  0  0  0  0
  -24.0004   -7.4621   22.7474 H   0  0  0  0  0  0
  -21.0865   -8.8775   19.8944 H   0  0  0  0  0  0
  -22.3736  -10.9663   19.6162 H   0  0  0  0  0  0
  -21.1993   -7.6142   23.9717 H   0  0  0  0  0  0
  -21.1495   -6.0520   25.9080 H   0  0  0  0  0  0
  -22.0591   -2.7608   23.2846 H   0  0  0  0  0  0
  -22.4045  -11.9819   22.4857 H   0  0  0  0  0  0
  -21.1023  -13.1153   22.2648 H   0  0  0  0  0  0
  -24.6385  -15.8480   20.5585 H   0  0  0  0  0  0
  -26.2603  -15.6433   20.1336 H   0  0  0  0  0  0
  -26.7527  -32.4903   23.0750 H   0  0  0  0  0  0
  -25.0044  -33.9297   25.0004 H   0  0  0  0  0  0
  -22.8451  -31.2313   21.3068 H   0  0  0  0  0  0
  -23.3775  -35.9455   23.3257 H   0  0  0  0  0  0
  -24.3562  -36.8870   22.2078 H   0  0  0  0  0  0
  -23.7245  -37.6301   23.6773 H   0  0  0  0  0  0
  -26.3041  -31.2386   20.6262 H   0  0  0  0  0  0
  -26.9488  -30.5857   22.0835 H   0  0  0  0  0  0
  -28.1751  -28.3515   21.3223 H   0  0  0  0  0  0
  -25.8416  -25.5975   18.9998 H   0  0  0  0  0  0
  -24.0461  -27.2038   18.9267 H   0  0  0  0  0  0
  -23.9507  -30.4418   19.3755 H   0  0  0  0  0  0
  -22.8785  -29.1507   19.8164 H   0  0  0  0  0  0
  -25.1358  -36.1630   25.0766 H   0  0  0  0  0  0
  -21.0054  -28.3420   24.1258 H   0  0  0  0  0  0
  -20.5664  -26.2416   23.3671 H   0  0  0  0  0  0
  -21.6667  -26.7378   22.1228 H   0  0  0  0  0  0
  -19.6942  -25.6259   21.1298 H   0  0  0  0  0  0
  -19.6729  -27.3136   20.6709 H   0  0  0  0  0  0
  -17.4236  -26.6692   21.4020 H   0  0  0  0  0  0
  -18.0353  -26.0111   22.9031 H   0  0  0  0  0  0
  -19.7993  -30.7347   24.2157 H   0  0  0  0  0  0
  -17.5056  -31.6278   24.5168 H   0  0  0  0  0  0
  -15.5390  -30.2964   23.7720 H   0  0  0  0  0  0
  -15.8723  -28.0799   22.7128 H   0  0  0  0  0  0
  -24.5867  -30.7148   25.7577 H   0  0  0  0  0  0
  -24.8827  -32.3045   26.4505 H   0  0  0  0  0  0
  -25.7824  -30.9112   27.0195 H   0  0  0  0  0  0
  -26.3258  -29.6427   24.1594 H   0  0  0  0  0  0
  -27.3950  -29.7280   25.5354 H   0  0  0  0  0  0
  -27.9248  -30.3933   24.0139 H   0  0  0  0  0  0
  -27.2578  -33.3740   26.1851 H   0  0  0  0  0  0
  -28.3970  -32.6797   25.0411 H   0  0  0  0  0  0
  -28.0583  -31.8642   26.5603 H   0  0  0  0  0  0
  -28.2535  -38.0061   24.7514 H   0  0  0  0  0  0
  -28.1102  -36.2582   24.6281 H   0  0  0  0  0  0
  -27.2278  -37.1350   25.8864 H   0  0  0  0  0  0
  -20.9750  -29.8676   21.6502 H   0  0  0  0  0  0
  -26.0089  -38.2688   24.1428 H   0  0  0  0  0  0
  -27.5068  -20.2093   19.4437 H   0  0  0  0  0  0
  -27.3296  -17.6346   19.3268 H   0  0  0  0  0  0
  -28.1204  -16.1271   18.9219 H   0  0  0  0  0  0
  -28.7309  -17.6166   18.2728 H   0  0  0  0  0  0
  -27.6045  -17.8958   21.7064 H   0  0  0  0  0  0
  -29.0902  -17.4639   22.5315 H   0  0  0  0  0  0
  -28.0588  -16.2289   21.8338 H   0  0  0  0  0  0
  -31.7755  -18.8666   21.3061 H   0  0  0  0  0  0
  -31.1745  -19.7397   22.7273 H   0  0  0  0  0  0
  -32.1892  -20.5739   21.5300 H   0  0  0  0  0  0
  -27.0112  -23.5664   20.6341 H   0  0  0  0  0  0
  -27.6055  -23.6742   19.0462 H   0  0  0  0  0  0
  1 25  1  0  0  0
  1 30  2  0  0  0
  1 78  1  0  0  0
  2  3  1  0  0  0
  2 25  1  0  0  0
  2 81  1  0  0  0
  2 82  1  0  0  0
  3  4  1  0  0  0
  3 83  1  0  0  0
  3 84  1  0  0  0
  4  5  1  0  0  0
  4 85  1  0  0  0
  4 86  1  0  0  0
  5  6  1  0  0  0
  5 26  1  0  0  0
  5 87  1  0  0  0
  6 25  1  0  0  0
  6 88  1  0  0  0
  6 89  1  0  0  0
  7  8  2  0  0  0
  7 26  1  0  0  0
  7 29  1  0  0  0
  8  9  1  0  0  0
  8 22  1  0  0  0
  9 10  1  0  0  0
  9 27  2  0  0  0
 10 11  2  0  0  0
 10 15  1  0  0  0
 11 12  1  0  0  0
 11 90  1  0  0  0
 12 13  2  0  0  0
 12 91  1  0  0  0
 13 14  1  0  0  0
 13 31  1  0  0  0
 14 15  2  0  0  0
 14 92  1  0  0  0
 15 93  1  0  0  0
 16 17  2  0  0  0
 16 21  1  0  0  0
 16 31  1  0  0  0
 17 18  1  0  0  0
 17 94  1  0  0  0
 18 19  2  0  0  0
 18 95  1  0  0  0
 19 20  1  0  0  0
 19 24  1  0  0  0
 20 21  2  0  0  0
 20 96  1  0  0  0
 21 23  1  0  0  0
 22 28  1  0  0  0
 22 32  2  0  0  0
 26 27  1  0  0  0
 28 97  1  0  0  0
 28 98  1  0  0  0
 29 99  1  0  0  0
 29100  1  0  0  0
 33 34  1  0  0  0
 33 66  1  0  0  0
 33 70  2  0  0  0
 34 36  1  0  0  0
 34 59  1  0  0  0
 34101  1  0  0  0
 35 44  2  0  0  0
 35 45  1  0  0  0
 35 68  1  0  0  0
 36 56  1  0  0  0
 36102  1  0  0  0
 37 39  1  0  0  0
 37 47  1  0  0  0
 37 66  1  0  0  0
 37103  1  0  0  0
 38 43  2  0  0  0
 38 46  1  0  0  0
 38 47  1  0  0  0
 39 64  1  0  0  0
 39 67  2  0  0  0
 40 52  1  0  0  0
 40 53  2  0  0  0
 40 58  1  0  0  0
 41104  1  0  0  0
 41105  1  0  0  0
 41106  1  0  0  0
 41 48  1  0  0  0
 42 43  1  0  0  0
 42 66  1  0  0  0
 42107  1  0  0  0
 42108  1  0  0  0
 43 44  1  0  0  0
 44109  1  0  0  0
 45 46  2  0  0  0
 45110  1  0  0  0
 46111  1  0  0  0
 47112  1  0  0  0
 47113  1  0  0  0
 48 56  1  0  0  0
 48 65  1  0  0  0
 48114  1  0  0  0
 49 50  1  0  0  0
 49 53  1  0  0  0
 49 64  1  0  0  0
 49115  1  0  0  0
 50 51  1  0  0  0
 50116  1  0  0  0
 50117  1  0  0  0
 51 52  1  0  0  0
 51118  1  0  0  0
 51119  1  0  0  0
 52120  1  0  0  0
 52121  1  0  0  0
 53 54  1  0  0  0
 54 55  2  0  0  0
 54122  1  0  0  0
 55 57  1  0  0  0
 55123  1  0  0  0
 56 69  2  0  0  0
 57 58  2  0  0  0
 57124  1  0  0  0
 58125  1  0  0  0
 59 60  1  0  0  0
 59 61  1  0  0  0
 59 62  1  0  0  0
 60126  1  0  0  0
 60127  1  0  0  0
 60128  1  0  0  0
 61129  1  0  0  0
 61130  1  0  0  0
 61131  1  0  0  0
 62132  1  0  0  0
 62133  1  0  0  0
 62134  1  0  0  0
 63 65  1  0  0  0
 63135  1  0  0  0
 63136  1  0  0  0
 63137  1  0  0  0
 64138  1  0  0  0
 65139  1  0  0  0
 68 77  1  0  0  0
 71 72  1  0  0  0
 71 73  2  0  0  0
 71140  1  0  0  0
 72 77  1  0  0  0
 72 79  2  0  0  0
 73 78  1  0  0  0
 73 80  1  0  0  0
 74141  1  0  0  0
 74142  1  0  0  0
 74143  1  0  0  0
 74 78  1  0  0  0
 75 78  1  0  0  0
 75144  1  0  0  0
 75145  1  0  0  0
 75146  1  0  0  0
 76 80  1  0  0  0
 76147  1  0  0  0
 76148  1  0  0  0
 76149  1  0  0  0
 77150  1  0  0  0
 77151  1  0  0  0
 79 80  1  0  0  0
M  ISO  4   1 100  68 101  77 101  78 100
M  END
> <chiral flag>
0

> <version>
0

> <s_m_source_file>
/data/baiqing/PycharmProjects/Reinvent-master-3.2/result/LINK_invent/BTK/process_docking_weight1_custom_sum_contain_oxygen_bond_distance_aromatic_linkinvent_7_9_3/rearranged_h_0053.sdf

> <i_m_source_file_index>
48

> <r_mmod_Potential_Energy-OPLS-2005>
2735.29125976562

> <r_mmod_Stretch_Energy-OPLS-2005>
1175.75891113281

> <r_mmod_Bend_Energy-OPLS-2005>
740.109252929688

> <r_mmod_Torsional_Energy-OPLS-2005>
214.367202758789

> <r_mmod_Improper_Torsional_Energy-OPLS-2005>
4.27923488616943

> <r_mmod_Van_der_Waal_Energy-OPLS-2005>
107.809150695801

> <r_mmod_Electrostatic_Energy-OPLS-2005>
-289.646850585938

> <r_mmod_Solvation_Energy-OPLS-2005>
-217.331283569336

> <b_mmod_Minimization_Converged-OPLS-2005>
0

> <r_mmod_RMS_Derivative-OPLS-2005>
0.657917082309723

$$$$
48
                    3D
 Structure written by MMmdl.
150158  0  0  1  0            999 V2000
  -30.5424  -15.0427   20.3537 C   0  0  0  0  0  0
  -30.4425  -12.6466   19.4835 C   0  0  0  0  0  0
  -29.5223  -12.5119   18.2483 C   0  0  0  0  0  0
  -28.0569  -12.2923   18.6757 C   0  0  0  0  0  0
  -27.6189  -13.2326   19.8293 C   0  0  2  0  0  0
  -28.6777  -13.3468   20.9484 C   0  0  0  0  0  0
  -25.2482  -13.8125   20.5808 C   0  0  0  0  0  0
  -24.1775  -13.0386   20.9251 C   0  0  0  0  0  0
  -24.6365  -11.6858   20.8773 C   0  0  0  0  0  0
  -23.9034  -10.4252   21.0412 C   0  0  0  0  0  0
  -24.3588   -9.4172   21.9193 C   0  0  0  0  0  0
  -23.6265   -8.2211   22.0768 C   0  0  0  0  0  0
  -22.4250   -8.0250   21.3551 C   0  0  0  0  0  0
  -21.9879   -9.0217   20.4650 C   0  0  0  0  0  0
  -22.7206  -10.2096   20.3058 C   0  0  0  0  0  0
  -21.6840   -6.0700   22.5268 C   0  0  0  0  0  0
  -21.4006   -6.5621   23.8197 C   0  0  0  0  0  0
  -21.3656   -5.6782   24.9168 C   0  0  0  0  0  0
  -21.6044   -4.3044   24.7229 C   0  0  0  0  0  0
  -21.8829   -3.8125   23.4351 C   0  0  0  0  0  0
  -21.9194   -4.6931   22.3403 C   0  0  0  0  0  0
  -22.7809  -13.5196   21.1871 C   0  0  0  0  0  0
  -22.1677   -4.2119   21.0981 F   0  0  0  0  0  0
  -21.5624   -3.4530   25.7745 F   0  0  0  0  0  0
  -29.9315  -13.7786   20.3099 N   0  0  0  0  0  0
  -26.2874  -12.9310   20.3312 N   0  0  0  0  0  0
  -25.9299  -11.6459   20.5785 N   0  0  0  0  0  0
  -22.0442  -12.8197   22.0410 N   0  0  0  0  0  0
  -25.4175  -15.1858   20.4316 N   0  0  0  0  0  0
  -31.7774  -15.0483   20.2915 O   0  0  0  0  0  0
  -21.6625   -6.8841   21.4236 O   0  0  0  0  0  0
  -22.3517  -14.5516   20.6716 O   0  0  0  0  0  0
  -24.6488  -31.8435   23.1883 C   0  0  0  0  0  0
  -25.9256  -32.4691   23.8273 C   0  0  1  0  0  0
  -27.2130  -27.0990   20.1570 C   0  0  0  0  0  0
  -25.5994  -33.8502   24.2193 N   0  0  0  0  0  0
  -23.4516  -30.4656   21.5349 C   0  0  2  0  0  0
  -24.9025  -28.8927   20.1044 C   0  0  0  0  0  0
  -22.7586  -29.4561   22.4850 C   0  0  0  0  0  0
  -18.0309  -28.1378   22.8484 C   0  0  0  0  0  0
  -24.1500  -36.7238   23.2636 C   0  0  0  0  0  0
  -26.0126  -30.7036   21.3955 C   0  0  0  0  0  0
  -26.0814  -29.3144   20.7319 C   0  0  0  0  0  0
  -27.2360  -28.4361   20.7408 C   0  0  0  0  0  0
  -26.0099  -26.8016   19.4728 C   0  0  0  0  0  0
  -24.8845  -27.6528   19.4529 C   0  0  0  0  0  0
  -23.6805  -29.7995   20.1520 C   0  0  0  0  0  0
  -25.4137  -36.3027   24.0314 C   0  0  1  0  0  0
  -20.5930  -28.3733   23.1216 C   0  0  2  0  0  0
  -20.6803  -26.9433   22.5400 C   0  0  0  0  0  0
  -19.5776  -26.6377   21.5207 C   0  0  0  0  0  0
  -18.1955  -26.7921   22.1619 C   0  0  0  0  0  0
  -19.1566  -28.8872   23.2841 C   0  0  0  0  0  0
  -18.9483  -30.1462   23.8873 C   0  0  0  0  0  0
  -17.6478  -30.6581   24.0557 C   0  0  0  0  0  0
  -25.9102  -34.9406   23.5057 C   0  0  0  0  0  0
  -16.5370  -29.9077   23.6330 C   0  0  0  0  0  0
  -16.7292  -28.6487   23.0373 C   0  0  0  0  0  0
  -26.4557  -31.6549   25.0715 C   0  0  0  0  0  0
  -25.3738  -31.3724   26.1399 C   0  0  0  0  0  0
  -27.0423  -30.2936   24.6320 C   0  0  0  0  0  0
  -27.6078  -32.4320   25.7510 C   0  0  0  0  0  0
  -27.5586  -37.1779   24.8465 C   0  0  0  0  0  0
  -21.4280  -29.3057   22.3590 N   0  0  0  0  0  0
  -26.4291  -37.3752   23.9415 N   0  0  0  0  0  0
  -24.7241  -31.0269   22.0935 N   0  0  0  0  0  0
  -23.4217  -28.8114   23.3018 O   0  0  0  0  0  0
  -28.2324  -26.0613   20.2540 O   0  0  0  0  0  0
  -26.5680  -34.8906   22.4634 O   0  0  0  0  0  0
  -23.5604  -32.1332   23.7097 O   0  0  0  0  0  0
  -28.3472  -21.7837   19.8454 C   0  0  0  0  0  0
  -30.0158  -21.5060   21.1122 C   0  0  0  0  0  0
  -28.6563  -23.1123   20.2857 C   0  0  0  0  0  0
  -28.9584  -16.3244   18.9995 C   0  0  0  0  0  0
  -27.8503  -24.5528   20.0119 C   0  0  0  0  0  0
  -29.1255  -19.1408   20.0749 C   0  0  0  0  0  0
  -30.0774  -17.8120   20.6053 C   0  0  0  0  0  0
  -29.7658  -22.8529   21.1181 N   0  0  0  0  0  0
  -29.2028  -20.7200   20.3616 N   0  0  0  0  0  0
  -29.7955  -16.2782   20.2032 N   0  0  0  0  0  0
  -31.4712  -12.8194   19.1643 H   0  0  0  0  0  0
  -30.4574  -11.7202   20.0603 H   0  0  0  0  0  0
  -29.8566  -11.6874   17.6173 H   0  0  0  0  0  0
  -29.5980  -13.4062   17.6311 H   0  0  0  0  0  0
  -27.9657  -11.2546   18.9941 H   0  0  0  0  0  0
  -27.3894  -12.4087   17.8204 H   0  0  0  0  0  0
  -27.5215  -14.2053   19.3662 H   0  0  0  0  0  0
  -28.8084  -12.4000   21.4750 H   0  0  0  0  0  0
  -28.3677  -14.0805   21.6941 H   0  0  0  0  0  0
  -25.2729   -9.5637   22.4774 H   0  0  0  0  0  0
  -23.9966   -7.4599   22.7490 H   0  0  0  0  0  0
  -21.0813   -8.8720   19.8950 H   0  0  0  0  0  0
  -22.3666  -10.9633   19.6165 H   0  0  0  0  0  0
  -21.2011   -7.6134   23.9681 H   0  0  0  0  0  0
  -21.1470   -6.0524   25.9063 H   0  0  0  0  0  0
  -22.0621   -2.7590   23.2855 H   0  0  0  0  0  0
  -22.4078  -11.9883   22.4822 H   0  0  0  0  0  0
  -21.1047  -13.1200   22.2586 H   0  0  0  0  0  0
  -24.6507  -15.8385   20.5558 H   0  0  0  0  0  0
  -26.2815  -15.6323   20.1534 H   0  0  0  0  0  0
  -26.7324  -32.5284   23.0995 H   0  0  0  0  0  0
  -25.0139  -33.9640   25.0337 H   0  0  0  0  0  0
  -22.7553  -31.2939   21.3841 H   0  0  0  0  0  0
  -23.3784  -35.9546   23.3277 H   0  0  0  0  0  0
  -24.3560  -36.8903   22.2049 H   0  0  0  0  0  0
  -23.7248  -37.6422   23.6693 H   0  0  0  0  0  0
  -26.1850  -31.4601   20.6289 H   0  0  0  0  0  0
  -26.8776  -30.7419   22.0457 H   0  0  0  0  0  0
  -28.1279  -28.7585   21.2599 H   0  0  0  0  0  0
  -25.8902  -25.8616   18.9578 H   0  0  0  0  0  0
  -23.9912  -27.3337   18.9324 H   0  0  0  0  0  0
  -23.8164  -30.5793   19.4019 H   0  0  0  0  0  0
  -22.7932  -29.2483   19.8373 H   0  0  0  0  0  0
  -25.1332  -36.1831   25.0809 H   0  0  0  0  0  0
  -21.0017  -28.3316   24.1337 H   0  0  0  0  0  0
  -20.5684  -26.2357   23.3632 H   0  0  0  0  0  0
  -21.6676  -26.7438   22.1212 H   0  0  0  0  0  0
  -19.6956  -25.6280   21.1265 H   0  0  0  0  0  0
  -19.6699  -27.3166   20.6718 H   0  0  0  0  0  0
  -17.4236  -26.6661   21.4016 H   0  0  0  0  0  0
  -18.0348  -26.0049   22.8998 H   0  0  0  0  0  0
  -19.7957  -30.7282   24.2241 H   0  0  0  0  0  0
  -17.5033  -31.6262   24.5155 H   0  0  0  0  0  0
  -15.5373  -30.2980   23.7663 H   0  0  0  0  0  0
  -15.8688  -28.0793   22.7125 H   0  0  0  0  0  0
  -24.5939  -30.7055   25.7702 H   0  0  0  0  0  0
  -24.8903  -32.2893   26.4772 H   0  0  0  0  0  0
  -25.8023  -30.8924   27.0206 H   0  0  0  0  0  0
  -26.3035  -29.6644   24.1340 H   0  0  0  0  0  0
  -27.4026  -29.7250   25.4901 H   0  0  0  0  0  0
  -27.8960  -30.4152   23.9651 H   0  0  0  0  0  0
  -27.2666  -33.3646   26.2013 H   0  0  0  0  0  0
  -28.3925  -32.6838   25.0365 H   0  0  0  0  0  0
  -28.0695  -31.8488   26.5488 H   0  0  0  0  0  0
  -28.2590  -38.0092   24.7549 H   0  0  0  0  0  0
  -28.1107  -36.2630   24.6256 H   0  0  0  0  0  0
  -27.2302  -37.1382   25.8866 H   0  0  0  0  0  0
  -20.9492  -29.8753   21.6754 H   0  0  0  0  0  0
  -26.0149  -38.2819   24.1412 H   0  0  0  0  0  0
  -27.5334  -21.5050   19.1879 H   0  0  0  0  0  0
  -30.8272  -21.0828   21.6878 H   0  0  0  0  0  0
  -27.9243  -16.5598   19.2521 H   0  0  0  0  0  0
  -28.9717  -15.4096   18.4117 H   0  0  0  0  0  0
  -29.3251  -17.0751   18.3021 H   0  0  0  0  0  0
  -26.9004  -24.4378   20.5359 H   0  0  0  0  0  0
  -27.5840  -24.5214   18.9559 H   0  0  0  0  0  0
  -28.0995  -18.8742   20.3322 H   0  0  0  0  0  0
  -29.1443  -19.1014   18.9878 H   0  0  0  0  0  0
  -30.0856  -17.8307   21.6956 H   0  0  0  0  0  0
  -31.1108  -18.0114   20.3181 H   0  0  0  0  0  0
  1 25  1  0  0  0
  1 30  2  0  0  0
  1 80  1  0  0  0
  2  3  1  0  0  0
  2 25  1  0  0  0
  2 81  1  0  0  0
  2 82  1  0  0  0
  3  4  1  0  0  0
  3 83  1  0  0  0
  3 84  1  0  0  0
  4  5  1  0  0  0
  4 85  1  0  0  0
  4 86  1  0  0  0
  5  6  1  0  0  0
  5 26  1  0  0  0
  5 87  1  0  0  0
  6 25  1  0  0  0
  6 88  1  0  0  0
  6 89  1  0  0  0
  7  8  2  0  0  0
  7 26  1  0  0  0
  7 29  1  0  0  0
  8  9  1  0  0  0
  8 22  1  0  0  0
  9 10  1  0  0  0
  9 27  2  0  0  0
 10 11  2  0  0  0
 10 15  1  0  0  0
 11 12  1  0  0  0
 11 90  1  0  0  0
 12 13  2  0  0  0
 12 91  1  0  0  0
 13 14  1  0  0  0
 13 31  1  0  0  0
 14 15  2  0  0  0
 14 92  1  0  0  0
 15 93  1  0  0  0
 16 17  2  0  0  0
 16 21  1  0  0  0
 16 31  1  0  0  0
 17 18  1  0  0  0
 17 94  1  0  0  0
 18 19  2  0  0  0
 18 95  1  0  0  0
 19 20  1  0  0  0
 19 24  1  0  0  0
 20 21  2  0  0  0
 20 96  1  0  0  0
 21 23  1  0  0  0
 22 28  1  0  0  0
 22 32  2  0  0  0
 26 27  1  0  0  0
 28 97  1  0  0  0
 28 98  1  0  0  0
 29 99  1  0  0  0
 29100  1  0  0  0
 33 34  1  0  0  0
 33 66  1  0  0  0
 33 70  2  0  0  0
 34 36  1  0  0  0
 34 59  1  0  0  0
 34101  1  0  0  0
 35 44  2  0  0  0
 35 45  1  0  0  0
 35 68  1  0  0  0
 36 56  1  0  0  0
 36102  1  0  0  0
 37 39  1  0  0  0
 37 47  1  0  0  0
 37 66  1  0  0  0
 37103  1  0  0  0
 38 43  2  0  0  0
 38 46  1  0  0  0
 38 47  1  0  0  0
 39 64  1  0  0  0
 39 67  2  0  0  0
 40 52  1  0  0  0
 40 53  2  0  0  0
 40 58  1  0  0  0
 41104  1  0  0  0
 41105  1  0  0  0
 41106  1  0  0  0
 41 48  1  0  0  0
 42 43  1  0  0  0
 42 66  1  0  0  0
 42107  1  0  0  0
 42108  1  0  0  0
 43 44  1  0  0  0
 44109  1  0  0  0
 45 46  2  0  0  0
 45110  1  0  0  0
 46111  1  0  0  0
 47112  1  0  0  0
 47113  1  0  0  0
 48 56  1  0  0  0
 48 65  1  0  0  0
 48114  1  0  0  0
 49 50  1  0  0  0
 49 53  1  0  0  0
 49 64  1  0  0  0
 49115  1  0  0  0
 50 51  1  0  0  0
 50116  1  0  0  0
 50117  1  0  0  0
 51 52  1  0  0  0
 51118  1  0  0  0
 51119  1  0  0  0
 52120  1  0  0  0
 52121  1  0  0  0
 53 54  1  0  0  0
 54 55  2  0  0  0
 54122  1  0  0  0
 55 57  1  0  0  0
 55123  1  0  0  0
 56 69  2  0  0  0
 57 58  2  0  0  0
 57124  1  0  0  0
 58125  1  0  0  0
 59 60  1  0  0  0
 59 61  1  0  0  0
 59 62  1  0  0  0
 60126  1  0  0  0
 60127  1  0  0  0
 60128  1  0  0  0
 61129  1  0  0  0
 61130  1  0  0  0
 61131  1  0  0  0
 62132  1  0  0  0
 62133  1  0  0  0
 62134  1  0  0  0
 63 65  1  0  0  0
 63135  1  0  0  0
 63136  1  0  0  0
 63137  1  0  0  0
 64138  1  0  0  0
 65139  1  0  0  0
 68 75  1  0  0  0
 71 73  2  0  0  0
 71 79  1  0  0  0
 71140  1  0  0  0
 72 78  2  0  0  0
 72 79  1  0  0  0
 72141  1  0  0  0
 73 75  1  0  0  0
 73 78  1  0  0  0
 74 80  1  0  0  0
 74142  1  0  0  0
 74143  1  0  0  0
 74144  1  0  0  0
 75145  1  0  0  0
 75146  1  0  0  0
 76 77  1  0  0  0
 76 79  1  0  0  0
 76147  1  0  0  0
 76148  1  0  0  0
 77 80  1  0  0  0
 77149  1  0  0  0
 77150  1  0  0  0
M  ISO  4   1 100  68 101  75 101  80 100
M  END
> <chiral flag>
0

> <version>
0

> <s_m_source_file>
/data/baiqing/PycharmProjects/Reinvent-master-3.2/result/LINK_invent/BTK/process_docking_weight1_custom_sum_contain_oxygen_bond_distance_aromatic_linkinvent_7_9_3/rearranged_h_0053.sdf

> <i_m_source_file_index>
49

> <r_mmod_Potential_Energy-OPLS-2005>
829.547790527344

> <r_mmod_Stretch_Energy-OPLS-2005>
312.932464599609

> <r_mmod_Bend_Energy-OPLS-2005>
320.695495605469

> <r_mmod_Torsional_Energy-OPLS-2005>
302.148132324219

> <r_mmod_Improper_Torsional_Energy-OPLS-2005>
8.29157829284668

> <r_mmod_Van_der_Waal_Energy-OPLS-2005>
122.457855224609

> <r_mmod_Electrostatic_Energy-OPLS-2005>
-257.275726318359

> <r_mmod_Solvation_Energy-OPLS-2005>
-237.471801757812

> <b_mmod_Minimization_Converged-OPLS-2005>
0

> <r_mmod_RMS_Derivative-OPLS-2005>
2.14083218574524

$$$$
49
                    3D
 Structure written by MMmdl.
147155  0  0  1  0            999 V2000
  -30.3843  -15.3027   20.3963 C   0  0  0  0  0  0
  -30.4504  -12.8270   19.5387 C   0  0  0  0  0  0
  -29.5469  -12.5969   18.2972 C   0  0  0  0  0  0
  -28.0936  -12.3087   18.7146 C   0  0  0  0  0  0
  -27.6164  -13.2750   19.8253 C   0  0  2  0  0  0
  -28.6454  -13.4323   20.9639 C   0  0  0  0  0  0
  -25.2410  -13.8240   20.5730 C   0  0  0  0  0  0
  -24.1759  -13.0433   20.9243 C   0  0  0  0  0  0
  -24.6411  -11.6929   20.8742 C   0  0  0  0  0  0
  -23.9101  -10.4291   21.0396 C   0  0  0  0  0  0
  -24.3642   -9.4206   21.9179 C   0  0  0  0  0  0
  -23.6307   -8.2246   22.0753 C   0  0  0  0  0  0
  -22.4288   -8.0285   21.3545 C   0  0  0  0  0  0
  -21.9929   -9.0259   20.4645 C   0  0  0  0  0  0
  -22.7267  -10.2133   20.3050 C   0  0  0  0  0  0
  -21.6857   -6.0739   22.5279 C   0  0  0  0  0  0
  -21.4018   -6.5641   23.8213 C   0  0  0  0  0  0
  -21.3661   -5.6793   24.9174 C   0  0  0  0  0  0
  -21.6044   -4.3056   24.7224 C   0  0  0  0  0  0
  -21.8819   -3.8148   23.4345 C   0  0  0  0  0  0
  -21.9194   -4.6966   22.3402 C   0  0  0  0  0  0
  -22.7776  -13.5187   21.1899 C   0  0  0  0  0  0
  -22.1662   -4.2151   21.0979 F   0  0  0  0  0  0
  -21.5628   -3.4539   25.7737 F   0  0  0  0  0  0
  -29.8856  -13.9602   20.3659 N   0  0  0  0  0  0
  -26.2837  -12.9514   20.3190 N   0  0  0  0  0  0
  -25.9350  -11.6620   20.5690 N   0  0  0  0  0  0
  -22.0436  -12.8168   22.0454 N   0  0  0  0  0  0
  -25.4044  -15.1976   20.4183 N   0  0  0  0  0  0
  -31.5816  -15.3379   20.0636 O   0  0  0  0  0  0
  -21.6646   -6.8885   21.4242 O   0  0  0  0  0  0
  -22.3452  -14.5488   20.6741 O   0  0  0  0  0  0
  -24.6645  -31.8207   23.1675 C   0  0  0  0  0  0
  -25.9316  -32.4572   23.8152 C   0  0  1  0  0  0
  -27.2253  -26.9075   20.1887 C   0  0  0  0  0  0
  -25.5974  -33.8388   24.2055 N   0  0  0  0  0  0
  -23.4809  -30.4297   21.5169 C   0  0  2  0  0  0
  -24.9361  -28.8099   20.1122 C   0  0  0  0  0  0
  -22.7675  -29.4422   22.4773 C   0  0  0  0  0  0
  -18.0323  -28.1410   22.8466 C   0  0  0  0  0  0
  -24.1494  -36.7201   23.2648 C   0  0  0  0  0  0
  -26.0504  -30.6206   21.4006 C   0  0  0  0  0  0
  -26.1193  -29.2075   20.7465 C   0  0  0  0  0  0
  -27.2567  -28.2780   20.7581 C   0  0  0  0  0  0
  -26.0126  -26.6649   19.5049 C   0  0  0  0  0  0
  -24.9092  -27.5599   19.4707 C   0  0  0  0  0  0
  -23.7224  -29.7401   20.1449 C   0  0  0  0  0  0
  -25.4136  -36.2959   24.0296 C   0  0  1  0  0  0
  -20.5949  -28.3756   23.1185 C   0  0  2  0  0  0
  -20.6798  -26.9434   22.5404 C   0  0  0  0  0  0
  -19.5772  -26.6375   21.5215 C   0  0  0  0  0  0
  -18.1955  -26.7942   22.1622 C   0  0  0  0  0  0
  -19.1585  -28.8904   23.2811 C   0  0  0  0  0  0
  -18.9495  -30.1493   23.8848 C   0  0  0  0  0  0
  -17.6487  -30.6598   24.0554 C   0  0  0  0  0  0
  -25.9102  -34.9342   23.5001 C   0  0  0  0  0  0
  -16.5378  -29.9084   23.6344 C   0  0  0  0  0  0
  -16.7305  -28.6505   23.0363 C   0  0  0  0  0  0
  -26.4562  -31.6530   25.0692 C   0  0  0  0  0  0
  -25.3681  -31.3788   26.1344 C   0  0  0  0  0  0
  -27.0465  -30.2894   24.6445 C   0  0  0  0  0  0
  -27.6045  -32.4349   25.7499 C   0  0  0  0  0  0
  -27.5570  -37.1758   24.8466 C   0  0  0  0  0  0
  -21.4342  -29.3039   22.3527 N   0  0  0  0  0  0
  -26.4280  -37.3697   23.9406 N   0  0  0  0  0  0
  -24.7534  -30.9848   22.0820 N   0  0  0  0  0  0
  -23.4212  -28.8001   23.3031 O   0  0  0  0  0  0
  -28.2337  -25.8023   20.2790 O   0  0  0  0  0  0
  -26.5720  -34.8883   22.4602 O   0  0  0  0  0  0
  -23.5710  -32.1186   23.6755 O   0  0  0  0  0  0
  -29.2220  -19.7452   21.0832 C   0  0  0  0  0  0
  -29.0799  -20.9439   20.2638 C   0  0  0  0  0  0
  -29.0538  -22.7050   20.5042 C   0  0  0  0  0  0
  -28.0473  -24.1583   20.0760 C   0  0  0  0  0  0
  -29.5239  -16.7946   20.8400 C   0  0  1  0  0  0
  -29.5732  -16.7951   22.3855 C   0  0  0  0  0  0
  -29.3115  -20.2680   19.0294 N   0  0  0  0  0  0
  -29.4878  -18.9193   19.1006 N   0  0  0  0  0  0
  -29.5123  -18.4418   20.3928 N   0  0  0  0  0  0
  -30.7101  -17.3304   22.8332 F   0  0  0  0  0  0
  -28.5306  -17.4341   22.9184 F   0  0  0  0  0  0
  -31.4679  -13.0407   19.2095 H   0  0  0  0  0  0
  -30.5263  -11.9152   20.1335 H   0  0  0  0  0  0
  -29.9340  -11.7768   17.6911 H   0  0  0  0  0  0
  -29.5737  -13.4852   17.6644 H   0  0  0  0  0  0
  -28.0507  -11.2819   19.0797 H   0  0  0  0  0  0
  -27.4293  -12.3556   17.8507 H   0  0  0  0  0  0
  -27.5363  -14.2466   19.3367 H   0  0  0  0  0  0
  -28.8131  -12.4866   21.4817 H   0  0  0  0  0  0
  -28.2657  -14.1271   21.7132 H   0  0  0  0  0  0
  -25.2786   -9.5680   22.4756 H   0  0  0  0  0  0
  -24.0012   -7.4638   22.7476 H   0  0  0  0  0  0
  -21.0859   -8.8783   19.8952 H   0  0  0  0  0  0
  -22.3726  -10.9672   19.6160 H   0  0  0  0  0  0
  -21.2012   -7.6150   23.9717 H   0  0  0  0  0  0
  -21.1483   -6.0523   25.9077 H   0  0  0  0  0  0
  -22.0596   -2.7610   23.2845 H   0  0  0  0  0  0
  -22.4071  -11.9840   22.4846 H   0  0  0  0  0  0
  -21.1047  -13.1174   22.2658 H   0  0  0  0  0  0
  -24.6318  -15.8443   20.5349 H   0  0  0  0  0  0
  -26.2408  -15.6432   20.0663 H   0  0  0  0  0  0
  -26.7387  -32.5105   23.0866 H   0  0  0  0  0  0
  -25.0060  -33.9461   25.0165 H   0  0  0  0  0  0
  -22.7954  -31.2616   21.3426 H   0  0  0  0  0  0
  -23.3767  -35.9520   23.3280 H   0  0  0  0  0  0
  -24.3567  -36.8881   22.2069 H   0  0  0  0  0  0
  -23.7242  -37.6376   23.6728 H   0  0  0  0  0  0
  -26.2322  -31.3600   20.6195 H   0  0  0  0  0  0
  -26.9096  -30.6795   22.0568 H   0  0  0  0  0  0
  -28.1517  -28.5813   21.2829 H   0  0  0  0  0  0
  -25.8858  -25.7087   19.0179 H   0  0  0  0  0  0
  -24.0103  -27.2490   18.9561 H   0  0  0  0  0  0
  -23.8788  -30.5063   19.3848 H   0  0  0  0  0  0
  -22.8319  -29.1943   19.8280 H   0  0  0  0  0  0
  -25.1337  -36.1750   25.0788 H   0  0  0  0  0  0
  -21.0037  -28.3366   24.1308 H   0  0  0  0  0  0
  -20.5675  -26.2375   23.3647 H   0  0  0  0  0  0
  -21.6661  -26.7405   22.1214 H   0  0  0  0  0  0
  -19.6931  -25.6273   21.1279 H   0  0  0  0  0  0
  -19.6713  -27.3157   20.6723 H   0  0  0  0  0  0
  -17.4224  -26.6685   21.4026 H   0  0  0  0  0  0
  -18.0348  -26.0096   22.9030 H   0  0  0  0  0  0
  -19.7970  -30.7323   24.2195 H   0  0  0  0  0  0
  -17.5038  -31.6273   24.5165 H   0  0  0  0  0  0
  -15.5376  -30.2970   23.7696 H   0  0  0  0  0  0
  -15.8706  -28.0806   22.7107 H   0  0  0  0  0  0
  -24.5875  -30.7128   25.7649 H   0  0  0  0  0  0
  -24.8859  -32.2993   26.4643 H   0  0  0  0  0  0
  -25.7905  -30.9034   27.0205 H   0  0  0  0  0  0
  -26.3138  -29.6559   24.1435 H   0  0  0  0  0  0
  -27.3970  -29.7272   25.5112 H   0  0  0  0  0  0
  -27.9089  -30.4070   23.9881 H   0  0  0  0  0  0
  -27.2604  -33.3694   26.1945 H   0  0  0  0  0  0
  -28.3925  -32.6842   25.0380 H   0  0  0  0  0  0
  -28.0639  -31.8566   26.5526 H   0  0  0  0  0  0
  -28.2568  -38.0071   24.7510 H   0  0  0  0  0  0
  -28.1085  -36.2597   24.6299 H   0  0  0  0  0  0
  -27.2284  -37.1406   25.8868 H   0  0  0  0  0  0
  -20.9604  -29.8717   21.6642 H   0  0  0  0  0  0
  -26.0126  -38.2755   24.1412 H   0  0  0  0  0  0
  -29.1595  -19.7118   22.1636 H   0  0  0  0  0  0
  -30.0345  -23.0163   20.1453 H   0  0  0  0  0  0
  -29.1540  -22.8178   21.5834 H   0  0  0  0  0  0
  -27.0689  -23.9533   20.5105 H   0  0  0  0  0  0
  -27.8837  -24.0652   19.0023 H   0  0  0  0  0  0
  -28.5109  -16.4880   20.5816 H   0  0  0  0  0  0
  -29.5389  -15.7835   22.7906 H   0  0  0  0  0  0
  1 25  1  0  0  0
  1 30  2  0  0  0
  1 75  1  0  0  0
  2  3  1  0  0  0
  2 25  1  0  0  0
  2 82  1  0  0  0
  2 83  1  0  0  0
  3  4  1  0  0  0
  3 84  1  0  0  0
  3 85  1  0  0  0
  4  5  1  0  0  0
  4 86  1  0  0  0
  4 87  1  0  0  0
  5  6  1  0  0  0
  5 26  1  0  0  0
  5 88  1  0  0  0
  6 25  1  0  0  0
  6 89  1  0  0  0
  6 90  1  0  0  0
  7  8  2  0  0  0
  7 26  1  0  0  0
  7 29  1  0  0  0
  8  9  1  0  0  0
  8 22  1  0  0  0
  9 10  1  0  0  0
  9 27  2  0  0  0
 10 11  2  0  0  0
 10 15  1  0  0  0
 11 12  1  0  0  0
 11 91  1  0  0  0
 12 13  2  0  0  0
 12 92  1  0  0  0
 13 14  1  0  0  0
 13 31  1  0  0  0
 14 15  2  0  0  0
 14 93  1  0  0  0
 15 94  1  0  0  0
 16 17  2  0  0  0
 16 21  1  0  0  0
 16 31  1  0  0  0
 17 18  1  0  0  0
 17 95  1  0  0  0
 18 19  2  0  0  0
 18 96  1  0  0  0
 19 20  1  0  0  0
 19 24  1  0  0  0
 20 21  2  0  0  0
 20 97  1  0  0  0
 21 23  1  0  0  0
 22 28  1  0  0  0
 22 32  2  0  0  0
 26 27  1  0  0  0
 28 98  1  0  0  0
 28 99  1  0  0  0
 29100  1  0  0  0
 29101  1  0  0  0
 33 34  1  0  0  0
 33 66  1  0  0  0
 33 70  2  0  0  0
 34 36  1  0  0  0
 34 59  1  0  0  0
 34102  1  0  0  0
 35 44  2  0  0  0
 35 45  1  0  0  0
 35 68  1  0  0  0
 36 56  1  0  0  0
 36103  1  0  0  0
 37 39  1  0  0  0
 37 47  1  0  0  0
 37 66  1  0  0  0
 37104  1  0  0  0
 38 43  2  0  0  0
 38 46  1  0  0  0
 38 47  1  0  0  0
 39 64  1  0  0  0
 39 67  2  0  0  0
 40 52  1  0  0  0
 40 53  2  0  0  0
 40 58  1  0  0  0
 41105  1  0  0  0
 41106  1  0  0  0
 41107  1  0  0  0
 41 48  1  0  0  0
 42 43  1  0  0  0
 42 66  1  0  0  0
 42108  1  0  0  0
 42109  1  0  0  0
 43 44  1  0  0  0
 44110  1  0  0  0
 45 46  2  0  0  0
 45111  1  0  0  0
 46112  1  0  0  0
 47113  1  0  0  0
 47114  1  0  0  0
 48 56  1  0  0  0
 48 65  1  0  0  0
 48115  1  0  0  0
 49 50  1  0  0  0
 49 53  1  0  0  0
 49 64  1  0  0  0
 49116  1  0  0  0
 50 51  1  0  0  0
 50117  1  0  0  0
 50118  1  0  0  0
 51 52  1  0  0  0
 51119  1  0  0  0
 51120  1  0  0  0
 52121  1  0  0  0
 52122  1  0  0  0
 53 54  1  0  0  0
 54 55  2  0  0  0
 54123  1  0  0  0
 55 57  1  0  0  0
 55124  1  0  0  0
 56 69  2  0  0  0
 57 58  2  0  0  0
 57125  1  0  0  0
 58126  1  0  0  0
 59 60  1  0  0  0
 59 61  1  0  0  0
 59 62  1  0  0  0
 60127  1  0  0  0
 60128  1  0  0  0
 60129  1  0  0  0
 61130  1  0  0  0
 61131  1  0  0  0
 61132  1  0  0  0
 62133  1  0  0  0
 62134  1  0  0  0
 62135  1  0  0  0
 63 65  1  0  0  0
 63136  1  0  0  0
 63137  1  0  0  0
 63138  1  0  0  0
 64139  1  0  0  0
 65140  1  0  0  0
 68 74  1  0  0  0
 71 72  2  0  0  0
 71 79  1  0  0  0
 71141  1  0  0  0
 72 73  1  0  0  0
 72 77  1  0  0  0
 73 74  1  0  0  0
 73142  1  0  0  0
 73143  1  0  0  0
 74144  1  0  0  0
 74145  1  0  0  0
 75 76  1  0  0  0
 75 79  1  0  0  0
 75146  1  0  0  0
 76 80  1  0  0  0
 76 81  1  0  0  0
 76147  1  0  0  0
 77 78  2  0  0  0
 78 79  1  0  0  0
M  ISO  4   1 100  68 101  74 101  75 100
M  END
> <chiral flag>
0

> <version>
0

> <s_m_source_file>
/data/baiqing/PycharmProjects/Reinvent-master-3.2/result/LINK_invent/BTK/process_docking_weight1_custom_sum_contain_oxygen_bond_distance_aromatic_linkinvent_7_9_3/rearranged_h_0053.sdf

> <i_m_source_file_index>
50

> <r_mmod_Potential_Energy-OPLS-2005>
1439.201171875

> <r_mmod_Stretch_Energy-OPLS-2005>
639.071594238281

> <r_mmod_Bend_Energy-OPLS-2005>
489.144439697266

> <r_mmod_Torsional_Energy-OPLS-2005>
201.012878417969

> <r_mmod_Improper_Torsional_Energy-OPLS-2005>
4.51871633529663

> <r_mmod_Van_der_Waal_Energy-OPLS-2005>
104.918067932129

> <r_mmod_Electrostatic_Energy-OPLS-2005>
-266.774353027344

> <r_mmod_Solvation_Energy-OPLS-2005>
-223.4951171875

> <b_mmod_Minimization_Converged-OPLS-2005>
0

> <r_mmod_RMS_Derivative-OPLS-2005>
0.0878321006894112

$$$$
50
                    3D
 Structure written by MMmdl.
160168  0  0  1  0            999 V2000
  -30.5141  -14.9890   20.3893 C   0  0  0  0  0  0
  -30.4435  -12.6089   19.4789 C   0  0  0  0  0  0
  -29.5223  -12.5304   18.2402 C   0  0  0  0  0  0
  -28.0566  -12.3056   18.6656 C   0  0  0  0  0  0
  -27.6267  -13.2466   19.8220 C   0  0  2  0  0  0
  -28.6745  -13.2915   20.9513 C   0  0  0  0  0  0
  -25.2475  -13.8193   20.5720 C   0  0  0  0  0  0
  -24.1777  -13.0428   20.9218 C   0  0  0  0  0  0
  -24.6370  -11.6903   20.8711 C   0  0  0  0  0  0
  -23.9025  -10.4281   21.0381 C   0  0  0  0  0  0
  -24.3586   -9.4207   21.9160 C   0  0  0  0  0  0
  -23.6288   -8.2226   22.0731 C   0  0  0  0  0  0
  -22.4272   -8.0262   21.3523 C   0  0  0  0  0  0
  -21.9887   -9.0220   20.4626 C   0  0  0  0  0  0
  -22.7188  -10.2110   20.3033 C   0  0  0  0  0  0
  -21.6854   -6.0710   22.5263 C   0  0  0  0  0  0
  -21.4016   -6.5616   23.8201 C   0  0  0  0  0  0
  -21.3674   -5.6767   24.9155 C   0  0  0  0  0  0
  -21.6051   -4.3030   24.7206 C   0  0  0  0  0  0
  -21.8826   -3.8119   23.4325 C   0  0  0  0  0  0
  -21.9197   -4.6941   22.3379 C   0  0  0  0  0  0
  -22.7798  -13.5223   21.1864 C   0  0  0  0  0  0
  -22.1674   -4.2120   21.0960 F   0  0  0  0  0  0
  -21.5632   -3.4527   25.7724 F   0  0  0  0  0  0
  -29.9389  -13.7174   20.3374 N   0  0  0  0  0  0
  -26.2874  -12.9420   20.3177 N   0  0  0  0  0  0
  -25.9299  -11.6543   20.5664 N   0  0  0  0  0  0
  -22.0429  -12.8255   22.0431 N   0  0  0  0  0  0
  -25.4141  -15.1915   20.4160 N   0  0  0  0  0  0
  -31.7366  -15.0598   20.2213 O   0  0  0  0  0  0
  -21.6633   -6.8858   21.4232 O   0  0  0  0  0  0
  -22.3497  -14.5516   20.6667 O   0  0  0  0  0  0
  -24.6455  -31.8397   23.1859 C   0  0  0  0  0  0
  -25.9204  -32.4676   23.8264 C   0  0  1  0  0  0
  -27.2141  -27.1017   20.1533 C   0  0  0  0  0  0
  -25.5935  -33.8494   24.2160 N   0  0  0  0  0  0
  -23.4509  -30.4551   21.5353 C   0  0  2  0  0  0
  -24.8973  -28.8692   20.1180 C   0  0  0  0  0  0
  -22.7574  -29.4507   22.4892 C   0  0  0  0  0  0
  -18.0302  -28.1363   22.8487 C   0  0  0  0  0  0
  -24.1491  -36.7246   23.2643 C   0  0  0  0  0  0
  -26.0079  -30.6998   21.3902 C   0  0  0  0  0  0
  -26.0767  -29.3067   20.7326 C   0  0  0  0  0  0
  -27.2391  -28.4417   20.7247 C   0  0  0  0  0  0
  -26.0048  -26.7627   19.5136 C   0  0  0  0  0  0
  -24.8749  -27.6118   19.4924 C   0  0  0  0  0  0
  -23.6772  -29.7780   20.1579 C   0  0  0  0  0  0
  -25.4127  -36.3027   24.0311 C   0  0  1  0  0  0
  -20.5916  -28.3687   23.1246 C   0  0  2  0  0  0
  -20.6779  -26.9393   22.5409 C   0  0  0  0  0  0
  -19.5757  -26.6352   21.5215 C   0  0  0  0  0  0
  -18.1937  -26.7899   22.1627 C   0  0  0  0  0  0
  -19.1559  -28.8850   23.2848 C   0  0  0  0  0  0
  -18.9477  -30.1444   23.8862 C   0  0  0  0  0  0
  -17.6474  -30.6569   24.0543 C   0  0  0  0  0  0
  -25.9079  -34.9402   23.5065 C   0  0  0  0  0  0
  -16.5365  -29.9059   23.6326 C   0  0  0  0  0  0
  -16.7287  -28.6473   23.0366 C   0  0  0  0  0  0
  -26.4505  -31.6569   25.0733 C   0  0  0  0  0  0
  -25.3662  -31.3788   26.1418 C   0  0  0  0  0  0
  -27.0350  -30.2952   24.6338 C   0  0  0  0  0  0
  -27.6036  -32.4326   25.7515 C   0  0  0  0  0  0
  -27.5577  -37.1770   24.8452 C   0  0  0  0  0  0
  -21.4272  -29.3019   22.3642 N   0  0  0  0  0  0
  -26.4276  -37.3748   23.9416 N   0  0  0  0  0  0
  -24.7213  -31.0211   22.0908 N   0  0  0  0  0  0
  -23.4210  -28.8057   23.3057 O   0  0  0  0  0  0
  -28.2859  -26.1288   20.1518 O   0  0  0  0  0  0
  -26.5700  -34.8902   22.4651 O   0  0  0  0  0  0
  -23.5565  -32.1296   23.7057 O   0  0  0  0  0  0
  -28.9898  -24.0796   18.1198 C   0  0  0  0  0  0
  -28.7167  -23.4876   19.3177 C   0  0  0  0  0  0
  -29.3679  -21.9228   17.7982 C   0  0  0  0  0  0
  -29.7013  -20.8340   16.8099 C   0  0  0  0  0  0
  -30.9130  -19.0484   18.9565 C   0  0  0  0  0  0
  -28.3544  -18.4888   18.8548 C   0  0  0  0  0  0
  -28.1209  -24.5725   20.3718 C   0  0  0  0  0  0
  -29.1313  -20.6763   20.0971 C   0  0  0  0  0  0
  -29.8020  -17.7171   20.7515 C   0  0  0  0  0  0
  -29.5418  -19.0271   19.6881 C   0  0  0  0  0  0
  -29.0553  -22.0224   19.1422 N   0  0  0  0  0  0
  -29.3821  -23.1340   17.2555 N   0  3  0  0  0  0
  -29.6876  -16.1536   20.4185 N   0  0  0  0  0  0
  -31.4786  -12.7700   19.1688 H   0  0  0  0  0  0
  -30.4412  -11.6627   20.0217 H   0  0  0  0  0  0
  -29.8498  -11.7303   17.5759 H   0  0  0  0  0  0
  -29.5993  -13.4553   17.6649 H   0  0  0  0  0  0
  -27.9686  -11.2680   18.9895 H   0  0  0  0  0  0
  -27.3884  -12.4159   17.8084 H   0  0  0  0  0  0
  -27.5826  -14.2416   19.3782 H   0  0  0  0  0  0
  -28.7741  -12.3179   21.4316 H   0  0  0  0  0  0
  -28.3701  -13.9967   21.7274 H   0  0  0  0  0  0
  -25.2727   -9.5704   22.4728 H   0  0  0  0  0  0
  -24.0001   -7.4623   22.7453 H   0  0  0  0  0  0
  -21.0811   -8.8708   19.8952 H   0  0  0  0  0  0
  -22.3624  -10.9625   19.6134 H   0  0  0  0  0  0
  -21.2008   -7.6125   23.9702 H   0  0  0  0  0  0
  -21.1510   -6.0487   25.9065 H   0  0  0  0  0  0
  -22.0600   -2.7582   23.2812 H   0  0  0  0  0  0
  -22.4049  -11.9955   22.4898 H   0  0  0  0  0  0
  -21.1024  -13.1263   22.2568 H   0  0  0  0  0  0
  -24.6360  -15.8336   20.5108 H   0  0  0  0  0  0
  -26.2480  -15.6298   20.0472 H   0  0  0  0  0  0
  -26.7270  -32.5257   23.0989 H   0  0  0  0  0  0
  -24.9981  -33.9605   25.0245 H   0  0  0  0  0  0
  -22.7537  -31.2810   21.3785 H   0  0  0  0  0  0
  -23.3774  -35.9552   23.3261 H   0  0  0  0  0  0
  -24.3576  -36.8931   22.2066 H   0  0  0  0  0  0
  -23.7217  -37.6414   23.6715 H   0  0  0  0  0  0
  -26.1715  -31.4476   20.6143 H   0  0  0  0  0  0
  -26.8759  -30.7492   22.0357 H   0  0  0  0  0  0
  -28.1443  -28.7787   21.2107 H   0  0  0  0  0  0
  -25.9158  -25.7993   19.0323 H   0  0  0  0  0  0
  -23.9739  -27.2723   18.9991 H   0  0  0  0  0  0
  -23.8221  -30.5491   19.4007 H   0  0  0  0  0  0
  -22.7888  -29.2246   19.8481 H   0  0  0  0  0  0
  -25.1314  -36.1849   25.0800 H   0  0  0  0  0  0
  -20.9995  -28.3264   24.1374 H   0  0  0  0  0  0
  -20.5657  -26.2300   23.3626 H   0  0  0  0  0  0
  -21.6645  -26.7382   22.1217 H   0  0  0  0  0  0
  -19.6917  -25.6259   21.1249 H   0  0  0  0  0  0
  -19.6686  -27.3152   20.6736 H   0  0  0  0  0  0
  -17.4208  -26.6649   21.4025 H   0  0  0  0  0  0
  -18.0331  -26.0029   22.9011 H   0  0  0  0  0  0
  -19.7957  -30.7264   24.2214 H   0  0  0  0  0  0
  -17.5031  -31.6253   24.5139 H   0  0  0  0  0  0
  -15.5361  -30.2953   23.7653 H   0  0  0  0  0  0
  -15.8686  -28.0765   22.7111 H   0  0  0  0  0  0
  -24.5841  -30.7140   25.7738 H   0  0  0  0  0  0
  -24.8850  -32.2979   26.4767 H   0  0  0  0  0  0
  -25.7918  -30.9005   27.0249 H   0  0  0  0  0  0
  -26.2964  -29.6689   24.1323 H   0  0  0  0  0  0
  -27.3910  -29.7249   25.4927 H   0  0  0  0  0  0
  -27.8902  -30.4168   23.9689 H   0  0  0  0  0  0
  -27.2649  -33.3664   26.2011 H   0  0  0  0  0  0
  -28.3893  -32.6819   25.0372 H   0  0  0  0  0  0
  -28.0644  -31.8494   26.5495 H   0  0  0  0  0  0
  -28.2562  -38.0101   24.7552 H   0  0  0  0  0  0
  -28.1107  -36.2636   24.6211 H   0  0  0  0  0  0
  -27.2298  -37.1330   25.8850 H   0  0  0  0  0  0
  -20.9486  -29.8747   21.6829 H   0  0  0  0  0  0
  -26.0141  -38.2805   24.1452 H   0  0  0  0  0  0
  -28.8973  -25.1152   17.8223 H   0  0  0  0  0  0
  -30.7737  -20.8463   16.6158 H   0  0  0  0  0  0
  -29.1935  -21.0598   15.8710 H   0  0  0  0  0  0
  -29.3876  -19.8500   17.0927 H   0  0  0  0  0  0
  -30.9631  -18.3577   18.1157 H   0  0  0  0  0  0
  -31.7357  -18.7755   19.6176 H   0  0  0  0  0  0
  -31.2025  -20.0394   18.6243 H   0  0  0  0  0  0
  -27.8459  -19.2436   18.2607 H   0  0  0  0  0  0
  -27.5724  -18.1141   19.5159 H   0  0  0  0  0  0
  -28.6500  -17.6653   18.2025 H   0  0  0  0  0  0
  -28.5584  -24.3476   21.3433 H   0  0  0  0  0  0
  -27.0583  -24.3578   20.4870 H   0  0  0  0  0  0
  -29.8074  -20.9696   20.8971 H   0  0  0  0  0  0
  -28.1528  -20.6364   20.5772 H   0  0  0  0  0  0
  -29.0534  -17.8571   21.5319 H   0  0  0  0  0  0
  -30.7376  -17.8625   21.2952 H   0  0  0  0  0  0
  -29.6256  -23.3238   16.2895 H   0  0  0  0  0  0
  -28.7212  -15.8718   20.3636 H   0  0  0  0  0  0
  1 25  1  0  0  0
  1 30  2  0  0  0
  1 83  1  0  0  0
  2  3  1  0  0  0
  2 25  1  0  0  0
  2 84  1  0  0  0
  2 85  1  0  0  0
  3  4  1  0  0  0
  3 86  1  0  0  0
  3 87  1  0  0  0
  4  5  1  0  0  0
  4 88  1  0  0  0
  4 89  1  0  0  0
  5  6  1  0  0  0
  5 26  1  0  0  0
  5 90  1  0  0  0
  6 25  1  0  0  0
  6 91  1  0  0  0
  6 92  1  0  0  0
  7  8  2  0  0  0
  7 26  1  0  0  0
  7 29  1  0  0  0
  8  9  1  0  0  0
  8 22  1  0  0  0
  9 10  1  0  0  0
  9 27  2  0  0  0
 10 11  2  0  0  0
 10 15  1  0  0  0
 11 12  1  0  0  0
 11 93  1  0  0  0
 12 13  2  0  0  0
 12 94  1  0  0  0
 13 14  1  0  0  0
 13 31  1  0  0  0
 14 15  2  0  0  0
 14 95  1  0  0  0
 15 96  1  0  0  0
 16 17  2  0  0  0
 16 21  1  0  0  0
 16 31  1  0  0  0
 17 18  1  0  0  0
 17 97  1  0  0  0
 18 19  2  0  0  0
 18 98  1  0  0  0
 19 20  1  0  0  0
 19 24  1  0  0  0
 20 21  2  0  0  0
 20 99  1  0  0  0
 21 23  1  0  0  0
 22 28  1  0  0  0
 22 32  2  0  0  0
 26 27  1  0  0  0
 28100  1  0  0  0
 28101  1  0  0  0
 29102  1  0  0  0
 29103  1  0  0  0
 33 34  1  0  0  0
 33 66  1  0  0  0
 33 70  2  0  0  0
 34 36  1  0  0  0
 34 59  1  0  0  0
 34104  1  0  0  0
 35 44  2  0  0  0
 35 45  1  0  0  0
 35 68  1  0  0  0
 36 56  1  0  0  0
 36105  1  0  0  0
 37 39  1  0  0  0
 37 47  1  0  0  0
 37 66  1  0  0  0
 37106  1  0  0  0
 38 43  2  0  0  0
 38 46  1  0  0  0
 38 47  1  0  0  0
 39 64  1  0  0  0
 39 67  2  0  0  0
 40 52  1  0  0  0
 40 53  2  0  0  0
 40 58  1  0  0  0
 41107  1  0  0  0
 41108  1  0  0  0
 41109  1  0  0  0
 41 48  1  0  0  0
 42 43  1  0  0  0
 42 66  1  0  0  0
 42110  1  0  0  0
 42111  1  0  0  0
 43 44  1  0  0  0
 44112  1  0  0  0
 45 46  2  0  0  0
 45113  1  0  0  0
 46114  1  0  0  0
 47115  1  0  0  0
 47116  1  0  0  0
 48 56  1  0  0  0
 48 65  1  0  0  0
 48117  1  0  0  0
 49 50  1  0  0  0
 49 53  1  0  0  0
 49 64  1  0  0  0
 49118  1  0  0  0
 50 51  1  0  0  0
 50119  1  0  0  0
 50120  1  0  0  0
 51 52  1  0  0  0
 51121  1  0  0  0
 51122  1  0  0  0
 52123  1  0  0  0
 52124  1  0  0  0
 53 54  1  0  0  0
 54 55  2  0  0  0
 54125  1  0  0  0
 55 57  1  0  0  0
 55126  1  0  0  0
 56 69  2  0  0  0
 57 58  2  0  0  0
 57127  1  0  0  0
 58128  1  0  0  0
 59 60  1  0  0  0
 59 61  1  0  0  0
 59 62  1  0  0  0
 60129  1  0  0  0
 60130  1  0  0  0
 60131  1  0  0  0
 61132  1  0  0  0
 61133  1  0  0  0
 61134  1  0  0  0
 62135  1  0  0  0
 62136  1  0  0  0
 62137  1  0  0  0
 63 65  1  0  0  0
 63138  1  0  0  0
 63139  1  0  0  0
 63140  1  0  0  0
 64141  1  0  0  0
 65142  1  0  0  0
 68 77  1  0  0  0
 71 72  2  0  0  0
 71 82  1  0  0  0
 71143  1  0  0  0
 72 77  1  0  0  0
 72 81  1  0  0  0
 73 74  1  0  0  0
 73 81  1  0  0  0
 73 82  2  0  0  0
 74144  1  0  0  0
 74145  1  0  0  0
 74146  1  0  0  0
 75147  1  0  0  0
 75148  1  0  0  0
 75149  1  0  0  0
 75 80  1  0  0  0
 76 80  1  0  0  0
 76150  1  0  0  0
 76151  1  0  0  0
 76152  1  0  0  0
 77153  1  0  0  0
 77154  1  0  0  0
 78 80  1  0  0  0
 78 81  1  0  0  0
 78155  1  0  0  0
 78156  1  0  0  0
 79 80  1  0  0  0
 79 83  1  0  0  0
 79157  1  0  0  0
 79158  1  0  0  0
 82159  1  0  0  0
 83160  1  0  0  0
M  CHG  1  82   1
M  ISO  4   1 100  68 101  77 101  83 100
M  END
> <chiral flag>
0

> <version>
0

> <s_m_source_file>
/data/baiqing/PycharmProjects/Reinvent-master-3.2/result/LINK_invent/BTK/process_docking_weight1_custom_sum_contain_oxygen_bond_distance_aromatic_linkinvent_7_9_3/rearranged_h_0053.sdf

> <i_m_source_file_index>
51

> <r_mmod_Potential_Energy-OPLS-2005>
681.49560546875

> <r_mmod_Stretch_Energy-OPLS-2005>
365.306427001953

> <r_mmod_Bend_Energy-OPLS-2005>
394.600921630859

> <r_mmod_Torsional_Energy-OPLS-2005>
268.829803466797

> <r_mmod_Improper_Torsional_Energy-OPLS-2005>
5.02312755584717

> <r_mmod_Van_der_Waal_Energy-OPLS-2005>
125.655822753906

> <r_mmod_Electrostatic_Energy-OPLS-2005>
-278.312652587891

> <r_mmod_Solvation_Energy-OPLS-2005>
-420.523712158203

> <b_mmod_Minimization_Converged-OPLS-2005>
0

> <r_mmod_RMS_Derivative-OPLS-2005>
3.41879534721375

$$$$
51
                    3D
 Structure written by MMmdl.
157165  0  0  1  0            999 V2000
  -30.6347  -14.6859   20.4049 C   0  0  0  0  0  0
  -30.4417  -12.3945   19.4603 C   0  0  0  0  0  0
  -29.5070  -12.3795   18.2291 C   0  0  0  0  0  0
  -28.0255  -12.2783   18.6483 C   0  0  0  0  0  0
  -27.6392  -13.1977   19.8388 C   0  0  2  0  0  0
  -28.6946  -13.1585   20.9649 C   0  0  0  0  0  0
  -25.2569  -13.8112   20.5711 C   0  0  0  0  0  0
  -24.1818  -13.0416   20.9219 C   0  0  0  0  0  0
  -24.6352  -11.6872   20.8782 C   0  0  0  0  0  0
  -23.9018  -10.4276   21.0440 C   0  0  0  0  0  0
  -24.3590   -9.4192   21.9200 C   0  0  0  0  0  0
  -23.6283   -8.2224   22.0755 C   0  0  0  0  0  0
  -22.4264   -8.0270   21.3549 C   0  0  0  0  0  0
  -21.9889   -9.0234   20.4650 C   0  0  0  0  0  0
  -22.7202  -10.2122   20.3073 C   0  0  0  0  0  0
  -21.6840   -6.0732   22.5281 C   0  0  0  0  0  0
  -21.4004   -6.5633   23.8212 C   0  0  0  0  0  0
  -21.3659   -5.6789   24.9173 C   0  0  0  0  0  0
  -21.6048   -4.3054   24.7218 C   0  0  0  0  0  0
  -21.8825   -3.8143   23.4341 C   0  0  0  0  0  0
  -21.9189   -4.6962   22.3403 C   0  0  0  0  0  0
  -22.7852  -13.5239   21.1870 C   0  0  0  0  0  0
  -22.1672   -4.2153   21.0977 F   0  0  0  0  0  0
  -21.5627   -3.4544   25.7735 F   0  0  0  0  0  0
  -29.9940  -13.4739   20.3599 N   0  0  0  0  0  0
  -26.2941  -12.9238   20.3297 N   0  0  0  0  0  0
  -25.9266  -11.6424   20.5792 N   0  0  0  0  0  0
  -22.0493  -12.8246   22.0433 N   0  0  0  0  0  0
  -25.4334  -15.1833   20.4138 N   0  0  0  0  0  0
  -31.8585  -14.7624   20.2664 O   0  0  0  0  0  0
  -21.6631   -6.8871   21.4239 O   0  0  0  0  0  0
  -22.3552  -14.5544   20.6703 O   0  0  0  0  0  0
  -24.6235  -31.8609   23.2028 C   0  0  0  0  0  0
  -25.9088  -32.4787   23.8349 C   0  0  1  0  0  0
  -27.2299  -27.3362   20.1280 C   0  0  0  0  0  0
  -25.5913  -33.8587   24.2283 N   0  0  0  0  0  0
  -23.4174  -30.4829   21.5442 C   0  0  2  0  0  0
  -24.8649  -28.9383   20.1119 C   0  0  0  0  0  0
  -22.7464  -29.4625   22.4939 C   0  0  0  0  0  0
  -18.0286  -28.1393   22.8488 C   0  0  0  0  0  0
  -24.1488  -36.7302   23.2641 C   0  0  0  0  0  0
  -25.9550  -30.7987   21.3696 C   0  0  0  0  0  0
  -26.0312  -29.4263   20.7149 C   0  0  0  0  0  0
  -27.2157  -28.6371   20.7118 C   0  0  0  0  0  0
  -26.0424  -26.8937   19.5011 C   0  0  0  0  0  0
  -24.8719  -27.6773   19.4952 C   0  0  0  0  0  0
  -23.6312  -29.8158   20.1593 C   0  0  0  0  0  0
  -25.4112  -36.3093   24.0333 C   0  0  1  0  0  0
  -20.5883  -28.3689   23.1299 C   0  0  2  0  0  0
  -20.6776  -26.9414   22.5418 C   0  0  0  0  0  0
  -19.5751  -26.6389   21.5222 C   0  0  0  0  0  0
  -18.1930  -26.7935   22.1626 C   0  0  0  0  0  0
  -19.1538  -28.8857   23.2889 C   0  0  0  0  0  0
  -18.9459  -30.1459   23.8903 C   0  0  0  0  0  0
  -17.6462  -30.6595   24.0566 C   0  0  0  0  0  0
  -25.9043  -34.9460   23.5107 C   0  0  0  0  0  0
  -16.5354  -29.9094   23.6335 C   0  0  0  0  0  0
  -16.7273  -28.6515   23.0350 C   0  0  0  0  0  0
  -26.4478  -31.6597   25.0719 C   0  0  0  0  0  0
  -25.3726  -31.3724   26.1457 C   0  0  0  0  0  0
  -27.0322  -30.3031   24.6149 C   0  0  0  0  0  0
  -27.6048  -32.4329   25.7484 C   0  0  0  0  0  0
  -27.5578  -37.1804   24.8464 C   0  0  0  0  0  0
  -21.4179  -29.3041   22.3687 N   0  0  0  0  0  0
  -26.4290  -37.3783   23.9405 N   0  0  0  0  0  0
  -24.6842  -31.0634   22.0969 N   0  0  0  0  0  0
  -23.4198  -28.8175   23.3019 O   0  0  0  0  0  0
  -28.3602  -26.5125   20.1920 O   0  0  0  0  0  0
  -26.5618  -34.8922   22.4677 O   0  0  0  0  0  0
  -23.5406  -32.1396   23.7372 O   0  0  0  0  0  0
  -28.5032  -20.6395   21.7223 C   0  0  0  0  0  0
  -29.2540  -19.8052   20.8470 C   0  0  0  0  0  0
  -30.0299  -21.7615   19.8114 C   0  0  0  0  0  0
  -29.2596  -22.5992   20.6791 C   0  0  0  0  0  0
  -30.9640  -22.3394   18.7674 C   0  0  0  0  0  0
  -29.3626  -16.0310   18.8729 C   0  0  0  0  0  0
  -29.0012  -18.2622   20.7661 C   0  0  0  0  0  0
  -29.3603  -24.1692   20.6968 C   0  0  0  0  0  0
  -30.1902  -17.1950   20.8001 C   0  0  0  0  0  0
  -28.1742  -25.0483   20.1331 C   0  0  0  0  0  0
  -28.5030  -22.0063   21.6430 N   0  0  0  0  0  0
  -30.0111  -20.3925   19.8808 N   0  0  0  0  0  0
  -29.8554  -15.8228   20.2494 N   0  0  0  0  0  0
  -31.4773  -12.5269   19.1418 H   0  0  0  0  0  0
  -30.4050  -11.4360   19.9806 H   0  0  0  0  0  0
  -29.7579  -11.5243   17.6010 H   0  0  0  0  0  0
  -29.6731  -13.2432   17.5922 H   0  0  0  0  0  0
  -27.8505  -11.2389   18.9283 H   0  0  0  0  0  0
  -27.3768  -12.4702   17.7929 H   0  0  0  0  0  0
  -27.6084  -14.2012   19.4335 H   0  0  0  0  0  0
  -28.7236  -12.1796   21.4458 H   0  0  0  0  0  0
  -28.4486  -13.8825   21.7428 H   0  0  0  0  0  0
  -25.2734   -9.5679   22.4765 H   0  0  0  0  0  0
  -24.0003   -7.4610   22.7454 H   0  0  0  0  0  0
  -21.0830   -8.8737   19.8945 H   0  0  0  0  0  0
  -22.3659  -10.9663   19.6186 H   0  0  0  0  0  0
  -21.1996   -7.6140   23.9719 H   0  0  0  0  0  0
  -21.1480   -6.0517   25.9078 H   0  0  0  0  0  0
  -22.0606   -2.7609   23.2837 H   0  0  0  0  0  0
  -22.4089  -11.9893   22.4808 H   0  0  0  0  0  0
  -21.1107  -13.1270   22.2613 H   0  0  0  0  0  0
  -24.6747  -15.8446   20.5348 H   0  0  0  0  0  0
  -26.3006  -15.6207   20.1294 H   0  0  0  0  0  0
  -26.7160  -32.5465   23.1103 H   0  0  0  0  0  0
  -25.0043  -33.9727   25.0417 H   0  0  0  0  0  0
  -22.7105  -31.3030   21.4008 H   0  0  0  0  0  0
  -23.3747  -35.9638   23.3311 H   0  0  0  0  0  0
  -24.3576  -36.8913   22.2053 H   0  0  0  0  0  0
  -23.7245  -37.6508   23.6655 H   0  0  0  0  0  0
  -26.0792  -31.5613   20.5989 H   0  0  0  0  0  0
  -26.8391  -30.8528   21.9931 H   0  0  0  0  0  0
  -28.1103  -29.0050   21.1947 H   0  0  0  0  0  0
  -25.9965  -25.9271   19.0208 H   0  0  0  0  0  0
  -23.9787  -27.2968   19.0184 H   0  0  0  0  0  0
  -23.7464  -30.5920   19.4022 H   0  0  0  0  0  0
  -22.7538  -29.2415   19.8573 H   0  0  0  0  0  0
  -25.1289  -36.1942   25.0827 H   0  0  0  0  0  0
  -20.9976  -28.3264   24.1417 H   0  0  0  0  0  0
  -20.5690  -26.2292   23.3609 H   0  0  0  0  0  0
  -21.6645  -26.7450   22.1200 H   0  0  0  0  0  0
  -19.6911  -25.6299   21.1248 H   0  0  0  0  0  0
  -19.6698  -27.3202   20.6754 H   0  0  0  0  0  0
  -17.4198  -26.6690   21.4029 H   0  0  0  0  0  0
  -18.0327  -26.0080   22.9024 H   0  0  0  0  0  0
  -19.7936  -30.7276   24.2276 H   0  0  0  0  0  0
  -17.5017  -31.6274   24.5167 H   0  0  0  0  0  0
  -15.5356  -30.3000   23.7657 H   0  0  0  0  0  0
  -15.8670  -28.0839   22.7061 H   0  0  0  0  0  0
  -24.5897  -30.7074   25.7788 H   0  0  0  0  0  0
  -24.8919  -32.2889   26.4893 H   0  0  0  0  0  0
  -25.8064  -30.8894   27.0222 H   0  0  0  0  0  0
  -26.2886  -29.6788   24.1185 H   0  0  0  0  0  0
  -27.4050  -29.7273   25.4627 H   0  0  0  0  0  0
  -27.8737  -30.4331   23.9343 H   0  0  0  0  0  0
  -27.2659  -33.3622   26.2068 H   0  0  0  0  0  0
  -28.3848  -32.6901   25.0310 H   0  0  0  0  0  0
  -28.0724  -31.8453   26.5388 H   0  0  0  0  0  0
  -28.2599  -38.0098   24.7509 H   0  0  0  0  0  0
  -28.1072  -36.2629   24.6293 H   0  0  0  0  0  0
  -27.2297  -37.1460   25.8868 H   0  0  0  0  0  0
  -20.9353  -29.8751   21.6887 H   0  0  0  0  0  0
  -26.0177  -38.2857   24.1416 H   0  0  0  0  0  0
  -27.8434  -20.2065   22.4607 H   0  0  0  0  0  0
  -31.8306  -22.7905   19.2517 H   0  0  0  0  0  0
  -30.4605  -23.1031   18.1749 H   0  0  0  0  0  0
  -31.3246  -21.5686   18.0858 H   0  0  0  0  0  0
  -29.8092  -16.9090   18.4036 H   0  0  0  0  0  0
  -28.2840  -16.1769   18.8602 H   0  0  0  0  0  0
  -29.5843  -15.2150   18.1943 H   0  0  0  0  0  0
  -28.4144  -18.1604   19.8564 H   0  0  0  0  0  0
  -28.3037  -17.9985   21.5626 H   0  0  0  0  0  0
  -30.2719  -24.4668   20.1827 H   0  0  0  0  0  0
  -29.5287  -24.4612   21.7342 H   0  0  0  0  0  0
  -30.5531  -17.0941   21.8238 H   0  0  0  0  0  0
  -31.0355  -17.5887   20.2328 H   0  0  0  0  0  0
  -27.2741  -24.7777   20.6883 H   0  0  0  0  0  0
  -27.9981  -24.7639   19.0954 H   0  0  0  0  0  0
  1 25  1  0  0  0
  1 30  2  0  0  0
  1 83  1  0  0  0
  2  3  1  0  0  0
  2 25  1  0  0  0
  2 84  1  0  0  0
  2 85  1  0  0  0
  3  4  1  0  0  0
  3 86  1  0  0  0
  3 87  1  0  0  0
  4  5  1  0  0  0
  4 88  1  0  0  0
  4 89  1  0  0  0
  5  6  1  0  0  0
  5 26  1  0  0  0
  5 90  1  0  0  0
  6 25  1  0  0  0
  6 91  1  0  0  0
  6 92  1  0  0  0
  7  8  2  0  0  0
  7 26  1  0  0  0
  7 29  1  0  0  0
  8  9  1  0  0  0
  8 22  1  0  0  0
  9 10  1  0  0  0
  9 27  2  0  0  0
 10 11  2  0  0  0
 10 15  1  0  0  0
 11 12  1  0  0  0
 11 93  1  0  0  0
 12 13  2  0  0  0
 12 94  1  0  0  0
 13 14  1  0  0  0
 13 31  1  0  0  0
 14 15  2  0  0  0
 14 95  1  0  0  0
 15 96  1  0  0  0
 16 17  2  0  0  0
 16 21  1  0  0  0
 16 31  1  0  0  0
 17 18  1  0  0  0
 17 97  1  0  0  0
 18 19  2  0  0  0
 18 98  1  0  0  0
 19 20  1  0  0  0
 19 24  1  0  0  0
 20 21  2  0  0  0
 20 99  1  0  0  0
 21 23  1  0  0  0
 22 28  1  0  0  0
 22 32  2  0  0  0
 26 27  1  0  0  0
 28100  1  0  0  0
 28101  1  0  0  0
 29102  1  0  0  0
 29103  1  0  0  0
 33 34  1  0  0  0
 33 66  1  0  0  0
 33 70  2  0  0  0
 34 36  1  0  0  0
 34 59  1  0  0  0
 34104  1  0  0  0
 35 44  2  0  0  0
 35 45  1  0  0  0
 35 68  1  0  0  0
 36 56  1  0  0  0
 36105  1  0  0  0
 37 39  1  0  0  0
 37 47  1  0  0  0
 37 66  1  0  0  0
 37106  1  0  0  0
 38 43  2  0  0  0
 38 46  1  0  0  0
 38 47  1  0  0  0
 39 64  1  0  0  0
 39 67  2  0  0  0
 40 52  1  0  0  0
 40 53  2  0  0  0
 40 58  1  0  0  0
 41107  1  0  0  0
 41108  1  0  0  0
 41109  1  0  0  0
 41 48  1  0  0  0
 42 43  1  0  0  0
 42 66  1  0  0  0
 42110  1  0  0  0
 42111  1  0  0  0
 43 44  1  0  0  0
 44112  1  0  0  0
 45 46  2  0  0  0
 45113  1  0  0  0
 46114  1  0  0  0
 47115  1  0  0  0
 47116  1  0  0  0
 48 56  1  0  0  0
 48 65  1  0  0  0
 48117  1  0  0  0
 49 50  1  0  0  0
 49 53  1  0  0  0
 49 64  1  0  0  0
 49118  1  0  0  0
 50 51  1  0  0  0
 50119  1  0  0  0
 50120  1  0  0  0
 51 52  1  0  0  0
 51121  1  0  0  0
 51122  1  0  0  0
 52123  1  0  0  0
 52124  1  0  0  0
 53 54  1  0  0  0
 54 55  2  0  0  0
 54125  1  0  0  0
 55 57  1  0  0  0
 55126  1  0  0  0
 56 69  2  0  0  0
 57 58  2  0  0  0
 57127  1  0  0  0
 58128  1  0  0  0
 59 60  1  0  0  0
 59 61  1  0  0  0
 59 62  1  0  0  0
 60129  1  0  0  0
 60130  1  0  0  0
 60131  1  0  0  0
 61132  1  0  0  0
 61133  1  0  0  0
 61134  1  0  0  0
 62135  1  0  0  0
 62136  1  0  0  0
 62137  1  0  0  0
 63 65  1  0  0  0
 63138  1  0  0  0
 63139  1  0  0  0
 63140  1  0  0  0
 64141  1  0  0  0
 65142  1  0  0  0
 68 80  1  0  0  0
 71 72  2  0  0  0
 71 81  1  0  0  0
 71143  1  0  0  0
 72 77  1  0  0  0
 72 82  1  0  0  0
 73 74  1  0  0  0
 73 75  1  0  0  0
 73 82  2  0  0  0
 74 78  1  0  0  0
 74 81  2  0  0  0
 75144  1  0  0  0
 75145  1  0  0  0
 75146  1  0  0  0
 76 83  1  0  0  0
 76147  1  0  0  0
 76148  1  0  0  0
 76149  1  0  0  0
 77 79  1  0  0  0
 77150  1  0  0  0
 77151  1  0  0  0
 78 80  1  0  0  0
 78152  1  0  0  0
 78153  1  0  0  0
 79 83  1  0  0  0
 79154  1  0  0  0
 79155  1  0  0  0
 80156  1  0  0  0
 80157  1  0  0  0
M  ISO  4   1 100  68 101  80 101  83 100
M  END
> <chiral flag>
0

> <version>
0

> <s_m_source_file>
/data/baiqing/PycharmProjects/Reinvent-master-3.2/result/LINK_invent/BTK/process_docking_weight1_custom_sum_contain_oxygen_bond_distance_aromatic_linkinvent_7_9_3/rearranged_h_0053.sdf

> <i_m_source_file_index>
52

> <r_mmod_Potential_Energy-OPLS-2005>
271.104675292969

> <r_mmod_Stretch_Energy-OPLS-2005>
81.1847229003906

> <r_mmod_Bend_Energy-OPLS-2005>
138.026306152344

> <r_mmod_Torsional_Energy-OPLS-2005>
288.296722412109

> <r_mmod_Improper_Torsional_Energy-OPLS-2005>
15.2047100067139

> <r_mmod_Van_der_Waal_Energy-OPLS-2005>
157.781875610352

> <r_mmod_Electrostatic_Energy-OPLS-2005>
-259.764556884766

> <r_mmod_Solvation_Energy-OPLS-2005>
-216.103515625

> <b_mmod_Minimization_Converged-OPLS-2005>
0

> <r_mmod_RMS_Derivative-OPLS-2005>
1.48173975944519

$$$$
52
                    3D
 Structure written by MMmdl.
163171  0  0  1  0            999 V2000
  -30.6828  -14.7631   20.5094 C   0  0  0  0  0  0
  -30.4280  -12.5133   19.4288 C   0  0  0  0  0  0
  -29.4769  -12.5441   18.2139 C   0  0  0  0  0  0
  -28.0145  -12.3432   18.6529 C   0  0  0  0  0  0
  -27.6366  -13.2009   19.8882 C   0  0  2  0  0  0
  -28.7270  -13.1087   20.9877 C   0  0  0  0  0  0
  -25.2213  -13.7908   20.5434 C   0  0  0  0  0  0
  -24.1616  -13.0187   20.9231 C   0  0  0  0  0  0
  -24.6315  -11.6724   20.8903 C   0  0  0  0  0  0
  -23.9009  -10.4120   21.0501 C   0  0  0  0  0  0
  -24.3558   -9.4021   21.9249 C   0  0  0  0  0  0
  -23.6214   -8.2072   22.0774 C   0  0  0  0  0  0
  -22.4210   -8.0146   21.3537 C   0  0  0  0  0  0
  -21.9862   -9.0130   20.4654 C   0  0  0  0  0  0
  -22.7204  -10.2001   20.3105 C   0  0  0  0  0  0
  -21.6772   -6.0634   22.5278 C   0  0  0  0  0  0
  -21.3958   -6.5558   23.8206 C   0  0  0  0  0  0
  -21.3685   -5.6736   24.9190 C   0  0  0  0  0  0
  -21.6083   -4.3000   24.7258 C   0  0  0  0  0  0
  -21.8820   -3.8070   23.4382 C   0  0  0  0  0  0
  -21.9153   -4.6870   22.3419 C   0  0  0  0  0  0
  -22.7655  -13.5029   21.1876 C   0  0  0  0  0  0
  -22.1615   -4.2058   21.0993 F   0  0  0  0  0  0
  -21.5676   -3.4496   25.7780 F   0  0  0  0  0  0
  -29.9834  -13.5670   20.3799 N   0  0  0  0  0  0
  -26.2866  -12.9186   20.3584 N   0  0  0  0  0  0
  -25.9284  -11.6353   20.6076 N   0  0  0  0  0  0
  -22.0284  -12.8134   22.0526 N   0  0  0  0  0  0
  -25.3295  -15.1528   20.3134 N   0  0  0  0  0  0
  -31.8726  -14.7453   20.1761 O   0  0  0  0  0  0
  -21.6552   -6.8762   21.4229 O   0  0  0  0  0  0
  -22.3370  -14.5324   20.6689 O   0  0  0  0  0  0
  -24.6243  -31.8593   23.2019 C   0  0  0  0  0  0
  -25.9083  -32.4787   23.8346 C   0  0  1  0  0  0
  -27.2350  -27.3205   20.1182 C   0  0  0  0  0  0
  -25.5892  -33.8590   24.2267 N   0  0  0  0  0  0
  -23.4190  -30.4786   21.5464 C   0  0  2  0  0  0
  -24.8656  -28.9279   20.1161 C   0  0  0  0  0  0
  -22.7464  -29.4602   22.4970 C   0  0  0  0  0  0
  -18.0271  -28.1380   22.8457 C   0  0  0  0  0  0
  -24.1488  -36.7294   23.2642 C   0  0  0  0  0  0
  -25.9581  -30.7870   21.3745 C   0  0  0  0  0  0
  -26.0330  -29.4138   20.7172 C   0  0  0  0  0  0
  -27.2186  -28.6224   20.7067 C   0  0  0  0  0  0
  -26.0409  -26.8770   19.5050 C   0  0  0  0  0  0
  -24.8715  -27.6646   19.5014 C   0  0  0  0  0  0
  -23.6323  -29.8070   20.1636 C   0  0  0  0  0  0
  -25.4119  -36.3100   24.0332 C   0  0  1  0  0  0
  -20.5867  -28.3667   23.1284 C   0  0  2  0  0  0
  -20.6776  -26.9397   22.5406 C   0  0  0  0  0  0
  -19.5767  -26.6371   21.5195 C   0  0  0  0  0  0
  -18.1935  -26.7919   22.1596 C   0  0  0  0  0  0
  -19.1527  -28.8845   23.2859 C   0  0  0  0  0  0
  -18.9456  -30.1444   23.8877 C   0  0  0  0  0  0
  -17.6464  -30.6587   24.0546 C   0  0  0  0  0  0
  -25.9052  -34.9466   23.5114 C   0  0  0  0  0  0
  -16.5349  -29.9084   23.6331 C   0  0  0  0  0  0
  -16.7262  -28.6503   23.0346 C   0  0  0  0  0  0
  -26.4458  -31.6610   25.0723 C   0  0  0  0  0  0
  -25.3682  -31.3752   26.1444 C   0  0  0  0  0  0
  -27.0304  -30.3043   24.6185 C   0  0  0  0  0  0
  -27.6023  -32.4340   25.7478 C   0  0  0  0  0  0
  -27.5589  -37.1801   24.8457 C   0  0  0  0  0  0
  -21.4182  -29.3020   22.3697 N   0  0  0  0  0  0
  -26.4295  -37.3793   23.9412 N   0  0  0  0  0  0
  -24.6855  -31.0589   22.0979 N   0  0  0  0  0  0
  -23.4185  -28.8151   23.3056 O   0  0  0  0  0  0
  -28.3764  -26.5030   20.1578 O   0  0  0  0  0  0
  -26.5638  -34.8926   22.4688 O   0  0  0  0  0  0
  -23.5408  -32.1377   23.7361 O   0  0  0  0  0  0
  -30.0636  -21.8249   21.4869 C   0  0  0  0  0  0
  -29.5540  -22.5974   20.3995 C   0  0  0  0  0  0
  -29.6691  -20.6269   19.1179 C   0  0  0  0  0  0
  -30.2282  -19.8612   20.1978 C   0  0  0  0  0  0
  -29.4996  -20.0416   17.7276 C   0  0  0  0  0  0
  -28.1099  -16.6857   19.4932 C   0  0  0  0  0  0
  -27.8319  -16.0930   22.0835 C   0  0  0  0  0  0
  -29.5134  -24.1779   20.4506 C   0  0  0  0  0  0
  -30.9123  -18.4463   19.9674 C   0  0  0  0  0  0
  -30.9613  -17.2760   21.0637 C   0  0  0  0  0  0
  -28.2440  -25.0313   20.0198 C   0  0  0  0  0  0
  -28.7185  -16.5192   20.8951 C   0  0  0  0  0  0
  -30.4109  -20.4982   21.3886 N   0  0  0  0  0  0
  -29.3474  -21.9590   19.2158 N   0  0  0  0  0  0
  -30.1212  -16.0190   20.8486 N   0  0  0  0  0  0
  -31.4528  -12.6551   19.0805 H   0  0  0  0  0  0
  -30.4182  -11.5315   19.9027 H   0  0  0  0  0  0
  -29.7586  -11.7771   17.4915 H   0  0  0  0  0  0
  -29.5713  -13.5014   17.6977 H   0  0  0  0  0  0
  -27.8824  -11.2864   18.8853 H   0  0  0  0  0  0
  -27.3408  -12.5611   17.8233 H   0  0  0  0  0  0
  -27.6039  -14.2151   19.5335 H   0  0  0  0  0  0
  -28.8146  -12.0729   21.3209 H   0  0  0  0  0  0
  -28.5235  -13.6446   21.9046 H   0  0  0  0  0  0
  -25.2695   -9.5437   22.4845 H   0  0  0  0  0  0
  -23.9878   -7.4435   22.7494 H   0  0  0  0  0  0
  -21.0789   -8.8659   19.8958 H   0  0  0  0  0  0
  -22.3682  -10.9542   19.6216 H   0  0  0  0  0  0
  -21.1904   -7.6061   23.9677 H   0  0  0  0  0  0
  -21.1547   -6.0479   25.9099 H   0  0  0  0  0  0
  -22.0597   -2.7526   23.2921 H   0  0  0  0  0  0
  -22.3818  -11.9819   22.5006 H   0  0  0  0  0  0
  -21.0929  -13.1258   22.2693 H   0  0  0  0  0  0
  -24.5238  -15.7683   20.3376 H   0  0  0  0  0  0
  -26.1715  -15.6116   19.9910 H   0  0  0  0  0  0
  -26.7143  -32.5450   23.1087 H   0  0  0  0  0  0
  -24.9980  -33.9734   25.0374 H   0  0  0  0  0  0
  -22.7112  -31.2980   21.4036 H   0  0  0  0  0  0
  -23.3769  -35.9606   23.3303 H   0  0  0  0  0  0
  -24.3569  -36.8918   22.2054 H   0  0  0  0  0  0
  -23.7216  -37.6487   23.6658 H   0  0  0  0  0  0
  -26.0922  -31.5495   20.6069 H   0  0  0  0  0  0
  -26.8376  -30.8335   22.0056 H   0  0  0  0  0  0
  -28.1150  -28.9928   21.1844 H   0  0  0  0  0  0
  -25.9918  -25.9063   19.0335 H   0  0  0  0  0  0
  -23.9738  -27.2857   19.0312 H   0  0  0  0  0  0
  -23.7482  -30.5806   19.4038 H   0  0  0  0  0  0
  -22.7523  -29.2339   19.8658 H   0  0  0  0  0  0
  -25.1308  -36.1956   25.0827 H   0  0  0  0  0  0
  -20.9931  -28.3242   24.1416 H   0  0  0  0  0  0
  -20.5662  -26.2282   23.3601 H   0  0  0  0  0  0
  -21.6652  -26.7432   22.1215 H   0  0  0  0  0  0
  -19.6946  -25.6278   21.1240 H   0  0  0  0  0  0
  -19.6737  -27.3165   20.6713 H   0  0  0  0  0  0
  -17.4210  -26.6621   21.4002 H   0  0  0  0  0  0
  -18.0356  -26.0071   22.9005 H   0  0  0  0  0  0
  -19.7939  -30.7247   24.2256 H   0  0  0  0  0  0
  -17.5028  -31.6271   24.5137 H   0  0  0  0  0  0
  -15.5354  -30.2991   23.7687 H   0  0  0  0  0  0
  -15.8642  -28.0828   22.7088 H   0  0  0  0  0  0
  -24.5829  -30.7145   25.7748 H   0  0  0  0  0  0
  -24.8896  -32.2926   26.4887 H   0  0  0  0  0  0
  -25.7976  -30.8885   27.0210 H   0  0  0  0  0  0
  -26.2890  -29.6810   24.1172 H   0  0  0  0  0  0
  -27.3965  -29.7281   25.4692 H   0  0  0  0  0  0
  -27.8768  -30.4345   23.9438 H   0  0  0  0  0  0
  -27.2643  -33.3632   26.2075 H   0  0  0  0  0  0
  -28.3809  -32.6922   25.0288 H   0  0  0  0  0  0
  -28.0716  -31.8455   26.5375 H   0  0  0  0  0  0
  -28.2604  -38.0105   24.7542 H   0  0  0  0  0  0
  -28.1094  -36.2643   24.6251 H   0  0  0  0  0  0
  -27.2298  -37.1407   25.8855 H   0  0  0  0  0  0
  -20.9381  -29.8727   21.6881 H   0  0  0  0  0  0
  -26.0191  -38.2868   24.1438 H   0  0  0  0  0  0
  -30.2875  -22.2992   22.4310 H   0  0  0  0  0  0
  -28.7230  -19.2787   17.7155 H   0  0  0  0  0  0
  -30.4306  -19.5955   17.3797 H   0  0  0  0  0  0
  -29.2163  -20.8053   17.0051 H   0  0  0  0  0  0
  -27.0316  -16.7850   19.5062 H   0  0  0  0  0  0
  -28.4204  -15.9249   18.7798 H   0  0  0  0  0  0
  -28.4505  -17.6189   19.0630 H   0  0  0  0  0  0
  -28.4149  -15.9621   22.9951 H   0  0  0  0  0  0
  -27.2481  -15.1998   21.9201 H   0  0  0  0  0  0
  -27.0924  -16.8657   22.3060 H   0  0  0  0  0  0
  -30.3623  -24.5304   19.8653 H   0  0  0  0  0  0
  -29.7494  -24.4635   21.4754 H   0  0  0  0  0  0
  -31.9470  -18.6985   19.7371 H   0  0  0  0  0  0
  -30.5662  -18.0111   19.0345 H   0  0  0  0  0  0
  -30.7568  -17.6982   22.0498 H   0  0  0  0  0  0
  -32.0070  -16.9791   21.1446 H   0  0  0  0  0  0
  -27.3901  -24.6937   20.6086 H   0  0  0  0  0  0
  -28.0160  -24.8019   18.9777 H   0  0  0  0  0  0
  -28.7485  -17.5716   21.1862 H   0  0  0  0  0  0
  1 25  1  0  0  0
  1 30  2  0  0  0
  1 85  1  0  0  0
  2  3  1  0  0  0
  2 25  1  0  0  0
  2 86  1  0  0  0
  2 87  1  0  0  0
  3  4  1  0  0  0
  3 88  1  0  0  0
  3 89  1  0  0  0
  4  5  1  0  0  0
  4 90  1  0  0  0
  4 91  1  0  0  0
  5  6  1  0  0  0
  5 26  1  0  0  0
  5 92  1  0  0  0
  6 25  1  0  0  0
  6 93  1  0  0  0
  6 94  1  0  0  0
  7  8  2  0  0  0
  7 26  1  0  0  0
  7 29  1  0  0  0
  8  9  1  0  0  0
  8 22  1  0  0  0
  9 10  1  0  0  0
  9 27  2  0  0  0
 10 11  2  0  0  0
 10 15  1  0  0  0
 11 12  1  0  0  0
 11 95  1  0  0  0
 12 13  2  0  0  0
 12 96  1  0  0  0
 13 14  1  0  0  0
 13 31  1  0  0  0
 14 15  2  0  0  0
 14 97  1  0  0  0
 15 98  1  0  0  0
 16 17  2  0  0  0
 16 21  1  0  0  0
 16 31  1  0  0  0
 17 18  1  0  0  0
 17 99  1  0  0  0
 18 19  2  0  0  0
 18100  1  0  0  0
 19 20  1  0  0  0
 19 24  1  0  0  0
 20 21  2  0  0  0
 20101  1  0  0  0
 21 23  1  0  0  0
 22 28  1  0  0  0
 22 32  2  0  0  0
 26 27  1  0  0  0
 28102  1  0  0  0
 28103  1  0  0  0
 29104  1  0  0  0
 29105  1  0  0  0
 33 34  1  0  0  0
 33 66  1  0  0  0
 33 70  2  0  0  0
 34 36  1  0  0  0
 34 59  1  0  0  0
 34106  1  0  0  0
 35 44  2  0  0  0
 35 45  1  0  0  0
 35 68  1  0  0  0
 36 56  1  0  0  0
 36107  1  0  0  0
 37 39  1  0  0  0
 37 47  1  0  0  0
 37 66  1  0  0  0
 37108  1  0  0  0
 38 43  2  0  0  0
 38 46  1  0  0  0
 38 47  1  0  0  0
 39 64  1  0  0  0
 39 67  2  0  0  0
 40 52  1  0  0  0
 40 53  2  0  0  0
 40 58  1  0  0  0
 41109  1  0  0  0
 41110  1  0  0  0
 41111  1  0  0  0
 41 48  1  0  0  0
 42 43  1  0  0  0
 42 66  1  0  0  0
 42112  1  0  0  0
 42113  1  0  0  0
 43 44  1  0  0  0
 44114  1  0  0  0
 45 46  2  0  0  0
 45115  1  0  0  0
 46116  1  0  0  0
 47117  1  0  0  0
 47118  1  0  0  0
 48 56  1  0  0  0
 48 65  1  0  0  0
 48119  1  0  0  0
 49 50  1  0  0  0
 49 53  1  0  0  0
 49 64  1  0  0  0
 49120  1  0  0  0
 50 51  1  0  0  0
 50121  1  0  0  0
 50122  1  0  0  0
 51 52  1  0  0  0
 51123  1  0  0  0
 51124  1  0  0  0
 52125  1  0  0  0
 52126  1  0  0  0
 53 54  1  0  0  0
 54 55  2  0  0  0
 54127  1  0  0  0
 55 57  1  0  0  0
 55128  1  0  0  0
 56 69  2  0  0  0
 57 58  2  0  0  0
 57129  1  0  0  0
 58130  1  0  0  0
 59 60  1  0  0  0
 59 61  1  0  0  0
 59 62  1  0  0  0
 60131  1  0  0  0
 60132  1  0  0  0
 60133  1  0  0  0
 61134  1  0  0  0
 61135  1  0  0  0
 61136  1  0  0  0
 62137  1  0  0  0
 62138  1  0  0  0
 62139  1  0  0  0
 63 65  1  0  0  0
 63140  1  0  0  0
 63141  1  0  0  0
 63142  1  0  0  0
 64143  1  0  0  0
 65144  1  0  0  0
 68 81  1  0  0  0
 71 72  2  0  0  0
 71 83  1  0  0  0
 71145  1  0  0  0
 72 78  1  0  0  0
 72 84  1  0  0  0
 73 74  1  0  0  0
 73 75  1  0  0  0
 73 84  2  0  0  0
 74 79  1  0  0  0
 74 83  2  0  0  0
 75146  1  0  0  0
 75147  1  0  0  0
 75148  1  0  0  0
 76149  1  0  0  0
 76150  1  0  0  0
 76151  1  0  0  0
 76 82  1  0  0  0
 77 82  1  0  0  0
 77152  1  0  0  0
 77153  1  0  0  0
 77154  1  0  0  0
 78 81  1  0  0  0
 78155  1  0  0  0
 78156  1  0  0  0
 79 80  1  0  0  0
 79157  1  0  0  0
 79158  1  0  0  0
 80 85  1  0  0  0
 80159  1  0  0  0
 80160  1  0  0  0
 81161  1  0  0  0
 81162  1  0  0  0
 82 85  1  0  0  0
 82163  1  0  0  0
M  ISO  4   1 100  68 101  81 101  85 100
M  END
> <chiral flag>
0

> <version>
0

> <s_m_source_file>
/data/baiqing/PycharmProjects/Reinvent-master-3.2/result/LINK_invent/BTK/process_docking_weight1_custom_sum_contain_oxygen_bond_distance_aromatic_linkinvent_7_9_3/rearranged_h_0053.sdf

> <i_m_source_file_index>
53

> <r_mmod_Potential_Energy-OPLS-2005>
452.277038574219

> <r_mmod_Stretch_Energy-OPLS-2005>
111.535682678223

> <r_mmod_Bend_Energy-OPLS-2005>
235.778518676758

> <r_mmod_Torsional_Energy-OPLS-2005>
292.233276367188

> <r_mmod_Improper_Torsional_Energy-OPLS-2005>
6.85183525085449

> <r_mmod_Van_der_Waal_Energy-OPLS-2005>
175.125503540039

> <r_mmod_Electrostatic_Energy-OPLS-2005>
-237.175003051758

> <r_mmod_Solvation_Energy-OPLS-2005>
-204.703750610352

> <b_mmod_Minimization_Converged-OPLS-2005>
0

> <r_mmod_RMS_Derivative-OPLS-2005>
2.96747541427612

$$$$
53
                    3D
 Structure written by MMmdl.
165173  0  0  1  0            999 V2000
  -30.7251  -14.4725   20.6281 C   0  0  0  0  0  0
  -30.4258  -12.3262   19.4309 C   0  0  0  0  0  0
  -29.4989  -12.5165   18.2123 C   0  0  0  0  0  0
  -28.0226  -12.3592   18.6225 C   0  0  0  0  0  0
  -27.6611  -13.2056   19.8706 C   0  0  2  0  0  0
  -28.6969  -12.9989   20.9970 C   0  0  0  0  0  0
  -25.2583  -13.8153   20.5647 C   0  0  0  0  0  0
  -24.1827  -13.0433   20.9125 C   0  0  0  0  0  0
  -24.6388  -11.6902   20.8710 C   0  0  0  0  0  0
  -23.9047  -10.4300   21.0401 C   0  0  0  0  0  0
  -24.3601   -9.4213   21.9180 C   0  0  0  0  0  0
  -23.6274   -8.2251   22.0762 C   0  0  0  0  0  0
  -22.4257   -8.0279   21.3551 C   0  0  0  0  0  0
  -21.9879   -9.0261   20.4660 C   0  0  0  0  0  0
  -22.7212  -10.2138   20.3061 C   0  0  0  0  0  0
  -21.6853   -6.0717   22.5279 C   0  0  0  0  0  0
  -21.4028   -6.5626   23.8211 C   0  0  0  0  0  0
  -21.3664   -5.6780   24.9175 C   0  0  0  0  0  0
  -21.6040   -4.3041   24.7225 C   0  0  0  0  0  0
  -21.8823   -3.8127   23.4348 C   0  0  0  0  0  0
  -21.9197   -4.6945   22.3404 C   0  0  0  0  0  0
  -22.7857  -13.5244   21.1793 C   0  0  0  0  0  0
  -22.1658   -4.2131   21.0976 F   0  0  0  0  0  0
  -21.5625   -3.4529   25.7740 F   0  0  0  0  0  0
  -30.0340  -13.3072   20.4562 N   0  0  0  0  0  0
  -26.3015  -12.9315   20.3320 N   0  0  0  0  0  0
  -25.9307  -11.6484   20.5733 N   0  0  0  0  0  0
  -22.0504  -12.8277   22.0384 N   0  0  0  0  0  0
  -25.4339  -15.1872   20.4098 N   0  0  0  0  0  0
  -31.8003  -14.6905   20.0651 O   0  0  0  0  0  0
  -21.6627   -6.8860   21.4246 O   0  0  0  0  0  0
  -22.3547  -14.5559   20.6659 O   0  0  0  0  0  0
  -24.6153  -31.8685   23.2099 C   0  0  0  0  0  0
  -25.9042  -32.4831   23.8401 C   0  0  1  0  0  0
  -27.2364  -27.4376   20.0966 C   0  0  0  0  0  0
  -25.5895  -33.8628   24.2335 N   0  0  0  0  0  0
  -23.4041  -30.4907   21.5505 C   0  0  2  0  0  0
  -24.8527  -28.9562   20.1145 C   0  0  0  0  0  0
  -22.7420  -29.4661   22.5001 C   0  0  0  0  0  0
  -18.0276  -28.1393   22.8503 C   0  0  0  0  0  0
  -24.1477  -36.7310   23.2636 C   0  0  0  0  0  0
  -25.9320  -30.8352   21.3617 C   0  0  0  0  0  0
  -26.0121  -29.4674   20.7132 C   0  0  0  0  0  0
  -27.2096  -28.7141   20.7059 C   0  0  0  0  0  0
  -26.0659  -26.9414   19.4886 C   0  0  0  0  0  0
  -24.8747  -27.6918   19.4995 C   0  0  0  0  0  0
  -23.6129  -29.8220   20.1649 C   0  0  0  0  0  0
  -25.4099  -36.3114   24.0345 C   0  0  1  0  0  0
  -20.5868  -28.3678   23.1337 C   0  0  2  0  0  0
  -20.6758  -26.9408   22.5444 C   0  0  0  0  0  0
  -19.5733  -26.6396   21.5236 C   0  0  0  0  0  0
  -18.1913  -26.7944   22.1636 C   0  0  0  0  0  0
  -19.1525  -28.8849   23.2914 C   0  0  0  0  0  0
  -18.9455  -30.1458   23.8926 C   0  0  0  0  0  0
  -17.6450  -30.6591   24.0583 C   0  0  0  0  0  0
  -25.9031  -34.9482   23.5132 C   0  0  0  0  0  0
  -16.5347  -29.9098   23.6327 C   0  0  0  0  0  0
  -16.7268  -28.6520   23.0351 C   0  0  0  0  0  0
  -26.4474  -31.6610   25.0726 C   0  0  0  0  0  0
  -25.3749  -31.3748   26.1495 C   0  0  0  0  0  0
  -27.0274  -30.3043   24.6087 C   0  0  0  0  0  0
  -27.6071  -32.4319   25.7467 C   0  0  0  0  0  0
  -27.5583  -37.1795   24.8464 C   0  0  0  0  0  0
  -21.4144  -29.3041   22.3739 N   0  0  0  0  0  0
  -26.4280  -37.3800   23.9424 N   0  0  0  0  0  0
  -24.6683  -31.0781   22.0999 N   0  0  0  0  0  0
  -23.4197  -28.8208   23.3044 O   0  0  0  0  0  0
  -28.3632  -26.6493   20.1050 O   0  0  0  0  0  0
  -26.5591  -34.8927   22.4696 O   0  0  0  0  0  0
  -23.5342  -32.1437   23.7490 O   0  0  0  0  0  0
  -28.4422  -23.4404   20.0111 C   0  0  0  0  0  0
  -30.2186  -23.9967   21.1153 C   0  0  0  0  0  0
  -29.3522  -22.3986   19.9528 C   0  0  0  0  0  0
  -30.6970  -17.1983   18.5494 C   0  0  0  0  0  0
  -30.2554  -15.3238   22.8240 C   0  0  0  0  0  0
  -31.8421  -19.7968   19.5354 C   0  0  0  0  0  0
  -29.2440  -21.0985   19.1695 C   0  0  0  0  0  0
  -29.7644  -16.8273   20.9383 C   0  0  0  0  0  0
  -29.3330  -19.7390   19.9452 C   0  0  0  0  0  0
  -28.3978  -25.7334   21.1739 C   0  0  0  0  0  0
  -30.7785  -17.6153   20.0421 C   0  0  2  0  0  0
  -30.4958  -22.7725   20.6593 N   0  0  0  0  0  0
  -29.0084  -24.4642   20.7711 N   0  0  0  0  0  0
  -30.1132  -15.4358   21.3671 N   0  0  0  0  0  0
  -30.6877  -19.1200   20.1855 N   0  3  1  0  0  0
  -31.4721  -12.4203   19.1336 H   0  0  0  0  0  0
  -30.3251  -11.3171   19.8312 H   0  0  0  0  0  0
  -29.7503  -11.7932   17.4357 H   0  0  0  0  0  0
  -29.6574  -13.5045   17.7769 H   0  0  0  0  0  0
  -27.8496  -11.3022   18.8301 H   0  0  0  0  0  0
  -27.3694  -12.6166   17.7890 H   0  0  0  0  0  0
  -27.7065  -14.2520   19.5671 H   0  0  0  0  0  0
  -28.6771  -11.9694   21.3551 H   0  0  0  0  0  0
  -28.4237  -13.6068   21.8590 H   0  0  0  0  0  0
  -25.2772   -9.5681   22.4728 H   0  0  0  0  0  0
  -23.9998   -7.4643   22.7482 H   0  0  0  0  0  0
  -21.0805   -8.8778   19.8979 H   0  0  0  0  0  0
  -22.3678  -10.9669   19.6153 H   0  0  0  0  0  0
  -21.2039   -7.6140   23.9702 H   0  0  0  0  0  0
  -21.1474   -6.0514   25.9069 H   0  0  0  0  0  0
  -22.0600   -2.7594   23.2847 H   0  0  0  0  0  0
  -22.4114  -11.9952   22.4802 H   0  0  0  0  0  0
  -21.1155  -13.1353   22.2633 H   0  0  0  0  0  0
  -24.6703  -15.8444   20.5221 H   0  0  0  0  0  0
  -26.2945  -15.6280   20.1131 H   0  0  0  0  0  0
  -26.7126  -32.5539   23.1174 H   0  0  0  0  0  0
  -25.0080  -33.9799   25.0503 H   0  0  0  0  0  0
  -22.6928  -31.3071   21.4123 H   0  0  0  0  0  0
  -23.3734  -35.9643   23.3305 H   0  0  0  0  0  0
  -24.3581  -36.8913   22.2048 H   0  0  0  0  0  0
  -23.7225  -37.6518   23.6640 H   0  0  0  0  0  0
  -26.0383  -31.5968   20.5874 H   0  0  0  0  0  0
  -26.8222  -30.8962   21.9746 H   0  0  0  0  0  0
  -28.1022  -29.1000   21.1783 H   0  0  0  0  0  0
  -26.0789  -25.9681   19.0192 H   0  0  0  0  0  0
  -23.9852  -27.2929   19.0318 H   0  0  0  0  0  0
  -23.7212  -30.5955   19.4043 H   0  0  0  0  0  0
  -22.7368  -29.2409   19.8708 H   0  0  0  0  0  0
  -25.1263  -36.1980   25.0836 H   0  0  0  0  0  0
  -20.9976  -28.3245   24.1446 H   0  0  0  0  0  0
  -20.5664  -26.2282   23.3632 H   0  0  0  0  0  0
  -21.6631  -26.7446   22.1236 H   0  0  0  0  0  0
  -19.6884  -25.6308   21.1252 H   0  0  0  0  0  0
  -19.6668  -27.3215   20.6772 H   0  0  0  0  0  0
  -17.4189  -26.6725   21.4020 H   0  0  0  0  0  0
  -18.0273  -26.0085   22.9022 H   0  0  0  0  0  0
  -19.7928  -30.7274   24.2298 H   0  0  0  0  0  0
  -17.5009  -31.6270   24.5185 H   0  0  0  0  0  0
  -15.5349  -30.3012   23.7628 H   0  0  0  0  0  0
  -15.8672  -28.0849   22.7046 H   0  0  0  0  0  0
  -24.5919  -30.7080   25.7862 H   0  0  0  0  0  0
  -24.8946  -32.2920   26.4914 H   0  0  0  0  0  0
  -25.8119  -30.8959   27.0267 H   0  0  0  0  0  0
  -26.2794  -29.6833   24.1142 H   0  0  0  0  0  0
  -27.4044  -29.7260   25.4535 H   0  0  0  0  0  0
  -27.8637  -30.4362   23.9216 H   0  0  0  0  0  0
  -27.2712  -33.3614   26.2076 H   0  0  0  0  0  0
  -28.3842  -32.6892   25.0254 H   0  0  0  0  0  0
  -28.0776  -31.8427   26.5346 H   0  0  0  0  0  0
  -28.2605  -38.0087   24.7518 H   0  0  0  0  0  0
  -28.1067  -36.2625   24.6255 H   0  0  0  0  0  0
  -27.2321  -37.1426   25.8872 H   0  0  0  0  0  0
  -20.9301  -29.8778   21.6974 H   0  0  0  0  0  0
  -26.0170  -38.2871   24.1449 H   0  0  0  0  0  0
  -27.4563  -23.5409   19.5785 H   0  0  0  0  0  0
  -30.9062  -24.5641   21.7269 H   0  0  0  0  0  0
  -30.5548  -16.1295   18.4148 H   0  0  0  0  0  0
  -31.6163  -17.4523   18.0212 H   0  0  0  0  0  0
  -29.8756  -17.6807   18.0229 H   0  0  0  0  0  0
  -29.3855  -15.7368   23.3357 H   0  0  0  0  0  0
  -31.1394  -15.8661   23.1618 H   0  0  0  0  0  0
  -30.3608  -14.2898   23.1600 H   0  0  0  0  0  0
  -31.9294  -20.8379   19.8339 H   0  0  0  0  0  0
  -31.7783  -19.7621   18.4481 H   0  0  0  0  0  0
  -32.7821  -19.3242   19.8222 H   0  0  0  0  0  0
  -29.9234  -21.1135   18.3185 H   0  0  0  0  0  0
  -28.2608  -21.0985   18.6967 H   0  0  0  0  0  0
  -28.8057  -16.7707   20.4212 H   0  0  0  0  0  0
  -29.5600  -17.4260   21.8261 H   0  0  0  0  0  0
  -28.7356  -19.0256   19.3801 H   0  0  0  0  0  0
  -28.8128  -19.8304   20.8992 H   0  0  0  0  0  0
  -28.9893  -26.1611   21.9863 H   0  0  0  0  0  0
  -27.4027  -25.5084   21.5645 H   0  0  0  0  0  0
  -31.7714  -17.3460   20.4051 H   0  0  0  0  0  0
  -30.8542  -19.2975   21.1667 H   0  0  0  0  0  0
  1 25  1  0  0  0
  1 30  2  0  0  0
  1 84  1  0  0  0
  2  3  1  0  0  0
  2 25  1  0  0  0
  2 86  1  0  0  0
  2 87  1  0  0  0
  3  4  1  0  0  0
  3 88  1  0  0  0
  3 89  1  0  0  0
  4  5  1  0  0  0
  4 90  1  0  0  0
  4 91  1  0  0  0
  5  6  1  0  0  0
  5 26  1  0  0  0
  5 92  1  0  0  0
  6 25  1  0  0  0
  6 93  1  0  0  0
  6 94  1  0  0  0
  7  8  2  0  0  0
  7 26  1  0  0  0
  7 29  1  0  0  0
  8  9  1  0  0  0
  8 22  1  0  0  0
  9 10  1  0  0  0
  9 27  2  0  0  0
 10 11  2  0  0  0
 10 15  1  0  0  0
 11 12  1  0  0  0
 11 95  1  0  0  0
 12 13  2  0  0  0
 12 96  1  0  0  0
 13 14  1  0  0  0
 13 31  1  0  0  0
 14 15  2  0  0  0
 14 97  1  0  0  0
 15 98  1  0  0  0
 16 17  2  0  0  0
 16 21  1  0  0  0
 16 31  1  0  0  0
 17 18  1  0  0  0
 17 99  1  0  0  0
 18 19  2  0  0  0
 18100  1  0  0  0
 19 20  1  0  0  0
 19 24  1  0  0  0
 20 21  2  0  0  0
 20101  1  0  0  0
 21 23  1  0  0  0
 22 28  1  0  0  0
 22 32  2  0  0  0
 26 27  1  0  0  0
 28102  1  0  0  0
 28103  1  0  0  0
 29104  1  0  0  0
 29105  1  0  0  0
 33 34  1  0  0  0
 33 66  1  0  0  0
 33 70  2  0  0  0
 34 36  1  0  0  0
 34 59  1  0  0  0
 34106  1  0  0  0
 35 44  2  0  0  0
 35 45  1  0  0  0
 35 68  1  0  0  0
 36 56  1  0  0  0
 36107  1  0  0  0
 37 39  1  0  0  0
 37 47  1  0  0  0
 37 66  1  0  0  0
 37108  1  0  0  0
 38 43  2  0  0  0
 38 46  1  0  0  0
 38 47  1  0  0  0
 39 64  1  0  0  0
 39 67  2  0  0  0
 40 52  1  0  0  0
 40 53  2  0  0  0
 40 58  1  0  0  0
 41109  1  0  0  0
 41110  1  0  0  0
 41111  1  0  0  0
 41 48  1  0  0  0
 42 43  1  0  0  0
 42 66  1  0  0  0
 42112  1  0  0  0
 42113  1  0  0  0
 43 44  1  0  0  0
 44114  1  0  0  0
 45 46  2  0  0  0
 45115  1  0  0  0
 46116  1  0  0  0
 47117  1  0  0  0
 47118  1  0  0  0
 48 56  1  0  0  0
 48 65  1  0  0  0
 48119  1  0  0  0
 49 50  1  0  0  0
 49 53  1  0  0  0
 49 64  1  0  0  0
 49120  1  0  0  0
 50 51  1  0  0  0
 50121  1  0  0  0
 50122  1  0  0  0
 51 52  1  0  0  0
 51123  1  0  0  0
 51124  1  0  0  0
 52125  1  0  0  0
 52126  1  0  0  0
 53 54  1  0  0  0
 54 55  2  0  0  0
 54127  1  0  0  0
 55 57  1  0  0  0
 55128  1  0  0  0
 56 69  2  0  0  0
 57 58  2  0  0  0
 57129  1  0  0  0
 58130  1  0  0  0
 59 60  1  0  0  0
 59 61  1  0  0  0
 59 62  1  0  0  0
 60131  1  0  0  0
 60132  1  0  0  0
 60133  1  0  0  0
 61134  1  0  0  0
 61135  1  0  0  0
 61136  1  0  0  0
 62137  1  0  0  0
 62138  1  0  0  0
 62139  1  0  0  0
 63 65  1  0  0  0
 63140  1  0  0  0
 63141  1  0  0  0
 63142  1  0  0  0
 64143  1  0  0  0
 65144  1  0  0  0
 68 80  1  0  0  0
 71 73  2  0  0  0
 71 83  1  0  0  0
 71145  1  0  0  0
 72 82  2  0  0  0
 72 83  1  0  0  0
 72146  1  0  0  0
 73 77  1  0  0  0
 73 82  1  0  0  0
 74147  1  0  0  0
 74148  1  0  0  0
 74149  1  0  0  0
 74 81  1  0  0  0
 75 84  1  0  0  0
 75150  1  0  0  0
 75151  1  0  0  0
 75152  1  0  0  0
 76153  1  0  0  0
 76154  1  0  0  0
 76155  1  0  0  0
 76 85  1  0  0  0
 77 79  1  0  0  0
 77156  1  0  0  0
 77157  1  0  0  0
 78 81  1  0  0  0
 78 84  1  0  0  0
 78158  1  0  0  0
 78159  1  0  0  0
 79 85  1  0  0  0
 79160  1  0  0  0
 79161  1  0  0  0
 80 83  1  0  0  0
 80162  1  0  0  0
 80163  1  0  0  0
 81 85  1  0  0  0
 81164  1  0  0  0
 85165  1  0  0  0
M  CHG  1  85   1
M  ISO  4   1 100  68 101  80 101  84 100
M  END
> <chiral flag>
0

> <version>
0

> <s_m_source_file>
/data/baiqing/PycharmProjects/Reinvent-master-3.2/result/LINK_invent/BTK/process_docking_weight1_custom_sum_contain_oxygen_bond_distance_aromatic_linkinvent_7_9_3/rearranged_h_0053.sdf

> <i_m_source_file_index>
54

> <r_mmod_Potential_Energy-OPLS-2005>
8.12886524200439

> <r_mmod_Stretch_Energy-OPLS-2005>
47.9394607543945

> <r_mmod_Bend_Energy-OPLS-2005>
130.823532104492

> <r_mmod_Torsional_Energy-OPLS-2005>
348.154083251953

> <r_mmod_Improper_Torsional_Energy-OPLS-2005>
4.34209060668945

> <r_mmod_Van_der_Waal_Energy-OPLS-2005>
133.075668334961

> <r_mmod_Electrostatic_Energy-OPLS-2005>
-251.895263671875

> <r_mmod_Solvation_Energy-OPLS-2005>
-416.988800048828

> <b_mmod_Minimization_Converged-OPLS-2005>
0

> <r_mmod_RMS_Derivative-OPLS-2005>
2.46942496299744

$$$$
54
                    3D
 Structure written by MMmdl.
155163  0  0  1  0            999 V2000
  -30.6387  -14.7160   20.5546 C   0  0  0  0  0  0
  -30.4377  -12.4625   19.4704 C   0  0  0  0  0  0
  -29.5121  -12.5327   18.2342 C   0  0  0  0  0  0
  -28.0352  -12.3572   18.6368 C   0  0  0  0  0  0
  -27.6490  -13.2276   19.8606 C   0  0  2  0  0  0
  -28.6881  -13.0848   20.9885 C   0  0  0  0  0  0
  -25.2545  -13.8197   20.5689 C   0  0  0  0  0  0
  -24.1815  -13.0438   20.9157 C   0  0  0  0  0  0
  -24.6404  -11.6915   20.8711 C   0  0  0  0  0  0
  -23.9077  -10.4289   21.0389 C   0  0  0  0  0  0
  -24.3630   -9.4209   21.9171 C   0  0  0  0  0  0
  -23.6307   -8.2244   22.0753 C   0  0  0  0  0  0
  -22.4284   -8.0279   21.3551 C   0  0  0  0  0  0
  -21.9925   -9.0247   20.4649 C   0  0  0  0  0  0
  -22.7247  -10.2127   20.3053 C   0  0  0  0  0  0
  -21.6860   -6.0733   22.5279 C   0  0  0  0  0  0
  -21.4010   -6.5637   23.8206 C   0  0  0  0  0  0
  -21.3662   -5.6789   24.9170 C   0  0  0  0  0  0
  -21.6057   -4.3055   24.7221 C   0  0  0  0  0  0
  -21.8820   -3.8146   23.4340 C   0  0  0  0  0  0
  -21.9195   -4.6961   22.3399 C   0  0  0  0  0  0
  -22.7842  -13.5219   21.1837 C   0  0  0  0  0  0
  -22.1662   -4.2150   21.0974 F   0  0  0  0  0  0
  -21.5638   -3.4538   25.7729 F   0  0  0  0  0  0
  -29.9942  -13.4947   20.4428 N   0  0  0  0  0  0
  -26.2969  -12.9390   20.3293 N   0  0  0  0  0  0
  -25.9333  -11.6532   20.5721 N   0  0  0  0  0  0
  -22.0514  -12.8201   22.0411 N   0  0  0  0  0  0
  -25.4285  -15.1922   20.4186 N   0  0  0  0  0  0
  -31.7653  -14.8406   20.0606 O   0  0  0  0  0  0
  -21.6652   -6.8876   21.4243 O   0  0  0  0  0  0
  -22.3516  -14.5529   20.6703 O   0  0  0  0  0  0
  -24.6308  -31.8568   23.1980 C   0  0  0  0  0  0
  -25.9126  -32.4769   23.8331 C   0  0  1  0  0  0
  -27.2222  -27.2700   20.1232 C   0  0  0  0  0  0
  -25.5921  -33.8573   24.2251 N   0  0  0  0  0  0
  -23.4273  -30.4796   21.5431 C   0  0  2  0  0  0
  -24.8758  -28.9321   20.1098 C   0  0  0  0  0  0
  -22.7500  -29.4610   22.4921 C   0  0  0  0  0  0
  -18.0283  -28.1391   22.8483 C   0  0  0  0  0  0
  -24.1488  -36.7285   23.2641 C   0  0  0  0  0  0
  -25.9751  -30.7723   21.3778 C   0  0  0  0  0  0
  -26.0487  -29.3975   20.7171 C   0  0  0  0  0  0
  -27.2254  -28.5804   20.7115 C   0  0  0  0  0  0
  -26.0231  -26.8763   19.4836 C   0  0  0  0  0  0
  -24.8685  -27.6796   19.4825 C   0  0  0  0  0  0
  -23.6447  -29.8151   20.1593 C   0  0  0  0  0  0
  -25.4119  -36.3086   24.0328 C   0  0  1  0  0  0
  -20.5890  -28.3700   23.1281 C   0  0  2  0  0  0
  -20.6776  -26.9418   22.5419 C   0  0  0  0  0  0
  -19.5754  -26.6385   21.5222 C   0  0  0  0  0  0
  -18.1929  -26.7930   22.1626 C   0  0  0  0  0  0
  -19.1542  -28.8861   23.2871 C   0  0  0  0  0  0
  -18.9460  -30.1458   23.8900 C   0  0  0  0  0  0
  -17.6468  -30.6594   24.0562 C   0  0  0  0  0  0
  -25.9067  -34.9455   23.5098 C   0  0  0  0  0  0
  -16.5354  -29.9093   23.6340 C   0  0  0  0  0  0
  -16.7273  -28.6508   23.0360 C   0  0  0  0  0  0
  -26.4491  -31.6600   25.0722 C   0  0  0  0  0  0
  -25.3686  -31.3761   26.1419 C   0  0  0  0  0  0
  -27.0333  -30.3017   24.6205 C   0  0  0  0  0  0
  -27.6046  -32.4347   25.7484 C   0  0  0  0  0  0
  -27.5584  -37.1788   24.8462 C   0  0  0  0  0  0
  -21.4209  -29.3041   22.3662 N   0  0  0  0  0  0
  -26.4294  -37.3785   23.9414 N   0  0  0  0  0  0
  -24.6970  -31.0528   22.0963 N   0  0  0  0  0  0
  -23.4203  -28.8146   23.3011 O   0  0  0  0  0  0
  -28.3153  -26.3709   20.1917 O   0  0  0  0  0  0
  -26.5646  -34.8927   22.4672 O   0  0  0  0  0  0
  -23.5455  -32.1402   23.7267 O   0  0  0  0  0  0
  -26.9438  -18.4160   19.6487 C   0  0  0  0  0  0
  -28.9363  -18.1253   20.2322 C   0  0  0  0  0  0
  -29.4070  -15.8461   22.3721 C   0  0  0  0  0  0
  -30.2142  -17.2919   20.5499 C   0  0  0  0  0  0
  -28.5559  -22.1954   20.1512 C   0  0  0  0  0  0
  -29.0759  -23.7135   20.3816 C   0  0  0  0  0  0
  -29.3971  -20.8303   20.4761 C   0  0  0  0  0  0
  -28.0424  -24.9034   20.0158 C   0  0  0  0  0  0
  -27.8528  -17.4316   19.8709 N   0  0  0  0  0  0
  -27.3840  -19.6517   19.8340 N   0  0  0  0  0  0
  -28.6850  -19.5067   20.2078 N   0  0  0  0  0  0
  -29.9557  -15.8461   21.0075 N   0  0  0  0  0  0
  -31.4767  -12.5924   19.1646 H   0  0  0  0  0  0
  -30.3953  -11.4714   19.9233 H   0  0  0  0  0  0
  -29.7943  -11.7692   17.5081 H   0  0  0  0  0  0
  -29.6409  -13.4933   17.7330 H   0  0  0  0  0  0
  -27.8799  -11.3034   18.8690 H   0  0  0  0  0  0
  -27.3839  -12.5821   17.7915 H   0  0  0  0  0  0
  -27.6639  -14.2660   19.5262 H   0  0  0  0  0  0
  -28.7309  -12.0510   21.3345 H   0  0  0  0  0  0
  -28.3708  -13.6482   21.8576 H   0  0  0  0  0  0
  -25.2773   -9.5690   22.4742 H   0  0  0  0  0  0
  -24.0022   -7.4638   22.7473 H   0  0  0  0  0  0
  -21.0864   -8.8758   19.8950 H   0  0  0  0  0  0
  -22.3699  -10.9665   19.6166 H   0  0  0  0  0  0
  -21.1992   -7.6143   23.9709 H   0  0  0  0  0  0
  -21.1491   -6.0520   25.9073 H   0  0  0  0  0  0
  -22.0603   -2.7611   23.2836 H   0  0  0  0  0  0
  -22.4140  -11.9856   22.4779 H   0  0  0  0  0  0
  -21.1142  -13.1229   22.2639 H   0  0  0  0  0  0
  -24.6698  -15.8506   20.5513 H   0  0  0  0  0  0
  -26.3093  -15.6402   20.1826 H   0  0  0  0  0  0
  -26.7182  -32.5416   23.1064 H   0  0  0  0  0  0
  -25.0030  -33.9721   25.0367 H   0  0  0  0  0  0
  -22.7235  -31.3018   21.3957 H   0  0  0  0  0  0
  -23.3772  -35.9594   23.3309 H   0  0  0  0  0  0
  -24.3575  -36.8916   22.2054 H   0  0  0  0  0  0
  -23.7217  -37.6475   23.6667 H   0  0  0  0  0  0
  -26.1136  -31.5342   20.6090 H   0  0  0  0  0  0
  -26.8529  -30.8208   22.0106 H   0  0  0  0  0  0
  -28.1225  -28.9315   21.2017 H   0  0  0  0  0  0
  -25.9376  -25.9203   18.9893 H   0  0  0  0  0  0
  -23.9711  -27.3173   19.0010 H   0  0  0  0  0  0
  -23.7642  -30.5923   19.4040 H   0  0  0  0  0  0
  -22.7648  -29.2441   19.8562 H   0  0  0  0  0  0
  -25.1293  -36.1947   25.0819 H   0  0  0  0  0  0
  -20.9965  -28.3272   24.1407 H   0  0  0  0  0  0
  -20.5696  -26.2292   23.3612 H   0  0  0  0  0  0
  -21.6636  -26.7451   22.1193 H   0  0  0  0  0  0
  -19.6925  -25.6297   21.1248 H   0  0  0  0  0  0
  -19.6709  -27.3193   20.6755 H   0  0  0  0  0  0
  -17.4197  -26.6681   21.4027 H   0  0  0  0  0  0
  -18.0325  -26.0075   22.9027 H   0  0  0  0  0  0
  -19.7939  -30.7258   24.2279 H   0  0  0  0  0  0
  -17.5025  -31.6278   24.5147 H   0  0  0  0  0  0
  -15.5357  -30.2993   23.7673 H   0  0  0  0  0  0
  -15.8665  -28.0830   22.7090 H   0  0  0  0  0  0
  -24.5848  -30.7142   25.7718 H   0  0  0  0  0  0
  -24.8878  -32.2932   26.4828 H   0  0  0  0  0  0
  -25.7950  -30.8921   27.0210 H   0  0  0  0  0  0
  -26.2920  -29.6765   24.1206 H   0  0  0  0  0  0
  -27.4003  -29.7282   25.4729 H   0  0  0  0  0  0
  -27.8803  -30.4306   23.9462 H   0  0  0  0  0  0
  -27.2665  -33.3661   26.2036 H   0  0  0  0  0  0
  -28.3845  -32.6894   25.0297 H   0  0  0  0  0  0
  -28.0712  -31.8487   26.5410 H   0  0  0  0  0  0
  -28.2586  -38.0102   24.7536 H   0  0  0  0  0  0
  -28.1102  -36.2632   24.6258 H   0  0  0  0  0  0
  -27.2301  -37.1396   25.8865 H   0  0  0  0  0  0
  -20.9392  -29.8760   21.6865 H   0  0  0  0  0  0
  -26.0190  -38.2864   24.1431 H   0  0  0  0  0  0
  -25.9274  -18.2180   19.3380 H   0  0  0  0  0  0
  -29.6993  -16.7347   22.9322 H   0  0  0  0  0  0
  -29.7527  -14.9948   22.9620 H   0  0  0  0  0  0
  -28.3168  -15.8297   22.3405 H   0  0  0  0  0  0
  -30.8093  -17.8245   21.2921 H   0  0  0  0  0  0
  -30.8221  -17.2767   19.6450 H   0  0  0  0  0  0
  -28.2642  -22.1355   19.1020 H   0  0  0  0  0  0
  -27.6204  -22.1250   20.7069 H   0  0  0  0  0  0
  -29.9861  -23.8602   19.7996 H   0  0  0  0  0  0
  -29.3721  -23.8269   21.4245 H   0  0  0  0  0  0
  -29.6888  -20.8322   21.5269 H   0  0  0  0  0  0
  -30.3267  -20.8279   19.9073 H   0  0  0  0  0  0
  -27.1340  -24.6805   20.5777 H   0  0  0  0  0  0
  -27.7869  -24.7611   18.9651 H   0  0  0  0  0  0
  1 25  1  0  0  0
  1 30  2  0  0  0
  1 82  1  0  0  0
  2  3  1  0  0  0
  2 25  1  0  0  0
  2 83  1  0  0  0
  2 84  1  0  0  0
  3  4  1  0  0  0
  3 85  1  0  0  0
  3 86  1  0  0  0
  4  5  1  0  0  0
  4 87  1  0  0  0
  4 88  1  0  0  0
  5  6  1  0  0  0
  5 26  1  0  0  0
  5 89  1  0  0  0
  6 25  1  0  0  0
  6 90  1  0  0  0
  6 91  1  0  0  0
  7  8  2  0  0  0
  7 26  1  0  0  0
  7 29  1  0  0  0
  8  9  1  0  0  0
  8 22  1  0  0  0
  9 10  1  0  0  0
  9 27  2  0  0  0
 10 11  2  0  0  0
 10 15  1  0  0  0
 11 12  1  0  0  0
 11 92  1  0  0  0
 12 13  2  0  0  0
 12 93  1  0  0  0
 13 14  1  0  0  0
 13 31  1  0  0  0
 14 15  2  0  0  0
 14 94  1  0  0  0
 15 95  1  0  0  0
 16 17  2  0  0  0
 16 21  1  0  0  0
 16 31  1  0  0  0
 17 18  1  0  0  0
 17 96  1  0  0  0
 18 19  2  0  0  0
 18 97  1  0  0  0
 19 20  1  0  0  0
 19 24  1  0  0  0
 20 21  2  0  0  0
 20 98  1  0  0  0
 21 23  1  0  0  0
 22 28  1  0  0  0
 22 32  2  0  0  0
 26 27  1  0  0  0
 28 99  1  0  0  0
 28100  1  0  0  0
 29101  1  0  0  0
 29102  1  0  0  0
 33 34  1  0  0  0
 33 66  1  0  0  0
 33 70  2  0  0  0
 34 36  1  0  0  0
 34 59  1  0  0  0
 34103  1  0  0  0
 35 44  2  0  0  0
 35 45  1  0  0  0
 35 68  1  0  0  0
 36 56  1  0  0  0
 36104  1  0  0  0
 37 39  1  0  0  0
 37 47  1  0  0  0
 37 66  1  0  0  0
 37105  1  0  0  0
 38 43  2  0  0  0
 38 46  1  0  0  0
 38 47  1  0  0  0
 39 64  1  0  0  0
 39 67  2  0  0  0
 40 52  1  0  0  0
 40 53  2  0  0  0
 40 58  1  0  0  0
 41106  1  0  0  0
 41107  1  0  0  0
 41108  1  0  0  0
 41 48  1  0  0  0
 42 43  1  0  0  0
 42 66  1  0  0  0
 42109  1  0  0  0
 42110  1  0  0  0
 43 44  1  0  0  0
 44111  1  0  0  0
 45 46  2  0  0  0
 45112  1  0  0  0
 46113  1  0  0  0
 47114  1  0  0  0
 47115  1  0  0  0
 48 56  1  0  0  0
 48 65  1  0  0  0
 48116  1  0  0  0
 49 50  1  0  0  0
 49 53  1  0  0  0
 49 64  1  0  0  0
 49117  1  0  0  0
 50 51  1  0  0  0
 50118  1  0  0  0
 50119  1  0  0  0
 51 52  1  0  0  0
 51120  1  0  0  0
 51121  1  0  0  0
 52122  1  0  0  0
 52123  1  0  0  0
 53 54  1  0  0  0
 54 55  2  0  0  0
 54124  1  0  0  0
 55 57  1  0  0  0
 55125  1  0  0  0
 56 69  2  0  0  0
 57 58  2  0  0  0
 57126  1  0  0  0
 58127  1  0  0  0
 59 60  1  0  0  0
 59 61  1  0  0  0
 59 62  1  0  0  0
 60128  1  0  0  0
 60129  1  0  0  0
 60130  1  0  0  0
 61131  1  0  0  0
 61132  1  0  0  0
 61133  1  0  0  0
 62134  1  0  0  0
 62135  1  0  0  0
 62136  1  0  0  0
 63 65  1  0  0  0
 63137  1  0  0  0
 63138  1  0  0  0
 63139  1  0  0  0
 64140  1  0  0  0
 65141  1  0  0  0
 68 78  1  0  0  0
 71 79  1  0  0  0
 71 80  2  0  0  0
 71142  1  0  0  0
 72 74  1  0  0  0
 72 79  2  0  0  0
 72 81  1  0  0  0
 73 82  1  0  0  0
 73143  1  0  0  0
 73144  1  0  0  0
 73145  1  0  0  0
 74 82  1  0  0  0
 74146  1  0  0  0
 74147  1  0  0  0
 75 76  1  0  0  0
 75 77  1  0  0  0
 75148  1  0  0  0
 75149  1  0  0  0
 76 78  1  0  0  0
 76150  1  0  0  0
 76151  1  0  0  0
 77 81  1  0  0  0
 77152  1  0  0  0
 77153  1  0  0  0
 78154  1  0  0  0
 78155  1  0  0  0
 80 81  1  0  0  0
M  ISO  4   1 100  68 101  78 101  82 100
M  END
> <chiral flag>
0

> <version>
0

> <s_m_source_file>
/data/baiqing/PycharmProjects/Reinvent-master-3.2/result/LINK_invent/BTK/process_docking_weight1_custom_sum_contain_oxygen_bond_distance_aromatic_linkinvent_7_9_3/rearranged_h_0053.sdf

> <i_m_source_file_index>
55

> <r_mmod_Potential_Energy-OPLS-2005>
228.787094116211

> <r_mmod_Stretch_Energy-OPLS-2005>
131.096252441406

> <r_mmod_Bend_Energy-OPLS-2005>
196.559524536133

> <r_mmod_Torsional_Energy-OPLS-2005>
252.018493652344

> <r_mmod_Improper_Torsional_Energy-OPLS-2005>
6.77660131454468

> <r_mmod_Van_der_Waal_Energy-OPLS-2005>
131.031951904297

> <r_mmod_Electrostatic_Energy-OPLS-2005>
-357.165191650391

> <r_mmod_Solvation_Energy-OPLS-2005>
-204.291046142578

> <b_mmod_Minimization_Converged-OPLS-2005>
0

> <r_mmod_RMS_Derivative-OPLS-2005>
1.61831629276276

$$$$
55
                    3D
 Structure written by MMmdl.
159167  0  0  1  0            999 V2000
  -30.6171  -14.7419   20.4241 C   0  0  0  0  0  0
  -30.4372  -12.4428   19.4660 C   0  0  0  0  0  0
  -29.5120  -12.4618   18.2301 C   0  0  0  0  0  0
  -28.0335  -12.3113   18.6461 C   0  0  0  0  0  0
  -27.6372  -13.2178   19.8436 C   0  0  2  0  0  0
  -28.6894  -13.1781   20.9717 C   0  0  0  0  0  0
  -25.2528  -13.8153   20.5714 C   0  0  0  0  0  0
  -24.1792  -13.0415   20.9199 C   0  0  0  0  0  0
  -24.6368  -11.6890   20.8750 C   0  0  0  0  0  0
  -23.9045  -10.4274   21.0404 C   0  0  0  0  0  0
  -24.3609   -9.4194   21.9178 C   0  0  0  0  0  0
  -23.6283   -8.2230   22.0753 C   0  0  0  0  0  0
  -22.4267   -8.0272   21.3542 C   0  0  0  0  0  0
  -21.9897   -9.0239   20.4640 C   0  0  0  0  0  0
  -22.7224  -10.2117   20.3048 C   0  0  0  0  0  0
  -21.6850   -6.0727   22.5271 C   0  0  0  0  0  0
  -21.4010   -6.5629   23.8204 C   0  0  0  0  0  0
  -21.3660   -5.6781   24.9168 C   0  0  0  0  0  0
  -21.6052   -4.3046   24.7220 C   0  0  0  0  0  0
  -21.8820   -3.8139   23.4338 C   0  0  0  0  0  0
  -21.9190   -4.6956   22.3395 C   0  0  0  0  0  0
  -22.7820  -13.5215   21.1856 C   0  0  0  0  0  0
  -22.1660   -4.2140   21.0973 F   0  0  0  0  0  0
  -21.5634   -3.4533   25.7734 F   0  0  0  0  0  0
  -29.9844  -13.5199   20.3717 N   0  0  0  0  0  0
  -26.2928  -12.9319   20.3297 N   0  0  0  0  0  0
  -25.9299  -11.6483   20.5776 N   0  0  0  0  0  0
  -22.0474  -12.8210   22.0422 N   0  0  0  0  0  0
  -25.4269  -15.1879   20.4163 N   0  0  0  0  0  0
  -31.8353  -14.8116   20.2352 O   0  0  0  0  0  0
  -21.6634   -6.8868   21.4232 O   0  0  0  0  0  0
  -22.3505  -14.5520   20.6704 O   0  0  0  0  0  0
  -24.6291  -31.8572   23.2009 C   0  0  0  0  0  0
  -25.9128  -32.4768   23.8344 C   0  0  1  0  0  0
  -27.2162  -27.2790   20.1321 C   0  0  0  0  0  0
  -25.5933  -33.8569   24.2269 N   0  0  0  0  0  0
  -23.4248  -30.4814   21.5439 C   0  0  2  0  0  0
  -24.8724  -28.9338   20.1102 C   0  0  0  0  0  0
  -22.7488  -29.4616   22.4918 C   0  0  0  0  0  0
  -18.0290  -28.1386   22.8482 C   0  0  0  0  0  0
  -24.1490  -36.7293   23.2638 C   0  0  0  0  0  0
  -25.9703  -30.7764   21.3796 C   0  0  0  0  0  0
  -26.0434  -29.4002   20.7223 C   0  0  0  0  0  0
  -27.2202  -28.5854   20.7225 C   0  0  0  0  0  0
  -26.0304  -26.8892   19.4712 C   0  0  0  0  0  0
  -24.8705  -27.6858   19.4716 C   0  0  0  0  0  0
  -23.6423  -29.8182   20.1590 C   0  0  0  0  0  0
  -25.4114  -36.3080   24.0327 C   0  0  1  0  0  0
  -20.5891  -28.3695   23.1273 C   0  0  2  0  0  0
  -20.6782  -26.9417   22.5404 C   0  0  0  0  0  0
  -19.5758  -26.6384   21.5210 C   0  0  0  0  0  0
  -18.1939  -26.7927   22.1622 C   0  0  0  0  0  0
  -19.1542  -28.8857   23.2873 C   0  0  0  0  0  0
  -18.9466  -30.1457   23.8892 C   0  0  0  0  0  0
  -17.6466  -30.6587   24.0563 C   0  0  0  0  0  0
  -25.9052  -34.9446   23.5101 C   0  0  0  0  0  0
  -16.5356  -29.9086   23.6331 C   0  0  0  0  0  0
  -16.7277  -28.6504   23.0350 C   0  0  0  0  0  0
  -26.4497  -31.6584   25.0726 C   0  0  0  0  0  0
  -25.3720  -31.3731   26.1446 C   0  0  0  0  0  0
  -27.0344  -30.2999   24.6209 C   0  0  0  0  0  0
  -27.6048  -32.4318   25.7503 C   0  0  0  0  0  0
  -27.5578  -37.1803   24.8462 C   0  0  0  0  0  0
  -21.4198  -29.3044   22.3659 N   0  0  0  0  0  0
  -26.4291  -37.3775   23.9406 N   0  0  0  0  0  0
  -24.6936  -31.0556   22.0978 N   0  0  0  0  0  0
  -23.4199  -28.8153   23.3009 O   0  0  0  0  0  0
  -28.3018  -26.3775   20.1744 O   0  0  0  0  0  0
  -26.5625  -34.8916   22.4669 O   0  0  0  0  0  0
  -23.5442  -32.1391   23.7315 O   0  0  0  0  0  0
  -28.8102  -19.6057   21.0780 C   0  0  0  0  0  0
  -29.8372  -18.6291   20.7701 C   0  0  0  0  0  0
  -29.2020  -20.8609   20.6088 C   0  0  0  0  0  0
  -32.3450  -22.1099   20.3696 C   0  0  0  0  0  0
  -29.2785  -16.2697   19.0832 C   0  0  0  0  0  0
  -30.0553  -17.1297   21.2564 C   0  0  0  0  0  0
  -28.4653  -22.2555   20.7544 C   0  0  0  0  0  0
  -28.9680  -23.7082   20.2477 C   0  0  0  0  0  0
  -31.3620  -21.4960   19.3629 C   0  0  0  0  0  0
  -28.0090  -24.9618   20.5813 C   0  0  0  0  0  0
  -30.7962  -19.2692   20.1087 N   0  0  0  0  0  0
  -30.4296  -20.5886   20.0090 N   0  0  0  0  0  0
  -29.8399  -15.8986   20.3868 N   0  0  0  0  0  0
  -31.4762  -12.5740   19.1590 H   0  0  0  0  0  0
  -30.3899  -11.4769   19.9714 H   0  0  0  0  0  0
  -29.7868  -11.6553   17.5484 H   0  0  0  0  0  0
  -29.6549  -13.3837   17.6675 H   0  0  0  0  0  0
  -27.8811  -11.2656   18.9152 H   0  0  0  0  0  0
  -27.3805  -12.5023   17.7935 H   0  0  0  0  0  0
  -27.6072  -14.2300   19.4528 H   0  0  0  0  0  0
  -28.7287  -12.1917   21.4366 H   0  0  0  0  0  0
  -28.4313  -13.8860   21.7606 H   0  0  0  0  0  0
  -25.2759   -9.5667   22.4745 H   0  0  0  0  0  0
  -23.9989   -7.4621   22.7477 H   0  0  0  0  0  0
  -21.0829   -8.8758   19.8947 H   0  0  0  0  0  0
  -22.3686  -10.9655   19.6156 H   0  0  0  0  0  0
  -21.2000   -7.6136   23.9702 H   0  0  0  0  0  0
  -21.1487   -6.0515   25.9069 H   0  0  0  0  0  0
  -22.0602   -2.7602   23.2842 H   0  0  0  0  0  0
  -22.4099  -11.9864   22.4782 H   0  0  0  0  0  0
  -21.1092  -13.1234   22.2644 H   0  0  0  0  0  0
  -24.6690  -15.8510   20.5355 H   0  0  0  0  0  0
  -26.2960  -15.6244   20.1360 H   0  0  0  0  0  0
  -26.7192  -32.5428   23.1086 H   0  0  0  0  0  0
  -25.0070  -33.9708   25.0407 H   0  0  0  0  0  0
  -22.7202  -31.3032   21.3996 H   0  0  0  0  0  0
  -23.3752  -35.9625   23.3296 H   0  0  0  0  0  0
  -24.3583  -36.8920   22.2054 H   0  0  0  0  0  0
  -23.7244  -37.6492   23.6666 H   0  0  0  0  0  0
  -26.1068  -31.5380   20.6105 H   0  0  0  0  0  0
  -26.8480  -30.8247   22.0125 H   0  0  0  0  0  0
  -28.1149  -28.9375   21.2162 H   0  0  0  0  0  0
  -25.9803  -25.9480   18.9449 H   0  0  0  0  0  0
  -23.9799  -27.3292   18.9730 H   0  0  0  0  0  0
  -23.7658  -30.5959   19.4041 H   0  0  0  0  0  0
  -22.7615  -29.2509   19.8533 H   0  0  0  0  0  0
  -25.1296  -36.1929   25.0821 H   0  0  0  0  0  0
  -20.9986  -28.3278   24.1392 H   0  0  0  0  0  0
  -20.5689  -26.2309   23.3609 H   0  0  0  0  0  0
  -21.6651  -26.7449   22.1198 H   0  0  0  0  0  0
  -19.6924  -25.6293   21.1246 H   0  0  0  0  0  0
  -19.6695  -27.3191   20.6737 H   0  0  0  0  0  0
  -17.4208  -26.6667   21.4029 H   0  0  0  0  0  0
  -18.0343  -26.0071   22.9022 H   0  0  0  0  0  0
  -19.7942  -30.7271   24.2264 H   0  0  0  0  0  0
  -17.5022  -31.6268   24.5164 H   0  0  0  0  0  0
  -15.5358  -30.2989   23.7654 H   0  0  0  0  0  0
  -15.8677  -28.0824   22.7067 H   0  0  0  0  0  0
  -24.5897  -30.7081   25.7770 H   0  0  0  0  0  0
  -24.8913  -32.2904   26.4855 H   0  0  0  0  0  0
  -25.8036  -30.8916   27.0230 H   0  0  0  0  0  0
  -26.2931  -29.6744   24.1227 H   0  0  0  0  0  0
  -27.4015  -29.7263   25.4728 H   0  0  0  0  0  0
  -27.8810  -30.4266   23.9460 H   0  0  0  0  0  0
  -27.2656  -33.3619   26.2071 H   0  0  0  0  0  0
  -28.3870  -32.6874   25.0345 H   0  0  0  0  0  0
  -28.0704  -31.8451   26.5431 H   0  0  0  0  0  0
  -28.2593  -38.0102   24.7514 H   0  0  0  0  0  0
  -28.1081  -36.2638   24.6286 H   0  0  0  0  0  0
  -27.2301  -37.1445   25.8864 H   0  0  0  0  0  0
  -20.9380  -29.8771   21.6866 H   0  0  0  0  0  0
  -26.0174  -38.2849   24.1402 H   0  0  0  0  0  0
  -27.9074  -19.4140   21.6411 H   0  0  0  0  0  0
  -33.0239  -22.8038   19.8727 H   0  0  0  0  0  0
  -32.9490  -21.3387   20.8486 H   0  0  0  0  0  0
  -31.8263  -22.6563   21.1566 H   0  0  0  0  0  0
  -28.2972  -16.7291   19.2039 H   0  0  0  0  0  0
  -29.1641  -15.4274   18.4030 H   0  0  0  0  0  0
  -29.9292  -16.9832   18.5757 H   0  0  0  0  0  0
  -29.4185  -16.9711   22.1272 H   0  0  0  0  0  0
  -31.0660  -17.0578   21.6599 H   0  0  0  0  0  0
  -28.2634  -22.3741   21.8188 H   0  0  0  0  0  0
  -27.4758  -22.1189   20.3189 H   0  0  0  0  0  0
  -29.1002  -23.6746   19.1668 H   0  0  0  0  0  0
  -29.9496  -23.9150   20.6708 H   0  0  0  0  0  0
  -31.9141  -20.9485   18.5977 H   0  0  0  0  0  0
  -30.8071  -22.2663   18.8320 H   0  0  0  0  0  0
  -27.9012  -24.9979   21.6658 H   0  0  0  0  0  0
  -27.0241  -24.6609   20.2332 H   0  0  0  0  0  0
  1 25  1  0  0  0
  1 30  2  0  0  0
  1 83  1  0  0  0
  2  3  1  0  0  0
  2 25  1  0  0  0
  2 84  1  0  0  0
  2 85  1  0  0  0
  3  4  1  0  0  0
  3 86  1  0  0  0
  3 87  1  0  0  0
  4  5  1  0  0  0
  4 88  1  0  0  0
  4 89  1  0  0  0
  5  6  1  0  0  0
  5 26  1  0  0  0
  5 90  1  0  0  0
  6 25  1  0  0  0
  6 91  1  0  0  0
  6 92  1  0  0  0
  7  8  2  0  0  0
  7 26  1  0  0  0
  7 29  1  0  0  0
  8  9  1  0  0  0
  8 22  1  0  0  0
  9 10  1  0  0  0
  9 27  2  0  0  0
 10 11  2  0  0  0
 10 15  1  0  0  0
 11 12  1  0  0  0
 11 93  1  0  0  0
 12 13  2  0  0  0
 12 94  1  0  0  0
 13 14  1  0  0  0
 13 31  1  0  0  0
 14 15  2  0  0  0
 14 95  1  0  0  0
 15 96  1  0  0  0
 16 17  2  0  0  0
 16 21  1  0  0  0
 16 31  1  0  0  0
 17 18  1  0  0  0
 17 97  1  0  0  0
 18 19  2  0  0  0
 18 98  1  0  0  0
 19 20  1  0  0  0
 19 24  1  0  0  0
 20 21  2  0  0  0
 20 99  1  0  0  0
 21 23  1  0  0  0
 22 28  1  0  0  0
 22 32  2  0  0  0
 26 27  1  0  0  0
 28100  1  0  0  0
 28101  1  0  0  0
 29102  1  0  0  0
 29103  1  0  0  0
 33 34  1  0  0  0
 33 66  1  0  0  0
 33 70  2  0  0  0
 34 36  1  0  0  0
 34 59  1  0  0  0
 34104  1  0  0  0
 35 44  2  0  0  0
 35 45  1  0  0  0
 35 68  1  0  0  0
 36 56  1  0  0  0
 36105  1  0  0  0
 37 39  1  0  0  0
 37 47  1  0  0  0
 37 66  1  0  0  0
 37106  1  0  0  0
 38 43  2  0  0  0
 38 46  1  0  0  0
 38 47  1  0  0  0
 39 64  1  0  0  0
 39 67  2  0  0  0
 40 52  1  0  0  0
 40 53  2  0  0  0
 40 58  1  0  0  0
 41107  1  0  0  0
 41108  1  0  0  0
 41109  1  0  0  0
 41 48  1  0  0  0
 42 43  1  0  0  0
 42 66  1  0  0  0
 42110  1  0  0  0
 42111  1  0  0  0
 43 44  1  0  0  0
 44112  1  0  0  0
 45 46  2  0  0  0
 45113  1  0  0  0
 46114  1  0  0  0
 47115  1  0  0  0
 47116  1  0  0  0
 48 56  1  0  0  0
 48 65  1  0  0  0
 48117  1  0  0  0
 49 50  1  0  0  0
 49 53  1  0  0  0
 49 64  1  0  0  0
 49118  1  0  0  0
 50 51  1  0  0  0
 50119  1  0  0  0
 50120  1  0  0  0
 51 52  1  0  0  0
 51121  1  0  0  0
 51122  1  0  0  0
 52123  1  0  0  0
 52124  1  0  0  0
 53 54  1  0  0  0
 54 55  2  0  0  0
 54125  1  0  0  0
 55 57  1  0  0  0
 55126  1  0  0  0
 56 69  2  0  0  0
 57 58  2  0  0  0
 57127  1  0  0  0
 58128  1  0  0  0
 59 60  1  0  0  0
 59 61  1  0  0  0
 59 62  1  0  0  0
 60129  1  0  0  0
 60130  1  0  0  0
 60131  1  0  0  0
 61132  1  0  0  0
 61133  1  0  0  0
 61134  1  0  0  0
 62135  1  0  0  0
 62136  1  0  0  0
 62137  1  0  0  0
 63 65  1  0  0  0
 63138  1  0  0  0
 63139  1  0  0  0
 63140  1  0  0  0
 64141  1  0  0  0
 65142  1  0  0  0
 68 80  1  0  0  0
 71 72  1  0  0  0
 71 73  2  0  0  0
 71143  1  0  0  0
 72 76  1  0  0  0
 72 81  2  0  0  0
 73 77  1  0  0  0
 73 82  1  0  0  0
 74 79  1  0  0  0
 74144  1  0  0  0
 74145  1  0  0  0
 74146  1  0  0  0
 75 83  1  0  0  0
 75147  1  0  0  0
 75148  1  0  0  0
 75149  1  0  0  0
 76 83  1  0  0  0
 76150  1  0  0  0
 76151  1  0  0  0
 77 78  1  0  0  0
 77152  1  0  0  0
 77153  1  0  0  0
 78 80  1  0  0  0
 78154  1  0  0  0
 78155  1  0  0  0
 79 82  1  0  0  0
 79156  1  0  0  0
 79157  1  0  0  0
 80158  1  0  0  0
 80159  1  0  0  0
 81 82  1  0  0  0
M  ISO  4   1 100  68 101  80 101  83 100
M  END
> <chiral flag>
0

> <version>
0

> <s_m_source_file>
/data/baiqing/PycharmProjects/Reinvent-master-3.2/result/LINK_invent/BTK/process_docking_weight1_custom_sum_contain_oxygen_bond_distance_aromatic_linkinvent_7_9_3/rearranged_h_0053.sdf

> <i_m_source_file_index>
56

> <r_mmod_Potential_Energy-OPLS-2005>
229.146896362305

> <r_mmod_Stretch_Energy-OPLS-2005>
111.355842590332

> <r_mmod_Bend_Energy-OPLS-2005>
176.304672241211

> <r_mmod_Torsional_Energy-OPLS-2005>
316.046417236328

> <r_mmod_Improper_Torsional_Energy-OPLS-2005>
10.2475728988647

> <r_mmod_Van_der_Waal_Energy-OPLS-2005>
117.133659362793

> <r_mmod_Electrostatic_Energy-OPLS-2005>
-376.670928955078

> <r_mmod_Solvation_Energy-OPLS-2005>
-211.681503295898

> <b_mmod_Minimization_Converged-OPLS-2005>
0

> <r_mmod_RMS_Derivative-OPLS-2005>
1.08055710792542

$$$$
56
                    3D
 Structure written by MMmdl.
166174  0  0  1  0            999 V2000
  -30.7260  -14.4199   20.6384 C   0  0  0  0  0  0
  -30.4229  -12.3023   19.4022 C   0  0  0  0  0  0
  -29.4880  -12.5184   18.1958 C   0  0  0  0  0  0
  -28.0114  -12.3724   18.6126 C   0  0  0  0  0  0
  -27.6641  -13.2008   19.8777 C   0  0  2  0  0  0
  -28.7039  -12.9513   20.9924 C   0  0  0  0  0  0
  -25.2600  -13.8141   20.5668 C   0  0  0  0  0  0
  -24.1847  -13.0433   20.9180 C   0  0  0  0  0  0
  -24.6388  -11.6897   20.8730 C   0  0  0  0  0  0
  -23.9050  -10.4287   21.0405 C   0  0  0  0  0  0
  -24.3606   -9.4205   21.9185 C   0  0  0  0  0  0
  -23.6284   -8.2239   22.0755 C   0  0  0  0  0  0
  -22.4267   -8.0276   21.3543 C   0  0  0  0  0  0
  -21.9899   -9.0249   20.4647 C   0  0  0  0  0  0
  -22.7222  -10.2130   20.3057 C   0  0  0  0  0  0
  -21.6852   -6.0731   22.5278 C   0  0  0  0  0  0
  -21.4014   -6.5637   23.8211 C   0  0  0  0  0  0
  -21.3659   -5.6790   24.9174 C   0  0  0  0  0  0
  -21.6044   -4.3053   24.7225 C   0  0  0  0  0  0
  -21.8820   -3.8143   23.4347 C   0  0  0  0  0  0
  -21.9192   -4.6959   22.3402 C   0  0  0  0  0  0
  -22.7873  -13.5245   21.1840 C   0  0  0  0  0  0
  -22.1662   -4.2145   21.0981 F   0  0  0  0  0  0
  -21.5629   -3.4538   25.7739 F   0  0  0  0  0  0
  -30.0396  -13.2614   20.4489 N   0  0  0  0  0  0
  -26.3033  -12.9302   20.3365 N   0  0  0  0  0  0
  -25.9312  -11.6467   20.5758 N   0  0  0  0  0  0
  -22.0503  -12.8243   22.0392 N   0  0  0  0  0  0
  -25.4342  -15.1852   20.4040 N   0  0  0  0  0  0
  -31.8029  -14.6678   20.0886 O   0  0  0  0  0  0
  -21.6634   -6.8870   21.4238 O   0  0  0  0  0  0
  -22.3568  -14.5557   20.6689 O   0  0  0  0  0  0
  -24.6132  -31.8693   23.2100 C   0  0  0  0  0  0
  -25.9031  -32.4833   23.8391 C   0  0  1  0  0  0
  -27.2424  -27.4537   20.0762 C   0  0  0  0  0  0
  -25.5902  -33.8628   24.2334 N   0  0  0  0  0  0
  -23.3997  -30.4916   21.5503 C   0  0  2  0  0  0
  -24.8473  -28.9561   20.1152 C   0  0  0  0  0  0
  -22.7392  -29.4668   22.4999 C   0  0  0  0  0  0
  -18.0269  -28.1384   22.8503 C   0  0  0  0  0  0
  -24.1489  -36.7300   23.2637 C   0  0  0  0  0  0
  -25.9266  -30.8358   21.3633 C   0  0  0  0  0  0
  -26.0042  -29.4690   20.7145 C   0  0  0  0  0  0
  -27.2010  -28.7179   20.7057 C   0  0  0  0  0  0
  -26.0632  -26.9418   19.4919 C   0  0  0  0  0  0
  -24.8689  -27.6880   19.5080 C   0  0  0  0  0  0
  -23.6071  -29.8207   20.1656 C   0  0  0  0  0  0
  -25.4113  -36.3112   24.0342 C   0  0  1  0  0  0
  -20.5859  -28.3658   23.1331 C   0  0  2  0  0  0
  -20.6764  -26.9396   22.5425 C   0  0  0  0  0  0
  -19.5744  -26.6391   21.5218 C   0  0  0  0  0  0
  -18.1922  -26.7933   22.1629 C   0  0  0  0  0  0
  -19.1517  -28.8834   23.2917 C   0  0  0  0  0  0
  -18.9451  -30.1450   23.8916 C   0  0  0  0  0  0
  -17.6454  -30.6591   24.0568 C   0  0  0  0  0  0
  -25.9041  -34.9477   23.5131 C   0  0  0  0  0  0
  -16.5342  -29.9095   23.6339 C   0  0  0  0  0  0
  -16.7263  -28.6510   23.0359 C   0  0  0  0  0  0
  -26.4458  -31.6605   25.0712 C   0  0  0  0  0  0
  -25.3733  -31.3710   26.1465 C   0  0  0  0  0  0
  -27.0286  -30.3054   24.6076 C   0  0  0  0  0  0
  -27.6045  -32.4306   25.7475 C   0  0  0  0  0  0
  -27.5573  -37.1819   24.8476 C   0  0  0  0  0  0
  -21.4120  -29.3027   22.3731 N   0  0  0  0  0  0
  -26.4302  -37.3792   23.9396 N   0  0  0  0  0  0
  -24.6643  -31.0795   22.0999 N   0  0  0  0  0  0
  -23.4164  -28.8226   23.3048 O   0  0  0  0  0  0
  -28.4188  -26.7368   20.0720 O   0  0  0  0  0  0
  -26.5592  -34.8918   22.4685 O   0  0  0  0  0  0
  -23.5331  -32.1437   23.7507 O   0  0  0  0  0  0
  -29.8595  -23.9859   17.9614 C   0  0  0  0  0  0
  -29.0024  -24.6113   18.8724 C   0  0  0  0  0  0
  -29.9526  -22.5850   18.0047 C   0  0  0  0  0  0
  -28.4398  -22.5503   19.7263 C   0  0  0  0  0  0
  -27.1073  -19.0678   19.3292 C   0  0  0  0  0  0
  -28.8134  -26.1313   18.8328 C   0  0  0  0  0  0
  -27.5324  -21.7352   20.6375 C   0  0  0  0  0  0
  -30.2182  -17.8189   21.0031 C   0  0  0  0  0  0
  -30.6571  -16.6115   21.8713 C   0  0  0  0  0  0
  -28.1116  -20.4010   21.1911 C   0  0  0  0  0  0
  -28.6900  -17.9990   20.8776 C   0  0  0  0  0  0
  -30.8779  -21.8074   17.0626 C   0  0  0  0  0  0
  -28.2981  -23.8761   19.7598 N   0  0  0  0  0  0
  -29.2099  -21.8715   18.8850 N   0  0  0  0  0  0
  -30.1236  -15.3141   21.4383 N   0  0  0  0  0  0
  -28.2830  -19.2769   20.2129 N   0  3  1  0  0  0
  -31.7186  -21.0571   17.7784 F   0  0  0  0  0  0
  -30.1523  -21.0081   16.2782 F   0  0  0  0  0  0
  -31.5961  -22.6232   16.2875 F   0  0  0  0  0  0
  -31.4652  -12.4106   19.0973 H   0  0  0  0  0  0
  -30.3301  -11.2827   19.7798 H   0  0  0  0  0  0
  -29.7244  -11.8061   17.4041 H   0  0  0  0  0  0
  -29.6544  -13.5108   17.7742 H   0  0  0  0  0  0
  -27.8234  -11.3146   18.8010 H   0  0  0  0  0  0
  -27.3567  -12.6537   17.7872 H   0  0  0  0  0  0
  -27.7192  -14.2533   19.5989 H   0  0  0  0  0  0
  -28.6758  -11.9060   21.3047 H   0  0  0  0  0  0
  -28.4539  -13.5204   21.8884 H   0  0  0  0  0  0
  -25.2753   -9.5682   22.4755 H   0  0  0  0  0  0
  -23.9996   -7.4631   22.7474 H   0  0  0  0  0  0
  -21.0829   -8.8763   19.8954 H   0  0  0  0  0  0
  -22.3678  -10.9668   19.6163 H   0  0  0  0  0  0
  -21.2005   -7.6146   23.9713 H   0  0  0  0  0  0
  -21.1482   -6.0522   25.9077 H   0  0  0  0  0  0
  -22.0599   -2.7607   23.2849 H   0  0  0  0  0  0
  -22.4105  -11.9895   22.4774 H   0  0  0  0  0  0
  -21.1128  -13.1284   22.2599 H   0  0  0  0  0  0
  -24.6610  -15.8362   20.4871 H   0  0  0  0  0  0
  -26.2735  -15.6040   20.0288 H   0  0  0  0  0  0
  -26.7101  -32.5544   23.1155 H   0  0  0  0  0  0
  -25.0093  -33.9800   25.0507 H   0  0  0  0  0  0
  -22.6888  -31.3093   21.4121 H   0  0  0  0  0  0
  -23.3749  -35.9644   23.3362 H   0  0  0  0  0  0
  -24.3568  -36.8845   22.2037 H   0  0  0  0  0  0
  -23.7251  -37.6529   23.6605 H   0  0  0  0  0  0
  -26.0378  -31.6025   20.5946 H   0  0  0  0  0  0
  -26.8140  -30.8908   21.9816 H   0  0  0  0  0  0
  -28.0949  -29.1125   21.1689 H   0  0  0  0  0  0
  -26.0596  -25.9631   19.0331 H   0  0  0  0  0  0
  -23.9755  -27.2819   19.0529 H   0  0  0  0  0  0
  -23.7079  -30.5927   19.4015 H   0  0  0  0  0  0
  -22.7328  -29.2353   19.8756 H   0  0  0  0  0  0
  -25.1301  -36.1992   25.0842 H   0  0  0  0  0  0
  -20.9961  -28.3225   24.1444 H   0  0  0  0  0  0
  -20.5675  -26.2261   23.3608 H   0  0  0  0  0  0
  -21.6639  -26.7456   22.1206 H   0  0  0  0  0  0
  -19.6900  -25.6309   21.1231 H   0  0  0  0  0  0
  -19.6683  -27.3216   20.6758 H   0  0  0  0  0  0
  -17.4195  -26.6696   21.4024 H   0  0  0  0  0  0
  -18.0312  -26.0067   22.9015 H   0  0  0  0  0  0
  -19.7932  -30.7264   24.2286 H   0  0  0  0  0  0
  -17.5014  -31.6274   24.5168 H   0  0  0  0  0  0
  -15.5349  -30.2999   23.7654 H   0  0  0  0  0  0
  -15.8665  -28.0831   22.7070 H   0  0  0  0  0  0
  -24.5920  -30.7036   25.7804 H   0  0  0  0  0  0
  -24.8906  -32.2864   26.4896 H   0  0  0  0  0  0
  -25.8093  -30.8896   27.0230 H   0  0  0  0  0  0
  -26.2829  -29.6834   24.1110 H   0  0  0  0  0  0
  -27.4045  -29.7266   25.4524 H   0  0  0  0  0  0
  -27.8666  -30.4382   23.9231 H   0  0  0  0  0  0
  -27.2682  -33.3599   26.2083 H   0  0  0  0  0  0
  -28.3842  -32.6874   25.0291 H   0  0  0  0  0  0
  -28.0725  -31.8409   26.5365 H   0  0  0  0  0  0
  -28.2652  -38.0055   24.7469 H   0  0  0  0  0  0
  -28.1013  -36.2591   24.6399 H   0  0  0  0  0  0
  -27.2278  -37.1589   25.8877 H   0  0  0  0  0  0
  -20.9281  -29.8730   21.6943 H   0  0  0  0  0  0
  -26.0206  -38.2886   24.1358 H   0  0  0  0  0  0
  -30.4275  -24.5592   17.2411 H   0  0  0  0  0  0
  -26.9339  -19.9250   18.6794 H   0  0  0  0  0  0
  -26.2023  -18.8823   19.9092 H   0  0  0  0  0  0
  -27.2598  -18.2174   18.6630 H   0  0  0  0  0  0
  -28.1476  -26.3813   18.0052 H   0  0  0  0  0  0
  -29.7733  -26.5757   18.5685 H   0  0  0  0  0  0
  -26.5739  -21.5878   20.1427 H   0  0  0  0  0  0
  -27.3037  -22.3644   21.4979 H   0  0  0  0  0  0
  -30.6597  -17.7313   20.0095 H   0  0  0  0  0  0
  -30.6531  -18.7169   21.4440 H   0  0  0  0  0  0
  -30.3320  -16.7726   22.8998 H   0  0  0  0  0  0
  -31.7471  -16.5698   21.9148 H   0  0  0  0  0  0
  -27.4389  -20.0640   21.9795 H   0  0  0  0  0  0
  -29.0682  -20.6028   21.6744 H   0  0  0  0  0  0
  -28.2156  -17.9193   21.8571 H   0  0  0  0  0  0
  -28.3157  -17.1448   20.3110 H   0  0  0  0  0  0
  -29.2537  -15.0113   21.8520 H   0  0  0  0  0  0
  -29.0294  -19.5530   19.5882 H   0  0  0  0  0  0
  1 25  1  0  0  0
  1 30  2  0  0  0
  1 85  1  0  0  0
  2  3  1  0  0  0
  2 25  1  0  0  0
  2 90  1  0  0  0
  2 91  1  0  0  0
  3  4  1  0  0  0
  3 92  1  0  0  0
  3 93  1  0  0  0
  4  5  1  0  0  0
  4 94  1  0  0  0
  4 95  1  0  0  0
  5  6  1  0  0  0
  5 26  1  0  0  0
  5 96  1  0  0  0
  6 25  1  0  0  0
  6 97  1  0  0  0
  6 98  1  0  0  0
  7  8  2  0  0  0
  7 26  1  0  0  0
  7 29  1  0  0  0
  8  9  1  0  0  0
  8 22  1  0  0  0
  9 10  1  0  0  0
  9 27  2  0  0  0
 10 11  2  0  0  0
 10 15  1  0  0  0
 11 12  1  0  0  0
 11 99  1  0  0  0
 12 13  2  0  0  0
 12100  1  0  0  0
 13 14  1  0  0  0
 13 31  1  0  0  0
 14 15  2  0  0  0
 14101  1  0  0  0
 15102  1  0  0  0
 16 17  2  0  0  0
 16 21  1  0  0  0
 16 31  1  0  0  0
 17 18  1  0  0  0
 17103  1  0  0  0
 18 19  2  0  0  0
 18104  1  0  0  0
 19 20  1  0  0  0
 19 24  1  0  0  0
 20 21  2  0  0  0
 20105  1  0  0  0
 21 23  1  0  0  0
 22 28  1  0  0  0
 22 32  2  0  0  0
 26 27  1  0  0  0
 28106  1  0  0  0
 28107  1  0  0  0
 29108  1  0  0  0
 29109  1  0  0  0
 33 34  1  0  0  0
 33 66  1  0  0  0
 33 70  2  0  0  0
 34 36  1  0  0  0
 34 59  1  0  0  0
 34110  1  0  0  0
 35 44  2  0  0  0
 35 45  1  0  0  0
 35 68  1  0  0  0
 36 56  1  0  0  0
 36111  1  0  0  0
 37 39  1  0  0  0
 37 47  1  0  0  0
 37 66  1  0  0  0
 37112  1  0  0  0
 38 43  2  0  0  0
 38 46  1  0  0  0
 38 47  1  0  0  0
 39 64  1  0  0  0
 39 67  2  0  0  0
 40 52  1  0  0  0
 40 53  2  0  0  0
 40 58  1  0  0  0
 41113  1  0  0  0
 41114  1  0  0  0
 41115  1  0  0  0
 41 48  1  0  0  0
 42 43  1  0  0  0
 42 66  1  0  0  0
 42116  1  0  0  0
 42117  1  0  0  0
 43 44  1  0  0  0
 44118  1  0  0  0
 45 46  2  0  0  0
 45119  1  0  0  0
 46120  1  0  0  0
 47121  1  0  0  0
 47122  1  0  0  0
 48 56  1  0  0  0
 48 65  1  0  0  0
 48123  1  0  0  0
 49 50  1  0  0  0
 49 53  1  0  0  0
 49 64  1  0  0  0
 49124  1  0  0  0
 50 51  1  0  0  0
 50125  1  0  0  0
 50126  1  0  0  0
 51 52  1  0  0  0
 51127  1  0  0  0
 51128  1  0  0  0
 52129  1  0  0  0
 52130  1  0  0  0
 53 54  1  0  0  0
 54 55  2  0  0  0
 54131  1  0  0  0
 55 57  1  0  0  0
 55132  1  0  0  0
 56 69  2  0  0  0
 57 58  2  0  0  0
 57133  1  0  0  0
 58134  1  0  0  0
 59 60  1  0  0  0
 59 61  1  0  0  0
 59 62  1  0  0  0
 60135  1  0  0  0
 60136  1  0  0  0
 60137  1  0  0  0
 61138  1  0  0  0
 61139  1  0  0  0
 61140  1  0  0  0
 62141  1  0  0  0
 62142  1  0  0  0
 62143  1  0  0  0
 63 65  1  0  0  0
 63144  1  0  0  0
 63145  1  0  0  0
 63146  1  0  0  0
 64147  1  0  0  0
 65148  1  0  0  0
 68 76  1  0  0  0
 71 72  2  0  0  0
 71 73  1  0  0  0
 71149  1  0  0  0
 72 76  1  0  0  0
 72 83  1  0  0  0
 73 82  1  0  0  0
 73 84  2  0  0  0
 74 77  1  0  0  0
 74 83  2  0  0  0
 74 84  1  0  0  0
 75150  1  0  0  0
 75151  1  0  0  0
 75152  1  0  0  0
 75 86  1  0  0  0
 76153  1  0  0  0
 76154  1  0  0  0
 77 80  1  0  0  0
 77155  1  0  0  0
 77156  1  0  0  0
 78 79  1  0  0  0
 78 81  1  0  0  0
 78157  1  0  0  0
 78158  1  0  0  0
 79 85  1  0  0  0
 79159  1  0  0  0
 79160  1  0  0  0
 80 86  1  0  0  0
 80161  1  0  0  0
 80162  1  0  0  0
 81 86  1  0  0  0
 81163  1  0  0  0
 81164  1  0  0  0
 82 87  1  0  0  0
 82 88  1  0  0  0
 82 89  1  0  0  0
 85165  1  0  0  0
 86166  1  0  0  0
M  CHG  1  86   1
M  ISO  4   1 100  68 101  76 101  85 100
M  END
> <chiral flag>
0

> <version>
0

> <s_m_source_file>
/data/baiqing/PycharmProjects/Reinvent-master-3.2/result/LINK_invent/BTK/process_docking_weight1_custom_sum_contain_oxygen_bond_distance_aromatic_linkinvent_7_9_3/rearranged_h_0053.sdf

> <i_m_source_file_index>
57

> <r_mmod_Potential_Energy-OPLS-2005>
-495.882934570312

> <r_mmod_Stretch_Energy-OPLS-2005>
37.3760147094727

> <r_mmod_Bend_Energy-OPLS-2005>
106.22802734375

> <r_mmod_Torsional_Energy-OPLS-2005>
234.051834106445

> <r_mmod_Improper_Torsional_Energy-OPLS-2005>
2.78963971138

> <r_mmod_Van_der_Waal_Energy-OPLS-2005>
161.043853759766

> <r_mmod_Electrostatic_Energy-OPLS-2005>
-597.522766113281

> <r_mmod_Solvation_Energy-OPLS-2005>
-448.196136474609

> <b_mmod_Minimization_Converged-OPLS-2005>
0

> <r_mmod_RMS_Derivative-OPLS-2005>
1.16679239273071

$$$$
57
                    3D
 Structure written by MMmdl.
163171  0  0  1  0            999 V2000
  -30.5294  -14.9201   20.4351 C   0  0  0  0  0  0
  -30.4493  -12.5776   19.4712 C   0  0  0  0  0  0
  -29.5145  -12.5124   18.2412 C   0  0  0  0  0  0
  -28.0482  -12.3031   18.6694 C   0  0  0  0  0  0
  -27.6292  -13.2376   19.8336 C   0  0  2  0  0  0
  -28.6780  -13.2487   20.9633 C   0  0  0  0  0  0
  -25.2469  -13.8205   20.5700 C   0  0  0  0  0  0
  -24.1780  -13.0435   20.9234 C   0  0  0  0  0  0
  -24.6389  -11.6919   20.8769 C   0  0  0  0  0  0
  -23.9077  -10.4291   21.0423 C   0  0  0  0  0  0
  -24.3629   -9.4206   21.9198 C   0  0  0  0  0  0
  -23.6304   -8.2242   22.0758 C   0  0  0  0  0  0
  -22.4284   -8.0284   21.3541 C   0  0  0  0  0  0
  -21.9927   -9.0262   20.4645 C   0  0  0  0  0  0
  -22.7258  -10.2139   20.3065 C   0  0  0  0  0  0
  -21.6851   -6.0743   22.5277 C   0  0  0  0  0  0
  -21.4013   -6.5645   23.8209 C   0  0  0  0  0  0
  -21.3655   -5.6789   24.9173 C   0  0  0  0  0  0
  -21.6041   -4.3055   24.7218 C   0  0  0  0  0  0
  -21.8823   -3.8152   23.4338 C   0  0  0  0  0  0
  -21.9195   -4.6970   22.3397 C   0  0  0  0  0  0
  -22.7798  -13.5210   21.1892 C   0  0  0  0  0  0
  -22.1660   -4.2157   21.0973 F   0  0  0  0  0  0
  -21.5631   -3.4536   25.7736 F   0  0  0  0  0  0
  -29.9488  -13.6615   20.3552 N   0  0  0  0  0  0
  -26.2884  -12.9409   20.3240 N   0  0  0  0  0  0
  -25.9315  -11.6552   20.5759 N   0  0  0  0  0  0
  -22.0451  -12.8189   22.0443 N   0  0  0  0  0  0
  -25.4129  -15.1934   20.4089 N   0  0  0  0  0  0
  -31.7472  -15.0140   20.2551 O   0  0  0  0  0  0
  -21.6638   -6.8888   21.4237 O   0  0  0  0  0  0
  -22.3478  -14.5513   20.6740 O   0  0  0  0  0  0
  -24.6402  -31.8454   23.1882 C   0  0  0  0  0  0
  -25.9180  -32.4705   23.8267 C   0  0  1  0  0  0
  -27.2227  -27.1567   20.1622 C   0  0  0  0  0  0
  -25.5936  -33.8506   24.2191 N   0  0  0  0  0  0
  -23.4434  -30.4610   21.5358 C   0  0  2  0  0  0
  -24.8931  -28.8820   20.1199 C   0  0  0  0  0  0
  -22.7554  -29.4547   22.4908 C   0  0  0  0  0  0
  -18.0299  -28.1389   22.8486 C   0  0  0  0  0  0
  -24.1494  -36.7259   23.2644 C   0  0  0  0  0  0
  -25.9953  -30.7274   21.3815 C   0  0  0  0  0  0
  -26.0704  -29.3361   20.7294 C   0  0  0  0  0  0
  -27.2394  -28.4909   20.7278 C   0  0  0  0  0  0
  -26.0195  -26.7853   19.5298 C   0  0  0  0  0  0
  -24.8778  -27.6177   19.5070 C   0  0  0  0  0  0
  -23.6687  -29.7835   20.1577 C   0  0  0  0  0  0
  -25.4128  -36.3032   24.0308 C   0  0  1  0  0  0
  -20.5905  -28.3711   23.1254 C   0  0  2  0  0  0
  -20.6801  -26.9423   22.5415 C   0  0  0  0  0  0
  -19.5775  -26.6383   21.5222 C   0  0  0  0  0  0
  -18.1943  -26.7933   22.1622 C   0  0  0  0  0  0
  -19.1557  -28.8868   23.2854 C   0  0  0  0  0  0
  -18.9477  -30.1468   23.8876 C   0  0  0  0  0  0
  -17.6469  -30.6596   24.0556 C   0  0  0  0  0  0
  -25.9083  -34.9409   23.5066 C   0  0  0  0  0  0
  -16.5365  -29.9085   23.6339 C   0  0  0  0  0  0
  -16.7286  -28.6499   23.0366 C   0  0  0  0  0  0
  -26.4509  -31.6561   25.0697 C   0  0  0  0  0  0
  -25.3694  -31.3704   26.1392 C   0  0  0  0  0  0
  -27.0400  -30.2977   24.6254 C   0  0  0  0  0  0
  -27.6053  -32.4322   25.7466 C   0  0  0  0  0  0
  -27.5579  -37.1776   24.8463 C   0  0  0  0  0  0
  -21.4254  -29.3038   22.3642 N   0  0  0  0  0  0
  -26.4298  -37.3743   23.9398 N   0  0  0  0  0  0
  -24.7132  -31.0320   22.0910 N   0  0  0  0  0  0
  -23.4200  -28.8112   23.3065 O   0  0  0  0  0  0
  -28.3085  -26.2200   20.1399 O   0  0  0  0  0  0
  -26.5686  -34.8907   22.4659 O   0  0  0  0  0  0
  -23.5531  -32.1326   23.7125 O   0  0  0  0  0  0
  -27.5835  -20.6625   16.0086 C   0  0  0  0  0  0
  -28.8723  -21.0388   16.4496 C   0  0  0  0  0  0
  -27.0350  -20.0233   18.1598 C   0  0  0  0  0  0
  -28.3247  -20.4244   18.6076 C   0  0  0  0  0  0
  -29.9053  -21.5884   15.4888 C   0  0  0  0  0  0
  -25.9971  -19.4130   19.0841 C   0  0  0  0  0  0
  -28.5192  -23.3136   19.8967 C   0  0  0  0  0  0
  -29.0782  -21.8771   20.6004 C   0  0  0  0  0  0
  -29.8425  -18.9619   20.0833 C   0  0  0  0  0  0
  -29.7830  -17.5557   20.9915 C   0  0  0  0  0  0
  -28.2086  -24.7696   20.6751 C   0  0  0  0  0  0
  -28.8042  -20.3009   20.0530 C   0  0  2  0  0  0
  -26.6642  -20.1502   16.8615 N   0  0  0  0  0  0
  -29.2463  -20.9171   17.7423 N   0  0  0  0  0  0
  -29.6900  -16.0588   20.5027 N   0  0  0  0  0  0
  -31.4742  -12.7653   19.1467 H   0  0  0  0  0  0
  -30.4695  -11.6250   20.0034 H   0  0  0  0  0  0
  -29.8253  -11.7083   17.5731 H   0  0  0  0  0  0
  -29.5968  -13.4374   17.6686 H   0  0  0  0  0  0
  -27.9447  -11.2627   18.9817 H   0  0  0  0  0  0
  -27.3797  -12.4309   17.8174 H   0  0  0  0  0  0
  -27.5953  -14.2394   19.4056 H   0  0  0  0  0  0
  -28.7658  -12.2677   21.4322 H   0  0  0  0  0  0
  -28.3859  -13.9430   21.7528 H   0  0  0  0  0  0
  -25.2773   -9.5675   22.4777 H   0  0  0  0  0  0
  -24.0005   -7.4629   22.7475 H   0  0  0  0  0  0
  -21.0862   -8.8794   19.8942 H   0  0  0  0  0  0
  -22.3731  -10.9689   19.6174 H   0  0  0  0  0  0
  -21.2001   -7.6154   23.9718 H   0  0  0  0  0  0
  -21.1468   -6.0521   25.9075 H   0  0  0  0  0  0
  -22.0607   -2.7618   23.2837 H   0  0  0  0  0  0
  -22.4075  -11.9842   22.4812 H   0  0  0  0  0  0
  -21.1070  -13.1201   22.2665 H   0  0  0  0  0  0
  -24.6388  -15.8404   20.5136 H   0  0  0  0  0  0
  -26.2485  -15.6337   20.0495 H   0  0  0  0  0  0
  -26.7241  -32.5323   23.0990 H   0  0  0  0  0  0
  -24.9988  -33.9604   25.0276 H   0  0  0  0  0  0
  -22.7441  -31.2848   21.3798 H   0  0  0  0  0  0
  -23.3761  -35.9585   23.3295 H   0  0  0  0  0  0
  -24.3575  -36.8920   22.2063 H   0  0  0  0  0  0
  -23.7249  -37.6447   23.6709 H   0  0  0  0  0  0
  -26.1438  -31.4811   20.6082 H   0  0  0  0  0  0
  -26.8660  -30.7816   22.0228 H   0  0  0  0  0  0
  -28.1446  -28.8396   21.2060 H   0  0  0  0  0  0
  -25.9582  -25.8140   19.0583 H   0  0  0  0  0  0
  -23.9780  -27.2633   19.0227 H   0  0  0  0  0  0
  -23.8017  -30.5549   19.3989 H   0  0  0  0  0  0
  -22.7837  -29.2231   19.8534 H   0  0  0  0  0  0
  -25.1310  -36.1865   25.0797 H   0  0  0  0  0  0
  -20.9975  -28.3319   24.1391 H   0  0  0  0  0  0
  -20.5729  -26.2318   23.3630 H   0  0  0  0  0  0
  -21.6656  -26.7479   22.1184 H   0  0  0  0  0  0
  -19.6948  -25.6292   21.1260 H   0  0  0  0  0  0
  -19.6711  -27.3199   20.6745 H   0  0  0  0  0  0
  -17.4224  -26.6685   21.4020 H   0  0  0  0  0  0
  -18.0324  -26.0070   22.9004 H   0  0  0  0  0  0
  -19.7954  -30.7274   24.2248 H   0  0  0  0  0  0
  -17.5034  -31.6270   24.5164 H   0  0  0  0  0  0
  -15.5364  -30.2970   23.7688 H   0  0  0  0  0  0
  -15.8683  -28.0810   22.7093 H   0  0  0  0  0  0
  -24.5895  -30.7042   25.7666 H   0  0  0  0  0  0
  -24.8836  -32.2859   26.4786 H   0  0  0  0  0  0
  -25.7960  -30.8882   27.0199 H   0  0  0  0  0  0
  -26.3022  -29.6656   24.1291 H   0  0  0  0  0  0
  -27.4083  -29.7305   25.4808 H   0  0  0  0  0  0
  -27.8887  -30.4231   23.9523 H   0  0  0  0  0  0
  -27.2693  -33.3668   26.1971 H   0  0  0  0  0  0
  -28.3896  -32.6806   25.0302 H   0  0  0  0  0  0
  -28.0693  -31.8492   26.5438 H   0  0  0  0  0  0
  -28.2574  -38.0091   24.7530 H   0  0  0  0  0  0
  -28.1097  -36.2622   24.6276 H   0  0  0  0  0  0
  -27.2289  -37.1402   25.8862 H   0  0  0  0  0  0
  -20.9486  -29.8714   21.6780 H   0  0  0  0  0  0
  -26.0167  -38.2812   24.1412 H   0  0  0  0  0  0
  -27.2942  -20.7656   14.9723 H   0  0  0  0  0  0
  -30.2240  -20.8096   14.7970 H   0  0  0  0  0  0
  -30.7886  -21.9573   16.0128 H   0  0  0  0  0  0
  -29.4865  -22.4107   14.9094 H   0  0  0  0  0  0
  -25.6851  -20.1371   19.8369 H   0  0  0  0  0  0
  -26.4048  -18.5394   19.5932 H   0  0  0  0  0  0
  -25.1107  -19.0911   18.5365 H   0  0  0  0  0  0
  -27.5994  -23.0688   19.3636 H   0  0  0  0  0  0
  -29.2263  -23.5416   19.0991 H   0  0  0  0  0  0
  -28.7696  -21.8915   21.6463 H   0  0  0  0  0  0
  -30.1611  -21.9900   20.6540 H   0  0  0  0  0  0
  -29.9122  -18.5949   19.0596 H   0  0  0  0  0  0
  -30.8370  -19.3785   20.2391 H   0  0  0  0  0  0
  -28.9352  -17.6734   21.6678 H   0  0  0  0  0  0
  -30.6458  -17.5821   21.6593 H   0  0  0  0  0  0
  -28.8970  -24.7812   21.5196 H   0  0  0  0  0  0
  -27.2308  -24.6747   21.1484 H   0  0  0  0  0  0
  -27.9478  -19.9775   20.6437 H   0  0  0  0  0  0
  -28.7280  -15.7678   20.4208 H   0  0  0  0  0  0
  1 25  1  0  0  0
  1 30  2  0  0  0
  1 85  1  0  0  0
  2  3  1  0  0  0
  2 25  1  0  0  0
  2 86  1  0  0  0
  2 87  1  0  0  0
  3  4  1  0  0  0
  3 88  1  0  0  0
  3 89  1  0  0  0
  4  5  1  0  0  0
  4 90  1  0  0  0
  4 91  1  0  0  0
  5  6  1  0  0  0
  5 26  1  0  0  0
  5 92  1  0  0  0
  6 25  1  0  0  0
  6 93  1  0  0  0
  6 94  1  0  0  0
  7  8  2  0  0  0
  7 26  1  0  0  0
  7 29  1  0  0  0
  8  9  1  0  0  0
  8 22  1  0  0  0
  9 10  1  0  0  0
  9 27  2  0  0  0
 10 11  2  0  0  0
 10 15  1  0  0  0
 11 12  1  0  0  0
 11 95  1  0  0  0
 12 13  2  0  0  0
 12 96  1  0  0  0
 13 14  1  0  0  0
 13 31  1  0  0  0
 14 15  2  0  0  0
 14 97  1  0  0  0
 15 98  1  0  0  0
 16 17  2  0  0  0
 16 21  1  0  0  0
 16 31  1  0  0  0
 17 18  1  0  0  0
 17 99  1  0  0  0
 18 19  2  0  0  0
 18100  1  0  0  0
 19 20  1  0  0  0
 19 24  1  0  0  0
 20 21  2  0  0  0
 20101  1  0  0  0
 21 23  1  0  0  0
 22 28  1  0  0  0
 22 32  2  0  0  0
 26 27  1  0  0  0
 28102  1  0  0  0
 28103  1  0  0  0
 29104  1  0  0  0
 29105  1  0  0  0
 33 34  1  0  0  0
 33 66  1  0  0  0
 33 70  2  0  0  0
 34 36  1  0  0  0
 34 59  1  0  0  0
 34106  1  0  0  0
 35 44  2  0  0  0
 35 45  1  0  0  0
 35 68  1  0  0  0
 36 56  1  0  0  0
 36107  1  0  0  0
 37 39  1  0  0  0
 37 47  1  0  0  0
 37 66  1  0  0  0
 37108  1  0  0  0
 38 43  2  0  0  0
 38 46  1  0  0  0
 38 47  1  0  0  0
 39 64  1  0  0  0
 39 67  2  0  0  0
 40 52  1  0  0  0
 40 53  2  0  0  0
 40 58  1  0  0  0
 41109  1  0  0  0
 41110  1  0  0  0
 41111  1  0  0  0
 41 48  1  0  0  0
 42 43  1  0  0  0
 42 66  1  0  0  0
 42112  1  0  0  0
 42113  1  0  0  0
 43 44  1  0  0  0
 44114  1  0  0  0
 45 46  2  0  0  0
 45115  1  0  0  0
 46116  1  0  0  0
 47117  1  0  0  0
 47118  1  0  0  0
 48 56  1  0  0  0
 48 65  1  0  0  0
 48119  1  0  0  0
 49 50  1  0  0  0
 49 53  1  0  0  0
 49 64  1  0  0  0
 49120  1  0  0  0
 50 51  1  0  0  0
 50121  1  0  0  0
 50122  1  0  0  0
 51 52  1  0  0  0
 51123  1  0  0  0
 51124  1  0  0  0
 52125  1  0  0  0
 52126  1  0  0  0
 53 54  1  0  0  0
 54 55  2  0  0  0
 54127  1  0  0  0
 55 57  1  0  0  0
 55128  1  0  0  0
 56 69  2  0  0  0
 57 58  2  0  0  0
 57129  1  0  0  0
 58130  1  0  0  0
 59 60  1  0  0  0
 59 61  1  0  0  0
 59 62  1  0  0  0
 60131  1  0  0  0
 60132  1  0  0  0
 60133  1  0  0  0
 61134  1  0  0  0
 61135  1  0  0  0
 61136  1  0  0  0
 62137  1  0  0  0
 62138  1  0  0  0
 62139  1  0  0  0
 63 65  1  0  0  0
 63140  1  0  0  0
 63141  1  0  0  0
 63142  1  0  0  0
 64143  1  0  0  0
 65144  1  0  0  0
 68 81  1  0  0  0
 71 72  2  0  0  0
 71 83  1  0  0  0
 71145  1  0  0  0
 72 75  1  0  0  0
 72 84  1  0  0  0
 73 74  1  0  0  0
 73 76  1  0  0  0
 73 83  2  0  0  0
 74 82  1  0  0  0
 74 84  2  0  0  0
 75146  1  0  0  0
 75147  1  0  0  0
 75148  1  0  0  0
 76149  1  0  0  0
 76150  1  0  0  0
 76151  1  0  0  0
 77 78  1  0  0  0
 77 81  1  0  0  0
 77152  1  0  0  0
 77153  1  0  0  0
 78154  1  0  0  0
 78155  1  0  0  0
 78 82  1  0  0  0
 79 80  1  0  0  0
 79 82  1  0  0  0
 79156  1  0  0  0
 79157  1  0  0  0
 80 85  1  0  0  0
 80158  1  0  0  0
 80159  1  0  0  0
 81160  1  0  0  0
 81161  1  0  0  0
 82162  1  0  0  0
 85163  1  0  0  0
M  ISO  4   1 100  68 101  81 101  85 100
M  END
> <chiral flag>
0

> <version>
0

> <s_m_source_file>
/data/baiqing/PycharmProjects/Reinvent-master-3.2/result/LINK_invent/BTK/process_docking_weight1_custom_sum_contain_oxygen_bond_distance_aromatic_linkinvent_7_9_3/rearranged_h_0053.sdf

> <i_m_source_file_index>
58

> <r_mmod_Potential_Energy-OPLS-2005>
588.754089355469

> <r_mmod_Stretch_Energy-OPLS-2005>
262.138580322266

> <r_mmod_Bend_Energy-OPLS-2005>
311.073547363281

> <r_mmod_Torsional_Energy-OPLS-2005>
262.542938232422

> <r_mmod_Improper_Torsional_Energy-OPLS-2005>
5.40865087509155

> <r_mmod_Van_der_Waal_Energy-OPLS-2005>
131.883453369141

> <r_mmod_Electrostatic_Energy-OPLS-2005>
-328.388061523438

> <r_mmod_Solvation_Energy-OPLS-2005>
-228.777450561523

> <b_mmod_Minimization_Converged-OPLS-2005>
0

> <r_mmod_RMS_Derivative-OPLS-2005>
1.95318603515625

$$$$
58
                    3D
 Structure written by MMmdl.
160168  0  0  1  0            999 V2000
  -30.5469  -14.9556   20.4791 C   0  0  0  0  0  0
  -30.4501  -12.6148   19.4735 C   0  0  0  0  0  0
  -29.5142  -12.5558   18.2411 C   0  0  0  0  0  0
  -28.0460  -12.3375   18.6582 C   0  0  0  0  0  0
  -27.6361  -13.2368   19.8520 C   0  0  2  0  0  0
  -28.6924  -13.1728   20.9747 C   0  0  0  0  0  0
  -25.2435  -13.8168   20.5639 C   0  0  0  0  0  0
  -24.1766  -13.0399   20.9206 C   0  0  0  0  0  0
  -24.6395  -11.6894   20.8763 C   0  0  0  0  0  0
  -23.9078  -10.4274   21.0417 C   0  0  0  0  0  0
  -24.3627   -9.4190   21.9195 C   0  0  0  0  0  0
  -23.6295   -8.2229   22.0763 C   0  0  0  0  0  0
  -22.4277   -8.0277   21.3550 C   0  0  0  0  0  0
  -21.9916   -9.0249   20.4651 C   0  0  0  0  0  0
  -22.7252  -10.2125   20.3065 C   0  0  0  0  0  0
  -21.6845   -6.0738   22.5284 C   0  0  0  0  0  0
  -21.4004   -6.5641   23.8217 C   0  0  0  0  0  0
  -21.3657   -5.6796   24.9177 C   0  0  0  0  0  0
  -21.6043   -4.3059   24.7228 C   0  0  0  0  0  0
  -21.8815   -3.8152   23.4349 C   0  0  0  0  0  0
  -21.9188   -4.6968   22.3406 C   0  0  0  0  0  0
  -22.7790  -13.5182   21.1860 C   0  0  0  0  0  0
  -22.1663   -4.2155   21.0984 F   0  0  0  0  0  0
  -21.5634   -3.4541   25.7743 F   0  0  0  0  0  0
  -29.9487  -13.6845   20.3938 N   0  0  0  0  0  0
  -26.2908  -12.9401   20.3306 N   0  0  0  0  0  0
  -25.9335  -11.6534   20.5785 N   0  0  0  0  0  0
  -22.0448  -12.8182   22.0436 N   0  0  0  0  0  0
  -25.3954  -15.1885   20.3918 N   0  0  0  0  0  0
  -31.7311  -15.0105   20.1220 O   0  0  0  0  0  0
  -21.6635   -6.8879   21.4246 O   0  0  0  0  0  0
  -22.3470  -14.5481   20.6701 O   0  0  0  0  0  0
  -24.6437  -31.8443   23.1876 C   0  0  0  0  0  0
  -25.9205  -32.4697   23.8268 C   0  0  1  0  0  0
  -27.2220  -27.1364   20.1461 C   0  0  0  0  0  0
  -25.5947  -33.8503   24.2182 N   0  0  0  0  0  0
  -23.4472  -30.4631   21.5341 C   0  0  2  0  0  0
  -24.8972  -28.8901   20.1128 C   0  0  0  0  0  0
  -22.7569  -29.4548   22.4869 C   0  0  0  0  0  0
  -18.0306  -28.1390   22.8484 C   0  0  0  0  0  0
  -24.1491  -36.7256   23.2643 C   0  0  0  0  0  0
  -26.0043  -30.7188   21.3863 C   0  0  0  0  0  0
  -26.0765  -29.3299   20.7273 C   0  0  0  0  0  0
  -27.2403  -28.4708   20.7236 C   0  0  0  0  0  0
  -26.0121  -26.7991   19.4980 C   0  0  0  0  0  0
  -24.8782  -27.6379   19.4831 C   0  0  0  0  0  0
  -23.6727  -29.7903   20.1549 C   0  0  0  0  0  0
  -25.4125  -36.3033   24.0313 C   0  0  1  0  0  0
  -20.5920  -28.3714   23.1238 C   0  0  2  0  0  0
  -20.6786  -26.9417   22.5405 C   0  0  0  0  0  0
  -19.5759  -26.6376   21.5214 C   0  0  0  0  0  0
  -18.1943  -26.7929   22.1629 C   0  0  0  0  0  0
  -19.1564  -28.8871   23.2853 C   0  0  0  0  0  0
  -18.9477  -30.1469   23.8876 C   0  0  0  0  0  0
  -17.6472  -30.6587   24.0556 C   0  0  0  0  0  0
  -25.9075  -34.9409   23.5058 C   0  0  0  0  0  0
  -16.5364  -29.9076   23.6335 C   0  0  0  0  0  0
  -16.7290  -28.6495   23.0361 C   0  0  0  0  0  0
  -26.4518  -31.6570   25.0716 C   0  0  0  0  0  0
  -25.3688  -31.3769   26.1401 C   0  0  0  0  0  0
  -27.0382  -30.2963   24.6308 C   0  0  0  0  0  0
  -27.6046  -32.4339   25.7502 C   0  0  0  0  0  0
  -27.5577  -37.1784   24.8465 C   0  0  0  0  0  0
  -21.4261  -29.3043   22.3613 N   0  0  0  0  0  0
  -26.4289  -37.3745   23.9407 N   0  0  0  0  0  0
  -24.7183  -31.0296   22.0910 N   0  0  0  0  0  0
  -23.4214  -28.8099   23.3021 O   0  0  0  0  0  0
  -28.2845  -26.1576   20.1926 O   0  0  0  0  0  0
  -26.5667  -34.8907   22.4642 O   0  0  0  0  0  0
  -23.5554  -32.1320   23.7092 O   0  0  0  0  0  0
  -29.6766  -20.0691   17.6506 C   0  0  0  0  0  0
  -28.8387  -18.9381   17.7958 C   0  0  0  0  0  0
  -29.6139  -20.3986   19.9410 C   0  0  0  0  0  0
  -29.2799  -18.9271   20.0594 C   0  0  0  0  0  0
  -30.0903  -20.6032   16.2932 C   0  0  0  0  0  0
  -28.2318  -18.2221   16.6053 C   0  0  0  0  0  0
  -28.7095  -16.1899   21.6727 C   0  0  0  0  0  0
  -28.6794  -21.6895   20.3689 C   0  0  0  0  0  0
  -30.2658  -17.6859   20.5103 C   0  0  0  0  0  0
  -29.0854  -23.3284   20.1966 C   0  0  0  0  0  0
  -28.0002  -24.6217   20.2014 C   0  0  0  0  0  0
  -30.0896  -20.7755   18.7277 N   0  0  0  0  0  0
  -28.6037  -18.3938   19.0114 N   0  0  0  0  0  0
  -29.8203  -16.1769   20.7174 N   0  0  0  0  0  0
  -31.4717  -12.8016   19.1397 H   0  0  0  0  0  0
  -30.4878  -11.6474   19.9768 H   0  0  0  0  0  0
  -29.8302  -11.7645   17.5601 H   0  0  0  0  0  0
  -29.5947  -13.4892   17.6810 H   0  0  0  0  0  0
  -27.9319  -11.2877   18.9313 H   0  0  0  0  0  0
  -27.3803  -12.5057   17.8110 H   0  0  0  0  0  0
  -27.6183  -14.2560   19.4659 H   0  0  0  0  0  0
  -28.8098  -12.1427   21.3145 H   0  0  0  0  0  0
  -28.3789  -13.7017   21.8683 H   0  0  0  0  0  0
  -25.2776   -9.5662   22.4768 H   0  0  0  0  0  0
  -23.9997   -7.4613   22.7481 H   0  0  0  0  0  0
  -21.0848   -8.8772   19.8955 H   0  0  0  0  0  0
  -22.3716  -10.9666   19.6177 H   0  0  0  0  0  0
  -21.1991   -7.6149   23.9727 H   0  0  0  0  0  0
  -21.1487   -6.0522   25.9081 H   0  0  0  0  0  0
  -22.0598   -2.7615   23.2845 H   0  0  0  0  0  0
  -22.4075  -11.9855   22.4836 H   0  0  0  0  0  0
  -21.1073  -13.1215   22.2655 H   0  0  0  0  0  0
  -24.6132  -15.8266   20.4874 H   0  0  0  0  0  0
  -26.2340  -15.6420   20.0515 H   0  0  0  0  0  0
  -26.7275  -32.5304   23.1002 H   0  0  0  0  0  0
  -25.0050  -33.9614   25.0297 H   0  0  0  0  0  0
  -22.7499  -31.2890   21.3782 H   0  0  0  0  0  0
  -23.3759  -35.9582   23.3294 H   0  0  0  0  0  0
  -24.3575  -36.8901   22.2060 H   0  0  0  0  0  0
  -23.7242  -37.6446   23.6690 H   0  0  0  0  0  0
  -26.1601  -31.4750   20.6155 H   0  0  0  0  0  0
  -26.8742  -30.7686   22.0299 H   0  0  0  0  0  0
  -28.1408  -28.8062   21.2184 H   0  0  0  0  0  0
  -25.9020  -25.8497   18.9999 H   0  0  0  0  0  0
  -23.9781  -27.2967   18.9902 H   0  0  0  0  0  0
  -23.8042  -30.5619   19.3953 H   0  0  0  0  0  0
  -22.7888  -29.2277   19.8493 H   0  0  0  0  0  0
  -25.1315  -36.1857   25.0805 H   0  0  0  0  0  0
  -21.0015  -28.3299   24.1359 H   0  0  0  0  0  0
  -20.5671  -26.2329   23.3624 H   0  0  0  0  0  0
  -21.6650  -26.7413   22.1207 H   0  0  0  0  0  0
  -19.6913  -25.6280   21.1259 H   0  0  0  0  0  0
  -19.6690  -27.3172   20.6732 H   0  0  0  0  0  0
  -17.4208  -26.6678   21.4034 H   0  0  0  0  0  0
  -18.0339  -26.0072   22.9028 H   0  0  0  0  0  0
  -19.7952  -30.7294   24.2235 H   0  0  0  0  0  0
  -17.5022  -31.6267   24.5157 H   0  0  0  0  0  0
  -15.5363  -30.2968   23.7665 H   0  0  0  0  0  0
  -15.8695  -28.0799   22.7092 H   0  0  0  0  0  0
  -24.5870  -30.7121   25.7711 H   0  0  0  0  0  0
  -24.8872  -32.2954   26.4763 H   0  0  0  0  0  0
  -25.7949  -30.8974   27.0221 H   0  0  0  0  0  0
  -26.3002  -29.6689   24.1295 H   0  0  0  0  0  0
  -27.3964  -29.7265   25.4894 H   0  0  0  0  0  0
  -27.8924  -30.4196   23.9647 H   0  0  0  0  0  0
  -27.2638  -33.3660   26.2022 H   0  0  0  0  0  0
  -28.3883  -32.6868   25.0349 H   0  0  0  0  0  0
  -28.0683  -31.8503   26.5465 H   0  0  0  0  0  0
  -28.2585  -38.0088   24.7511 H   0  0  0  0  0  0
  -28.1080  -36.2617   24.6291 H   0  0  0  0  0  0
  -27.2294  -37.1431   25.8867 H   0  0  0  0  0  0
  -20.9472  -29.8754   21.6790 H   0  0  0  0  0  0
  -26.0155  -38.2814   24.1402 H   0  0  0  0  0  0
  -29.2165  -20.9266   15.7273 H   0  0  0  0  0  0
  -30.6042  -19.8308   15.7212 H   0  0  0  0  0  0
  -30.7653  -21.4545   16.3879 H   0  0  0  0  0  0
  -29.0104  -17.9047   15.9117 H   0  0  0  0  0  0
  -27.5487  -18.8854   16.0742 H   0  0  0  0  0  0
  -27.6747  -17.3356   16.9105 H   0  0  0  0  0  0
  -28.9731  -15.6546   22.5858 H   0  0  0  0  0  0
  -27.8164  -15.7539   21.2380 H   0  0  0  0  0  0
  -28.4275  -17.1942   21.9901 H   0  0  0  0  0  0
  -28.4079  -21.5311   21.4126 H   0  0  0  0  0  0
  -27.7449  -21.5470   19.8250 H   0  0  0  0  0  0
  -30.7452  -17.9988   21.4384 H   0  0  0  0  0  0
  -31.0779  -17.6723   19.7816 H   0  0  0  0  0  0
  -29.6110  -23.4129   19.2454 H   0  0  0  0  0  0
  -29.8480  -23.5412   20.9454 H   0  0  0  0  0  0
  -27.3489  -24.4660   21.0620 H   0  0  0  0  0  0
  -27.3738  -24.4189   19.3358 H   0  0  0  0  0  0
  1 25  1  0  0  0
  1 30  2  0  0  0
  1 84  1  0  0  0
  2  3  1  0  0  0
  2 25  1  0  0  0
  2 85  1  0  0  0
  2 86  1  0  0  0
  3  4  1  0  0  0
  3 87  1  0  0  0
  3 88  1  0  0  0
  4  5  1  0  0  0
  4 89  1  0  0  0
  4 90  1  0  0  0
  5  6  1  0  0  0
  5 26  1  0  0  0
  5 91  1  0  0  0
  6 25  1  0  0  0
  6 92  1  0  0  0
  6 93  1  0  0  0
  7  8  2  0  0  0
  7 26  1  0  0  0
  7 29  1  0  0  0
  8  9  1  0  0  0
  8 22  1  0  0  0
  9 10  1  0  0  0
  9 27  2  0  0  0
 10 11  2  0  0  0
 10 15  1  0  0  0
 11 12  1  0  0  0
 11 94  1  0  0  0
 12 13  2  0  0  0
 12 95  1  0  0  0
 13 14  1  0  0  0
 13 31  1  0  0  0
 14 15  2  0  0  0
 14 96  1  0  0  0
 15 97  1  0  0  0
 16 17  2  0  0  0
 16 21  1  0  0  0
 16 31  1  0  0  0
 17 18  1  0  0  0
 17 98  1  0  0  0
 18 19  2  0  0  0
 18 99  1  0  0  0
 19 20  1  0  0  0
 19 24  1  0  0  0
 20 21  2  0  0  0
 20100  1  0  0  0
 21 23  1  0  0  0
 22 28  1  0  0  0
 22 32  2  0  0  0
 26 27  1  0  0  0
 28101  1  0  0  0
 28102  1  0  0  0
 29103  1  0  0  0
 29104  1  0  0  0
 33 34  1  0  0  0
 33 66  1  0  0  0
 33 70  2  0  0  0
 34 36  1  0  0  0
 34 59  1  0  0  0
 34105  1  0  0  0
 35 44  2  0  0  0
 35 45  1  0  0  0
 35 68  1  0  0  0
 36 56  1  0  0  0
 36106  1  0  0  0
 37 39  1  0  0  0
 37 47  1  0  0  0
 37 66  1  0  0  0
 37107  1  0  0  0
 38 43  2  0  0  0
 38 46  1  0  0  0
 38 47  1  0  0  0
 39 64  1  0  0  0
 39 67  2  0  0  0
 40 52  1  0  0  0
 40 53  2  0  0  0
 40 58  1  0  0  0
 41108  1  0  0  0
 41109  1  0  0  0
 41110  1  0  0  0
 41 48  1  0  0  0
 42 43  1  0  0  0
 42 66  1  0  0  0
 42111  1  0  0  0
 42112  1  0  0  0
 43 44  1  0  0  0
 44113  1  0  0  0
 45 46  2  0  0  0
 45114  1  0  0  0
 46115  1  0  0  0
 47116  1  0  0  0
 47117  1  0  0  0
 48 56  1  0  0  0
 48 65  1  0  0  0
 48118  1  0  0  0
 49 50  1  0  0  0
 49 53  1  0  0  0
 49 64  1  0  0  0
 49119  1  0  0  0
 50 51  1  0  0  0
 50120  1  0  0  0
 50121  1  0  0  0
 51 52  1  0  0  0
 51122  1  0  0  0
 51123  1  0  0  0
 52124  1  0  0  0
 52125  1  0  0  0
 53 54  1  0  0  0
 54 55  2  0  0  0
 54126  1  0  0  0
 55 57  1  0  0  0
 55127  1  0  0  0
 56 69  2  0  0  0
 57 58  2  0  0  0
 57128  1  0  0  0
 58129  1  0  0  0
 59 60  1  0  0  0
 59 61  1  0  0  0
 59 62  1  0  0  0
 60130  1  0  0  0
 60131  1  0  0  0
 60132  1  0  0  0
 61133  1  0  0  0
 61134  1  0  0  0
 61135  1  0  0  0
 62136  1  0  0  0
 62137  1  0  0  0
 62138  1  0  0  0
 63 65  1  0  0  0
 63139  1  0  0  0
 63140  1  0  0  0
 63141  1  0  0  0
 64142  1  0  0  0
 65143  1  0  0  0
 68 81  1  0  0  0
 71 72  2  0  0  0
 71 75  1  0  0  0
 71 82  1  0  0  0
 72 76  1  0  0  0
 72 83  1  0  0  0
 73 74  1  0  0  0
 73 78  1  0  0  0
 73 82  2  0  0  0
 74 79  1  0  0  0
 74 83  2  0  0  0
 75144  1  0  0  0
 75145  1  0  0  0
 75146  1  0  0  0
 76147  1  0  0  0
 76148  1  0  0  0
 76149  1  0  0  0
 77 84  1  0  0  0
 77150  1  0  0  0
 77151  1  0  0  0
 77152  1  0  0  0
 78 80  1  0  0  0
 78153  1  0  0  0
 78154  1  0  0  0
 79 84  1  0  0  0
 79155  1  0  0  0
 79156  1  0  0  0
 80 81  1  0  0  0
 80157  1  0  0  0
 80158  1  0  0  0
 81159  1  0  0  0
 81160  1  0  0  0
M  ISO  4   1 100  68 101  81 101  84 100
M  END
> <chiral flag>
0

> <version>
0

> <s_m_source_file>
/data/baiqing/PycharmProjects/Reinvent-master-3.2/result/LINK_invent/BTK/process_docking_weight1_custom_sum_contain_oxygen_bond_distance_aromatic_linkinvent_7_9_3/rearranged_h_0053.sdf

> <i_m_source_file_index>
59

> <r_mmod_Potential_Energy-OPLS-2005>
801.791809082031

> <r_mmod_Stretch_Energy-OPLS-2005>
288.040740966797

> <r_mmod_Bend_Energy-OPLS-2005>
301.937835693359

> <r_mmod_Torsional_Energy-OPLS-2005>
398.009124755859

> <r_mmod_Improper_Torsional_Energy-OPLS-2005>
30.6752796173096

> <r_mmod_Van_der_Waal_Energy-OPLS-2005>
150.346389770508

> <r_mmod_Electrostatic_Energy-OPLS-2005>
-341.605682373047

> <r_mmod_Solvation_Energy-OPLS-2005>
-207.856628417969

> <b_mmod_Minimization_Converged-OPLS-2005>
0

> <r_mmod_RMS_Derivative-OPLS-2005>
0.757714331150055

$$$$
60
                    3D
 Structure written by MMmdl.
161169  0  0  1  0            999 V2000
  -30.6420  -14.6069   20.6043 C   0  0  0  0  0  0
  -30.4510  -12.4134   19.4165 C   0  0  0  0  0  0
  -29.4918  -12.5320   18.2092 C   0  0  0  0  0  0
  -28.0157  -12.3700   18.6285 C   0  0  0  0  0  0
  -27.6630  -13.2033   19.8884 C   0  0  2  0  0  0
  -28.7210  -12.9607   20.9902 C   0  0  0  0  0  0
  -25.2576  -13.8167   20.5710 C   0  0  0  0  0  0
  -24.1825  -13.0450   20.9181 C   0  0  0  0  0  0
  -24.6378  -11.6906   20.8767 C   0  0  0  0  0  0
  -23.9050  -10.4307   21.0421 C   0  0  0  0  0  0
  -24.3613   -9.4235   21.9203 C   0  0  0  0  0  0
  -23.6304   -8.2264   22.0778 C   0  0  0  0  0  0
  -22.4288   -8.0299   21.3570 C   0  0  0  0  0  0
  -21.9909   -9.0258   20.4671 C   0  0  0  0  0  0
  -22.7220  -10.2139   20.3072 C   0  0  0  0  0  0
  -21.6877   -6.0764   22.5302 C   0  0  0  0  0  0
  -21.4045   -6.5669   23.8239 C   0  0  0  0  0  0
  -21.3624   -5.6801   24.9186 C   0  0  0  0  0  0
  -21.6001   -4.3069   24.7228 C   0  0  0  0  0  0
  -21.8834   -3.8171   23.4358 C   0  0  0  0  0  0
  -21.9210   -4.6991   22.3419 C   0  0  0  0  0  0
  -22.7845  -13.5249   21.1816 C   0  0  0  0  0  0
  -22.1686   -4.2176   21.0999 F   0  0  0  0  0  0
  -21.5555   -3.4554   25.7735 F   0  0  0  0  0  0
  -30.0220  -13.3845   20.4453 N   0  0  0  0  0  0
  -26.3040  -12.9327   20.3480 N   0  0  0  0  0  0
  -25.9314  -11.6484   20.5824 N   0  0  0  0  0  0
  -22.0460  -12.8290   22.0386 N   0  0  0  0  0  0
  -25.4296  -15.1892   20.4095 N   0  0  0  0  0  0
  -31.7407  -14.7999   20.0695 O   0  0  0  0  0  0
  -21.6657   -6.8896   21.4260 O   0  0  0  0  0  0
  -22.3568  -14.5571   20.6656 O   0  0  0  0  0  0
  -24.6289  -31.8522   23.1965 C   0  0  0  0  0  0
  -25.9121  -32.4711   23.8329 C   0  0  1  0  0  0
  -27.2471  -27.3212   20.1001 C   0  0  0  0  0  0
  -25.5899  -33.8520   24.2249 N   0  0  0  0  0  0
  -23.4250  -30.4707   21.5380 C   0  0  2  0  0  0
  -24.8743  -28.9083   20.1220 C   0  0  0  0  0  0
  -22.7488  -29.4551   22.4897 C   0  0  0  0  0  0
  -18.0280  -28.1352   22.8436 C   0  0  0  0  0  0
  -24.1471  -36.7305   23.2644 C   0  0  0  0  0  0
  -25.9658  -30.7805   21.3658 C   0  0  0  0  0  0
  -26.0449  -29.4046   20.7143 C   0  0  0  0  0  0
  -27.2378  -28.6264   20.6813 C   0  0  0  0  0  0
  -26.0508  -26.8548   19.5179 C   0  0  0  0  0  0
  -24.8788  -27.6378   19.5185 C   0  0  0  0  0  0
  -23.6446  -29.7936   20.1583 C   0  0  0  0  0  0
  -25.4081  -36.3042   24.0331 C   0  0  1  0  0  0
  -20.5887  -28.3659   23.1239 C   0  0  2  0  0  0
  -20.6757  -26.9372   22.5380 C   0  0  0  0  0  0
  -19.5752  -26.6351   21.5162 C   0  0  0  0  0  0
  -18.1933  -26.7885   22.1583 C   0  0  0  0  0  0
  -19.1542  -28.8827   23.2831 C   0  0  0  0  0  0
  -18.9485  -30.1433   23.8846 C   0  0  0  0  0  0
  -17.6498  -30.6561   24.0543 C   0  0  0  0  0  0
  -25.9016  -34.9411   23.5089 C   0  0  0  0  0  0
  -16.5378  -29.9061   23.6319 C   0  0  0  0  0  0
  -16.7276  -28.6486   23.0305 C   0  0  0  0  0  0
  -26.4487  -31.6543   25.0732 C   0  0  0  0  0  0
  -25.3691  -31.3745   26.1456 C   0  0  0  0  0  0
  -27.0370  -30.2956   24.6252 C   0  0  0  0  0  0
  -27.6053  -32.4291   25.7499 C   0  0  0  0  0  0
  -27.5556  -37.1782   24.8451 C   0  0  0  0  0  0
  -21.4192  -29.3026   22.3663 N   0  0  0  0  0  0
  -26.4257  -37.3743   23.9408 N   0  0  0  0  0  0
  -24.6923  -31.0507   22.0915 N   0  0  0  0  0  0
  -23.4199  -28.8063   23.2971 O   0  0  0  0  0  0
  -28.3966  -26.5306   20.0222 O   0  0  0  0  0  0
  -26.5615  -34.8890   22.4672 O   0  0  0  0  0  0
  -23.5446  -32.1316   23.7289 O   0  0  0  0  0  0
  -29.3360  -19.4826   21.5104 C   0  0  0  0  0  0
  -30.3014  -17.7427   19.6728 C   0  0  0  0  0  0
  -29.5355  -19.9287   20.1778 C   0  0  0  0  0  0
  -30.0411  -17.2894   20.9941 C   0  0  0  0  0  0
  -32.6632  -22.5954   22.0834 C   0  0  0  0  0  0
  -28.9506  -21.2907   19.6229 C   0  0  0  0  0  0
  -31.1451  -22.7000   21.9017 C   0  0  0  0  0  0
  -30.7149  -22.8588   20.4334 C   0  0  0  0  0  0
  -28.5518  -23.8618   19.6662 C   0  0  0  0  0  0
  -28.3998  -25.1666   20.5909 C   0  0  0  0  0  0
  -30.0234  -15.7891   21.4752 C   0  0  0  0  0  0
  -30.0559  -19.0375   19.2767 N   0  0  0  0  0  0
  -29.5956  -18.2030   21.9106 N   0  0  0  0  0  0
  -29.2516  -22.6371   20.2785 N   0  3  1  0  0  0
  -30.6223  -15.7315   22.6676 F   0  0  0  0  0  0
  -28.7221  -15.5961   21.6735 F   0  0  0  0  0  0
  -31.4770  -12.5809   19.0849 H   0  0  0  0  0  0
  -30.4433  -11.3985   19.8188 H   0  0  0  0  0  0
  -29.7418  -11.7866   17.4543 H   0  0  0  0  0  0
  -29.6283  -13.5058   17.7364 H   0  0  0  0  0  0
  -27.8333  -11.3132   18.8261 H   0  0  0  0  0  0
  -27.3564  -12.6402   17.8032 H   0  0  0  0  0  0
  -27.7064  -14.2531   19.5992 H   0  0  0  0  0  0
  -28.7561  -11.8955   21.2281 H   0  0  0  0  0  0
  -28.4664  -13.4242   21.9400 H   0  0  0  0  0  0
  -25.2736   -9.5740   22.4806 H   0  0  0  0  0  0
  -24.0006   -7.4677   22.7526 H   0  0  0  0  0  0
  -21.0822   -8.8770   19.9010 H   0  0  0  0  0  0
  -22.3649  -10.9688   19.6202 H   0  0  0  0  0  0
  -21.2109   -7.6190   23.9765 H   0  0  0  0  0  0
  -21.1381   -6.0527   25.9075 H   0  0  0  0  0  0
  -22.0646   -2.7641   23.2862 H   0  0  0  0  0  0
  -22.4005  -11.9914   22.4763 H   0  0  0  0  0  0
  -21.1110  -13.1409   22.2611 H   0  0  0  0  0  0
  -24.6637  -15.8444   20.5269 H   0  0  0  0  0  0
  -26.2843  -15.6337   20.1016 H   0  0  0  0  0  0
  -26.7199  -32.5372   23.1088 H   0  0  0  0  0  0
  -25.0012  -33.9628   25.0375 H   0  0  0  0  0  0
  -22.7215  -31.2903   21.3824 H   0  0  0  0  0  0
  -23.3690  -35.9674   23.3292 H   0  0  0  0  0  0
  -24.3562  -36.8939   22.2053 H   0  0  0  0  0  0
  -23.7274  -37.6526   23.6686 H   0  0  0  0  0  0
  -26.0908  -31.5353   20.5900 H   0  0  0  0  0  0
  -26.8486  -30.8354   21.9912 H   0  0  0  0  0  0
  -28.1523  -29.0129   21.1106 H   0  0  0  0  0  0
  -26.0312  -25.8817   19.0474 H   0  0  0  0  0  0
  -23.9829  -27.2516   19.0508 H   0  0  0  0  0  0
  -23.7697  -30.5622   19.3956 H   0  0  0  0  0  0
  -22.7678  -29.2200   19.8545 H   0  0  0  0  0  0
  -25.1245  -36.1877   25.0822 H   0  0  0  0  0  0
  -20.9971  -28.3232   24.1357 H   0  0  0  0  0  0
  -20.5569  -26.2275   23.3584 H   0  0  0  0  0  0
  -21.6630  -26.7310   22.1230 H   0  0  0  0  0  0
  -19.6908  -25.6249   21.1211 H   0  0  0  0  0  0
  -19.6705  -27.3138   20.6673 H   0  0  0  0  0  0
  -17.4175  -26.6581   21.4013 H   0  0  0  0  0  0
  -18.0376  -26.0022   22.8992 H   0  0  0  0  0  0
  -19.7979  -30.7255   24.2157 H   0  0  0  0  0  0
  -17.5061  -31.6222   24.5183 H   0  0  0  0  0  0
  -15.5376  -30.2970   23.7671 H   0  0  0  0  0  0
  -15.8657  -28.0837   22.6992 H   0  0  0  0  0  0
  -24.5850  -30.7092   25.7817 H   0  0  0  0  0  0
  -24.8903  -32.2950   26.4827 H   0  0  0  0  0  0
  -25.7982  -30.8972   27.0277 H   0  0  0  0  0  0
  -26.3002  -29.6659   24.1262 H   0  0  0  0  0  0
  -27.4029  -29.7249   25.4804 H   0  0  0  0  0  0
  -27.8862  -30.4208   23.9534 H   0  0  0  0  0  0
  -27.2671  -33.3601   26.2064 H   0  0  0  0  0  0
  -28.3890  -32.6823   25.0342 H   0  0  0  0  0  0
  -28.0703  -31.8416   26.5425 H   0  0  0  0  0  0
  -28.2533  -38.0108   24.7492 H   0  0  0  0  0  0
  -28.1085  -36.2633   24.6265 H   0  0  0  0  0  0
  -27.2301  -37.1430   25.8861 H   0  0  0  0  0  0
  -20.9377  -29.8841   21.6952 H   0  0  0  0  0  0
  -26.0125  -38.2810   24.1433 H   0  0  0  0  0  0
  -28.8988  -20.1320   22.2556 H   0  0  0  0  0  0
  -30.6409  -17.0575   18.9104 H   0  0  0  0  0  0
  -32.9218  -22.6385   23.1419 H   0  0  0  0  0  0
  -33.1916  -23.4077   21.5852 H   0  0  0  0  0  0
  -33.0365  -21.6504   21.6870 H   0  0  0  0  0  0
  -27.8686  -21.1501   19.6163 H   0  0  0  0  0  0
  -29.2353  -21.3595   18.5717 H   0  0  0  0  0  0
  -30.7679  -23.5424   22.4868 H   0  0  0  0  0  0
  -30.6968  -21.8031   22.3300 H   0  0  0  0  0  0
  -31.2769  -22.1801   19.7874 H   0  0  0  0  0  0
  -30.9860  -23.8612   20.0961 H   0  0  0  0  0  0
  -29.0609  -24.1193   18.7371 H   0  0  0  0  0  0
  -27.5501  -23.5684   19.3514 H   0  0  0  0  0  0
  -29.2510  -25.1902   21.2699 H   0  0  0  0  0  0
  -27.5394  -25.0500   21.2513 H   0  0  0  0  0  0
  -28.8781  -22.5497   21.2101 H   0  0  0  0  0  0
  1 25  1  0  0  0
  1 30  2  0  0  0
  1 81  1  0  0  0
  2  3  1  0  0  0
  2 25  1  0  0  0
  2 87  1  0  0  0
  2 88  1  0  0  0
  3  4  1  0  0  0
  3 89  1  0  0  0
  3 90  1  0  0  0
  4  5  1  0  0  0
  4 91  1  0  0  0
  4 92  1  0  0  0
  5  6  1  0  0  0
  5 26  1  0  0  0
  5 93  1  0  0  0
  6 25  1  0  0  0
  6 94  1  0  0  0
  6 95  1  0  0  0
  7  8  2  0  0  0
  7 26  1  0  0  0
  7 29  1  0  0  0
  8  9  1  0  0  0
  8 22  1  0  0  0
  9 10  1  0  0  0
  9 27  2  0  0  0
 10 11  2  0  0  0
 10 15  1  0  0  0
 11 12  1  0  0  0
 11 96  1  0  0  0
 12 13  2  0  0  0
 12 97  1  0  0  0
 13 14  1  0  0  0
 13 31  1  0  0  0
 14 15  2  0  0  0
 14 98  1  0  0  0
 15 99  1  0  0  0
 16 17  2  0  0  0
 16 21  1  0  0  0
 16 31  1  0  0  0
 17 18  1  0  0  0
 17100  1  0  0  0
 18 19  2  0  0  0
 18101  1  0  0  0
 19 20  1  0  0  0
 19 24  1  0  0  0
 20 21  2  0  0  0
 20102  1  0  0  0
 21 23  1  0  0  0
 22 28  1  0  0  0
 22 32  2  0  0  0
 26 27  1  0  0  0
 28103  1  0  0  0
 28104  1  0  0  0
 29105  1  0  0  0
 29106  1  0  0  0
 33 34  1  0  0  0
 33 66  1  0  0  0
 33 70  2  0  0  0
 34 36  1  0  0  0
 34 59  1  0  0  0
 34107  1  0  0  0
 35 44  2  0  0  0
 35 45  1  0  0  0
 35 68  1  0  0  0
 36 56  1  0  0  0
 36108  1  0  0  0
 37 39  1  0  0  0
 37 47  1  0  0  0
 37 66  1  0  0  0
 37109  1  0  0  0
 38 43  2  0  0  0
 38 46  1  0  0  0
 38 47  1  0  0  0
 39 64  1  0  0  0
 39 67  2  0  0  0
 40 52  1  0  0  0
 40 53  2  0  0  0
 40 58  1  0  0  0
 41110  1  0  0  0
 41111  1  0  0  0
 41112  1  0  0  0
 41 48  1  0  0  0
 42 43  1  0  0  0
 42 66  1  0  0  0
 42113  1  0  0  0
 42114  1  0  0  0
 43 44  1  0  0  0
 44115  1  0  0  0
 45 46  2  0  0  0
 45116  1  0  0  0
 46117  1  0  0  0
 47118  1  0  0  0
 47119  1  0  0  0
 48 56  1  0  0  0
 48 65  1  0  0  0
 48120  1  0  0  0
 49 50  1  0  0  0
 49 53  1  0  0  0
 49 64  1  0  0  0
 49121  1  0  0  0
 50 51  1  0  0  0
 50122  1  0  0  0
 50123  1  0  0  0
 51 52  1  0  0  0
 51124  1  0  0  0
 51125  1  0  0  0
 52126  1  0  0  0
 52127  1  0  0  0
 53 54  1  0  0  0
 54 55  2  0  0  0
 54128  1  0  0  0
 55 57  1  0  0  0
 55129  1  0  0  0
 56 69  2  0  0  0
 57 58  2  0  0  0
 57130  1  0  0  0
 58131  1  0  0  0
 59 60  1  0  0  0
 59 61  1  0  0  0
 59 62  1  0  0  0
 60132  1  0  0  0
 60133  1  0  0  0
 60134  1  0  0  0
 61135  1  0  0  0
 61136  1  0  0  0
 61137  1  0  0  0
 62138  1  0  0  0
 62139  1  0  0  0
 62140  1  0  0  0
 63 65  1  0  0  0
 63141  1  0  0  0
 63142  1  0  0  0
 63143  1  0  0  0
 64144  1  0  0  0
 65145  1  0  0  0
 68 80  1  0  0  0
 71 73  2  0  0  0
 71 83  1  0  0  0
 71146  1  0  0  0
 72 74  1  0  0  0
 72 82  2  0  0  0
 72147  1  0  0  0
 73 76  1  0  0  0
 73 82  1  0  0  0
 74 81  1  0  0  0
 74 83  2  0  0  0
 75 77  1  0  0  0
 75148  1  0  0  0
 75149  1  0  0  0
 75150  1  0  0  0
 76151  1  0  0  0
 76152  1  0  0  0
 76 84  1  0  0  0
 77 78  1  0  0  0
 77153  1  0  0  0
 77154  1  0  0  0
 78 84  1  0  0  0
 78155  1  0  0  0
 78156  1  0  0  0
 79 80  1  0  0  0
 79 84  1  0  0  0
 79157  1  0  0  0
 79158  1  0  0  0
 80159  1  0  0  0
 80160  1  0  0  0
 81 85  1  0  0  0
 81 86  1  0  0  0
 84161  1  0  0  0
M  CHG  1  84   1
M  ISO  4   1 100  68 101  80 101  81 100
M  END
> <chiral flag>
0

> <version>
0

> <s_m_source_file>
/data/baiqing/PycharmProjects/Reinvent-master-3.2/result/LINK_invent/BTK/process_docking_weight1_custom_sum_contain_oxygen_bond_distance_aromatic_linkinvent_7_9_3/rearranged_h_0053.sdf

> <i_m_source_file_index>
60

> <r_mmod_Potential_Energy-OPLS-2005>
195.528121948242

> <r_mmod_Stretch_Energy-OPLS-2005>
93.2733306884766

> <r_mmod_Bend_Energy-OPLS-2005>
167.187683105469

> <r_mmod_Torsional_Energy-OPLS-2005>
213.402816772461

> <r_mmod_Improper_Torsional_Energy-OPLS-2005>
3.86240172386169

> <r_mmod_Van_der_Waal_Energy-OPLS-2005>
143.655654907227

> <r_mmod_Electrostatic_Energy-OPLS-2005>
-42.2814788818359

> <r_mmod_Solvation_Energy-OPLS-2005>
-421.137969970703

> <b_mmod_Minimization_Converged-OPLS-2005>
0

> <r_mmod_RMS_Derivative-OPLS-2005>
4.63283824920654

$$$$
61
                    3D
 Structure written by MMmdl.
175183  0  0  1  0            999 V2000
  -30.8209  -14.3810   20.6485 C   0  0  0  0  0  0
  -30.3854  -12.2727   19.4373 C   0  0  0  0  0  0
  -29.5029  -12.5286   18.2071 C   0  0  0  0  0  0
  -28.0188  -12.3986   18.5844 C   0  0  0  0  0  0
  -27.6564  -13.2248   19.8455 C   0  0  2  0  0  0
  -28.6821  -13.0321   20.9765 C   0  0  0  0  0  0
  -25.2561  -13.8111   20.5536 C   0  0  0  0  0  0
  -24.1836  -13.0354   20.9057 C   0  0  0  0  0  0
  -24.6422  -11.6860   20.8579 C   0  0  0  0  0  0
  -23.9020  -10.4276   21.0279 C   0  0  0  0  0  0
  -24.3601   -9.4245   21.9101 C   0  0  0  0  0  0
  -23.6285   -8.2294   22.0734 C   0  0  0  0  0  0
  -22.4268   -8.0261   21.3526 C   0  0  0  0  0  0
  -21.9855   -9.0202   20.4614 C   0  0  0  0  0  0
  -22.7164  -10.2101   20.2993 C   0  0  0  0  0  0
  -21.6890   -6.0678   22.5254 C   0  0  0  0  0  0
  -21.4037   -6.5588   23.8185 C   0  0  0  0  0  0
  -21.3672   -5.6765   24.9170 C   0  0  0  0  0  0
  -21.6077   -4.3017   24.7230 C   0  0  0  0  0  0
  -21.8839   -3.8090   23.4357 C   0  0  0  0  0  0
  -21.9224   -4.6896   22.3393 C   0  0  0  0  0  0
  -22.7882  -13.5168   21.1769 C   0  0  0  0  0  0
  -22.1659   -4.2066   21.0971 F   0  0  0  0  0  0
  -21.5671   -3.4513   25.7749 F   0  0  0  0  0  0
  -30.0419  -13.2740   20.4636 N   0  0  0  0  0  0
  -26.3007  -12.9347   20.3115 N   0  0  0  0  0  0
  -25.9341  -11.6473   20.5549 N   0  0  0  0  0  0
  -22.0500  -12.8202   22.0339 N   0  0  0  0  0  0
  -25.4266  -15.1812   20.3971 N   0  0  0  0  0  0
  -31.8419  -14.5745   19.9787 O   0  0  0  0  0  0
  -21.6702   -6.8805   21.4198 O   0  0  0  0  0  0
  -22.3579  -14.5465   20.6585 O   0  0  0  0  0  0
  -24.6061  -31.8731   23.2126 C   0  0  0  0  0  0
  -25.8968  -32.4858   23.8421 C   0  0  1  0  0  0
  -27.2484  -27.4883   20.1215 C   0  0  0  0  0  0
  -25.5834  -33.8652   24.2348 N   0  0  0  0  0  0
  -23.3929  -30.4916   21.5508 C   0  0  2  0  0  0
  -24.8474  -28.9681   20.1145 C   0  0  0  0  0  0
  -22.7374  -29.4658   22.5035 C   0  0  0  0  0  0
  -18.0258  -28.1364   22.8500 C   0  0  0  0  0  0
  -24.1473  -36.7326   23.2640 C   0  0  0  0  0  0
  -25.9104  -30.8643   21.3515 C   0  0  0  0  0  0
  -25.9957  -29.4983   20.7097 C   0  0  0  0  0  0
  -27.2001  -28.7710   20.7130 C   0  0  0  0  0  0
  -26.0907  -26.9705   19.5077 C   0  0  0  0  0  0
  -24.8877  -27.7007   19.5031 C   0  0  0  0  0  0
  -23.5998  -29.8186   20.1657 C   0  0  0  0  0  0
  -25.4096  -36.3135   24.0347 C   0  0  1  0  0  0
  -20.5843  -28.3624   23.1351 C   0  0  2  0  0  0
  -20.6743  -26.9375   22.5436 C   0  0  0  0  0  0
  -19.5728  -26.6381   21.5223 C   0  0  0  0  0  0
  -18.1900  -26.7911   22.1624 C   0  0  0  0  0  0
  -19.1505  -28.8820   23.2916 C   0  0  0  0  0  0
  -18.9435  -30.1434   23.8918 C   0  0  0  0  0  0
  -17.6443  -30.6576   24.0570 C   0  0  0  0  0  0
  -25.9019  -34.9500   23.5151 C   0  0  0  0  0  0
  -16.5336  -29.9086   23.6329 C   0  0  0  0  0  0
  -16.7251  -28.6499   23.0356 C   0  0  0  0  0  0
  -26.4441  -31.6611   25.0708 C   0  0  0  0  0  0
  -25.3736  -31.3675   26.1472 C   0  0  0  0  0  0
  -27.0256  -30.3072   24.5997 C   0  0  0  0  0  0
  -27.6022  -32.4325   25.7462 C   0  0  0  0  0  0
  -27.5585  -37.1807   24.8464 C   0  0  0  0  0  0
  -21.4112  -29.3002   22.3766 N   0  0  0  0  0  0
  -26.4290  -37.3818   23.9422 N   0  0  0  0  0  0
  -24.6539  -31.0891   22.0975 N   0  0  0  0  0  0
  -23.4185  -28.8219   23.3061 O   0  0  0  0  0  0
  -28.3727  -26.7029   20.1072 O   0  0  0  0  0  0
  -26.5601  -34.8939   22.4725 O   0  0  0  0  0  0
  -23.5278  -32.1436   23.7571 O   0  0  0  0  0  0
  -30.0452  -20.0617   20.7060 C   0  0  0  0  0  0
  -29.5714  -20.9000   19.7231 C   0  0  0  0  0  0
  -28.4123  -18.9847   19.6578 C   0  0  0  0  0  0
  -27.3822  -17.9730   19.2629 C   0  0  0  0  0  0
  -30.0190  -14.0900   23.7152 C   0  0  0  0  0  0
  -32.3006  -15.0370   23.1921 C   0  0  0  0  0  0
  -31.1890  -24.9727   19.2314 C   0  0  0  0  0  0
  -29.9532  -22.3059   19.3302 C   0  0  0  0  0  0
  -29.4585  -17.7135   21.5317 C   0  0  0  0  0  0
  -30.5719  -16.7401   21.0669 C   0  0  0  0  0  0
  -29.7535  -23.3157   20.4848 C   0  0  0  0  0  0
  -30.1067  -25.6192   21.3511 C   0  0  0  0  0  0
  -29.3696  -26.9438   21.1066 C   0  0  0  0  0  0
  -30.7776  -15.2049   22.9733 C   0  0  0  0  0  0
  -29.3174  -18.8955   20.6490 N   0  0  0  0  0  0
  -28.5971  -20.1785   19.0768 N   0  3  0  0  0  0
  -30.4141  -15.3337   21.5347 N   0  0  0  0  0  0
  -30.0453  -24.7442   20.1491 N   0  3  1  0  0  0
  -31.4409  -12.2867   19.1601 H   0  0  0  0  0  0
  -30.2008  -11.2699   19.8226 H   0  0  0  0  0  0
  -29.7520  -11.8310   17.4067 H   0  0  0  0  0  0
  -29.6973  -13.5297   17.8206 H   0  0  0  0  0  0
  -27.8045  -11.3415   18.7434 H   0  0  0  0  0  0
  -27.4012  -12.7133   17.7439 H   0  0  0  0  0  0
  -27.6975  -14.2741   19.5475 H   0  0  0  0  0  0
  -28.6252  -12.0230   21.3873 H   0  0  0  0  0  0
  -28.3973  -13.7086   21.7733 H   0  0  0  0  0  0
  -25.2786   -9.5797   22.4618 H   0  0  0  0  0  0
  -24.0026   -7.4769   22.7520 H   0  0  0  0  0  0
  -21.0784   -8.8672   19.8953 H   0  0  0  0  0  0
  -22.3554  -10.9603   19.6088 H   0  0  0  0  0  0
  -21.1999   -7.6104   23.9648 H   0  0  0  0  0  0
  -21.1480   -6.0505   25.9071 H   0  0  0  0  0  0
  -22.0606   -2.7534   23.2915 H   0  0  0  0  0  0
  -22.4035  -11.9876   22.4830 H   0  0  0  0  0  0
  -21.1137  -13.1309   22.2476 H   0  0  0  0  0  0
  -24.6638  -15.8466   20.4749 H   0  0  0  0  0  0
  -26.3001  -15.6009   20.1106 H   0  0  0  0  0  0
  -26.7049  -32.5622   23.1219 H   0  0  0  0  0  0
  -24.9947  -33.9829   25.0462 H   0  0  0  0  0  0
  -22.6770  -31.3030   21.4110 H   0  0  0  0  0  0
  -23.3736  -35.9659   23.3334 H   0  0  0  0  0  0
  -24.3562  -36.8907   22.2046 H   0  0  0  0  0  0
  -23.7223  -37.6541   23.6632 H   0  0  0  0  0  0
  -25.9993  -31.6283   20.5782 H   0  0  0  0  0  0
  -26.8042  -30.9353   21.9573 H   0  0  0  0  0  0
  -28.0755  -29.2142   21.1655 H   0  0  0  0  0  0
  -26.1211  -25.9941   19.0445 H   0  0  0  0  0  0
  -24.0072  -27.2875   19.0315 H   0  0  0  0  0  0
  -23.6907  -30.5877   19.3984 H   0  0  0  0  0  0
  -22.7316  -29.2211   19.8819 H   0  0  0  0  0  0
  -25.1271  -36.2015   25.0843 H   0  0  0  0  0  0
  -20.9922  -28.3188   24.1475 H   0  0  0  0  0  0
  -20.5637  -26.2242   23.3610 H   0  0  0  0  0  0
  -21.6618  -26.7417   22.1233 H   0  0  0  0  0  0
  -19.6883  -25.6299   21.1228 H   0  0  0  0  0  0
  -19.6675  -27.3214   20.6767 H   0  0  0  0  0  0
  -17.4180  -26.6684   21.4021 H   0  0  0  0  0  0
  -18.0286  -26.0047   22.9000 H   0  0  0  0  0  0
  -19.7921  -30.7247   24.2299 H   0  0  0  0  0  0
  -17.4999  -31.6263   24.5152 H   0  0  0  0  0  0
  -15.5336  -30.2996   23.7637 H   0  0  0  0  0  0
  -15.8641  -28.0821   22.7069 H   0  0  0  0  0  0
  -24.5904  -30.7024   25.7815 H   0  0  0  0  0  0
  -24.8927  -32.2814   26.4973 H   0  0  0  0  0  0
  -25.8118  -30.8816   27.0198 H   0  0  0  0  0  0
  -26.2756  -29.6846   24.1091 H   0  0  0  0  0  0
  -27.4111  -29.7283   25.4402 H   0  0  0  0  0  0
  -27.8557  -30.4430   23.9054 H   0  0  0  0  0  0
  -27.2632  -33.3604   26.2082 H   0  0  0  0  0  0
  -28.3800  -32.6924   25.0267 H   0  0  0  0  0  0
  -28.0718  -31.8423   26.5341 H   0  0  0  0  0  0
  -28.2600  -38.0110   24.7544 H   0  0  0  0  0  0
  -28.1084  -36.2648   24.6250 H   0  0  0  0  0  0
  -27.2306  -37.1406   25.8866 H   0  0  0  0  0  0
  -20.9269  -29.8720   21.6977 H   0  0  0  0  0  0
  -26.0190  -38.2896   24.1450 H   0  0  0  0  0  0
  -30.8325  -20.2212   21.4345 H   0  0  0  0  0  0
  -26.8341  -17.6683   20.1529 H   0  0  0  0  0  0
  -27.8746  -17.1190   18.7987 H   0  0  0  0  0  0
  -26.6814  -18.4281   18.5651 H   0  0  0  0  0  0
  -30.3459  -14.0090   24.7523 H   0  0  0  0  0  0
  -30.1688  -13.1115   23.2607 H   0  0  0  0  0  0
  -28.9497  -14.2924   23.7469 H   0  0  0  0  0  0
  -32.5432  -15.0559   24.2552 H   0  0  0  0  0  0
  -32.8773  -15.8408   22.7308 H   0  0  0  0  0  0
  -32.6699  -14.0879   22.8022 H   0  0  0  0  0  0
  -30.9193  -24.7367   18.2002 H   0  0  0  0  0  0
  -32.0544  -24.3744   19.5154 H   0  0  0  0  0  0
  -31.5003  -26.0175   19.2407 H   0  0  0  0  0  0
  -29.3798  -22.6196   18.4575 H   0  0  0  0  0  0
  -31.0025  -22.2900   19.0375 H   0  0  0  0  0  0
  -29.6912  -18.0895   22.5263 H   0  0  0  0  0  0
  -28.4925  -17.2174   21.6119 H   0  0  0  0  0  0
  -31.5443  -17.1292   21.3808 H   0  0  0  0  0  0
  -30.6017  -16.7715   19.9756 H   0  0  0  0  0  0
  -30.3825  -23.0150   21.3253 H   0  0  0  0  0  0
  -28.7190  -23.2622   20.8338 H   0  0  0  0  0  0
  -29.6392  -25.1227   22.2019 H   0  0  0  0  0  0
  -31.1400  -25.8054   21.6482 H   0  0  0  0  0  0
  -30.0602  -27.7138   20.7605 H   0  0  0  0  0  0
  -28.9448  -27.2828   22.0562 H   0  0  0  0  0  0
  -30.5011  -16.1324   23.4693 H   0  0  0  0  0  0
  -28.0691  -20.4981   18.2705 H   0  0  0  0  0  0
  -29.2275  -25.0944   19.6613 H   0  0  0  0  0  0
  1 25  1  0  0  0
  1 30  2  0  0  0
  1 87  1  0  0  0
  2  3  1  0  0  0
  2 25  1  0  0  0
  2 89  1  0  0  0
  2 90  1  0  0  0
  3  4  1  0  0  0
  3 91  1  0  0  0
  3 92  1  0  0  0
  4  5  1  0  0  0
  4 93  1  0  0  0
  4 94  1  0  0  0
  5  6  1  0  0  0
  5 26  1  0  0  0
  5 95  1  0  0  0
  6 25  1  0  0  0
  6 96  1  0  0  0
  6 97  1  0  0  0
  7  8  2  0  0  0
  7 26  1  0  0  0
  7 29  1  0  0  0
  8  9  1  0  0  0
  8 22  1  0  0  0
  9 10  1  0  0  0
  9 27  2  0  0  0
 10 11  2  0  0  0
 10 15  1  0  0  0
 11 12  1  0  0  0
 11 98  1  0  0  0
 12 13  2  0  0  0
 12 99  1  0  0  0
 13 14  1  0  0  0
 13 31  1  0  0  0
 14 15  2  0  0  0
 14100  1  0  0  0
 15101  1  0  0  0
 16 17  2  0  0  0
 16 21  1  0  0  0
 16 31  1  0  0  0
 17 18  1  0  0  0
 17102  1  0  0  0
 18 19  2  0  0  0
 18103  1  0  0  0
 19 20  1  0  0  0
 19 24  1  0  0  0
 20 21  2  0  0  0
 20104  1  0  0  0
 21 23  1  0  0  0
 22 28  1  0  0  0
 22 32  2  0  0  0
 26 27  1  0  0  0
 28105  1  0  0  0
 28106  1  0  0  0
 29107  1  0  0  0
 29108  1  0  0  0
 33 34  1  0  0  0
 33 66  1  0  0  0
 33 70  2  0  0  0
 34 36  1  0  0  0
 34 59  1  0  0  0
 34109  1  0  0  0
 35 44  2  0  0  0
 35 45  1  0  0  0
 35 68  1  0  0  0
 36 56  1  0  0  0
 36110  1  0  0  0
 37 39  1  0  0  0
 37 47  1  0  0  0
 37 66  1  0  0  0
 37111  1  0  0  0
 38 43  2  0  0  0
 38 46  1  0  0  0
 38 47  1  0  0  0
 39 64  1  0  0  0
 39 67  2  0  0  0
 40 52  1  0  0  0
 40 53  2  0  0  0
 40 58  1  0  0  0
 41112  1  0  0  0
 41113  1  0  0  0
 41114  1  0  0  0
 41 48  1  0  0  0
 42 43  1  0  0  0
 42 66  1  0  0  0
 42115  1  0  0  0
 42116  1  0  0  0
 43 44  1  0  0  0
 44117  1  0  0  0
 45 46  2  0  0  0
 45118  1  0  0  0
 46119  1  0  0  0
 47120  1  0  0  0
 47121  1  0  0  0
 48 56  1  0  0  0
 48 65  1  0  0  0
 48122  1  0  0  0
 49 50  1  0  0  0
 49 53  1  0  0  0
 49 64  1  0  0  0
 49123  1  0  0  0
 50 51  1  0  0  0
 50124  1  0  0  0
 50125  1  0  0  0
 51 52  1  0  0  0
 51126  1  0  0  0
 51127  1  0  0  0
 52128  1  0  0  0
 52129  1  0  0  0
 53 54  1  0  0  0
 54 55  2  0  0  0
 54130  1  0  0  0
 55 57  1  0  0  0
 55131  1  0  0  0
 56 69  2  0  0  0
 57 58  2  0  0  0
 57132  1  0  0  0
 58133  1  0  0  0
 59 60  1  0  0  0
 59 61  1  0  0  0
 59 62  1  0  0  0
 60134  1  0  0  0
 60135  1  0  0  0
 60136  1  0  0  0
 61137  1  0  0  0
 61138  1  0  0  0
 61139  1  0  0  0
 62140  1  0  0  0
 62141  1  0  0  0
 62142  1  0  0  0
 63 65  1  0  0  0
 63143  1  0  0  0
 63144  1  0  0  0
 63145  1  0  0  0
 64146  1  0  0  0
 65147  1  0  0  0
 68 83  1  0  0  0
 71 72  2  0  0  0
 71 85  1  0  0  0
 71148  1  0  0  0
 72 78  1  0  0  0
 72 86  1  0  0  0
 73 74  1  0  0  0
 73 85  1  0  0  0
 73 86  2  0  0  0
 74149  1  0  0  0
 74150  1  0  0  0
 74151  1  0  0  0
 75152  1  0  0  0
 75153  1  0  0  0
 75154  1  0  0  0
 75 84  1  0  0  0
 76 84  1  0  0  0
 76155  1  0  0  0
 76156  1  0  0  0
 76157  1  0  0  0
 77158  1  0  0  0
 77159  1  0  0  0
 77160  1  0  0  0
 77 88  1  0  0  0
 78 81  1  0  0  0
 78161  1  0  0  0
 78162  1  0  0  0
 79 80  1  0  0  0
 79 85  1  0  0  0
 79163  1  0  0  0
 79164  1  0  0  0
 80 87  1  0  0  0
 80165  1  0  0  0
 80166  1  0  0  0
 81 88  1  0  0  0
 81167  1  0  0  0
 81168  1  0  0  0
 82 83  1  0  0  0
 82 88  1  0  0  0
 82169  1  0  0  0
 82170  1  0  0  0
 83171  1  0  0  0
 83172  1  0  0  0
 84 87  1  0  0  0
 84173  1  0  0  0
 86174  1  0  0  0
 88175  1  0  0  0
M  CHG  2  86   1  88   1
M  ISO  4   1 100  68 101  83 101  87 100
M  END
> <chiral flag>
0

> <version>
0

> <s_m_source_file>
/data/baiqing/PycharmProjects/Reinvent-master-3.2/result/LINK_invent/BTK/process_docking_weight1_custom_sum_contain_oxygen_bond_distance_aromatic_linkinvent_7_9_3/rearranged_h_0053.sdf

> <i_m_source_file_index>
61

> <r_mmod_Potential_Energy-OPLS-2005>
26.6266174316406

> <r_mmod_Stretch_Energy-OPLS-2005>
41.2700462341309

> <r_mmod_Bend_Energy-OPLS-2005>
117.692276000977

> <r_mmod_Torsional_Energy-OPLS-2005>
331.79052734375

> <r_mmod_Improper_Torsional_Energy-OPLS-2005>
6.12432479858398

> <r_mmod_Van_der_Waal_Energy-OPLS-2005>
144.386428833008

> <r_mmod_Electrostatic_Energy-OPLS-2005>
227.041961669922

> <r_mmod_Solvation_Energy-OPLS-2005>
-852.385925292969

> <b_mmod_Minimization_Converged-OPLS-2005>
0

> <r_mmod_RMS_Derivative-OPLS-2005>
6.23762893676758

$$$$
62
                    3D
 Structure written by MMmdl.
147155  0  0  1  0            999 V2000
  -30.3888  -15.3971   20.3463 C   0  0  0  0  0  0
  -30.4339  -12.8978   19.5484 C   0  0  0  0  0  0
  -29.5443  -12.6073   18.3101 C   0  0  0  0  0  0
  -28.0993  -12.3033   18.7369 C   0  0  0  0  0  0
  -27.6072  -13.2885   19.8244 C   0  0  2  0  0  0
  -28.6316  -13.5173   20.9593 C   0  0  0  0  0  0
  -25.2361  -13.8265   20.5763 C   0  0  0  0  0  0
  -24.1728  -13.0437   20.9267 C   0  0  0  0  0  0
  -24.6402  -11.6940   20.8762 C   0  0  0  0  0  0
  -23.9101  -10.4293   21.0402 C   0  0  0  0  0  0
  -24.3643   -9.4207   21.9182 C   0  0  0  0  0  0
  -23.6308   -8.2246   22.0753 C   0  0  0  0  0  0
  -22.4289   -8.0285   21.3544 C   0  0  0  0  0  0
  -21.9932   -9.0260   20.4644 C   0  0  0  0  0  0
  -22.7270  -10.2134   20.3052 C   0  0  0  0  0  0
  -21.6857   -6.0739   22.5279 C   0  0  0  0  0  0
  -21.4018   -6.5642   23.8212 C   0  0  0  0  0  0
  -21.3660   -5.6794   24.9174 C   0  0  0  0  0  0
  -21.6044   -4.3056   24.7224 C   0  0  0  0  0  0
  -21.8818   -3.8149   23.4345 C   0  0  0  0  0  0
  -21.9194   -4.6966   22.3402 C   0  0  0  0  0  0
  -22.7743  -13.5180   21.1910 C   0  0  0  0  0  0
  -22.1662   -4.2151   21.0979 F   0  0  0  0  0  0
  -21.5628   -3.4539   25.7737 F   0  0  0  0  0  0
  -29.8510  -14.0617   20.3334 N   0  0  0  0  0  0
  -26.2798  -12.9563   20.3232 N   0  0  0  0  0  0
  -25.9344  -11.6654   20.5718 N   0  0  0  0  0  0
  -22.0406  -12.8158   22.0463 N   0  0  0  0  0  0
  -25.3979  -15.2003   20.4198 N   0  0  0  0  0  0
  -31.6026  -15.3823   20.0859 O   0  0  0  0  0  0
  -21.6647   -6.8885   21.4242 O   0  0  0  0  0  0
  -22.3420  -14.5480   20.6749 O   0  0  0  0  0  0
  -24.6705  -31.8140   23.1629 C   0  0  0  0  0  0
  -25.9349  -32.4537   23.8125 C   0  0  1  0  0  0
  -27.2230  -26.8400   20.1931 C   0  0  0  0  0  0
  -25.5982  -33.8357   24.2022 N   0  0  0  0  0  0
  -23.4904  -30.4212   21.5130 C   0  0  2  0  0  0
  -24.9475  -28.7926   20.1087 C   0  0  0  0  0  0
  -22.7706  -29.4385   22.4745 C   0  0  0  0  0  0
  -18.0329  -28.1414   22.8462 C   0  0  0  0  0  0
  -24.1495  -36.7185   23.2650 C   0  0  0  0  0  0
  -26.0637  -30.5903   21.4089 C   0  0  0  0  0  0
  -26.1304  -29.1712   20.7543 C   0  0  0  0  0  0
  -27.2557  -28.2160   20.7745 C   0  0  0  0  0  0
  -26.0157  -26.6424   19.4814 C   0  0  0  0  0  0
  -24.9213  -27.5515   19.4506 C   0  0  0  0  0  0
  -23.7361  -29.7298   20.1419 C   0  0  0  0  0  0
  -25.4140  -36.2937   24.0292 C   0  0  1  0  0  0
  -20.5958  -28.3764   23.1168 C   0  0  2  0  0  0
  -20.6800  -26.9436   22.5403 C   0  0  0  0  0  0
  -19.5775  -26.6374   21.5215 C   0  0  0  0  0  0
  -18.1958  -26.7945   22.1621 C   0  0  0  0  0  0
  -19.1592  -28.8912   23.2799 C   0  0  0  0  0  0
  -18.9501  -30.1498   23.8839 C   0  0  0  0  0  0
  -17.6492  -30.6600   24.0553 C   0  0  0  0  0  0
  -25.9110  -34.9323   23.4985 C   0  0  0  0  0  0
  -16.5383  -29.9085   23.6346 C   0  0  0  0  0  0
  -16.7310  -28.6506   23.0364 C   0  0  0  0  0  0
  -26.4572  -31.6521   25.0694 C   0  0  0  0  0  0
  -25.3673  -31.3800   26.1333 C   0  0  0  0  0  0
  -27.0487  -30.2875   24.6504 C   0  0  0  0  0  0
  -27.6043  -32.4356   25.7503 C   0  0  0  0  0  0
  -27.5568  -37.1750   24.8466 C   0  0  0  0  0  0
  -21.4366  -29.3035   22.3502 N   0  0  0  0  0  0
  -26.4277  -37.3684   23.9407 N   0  0  0  0  0  0
  -24.7634  -30.9715   22.0813 N   0  0  0  0  0  0
  -23.4213  -28.7969   23.3029 O   0  0  0  0  0  0
  -28.1937  -25.6818   20.3269 O   0  0  0  0  0  0
  -26.5735  -34.8875   22.4591 O   0  0  0  0  0  0
  -23.5755  -32.1154   23.6666 O   0  0  0  0  0  0
  -28.8567  -21.2182   22.4300 C   0  0  0  0  0  0
  -29.1890  -19.9327   20.5717 C   0  0  0  0  0  0
  -28.6301  -22.4698   20.5224 C   0  0  0  0  0  0
  -28.8130  -21.2279   23.9442 C   0  0  0  0  0  0
  -29.7658  -18.3386   20.0055 C   0  0  0  0  0  0
  -28.0642  -24.0518   19.8808 C   0  0  0  0  0  0
  -29.1159  -20.0122   21.8956 N   0  0  0  0  0  0
  -28.6290  -22.4113   21.8533 N   0  0  0  0  0  0
  -28.9281  -21.1901   19.8619 N   0  0  0  0  0  0
  -29.6269  -16.6949   20.4519 N   0  0  0  0  0  0
  -31.4491  -13.1114   19.2121 H   0  0  0  0  0  0
  -30.5228  -12.0099   20.1766 H   0  0  0  0  0  0
  -29.9503  -11.7749   17.7338 H   0  0  0  0  0  0
  -29.5539  -13.4742   17.6477 H   0  0  0  0  0  0
  -28.0778  -11.2860   19.1296 H   0  0  0  0  0  0
  -27.4324  -12.3142   17.8739 H   0  0  0  0  0  0
  -27.5058  -14.2414   19.3034 H   0  0  0  0  0  0
  -28.8262  -12.6000   21.5171 H   0  0  0  0  0  0
  -28.2429  -14.2401   21.6782 H   0  0  0  0  0  0
  -25.2783   -9.5682   22.4764 H   0  0  0  0  0  0
  -24.0011   -7.4638   22.7477 H   0  0  0  0  0  0
  -21.0862   -8.8784   19.8951 H   0  0  0  0  0  0
  -22.3727  -10.9675   19.6164 H   0  0  0  0  0  0
  -21.2012   -7.6150   23.9717 H   0  0  0  0  0  0
  -21.1482   -6.0524   25.9077 H   0  0  0  0  0  0
  -22.0596   -2.7611   23.2844 H   0  0  0  0  0  0
  -22.4045  -11.9831   22.4855 H   0  0  0  0  0  0
  -21.1015  -13.1158   22.2666 H   0  0  0  0  0  0
  -24.6244  -15.8474   20.5283 H   0  0  0  0  0  0
  -26.2339  -15.6406   20.0592 H   0  0  0  0  0  0
  -26.7421  -32.5047   23.0837 H   0  0  0  0  0  0
  -25.0059  -33.9420   25.0126 H   0  0  0  0  0  0
  -22.8082  -31.2551   21.3348 H   0  0  0  0  0  0
  -23.3771  -35.9501   23.3272 H   0  0  0  0  0  0
  -24.3567  -36.8878   22.2072 H   0  0  0  0  0  0
  -23.7239  -37.6353   23.6740 H   0  0  0  0  0  0
  -26.2549  -31.3256   20.6262 H   0  0  0  0  0  0
  -26.9193  -30.6502   22.0694 H   0  0  0  0  0  0
  -28.1422  -28.5009   21.3235 H   0  0  0  0  0  0
  -25.8707  -25.6996   18.9752 H   0  0  0  0  0  0
  -24.0261  -27.2570   18.9201 H   0  0  0  0  0  0
  -23.8973  -30.4957   19.3823 H   0  0  0  0  0  0
  -22.8444  -29.1877   19.8224 H   0  0  0  0  0  0
  -25.1343  -36.1719   25.0782 H   0  0  0  0  0  0
  -21.0045  -28.3381   24.1292 H   0  0  0  0  0  0
  -20.5672  -26.2386   23.3654 H   0  0  0  0  0  0
  -21.6663  -26.7396   22.1216 H   0  0  0  0  0  0
  -19.6933  -25.6269   21.1283 H   0  0  0  0  0  0
  -19.6717  -27.3152   20.6719 H   0  0  0  0  0  0
  -17.4227  -26.6687   21.4024 H   0  0  0  0  0  0
  -18.0350  -26.0101   22.9031 H   0  0  0  0  0  0
  -19.7976  -30.7330   24.2183 H   0  0  0  0  0  0
  -17.5043  -31.6274   24.5166 H   0  0  0  0  0  0
  -15.5380  -30.2968   23.7704 H   0  0  0  0  0  0
  -15.8711  -28.0805   22.7112 H   0  0  0  0  0  0
  -24.5876  -30.7128   25.7639 H   0  0  0  0  0  0
  -24.8839  -32.3010   26.4602 H   0  0  0  0  0  0
  -25.7882  -30.9070   27.0214 H   0  0  0  0  0  0
  -26.3178  -29.6520   24.1493 H   0  0  0  0  0  0
  -27.3960  -29.7280   25.5200 H   0  0  0  0  0  0
  -27.9142  -30.4031   23.9977 H   0  0  0  0  0  0
  -27.2597  -33.3713   26.1919 H   0  0  0  0  0  0
  -28.3937  -32.6830   25.0393 H   0  0  0  0  0  0
  -28.0621  -31.8594   26.5554 H   0  0  0  0  0  0
  -28.2560  -38.0068   24.7514 H   0  0  0  0  0  0
  -28.1089  -36.2592   24.6293 H   0  0  0  0  0  0
  -27.2282  -37.1389   25.8868 H   0  0  0  0  0  0
  -20.9640  -29.8710   21.6604 H   0  0  0  0  0  0
  -26.0116  -38.2737   24.1417 H   0  0  0  0  0  0
  -29.7627  -20.8845   24.3544 H   0  0  0  0  0  0
  -28.0258  -20.5663   24.3053 H   0  0  0  0  0  0
  -28.6194  -22.2253   24.3398 H   0  0  0  0  0  0
  -30.8443  -18.4839   19.9464 H   0  0  0  0  0  0
  -29.4542  -18.3323   18.9614 H   0  0  0  0  0  0
  -26.9897  -23.8920   19.8039 H   0  0  0  0  0  0
  -28.4031  -24.0434   18.8452 H   0  0  0  0  0  0
  -28.6805  -16.5176   20.7523 H   0  0  0  0  0  0
  1 25  1  0  0  0
  1 30  2  0  0  0
  1 80  1  0  0  0
  2  3  1  0  0  0
  2 25  1  0  0  0
  2 81  1  0  0  0
  2 82  1  0  0  0
  3  4  1  0  0  0
  3 83  1  0  0  0
  3 84  1  0  0  0
  4  5  1  0  0  0
  4 85  1  0  0  0
  4 86  1  0  0  0
  5  6  1  0  0  0
  5 26  1  0  0  0
  5 87  1  0  0  0
  6 25  1  0  0  0
  6 88  1  0  0  0
  6 89  1  0  0  0
  7  8  2  0  0  0
  7 26  1  0  0  0
  7 29  1  0  0  0
  8  9  1  0  0  0
  8 22  1  0  0  0
  9 10  1  0  0  0
  9 27  2  0  0  0
 10 11  2  0  0  0
 10 15  1  0  0  0
 11 12  1  0  0  0
 11 90  1  0  0  0
 12 13  2  0  0  0
 12 91  1  0  0  0
 13 14  1  0  0  0
 13 31  1  0  0  0
 14 15  2  0  0  0
 14 92  1  0  0  0
 15 93  1  0  0  0
 16 17  2  0  0  0
 16 21  1  0  0  0
 16 31  1  0  0  0
 17 18  1  0  0  0
 17 94  1  0  0  0
 18 19  2  0  0  0
 18 95  1  0  0  0
 19 20  1  0  0  0
 19 24  1  0  0  0
 20 21  2  0  0  0
 20 96  1  0  0  0
 21 23  1  0  0  0
 22 28  1  0  0  0
 22 32  2  0  0  0
 26 27  1  0  0  0
 28 97  1  0  0  0
 28 98  1  0  0  0
 29 99  1  0  0  0
 29100  1  0  0  0
 33 34  1  0  0  0
 33 66  1  0  0  0
 33 70  2  0  0  0
 34 36  1  0  0  0
 34 59  1  0  0  0
 34101  1  0  0  0
 35 44  2  0  0  0
 35 45  1  0  0  0
 35 68  1  0  0  0
 36 56  1  0  0  0
 36102  1  0  0  0
 37 39  1  0  0  0
 37 47  1  0  0  0
 37 66  1  0  0  0
 37103  1  0  0  0
 38 43  2  0  0  0
 38 46  1  0  0  0
 38 47  1  0  0  0
 39 64  1  0  0  0
 39 67  2  0  0  0
 40 52  1  0  0  0
 40 53  2  0  0  0
 40 58  1  0  0  0
 41104  1  0  0  0
 41105  1  0  0  0
 41106  1  0  0  0
 41 48  1  0  0  0
 42 43  1  0  0  0
 42 66  1  0  0  0
 42107  1  0  0  0
 42108  1  0  0  0
 43 44  1  0  0  0
 44109  1  0  0  0
 45 46  2  0  0  0
 45110  1  0  0  0
 46111  1  0  0  0
 47112  1  0  0  0
 47113  1  0  0  0
 48 56  1  0  0  0
 48 65  1  0  0  0
 48114  1  0  0  0
 49 50  1  0  0  0
 49 53  1  0  0  0
 49 64  1  0  0  0
 49115  1  0  0  0
 50 51  1  0  0  0
 50116  1  0  0  0
 50117  1  0  0  0
 51 52  1  0  0  0
 51118  1  0  0  0
 51119  1  0  0  0
 52120  1  0  0  0
 52121  1  0  0  0
 53 54  1  0  0  0
 54 55  2  0  0  0
 54122  1  0  0  0
 55 57  1  0  0  0
 55123  1  0  0  0
 56 69  2  0  0  0
 57 58  2  0  0  0
 57124  1  0  0  0
 58125  1  0  0  0
 59 60  1  0  0  0
 59 61  1  0  0  0
 59 62  1  0  0  0
 60126  1  0  0  0
 60127  1  0  0  0
 60128  1  0  0  0
 61129  1  0  0  0
 61130  1  0  0  0
 61131  1  0  0  0
 62132  1  0  0  0
 62133  1  0  0  0
 62134  1  0  0  0
 63 65  1  0  0  0
 63135  1  0  0  0
 63136  1  0  0  0
 63137  1  0  0  0
 64138  1  0  0  0
 65139  1  0  0  0
 68 76  1  0  0  0
 71 74  1  0  0  0
 71 77  2  0  0  0
 71 78  1  0  0  0
 72 75  1  0  0  0
 72 77  1  0  0  0
 72 79  2  0  0  0
 73 76  1  0  0  0
 73 78  2  0  0  0
 73 79  1  0  0  0
 74140  1  0  0  0
 74141  1  0  0  0
 74142  1  0  0  0
 75 80  1  0  0  0
 75143  1  0  0  0
 75144  1  0  0  0
 76145  1  0  0  0
 76146  1  0  0  0
 80147  1  0  0  0
M  ISO  4   1 100  68 101  76 101  80 100
M  END
> <chiral flag>
0

> <version>
0

> <s_m_source_file>
/data/baiqing/PycharmProjects/Reinvent-master-3.2/result/LINK_invent/BTK/process_docking_weight1_custom_sum_contain_oxygen_bond_distance_aromatic_linkinvent_7_9_3/rearranged_h_0053.sdf

> <i_m_source_file_index>
62

> <r_mmod_Potential_Energy-OPLS-2005>
810.680297851562

> <r_mmod_Stretch_Energy-OPLS-2005>
710.588806152344

> <r_mmod_Bend_Energy-OPLS-2005>
493.785705566406

> <r_mmod_Torsional_Energy-OPLS-2005>
209.61360168457

> <r_mmod_Improper_Torsional_Energy-OPLS-2005>
5.84282064437866

> <r_mmod_Van_der_Waal_Energy-OPLS-2005>
140.205902099609

> <r_mmod_Electrostatic_Energy-OPLS-2005>
-1093.82531738281

> <r_mmod_Solvation_Energy-OPLS-2005>
-263.81640625

> <b_mmod_Minimization_Converged-OPLS-2005>
1

> <r_mmod_RMS_Derivative-OPLS-2005>
0.0396409891545773

$$$$
63
                    3D
 Structure written by MMmdl.
158166  0  0  1  0            999 V2000
  -30.5365  -14.9717   20.4206 C   0  0  0  0  0  0
  -30.4440  -12.6116   19.4875 C   0  0  0  0  0  0
  -29.5261  -12.5382   18.2465 C   0  0  0  0  0  0
  -28.0572  -12.3209   18.6599 C   0  0  0  0  0  0
  -27.6271  -13.2483   19.8271 C   0  0  2  0  0  0
  -28.6710  -13.2910   20.9612 C   0  0  0  0  0  0
  -25.2481  -13.8136   20.5716 C   0  0  0  0  0  0
  -24.1786  -13.0393   20.9226 C   0  0  0  0  0  0
  -24.6396  -11.6878   20.8732 C   0  0  0  0  0  0
  -23.9074  -10.4264   21.0389 C   0  0  0  0  0  0
  -24.3622   -9.4189   21.9177 C   0  0  0  0  0  0
  -23.6293   -8.2229   22.0749 C   0  0  0  0  0  0
  -22.4276   -8.0267   21.3543 C   0  0  0  0  0  0
  -21.9915   -9.0239   20.4647 C   0  0  0  0  0  0
  -22.7239  -10.2115   20.3048 C   0  0  0  0  0  0
  -21.6853   -6.0717   22.5280 C   0  0  0  0  0  0
  -21.4008   -6.5623   23.8212 C   0  0  0  0  0  0
  -21.3660   -5.6776   24.9175 C   0  0  0  0  0  0
  -21.6047   -4.3038   24.7230 C   0  0  0  0  0  0
  -21.8819   -3.8128   23.4347 C   0  0  0  0  0  0
  -21.9191   -4.6945   22.3401 C   0  0  0  0  0  0
  -22.7815  -13.5215   21.1869 C   0  0  0  0  0  0
  -22.1664   -4.2128   21.0979 F   0  0  0  0  0  0
  -21.5634   -3.4525   25.7742 F   0  0  0  0  0  0
  -29.9384  -13.7142   20.3521 N   0  0  0  0  0  0
  -26.2892  -12.9387   20.3189 N   0  0  0  0  0  0
  -25.9330  -11.6521   20.5687 N   0  0  0  0  0  0
  -22.0418  -12.8233   22.0409 N   0  0  0  0  0  0
  -25.4174  -15.1830   20.4185 N   0  0  0  0  0  0
  -31.7559  -15.0218   20.2243 O   0  0  0  0  0  0
  -21.6631   -6.8868   21.4245 O   0  0  0  0  0  0
  -22.3531  -14.5518   20.6688 O   0  0  0  0  0  0
  -24.6485  -31.8391   23.1878 C   0  0  0  0  0  0
  -25.9241  -32.4661   23.8277 C   0  0  1  0  0  0
  -27.2115  -27.1043   20.1563 C   0  0  0  0  0  0
  -25.5973  -33.8474   24.2179 N   0  0  0  0  0  0
  -23.4524  -30.4611   21.5329 C   0  0  2  0  0  0
  -24.9002  -28.8834   20.1143 C   0  0  0  0  0  0
  -22.7595  -29.4528   22.4842 C   0  0  0  0  0  0
  -18.0317  -28.1386   22.8474 C   0  0  0  0  0  0
  -24.1492  -36.7257   23.2636 C   0  0  0  0  0  0
  -26.0122  -30.7040   21.3903 C   0  0  0  0  0  0
  -26.0808  -29.3127   20.7332 C   0  0  0  0  0  0
  -27.2394  -28.4425   20.7332 C   0  0  0  0  0  0
  -26.0058  -26.7902   19.4887 C   0  0  0  0  0  0
  -24.8771  -27.6369   19.4742 C   0  0  0  0  0  0
  -23.6804  -29.7914   20.1532 C   0  0  0  0  0  0
  -25.4122  -36.3010   24.0304 C   0  0  1  0  0  0
  -20.5928  -28.3721   23.1217 C   0  0  2  0  0  0
  -20.6788  -26.9417   22.5399 C   0  0  0  0  0  0
  -19.5764  -26.6367   21.5207 C   0  0  0  0  0  0
  -18.1950  -26.7924   22.1617 C   0  0  0  0  0  0
  -19.1569  -28.8873   23.2834 C   0  0  0  0  0  0
  -18.9480  -30.1469   23.8865 C   0  0  0  0  0  0
  -17.6474  -30.6580   24.0553 C   0  0  0  0  0  0
  -25.9077  -34.9385   23.5047 C   0  0  0  0  0  0
  -16.5368  -29.9071   23.6330 C   0  0  0  0  0  0
  -16.7298  -28.6485   23.0357 C   0  0  0  0  0  0
  -26.4538  -31.6557   25.0754 C   0  0  0  0  0  0
  -25.3722  -31.3771   26.1457 C   0  0  0  0  0  0
  -27.0392  -30.2937   24.6371 C   0  0  0  0  0  0
  -27.6044  -32.4349   25.7553 C   0  0  0  0  0  0
  -27.5574  -37.1788   24.8460 C   0  0  0  0  0  0
  -21.4283  -29.3042   22.3592 N   0  0  0  0  0  0
  -26.4277  -37.3733   23.9404 N   0  0  0  0  0  0
  -24.7246  -31.0238   22.0916 N   0  0  0  0  0  0
  -23.4227  -28.8066   23.2992 O   0  0  0  0  0  0
  -28.2542  -26.0959   20.1908 O   0  0  0  0  0  0
  -26.5664  -34.8889   22.4627 O   0  0  0  0  0  0
  -23.5596  -32.1265   23.7091 O   0  0  0  0  0  0
  -26.8507  -21.9089   21.3626 C   0  0  0  0  0  0
  -25.9659  -20.9152   21.7811 C   0  0  0  0  0  0
  -28.0957  -21.6397   20.7337 C   0  0  0  0  0  0
  -26.3122  -19.5882   21.5775 C   0  0  0  0  0  0
  -28.4247  -20.1425   20.6672 C   0  0  0  0  0  0
  -24.3837  -18.2069   20.7011 C   0  0  0  0  0  0
  -28.7627  -23.0902   20.2620 C   0  0  0  0  0  0
  -25.3234  -18.4805   21.8862 C   0  0  0  0  0  0
  -29.5987  -19.1563   20.0992 C   0  0  0  0  0  0
  -30.1099  -17.6889   20.8217 C   0  0  0  0  0  0
  -27.9240  -24.5839   20.4631 C   0  0  0  0  0  0
  -27.4921  -19.2375   21.0519 N   0  0  0  0  0  0
  -29.7602  -16.1670   20.5060 N   0  0  0  0  0  0
  -31.4749  -12.7826   19.1724 H   0  0  0  0  0  0
  -30.4486  -11.6658   20.0305 H   0  0  0  0  0  0
  -29.8558  -11.7401   17.5805 H   0  0  0  0  0  0
  -29.6101  -13.4660   17.6782 H   0  0  0  0  0  0
  -27.9522  -11.2785   18.9614 H   0  0  0  0  0  0
  -27.3995  -12.4561   17.8005 H   0  0  0  0  0  0
  -27.5828  -14.2498   19.3973 H   0  0  0  0  0  0
  -28.7690  -12.3205   21.4501 H   0  0  0  0  0  0
  -28.3654  -13.9992   21.7319 H   0  0  0  0  0  0
  -25.2762   -9.5658   22.4760 H   0  0  0  0  0  0
  -23.9984   -7.4621   22.7478 H   0  0  0  0  0  0
  -21.0836   -8.8758   19.8980 H   0  0  0  0  0  0
  -22.3693  -10.9648   19.6156 H   0  0  0  0  0  0
  -21.2000   -7.6131   23.9712 H   0  0  0  0  0  0
  -21.1491   -6.0505   25.9081 H   0  0  0  0  0  0
  -22.0604   -2.7591   23.2852 H   0  0  0  0  0  0
  -22.3989  -11.9908   22.4851 H   0  0  0  0  0  0
  -21.1029  -13.1285   22.2541 H   0  0  0  0  0  0
  -24.6513  -15.8318   20.5537 H   0  0  0  0  0  0
  -26.2651  -15.6327   20.1008 H   0  0  0  0  0  0
  -26.7319  -32.5250   23.1013 H   0  0  0  0  0  0
  -25.0117  -33.9578   25.0325 H   0  0  0  0  0  0
  -22.7562  -31.2884   21.3792 H   0  0  0  0  0  0
  -23.3742  -35.9602   23.3282 H   0  0  0  0  0  0
  -24.3575  -36.8912   22.2056 H   0  0  0  0  0  0
  -23.7271  -37.6453   23.6694 H   0  0  0  0  0  0
  -26.1749  -31.4533   20.6145 H   0  0  0  0  0  0
  -26.8804  -30.7514   22.0363 H   0  0  0  0  0  0
  -28.1420  -28.7713   21.2293 H   0  0  0  0  0  0
  -25.9023  -25.8510   18.9667 H   0  0  0  0  0  0
  -23.9798  -27.3093   18.9677 H   0  0  0  0  0  0
  -23.8240  -30.5655   19.3978 H   0  0  0  0  0  0
  -22.7931  -29.2377   19.8405 H   0  0  0  0  0  0
  -25.1310  -36.1819   25.0794 H   0  0  0  0  0  0
  -21.0025  -28.3312   24.1331 H   0  0  0  0  0  0
  -20.5657  -26.2342   23.3624 H   0  0  0  0  0  0
  -21.6654  -26.7396   22.1209 H   0  0  0  0  0  0
  -19.6917  -25.6267   21.1260 H   0  0  0  0  0  0
  -19.6698  -27.3149   20.6713 H   0  0  0  0  0  0
  -17.4219  -26.6675   21.4022 H   0  0  0  0  0  0
  -18.0347  -26.0066   22.9012 H   0  0  0  0  0  0
  -19.7955  -30.7293   24.2218 H   0  0  0  0  0  0
  -17.5023  -31.6255   24.5159 H   0  0  0  0  0  0
  -15.5359  -30.2954   23.7663 H   0  0  0  0  0  0
  -15.8705  -28.0784   22.7085 H   0  0  0  0  0  0
  -24.5894  -30.7110   25.7812 H   0  0  0  0  0  0
  -24.8926  -32.2962   26.4835 H   0  0  0  0  0  0
  -25.8013  -30.8995   27.0277 H   0  0  0  0  0  0
  -26.3008  -29.6676   24.1347 H   0  0  0  0  0  0
  -27.3927  -29.7231   25.4971 H   0  0  0  0  0  0
  -27.8960  -30.4143   23.9741 H   0  0  0  0  0  0
  -27.2594  -33.3657   26.2073 H   0  0  0  0  0  0
  -28.3895  -32.6903   25.0427 H   0  0  0  0  0  0
  -28.0675  -31.8533   26.5536 H   0  0  0  0  0  0
  -28.2564  -38.0106   24.7496 H   0  0  0  0  0  0
  -28.1088  -36.2631   24.6279 H   0  0  0  0  0  0
  -27.2297  -37.1437   25.8863 H   0  0  0  0  0  0
  -20.9502  -29.8773   21.6783 H   0  0  0  0  0  0
  -26.0129  -38.2790   24.1409 H   0  0  0  0  0  0
  -26.4879  -22.9067   21.5298 H   0  0  0  0  0  0
  -25.0127  -21.1810   22.2156 H   0  0  0  0  0  0
  -23.6397  -17.4514   20.9539 H   0  0  0  0  0  0
  -24.9363  -17.8562   19.8292 H   0  0  0  0  0  0
  -23.8495  -19.1090   20.4034 H   0  0  0  0  0  0
  -29.0052  -22.9892   19.2029 H   0  0  0  0  0  0
  -29.7245  -23.1678   20.7692 H   0  0  0  0  0  0
  -24.7392  -18.7605   22.7639 H   0  0  0  0  0  0
  -25.8657  -17.5729   22.1565 H   0  0  0  0  0  0
  -30.4807  -19.7965   20.0718 H   0  0  0  0  0  0
  -29.3764  -18.9606   19.0508 H   0  0  0  0  0  0
  -29.9844  -17.8106   21.8984 H   0  0  0  0  0  0
  -31.1935  -17.7056   20.6981 H   0  0  0  0  0  0
  -27.7093  -24.6313   21.5305 H   0  0  0  0  0  0
  -26.9682  -24.3945   19.9864 H   0  0  0  0  0  0
  -28.7674  -15.9832   20.5120 H   0  0  0  0  0  0
  1 25  1  0  0  0
  1 30  2  0  0  0
  1 83  1  0  0  0
  2  3  1  0  0  0
  2 25  1  0  0  0
  2 84  1  0  0  0
  2 85  1  0  0  0
  3  4  1  0  0  0
  3 86  1  0  0  0
  3 87  1  0  0  0
  4  5  1  0  0  0
  4 88  1  0  0  0
  4 89  1  0  0  0
  5  6  1  0  0  0
  5 26  1  0  0  0
  5 90  1  0  0  0
  6 25  1  0  0  0
  6 91  1  0  0  0
  6 92  1  0  0  0
  7  8  2  0  0  0
  7 26  1  0  0  0
  7 29  1  0  0  0
  8  9  1  0  0  0
  8 22  1  0  0  0
  9 10  1  0  0  0
  9 27  2  0  0  0
 10 11  2  0  0  0
 10 15  1  0  0  0
 11 12  1  0  0  0
 11 93  1  0  0  0
 12 13  2  0  0  0
 12 94  1  0  0  0
 13 14  1  0  0  0
 13 31  1  0  0  0
 14 15  2  0  0  0
 14 95  1  0  0  0
 15 96  1  0  0  0
 16 17  2  0  0  0
 16 21  1  0  0  0
 16 31  1  0  0  0
 17 18  1  0  0  0
 17 97  1  0  0  0
 18 19  2  0  0  0
 18 98  1  0  0  0
 19 20  1  0  0  0
 19 24  1  0  0  0
 20 21  2  0  0  0
 20 99  1  0  0  0
 21 23  1  0  0  0
 22 28  1  0  0  0
 22 32  2  0  0  0
 26 27  1  0  0  0
 28100  1  0  0  0
 28101  1  0  0  0
 29102  1  0  0  0
 29103  1  0  0  0
 33 34  1  0  0  0
 33 66  1  0  0  0
 33 70  2  0  0  0
 34 36  1  0  0  0
 34 59  1  0  0  0
 34104  1  0  0  0
 35 44  2  0  0  0
 35 45  1  0  0  0
 35 68  1  0  0  0
 36 56  1  0  0  0
 36105  1  0  0  0
 37 39  1  0  0  0
 37 47  1  0  0  0
 37 66  1  0  0  0
 37106  1  0  0  0
 38 43  2  0  0  0
 38 46  1  0  0  0
 38 47  1  0  0  0
 39 64  1  0  0  0
 39 67  2  0  0  0
 40 52  1  0  0  0
 40 53  2  0  0  0
 40 58  1  0  0  0
 41107  1  0  0  0
 41108  1  0  0  0
 41109  1  0  0  0
 41 48  1  0  0  0
 42 43  1  0  0  0
 42 66  1  0  0  0
 42110  1  0  0  0
 42111  1  0  0  0
 43 44  1  0  0  0
 44112  1  0  0  0
 45 46  2  0  0  0
 45113  1  0  0  0
 46114  1  0  0  0
 47115  1  0  0  0
 47116  1  0  0  0
 48 56  1  0  0  0
 48 65  1  0  0  0
 48117  1  0  0  0
 49 50  1  0  0  0
 49 53  1  0  0  0
 49 64  1  0  0  0
 49118  1  0  0  0
 50 51  1  0  0  0
 50119  1  0  0  0
 50120  1  0  0  0
 51 52  1  0  0  0
 51121  1  0  0  0
 51122  1  0  0  0
 52123  1  0  0  0
 52124  1  0  0  0
 53 54  1  0  0  0
 54 55  2  0  0  0
 54125  1  0  0  0
 55 57  1  0  0  0
 55126  1  0  0  0
 56 69  2  0  0  0
 57 58  2  0  0  0
 57127  1  0  0  0
 58128  1  0  0  0
 59 60  1  0  0  0
 59 61  1  0  0  0
 59 62  1  0  0  0
 60129  1  0  0  0
 60130  1  0  0  0
 60131  1  0  0  0
 61132  1  0  0  0
 61133  1  0  0  0
 61134  1  0  0  0
 62135  1  0  0  0
 62136  1  0  0  0
 62137  1  0  0  0
 63 65  1  0  0  0
 63138  1  0  0  0
 63139  1  0  0  0
 63140  1  0  0  0
 64141  1  0  0  0
 65142  1  0  0  0
 68 81  1  0  0  0
 71 72  2  0  0  0
 71 73  1  0  0  0
 71143  1  0  0  0
 72 74  1  0  0  0
 72144  1  0  0  0
 73 75  2  0  0  0
 73 77  1  0  0  0
 74 78  1  0  0  0
 74 82  2  0  0  0
 75 79  1  0  0  0
 75 82  1  0  0  0
 76 78  1  0  0  0
 76145  1  0  0  0
 76146  1  0  0  0
 76147  1  0  0  0
 77 81  1  0  0  0
 77148  1  0  0  0
 77149  1  0  0  0
 78150  1  0  0  0
 78151  1  0  0  0
 79 80  1  0  0  0
 79152  1  0  0  0
 79153  1  0  0  0
 80 83  1  0  0  0
 80154  1  0  0  0
 80155  1  0  0  0
 81156  1  0  0  0
 81157  1  0  0  0
 83158  1  0  0  0
M  ISO  4   1 100  68 101  81 101  83 100
M  END
> <chiral flag>
0

> <version>
0

> <s_m_source_file>
/data/baiqing/PycharmProjects/Reinvent-master-3.2/result/LINK_invent/BTK/process_docking_weight1_custom_sum_contain_oxygen_bond_distance_aromatic_linkinvent_7_9_3/rearranged_h_0053.sdf

> <i_m_source_file_index>
63

> <r_mmod_Potential_Energy-OPLS-2005>
534.782043457031

> <r_mmod_Stretch_Energy-OPLS-2005>
318.877655029297

> <r_mmod_Bend_Energy-OPLS-2005>
372.831787109375

> <r_mmod_Torsional_Energy-OPLS-2005>
227.430358886719

> <r_mmod_Improper_Torsional_Energy-OPLS-2005>
4.62110996246338

> <r_mmod_Van_der_Waal_Energy-OPLS-2005>
134.683853149414

> <r_mmod_Electrostatic_Energy-OPLS-2005>
-526.25732421875

> <r_mmod_Solvation_Energy-OPLS-2005>
-214.096069335938

> <b_mmod_Minimization_Converged-OPLS-2005>
0

> <r_mmod_RMS_Derivative-OPLS-2005>
2.31377363204956

$$$$
64
                    3D
 Structure written by MMmdl.
148156  0  0  1  0            999 V2000
  -30.1458  -14.8376   20.6845 C   0  0  0  0  0  0
  -30.6492  -12.5836   19.4710 C   0  0  0  0  0  0
  -29.7724  -12.4911   18.1714 C   0  0  0  0  0  0
  -28.2613  -12.4341   18.4479 C   0  0  0  0  0  0
  -28.0220  -13.5045   19.4945 C   0  0  2  0  0  0
  -28.7899  -13.0026   20.7565 C   0  0  0  0  0  0
  -24.9646  -14.6798   19.6017 C   0  0  0  0  0  0
  -24.0092  -13.9693   20.9398 C   0  0  0  0  0  0
  -24.7842  -12.6482   21.7745 C   0  0  0  0  0  0
  -24.0797  -11.0598   21.5723 C   0  0  0  0  0  0
  -24.4540   -9.8323   22.2564 C   0  0  0  0  0  0
  -23.7731   -8.5482   22.2182 C   0  0  0  0  0  0
  -22.6177   -8.2894   21.4383 C   0  0  0  0  0  0
  -22.2994   -9.3787   20.5840 C   0  0  0  0  0  0
  -23.0052  -10.6523   20.6414 C   0  0  0  0  0  0
  -21.7890   -6.1931   22.5015 C   0  0  0  0  0  0
  -21.4748   -6.6357   23.8078 C   0  0  0  0  0  0
  -21.3827   -5.7237   24.8866 C   0  0  0  0  0  0
  -21.5993   -4.3505   24.6792 C   0  0  0  0  0  0
  -21.8649   -3.8856   23.3808 C   0  0  0  0  0  0
  -21.9490   -4.7939   22.3020 C   0  0  0  0  0  0
  -22.5489  -13.9766   21.1064 C   0  0  0  0  0  0
  -22.1833   -4.2981   21.0626 F   0  0  0  0  0  0
  -21.5434   -3.4819   25.7213 F   0  0  0  0  0  0
  -30.0324  -13.4917   20.4757 N   0  0  0  0  0  0
  -26.7696  -13.7114   19.9226 N   0  0  0  0  0  0
  -26.3670  -12.6857   21.3610 N   0  0  0  0  0  0
  -21.9775  -13.1326   21.9739 N   0  0  0  0  0  0
  -24.9225  -15.8275   18.9340 N   0  0  0  0  0  0
  -31.2502  -15.2803   20.2951 O   0  0  0  0  0  0
  -21.8724   -7.0887   21.4267 O   0  0  0  0  0  0
  -21.9099  -14.7823   20.4706 O   0  0  0  0  0  0
  -24.7504  -31.6952   23.0966 C   0  0  0  0  0  0
  -25.9748  -32.3923   23.7738 C   0  0  1  0  0  0
  -26.6445  -25.6145   20.4910 C   0  0  0  0  0  0
  -25.6034  -33.7841   24.1489 N   0  0  0  0  0  0
  -23.5841  -30.2903   21.4694 C   0  0  2  0  0  0
  -24.9403  -28.4250   20.1358 C   0  0  0  0  0  0
  -22.7903  -29.3803   22.4467 C   0  0  0  0  0  0
  -18.0330  -28.1445   22.8404 C   0  0  0  0  0  0
  -24.1481  -36.6909   23.2657 C   0  0  0  0  0  0
  -26.1512  -30.0398   21.5372 C   0  0  0  0  0  0
  -26.0838  -28.4986   20.9261 C   0  0  0  0  0  0
  -26.8988  -27.1446   21.0551 C   0  0  0  0  0  0
  -25.6452  -26.0261   19.5258 C   0  0  0  0  0  0
  -24.8342  -27.2297   19.3928 C   0  0  0  0  0  0
  -23.8636  -29.5531   20.1159 C   0  0  0  0  0  0
  -25.4155  -36.2596   24.0229 C   0  0  1  0  0  0
  -20.5985  -28.3819   23.1012 C   0  0  2  0  0  0
  -20.6763  -26.9412   22.5418 C   0  0  0  0  0  0
  -19.5770  -26.6334   21.5209 C   0  0  0  0  0  0
  -18.1947  -26.7961   22.1580 C   0  0  0  0  0  0
  -19.1613  -28.8963   23.2684 C   0  0  0  0  0  0
  -18.9537  -30.1534   23.8763 C   0  0  0  0  0  0
  -17.6529  -30.6619   24.0545 C   0  0  0  0  0  0
  -25.9220  -34.9014   23.4762 C   0  0  0  0  0  0
  -16.5406  -29.9109   23.6367 C   0  0  0  0  0  0
  -16.7315  -28.6532   23.0374 C   0  0  0  0  0  0
  -26.4708  -31.6408   25.0739 C   0  0  0  0  0  0
  -25.3576  -31.3965   26.1223 C   0  0  0  0  0  0
  -27.0842  -30.2686   24.7338 C   0  0  0  0  0  0
  -27.5979  -32.4525   25.7553 C   0  0  0  0  0  0
  -27.5570  -37.1524   24.8410 C   0  0  0  0  0  0
  -21.4515  -29.2924   22.3225 N   0  0  0  0  0  0
  -26.4162  -37.3499   23.9514 N   0  0  0  0  0  0
  -24.8716  -30.7424   22.0797 N   0  0  0  0  0  0
  -23.4019  -28.7505   23.3123 O   0  0  0  0  0  0
  -27.0803  -23.8666   20.7316 O   0  0  0  0  0  0
  -26.5989  -34.8765   22.4468 O   0  0  0  0  0  0
  -23.6411  -32.0585   23.5375 O   0  0  0  0  0  0
  -25.3251  -16.5316   21.6840 C   0  0  0  0  0  0
  -25.5174  -18.1856   21.5472 C   0  0  0  0  0  0
  -26.0224  -15.0659   21.4448 C   0  0  0  0  0  0
  -26.5599  -19.3238   21.0830 C   0  0  0  0  0  0
  -27.2579  -16.2476   21.1274 C   0  0  0  0  0  0
  -25.1851  -12.2878   18.2759 C   0  0  0  0  0  0
  -26.5775  -21.6577   20.5956 C   0  0  0  0  0  0
  -28.8928  -15.7693   21.4597 C   0  0  0  0  0  0
  -27.3435  -17.9181   20.9210 N   0  0  0  0  0  0
  -25.0818  -12.6707   19.6989 O   0  0  0  0  0  0
  -28.7518  -15.2440   22.6803 F   0  0  0  0  0  0
  -29.5057  -16.9148   21.7613 F   0  0  0  0  0  0
  -31.6650  -12.9009   19.2253 H   0  0  0  0  0  0
  -30.7470  -11.5932   19.9152 H   0  0  0  0  0  0
  -30.0799  -11.6306   17.5761 H   0  0  0  0  0  0
  -29.9900  -13.3577   17.5442 H   0  0  0  0  0  0
  -27.9996  -11.4419   18.8150 H   0  0  0  0  0  0
  -27.7270  -12.6207   17.5187 H   0  0  0  0  0  0
  -28.2863  -14.4634   19.0502 H   0  0  0  0  0  0
  -28.7813  -11.9187   20.8752 H   0  0  0  0  0  0
  -28.5113  -13.3512   21.7395 H   0  0  0  0  0  0
  -25.2839   -9.9148   22.9447 H   0  0  0  0  0  0
  -24.1431   -7.7625   22.8625 H   0  0  0  0  0  0
  -21.4862   -9.2673   19.8815 H   0  0  0  0  0  0
  -22.6555  -11.4123   19.9606 H   0  0  0  0  0  0
  -21.3157   -7.6882   23.9854 H   0  0  0  0  0  0
  -21.1650   -6.0915   25.8772 H   0  0  0  0  0  0
  -22.0109   -2.8318   23.2066 H   0  0  0  0  0  0
  -22.5279  -12.4982   22.5338 H   0  0  0  0  0  0
  -20.9738  -13.1265   22.0853 H   0  0  0  0  0  0
  -24.1084  -16.4240   19.0015 H   0  0  0  0  0  0
  -25.7395  -16.3345   18.6108 H   0  0  0  0  0  0
  -26.7918  -32.4182   23.0510 H   0  0  0  0  0  0
  -24.9945  -33.8768   24.9494 H   0  0  0  0  0  0
  -22.9633  -31.1577   21.2380 H   0  0  0  0  0  0
  -23.3879  -35.9078   23.2950 H   0  0  0  0  0  0
  -24.3591  -36.9013   22.2158 H   0  0  0  0  0  0
  -23.7030  -37.5844   23.7045 H   0  0  0  0  0  0
  -26.4803  -30.6633   20.7063 H   0  0  0  0  0  0
  -26.9855  -30.1012   22.2205 H   0  0  0  0  0  0
  -27.6880  -27.1903   21.7886 H   0  0  0  0  0  0
  -25.3011  -25.2118   18.9041 H   0  0  0  0  0  0
  -24.0074  -27.1603   18.6981 H   0  0  0  0  0  0
  -24.1871  -30.2841   19.3713 H   0  0  0  0  0  0
  -22.9316  -29.1372   19.7287 H   0  0  0  0  0  0
  -25.1354  -36.1191   25.0692 H   0  0  0  0  0  0
  -21.0059  -28.3514   24.1140 H   0  0  0  0  0  0
  -20.5545  -26.2464   23.3739 H   0  0  0  0  0  0
  -21.6630  -26.7246   22.1293 H   0  0  0  0  0  0
  -19.6935  -25.6213   21.1318 H   0  0  0  0  0  0
  -19.6765  -27.3076   20.6693 H   0  0  0  0  0  0
  -17.4225  -26.6694   21.3974 H   0  0  0  0  0  0
  -18.0319  -26.0137   22.9002 H   0  0  0  0  0  0
  -19.8033  -30.7360   24.2086 H   0  0  0  0  0  0
  -17.5102  -31.6286   24.5175 H   0  0  0  0  0  0
  -15.5416  -30.2993   23.7784 H   0  0  0  0  0  0
  -15.8699  -28.0832   22.7180 H   0  0  0  0  0  0
  -24.5898  -30.7132   25.7576 H   0  0  0  0  0  0
  -24.8616  -32.3248   26.4063 H   0  0  0  0  0  0
  -25.7616  -30.9579   27.0362 H   0  0  0  0  0  0
  -26.3679  -29.5859   24.2768 H   0  0  0  0  0  0
  -27.4304  -29.7683   25.6395 H   0  0  0  0  0  0
  -27.9638  -30.3640   24.0971 H   0  0  0  0  0  0
  -27.2392  -33.4002   26.1576 H   0  0  0  0  0  0
  -28.4030  -32.6800   25.0556 H   0  0  0  0  0  0
  -28.0387  -31.9074   26.5912 H   0  0  0  0  0  0
  -28.2235  -38.0147   24.7891 H   0  0  0  0  0  0
  -28.1407  -36.2713   24.5673 H   0  0  0  0  0  0
  -27.2391  -37.0449   25.8801 H   0  0  0  0  0  0
  -20.9950  -29.8483   21.6125 H   0  0  0  0  0  0
  -25.9885  -38.2421   24.1838 H   0  0  0  0  0  0
  -24.3234  -16.3510   22.0443 H   0  0  0  0  0  0
  -24.6055  -18.6658   21.8722 H   0  0  0  0  0  0
  -24.2312  -11.9024   17.9162 H   0  0  0  0  0  0
  -25.8851  -11.4599   18.1764 H   0  0  0  0  0  0
  -25.4902  -13.0952   17.6112 H   0  0  0  0  0  0
  -25.5160  -21.7497   20.3495 H   0  0  0  0  0  0
  -27.0155  -21.5166   19.6034 H   0  0  0  0  0  0
  1 25  1  0  0  0
  1 30  2  0  0  0
  1 78  1  0  0  0
  2  3  1  0  0  0
  2 25  1  0  0  0
  2 83  1  0  0  0
  2 84  1  0  0  0
  3  4  1  0  0  0
  3 85  1  0  0  0
  3 86  1  0  0  0
  4  5  1  0  0  0
  4 87  1  0  0  0
  4 88  1  0  0  0
  5  6  1  0  0  0
  5 26  1  0  0  0
  5 89  1  0  0  0
  6 25  1  0  0  0
  6 90  1  0  0  0
  6 91  1  0  0  0
  7  8  2  0  0  0
  7 26  1  0  0  0
  7 29  1  0  0  0
  8  9  1  0  0  0
  8 22  1  0  0  0
  9 10  1  0  0  0
  9 27  2  0  0  0
 10 11  2  0  0  0
 10 15  1  0  0  0
 11 12  1  0  0  0
 11 92  1  0  0  0
 12 13  2  0  0  0
 12 93  1  0  0  0
 13 14  1  0  0  0
 13 31  1  0  0  0
 14 15  2  0  0  0
 14 94  1  0  0  0
 15 95  1  0  0  0
 16 17  2  0  0  0
 16 21  1  0  0  0
 16 31  1  0  0  0
 17 18  1  0  0  0
 17 96  1  0  0  0
 18 19  2  0  0  0
 18 97  1  0  0  0
 19 20  1  0  0  0
 19 24  1  0  0  0
 20 21  2  0  0  0
 20 98  1  0  0  0
 21 23  1  0  0  0
 22 28  1  0  0  0
 22 32  2  0  0  0
 26 27  1  0  0  0
 28 99  1  0  0  0
 28100  1  0  0  0
 29101  1  0  0  0
 29102  1  0  0  0
 33 34  1  0  0  0
 33 66  1  0  0  0
 33 70  2  0  0  0
 34 36  1  0  0  0
 34 59  1  0  0  0
 34103  1  0  0  0
 35 44  2  0  0  0
 35 45  1  0  0  0
 35 68  1  0  0  0
 36 56  1  0  0  0
 36104  1  0  0  0
 37 39  1  0  0  0
 37 47  1  0  0  0
 37 66  1  0  0  0
 37105  1  0  0  0
 38 43  2  0  0  0
 38 46  1  0  0  0
 38 47  1  0  0  0
 39 64  1  0  0  0
 39 67  2  0  0  0
 40 52  1  0  0  0
 40 53  2  0  0  0
 40 58  1  0  0  0
 41106  1  0  0  0
 41107  1  0  0  0
 41108  1  0  0  0
 41 48  1  0  0  0
 42 43  1  0  0  0
 42 66  1  0  0  0
 42109  1  0  0  0
 42110  1  0  0  0
 43 44  1  0  0  0
 44111  1  0  0  0
 45 46  2  0  0  0
 45112  1  0  0  0
 46113  1  0  0  0
 47114  1  0  0  0
 47115  1  0  0  0
 48 56  1  0  0  0
 48 65  1  0  0  0
 48116  1  0  0  0
 49 50  1  0  0  0
 49 53  1  0  0  0
 49 64  1  0  0  0
 49117  1  0  0  0
 50 51  1  0  0  0
 50118  1  0  0  0
 50119  1  0  0  0
 51 52  1  0  0  0
 51120  1  0  0  0
 51121  1  0  0  0
 52122  1  0  0  0
 52123  1  0  0  0
 53 54  1  0  0  0
 54 55  2  0  0  0
 54124  1  0  0  0
 55 57  1  0  0  0
 55125  1  0  0  0
 56 69  2  0  0  0
 57 58  2  0  0  0
 57126  1  0  0  0
 58127  1  0  0  0
 59 60  1  0  0  0
 59 61  1  0  0  0
 59 62  1  0  0  0
 60128  1  0  0  0
 60129  1  0  0  0
 60130  1  0  0  0
 61131  1  0  0  0
 61132  1  0  0  0
 61133  1  0  0  0
 62134  1  0  0  0
 62135  1  0  0  0
 62136  1  0  0  0
 63 65  1  0  0  0
 63137  1  0  0  0
 63138  1  0  0  0
 63139  1  0  0  0
 64140  1  0  0  0
 65141  1  0  0  0
 68 77  1  0  0  0
 71 72  2  0  0  0
 71 73  1  0  0  0
 71142  1  0  0  0
 72 74  1  0  0  0
 72143  1  0  0  0
 73 75  2  0  0  0
 73 80  1  0  0  0
 74 77  1  0  0  0
 74 79  2  0  0  0
 75 78  1  0  0  0
 75 79  1  0  0  0
 76 80  1  0  0  0
 76144  1  0  0  0
 76145  1  0  0  0
 76146  1  0  0  0
 77147  1  0  0  0
 77148  1  0  0  0
 78 81  1  0  0  0
 78 82  1  0  0  0
M  ISO  4   1 100  68 101  77 101  78 100
M  END
> <chiral flag>
0

> <version>
0

> <s_m_source_file>
/data/baiqing/PycharmProjects/Reinvent-master-3.2/result/LINK_invent/BTK/process_docking_weight1_custom_sum_contain_oxygen_bond_distance_aromatic_linkinvent_7_9_3/rearranged_h_0053.sdf

> <i_m_source_file_index>
64

> <r_mmod_Potential_Energy-OPLS-2005>
20258.556640625

> <r_mmod_Stretch_Energy-OPLS-2005>
11722.6455078125

> <r_mmod_Bend_Energy-OPLS-2005>
1855.54858398438

> <r_mmod_Torsional_Energy-OPLS-2005>
462.700561523438

> <r_mmod_Improper_Torsional_Energy-OPLS-2005>
77.2563171386719

> <r_mmod_Van_der_Waal_Energy-OPLS-2005>
2975.7646484375

> <r_mmod_Electrostatic_Energy-OPLS-2005>
-270.584320068359

> <r_mmod_Solvation_Energy-OPLS-2005>
-224.676055908203

> <b_mmod_Minimization_Converged-OPLS-2005>
0

> <r_mmod_RMS_Derivative-OPLS-2005>
13.3744812011719

$$$$
66
                    3D
 Structure written by MMmdl.
165173  0  0  1  0            999 V2000
  -30.7430  -14.5207   20.5675 C   0  0  0  0  0  0
  -30.4091  -12.3323   19.4498 C   0  0  0  0  0  0
  -29.5010  -12.4979   18.2175 C   0  0  0  0  0  0
  -28.0216  -12.3534   18.6189 C   0  0  0  0  0  0
  -27.6550  -13.2174   19.8545 C   0  0  2  0  0  0
  -28.6976  -13.0738   20.9906 C   0  0  0  0  0  0
  -25.2594  -13.8179   20.5667 C   0  0  0  0  0  0
  -24.1824  -13.0427   20.9162 C   0  0  0  0  0  0
  -24.6401  -11.6897   20.8696 C   0  0  0  0  0  0
  -23.9035  -10.4279   21.0372 C   0  0  0  0  0  0
  -24.3590   -9.4197   21.9148 C   0  0  0  0  0  0
  -23.6278   -8.2230   22.0726 C   0  0  0  0  0  0
  -22.4258   -8.0265   21.3525 C   0  0  0  0  0  0
  -21.9872   -9.0233   20.4627 C   0  0  0  0  0  0
  -22.7196  -10.2111   20.3034 C   0  0  0  0  0  0
  -21.6865   -6.0711   22.5257 C   0  0  0  0  0  0
  -21.4022   -6.5619   23.8187 C   0  0  0  0  0  0
  -21.3680   -5.6767   24.9162 C   0  0  0  0  0  0
  -21.6032   -4.3031   24.7196 C   0  0  0  0  0  0
  -21.8815   -3.8117   23.4320 C   0  0  0  0  0  0
  -21.9197   -4.6943   22.3371 C   0  0  0  0  0  0
  -22.7847  -13.5246   21.1805 C   0  0  0  0  0  0
  -22.1646   -4.2120   21.0959 F   0  0  0  0  0  0
  -21.5666   -3.4531   25.7726 F   0  0  0  0  0  0
  -30.0348  -13.3546   20.4430 N   0  0  0  0  0  0
  -26.3015  -12.9336   20.3274 N   0  0  0  0  0  0
  -25.9338  -11.6488   20.5692 N   0  0  0  0  0  0
  -22.0456  -12.8258   22.0371 N   0  0  0  0  0  0
  -25.4364  -15.1882   20.4136 N   0  0  0  0  0  0
  -31.7815  -14.7199   19.9358 O   0  0  0  0  0  0
  -21.6639   -6.8853   21.4211 O   0  0  0  0  0  0
  -22.3501  -14.5530   20.6638 O   0  0  0  0  0  0
  -24.6263  -31.8633   23.2124 C   0  0  0  0  0  0
  -25.9134  -32.4787   23.8399 C   0  0  1  0  0  0
  -27.1854  -27.3438   20.0886 C   0  0  0  0  0  0
  -25.5974  -33.8597   24.2312 N   0  0  0  0  0  0
  -23.4139  -30.4948   21.5573 C   0  0  2  0  0  0
  -24.8491  -28.9832   20.0954 C   0  0  0  0  0  0
  -22.7506  -29.4608   22.5011 C   0  0  0  0  0  0
  -18.0292  -28.1350   22.8527 C   0  0  0  0  0  0
  -24.1486  -36.7273   23.2638 C   0  0  0  0  0  0
  -25.9610  -30.8032   21.3832 C   0  0  0  0  0  0
  -26.0241  -29.4438   20.7035 C   0  0  0  0  0  0
  -27.1999  -28.6388   20.6876 C   0  0  0  0  0  0
  -25.9834  -26.9484   19.4466 C   0  0  0  0  0  0
  -24.8339  -27.7456   19.4532 C   0  0  0  0  0  0
  -23.6153  -29.8540   20.1615 C   0  0  0  0  0  0
  -25.4122  -36.3082   24.0318 C   0  0  1  0  0  0
  -20.5906  -28.3605   23.1371 C   0  0  2  0  0  0
  -20.6783  -26.9336   22.5437 C   0  0  0  0  0  0
  -19.5742  -26.6353   21.5263 C   0  0  0  0  0  0
  -18.1926  -26.7897   22.1659 C   0  0  0  0  0  0
  -19.1547  -28.8816   23.2921 C   0  0  0  0  0  0
  -18.9450  -30.1445   23.8879 C   0  0  0  0  0  0
  -17.6439  -30.6559   24.0561 C   0  0  0  0  0  0
  -25.9058  -34.9447   23.5103 C   0  0  0  0  0  0
  -16.5344  -29.9035   23.6336 C   0  0  0  0  0  0
  -16.7271  -28.6459   23.0365 C   0  0  0  0  0  0
  -26.4514  -31.6583   25.0735 C   0  0  0  0  0  0
  -25.3781  -31.3685   26.1492 C   0  0  0  0  0  0
  -27.0362  -30.3011   24.6177 C   0  0  0  0  0  0
  -27.6079  -32.4337   25.7494 C   0  0  0  0  0  0
  -27.5566  -37.1794   24.8475 C   0  0  0  0  0  0
  -21.4219  -29.2965   22.3765 N   0  0  0  0  0  0
  -26.4300  -37.3771   23.9384 N   0  0  0  0  0  0
  -24.6850  -31.0714   22.1036 N   0  0  0  0  0  0
  -23.4282  -28.8134   23.3034 O   0  0  0  0  0  0
  -28.2739  -26.4619   20.1550 O   0  0  0  0  0  0
  -26.5620  -34.8903   22.4657 O   0  0  0  0  0  0
  -23.5435  -32.1444   23.7459 O   0  0  0  0  0  0
  -30.3793  -23.0117   21.6602 C   0  0  0  0  0  0
  -29.2918  -21.6463   20.2690 C   0  0  0  0  0  0
  -28.8656  -23.8768   20.2749 C   0  0  0  0  0  0
  -31.3545  -23.2185   22.8025 C   0  0  0  0  0  0
  -33.1639  -15.9670   24.1633 C   0  0  0  0  0  0
  -29.0124  -20.2026   19.7678 C   0  0  0  0  0  0
  -27.9446  -25.0522   19.8529 C   0  0  0  0  0  0
  -32.4529  -15.9775   22.7992 C   0  0  0  0  0  0
  -31.0222  -15.3864   22.8126 C   0  0  0  0  0  0
  -29.4707  -16.6273   21.2452 C   0  0  0  0  0  0
  -30.0495  -17.8965   20.4895 C   0  0  0  0  0  0
  -30.1991  -21.7569   21.2370 N   0  0  0  0  0  0
  -29.7540  -24.1047   21.2351 N   0  0  0  0  0  0
  -28.5975  -22.6672   19.7449 N   0  0  0  0  0  0
  -30.3422  -15.4278   21.5004 N   0  0  0  0  0  0
  -29.3119  -19.1781   20.8164 N   0  3  0  0  0  0
  -30.2823  -11.3356   19.8769 H   0  0  0  0  0  0
  -31.4590  -12.3926   19.1623 H   0  0  0  0  0  0
  -29.7571  -11.7712   17.4470 H   0  0  0  0  0  0
  -29.6701  -13.4767   17.7702 H   0  0  0  0  0  0
  -27.8455  -11.2995   18.8387 H   0  0  0  0  0  0
  -27.3775  -12.6009   17.7740 H   0  0  0  0  0  0
  -27.6736  -14.2510   19.5166 H   0  0  0  0  0  0
  -28.6753  -12.0644   21.3997 H   0  0  0  0  0  0
  -28.4389  -13.7387   21.8163 H   0  0  0  0  0  0
  -25.2739   -9.5695   22.4709 H   0  0  0  0  0  0
  -24.0015   -7.4616   22.7411 H   0  0  0  0  0  0
  -21.0831   -8.8715   19.8898 H   0  0  0  0  0  0
  -22.3654  -10.9640   19.6130 H   0  0  0  0  0  0
  -21.1985   -7.6120   23.9699 H   0  0  0  0  0  0
  -21.1535   -6.0491   25.9073 H   0  0  0  0  0  0
  -22.0579   -2.7580   23.2810 H   0  0  0  0  0  0
  -22.4107  -12.0048   22.4948 H   0  0  0  0  0  0
  -21.1007  -13.1214   22.2379 H   0  0  0  0  0  0
  -24.6753  -15.8489   20.5299 H   0  0  0  0  0  0
  -26.3025  -15.6234   20.1186 H   0  0  0  0  0  0
  -26.7197  -32.5411   23.1131 H   0  0  0  0  0  0
  -25.0123  -33.9754   25.0453 H   0  0  0  0  0  0
  -22.7019  -31.3131   21.4324 H   0  0  0  0  0  0
  -23.3748  -35.9617   23.3362 H   0  0  0  0  0  0
  -24.3576  -36.8818   22.2041 H   0  0  0  0  0  0
  -23.7247  -37.6484   23.6640 H   0  0  0  0  0  0
  -26.1203  -31.5854   20.6401 H   0  0  0  0  0  0
  -26.8344  -30.8188   22.0237 H   0  0  0  0  0  0
  -28.0994  -28.9937   21.1677 H   0  0  0  0  0  0
  -25.8582  -26.0025   18.9409 H   0  0  0  0  0  0
  -23.9357  -27.3993   18.9585 H   0  0  0  0  0  0
  -23.7084  -30.6408   19.4135 H   0  0  0  0  0  0
  -22.7397  -29.2710   19.8693 H   0  0  0  0  0  0
  -25.1303  -36.1941   25.0814 H   0  0  0  0  0  0
  -20.9971  -28.3108   24.1508 H   0  0  0  0  0  0
  -20.5772  -26.2149   23.3587 H   0  0  0  0  0  0
  -21.6626  -26.7411   22.1157 H   0  0  0  0  0  0
  -19.6876  -25.6289   21.1218 H   0  0  0  0  0  0
  -19.6684  -27.3233   20.6859 H   0  0  0  0  0  0
  -17.4198  -26.6719   21.4030 H   0  0  0  0  0  0
  -18.0250  -26.0042   22.9038 H   0  0  0  0  0  0
  -19.7924  -30.7314   24.2190 H   0  0  0  0  0  0
  -17.4967  -31.6239   24.5142 H   0  0  0  0  0  0
  -15.5323  -30.2903   23.7685 H   0  0  0  0  0  0
  -15.8686  -28.0767   22.7072 H   0  0  0  0  0  0
  -24.5964  -30.7023   25.7809 H   0  0  0  0  0  0
  -24.8988  -32.2833   26.4986 H   0  0  0  0  0  0
  -25.8160  -30.8808   27.0213 H   0  0  0  0  0  0
  -26.2915  -29.6757   24.1241 H   0  0  0  0  0  0
  -27.4089  -29.7266   25.4662 H   0  0  0  0  0  0
  -27.8787  -30.4280   23.9389 H   0  0  0  0  0  0
  -27.2691  -33.3645   26.2075 H   0  0  0  0  0  0
  -28.3898  -32.6892   25.0319 H   0  0  0  0  0  0
  -28.0773  -31.8466   26.5404 H   0  0  0  0  0  0
  -28.2626  -38.0042   24.7489 H   0  0  0  0  0  0
  -28.1023  -36.2573   24.6393 H   0  0  0  0  0  0
  -27.2277  -37.1540   25.8876 H   0  0  0  0  0  0
  -20.9411  -29.8638   21.6933 H   0  0  0  0  0  0
  -26.0179  -38.2838   24.1401 H   0  0  0  0  0  0
  -32.2892  -23.6489   22.4469 H   0  0  0  0  0  0
  -31.5858  -22.2785   23.3095 H   0  0  0  0  0  0
  -30.9412  -23.9032   23.5429 H   0  0  0  0  0  0
  -34.1941  -16.3035   24.0347 H   0  0  0  0  0  0
  -33.2060  -14.9705   24.6040 H   0  0  0  0  0  0
  -32.6967  -16.6260   24.8957 H   0  0  0  0  0  0
  -27.9536  -20.1382   19.5060 H   0  0  0  0  0  0
  -29.5663  -20.0173   18.8494 H   0  0  0  0  0  0
  -27.0019  -24.7931   20.3456 H   0  0  0  0  0  0
  -27.7747  -24.9521   18.7812 H   0  0  0  0  0  0
  -33.0849  -15.4276   22.1022 H   0  0  0  0  0  0
  -32.4274  -16.9973   22.4243 H   0  0  0  0  0  0
  -30.4116  -15.8642   23.5829 H   0  0  0  0  0  0
  -31.0960  -14.3426   23.1320 H   0  0  0  0  0  0
  -28.5985  -16.2759   20.6912 H   0  0  0  0  0  0
  -29.0692  -16.9531   22.2056 H   0  0  0  0  0  0
  -30.0242  -17.7127   19.4115 H   0  0  0  0  0  0
  -31.1027  -18.0445   20.7396 H   0  0  0  0  0  0
  -28.4422  -18.9666   21.2680 H   0  0  0  0  0  0
  -29.8564  -19.7401   21.4620 H   0  0  0  0  0  0
  1 25  1  0  0  0
  1 30  2  0  0  0
  1 85  1  0  0  0
  2  3  1  0  0  0
  2 25  1  0  0  0
  2 87  1  0  0  0
  2 88  1  0  0  0
  3  4  1  0  0  0
  3 89  1  0  0  0
  3 90  1  0  0  0
  4  5  1  0  0  0
  4 91  1  0  0  0
  4 92  1  0  0  0
  5  6  1  0  0  0
  5 26  1  0  0  0
  5 93  1  0  0  0
  6 25  1  0  0  0
  6 94  1  0  0  0
  6 95  1  0  0  0
  7  8  2  0  0  0
  7 26  1  0  0  0
  7 29  1  0  0  0
  8  9  1  0  0  0
  8 22  1  0  0  0
  9 10  1  0  0  0
  9 27  2  0  0  0
 10 11  2  0  0  0
 10 15  1  0  0  0
 11 12  1  0  0  0
 11 96  1  0  0  0
 12 13  2  0  0  0
 12 97  1  0  0  0
 13 14  1  0  0  0
 13 31  1  0  0  0
 14 15  2  0  0  0
 14 98  1  0  0  0
 15 99  1  0  0  0
 16 17  2  0  0  0
 16 21  1  0  0  0
 16 31  1  0  0  0
 17 18  1  0  0  0
 17100  1  0  0  0
 18 19  2  0  0  0
 18101  1  0  0  0
 19 20  1  0  0  0
 19 24  1  0  0  0
 20 21  2  0  0  0
 20102  1  0  0  0
 21 23  1  0  0  0
 22 28  1  0  0  0
 22 32  2  0  0  0
 26 27  1  0  0  0
 28103  1  0  0  0
 28104  1  0  0  0
 29105  1  0  0  0
 29106  1  0  0  0
 33 34  1  0  0  0
 33 66  1  0  0  0
 33 70  2  0  0  0
 34 36  1  0  0  0
 34 59  1  0  0  0
 34107  1  0  0  0
 35 44  2  0  0  0
 35 45  1  0  0  0
 35 68  1  0  0  0
 36 56  1  0  0  0
 36108  1  0  0  0
 37 39  1  0  0  0
 37 47  1  0  0  0
 37 66  1  0  0  0
 37109  1  0  0  0
 38 43  2  0  0  0
 38 46  1  0  0  0
 38 47  1  0  0  0
 39 64  1  0  0  0
 39 67  2  0  0  0
 40 52  1  0  0  0
 40 53  2  0  0  0
 40 58  1  0  0  0
 41110  1  0  0  0
 41111  1  0  0  0
 41112  1  0  0  0
 41 48  1  0  0  0
 42 43  1  0  0  0
 42 66  1  0  0  0
 42113  1  0  0  0
 42114  1  0  0  0
 43 44  1  0  0  0
 44115  1  0  0  0
 45 46  2  0  0  0
 45116  1  0  0  0
 46117  1  0  0  0
 47118  1  0  0  0
 47119  1  0  0  0
 48 56  1  0  0  0
 48 65  1  0  0  0
 48120  1  0  0  0
 49 50  1  0  0  0
 49 53  1  0  0  0
 49 64  1  0  0  0
 49121  1  0  0  0
 50 51  1  0  0  0
 50122  1  0  0  0
 50123  1  0  0  0
 51 52  1  0  0  0
 51124  1  0  0  0
 51125  1  0  0  0
 52126  1  0  0  0
 52127  1  0  0  0
 53 54  1  0  0  0
 54 55  2  0  0  0
 54128  1  0  0  0
 55 57  1  0  0  0
 55129  1  0  0  0
 56 69  2  0  0  0
 57 58  2  0  0  0
 57130  1  0  0  0
 58131  1  0  0  0
 59 60  1  0  0  0
 59 61  1  0  0  0
 59 62  1  0  0  0
 60132  1  0  0  0
 60133  1  0  0  0
 60134  1  0  0  0
 61135  1  0  0  0
 61136  1  0  0  0
 61137  1  0  0  0
 62138  1  0  0  0
 62139  1  0  0  0
 62140  1  0  0  0
 63 65  1  0  0  0
 63141  1  0  0  0
 63142  1  0  0  0
 63143  1  0  0  0
 64144  1  0  0  0
 65145  1  0  0  0
 68 77  1  0  0  0
 71 74  1  0  0  0
 71 82  2  0  0  0
 71 83  1  0  0  0
 72 76  1  0  0  0
 72 82  1  0  0  0
 72 84  2  0  0  0
 73 77  1  0  0  0
 73 83  2  0  0  0
 73 84  1  0  0  0
 74146  1  0  0  0
 74147  1  0  0  0
 74148  1  0  0  0
 75 78  1  0  0  0
 75149  1  0  0  0
 75150  1  0  0  0
 75151  1  0  0  0
 76 86  1  0  0  0
 76152  1  0  0  0
 76153  1  0  0  0
 77154  1  0  0  0
 77155  1  0  0  0
 78 79  1  0  0  0
 78156  1  0  0  0
 78157  1  0  0  0
 79 85  1  0  0  0
 79158  1  0  0  0
 79159  1  0  0  0
 80 81  1  0  0  0
 80 85  1  0  0  0
 80160  1  0  0  0
 80161  1  0  0  0
 81 86  1  0  0  0
 81162  1  0  0  0
 81163  1  0  0  0
 86164  1  0  0  0
 86165  1  0  0  0
M  CHG  1  86   1
M  ISO  4   1 100  68 101  77 101  85 100
M  END
> <chiral flag>
0

> <version>
0

> <s_m_source_file>
/data/baiqing/PycharmProjects/Reinvent-master-3.2/result/LINK_invent/BTK/process_docking_weight1_custom_sum_contain_oxygen_bond_distance_aromatic_linkinvent_7_9_3/rearranged_h_0053.sdf

> <i_m_source_file_index>
65

> <r_mmod_Potential_Energy-OPLS-2005>
-739.111633300781

> <r_mmod_Stretch_Energy-OPLS-2005>
65.4977340698242

> <r_mmod_Bend_Energy-OPLS-2005>
136.861709594727

> <r_mmod_Torsional_Energy-OPLS-2005>
317.654296875

> <r_mmod_Improper_Torsional_Energy-OPLS-2005>
3.81320762634277

> <r_mmod_Van_der_Waal_Energy-OPLS-2005>
174.006576538086

> <r_mmod_Electrostatic_Energy-OPLS-2005>
-1000.83966064453

> <r_mmod_Solvation_Energy-OPLS-2005>
-473.372985839844

> <b_mmod_Minimization_Converged-OPLS-2005>
0

> <r_mmod_RMS_Derivative-OPLS-2005>
6.85526466369629

$$$$
68
                    3D
 Structure written by MMmdl.
165173  0  0  1  0            999 V2000
  -29.6972  -14.4454   21.1794 C   0  0  0  0  0  0
  -30.6079  -12.6007   19.5694 C   0  0  0  0  0  0
  -29.8050  -12.5571   18.2176 C   0  0  0  0  0  0
  -28.3362  -12.1525   18.3781 C   0  0  0  0  0  0
  -27.9020  -12.8632   19.6100 C   0  0  2  0  0  0
  -28.6456  -12.3728   20.8327 C   0  0  0  0  0  0
  -25.7846  -13.8332   19.6745 C   0  0  0  0  0  0
  -24.8188  -13.4937   20.4735 C   0  0  0  0  0  0
  -24.8878  -11.9062   20.4745 C   0  0  0  0  0  0
  -24.0345  -10.6220   20.8683 C   0  0  0  0  0  0
  -24.4366   -9.6060   21.8079 C   0  0  0  0  0  0
  -23.6968   -8.4000   22.0449 C   0  0  0  0  0  0
  -22.4916   -8.1335   21.3503 C   0  0  0  0  0  0
  -22.0721   -9.1119   20.4292 C   0  0  0  0  0  0
  -22.8248  -10.2931   20.1876 C   0  0  0  0  0  0
  -21.7383   -6.1235   22.5237 C   0  0  0  0  0  0
  -21.4430   -6.5944   23.8212 C   0  0  0  0  0  0
  -21.3802   -5.6974   24.9089 C   0  0  0  0  0  0
  -21.6046   -4.3222   24.7081 C   0  0  0  0  0  0
  -21.8783   -3.8419   23.4166 C   0  0  0  0  0  0
  -21.9359   -4.7349   22.3286 C   0  0  0  0  0  0
  -22.8408  -15.1152   22.2572 C   0  0  0  0  0  0
  -22.1702   -4.2470   21.0867 F   0  0  0  0  0  0
  -21.5539   -3.4630   25.7550 F   0  0  0  0  0  0
  -29.8034  -13.1652   20.7083 N   0  0  0  0  0  0
  -26.5776  -12.7728   19.8311 N   0  0  0  0  0  0
  -26.0970  -11.5993   20.2453 N   0  0  0  0  0  0
  -21.9957  -14.4149   23.1168 N   0  0  0  0  0  0
  -26.1671  -15.0068   19.0622 N   0  0  0  0  0  0
  -30.6761  -15.1540   20.7865 O   0  0  0  0  0  0
  -21.7390   -6.9671   21.4304 O   0  0  0  0  0  0
  -22.1440  -16.0296   21.8229 O   0  0  0  0  0  0
  -24.6865  -31.8023   23.1637 C   0  0  0  0  0  0
  -25.9497  -32.4423   23.8093 C   0  0  1  0  0  0
  -26.7077  -26.4808   20.2825 C   0  0  0  0  0  0
  -25.6097  -33.8274   24.1950 N   0  0  0  0  0  0
  -23.4879  -30.4437   21.5246 C   0  0  2  0  0  0
  -24.8557  -28.8023   20.0741 C   0  0  0  0  0  0
  -22.7671  -29.4384   22.4650 C   0  0  0  0  0  0
  -18.0311  -28.1417   22.8442 C   0  0  0  0  0  0
  -24.1490  -36.7120   23.2644 C   0  0  0  0  0  0
  -26.0691  -30.4508   21.4588 C   0  0  0  0  0  0
  -26.0369  -29.0142   20.7910 C   0  0  0  0  0  0
  -26.9859  -27.8618   20.8730 C   0  0  0  0  0  0
  -25.6405  -26.5696   19.3946 C   0  0  0  0  0  0
  -24.7213  -27.6283   19.3313 C   0  0  0  0  0  0
  -23.7188  -29.8186   20.1255 C   0  0  0  0  0  0
  -25.4152  -36.2883   24.0271 C   0  0  1  0  0  0
  -20.5945  -28.3774   23.1114 C   0  0  2  0  0  0
  -20.6799  -26.9438   22.5381 C   0  0  0  0  0  0
  -19.5775  -26.6363   21.5201 C   0  0  0  0  0  0
  -18.1951  -26.7940   22.1603 C   0  0  0  0  0  0
  -19.1582  -28.8912   23.2770 C   0  0  0  0  0  0
  -18.9497  -30.1498   23.8821 C   0  0  0  0  0  0
  -17.6496  -30.6604   24.0548 C   0  0  0  0  0  0
  -25.9163  -34.9272   23.4933 C   0  0  0  0  0  0
  -16.5375  -29.9097   23.6360 C   0  0  0  0  0  0
  -16.7299  -28.6516   23.0374 C   0  0  0  0  0  0
  -26.4620  -31.6529   25.0781 C   0  0  0  0  0  0
  -25.3653  -31.3925   26.1382 C   0  0  0  0  0  0
  -27.0586  -30.2840   24.6859 C   0  0  0  0  0  0
  -27.6053  -32.4416   25.7586 C   0  0  0  0  0  0
  -27.5569  -37.1719   24.8460 C   0  0  0  0  0  0
  -21.4333  -29.3042   22.3419 N   0  0  0  0  0  0
  -26.4262  -37.3667   23.9422 N   0  0  0  0  0  0
  -24.7777  -30.9398   22.0950 N   0  0  0  0  0  0
  -23.4158  -28.7903   23.2903 O   0  0  0  0  0  0
  -27.1977  -25.0101   20.4064 O   0  0  0  0  0  0
  -26.5774  -34.8851   22.4535 O   0  0  0  0  0  0
  -23.5913  -32.1225   23.6574 O   0  0  0  0  0  0
  -22.7516  -13.1701   21.0848 C   0  0  0  0  0  0
  -24.5307  -15.8770   20.7871 C   0  0  0  0  0  0
  -25.2576  -14.9481   22.1305 C   0  0  0  0  0  0
  -30.5167  -14.3358   23.8577 C   0  0  0  0  0  0
  -28.3727  -15.2761   24.6861 C   0  0  0  0  0  0
  -24.4175  -12.3526   23.6240 C   0  0  0  0  0  0
  -25.1315  -17.6873   20.2905 C   0  0  0  0  0  0
  -26.9890  -15.3479   22.1895 C   0  0  0  0  0  0
  -25.3312  -19.6444   20.7988 C   0  0  0  0  0  0
  -26.2172  -21.4098   20.2939 C   0  0  0  0  0  0
  -26.2851  -23.4220   20.5874 C   0  0  0  0  0  0
  -28.9812  -14.3813   23.5762 C   0  0  0  0  0  0
  -23.0382  -14.7018   19.9966 N   0  0  0  0  0  0
  -24.1636  -13.2780   22.5320 N   0  0  0  0  0  0
  -28.5506  -14.6758   22.1497 N   0  0  0  0  0  0
  -31.5136  -13.1923   19.4273 H   0  0  0  0  0  0
  -30.9611  -11.6038   19.8378 H   0  0  0  0  0  0
  -30.3013  -11.9011   17.5020 H   0  0  0  0  0  0
  -29.8495  -13.5582   17.7835 H   0  0  0  0  0  0
  -28.2340  -11.0716   18.4919 H   0  0  0  0  0  0
  -27.7541  -12.4516   17.5052 H   0  0  0  0  0  0
  -28.1359  -13.8929   19.3563 H   0  0  0  0  0  0
  -28.8775  -11.3102   20.7337 H   0  0  0  0  0  0
  -28.0859  -12.4119   21.7682 H   0  0  0  0  0  0
  -25.3685   -9.7445   22.3360 H   0  0  0  0  0  0
  -24.0860   -7.6732   22.7426 H   0  0  0  0  0  0
  -21.1711   -8.9368   19.8580 H   0  0  0  0  0  0
  -22.4689  -10.9611   19.4164 H   0  0  0  0  0  0
  -21.2594   -7.6464   23.9825 H   0  0  0  0  0  0
  -21.1613   -6.0658   25.9006 H   0  0  0  0  0  0
  -22.0394   -2.7863   23.2570 H   0  0  0  0  0  0
  -22.2738  -13.5301   23.5091 H   0  0  0  0  0  0
  -21.1829  -14.8891   23.4842 H   0  0  0  0  0  0
  -25.4447  -15.6840   18.8492 H   0  0  0  0  0  0
  -26.9313  -15.0365   18.3999 H   0  0  0  0  0  0
  -26.7544  -32.4758   23.0746 H   0  0  0  0  0  0
  -25.0199  -33.9322   25.0071 H   0  0  0  0  0  0
  -22.8166  -31.2926   21.3835 H   0  0  0  0  0  0
  -23.3809  -35.9394   23.3227 H   0  0  0  0  0  0
  -24.3559  -36.8869   22.2078 H   0  0  0  0  0  0
  -23.7180  -37.6237   23.6779 H   0  0  0  0  0  0
  -26.3332  -31.1686   20.6802 H   0  0  0  0  0  0
  -26.9054  -30.4593   22.1447 H   0  0  0  0  0  0
  -27.8484  -27.9747   21.5148 H   0  0  0  0  0  0
  -25.3939  -25.6892   18.8197 H   0  0  0  0  0  0
  -23.8410  -27.4947   18.7171 H   0  0  0  0  0  0
  -23.9524  -30.6127   19.4134 H   0  0  0  0  0  0
  -22.7943  -29.3646   19.7640 H   0  0  0  0  0  0
  -25.1357  -36.1636   25.0761 H   0  0  0  0  0  0
  -21.0039  -28.3417   24.1236 H   0  0  0  0  0  0
  -20.5680  -26.2402   23.3644 H   0  0  0  0  0  0
  -21.6665  -26.7411   22.1189 H   0  0  0  0  0  0
  -19.6954  -25.6254   21.1294 H   0  0  0  0  0  0
  -19.6734  -27.3115   20.6686 H   0  0  0  0  0  0
  -17.4224  -26.6649   21.4005 H   0  0  0  0  0  0
  -18.0359  -26.0102   22.9022 H   0  0  0  0  0  0
  -19.7987  -30.7320   24.2157 H   0  0  0  0  0  0
  -17.5066  -31.6282   24.5160 H   0  0  0  0  0  0
  -15.5384  -30.2988   23.7752 H   0  0  0  0  0  0
  -15.8682  -28.0829   22.7151 H   0  0  0  0  0  0
  -24.5839  -30.7261   25.7710 H   0  0  0  0  0  0
  -24.8849  -32.3189   26.4546 H   0  0  0  0  0  0
  -25.7794  -30.9264   27.0335 H   0  0  0  0  0  0
  -26.3323  -29.6332   24.1987 H   0  0  0  0  0  0
  -27.4027  -29.7445   25.5696 H   0  0  0  0  0  0
  -27.9309  -30.3893   24.0403 H   0  0  0  0  0  0
  -27.2579  -33.3792   26.1933 H   0  0  0  0  0  0
  -28.3979  -32.6851   25.0501 H   0  0  0  0  0  0
  -28.0600  -31.8721   26.5703 H   0  0  0  0  0  0
  -28.2519  -38.0080   24.7580 H   0  0  0  0  0  0
  -28.1129  -36.2607   24.6204 H   0  0  0  0  0  0
  -27.2290  -37.1252   25.8859 H   0  0  0  0  0  0
  -20.9573  -29.8774   21.6584 H   0  0  0  0  0  0
  -26.0077  -38.2698   24.1482 H   0  0  0  0  0  0
  -21.9417  -12.4638   21.0058 H   0  0  0  0  0  0
  -30.7197  -14.1230   24.9077 H   0  0  0  0  0  0
  -31.0069  -15.2864   23.6364 H   0  0  0  0  0  0
  -31.0366  -13.5519   23.3065 H   0  0  0  0  0  0
  -28.8023  -15.0466   25.6620 H   0  0  0  0  0  0
  -27.2967  -15.1352   24.8051 H   0  0  0  0  0  0
  -28.5821  -16.3317   24.5136 H   0  0  0  0  0  0
  -23.6138  -11.6194   23.6824 H   0  0  0  0  0  0
  -24.4665  -12.8970   24.5685 H   0  0  0  0  0  0
  -25.3663  -11.8398   23.4630 H   0  0  0  0  0  0
  -24.6242  -17.8217   19.3361 H   0  0  0  0  0  0
  -26.1597  -17.5034   19.9802 H   0  0  0  0  0  0
  -27.0055  -16.1850   22.8799 H   0  0  0  0  0  0
  -27.1296  -15.9144   21.2754 H   0  0  0  0  0  0
  -25.6521  -19.5520   21.8370 H   0  0  0  0  0  0
  -24.2858  -19.9434   20.8853 H   0  0  0  0  0  0
  -26.1023  -21.3891   19.2102 H   0  0  0  0  0  0
  -27.2659  -21.1478   20.4323 H   0  0  0  0  0  0
  -26.1254  -23.4666   21.6647 H   0  0  0  0  0  0
  -25.3170  -23.7200   20.1858 H   0  0  0  0  0  0
  -28.6198  -13.3733   23.7825 H   0  0  0  0  0  0
  1 25  1  0  0  0
  1 30  2  0  0  0
  1 85  1  0  0  0
  2  3  1  0  0  0
  2 25  1  0  0  0
  2 86  1  0  0  0
  2 87  1  0  0  0
  3  4  1  0  0  0
  3 88  1  0  0  0
  3 89  1  0  0  0
  4  5  1  0  0  0
  4 90  1  0  0  0
  4 91  1  0  0  0
  5  6  1  0  0  0
  5 26  1  0  0  0
  5 92  1  0  0  0
  6 25  1  0  0  0
  6 93  1  0  0  0
  6 94  1  0  0  0
  7  8  2  0  0  0
  7 26  1  0  0  0
  7 29  1  0  0  0
  8  9  1  0  0  0
  8 22  1  0  0  0
  9 10  1  0  0  0
  9 27  2  0  0  0
 10 11  2  0  0  0
 10 15  1  0  0  0
 11 12  1  0  0  0
 11 95  1  0  0  0
 12 13  2  0  0  0
 12 96  1  0  0  0
 13 14  1  0  0  0
 13 31  1  0  0  0
 14 15  2  0  0  0
 14 97  1  0  0  0
 15 98  1  0  0  0
 16 17  2  0  0  0
 16 21  1  0  0  0
 16 31  1  0  0  0
 17 18  1  0  0  0
 17 99  1  0  0  0
 18 19  2  0  0  0
 18100  1  0  0  0
 19 20  1  0  0  0
 19 24  1  0  0  0
 20 21  2  0  0  0
 20101  1  0  0  0
 21 23  1  0  0  0
 22 28  1  0  0  0
 22 32  2  0  0  0
 26 27  1  0  0  0
 28102  1  0  0  0
 28103  1  0  0  0
 29104  1  0  0  0
 29105  1  0  0  0
 33 34  1  0  0  0
 33 66  1  0  0  0
 33 70  2  0  0  0
 34 36  1  0  0  0
 34 59  1  0  0  0
 34106  1  0  0  0
 35 44  2  0  0  0
 35 45  1  0  0  0
 35 68  1  0  0  0
 36 56  1  0  0  0
 36107  1  0  0  0
 37 39  1  0  0  0
 37 47  1  0  0  0
 37 66  1  0  0  0
 37108  1  0  0  0
 38 43  2  0  0  0
 38 46  1  0  0  0
 38 47  1  0  0  0
 39 64  1  0  0  0
 39 67  2  0  0  0
 40 52  1  0  0  0
 40 53  2  0  0  0
 40 58  1  0  0  0
 41109  1  0  0  0
 41110  1  0  0  0
 41111  1  0  0  0
 41 48  1  0  0  0
 42 43  1  0  0  0
 42 66  1  0  0  0
 42112  1  0  0  0
 42113  1  0  0  0
 43 44  1  0  0  0
 44114  1  0  0  0
 45 46  2  0  0  0
 45115  1  0  0  0
 46116  1  0  0  0
 47117  1  0  0  0
 47118  1  0  0  0
 48 56  1  0  0  0
 48 65  1  0  0  0
 48119  1  0  0  0
 49 50  1  0  0  0
 49 53  1  0  0  0
 49 64  1  0  0  0
 49120  1  0  0  0
 50 51  1  0  0  0
 50121  1  0  0  0
 50122  1  0  0  0
 51 52  1  0  0  0
 51123  1  0  0  0
 51124  1  0  0  0
 52125  1  0  0  0
 52126  1  0  0  0
 53 54  1  0  0  0
 54 55  2  0  0  0
 54127  1  0  0  0
 55 57  1  0  0  0
 55128  1  0  0  0
 56 69  2  0  0  0
 57 58  2  0  0  0
 57129  1  0  0  0
 58130  1  0  0  0
 59 60  1  0  0  0
 59 61  1  0  0  0
 59 62  1  0  0  0
 60131  1  0  0  0
 60132  1  0  0  0
 60133  1  0  0  0
 61134  1  0  0  0
 61135  1  0  0  0
 61136  1  0  0  0
 62137  1  0  0  0
 62138  1  0  0  0
 62139  1  0  0  0
 63 65  1  0  0  0
 63140  1  0  0  0
 63141  1  0  0  0
 63142  1  0  0  0
 64143  1  0  0  0
 65144  1  0  0  0
 68 81  1  0  0  0
 71 83  2  0  0  0
 71 84  1  0  0  0
 71145  1  0  0  0
 72 73  2  0  0  0
 72 77  1  0  0  0
 72 83  1  0  0  0
 73 78  1  0  0  0
 73 84  1  0  0  0
 74146  1  0  0  0
 74147  1  0  0  0
 74148  1  0  0  0
 74 82  1  0  0  0
 75 82  1  0  0  0
 75149  1  0  0  0
 75150  1  0  0  0
 75151  1  0  0  0
 76 84  1  0  0  0
 76152  1  0  0  0
 76153  1  0  0  0
 76154  1  0  0  0
 77 79  1  0  0  0
 77155  1  0  0  0
 77156  1  0  0  0
 78 85  1  0  0  0
 78157  1  0  0  0
 78158  1  0  0  0
 79 80  1  0  0  0
 79159  1  0  0  0
 79160  1  0  0  0
 80 81  1  0  0  0
 80161  1  0  0  0
 80162  1  0  0  0
 81163  1  0  0  0
 81164  1  0  0  0
 82 85  1  0  0  0
 82165  1  0  0  0
M  ISO  4   1 100  68 101  81 101  85 100
M  END
> <chiral flag>
0

> <version>
0

> <s_m_source_file>
/data/baiqing/PycharmProjects/Reinvent-master-3.2/result/LINK_invent/BTK/process_docking_weight1_custom_sum_contain_oxygen_bond_distance_aromatic_linkinvent_7_9_3/rearranged_h_0053.sdf

> <i_m_source_file_index>
66

> <r_mmod_Potential_Energy-OPLS-2005>
17393.888671875

> <r_mmod_Stretch_Energy-OPLS-2005>
9887.3095703125

> <r_mmod_Bend_Energy-OPLS-2005>
1085.56030273438

> <r_mmod_Torsional_Energy-OPLS-2005>
473.002166748047

> <r_mmod_Improper_Torsional_Energy-OPLS-2005>
58.7230072021484

> <r_mmod_Van_der_Waal_Energy-OPLS-2005>
3466.21923828125

> <r_mmod_Electrostatic_Energy-OPLS-2005>
-272.810852050781

> <r_mmod_Solvation_Energy-OPLS-2005>
-224.105133056641

> <b_mmod_Minimization_Converged-OPLS-2005>
0

> <r_mmod_RMS_Derivative-OPLS-2005>
7.79630899429321

$$$$
69
                    3D
 Structure written by MMmdl.
156164  0  0  1  0            999 V2000
  -30.6617  -14.5340   20.5378 C   0  0  0  0  0  0
  -30.4219  -12.3364   19.4412 C   0  0  0  0  0  0
  -29.4988  -12.5081   18.2162 C   0  0  0  0  0  0
  -28.0191  -12.3632   18.6226 C   0  0  0  0  0  0
  -27.6538  -13.2109   19.8709 C   0  0  2  0  0  0
  -28.6924  -13.0211   20.9972 C   0  0  0  0  0  0
  -25.2549  -13.8171   20.5684 C   0  0  0  0  0  0
  -24.1812  -13.0449   20.9189 C   0  0  0  0  0  0
  -24.6354  -11.6907   20.8722 C   0  0  0  0  0  0
  -23.9022  -10.4293   21.0397 C   0  0  0  0  0  0
  -24.3580   -9.4221   21.9179 C   0  0  0  0  0  0
  -23.6275   -8.2246   22.0745 C   0  0  0  0  0  0
  -22.4266   -8.0266   21.3529 C   0  0  0  0  0  0
  -21.9884   -9.0239   20.4644 C   0  0  0  0  0  0
  -22.7188  -10.2127   20.3055 C   0  0  0  0  0  0
  -21.6844   -6.0720   22.5271 C   0  0  0  0  0  0
  -21.4011   -6.5629   23.8207 C   0  0  0  0  0  0
  -21.3674   -5.6792   24.9175 C   0  0  0  0  0  0
  -21.6048   -4.3053   24.7231 C   0  0  0  0  0  0
  -21.8819   -3.8129   23.4359 C   0  0  0  0  0  0
  -21.9200   -4.6946   22.3407 C   0  0  0  0  0  0
  -22.7844  -13.5252   21.1884 C   0  0  0  0  0  0
  -22.1659   -4.2129   21.0989 F   0  0  0  0  0  0
  -21.5648   -3.4544   25.7752 F   0  0  0  0  0  0
  -30.0184  -13.3361   20.4426 N   0  0  0  0  0  0
  -26.2965  -12.9331   20.3327 N   0  0  0  0  0  0
  -25.9278  -11.6492   20.5738 N   0  0  0  0  0  0
  -22.0483  -12.8218   22.0433 N   0  0  0  0  0  0
  -25.4327  -15.1876   20.4065 N   0  0  0  0  0  0
  -31.8098  -14.7042   20.1188 O   0  0  0  0  0  0
  -21.6638   -6.8853   21.4223 O   0  0  0  0  0  0
  -22.3532  -14.5576   20.6773 O   0  0  0  0  0  0
  -24.6182  -31.8631   23.2070 C   0  0  0  0  0  0
  -25.9058  -32.4800   23.8362 C   0  0  1  0  0  0
  -27.2353  -27.3879   20.1102 C   0  0  0  0  0  0
  -25.5906  -33.8606   24.2286 N   0  0  0  0  0  0
  -23.4066  -30.4884   21.5441 C   0  0  2  0  0  0
  -24.8535  -28.9476   20.1108 C   0  0  0  0  0  0
  -22.7403  -29.4669   22.4939 C   0  0  0  0  0  0
  -18.0274  -28.1368   22.8470 C   0  0  0  0  0  0
  -24.1480  -36.7312   23.2638 C   0  0  0  0  0  0
  -25.9379  -30.8194   21.3633 C   0  0  0  0  0  0
  -26.0140  -29.4480   20.7134 C   0  0  0  0  0  0
  -27.2016  -28.6751   20.7089 C   0  0  0  0  0  0
  -26.0470  -26.9044   19.5150 C   0  0  0  0  0  0
  -24.8685  -27.6777   19.5080 C   0  0  0  0  0  0
  -23.6170  -29.8189   20.1592 C   0  0  0  0  0  0
  -25.4099  -36.3091   24.0325 C   0  0  1  0  0  0
  -20.5876  -28.3665   23.1288 C   0  0  2  0  0  0
  -20.6772  -26.9398   22.5408 C   0  0  0  0  0  0
  -19.5772  -26.6388   21.5189 C   0  0  0  0  0  0
  -18.1932  -26.7918   22.1591 C   0  0  0  0  0  0
  -19.1527  -28.8826   23.2900 C   0  0  0  0  0  0
  -18.9447  -30.1433   23.8915 C   0  0  0  0  0  0
  -17.6446  -30.6573   24.0562 C   0  0  0  0  0  0
  -25.9037  -34.9467   23.5103 C   0  0  0  0  0  0
  -16.5350  -29.9075   23.6316 C   0  0  0  0  0  0
  -16.7267  -28.6492   23.0333 C   0  0  0  0  0  0
  -26.4477  -31.6599   25.0713 C   0  0  0  0  0  0
  -25.3734  -31.3743   26.1463 C   0  0  0  0  0  0
  -27.0321  -30.3028   24.6124 C   0  0  0  0  0  0
  -27.6034  -32.4328   25.7500 C   0  0  0  0  0  0
  -27.5573  -37.1808   24.8458 C   0  0  0  0  0  0
  -21.4130  -29.3055   22.3677 N   0  0  0  0  0  0
  -26.4285  -37.3778   23.9411 N   0  0  0  0  0  0
  -24.6723  -31.0732   22.0961 N   0  0  0  0  0  0
  -23.4169  -28.8201   23.2974 O   0  0  0  0  0  0
  -28.4173  -26.6578   20.1576 O   0  0  0  0  0  0
  -26.5606  -34.8916   22.4670 O   0  0  0  0  0  0
  -23.5371  -32.1415   23.7439 O   0  0  0  0  0  0
  -28.4387  -22.8124   19.6836 C   0  0  0  0  0  0
  -28.3188  -22.6869   21.8378 C   0  0  0  0  0  0
  -28.4679  -24.0990   20.1992 C   0  0  0  0  0  0
  -27.0856  -20.1412   19.5036 C   0  0  0  0  0  0
  -28.5886  -25.4176   19.4225 C   0  0  0  0  0  0
  -29.0185  -17.9862   20.8239 C   0  0  0  0  0  0
  -29.3096  -19.5249   20.6609 C   0  0  0  0  0  0
  -30.2515  -17.0219   20.8159 C   0  0  0  0  0  0
  -28.0360  -20.4440   20.6777 C   0  0  1  0  0  0
  -28.4209  -23.9983   21.5949 N   0  0  0  0  0  0
  -28.2785  -21.9073   20.7410 N   0  0  0  0  0  0
  -29.8999  -15.5827   20.9318 N   0  0  0  0  0  0
  -31.4690  -12.4360   19.1504 H   0  0  0  0  0  0
  -30.3206  -11.3331   19.8590 H   0  0  0  0  0  0
  -29.7479  -11.7688   17.4545 H   0  0  0  0  0  0
  -29.6575  -13.4867   17.7578 H   0  0  0  0  0  0
  -27.8372  -11.3078   18.8272 H   0  0  0  0  0  0
  -27.3671  -12.6268   17.7882 H   0  0  0  0  0  0
  -27.6881  -14.2550   19.5605 H   0  0  0  0  0  0
  -28.6759  -11.9917   21.3570 H   0  0  0  0  0  0
  -28.4492  -13.6395   21.8616 H   0  0  0  0  0  0
  -25.2725   -9.5726   22.4753 H   0  0  0  0  0  0
  -24.0009   -7.4641   22.7454 H   0  0  0  0  0  0
  -21.0829   -8.8736   19.8937 H   0  0  0  0  0  0
  -22.3632  -10.9663   19.6176 H   0  0  0  0  0  0
  -21.1971   -7.6136   23.9699 H   0  0  0  0  0  0
  -21.1506   -6.0529   25.9086 H   0  0  0  0  0  0
  -22.0582   -2.7591   23.2872 H   0  0  0  0  0  0
  -22.4089  -11.9864   22.4802 H   0  0  0  0  0  0
  -21.1101  -13.1241   22.2649 H   0  0  0  0  0  0
  -24.6723  -15.8513   20.5088 H   0  0  0  0  0  0
  -26.2877  -15.6127   20.0722 H   0  0  0  0  0  0
  -26.7129  -32.5493   23.1125 H   0  0  0  0  0  0
  -25.0024  -33.9742   25.0412 H   0  0  0  0  0  0
  -22.6994  -31.3085   21.4023 H   0  0  0  0  0  0
  -23.3728  -35.9668   23.3307 H   0  0  0  0  0  0
  -24.3574  -36.8931   22.2056 H   0  0  0  0  0  0
  -23.7261  -37.6525   23.6660 H   0  0  0  0  0  0
  -26.0477  -31.5810   20.5907 H   0  0  0  0  0  0
  -26.8280  -30.8775   21.9783 H   0  0  0  0  0  0
  -28.0949  -29.0575   21.1841 H   0  0  0  0  0  0
  -25.9934  -25.9194   19.0761 H   0  0  0  0  0  0
  -23.9725  -27.2811   19.0509 H   0  0  0  0  0  0
  -23.7231  -30.5917   19.3968 H   0  0  0  0  0  0
  -22.7407  -29.2397   19.8649 H   0  0  0  0  0  0
  -25.1285  -36.1940   25.0821 H   0  0  0  0  0  0
  -20.9974  -28.3246   24.1403 H   0  0  0  0  0  0
  -20.5651  -26.2280   23.3594 H   0  0  0  0  0  0
  -21.6635  -26.7431   22.1203 H   0  0  0  0  0  0
  -19.6934  -25.6294   21.1197 H   0  0  0  0  0  0
  -19.6711  -27.3215   20.6720 H   0  0  0  0  0  0
  -17.4215  -26.6687   21.3973 H   0  0  0  0  0  0
  -18.0325  -26.0040   22.8955 H   0  0  0  0  0  0
  -19.7935  -30.7237   24.2293 H   0  0  0  0  0  0
  -17.5012  -31.6247   24.5155 H   0  0  0  0  0  0
  -15.5348  -30.2980   23.7625 H   0  0  0  0  0  0
  -15.8671  -28.0822   22.7029 H   0  0  0  0  0  0
  -24.5863  -30.7138   25.7808 H   0  0  0  0  0  0
  -24.8989  -32.2929   26.4921 H   0  0  0  0  0  0
  -25.8078  -30.8889   27.0209 H   0  0  0  0  0  0
  -26.2887  -29.6789   24.1134 H   0  0  0  0  0  0
  -27.4032  -29.7267   25.4614 H   0  0  0  0  0  0
  -27.8746  -30.4337   23.9323 H   0  0  0  0  0  0
  -27.2607  -33.3579   26.2137 H   0  0  0  0  0  0
  -28.3824  -32.6959   25.0340 H   0  0  0  0  0  0
  -28.0715  -31.8417   26.5378 H   0  0  0  0  0  0
  -28.2582  -38.0103   24.7485 H   0  0  0  0  0  0
  -28.1058  -36.2637   24.6290 H   0  0  0  0  0  0
  -27.2289  -37.1473   25.8854 H   0  0  0  0  0  0
  -20.9278  -29.8786   21.6913 H   0  0  0  0  0  0
  -26.0155  -38.2851   24.1419 H   0  0  0  0  0  0
  -28.4677  -22.4815   18.6525 H   0  0  0  0  0  0
  -28.2281  -22.2855   22.8408 H   0  0  0  0  0  0
  -26.2159  -20.7984   19.5246 H   0  0  0  0  0  0
  -26.7045  -19.1219   19.5300 H   0  0  0  0  0  0
  -27.5832  -20.2856   18.5457 H   0  0  0  0  0  0
  -27.9766  -25.3877   18.5223 H   0  0  0  0  0  0
  -29.6027  -25.4655   19.0246 H   0  0  0  0  0  0
  -28.3509  -17.6677   20.0223 H   0  0  0  0  0  0
  -28.4613  -17.8394   21.7514 H   0  0  0  0  0  0
  -29.9796  -19.8400   21.4609 H   0  0  0  0  0  0
  -29.8639  -19.6925   19.7378 H   0  0  0  0  0  0
  -30.8097  -17.1752   19.8895 H   0  0  0  0  0  0
  -30.9286  -17.2769   21.6302 H   0  0  0  0  0  0
  -27.4866  -20.1981   21.5871 H   0  0  0  0  0  0
  -28.9726  -15.3548   21.2582 H   0  0  0  0  0  0
  1 25  1  0  0  0
  1 30  2  0  0  0
  1 82  1  0  0  0
  2  3  1  0  0  0
  2 25  1  0  0  0
  2 83  1  0  0  0
  2 84  1  0  0  0
  3  4  1  0  0  0
  3 85  1  0  0  0
  3 86  1  0  0  0
  4  5  1  0  0  0
  4 87  1  0  0  0
  4 88  1  0  0  0
  5  6  1  0  0  0
  5 26  1  0  0  0
  5 89  1  0  0  0
  6 25  1  0  0  0
  6 90  1  0  0  0
  6 91  1  0  0  0
  7  8  2  0  0  0
  7 26  1  0  0  0
  7 29  1  0  0  0
  8  9  1  0  0  0
  8 22  1  0  0  0
  9 10  1  0  0  0
  9 27  2  0  0  0
 10 11  2  0  0  0
 10 15  1  0  0  0
 11 12  1  0  0  0
 11 92  1  0  0  0
 12 13  2  0  0  0
 12 93  1  0  0  0
 13 14  1  0  0  0
 13 31  1  0  0  0
 14 15  2  0  0  0
 14 94  1  0  0  0
 15 95  1  0  0  0
 16 17  2  0  0  0
 16 21  1  0  0  0
 16 31  1  0  0  0
 17 18  1  0  0  0
 17 96  1  0  0  0
 18 19  2  0  0  0
 18 97  1  0  0  0
 19 20  1  0  0  0
 19 24  1  0  0  0
 20 21  2  0  0  0
 20 98  1  0  0  0
 21 23  1  0  0  0
 22 28  1  0  0  0
 22 32  2  0  0  0
 26 27  1  0  0  0
 28 99  1  0  0  0
 28100  1  0  0  0
 29101  1  0  0  0
 29102  1  0  0  0
 33 34  1  0  0  0
 33 66  1  0  0  0
 33 70  2  0  0  0
 34 36  1  0  0  0
 34 59  1  0  0  0
 34103  1  0  0  0
 35 44  2  0  0  0
 35 45  1  0  0  0
 35 68  1  0  0  0
 36 56  1  0  0  0
 36104  1  0  0  0
 37 39  1  0  0  0
 37 47  1  0  0  0
 37 66  1  0  0  0
 37105  1  0  0  0
 38 43  2  0  0  0
 38 46  1  0  0  0
 38 47  1  0  0  0
 39 64  1  0  0  0
 39 67  2  0  0  0
 40 52  1  0  0  0
 40 53  2  0  0  0
 40 58  1  0  0  0
 41106  1  0  0  0
 41107  1  0  0  0
 41108  1  0  0  0
 41 48  1  0  0  0
 42 43  1  0  0  0
 42 66  1  0  0  0
 42109  1  0  0  0
 42110  1  0  0  0
 43 44  1  0  0  0
 44111  1  0  0  0
 45 46  2  0  0  0
 45112  1  0  0  0
 46113  1  0  0  0
 47114  1  0  0  0
 47115  1  0  0  0
 48 56  1  0  0  0
 48 65  1  0  0  0
 48116  1  0  0  0
 49 50  1  0  0  0
 49 53  1  0  0  0
 49 64  1  0  0  0
 49117  1  0  0  0
 50 51  1  0  0  0
 50118  1  0  0  0
 50119  1  0  0  0
 51 52  1  0  0  0
 51120  1  0  0  0
 51121  1  0  0  0
 52122  1  0  0  0
 52123  1  0  0  0
 53 54  1  0  0  0
 54 55  2  0  0  0
 54124  1  0  0  0
 55 57  1  0  0  0
 55125  1  0  0  0
 56 69  2  0  0  0
 57 58  2  0  0  0
 57126  1  0  0  0
 58127  1  0  0  0
 59 60  1  0  0  0
 59 61  1  0  0  0
 59 62  1  0  0  0
 60128  1  0  0  0
 60129  1  0  0  0
 60130  1  0  0  0
 61131  1  0  0  0
 61132  1  0  0  0
 61133  1  0  0  0
 62134  1  0  0  0
 62135  1  0  0  0
 62136  1  0  0  0
 63 65  1  0  0  0
 63137  1  0  0  0
 63138  1  0  0  0
 63139  1  0  0  0
 64140  1  0  0  0
 65141  1  0  0  0
 68 75  1  0  0  0
 71 73  2  0  0  0
 71 81  1  0  0  0
 71142  1  0  0  0
 72 80  2  0  0  0
 72 81  1  0  0  0
 72143  1  0  0  0
 73 75  1  0  0  0
 73 80  1  0  0  0
 74144  1  0  0  0
 74145  1  0  0  0
 74146  1  0  0  0
 74 79  1  0  0  0
 75147  1  0  0  0
 75148  1  0  0  0
 76 77  1  0  0  0
 76 78  1  0  0  0
 76149  1  0  0  0
 76150  1  0  0  0
 77 79  1  0  0  0
 77151  1  0  0  0
 77152  1  0  0  0
 78 82  1  0  0  0
 78153  1  0  0  0
 78154  1  0  0  0
 79 81  1  0  0  0
 79155  1  0  0  0
 82156  1  0  0  0
M  ISO  4   1 100  68 101  75 101  82 100
M  END
> <chiral flag>
0

> <version>
0

> <s_m_source_file>
/data/baiqing/PycharmProjects/Reinvent-master-3.2/result/LINK_invent/BTK/process_docking_weight1_custom_sum_contain_oxygen_bond_distance_aromatic_linkinvent_7_9_3/rearranged_h_0053.sdf

> <i_m_source_file_index>
67

> <r_mmod_Potential_Energy-OPLS-2005>
-30.0733489990234

> <r_mmod_Stretch_Energy-OPLS-2005>
48.6228218078613

> <r_mmod_Bend_Energy-OPLS-2005>
122.102951049805

> <r_mmod_Torsional_Energy-OPLS-2005>
222.809356689453

> <r_mmod_Improper_Torsional_Energy-OPLS-2005>
4.88841819763184

> <r_mmod_Van_der_Waal_Energy-OPLS-2005>
123.010307312012

> <r_mmod_Electrostatic_Energy-OPLS-2005>
-338.583618164062

> <r_mmod_Solvation_Energy-OPLS-2005>
-234.976287841797

> <b_mmod_Minimization_Converged-OPLS-2005>
0

> <r_mmod_RMS_Derivative-OPLS-2005>
3.36723780632019

$$$$
70
                    3D
 Structure written by MMmdl.
150158  0  0  1  0            999 V2000
  -30.5307  -15.0153   20.4602 C   0  0  0  0  0  0
  -30.4398  -12.6444   19.5031 C   0  0  0  0  0  0
  -29.5187  -12.5448   18.2613 C   0  0  0  0  0  0
  -28.0537  -12.3188   18.6765 C   0  0  0  0  0  0
  -27.6265  -13.2480   19.8407 C   0  0  2  0  0  0
  -28.6684  -13.2572   20.9765 C   0  0  0  0  0  0
  -25.2444  -13.8219   20.5712 C   0  0  0  0  0  0
  -24.1752  -13.0437   20.9216 C   0  0  0  0  0  0
  -24.6374  -11.6924   20.8739 C   0  0  0  0  0  0
  -23.9063  -10.4293   21.0394 C   0  0  0  0  0  0
  -24.3615   -9.4211   21.9175 C   0  0  0  0  0  0
  -23.6288   -8.2249   22.0750 C   0  0  0  0  0  0
  -22.4270   -8.0285   21.3545 C   0  0  0  0  0  0
  -21.9910   -9.0251   20.4645 C   0  0  0  0  0  0
  -22.7230  -10.2130   20.3051 C   0  0  0  0  0  0
  -21.6845   -6.0746   22.5282 C   0  0  0  0  0  0
  -21.4014   -6.5649   23.8216 C   0  0  0  0  0  0
  -21.3656   -5.6796   24.9175 C   0  0  0  0  0  0
  -21.6046   -4.3062   24.7221 C   0  0  0  0  0  0
  -21.8824   -3.8157   23.4343 C   0  0  0  0  0  0
  -21.9192   -4.6978   22.3402 C   0  0  0  0  0  0
  -22.7780  -13.5217   21.1878 C   0  0  0  0  0  0
  -22.1660   -4.2165   21.0977 F   0  0  0  0  0  0
  -21.5622   -3.4542   25.7734 F   0  0  0  0  0  0
  -29.9308  -13.7421   20.3916 N   0  0  0  0  0  0
  -26.2862  -12.9440   20.3246 N   0  0  0  0  0  0
  -25.9309  -11.6570   20.5726 N   0  0  0  0  0  0
  -22.0430  -12.8199   22.0444 N   0  0  0  0  0  0
  -25.4144  -15.1944   20.4186 N   0  0  0  0  0  0
  -31.7107  -15.0541   20.0847 O   0  0  0  0  0  0
  -21.6636   -6.8881   21.4237 O   0  0  0  0  0  0
  -22.3466  -14.5514   20.6702 O   0  0  0  0  0  0
  -24.6468  -31.8390   23.1836 C   0  0  0  0  0  0
  -25.9203  -32.4682   23.8249 C   0  0  1  0  0  0
  -27.2183  -27.0847   20.1684 C   0  0  0  0  0  0
  -25.5927  -33.8487   24.2169 N   0  0  0  0  0  0
  -23.4542  -30.4543   21.5314 C   0  0  2  0  0  0
  -24.9059  -28.8689   20.1149 C   0  0  0  0  0  0
  -22.7586  -29.4525   22.4878 C   0  0  0  0  0  0
  -18.0309  -28.1373   22.8471 C   0  0  0  0  0  0
  -24.1484  -36.7242   23.2650 C   0  0  0  0  0  0
  -26.0129  -30.6995   21.3869 C   0  0  0  0  0  0
  -26.0851  -29.3039   20.7314 C   0  0  0  0  0  0
  -27.2420  -28.4296   20.7350 C   0  0  0  0  0  0
  -26.0116  -26.7604   19.5120 C   0  0  0  0  0  0
  -24.8845  -27.6135   19.4879 C   0  0  0  0  0  0
  -23.6833  -29.7751   20.1547 C   0  0  0  0  0  0
  -25.4125  -36.3027   24.0319 C   0  0  1  0  0  0
  -20.5924  -28.3716   23.1245 C   0  0  2  0  0  0
  -20.6811  -26.9443   22.5351 C   0  0  0  0  0  0
  -19.5776  -26.6469   21.5146 C   0  0  0  0  0  0
  -18.1962  -26.7919   22.1586 C   0  0  0  0  0  0
  -19.1556  -28.8863   23.2848 C   0  0  0  0  0  0
  -18.9469  -30.1454   23.8888 C   0  0  0  0  0  0
  -17.6456  -30.6550   24.0583 C   0  0  0  0  0  0
  -25.9073  -34.9404   23.5062 C   0  0  0  0  0  0
  -16.5351  -29.9050   23.6344 C   0  0  0  0  0  0
  -16.7288  -28.6482   23.0349 C   0  0  0  0  0  0
  -26.4515  -31.6569   25.0708 C   0  0  0  0  0  0
  -25.3688  -31.3757   26.1398 C   0  0  0  0  0  0
  -27.0404  -30.2970   24.6315 C   0  0  0  0  0  0
  -27.6037  -32.4359   25.7488 C   0  0  0  0  0  0
  -27.5572  -37.1789   24.8477 C   0  0  0  0  0  0
  -21.4272  -29.3051   22.3641 N   0  0  0  0  0  0
  -26.4290  -37.3745   23.9406 N   0  0  0  0  0  0
  -24.7253  -31.0195   22.0894 N   0  0  0  0  0  0
  -23.4216  -28.8080   23.3044 O   0  0  0  0  0  0
  -28.2632  -26.0779   20.2506 O   0  0  0  0  0  0
  -26.5676  -34.8909   22.4652 O   0  0  0  0  0  0
  -23.5572  -32.1273   23.7037 O   0  0  0  0  0  0
  -28.1047  -19.6249   20.8171 C   0  0  0  0  0  0
  -29.8871  -20.5659   20.1712 C   0  0  0  0  0  0
  -29.4241  -19.2330   20.3923 C   0  0  0  0  0  0
  -28.9280  -16.3495   21.8451 C   0  0  0  0  0  0
  -30.1712  -17.7291   20.1666 C   0  0  0  0  0  0
  -29.1121  -23.2521   20.4890 C   0  0  0  0  0  0
  -28.0125  -24.5169   20.1459 C   0  0  0  0  0  0
  -27.8472  -20.9674   20.8529 N   0  0  0  0  0  0
  -28.9464  -21.6489   20.4183 N   0  0  0  0  0  0
  -29.8082  -16.2572   20.6793 N   0  0  0  0  0  0
  -31.4655  -12.8209   19.1761 H   0  0  0  0  0  0
  -30.4701  -11.6941   20.0387 H   0  0  0  0  0  0
  -29.8465  -11.7361   17.6061 H   0  0  0  0  0  0
  -29.5938  -13.4632   17.6768 H   0  0  0  0  0  0
  -27.9571  -11.2773   18.9869 H   0  0  0  0  0  0
  -27.3878  -12.4447   17.8215 H   0  0  0  0  0  0
  -27.5917  -14.2547   19.4216 H   0  0  0  0  0  0
  -28.7886  -12.2592   21.4002 H   0  0  0  0  0  0
  -28.3212  -13.8710   21.7997 H   0  0  0  0  0  0
  -25.2761   -9.5704   22.4745 H   0  0  0  0  0  0
  -24.0008   -7.4644   22.7473 H   0  0  0  0  0  0
  -21.0850   -8.8772   19.8937 H   0  0  0  0  0  0
  -22.3689  -10.9676   19.6164 H   0  0  0  0  0  0
  -21.2004   -7.6156   23.9728 H   0  0  0  0  0  0
  -21.1463   -6.0519   25.9078 H   0  0  0  0  0  0
  -22.0601   -2.7620   23.2831 H   0  0  0  0  0  0
  -22.4068  -11.9866   22.4815 H   0  0  0  0  0  0
  -21.1037  -13.1198   22.2659 H   0  0  0  0  0  0
  -24.6508  -15.8516   20.5337 H   0  0  0  0  0  0
  -26.2716  -15.6300   20.1024 H   0  0  0  0  0  0
  -26.7273  -32.5283   23.0983 H   0  0  0  0  0  0
  -25.0026  -33.9590   25.0285 H   0  0  0  0  0  0
  -22.7577  -31.2799   21.3700 H   0  0  0  0  0  0
  -23.3756  -35.9565   23.3326 H   0  0  0  0  0  0
  -24.3555  -36.8860   22.2058 H   0  0  0  0  0  0
  -23.7227  -37.6441   23.6677 H   0  0  0  0  0  0
  -26.1694  -31.4510   20.6120 H   0  0  0  0  0  0
  -26.8827  -30.7573   22.0292 H   0  0  0  0  0  0
  -28.1422  -28.7587   21.2347 H   0  0  0  0  0  0
  -25.9089  -25.7967   19.0361 H   0  0  0  0  0  0
  -23.9828  -27.2755   18.9961 H   0  0  0  0  0  0
  -23.8200  -30.5434   19.3931 H   0  0  0  0  0  0
  -22.7987  -29.2134   19.8499 H   0  0  0  0  0  0
  -25.1318  -36.1865   25.0812 H   0  0  0  0  0  0
  -21.0004  -28.3249   24.1370 H   0  0  0  0  0  0
  -20.5730  -26.2295   23.3519 H   0  0  0  0  0  0
  -21.6675  -26.7505   22.1105 H   0  0  0  0  0  0
  -19.6968  -25.6421   21.1085 H   0  0  0  0  0  0
  -19.6676  -27.3370   20.6746 H   0  0  0  0  0  0
  -17.4226  -26.6675   21.3990 H   0  0  0  0  0  0
  -18.0425  -26.0015   22.8946 H   0  0  0  0  0  0
  -19.7930  -30.7283   24.2261 H   0  0  0  0  0  0
  -17.4978  -31.6196   24.5234 H   0  0  0  0  0  0
  -15.5343  -30.2915   23.7695 H   0  0  0  0  0  0
  -15.8688  -28.0789   22.7074 H   0  0  0  0  0  0
  -24.5858  -30.7129   25.7699 H   0  0  0  0  0  0
  -24.8884  -32.2935   26.4797 H   0  0  0  0  0  0
  -25.7946  -30.8927   27.0201 H   0  0  0  0  0  0
  -26.3038  -29.6676   24.1314 H   0  0  0  0  0  0
  -27.4006  -29.7288   25.4902 H   0  0  0  0  0  0
  -27.8938  -30.4218   23.9652 H   0  0  0  0  0  0
  -27.2625  -33.3684   26.2005 H   0  0  0  0  0  0
  -28.3864  -32.6902   25.0323 H   0  0  0  0  0  0
  -28.0696  -31.8535   26.5451 H   0  0  0  0  0  0
  -28.2623  -38.0058   24.7492 H   0  0  0  0  0  0
  -28.1037  -36.2585   24.6356 H   0  0  0  0  0  0
  -27.2278  -37.1503   25.8882 H   0  0  0  0  0  0
  -20.9502  -29.8760   21.6807 H   0  0  0  0  0  0
  -26.0159  -38.2817   24.1404 H   0  0  0  0  0  0
  -27.3045  -18.9607   21.1173 H   0  0  0  0  0  0
  -30.8798  -20.8474   19.8495 H   0  0  0  0  0  0
  -28.9667  -17.3340   22.3099 H   0  0  0  0  0  0
  -29.2284  -15.6551   22.6309 H   0  0  0  0  0  0
  -27.8936  -16.1519   21.5673 H   0  0  0  0  0  0
  -31.2161  -17.8452   20.4580 H   0  0  0  0  0  0
  -30.2392  -17.5835   19.0878 H   0  0  0  0  0  0
  -29.4464  -23.4392   21.5103 H   0  0  0  0  0  0
  -29.9937  -23.4679   19.8863 H   0  0  0  0  0  0
  -27.1301  -24.3192   20.7548 H   0  0  0  0  0  0
  -27.6870  -24.3434   19.1209 H   0  0  0  0  0  0
  1 25  1  0  0  0
  1 30  2  0  0  0
  1 80  1  0  0  0
  2  3  1  0  0  0
  2 25  1  0  0  0
  2 81  1  0  0  0
  2 82  1  0  0  0
  3  4  1  0  0  0
  3 83  1  0  0  0
  3 84  1  0  0  0
  4  5  1  0  0  0
  4 85  1  0  0  0
  4 86  1  0  0  0
  5  6  1  0  0  0
  5 26  1  0  0  0
  5 87  1  0  0  0
  6 25  1  0  0  0
  6 88  1  0  0  0
  6 89  1  0  0  0
  7  8  2  0  0  0
  7 26  1  0  0  0
  7 29  1  0  0  0
  8  9  1  0  0  0
  8 22  1  0  0  0
  9 10  1  0  0  0
  9 27  2  0  0  0
 10 11  2  0  0  0
 10 15  1  0  0  0
 11 12  1  0  0  0
 11 90  1  0  0  0
 12 13  2  0  0  0
 12 91  1  0  0  0
 13 14  1  0  0  0
 13 31  1  0  0  0
 14 15  2  0  0  0
 14 92  1  0  0  0
 15 93  1  0  0  0
 16 17  2  0  0  0
 16 21  1  0  0  0
 16 31  1  0  0  0
 17 18  1  0  0  0
 17 94  1  0  0  0
 18 19  2  0  0  0
 18 95  1  0  0  0
 19 20  1  0  0  0
 19 24  1  0  0  0
 20 21  2  0  0  0
 20 96  1  0  0  0
 21 23  1  0  0  0
 22 28  1  0  0  0
 22 32  2  0  0  0
 26 27  1  0  0  0
 28 97  1  0  0  0
 28 98  1  0  0  0
 29 99  1  0  0  0
 29100  1  0  0  0
 33 34  1  0  0  0
 33 66  1  0  0  0
 33 70  2  0  0  0
 34 36  1  0  0  0
 34 59  1  0  0  0
 34101  1  0  0  0
 35 44  2  0  0  0
 35 45  1  0  0  0
 35 68  1  0  0  0
 36 56  1  0  0  0
 36102  1  0  0  0
 37 39  1  0  0  0
 37 47  1  0  0  0
 37 66  1  0  0  0
 37103  1  0  0  0
 38 43  2  0  0  0
 38 46  1  0  0  0
 38 47  1  0  0  0
 39 64  1  0  0  0
 39 67  2  0  0  0
 40 52  1  0  0  0
 40 53  2  0  0  0
 40 58  1  0  0  0
 41104  1  0  0  0
 41105  1  0  0  0
 41106  1  0  0  0
 41 48  1  0  0  0
 42 43  1  0  0  0
 42 66  1  0  0  0
 42107  1  0  0  0
 42108  1  0  0  0
 43 44  1  0  0  0
 44109  1  0  0  0
 45 46  2  0  0  0
 45110  1  0  0  0
 46111  1  0  0  0
 47112  1  0  0  0
 47113  1  0  0  0
 48 56  1  0  0  0
 48 65  1  0  0  0
 48114  1  0  0  0
 49 50  1  0  0  0
 49 53  1  0  0  0
 49 64  1  0  0  0
 49115  1  0  0  0
 50 51  1  0  0  0
 50116  1  0  0  0
 50117  1  0  0  0
 51 52  1  0  0  0
 51118  1  0  0  0
 51119  1  0  0  0
 52120  1  0  0  0
 52121  1  0  0  0
 53 54  1  0  0  0
 54 55  2  0  0  0
 54122  1  0  0  0
 55 57  1  0  0  0
 55123  1  0  0  0
 56 69  2  0  0  0
 57 58  2  0  0  0
 57124  1  0  0  0
 58125  1  0  0  0
 59 60  1  0  0  0
 59 61  1  0  0  0
 59 62  1  0  0  0
 60126  1  0  0  0
 60127  1  0  0  0
 60128  1  0  0  0
 61129  1  0  0  0
 61130  1  0  0  0
 61131  1  0  0  0
 62132  1  0  0  0
 62133  1  0  0  0
 62134  1  0  0  0
 63 65  1  0  0  0
 63135  1  0  0  0
 63136  1  0  0  0
 63137  1  0  0  0
 64138  1  0  0  0
 65139  1  0  0  0
 68 77  1  0  0  0
 71 73  1  0  0  0
 71 78  2  0  0  0
 71140  1  0  0  0
 72 73  2  0  0  0
 72 79  1  0  0  0
 72141  1  0  0  0
 73 75  1  0  0  0
 74 80  1  0  0  0
 74142  1  0  0  0
 74143  1  0  0  0
 74144  1  0  0  0
 75 80  1  0  0  0
 75145  1  0  0  0
 75146  1  0  0  0
 76 77  1  0  0  0
 76 79  1  0  0  0
 76147  1  0  0  0
 76148  1  0  0  0
 77149  1  0  0  0
 77150  1  0  0  0
 78 79  1  0  0  0
M  ISO  4   1 100  68 101  77 101  80 100
M  END
> <chiral flag>
0

> <version>
0

> <s_m_source_file>
/data/baiqing/PycharmProjects/Reinvent-master-3.2/result/LINK_invent/BTK/process_docking_weight1_custom_sum_contain_oxygen_bond_distance_aromatic_linkinvent_7_9_3/rearranged_h_0053.sdf

> <i_m_source_file_index>
68

> <r_mmod_Potential_Energy-OPLS-2005>
732.182983398438

> <r_mmod_Stretch_Energy-OPLS-2005>
320.598388671875

> <r_mmod_Bend_Energy-OPLS-2005>
305.184722900391

> <r_mmod_Torsional_Energy-OPLS-2005>
253.939361572266

> <r_mmod_Improper_Torsional_Energy-OPLS-2005>
8.2588062286377

> <r_mmod_Van_der_Waal_Energy-OPLS-2005>
114.744163513184

> <r_mmod_Electrostatic_Energy-OPLS-2005>
-281.526214599609

> <r_mmod_Solvation_Energy-OPLS-2005>
-222.403839111328

> <b_mmod_Minimization_Converged-OPLS-2005>
0

> <r_mmod_RMS_Derivative-OPLS-2005>
2.0475025177002

$$$$
71
                    3D
 Structure written by MMmdl.
163171  0  0  1  0            999 V2000
  -30.6565  -14.7705   20.4468 C   0  0  0  0  0  0
  -30.4354  -12.4981   19.4150 C   0  0  0  0  0  0
  -29.4752  -12.5287   18.2073 C   0  0  0  0  0  0
  -28.0151  -12.3347   18.6543 C   0  0  0  0  0  0
  -27.6481  -13.2095   19.8809 C   0  0  2  0  0  0
  -28.7320  -13.0975   20.9832 C   0  0  0  0  0  0
  -25.2547  -13.8156   20.5779 C   0  0  0  0  0  0
  -24.1810  -13.0451   20.9229 C   0  0  0  0  0  0
  -24.6379  -11.6907   20.8818 C   0  0  0  0  0  0
  -23.9025  -10.4320   21.0418 C   0  0  0  0  0  0
  -24.3554   -9.4242   21.9199 C   0  0  0  0  0  0
  -23.6247   -8.2281   22.0729 C   0  0  0  0  0  0
  -22.4246   -8.0305   21.3493 C   0  0  0  0  0  0
  -21.9870   -9.0286   20.4610 C   0  0  0  0  0  0
  -22.7198  -10.2172   20.3045 C   0  0  0  0  0  0
  -21.6930   -6.0707   22.5223 C   0  0  0  0  0  0
  -21.4135   -6.5612   23.8158 C   0  0  0  0  0  0
  -21.3621   -5.6758   24.9109 C   0  0  0  0  0  0
  -21.5997   -4.3015   24.7181 C   0  0  0  0  0  0
  -21.8863   -3.8107   23.4321 C   0  0  0  0  0  0
  -21.9232   -4.6926   22.3368 C   0  0  0  0  0  0
  -22.7826  -13.5229   21.1846 C   0  0  0  0  0  0
  -22.1691   -4.2083   21.0950 F   0  0  0  0  0  0
  -21.5509   -3.4505   25.7700 F   0  0  0  0  0  0
  -29.9858  -13.5562   20.3615 N   0  0  0  0  0  0
  -26.2993  -12.9321   20.3595 N   0  0  0  0  0  0
  -25.9328  -11.6480   20.5992 N   0  0  0  0  0  0
  -22.0505  -12.8220   22.0406 N   0  0  0  0  0  0
  -25.4190  -15.1875   20.4092 N   0  0  0  0  0  0
  -31.8559  -14.7630   20.1537 O   0  0  0  0  0  0
  -21.6686   -6.8858   21.4188 O   0  0  0  0  0  0
  -22.3519  -14.5543   20.6702 O   0  0  0  0  0  0
  -24.6319  -31.8567   23.2002 C   0  0  0  0  0  0
  -25.9112  -32.4800   23.8370 C   0  0  1  0  0  0
  -27.2383  -27.2695   20.1192 C   0  0  0  0  0  0
  -25.5908  -33.8603   24.2335 N   0  0  0  0  0  0
  -23.4288  -30.4758   21.5469 C   0  0  2  0  0  0
  -24.8767  -28.9180   20.1163 C   0  0  0  0  0  0
  -22.7499  -29.4609   22.4976 C   0  0  0  0  0  0
  -18.0287  -28.1398   22.8475 C   0  0  0  0  0  0
  -24.1474  -36.7305   23.2651 C   0  0  0  0  0  0
  -25.9719  -30.7699   21.3723 C   0  0  0  0  0  0
  -26.0473  -29.3874   20.7240 C   0  0  0  0  0  0
  -27.2286  -28.5774   20.7106 C   0  0  0  0  0  0
  -26.0402  -26.8647   19.4843 C   0  0  0  0  0  0
  -24.8798  -27.6668   19.4819 C   0  0  0  0  0  0
  -23.6434  -29.8026   20.1649 C   0  0  0  0  0  0
  -25.4099  -36.3145   24.0370 C   0  0  1  0  0  0
  -20.5882  -28.3712   23.1286 C   0  0  2  0  0  0
  -20.6790  -26.9440   22.5411 C   0  0  0  0  0  0
  -19.5777  -26.6398   21.5208 C   0  0  0  0  0  0
  -18.1947  -26.7949   22.1608 C   0  0  0  0  0  0
  -19.1533  -28.8868   23.2883 C   0  0  0  0  0  0
  -18.9453  -30.1455   23.8924 C   0  0  0  0  0  0
  -17.6457  -30.6601   24.0561 C   0  0  0  0  0  0
  -25.9022  -34.9487   23.5162 C   0  0  0  0  0  0
  -16.5351  -29.9102   23.6319 C   0  0  0  0  0  0
  -16.7269  -28.6513   23.0355 C   0  0  0  0  0  0
  -26.4482  -31.6584   25.0723 C   0  0  0  0  0  0
  -25.3695  -31.3636   26.1414 C   0  0  0  0  0  0
  -27.0351  -30.3059   24.6105 C   0  0  0  0  0  0
  -27.6096  -32.4261   25.7474 C   0  0  0  0  0  0
  -27.5598  -37.1822   24.8482 C   0  0  0  0  0  0
  -21.4207  -29.3061   22.3693 N   0  0  0  0  0  0
  -26.4315  -37.3811   23.9417 N   0  0  0  0  0  0
  -24.6982  -31.0502   22.0991 N   0  0  0  0  0  0
  -23.4177  -28.8164   23.3100 O   0  0  0  0  0  0
  -28.3701  -26.4171   20.1337 O   0  0  0  0  0  0
  -26.5598  -34.8942   22.4735 O   0  0  0  0  0  0
  -23.5453  -32.1384   23.7273 O   0  0  0  0  0  0
  -31.8202  -22.1467   19.5614 C   0  0  0  0  0  0
  -30.6863  -21.5062   19.9995 C   0  0  0  0  0  0
  -32.3935  -20.0333   19.8381 C   0  0  0  0  0  0
  -33.3676  -18.9044   19.9331 C   0  0  0  0  0  0
  -30.4142  -18.9534   22.2018 C   0  0  0  0  0  0
  -28.6102  -16.2806   20.8852 C   0  0  0  0  0  0
  -29.3777  -22.3187   20.2750 C   0  0  0  0  0  0
  -29.4797  -23.9427   20.1080 C   0  0  0  0  0  0
  -30.7264  -17.3442   20.1497 C   0  0  0  0  0  0
  -28.2028  -24.9245   20.2303 C   0  0  0  0  0  0
  -30.3136  -18.8563   20.6666 C   0  0  2  0  0  0
  -31.0621  -20.1125   20.1261 N   0  0  0  0  0  0
  -32.8169  -21.2392   19.4766 N   0  3  0  0  0  0
  -30.0159  -16.0327   20.5437 N   0  0  0  0  0  0
  -31.4557  -12.6478   19.0567 H   0  0  0  0  0  0
  -30.4339  -11.5174   19.8893 H   0  0  0  0  0  0
  -29.7375  -11.7553   17.4843 H   0  0  0  0  0  0
  -29.5769  -13.4832   17.6888 H   0  0  0  0  0  0
  -27.8787  -11.2794   18.8934 H   0  0  0  0  0  0
  -27.3346  -12.5350   17.8267 H   0  0  0  0  0  0
  -27.6439  -14.2304   19.5065 H   0  0  0  0  0  0
  -28.8245  -12.0577   21.3038 H   0  0  0  0  0  0
  -28.5100  -13.6217   21.9076 H   0  0  0  0  0  0
  -25.2684   -9.5713   22.4817 H   0  0  0  0  0  0
  -23.9908   -7.4685   22.7458 H   0  0  0  0  0  0
  -21.0793   -8.8841   19.8911 H   0  0  0  0  0  0
  -22.3662  -10.9721   19.6152 H   0  0  0  0  0  0
  -21.2321   -7.6152   23.9642 H   0  0  0  0  0  0
  -21.1311   -6.0498   25.8980 H   0  0  0  0  0  0
  -22.0692   -2.7570   23.2861 H   0  0  0  0  0  0
  -22.4158  -11.9865   22.4748 H   0  0  0  0  0  0
  -21.1116  -13.1186   22.2650 H   0  0  0  0  0  0
  -24.6578  -15.8449   20.5389 H   0  0  0  0  0  0
  -26.2706  -15.6268   20.0916 H   0  0  0  0  0  0
  -26.7173  -32.5466   23.1106 H   0  0  0  0  0  0
  -25.0090  -33.9727   25.0517 H   0  0  0  0  0  0
  -22.7284  -31.3000   21.4021 H   0  0  0  0  0  0
  -23.3776  -35.9597   23.3319 H   0  0  0  0  0  0
  -24.3570  -36.8902   22.2064 H   0  0  0  0  0  0
  -23.7144  -37.6491   23.6626 H   0  0  0  0  0  0
  -26.0820  -31.5170   20.5847 H   0  0  0  0  0  0
  -26.8612  -30.8457   21.9854 H   0  0  0  0  0  0
  -28.1286  -28.9373   21.1889 H   0  0  0  0  0  0
  -25.9753  -25.9198   18.9679 H   0  0  0  0  0  0
  -23.9893  -27.3103   18.9813 H   0  0  0  0  0  0
  -23.7572  -30.5755   19.4056 H   0  0  0  0  0  0
  -22.7620  -29.2298   19.8708 H   0  0  0  0  0  0
  -25.1264  -36.2071   25.0869 H   0  0  0  0  0  0
  -20.9957  -28.3290   24.1411 H   0  0  0  0  0  0
  -20.5709  -26.2328   23.3608 H   0  0  0  0  0  0
  -21.6665  -26.7497   22.1199 H   0  0  0  0  0  0
  -19.6956  -25.6298   21.1267 H   0  0  0  0  0  0
  -19.6733  -27.3183   20.6716 H   0  0  0  0  0  0
  -17.4227  -26.6687   21.4003 H   0  0  0  0  0  0
  -18.0358  -26.0082   22.8998 H   0  0  0  0  0  0
  -19.7915  -30.7261   24.2347 H   0  0  0  0  0  0
  -17.4995  -31.6285   24.5160 H   0  0  0  0  0  0
  -15.5347  -30.3019   23.7613 H   0  0  0  0  0  0
  -15.8667  -28.0824   22.7090 H   0  0  0  0  0  0
  -24.5937  -30.6939   25.7668 H   0  0  0  0  0  0
  -24.8771  -32.2737   26.4854 H   0  0  0  0  0  0
  -25.7981  -30.8785   27.0190 H   0  0  0  0  0  0
  -26.2914  -29.6785   24.1176 H   0  0  0  0  0  0
  -27.4192  -29.7321   25.4547 H   0  0  0  0  0  0
  -27.8705  -30.4457   23.9241 H   0  0  0  0  0  0
  -27.2835  -33.3612   26.2022 H   0  0  0  0  0  0
  -28.3901  -32.6698   25.0260 H   0  0  0  0  0  0
  -28.0746  -31.8358   26.5372 H   0  0  0  0  0  0
  -28.2641  -38.0106   24.7561 H   0  0  0  0  0  0
  -28.1086  -36.2650   24.6294 H   0  0  0  0  0  0
  -27.2322  -37.1449   25.8889 H   0  0  0  0  0  0
  -20.9422  -29.8750   21.6852 H   0  0  0  0  0  0
  -26.0250  -38.2929   24.1359 H   0  0  0  0  0  0
  -32.0057  -23.1888   19.3404 H   0  0  0  0  0  0
  -33.3311  -18.4922   20.9416 H   0  0  0  0  0  0
  -34.3755  -19.2800   19.7591 H   0  0  0  0  0  0
  -33.1376  -18.1699   19.1624 H   0  0  0  0  0  0
  -29.8287  -18.2091   22.7356 H   0  0  0  0  0  0
  -30.0673  -19.9290   22.5417 H   0  0  0  0  0  0
  -31.4454  -18.8408   22.5396 H   0  0  0  0  0  0
  -28.4849  -17.1958   21.4517 H   0  0  0  0  0  0
  -28.1432  -15.5413   21.5177 H   0  0  0  0  0  0
  -28.0172  -16.3999   19.9801 H   0  0  0  0  0  0
  -29.0497  -22.0887   21.2877 H   0  0  0  0  0  0
  -28.6101  -21.9356   19.6053 H   0  0  0  0  0  0
  -29.9034  -24.1413   19.1240 H   0  0  0  0  0  0
  -30.2268  -24.2973   20.8179 H   0  0  0  0  0  0
  -31.7385  -17.1505   20.4778 H   0  0  0  0  0  0
  -30.7566  -17.3571   19.0576 H   0  0  0  0  0  0
  -27.7248  -24.7310   21.1910 H   0  0  0  0  0  0
  -27.4953  -24.5803   19.4790 H   0  0  0  0  0  0
  -29.2773  -19.0210   20.3743 H   0  0  0  0  0  0
  -33.7751  -21.4629   19.2360 H   0  0  0  0  0  0
  1 25  1  0  0  0
  1 30  2  0  0  0
  1 84  1  0  0  0
  2  3  1  0  0  0
  2 25  1  0  0  0
  2 85  1  0  0  0
  2 86  1  0  0  0
  3  4  1  0  0  0
  3 87  1  0  0  0
  3 88  1  0  0  0
  4  5  1  0  0  0
  4 89  1  0  0  0
  4 90  1  0  0  0
  5  6  1  0  0  0
  5 26  1  0  0  0
  5 91  1  0  0  0
  6 25  1  0  0  0
  6 92  1  0  0  0
  6 93  1  0  0  0
  7  8  2  0  0  0
  7 26  1  0  0  0
  7 29  1  0  0  0
  8  9  1  0  0  0
  8 22  1  0  0  0
  9 10  1  0  0  0
  9 27  2  0  0  0
 10 11  2  0  0  0
 10 15  1  0  0  0
 11 12  1  0  0  0
 11 94  1  0  0  0
 12 13  2  0  0  0
 12 95  1  0  0  0
 13 14  1  0  0  0
 13 31  1  0  0  0
 14 15  2  0  0  0
 14 96  1  0  0  0
 15 97  1  0  0  0
 16 17  2  0  0  0
 16 21  1  0  0  0
 16 31  1  0  0  0
 17 18  1  0  0  0
 17 98  1  0  0  0
 18 19  2  0  0  0
 18 99  1  0  0  0
 19 20  1  0  0  0
 19 24  1  0  0  0
 20 21  2  0  0  0
 20100  1  0  0  0
 21 23  1  0  0  0
 22 28  1  0  0  0
 22 32  2  0  0  0
 26 27  1  0  0  0
 28101  1  0  0  0
 28102  1  0  0  0
 29103  1  0  0  0
 29104  1  0  0  0
 33 34  1  0  0  0
 33 66  1  0  0  0
 33 70  2  0  0  0
 34 36  1  0  0  0
 34 59  1  0  0  0
 34105  1  0  0  0
 35 44  2  0  0  0
 35 45  1  0  0  0
 35 68  1  0  0  0
 36 56  1  0  0  0
 36106  1  0  0  0
 37 39  1  0  0  0
 37 47  1  0  0  0
 37 66  1  0  0  0
 37107  1  0  0  0
 38 43  2  0  0  0
 38 46  1  0  0  0
 38 47  1  0  0  0
 39 64  1  0  0  0
 39 67  2  0  0  0
 40 52  1  0  0  0
 40 53  2  0  0  0
 40 58  1  0  0  0
 41108  1  0  0  0
 41109  1  0  0  0
 41110  1  0  0  0
 41 48  1  0  0  0
 42 43  1  0  0  0
 42 66  1  0  0  0
 42111  1  0  0  0
 42112  1  0  0  0
 43 44  1  0  0  0
 44113  1  0  0  0
 45 46  2  0  0  0
 45114  1  0  0  0
 46115  1  0  0  0
 47116  1  0  0  0
 47117  1  0  0  0
 48 56  1  0  0  0
 48 65  1  0  0  0
 48118  1  0  0  0
 49 50  1  0  0  0
 49 53  1  0  0  0
 49 64  1  0  0  0
 49119  1  0  0  0
 50 51  1  0  0  0
 50120  1  0  0  0
 50121  1  0  0  0
 51 52  1  0  0  0
 51122  1  0  0  0
 51123  1  0  0  0
 52124  1  0  0  0
 52125  1  0  0  0
 53 54  1  0  0  0
 54 55  2  0  0  0
 54126  1  0  0  0
 55 57  1  0  0  0
 55127  1  0  0  0
 56 69  2  0  0  0
 57 58  2  0  0  0
 57128  1  0  0  0
 58129  1  0  0  0
 59 60  1  0  0  0
 59 61  1  0  0  0
 59 62  1  0  0  0
 60130  1  0  0  0
 60131  1  0  0  0
 60132  1  0  0  0
 61133  1  0  0  0
 61134  1  0  0  0
 61135  1  0  0  0
 62136  1  0  0  0
 62137  1  0  0  0
 62138  1  0  0  0
 63 65  1  0  0  0
 63139  1  0  0  0
 63140  1  0  0  0
 63141  1  0  0  0
 64142  1  0  0  0
 65143  1  0  0  0
 68 80  1  0  0  0
 71 72  2  0  0  0
 71 83  1  0  0  0
 71144  1  0  0  0
 72 77  1  0  0  0
 72 82  1  0  0  0
 73 74  1  0  0  0
 73 82  1  0  0  0
 73 83  2  0  0  0
 74145  1  0  0  0
 74146  1  0  0  0
 74147  1  0  0  0
 75148  1  0  0  0
 75149  1  0  0  0
 75150  1  0  0  0
 75 81  1  0  0  0
 76 84  1  0  0  0
 76151  1  0  0  0
 76152  1  0  0  0
 76153  1  0  0  0
 77 78  1  0  0  0
 77154  1  0  0  0
 77155  1  0  0  0
 78 80  1  0  0  0
 78156  1  0  0  0
 78157  1  0  0  0
 79 81  1  0  0  0
 79 84  1  0  0  0
 79158  1  0  0  0
 79159  1  0  0  0
 80160  1  0  0  0
 80161  1  0  0  0
 81 82  1  0  0  0
 81162  1  0  0  0
 83163  1  0  0  0
M  CHG  1  83   1
M  ISO  4   1 100  68 101  80 101  84 100
M  END
> <chiral flag>
0

> <version>
0

> <s_m_source_file>
/data/baiqing/PycharmProjects/Reinvent-master-3.2/result/LINK_invent/BTK/process_docking_weight1_custom_sum_contain_oxygen_bond_distance_aromatic_linkinvent_7_9_3/rearranged_h_0053.sdf

> <i_m_source_file_index>
69

> <r_mmod_Potential_Energy-OPLS-2005>
348.522796630859

> <r_mmod_Stretch_Energy-OPLS-2005>
159.751617431641

> <r_mmod_Bend_Energy-OPLS-2005>
231.395233154297

> <r_mmod_Torsional_Energy-OPLS-2005>
293.174713134766

> <r_mmod_Improper_Torsional_Energy-OPLS-2005>
8.47627639770508

> <r_mmod_Van_der_Waal_Energy-OPLS-2005>
146.017562866211

> <r_mmod_Electrostatic_Energy-OPLS-2005>
-164.657501220703

> <r_mmod_Solvation_Energy-OPLS-2005>
-406.34033203125

> <b_mmod_Minimization_Converged-OPLS-2005>
0

> <r_mmod_RMS_Derivative-OPLS-2005>
4.48081207275391

$$$$
72
                    3D
 Structure written by MMmdl.
158166  0  0  1  0            999 V2000
  -30.3372  -15.5527   20.3215 C   0  0  0  0  0  0
  -30.4264  -13.0142   19.5415 C   0  0  0  0  0  0
  -29.5502  -12.6398   18.3147 C   0  0  0  0  0  0
  -28.1149  -12.3052   18.7481 C   0  0  0  0  0  0
  -27.5991  -13.3022   19.8112 C   0  0  2  0  0  0
  -28.6164  -13.6083   20.9356 C   0  0  0  0  0  0
  -25.2343  -13.8281   20.5791 C   0  0  0  0  0  0
  -24.1716  -13.0434   20.9276 C   0  0  0  0  0  0
  -24.6408  -11.6942   20.8740 C   0  0  0  0  0  0
  -23.9103  -10.4289   21.0382 C   0  0  0  0  0  0
  -24.3637   -9.4201   21.9163 C   0  0  0  0  0  0
  -23.6300   -8.2243   22.0743 C   0  0  0  0  0  0
  -22.4282   -8.0275   21.3545 C   0  0  0  0  0  0
  -21.9921   -9.0251   20.4640 C   0  0  0  0  0  0
  -22.7262  -10.2120   20.3037 C   0  0  0  0  0  0
  -21.6859   -6.0728   22.5279 C   0  0  0  0  0  0
  -21.4027   -6.5629   23.8214 C   0  0  0  0  0  0
  -21.3662   -5.6776   24.9173 C   0  0  0  0  0  0
  -21.6032   -4.3039   24.7225 C   0  0  0  0  0  0
  -21.8812   -3.8139   23.4345 C   0  0  0  0  0  0
  -21.9206   -4.6958   22.3404 C   0  0  0  0  0  0
  -22.7731  -13.5165   21.1919 C   0  0  0  0  0  0
  -22.1662   -4.2145   21.0981 F   0  0  0  0  0  0
  -21.5618   -3.4523   25.7739 F   0  0  0  0  0  0
  -29.8080  -14.1966   20.2876 N   0  0  0  0  0  0
  -26.2781  -12.9599   20.3202 N   0  0  0  0  0  0
  -25.9352  -11.6677   20.5663 N   0  0  0  0  0  0
  -22.0393  -12.8154   22.0472 N   0  0  0  0  0  0
  -25.3932  -15.2025   20.4272 N   0  0  0  0  0  0
  -31.5648  -15.5044   20.1289 O   0  0  0  0  0  0
  -21.6644   -6.8871   21.4241 O   0  0  0  0  0  0
  -22.3412  -14.5474   20.6759 O   0  0  0  0  0  0
  -24.6833  -31.8026   23.1529 C   0  0  0  0  0  0
  -25.9444  -32.4474   23.8044 C   0  0  1  0  0  0
  -27.2316  -26.7321   20.2138 C   0  0  0  0  0  0
  -25.6043  -33.8290   24.1965 N   0  0  0  0  0  0
  -23.5063  -30.4061   21.5054 C   0  0  2  0  0  0
  -24.9628  -28.7454   20.1264 C   0  0  0  0  0  0
  -22.7752  -29.4348   22.4711 C   0  0  0  0  0  0
  -18.0336  -28.1435   22.8440 C   0  0  0  0  0  0
  -24.1491  -36.7133   23.2642 C   0  0  0  0  0  0
  -26.0857  -30.5480   21.4096 C   0  0  0  0  0  0
  -26.1544  -29.1121   20.7633 C   0  0  0  0  0  0
  -27.2770  -28.1343   20.7702 C   0  0  0  0  0  0
  -26.0023  -26.5621   19.5275 C   0  0  0  0  0  0
  -24.9224  -27.4934   19.4877 C   0  0  0  0  0  0
  -23.7607  -29.6995   20.1428 C   0  0  0  0  0  0
  -25.4133  -36.2878   24.0278 C   0  0  1  0  0  0
  -20.5967  -28.3797   23.1142 C   0  0  2  0  0  0
  -20.6814  -26.9460   22.5401 C   0  0  0  0  0  0
  -19.5793  -26.6402   21.5206 C   0  0  0  0  0  0
  -18.1973  -26.7965   22.1605 C   0  0  0  0  0  0
  -19.1603  -28.8943   23.2778 C   0  0  0  0  0  0
  -18.9511  -30.1530   23.8821 C   0  0  0  0  0  0
  -17.6497  -30.6620   24.0558 C   0  0  0  0  0  0
  -25.9116  -34.9278   23.4939 C   0  0  0  0  0  0
  -16.5394  -29.9103   23.6355 C   0  0  0  0  0  0
  -16.7327  -28.6518   23.0354 C   0  0  0  0  0  0
  -26.4629  -31.6488   25.0645 C   0  0  0  0  0  0
  -25.3715  -31.3809   26.1273 C   0  0  0  0  0  0
  -27.0522  -30.2814   24.6507 C   0  0  0  0  0  0
  -27.6093  -32.4323   25.7467 C   0  0  0  0  0  0
  -27.5554  -37.1714   24.8451 C   0  0  0  0  0  0
  -21.4400  -29.3047   22.3462 N   0  0  0  0  0  0
  -26.4239  -37.3658   23.9425 N   0  0  0  0  0  0
  -24.7813  -30.9508   22.0758 N   0  0  0  0  0  0
  -23.4199  -28.7963   23.3061 O   0  0  0  0  0  0
  -28.2324  -25.5541   20.2242 O   0  0  0  0  0  0
  -26.5719  -34.8859   22.4528 O   0  0  0  0  0  0
  -23.5873  -32.1072   23.6526 O   0  0  0  0  0  0
  -32.2599  -22.6606   21.2419 C   0  0  0  0  0  0
  -30.4458  -22.4133   20.2324 C   0  0  0  0  0  0
  -33.2807  -22.7922   22.3201 C   0  0  0  0  0  0
  -28.5501  -22.0698   18.5140 C   0  0  0  0  0  0
  -31.5179  -22.1814   17.8885 C   0  0  0  0  0  0
  -28.8327  -20.2859   20.4529 C   0  0  0  0  0  0
  -29.7601  -18.6362   20.1170 C   0  0  0  0  0  0
  -28.0854  -23.8203   20.4120 C   0  0  0  0  0  0
  -28.9649  -22.1506   19.9960 C   0  0  1  0  0  0
  -30.9174  -22.5831   21.4716 N   0  0  0  0  0  0
  -32.6283  -22.5685   19.9727 N   0  0  0  0  0  0
  -31.4523  -22.3909   19.3244 N   0  0  0  0  0  0
  -29.5784  -16.9008   20.3785 N   0  0  0  0  0  0
  -31.4313  -13.2515   19.1916 H   0  0  0  0  0  0
  -30.5536  -12.1539   20.2006 H   0  0  0  0  0  0
  -29.9864  -11.8014   17.7695 H   0  0  0  0  0  0
  -29.5314  -13.4809   17.6202 H   0  0  0  0  0  0
  -28.1201  -11.2981   19.1656 H   0  0  0  0  0  0
  -27.4502  -12.2811   17.8841 H   0  0  0  0  0  0
  -27.4712  -14.2328   19.2571 H   0  0  0  0  0  0
  -28.8542  -12.7223   21.5268 H   0  0  0  0  0  0
  -28.1992  -14.3404   21.6290 H   0  0  0  0  0  0
  -25.2768   -9.5699   22.4755 H   0  0  0  0  0  0
  -24.0011   -7.4645   22.7463 H   0  0  0  0  0  0
  -21.0853   -8.8761   19.8958 H   0  0  0  0  0  0
  -22.3700  -10.9652   19.6146 H   0  0  0  0  0  0
  -21.2035   -7.6138   23.9710 H   0  0  0  0  0  0
  -21.1474   -6.0511   25.9069 H   0  0  0  0  0  0
  -22.0602   -2.7607   23.2841 H   0  0  0  0  0  0
  -22.4010  -11.9812   22.4850 H   0  0  0  0  0  0
  -21.1004  -13.1160   22.2676 H   0  0  0  0  0  0
  -24.6190  -15.8472   20.5463 H   0  0  0  0  0  0
  -26.2265  -15.6501   20.0713 H   0  0  0  0  0  0
  -26.7506  -32.4974   23.0740 H   0  0  0  0  0  0
  -25.0202  -33.9315   25.0128 H   0  0  0  0  0  0
  -22.8299  -31.2416   21.3125 H   0  0  0  0  0  0
  -23.3779  -35.9438   23.3241 H   0  0  0  0  0  0
  -24.3574  -36.8846   22.2072 H   0  0  0  0  0  0
  -23.7225  -37.6283   23.6749 H   0  0  0  0  0  0
  -26.2764  -31.2720   20.6165 H   0  0  0  0  0  0
  -26.9421  -30.6223   22.0676 H   0  0  0  0  0  0
  -28.1837  -28.4250   21.2834 H   0  0  0  0  0  0
  -25.8476  -25.6188   19.0229 H   0  0  0  0  0  0
  -24.0213  -27.2051   18.9630 H   0  0  0  0  0  0
  -23.9401  -30.4540   19.3753 H   0  0  0  0  0  0
  -22.8659  -29.1637   19.8216 H   0  0  0  0  0  0
  -25.1350  -36.1608   25.0765 H   0  0  0  0  0  0
  -21.0052  -28.3441   24.1270 H   0  0  0  0  0  0
  -20.5665  -26.2429   23.3664 H   0  0  0  0  0  0
  -21.6680  -26.7407   22.1230 H   0  0  0  0  0  0
  -19.6944  -25.6295   21.1295 H   0  0  0  0  0  0
  -19.6753  -27.3156   20.6689 H   0  0  0  0  0  0
  -17.4249  -26.6712   21.4010 H   0  0  0  0  0  0
  -18.0354  -26.0140   22.9030 H   0  0  0  0  0  0
  -19.7988  -30.7368   24.2158 H   0  0  0  0  0  0
  -17.5056  -31.6286   24.5191 H   0  0  0  0  0  0
  -15.5385  -30.2978   23.7745 H   0  0  0  0  0  0
  -15.8721  -28.0844   22.7089 H   0  0  0  0  0  0
  -24.5950  -30.7086   25.7609 H   0  0  0  0  0  0
  -24.8852  -32.3034   26.4445 H   0  0  0  0  0  0
  -25.7931  -30.9168   27.0198 H   0  0  0  0  0  0
  -26.3211  -29.6460   24.1493 H   0  0  0  0  0  0
  -27.3947  -29.7221   25.5227 H   0  0  0  0  0  0
  -27.9211  -30.3917   24.0013 H   0  0  0  0  0  0
  -27.2651  -33.3706   26.1826 H   0  0  0  0  0  0
  -28.4035  -32.6739   25.0392 H   0  0  0  0  0  0
  -28.0614  -31.8576   26.5560 H   0  0  0  0  0  0
  -28.2509  -38.0067   24.7540 H   0  0  0  0  0  0
  -28.1108  -36.2588   24.6221 H   0  0  0  0  0  0
  -27.2280  -37.1293   25.8853 H   0  0  0  0  0  0
  -20.9705  -29.8682   21.6516 H   0  0  0  0  0  0
  -26.0052  -38.2684   24.1501 H   0  0  0  0  0  0
  -32.8706  -23.3149   23.1830 H   0  0  0  0  0  0
  -34.1504  -23.3475   21.9633 H   0  0  0  0  0  0
  -33.6192  -21.8056   22.6404 H   0  0  0  0  0  0
  -29.0150  -21.2417   17.9844 H   0  0  0  0  0  0
  -28.7539  -22.9980   17.9788 H   0  0  0  0  0  0
  -27.4760  -21.8960   18.4455 H   0  0  0  0  0  0
  -31.1782  -21.1757   17.6434 H   0  0  0  0  0  0
  -32.5450  -22.2786   17.5357 H   0  0  0  0  0  0
  -30.9219  -22.9250   17.3641 H   0  0  0  0  0  0
  -28.8488  -20.3277   21.5420 H   0  0  0  0  0  0
  -27.7936  -20.0452   20.2268 H   0  0  0  0  0  0
  -30.7726  -18.8246   20.4767 H   0  0  0  0  0  0
  -29.8728  -18.6602   19.0324 H   0  0  0  0  0  0
  -28.0478  -23.7694   21.5001 H   0  0  0  0  0  0
  -27.0484  -23.6444   20.1246 H   0  0  0  0  0  0
  -28.6039  -16.6908   20.5425 H   0  0  0  0  0  0
  1 25  1  0  0  0
  1 30  2  0  0  0
  1 83  1  0  0  0
  2  3  1  0  0  0
  2 25  1  0  0  0
  2 84  1  0  0  0
  2 85  1  0  0  0
  3  4  1  0  0  0
  3 86  1  0  0  0
  3 87  1  0  0  0
  4  5  1  0  0  0
  4 88  1  0  0  0
  4 89  1  0  0  0
  5  6  1  0  0  0
  5 26  1  0  0  0
  5 90  1  0  0  0
  6 25  1  0  0  0
  6 91  1  0  0  0
  6 92  1  0  0  0
  7  8  2  0  0  0
  7 26  1  0  0  0
  7 29  1  0  0  0
  8  9  1  0  0  0
  8 22  1  0  0  0
  9 10  1  0  0  0
  9 27  2  0  0  0
 10 11  2  0  0  0
 10 15  1  0  0  0
 11 12  1  0  0  0
 11 93  1  0  0  0
 12 13  2  0  0  0
 12 94  1  0  0  0
 13 14  1  0  0  0
 13 31  1  0  0  0
 14 15  2  0  0  0
 14 95  1  0  0  0
 15 96  1  0  0  0
 16 17  2  0  0  0
 16 21  1  0  0  0
 16 31  1  0  0  0
 17 18  1  0  0  0
 17 97  1  0  0  0
 18 19  2  0  0  0
 18 98  1  0  0  0
 19 20  1  0  0  0
 19 24  1  0  0  0
 20 21  2  0  0  0
 20 99  1  0  0  0
 21 23  1  0  0  0
 22 28  1  0  0  0
 22 32  2  0  0  0
 26 27  1  0  0  0
 28100  1  0  0  0
 28101  1  0  0  0
 29102  1  0  0  0
 29103  1  0  0  0
 33 34  1  0  0  0
 33 66  1  0  0  0
 33 70  2  0  0  0
 34 36  1  0  0  0
 34 59  1  0  0  0
 34104  1  0  0  0
 35 44  2  0  0  0
 35 45  1  0  0  0
 35 68  1  0  0  0
 36 56  1  0  0  0
 36105  1  0  0  0
 37 39  1  0  0  0
 37 47  1  0  0  0
 37 66  1  0  0  0
 37106  1  0  0  0
 38 43  2  0  0  0
 38 46  1  0  0  0
 38 47  1  0  0  0
 39 64  1  0  0  0
 39 67  2  0  0  0
 40 52  1  0  0  0
 40 53  2  0  0  0
 40 58  1  0  0  0
 41107  1  0  0  0
 41108  1  0  0  0
 41109  1  0  0  0
 41 48  1  0  0  0
 42 43  1  0  0  0
 42 66  1  0  0  0
 42110  1  0  0  0
 42111  1  0  0  0
 43 44  1  0  0  0
 44112  1  0  0  0
 45 46  2  0  0  0
 45113  1  0  0  0
 46114  1  0  0  0
 47115  1  0  0  0
 47116  1  0  0  0
 48 56  1  0  0  0
 48 65  1  0  0  0
 48117  1  0  0  0
 49 50  1  0  0  0
 49 53  1  0  0  0
 49 64  1  0  0  0
 49118  1  0  0  0
 50 51  1  0  0  0
 50119  1  0  0  0
 50120  1  0  0  0
 51 52  1  0  0  0
 51121  1  0  0  0
 51122  1  0  0  0
 52123  1  0  0  0
 52124  1  0  0  0
 53 54  1  0  0  0
 54 55  2  0  0  0
 54125  1  0  0  0
 55 57  1  0  0  0
 55126  1  0  0  0
 56 69  2  0  0  0
 57 58  2  0  0  0
 57127  1  0  0  0
 58128  1  0  0  0
 59 60  1  0  0  0
 59 61  1  0  0  0
 59 62  1  0  0  0
 60129  1  0  0  0
 60130  1  0  0  0
 60131  1  0  0  0
 61132  1  0  0  0
 61133  1  0  0  0
 61134  1  0  0  0
 62135  1  0  0  0
 62136  1  0  0  0
 62137  1  0  0  0
 63 65  1  0  0  0
 63138  1  0  0  0
 63139  1  0  0  0
 63140  1  0  0  0
 64141  1  0  0  0
 65142  1  0  0  0
 68 78  1  0  0  0
 71 73  1  0  0  0
 71 80  1  0  0  0
 71 81  2  0  0  0
 72 79  1  0  0  0
 72 80  2  0  0  0
 72 82  1  0  0  0
 73143  1  0  0  0
 73144  1  0  0  0
 73145  1  0  0  0
 74146  1  0  0  0
 74147  1  0  0  0
 74148  1  0  0  0
 74 79  1  0  0  0
 75 82  1  0  0  0
 75149  1  0  0  0
 75150  1  0  0  0
 75151  1  0  0  0
 76 77  1  0  0  0
 76 79  1  0  0  0
 76152  1  0  0  0
 76153  1  0  0  0
 77 83  1  0  0  0
 77154  1  0  0  0
 77155  1  0  0  0
 78 79  1  0  0  0
 78156  1  0  0  0
 78157  1  0  0  0
 81 82  1  0  0  0
 83158  1  0  0  0
M  ISO  4   1 100  68 101  78 101  83 100
M  END
> <chiral flag>
0

> <version>
0

> <s_m_source_file>
/data/baiqing/PycharmProjects/Reinvent-master-3.2/result/LINK_invent/BTK/process_docking_weight1_custom_sum_contain_oxygen_bond_distance_aromatic_linkinvent_7_9_3/rearranged_h_0053.sdf

> <i_m_source_file_index>
70

> <r_mmod_Potential_Energy-OPLS-2005>
2253.60107421875

> <r_mmod_Stretch_Energy-OPLS-2005>
1106.59313964844

> <r_mmod_Bend_Energy-OPLS-2005>
648.878295898438

> <r_mmod_Torsional_Energy-OPLS-2005>
217.532760620117

> <r_mmod_Improper_Torsional_Energy-OPLS-2005>
4.27877473831177

> <r_mmod_Van_der_Waal_Energy-OPLS-2005>
106.783096313477

> <r_mmod_Electrostatic_Energy-OPLS-2005>
-382.641998291016

> <r_mmod_Solvation_Energy-OPLS-2005>
-245.608215332031

> <b_mmod_Minimization_Converged-OPLS-2005>
0

> <r_mmod_RMS_Derivative-OPLS-2005>
3.0678403377533

$$$$
73
                    3D
 Structure written by MMmdl.
170178  0  0  1  0            999 V2000
  -30.6024  -14.5767   20.5381 C   0  0  0  0  0  0
  -30.4431  -12.3640   19.4193 C   0  0  0  0  0  0
  -29.5013  -12.5003   18.2019 C   0  0  0  0  0  0
  -28.0209  -12.3486   18.6144 C   0  0  0  0  0  0
  -27.6538  -13.1993   19.8598 C   0  0  2  0  0  0
  -28.6968  -12.9933   20.9791 C   0  0  0  0  0  0
  -25.2573  -13.8139   20.5656 C   0  0  0  0  0  0
  -24.1838  -13.0433   20.9197 C   0  0  0  0  0  0
  -24.6379  -11.6892   20.8743 C   0  0  0  0  0  0
  -23.9046  -10.4291   21.0413 C   0  0  0  0  0  0
  -24.3614   -9.4207   21.9184 C   0  0  0  0  0  0
  -23.6293   -8.2242   22.0748 C   0  0  0  0  0  0
  -22.4271   -8.0288   21.3543 C   0  0  0  0  0  0
  -21.9914   -9.0250   20.4633 C   0  0  0  0  0  0
  -22.7236  -10.2131   20.3043 C   0  0  0  0  0  0
  -21.6852   -6.0751   22.5287 C   0  0  0  0  0  0
  -21.4003   -6.5646   23.8220 C   0  0  0  0  0  0
  -21.3649   -5.6791   24.9179 C   0  0  0  0  0  0
  -21.6049   -4.3058   24.7223 C   0  0  0  0  0  0
  -21.8820   -3.8155   23.4338 C   0  0  0  0  0  0
  -21.9194   -4.6979   22.3402 C   0  0  0  0  0  0
  -22.7866  -13.5238   21.1870 C   0  0  0  0  0  0
  -22.1666   -4.2175   21.0976 F   0  0  0  0  0  0
  -21.5627   -3.4529   25.7723 F   0  0  0  0  0  0
  -30.0126  -13.3520   20.4217 N   0  0  0  0  0  0
  -26.2973  -12.9280   20.3276 N   0  0  0  0  0  0
  -25.9288  -11.6452   20.5726 N   0  0  0  0  0  0
  -22.0497  -12.8211   22.0399 N   0  0  0  0  0  0
  -25.4292  -15.1851   20.4019 N   0  0  0  0  0  0
  -31.7580  -14.7938   20.1607 O   0  0  0  0  0  0
  -21.6628   -6.8889   21.4245 O   0  0  0  0  0  0
  -22.3572  -14.5573   20.6752 O   0  0  0  0  0  0
  -24.6223  -31.8636   23.2026 C   0  0  0  0  0  0
  -25.9086  -32.4794   23.8341 C   0  0  1  0  0  0
  -27.2246  -27.3597   20.1243 C   0  0  0  0  0  0
  -25.5937  -33.8596   24.2277 N   0  0  0  0  0  0
  -23.4126  -30.4875   21.5438 C   0  0  2  0  0  0
  -24.8590  -28.9433   20.1123 C   0  0  0  0  0  0
  -22.7450  -29.4659   22.4930 C   0  0  0  0  0  0
  -18.0293  -28.1387   22.8528 C   0  0  0  0  0  0
  -24.1478  -36.7264   23.2647 C   0  0  0  0  0  0
  -25.9511  -30.8051   21.3682 C   0  0  0  0  0  0
  -26.0232  -29.4348   20.7164 C   0  0  0  0  0  0
  -27.2135  -28.6549   20.7135 C   0  0  0  0  0  0
  -26.0442  -26.9108   19.4916 C   0  0  0  0  0  0
  -24.8677  -27.6839   19.4937 C   0  0  0  0  0  0
  -23.6243  -29.8194   20.1593 C   0  0  0  0  0  0
  -25.4110  -36.3083   24.0337 C   0  0  1  0  0  0
  -20.5889  -28.3683   23.1299 C   0  0  2  0  0  0
  -20.6792  -26.9413   22.5414 C   0  0  0  0  0  0
  -19.5759  -26.6409   21.5224 C   0  0  0  0  0  0
  -18.1935  -26.7953   22.1626 C   0  0  0  0  0  0
  -19.1552  -28.8857   23.2913 C   0  0  0  0  0  0
  -18.9470  -30.1467   23.8914 C   0  0  0  0  0  0
  -17.6477  -30.6596   24.0577 C   0  0  0  0  0  0
  -25.9068  -34.9468   23.5105 C   0  0  0  0  0  0
  -16.5355  -29.9098   23.6350 C   0  0  0  0  0  0
  -16.7286  -28.6512   23.0378 C   0  0  0  0  0  0
  -26.4487  -31.6594   25.0705 C   0  0  0  0  0  0
  -25.3731  -31.3695   26.1434 C   0  0  0  0  0  0
  -27.0363  -30.3061   24.6108 C   0  0  0  0  0  0
  -27.6040  -32.4343   25.7485 C   0  0  0  0  0  0
  -27.5562  -37.1794   24.8476 C   0  0  0  0  0  0
  -21.4174  -29.3036   22.3686 N   0  0  0  0  0  0
  -26.4271  -37.3783   23.9420 N   0  0  0  0  0  0
  -24.6802  -31.0687   22.0942 N   0  0  0  0  0  0
  -23.4215  -28.8220   23.2997 O   0  0  0  0  0  0
  -28.3522  -26.5428   20.1413 O   0  0  0  0  0  0
  -26.5620  -34.8938   22.4660 O   0  0  0  0  0  0
  -23.5403  -32.1406   23.7402 O   0  0  0  0  0  0
  -30.1315  -24.3863   19.2164 C   0  0  0  0  0  0
  -30.9507  -22.1100   19.3901 C   0  0  0  0  0  0
  -31.0371  -23.3893   18.8106 C   0  0  0  0  0  0
  -29.1632  -24.0872   20.1898 C   0  0  0  0  0  0
  -29.9719  -21.8549   20.3704 C   0  0  0  0  0  0
  -32.1147  -23.6978   17.7930 C   0  0  0  0  0  0
  -29.9285  -20.7225   22.6315 C   0  0  0  0  0  0
  -31.2185  -17.2408   22.0093 C   0  0  0  0  0  0
  -28.7330  -17.0902   22.4783 C   0  0  0  0  0  0
  -27.8954  -19.9084   19.8310 C   0  0  0  0  0  0
  -28.1561  -25.1791   20.6510 C   0  0  0  0  0  0
  -29.5094  -18.0454   20.2482 C   0  0  0  0  0  0
  -29.9864  -20.4739   21.1106 C   0  0  1  0  0  0
  -29.8290  -16.9859   21.3913 C   0  0  0  0  0  0
  -29.0824  -22.8323   20.7425 N   0  0  0  0  0  0
  -29.7459  -15.5537   20.9543 N   0  0  0  0  0  0
  -28.9955  -19.4085   20.6965 N   0  3  1  0  0  0
  -31.4804  -12.5156   19.1136 H   0  0  0  0  0  0
  -30.3972  -11.3565   19.8363 H   0  0  0  0  0  0
  -29.7558  -11.7563   17.4455 H   0  0  0  0  0  0
  -29.6498  -13.4728   17.7315 H   0  0  0  0  0  0
  -27.8406  -11.2935   18.8232 H   0  0  0  0  0  0
  -27.3710  -12.6064   17.7777 H   0  0  0  0  0  0
  -27.6866  -14.2427   19.5457 H   0  0  0  0  0  0
  -28.7009  -11.9521   21.3048 H   0  0  0  0  0  0
  -28.4445  -13.5747   21.8673 H   0  0  0  0  0  0
  -25.2763   -9.5692   22.4751 H   0  0  0  0  0  0
  -24.0014   -7.4627   22.7452 H   0  0  0  0  0  0
  -21.0862   -8.8761   19.8918 H   0  0  0  0  0  0
  -22.3709  -10.9666   19.6142 H   0  0  0  0  0  0
  -21.1980   -7.6149   23.9739 H   0  0  0  0  0  0
  -21.1467   -6.0508   25.9087 H   0  0  0  0  0  0
  -22.0606   -2.7624   23.2820 H   0  0  0  0  0  0
  -22.4099  -11.9841   22.4735 H   0  0  0  0  0  0
  -21.1107  -13.1218   22.2590 H   0  0  0  0  0  0
  -24.6465  -15.8253   20.4767 H   0  0  0  0  0  0
  -26.2500  -15.6113   19.9948 H   0  0  0  0  0  0
  -26.7155  -32.5465   23.1093 H   0  0  0  0  0  0
  -25.0128  -33.9737   25.0455 H   0  0  0  0  0  0
  -22.7071  -31.3083   21.4002 H   0  0  0  0  0  0
  -23.3768  -35.9570   23.3327 H   0  0  0  0  0  0
  -24.3572  -36.8861   22.2058 H   0  0  0  0  0  0
  -23.7211  -37.6464   23.6655 H   0  0  0  0  0  0
  -26.0815  -31.5667   20.5987 H   0  0  0  0  0  0
  -26.8342  -30.8506   21.9932 H   0  0  0  0  0  0
  -28.1091  -29.0310   21.1894 H   0  0  0  0  0  0
  -26.0182  -25.9528   18.9917 H   0  0  0  0  0  0
  -23.9761  -27.3025   19.0157 H   0  0  0  0  0  0
  -23.7420  -30.5942   19.4017 H   0  0  0  0  0  0
  -22.7462  -29.2461   19.8555 H   0  0  0  0  0  0
  -25.1285  -36.1919   25.0827 H   0  0  0  0  0  0
  -20.9993  -28.3230   24.1408 H   0  0  0  0  0  0
  -20.5707  -26.2278   23.3599 H   0  0  0  0  0  0
  -21.6651  -26.7453   22.1161 H   0  0  0  0  0  0
  -19.6901  -25.6327   21.1237 H   0  0  0  0  0  0
  -19.6692  -27.3244   20.6768 H   0  0  0  0  0  0
  -17.4207  -26.6769   21.4011 H   0  0  0  0  0  0
  -18.0287  -26.0071   22.8986 H   0  0  0  0  0  0
  -19.7942  -30.7302   24.2277 H   0  0  0  0  0  0
  -17.5018  -31.6269   24.5180 H   0  0  0  0  0  0
  -15.5358  -30.2997   23.7671 H   0  0  0  0  0  0
  -15.8691  -28.0831   22.7068 H   0  0  0  0  0  0
  -24.5936  -30.7003   25.7764 H   0  0  0  0  0  0
  -24.8880  -32.2848   26.4840 H   0  0  0  0  0  0
  -25.8086  -30.8906   27.0216 H   0  0  0  0  0  0
  -26.2920  -29.6810   24.1179 H   0  0  0  0  0  0
  -27.4174  -29.7302   25.4544 H   0  0  0  0  0  0
  -27.8733  -30.4424   23.9262 H   0  0  0  0  0  0
  -27.2632  -33.3658   26.2014 H   0  0  0  0  0  0
  -28.3884  -32.6879   25.0341 H   0  0  0  0  0  0
  -28.0680  -31.8504   26.5441 H   0  0  0  0  0  0
  -28.2579  -38.0089   24.7520 H   0  0  0  0  0  0
  -28.1043  -36.2621   24.6295 H   0  0  0  0  0  0
  -27.2280  -37.1413   25.8877 H   0  0  0  0  0  0
  -20.9347  -29.8746   21.6895 H   0  0  0  0  0  0
  -26.0150  -38.2851   24.1439 H   0  0  0  0  0  0
  -30.1754  -25.3804   18.7938 H   0  0  0  0  0  0
  -31.6588  -21.3401   19.1120 H   0  0  0  0  0  0
  -31.9233  -24.6471   17.2925 H   0  0  0  0  0  0
  -32.1673  -22.9243   17.0285 H   0  0  0  0  0  0
  -33.0838  -23.7614   18.2882 H   0  0  0  0  0  0
  -30.7600  -21.3513   22.9485 H   0  0  0  0  0  0
  -29.9873  -19.8111   23.2179 H   0  0  0  0  0  0
  -29.0084  -21.2332   22.9185 H   0  0  0  0  0  0
  -31.2947  -18.2056   22.5028 H   0  0  0  0  0  0
  -31.9994  -17.2122   21.2485 H   0  0  0  0  0  0
  -31.4626  -16.4837   22.7562 H   0  0  0  0  0  0
  -28.6758  -18.0719   22.9434 H   0  0  0  0  0  0
  -28.9009  -16.3799   23.2904 H   0  0  0  0  0  0
  -27.7439  -16.8781   22.0683 H   0  0  0  0  0  0
  -27.0941  -19.1733   19.7444 H   0  0  0  0  0  0
  -28.2453  -20.1429   18.8255 H   0  0  0  0  0  0
  -27.4378  -20.8013   20.2566 H   0  0  0  0  0  0
  -28.2115  -25.2343   21.7390 H   0  0  0  0  0  0
  -27.1607  -24.7925   20.4361 H   0  0  0  0  0  0
  -28.7324  -17.5916   19.6313 H   0  0  0  0  0  0
  -30.3537  -18.1697   19.5686 H   0  0  0  0  0  0
  -30.9738  -20.0529   20.9188 H   0  0  0  0  0  0
  -28.8325  -15.1555   21.1140 H   0  0  0  0  0  0
  -28.5179  -19.1990   21.5587 H   0  0  0  0  0  0
  1 25  1  0  0  0
  1 30  2  0  0  0
  1 86  1  0  0  0
  2  3  1  0  0  0
  2 25  1  0  0  0
  2 88  1  0  0  0
  2 89  1  0  0  0
  3  4  1  0  0  0
  3 90  1  0  0  0
  3 91  1  0  0  0
  4  5  1  0  0  0
  4 92  1  0  0  0
  4 93  1  0  0  0
  5  6  1  0  0  0
  5 26  1  0  0  0
  5 94  1  0  0  0
  6 25  1  0  0  0
  6 95  1  0  0  0
  6 96  1  0  0  0
  7  8  2  0  0  0
  7 26  1  0  0  0
  7 29  1  0  0  0
  8  9  1  0  0  0
  8 22  1  0  0  0
  9 10  1  0  0  0
  9 27  2  0  0  0
 10 11  2  0  0  0
 10 15  1  0  0  0
 11 12  1  0  0  0
 11 97  1  0  0  0
 12 13  2  0  0  0
 12 98  1  0  0  0
 13 14  1  0  0  0
 13 31  1  0  0  0
 14 15  2  0  0  0
 14 99  1  0  0  0
 15100  1  0  0  0
 16 17  2  0  0  0
 16 21  1  0  0  0
 16 31  1  0  0  0
 17 18  1  0  0  0
 17101  1  0  0  0
 18 19  2  0  0  0
 18102  1  0  0  0
 19 20  1  0  0  0
 19 24  1  0  0  0
 20 21  2  0  0  0
 20103  1  0  0  0
 21 23  1  0  0  0
 22 28  1  0  0  0
 22 32  2  0  0  0
 26 27  1  0  0  0
 28104  1  0  0  0
 28105  1  0  0  0
 29106  1  0  0  0
 29107  1  0  0  0
 33 34  1  0  0  0
 33 66  1  0  0  0
 33 70  2  0  0  0
 34 36  1  0  0  0
 34 59  1  0  0  0
 34108  1  0  0  0
 35 44  2  0  0  0
 35 45  1  0  0  0
 35 68  1  0  0  0
 36 56  1  0  0  0
 36109  1  0  0  0
 37 39  1  0  0  0
 37 47  1  0  0  0
 37 66  1  0  0  0
 37110  1  0  0  0
 38 43  2  0  0  0
 38 46  1  0  0  0
 38 47  1  0  0  0
 39 64  1  0  0  0
 39 67  2  0  0  0
 40 52  1  0  0  0
 40 53  2  0  0  0
 40 58  1  0  0  0
 41111  1  0  0  0
 41112  1  0  0  0
 41113  1  0  0  0
 41 48  1  0  0  0
 42 43  1  0  0  0
 42 66  1  0  0  0
 42114  1  0  0  0
 42115  1  0  0  0
 43 44  1  0  0  0
 44116  1  0  0  0
 45 46  2  0  0  0
 45117  1  0  0  0
 46118  1  0  0  0
 47119  1  0  0  0
 47120  1  0  0  0
 48 56  1  0  0  0
 48 65  1  0  0  0
 48121  1  0  0  0
 49 50  1  0  0  0
 49 53  1  0  0  0
 49 64  1  0  0  0
 49122  1  0  0  0
 50 51  1  0  0  0
 50123  1  0  0  0
 50124  1  0  0  0
 51 52  1  0  0  0
 51125  1  0  0  0
 51126  1  0  0  0
 52127  1  0  0  0
 52128  1  0  0  0
 53 54  1  0  0  0
 54 55  2  0  0  0
 54129  1  0  0  0
 55 57  1  0  0  0
 55130  1  0  0  0
 56 69  2  0  0  0
 57 58  2  0  0  0
 57131  1  0  0  0
 58132  1  0  0  0
 59 60  1  0  0  0
 59 61  1  0  0  0
 59 62  1  0  0  0
 60133  1  0  0  0
 60134  1  0  0  0
 60135  1  0  0  0
 61136  1  0  0  0
 61137  1  0  0  0
 61138  1  0  0  0
 62139  1  0  0  0
 62140  1  0  0  0
 62141  1  0  0  0
 63 65  1  0  0  0
 63142  1  0  0  0
 63143  1  0  0  0
 63144  1  0  0  0
 64145  1  0  0  0
 65146  1  0  0  0
 68 81  1  0  0  0
 71 73  2  0  0  0
 71 74  1  0  0  0
 71147  1  0  0  0
 72 73  1  0  0  0
 72 75  2  0  0  0
 72148  1  0  0  0
 73 76  1  0  0  0
 74 81  1  0  0  0
 74 85  2  0  0  0
 75 83  1  0  0  0
 75 85  1  0  0  0
 76149  1  0  0  0
 76150  1  0  0  0
 76151  1  0  0  0
 77152  1  0  0  0
 77153  1  0  0  0
 77154  1  0  0  0
 77 83  1  0  0  0
 78155  1  0  0  0
 78156  1  0  0  0
 78157  1  0  0  0
 78 84  1  0  0  0
 79 84  1  0  0  0
 79158  1  0  0  0
 79159  1  0  0  0
 79160  1  0  0  0
 80161  1  0  0  0
 80162  1  0  0  0
 80163  1  0  0  0
 80 87  1  0  0  0
 81164  1  0  0  0
 81165  1  0  0  0
 82 84  1  0  0  0
 82 87  1  0  0  0
 82166  1  0  0  0
 82167  1  0  0  0
 83 87  1  0  0  0
 83168  1  0  0  0
 84 86  1  0  0  0
 86169  1  0  0  0
 87170  1  0  0  0
M  CHG  1  87   1
M  ISO  4   1 100  68 101  81 101  86 100
M  END
> <chiral flag>
0

> <version>
0

> <s_m_source_file>
/data/baiqing/PycharmProjects/Reinvent-master-3.2/result/LINK_invent/BTK/process_docking_weight1_custom_sum_contain_oxygen_bond_distance_aromatic_linkinvent_7_9_3/rearranged_h_0053.sdf

> <i_m_source_file_index>
71

> <r_mmod_Potential_Energy-OPLS-2005>
-237.693908691406

> <r_mmod_Stretch_Energy-OPLS-2005>
67.9710540771484

> <r_mmod_Bend_Energy-OPLS-2005>
146.858139038086

> <r_mmod_Torsional_Energy-OPLS-2005>
252.329818725586

> <r_mmod_Improper_Torsional_Energy-OPLS-2005>
4.48150730133057

> <r_mmod_Van_der_Waal_Energy-OPLS-2005>
151.552825927734

> <r_mmod_Electrostatic_Energy-OPLS-2005>
-461.006591796875

> <r_mmod_Solvation_Energy-OPLS-2005>
-432.943450927734

> <b_mmod_Minimization_Converged-OPLS-2005>
0

> <r_mmod_RMS_Derivative-OPLS-2005>
2.81045722961426

$$$$
74
                    3D
 Structure written by MMmdl.
175183  0  0  1  0            999 V2000
  -30.7839  -14.4399   20.6248 C   0  0  0  0  0  0
  -30.3908  -12.3079   19.4320 C   0  0  0  0  0  0
  -29.4857  -12.5076   18.2041 C   0  0  0  0  0  0
  -28.0062  -12.3788   18.6058 C   0  0  0  0  0  0
  -27.6553  -13.2118   19.8669 C   0  0  2  0  0  0
  -28.6922  -13.0311   20.9922 C   0  0  0  0  0  0
  -25.2586  -13.8182   20.5654 C   0  0  0  0  0  0
  -24.1852  -13.0457   20.9125 C   0  0  0  0  0  0
  -24.6414  -11.6922   20.8729 C   0  0  0  0  0  0
  -23.9086  -10.4314   21.0417 C   0  0  0  0  0  0
  -24.3653   -9.4219   21.9183 C   0  0  0  0  0  0
  -23.6331   -8.2253   22.0761 C   0  0  0  0  0  0
  -22.4312   -8.0285   21.3545 C   0  0  0  0  0  0
  -21.9936   -9.0270   20.4654 C   0  0  0  0  0  0
  -22.7265  -10.2144   20.3058 C   0  0  0  0  0  0
  -21.6850   -6.0752   22.5295 C   0  0  0  0  0  0
  -21.4017   -6.5656   23.8233 C   0  0  0  0  0  0
  -21.3657   -5.6799   24.9193 C   0  0  0  0  0  0
  -21.6040   -4.3065   24.7233 C   0  0  0  0  0  0
  -21.8811   -3.8159   23.4354 C   0  0  0  0  0  0
  -21.9200   -4.6987   22.3413 C   0  0  0  0  0  0
  -22.7877  -13.5249   21.1819 C   0  0  0  0  0  0
  -22.1660   -4.2174   21.0989 F   0  0  0  0  0  0
  -21.5638   -3.4542   25.7741 F   0  0  0  0  0  0
  -30.0262  -13.3161   20.4501 N   0  0  0  0  0  0
  -26.3013  -12.9362   20.3339 N   0  0  0  0  0  0
  -25.9342  -11.6523   20.5767 N   0  0  0  0  0  0
  -22.0528  -12.8238   22.0372 N   0  0  0  0  0  0
  -25.4322  -15.1916   20.4116 N   0  0  0  0  0  0
  -31.8405  -14.5453   19.9931 O   0  0  0  0  0  0
  -21.6643   -6.8907   21.4257 O   0  0  0  0  0  0
  -22.3570  -14.5568   20.6682 O   0  0  0  0  0  0
  -24.6130  -31.8676   23.2097 C   0  0  0  0  0  0
  -25.9021  -32.4809   23.8403 C   0  0  1  0  0  0
  -27.2361  -27.4536   20.1038 C   0  0  0  0  0  0
  -25.5888  -33.8614   24.2329 N   0  0  0  0  0  0
  -23.4016  -30.4898   21.5485 C   0  0  2  0  0  0
  -24.8512  -28.9581   20.1147 C   0  0  0  0  0  0
  -22.7413  -29.4641   22.4976 C   0  0  0  0  0  0
  -18.0279  -28.1357   22.8518 C   0  0  0  0  0  0
  -24.1479  -36.7326   23.2637 C   0  0  0  0  0  0
  -25.9281  -30.8386   21.3619 C   0  0  0  0  0  0
  -26.0063  -29.4718   20.7193 C   0  0  0  0  0  0
  -27.2039  -28.7234   20.7192 C   0  0  0  0  0  0
  -26.0761  -26.9531   19.4820 C   0  0  0  0  0  0
  -24.8790  -27.6953   19.4943 C   0  0  0  0  0  0
  -23.6102  -29.8209   20.1631 C   0  0  0  0  0  0
  -25.4091  -36.3098   24.0337 C   0  0  1  0  0  0
  -20.5865  -28.3626   23.1329 C   0  0  2  0  0  0
  -20.6754  -26.9352   22.5416 C   0  0  0  0  0  0
  -19.5726  -26.6369   21.5211 C   0  0  0  0  0  0
  -18.1915  -26.7914   22.1635 C   0  0  0  0  0  0
  -19.1523  -28.8815   23.2936 C   0  0  0  0  0  0
  -18.9447  -30.1429   23.8930 C   0  0  0  0  0  0
  -17.6442  -30.6569   24.0555 C   0  0  0  0  0  0
  -25.9030  -34.9465   23.5127 C   0  0  0  0  0  0
  -16.5340  -29.9063   23.6313 C   0  0  0  0  0  0
  -16.7266  -28.6477   23.0363 C   0  0  0  0  0  0
  -26.4470  -31.6579   25.0718 C   0  0  0  0  0  0
  -25.3762  -31.3682   26.1481 C   0  0  0  0  0  0
  -27.0262  -30.3020   24.6044 C   0  0  0  0  0  0
  -27.6052  -32.4293   25.7489 C   0  0  0  0  0  0
  -27.5571  -37.1805   24.8462 C   0  0  0  0  0  0
  -21.4140  -29.3013   22.3754 N   0  0  0  0  0  0
  -26.4273  -37.3782   23.9416 N   0  0  0  0  0  0
  -24.6658  -31.0796   22.0984 N   0  0  0  0  0  0
  -23.4202  -28.8181   23.3006 O   0  0  0  0  0  0
  -28.3691  -26.6801   20.0971 O   0  0  0  0  0  0
  -26.5592  -34.8916   22.4682 O   0  0  0  0  0  0
  -23.5337  -32.1424   23.7502 O   0  0  0  0  0  0
  -27.8716  -18.2384   21.4186 C   0  0  0  0  0  0
  -27.8533  -17.9137   20.0860 C   0  0  0  0  0  0
  -29.2477  -16.5461   21.1422 C   0  0  0  0  0  0
  -27.0776  -18.5928   18.9976 C   0  0  0  0  0  0
  -28.2839  -16.2123   17.4686 C   0  0  0  0  0  0
  -31.6663  -16.6016   21.6077 C   0  0  0  0  0  0
  -30.2641  -15.1220   23.0209 C   0  0  0  0  0  0
  -27.2660  -19.4311   22.1287 C   0  0  0  0  0  0
  -28.1881  -23.6792   20.6262 C   0  0  0  0  0  0
  -29.1959  -24.6794   21.2414 C   0  0  0  0  0  0
  -29.3262  -16.5064   18.5627 C   0  0  0  0  0  0
  -27.9371  -20.7608   21.6943 C   0  0  0  0  0  0
  -27.0672  -23.1381   21.5563 C   0  0  0  0  0  0
  -28.7010  -26.1363   21.3766 C   0  0  0  0  0  0
  -30.4332  -15.6501   21.5693 C   0  0  0  0  0  0
  -28.7028  -17.3449   22.0702 N   0  0  0  0  0  0
  -28.8134  -16.9011   19.8869 N   0  0  0  0  0  0
  -27.4417  -21.9709   22.4048 N   0  3  0  0  0  0
  -31.4381  -12.3504   19.1317 H   0  0  0  0  0  0
  -30.2552  -11.3073   19.8436 H   0  0  0  0  0  0
  -29.7301  -11.7735   17.4351 H   0  0  0  0  0  0
  -29.6698  -13.4843   17.7584 H   0  0  0  0  0  0
  -27.8028  -11.3235   18.7893 H   0  0  0  0  0  0
  -27.3646  -12.6681   17.7715 H   0  0  0  0  0  0
  -27.6911  -14.2578   19.5746 H   0  0  0  0  0  0
  -28.6662  -12.0144   21.3871 H   0  0  0  0  0  0
  -28.4154  -13.6763   21.8151 H   0  0  0  0  0  0
  -25.2816   -9.5690   22.4743 H   0  0  0  0  0  0
  -24.0045   -7.4643   22.7470 H   0  0  0  0  0  0
  -21.0865   -8.8792   19.8962 H   0  0  0  0  0  0
  -22.3743  -10.9684   19.6164 H   0  0  0  0  0  0
  -21.1993   -7.6164   23.9744 H   0  0  0  0  0  0
  -21.1489   -6.0528   25.9093 H   0  0  0  0  0  0
  -22.0592   -2.7621   23.2841 H   0  0  0  0  0  0
  -22.4139  -11.9887   22.4743 H   0  0  0  0  0  0
  -21.1152  -13.1270   22.2581 H   0  0  0  0  0  0
  -24.6663  -15.8451   20.5346 H   0  0  0  0  0  0
  -26.3115  -15.6486   20.1978 H   0  0  0  0  0  0
  -26.7090  -32.5545   23.1178 H   0  0  0  0  0  0
  -25.0019  -33.9769   25.0461 H   0  0  0  0  0  0
  -22.6888  -31.3059   21.4101 H   0  0  0  0  0  0
  -23.3716  -35.9688   23.3315 H   0  0  0  0  0  0
  -24.3588  -36.8929   22.2052 H   0  0  0  0  0  0
  -23.7258  -37.6548   23.6649 H   0  0  0  0  0  0
  -26.0336  -31.5943   20.5828 H   0  0  0  0  0  0
  -26.8200  -30.9010   21.9743 H   0  0  0  0  0  0
  -28.0960  -29.1161   21.1865 H   0  0  0  0  0  0
  -26.0981  -25.9855   19.0016 H   0  0  0  0  0  0
  -23.9927  -27.2969   19.0180 H   0  0  0  0  0  0
  -23.7182  -30.5966   19.4046 H   0  0  0  0  0  0
  -22.7361  -29.2385   19.8669 H   0  0  0  0  0  0
  -25.1258  -36.1969   25.0832 H   0  0  0  0  0  0
  -20.9990  -28.3168   24.1432 H   0  0  0  0  0  0
  -20.5626  -26.2215   23.3595 H   0  0  0  0  0  0
  -21.6626  -26.7363   22.1211 H   0  0  0  0  0  0
  -19.6858  -25.6291   21.1209 H   0  0  0  0  0  0
  -19.6671  -27.3210   20.6768 H   0  0  0  0  0  0
  -17.4176  -26.6695   21.4038 H   0  0  0  0  0  0
  -18.0307  -26.0042   22.9015 H   0  0  0  0  0  0
  -19.7916  -30.7252   24.2315 H   0  0  0  0  0  0
  -17.4979  -31.6248   24.5137 H   0  0  0  0  0  0
  -15.5333  -30.2957   23.7604 H   0  0  0  0  0  0
  -15.8688  -28.0777   22.7067 H   0  0  0  0  0  0
  -24.5937  -30.7009   25.7850 H   0  0  0  0  0  0
  -24.8951  -32.2834   26.4943 H   0  0  0  0  0  0
  -25.8145  -30.8868   27.0228 H   0  0  0  0  0  0
  -26.2764  -29.6827   24.1102 H   0  0  0  0  0  0
  -27.4047  -29.7201   25.4456 H   0  0  0  0  0  0
  -27.8605  -30.4337   23.9152 H   0  0  0  0  0  0
  -27.2660  -33.3577   26.2098 H   0  0  0  0  0  0
  -28.3860  -32.6873   25.0323 H   0  0  0  0  0  0
  -28.0720  -31.8396   26.5389 H   0  0  0  0  0  0
  -28.2581  -38.0107   24.7492 H   0  0  0  0  0  0
  -28.1071  -36.2630   24.6295 H   0  0  0  0  0  0
  -27.2303  -37.1475   25.8871 H   0  0  0  0  0  0
  -20.9286  -29.8761   21.7017 H   0  0  0  0  0  0
  -26.0165  -38.2864   24.1413 H   0  0  0  0  0  0
  -26.4276  -19.3714   19.3932 H   0  0  0  0  0  0
  -26.4184  -17.8888   18.4884 H   0  0  0  0  0  0
  -27.7407  -19.0588   18.2686 H   0  0  0  0  0  0
  -28.7461  -15.6347   16.6675 H   0  0  0  0  0  0
  -27.9056  -17.1173   16.9964 H   0  0  0  0  0  0
  -27.4366  -15.6389   17.8409 H   0  0  0  0  0  0
  -31.5247  -17.4180   22.3150 H   0  0  0  0  0  0
  -31.8487  -17.0616   20.6333 H   0  0  0  0  0  0
  -32.5766  -16.0776   21.9046 H   0  0  0  0  0  0
  -30.5875  -15.8628   23.7519 H   0  0  0  0  0  0
  -30.8483  -14.2193   23.2085 H   0  0  0  0  0  0
  -29.2281  -14.9073   23.2734 H   0  0  0  0  0  0
  -27.3647  -19.3064   23.2079 H   0  0  0  0  0  0
  -26.1947  -19.4757   21.9301 H   0  0  0  0  0  0
  -28.7474  -22.8553   20.1876 H   0  0  0  0  0  0
  -27.7117  -24.1649   19.7734 H   0  0  0  0  0  0
  -30.0790  -24.6979   20.6006 H   0  0  0  0  0  0
  -29.5450  -24.3159   22.2086 H   0  0  0  0  0  0
  -29.9996  -17.2926   18.2206 H   0  0  0  0  0  0
  -29.9377  -15.6241   18.6298 H   0  0  0  0  0  0
  -27.7835  -20.8758   20.6236 H   0  0  0  0  0  0
  -29.0149  -20.6968   21.8428 H   0  0  0  0  0  0
  -26.2132  -22.8372   20.9461 H   0  0  0  0  0  0
  -26.6935  -23.9432   22.1896 H   0  0  0  0  0  0
  -29.4960  -26.7479   21.8060 H   0  0  0  0  0  0
  -27.8655  -26.1806   22.0772 H   0  0  0  0  0  0
  -28.1233  -22.2598   23.0885 H   0  0  0  0  0  0
  -26.6184  -21.7083   22.9214 H   0  0  0  0  0  0
  1 25  1  0  0  0
  1 30  2  0  0  0
  1 85  1  0  0  0
  2  3  1  0  0  0
  2 25  1  0  0  0
  2 89  1  0  0  0
  2 90  1  0  0  0
  3  4  1  0  0  0
  3 91  1  0  0  0
  3 92  1  0  0  0
  4  5  1  0  0  0
  4 93  1  0  0  0
  4 94  1  0  0  0
  5  6  1  0  0  0
  5 26  1  0  0  0
  5 95  1  0  0  0
  6 25  1  0  0  0
  6 96  1  0  0  0
  6 97  1  0  0  0
  7  8  2  0  0  0
  7 26  1  0  0  0
  7 29  1  0  0  0
  8  9  1  0  0  0
  8 22  1  0  0  0
  9 10  1  0  0  0
  9 27  2  0  0  0
 10 11  2  0  0  0
 10 15  1  0  0  0
 11 12  1  0  0  0
 11 98  1  0  0  0
 12 13  2  0  0  0
 12 99  1  0  0  0
 13 14  1  0  0  0
 13 31  1  0  0  0
 14 15  2  0  0  0
 14100  1  0  0  0
 15101  1  0  0  0
 16 17  2  0  0  0
 16 21  1  0  0  0
 16 31  1  0  0  0
 17 18  1  0  0  0
 17102  1  0  0  0
 18 19  2  0  0  0
 18103  1  0  0  0
 19 20  1  0  0  0
 19 24  1  0  0  0
 20 21  2  0  0  0
 20104  1  0  0  0
 21 23  1  0  0  0
 22 28  1  0  0  0
 22 32  2  0  0  0
 26 27  1  0  0  0
 28105  1  0  0  0
 28106  1  0  0  0
 29107  1  0  0  0
 29108  1  0  0  0
 33 34  1  0  0  0
 33 66  1  0  0  0
 33 70  2  0  0  0
 34 36  1  0  0  0
 34 59  1  0  0  0
 34109  1  0  0  0
 35 44  2  0  0  0
 35 45  1  0  0  0
 35 68  1  0  0  0
 36 56  1  0  0  0
 36110  1  0  0  0
 37 39  1  0  0  0
 37 47  1  0  0  0
 37 66  1  0  0  0
 37111  1  0  0  0
 38 43  2  0  0  0
 38 46  1  0  0  0
 38 47  1  0  0  0
 39 64  1  0  0  0
 39 67  2  0  0  0
 40 52  1  0  0  0
 40 53  2  0  0  0
 40 58  1  0  0  0
 41112  1  0  0  0
 41113  1  0  0  0
 41114  1  0  0  0
 41 48  1  0  0  0
 42 43  1  0  0  0
 42 66  1  0  0  0
 42115  1  0  0  0
 42116  1  0  0  0
 43 44  1  0  0  0
 44117  1  0  0  0
 45 46  2  0  0  0
 45118  1  0  0  0
 46119  1  0  0  0
 47120  1  0  0  0
 47121  1  0  0  0
 48 56  1  0  0  0
 48 65  1  0  0  0
 48122  1  0  0  0
 49 50  1  0  0  0
 49 53  1  0  0  0
 49 64  1  0  0  0
 49123  1  0  0  0
 50 51  1  0  0  0
 50124  1  0  0  0
 50125  1  0  0  0
 51 52  1  0  0  0
 51126  1  0  0  0
 51127  1  0  0  0
 52128  1  0  0  0
 52129  1  0  0  0
 53 54  1  0  0  0
 54 55  2  0  0  0
 54130  1  0  0  0
 55 57  1  0  0  0
 55131  1  0  0  0
 56 69  2  0  0  0
 57 58  2  0  0  0
 57132  1  0  0  0
 58133  1  0  0  0
 59 60  1  0  0  0
 59 61  1  0  0  0
 59 62  1  0  0  0
 60134  1  0  0  0
 60135  1  0  0  0
 60136  1  0  0  0
 61137  1  0  0  0
 61138  1  0  0  0
 61139  1  0  0  0
 62140  1  0  0  0
 62141  1  0  0  0
 62142  1  0  0  0
 63 65  1  0  0  0
 63143  1  0  0  0
 63144  1  0  0  0
 63145  1  0  0  0
 64146  1  0  0  0
 65147  1  0  0  0
 68 84  1  0  0  0
 71 72  2  0  0  0
 71 78  1  0  0  0
 71 86  1  0  0  0
 72 74  1  0  0  0
 72 87  1  0  0  0
 73 85  1  0  0  0
 73 86  2  0  0  0
 73 87  1  0  0  0
 74148  1  0  0  0
 74149  1  0  0  0
 74150  1  0  0  0
 75 81  1  0  0  0
 75151  1  0  0  0
 75152  1  0  0  0
 75153  1  0  0  0
 76154  1  0  0  0
 76155  1  0  0  0
 76156  1  0  0  0
 76 85  1  0  0  0
 77 85  1  0  0  0
 77157  1  0  0  0
 77158  1  0  0  0
 77159  1  0  0  0
 78 82  1  0  0  0
 78160  1  0  0  0
 78161  1  0  0  0
 79 80  1  0  0  0
 79 83  1  0  0  0
 79162  1  0  0  0
 79163  1  0  0  0
 80 84  1  0  0  0
 80164  1  0  0  0
 80165  1  0  0  0
 81 87  1  0  0  0
 81166  1  0  0  0
 81167  1  0  0  0
 82 88  1  0  0  0
 82168  1  0  0  0
 82169  1  0  0  0
 83 88  1  0  0  0
 83170  1  0  0  0
 83171  1  0  0  0
 84172  1  0  0  0
 84173  1  0  0  0
 88174  1  0  0  0
 88175  1  0  0  0
M  CHG  1  88   1
M  ISO  4   1 100  68 101  84 101  85 100
M  END
> <chiral flag>
0

> <version>
0

> <s_m_source_file>
/data/baiqing/PycharmProjects/Reinvent-master-3.2/result/LINK_invent/BTK/process_docking_weight1_custom_sum_contain_oxygen_bond_distance_aromatic_linkinvent_7_9_3/rearranged_h_0053.sdf

> <i_m_source_file_index>
72

> <r_mmod_Potential_Energy-OPLS-2005>
-83.1482543945312

> <r_mmod_Stretch_Energy-OPLS-2005>
48.6940002441406

> <r_mmod_Bend_Energy-OPLS-2005>
154.28694152832

> <r_mmod_Torsional_Energy-OPLS-2005>
251.870910644531

> <r_mmod_Improper_Torsional_Energy-OPLS-2005>
5.44558000564575

> <r_mmod_Van_der_Waal_Energy-OPLS-2005>
128.078384399414

> <r_mmod_Electrostatic_Energy-OPLS-2005>
-252.079391479492

> <r_mmod_Solvation_Energy-OPLS-2005>
-432.458282470703

> <b_mmod_Minimization_Converged-OPLS-2005>
0

> <r_mmod_RMS_Derivative-OPLS-2005>
3.28930759429932

$$$$
75
                    3D
 Structure written by MMmdl.
158166  0  0  1  0            999 V2000
  -30.6195  -14.8040   20.5270 C   0  0  0  0  0  0
  -30.4397  -12.5173   19.4773 C   0  0  0  0  0  0
  -29.5121  -12.5401   18.2391 C   0  0  0  0  0  0
  -28.0374  -12.3459   18.6449 C   0  0  0  0  0  0
  -27.6430  -13.2280   19.8562 C   0  0  2  0  0  0
  -28.6885  -13.1080   20.9809 C   0  0  0  0  0  0
  -25.2497  -13.8186   20.5683 C   0  0  0  0  0  0
  -24.1799  -13.0439   20.9223 C   0  0  0  0  0  0
  -24.6390  -11.6918   20.8761 C   0  0  0  0  0  0
  -23.9066  -10.4292   21.0415 C   0  0  0  0  0  0
  -24.3623   -9.4202   21.9186 C   0  0  0  0  0  0
  -23.6308   -8.2231   22.0747 C   0  0  0  0  0  0
  -22.4283   -8.0278   21.3544 C   0  0  0  0  0  0
  -21.9920   -9.0247   20.4642 C   0  0  0  0  0  0
  -22.7245  -10.2132   20.3056 C   0  0  0  0  0  0
  -21.6854   -6.0749   22.5290 C   0  0  0  0  0  0
  -21.4011   -6.5649   23.8225 C   0  0  0  0  0  0
  -21.3654   -5.6800   24.9183 C   0  0  0  0  0  0
  -21.6044   -4.3065   24.7230 C   0  0  0  0  0  0
  -21.8815   -3.8158   23.4353 C   0  0  0  0  0  0
  -21.9188   -4.6978   22.3411 C   0  0  0  0  0  0
  -22.7814  -13.5212   21.1897 C   0  0  0  0  0  0
  -22.1656   -4.2167   21.0990 F   0  0  0  0  0  0
  -21.5629   -3.4544   25.7740 F   0  0  0  0  0  0
  -29.9749  -13.5698   20.4274 N   0  0  0  0  0  0
  -26.2928  -12.9380   20.3284 N   0  0  0  0  0  0
  -25.9311  -11.6523   20.5741 N   0  0  0  0  0  0
  -22.0479  -12.8182   22.0457 N   0  0  0  0  0  0
  -25.4181  -15.1905   20.4065 N   0  0  0  0  0  0
  -31.7784  -14.8624   20.0984 O   0  0  0  0  0  0
  -21.6642   -6.8884   21.4246 O   0  0  0  0  0  0
  -22.3477  -14.5514   20.6758 O   0  0  0  0  0  0
  -24.6347  -31.8535   23.1954 C   0  0  0  0  0  0
  -25.9176  -32.4745   23.8303 C   0  0  1  0  0  0
  -27.2289  -27.2432   20.1434 C   0  0  0  0  0  0
  -25.5959  -33.8544   24.2234 N   0  0  0  0  0  0
  -23.4322  -30.4751   21.5375 C   0  0  2  0  0  0
  -24.8806  -28.9061   20.1198 C   0  0  0  0  0  0
  -22.7515  -29.4618   22.4892 C   0  0  0  0  0  0
  -18.0304  -28.1418   22.8475 C   0  0  0  0  0  0
  -24.1492  -36.7277   23.2641 C   0  0  0  0  0  0
  -25.9778  -30.7612   21.3744 C   0  0  0  0  0  0
  -26.0524  -29.3762   20.7273 C   0  0  0  0  0  0
  -27.2304  -28.5602   20.7222 C   0  0  0  0  0  0
  -26.0343  -26.8327   19.5193 C   0  0  0  0  0  0
  -24.8769  -27.6432   19.5032 C   0  0  0  0  0  0
  -23.6538  -29.8013   20.1571 C   0  0  0  0  0  0
  -25.4120  -36.3055   24.0323 C   0  0  1  0  0  0
  -20.5909  -28.3735   23.1261 C   0  0  2  0  0  0
  -20.6808  -26.9449   22.5408 C   0  0  0  0  0  0
  -19.5780  -26.6400   21.5230 C   0  0  0  0  0  0
  -18.1955  -26.7953   22.1624 C   0  0  0  0  0  0
  -19.1556  -28.8885   23.2867 C   0  0  0  0  0  0
  -18.9478  -30.1485   23.8893 C   0  0  0  0  0  0
  -17.6473  -30.6608   24.0576 C   0  0  0  0  0  0
  -25.9066  -34.9428   23.5073 C   0  0  0  0  0  0
  -16.5366  -29.9103   23.6341 C   0  0  0  0  0  0
  -16.7291  -28.6532   23.0341 C   0  0  0  0  0  0
  -26.4530  -31.6580   25.0702 C   0  0  0  0  0  0
  -25.3736  -31.3729   26.1411 C   0  0  0  0  0  0
  -27.0395  -30.2998   24.6198 C   0  0  0  0  0  0
  -27.6077  -32.4322   25.7481 C   0  0  0  0  0  0
  -27.5577  -37.1792   24.8461 C   0  0  0  0  0  0
  -21.4218  -29.3072   22.3635 N   0  0  0  0  0  0
  -26.4282  -37.3768   23.9414 N   0  0  0  0  0  0
  -24.7012  -31.0484   22.0919 N   0  0  0  0  0  0
  -23.4204  -28.8172   23.3017 O   0  0  0  0  0  0
  -28.3434  -26.3740   20.0846 O   0  0  0  0  0  0
  -26.5634  -34.8910   22.4641 O   0  0  0  0  0  0
  -23.5497  -32.1348   23.7253 O   0  0  0  0  0  0
  -29.9147  -18.8668   20.6145 C   0  0  0  0  0  0
  -30.1314  -19.5264   21.8736 C   0  0  0  0  0  0
  -29.3270  -15.6069   23.2532 C   0  0  0  0  0  0
  -30.3252  -17.3746   20.1533 C   0  0  0  0  0  0
  -28.1785  -23.5368   20.2823 C   0  0  0  0  0  0
  -29.3821  -22.4752   19.9946 C   0  0  0  0  0  0
  -28.9105  -16.1455   21.8638 C   0  0  0  0  0  0
  -28.3780  -25.0677   20.8365 C   0  0  0  0  0  0
  -30.7746  -18.9625   23.1168 C   0  0  0  0  0  0
  -29.4976  -19.8463   19.7880 N   0  0  0  0  0  0
  -29.7638  -20.8015   21.8255 N   0  0  0  0  0  0
  -29.4100  -21.0314   20.5383 N   0  0  0  0  0  0
  -29.9433  -16.0183   20.8162 N   0  0  0  0  0  0
  -31.5107  -17.8852   22.8472 F   0  0  0  0  0  0
  -31.5988  -19.8476   23.6827 F   0  0  0  0  0  0
  -29.8592  -18.6367   24.0298 F   0  0  0  0  0  0
  -31.4741  -12.6596   19.1615 H   0  0  0  0  0  0
  -30.4225  -11.5349   19.9502 H   0  0  0  0  0  0
  -29.8079  -11.7669   17.5295 H   0  0  0  0  0  0
  -29.6245  -13.4919   17.7186 H   0  0  0  0  0  0
  -27.8993  -11.2932   18.8948 H   0  0  0  0  0  0
  -27.3768  -12.5463   17.8011 H   0  0  0  0  0  0
  -27.6476  -14.2594   19.5034 H   0  0  0  0  0  0
  -28.7646  -12.0702   21.3066 H   0  0  0  0  0  0
  -28.3636  -13.6273   21.8717 H   0  0  0  0  0  0
  -25.2767   -9.5686   22.4761 H   0  0  0  0  0  0
  -24.0035   -7.4613   22.7445 H   0  0  0  0  0  0
  -21.0865   -8.8756   19.8936 H   0  0  0  0  0  0
  -22.3700  -10.9672   19.6167 H   0  0  0  0  0  0
  -21.1999   -7.6155   23.9735 H   0  0  0  0  0  0
  -21.1477   -6.0529   25.9091 H   0  0  0  0  0  0
  -22.0597   -2.7622   23.2847 H   0  0  0  0  0  0
  -22.4117  -11.9844   22.4834 H   0  0  0  0  0  0
  -21.1091  -13.1174   22.2690 H   0  0  0  0  0  0
  -24.6572  -15.8491   20.5321 H   0  0  0  0  0  0
  -26.2603  -15.6256   20.0530 H   0  0  0  0  0  0
  -26.7234  -32.5397   23.1037 H   0  0  0  0  0  0
  -25.0138  -33.9663   25.0402 H   0  0  0  0  0  0
  -22.7327  -31.3007   21.3881 H   0  0  0  0  0  0
  -23.3751  -35.9617   23.3294 H   0  0  0  0  0  0
  -24.3579  -36.8917   22.2056 H   0  0  0  0  0  0
  -23.7244  -37.6474   23.6675 H   0  0  0  0  0  0
  -26.1117  -31.5152   20.5976 H   0  0  0  0  0  0
  -26.8578  -30.8185   22.0028 H   0  0  0  0  0  0
  -28.1353  -28.9256   21.1864 H   0  0  0  0  0  0
  -25.9969  -25.8652   19.0378 H   0  0  0  0  0  0
  -23.9813  -27.2788   19.0192 H   0  0  0  0  0  0
  -23.7841  -30.5754   19.3994 H   0  0  0  0  0  0
  -22.7699  -29.2395   19.8492 H   0  0  0  0  0  0
  -25.1302  -36.1892   25.0816 H   0  0  0  0  0  0
  -21.0008  -28.3330   24.1380 H   0  0  0  0  0  0
  -20.5763  -26.2347   23.3619 H   0  0  0  0  0  0
  -21.6674  -26.7514   22.1178 H   0  0  0  0  0  0
  -19.6957  -25.6310   21.1267 H   0  0  0  0  0  0
  -19.6721  -27.3210   20.6760 H   0  0  0  0  0  0
  -17.4234  -26.6710   21.4006 H   0  0  0  0  0  0
  -18.0333  -26.0103   22.9023 H   0  0  0  0  0  0
  -19.7954  -30.7308   24.2248 H   0  0  0  0  0  0
  -17.5034  -31.6281   24.5190 H   0  0  0  0  0  0
  -15.5371  -30.3012   23.7675 H   0  0  0  0  0  0
  -15.8688  -28.0866   22.7044 H   0  0  0  0  0  0
  -24.5932  -30.7066   25.7719 H   0  0  0  0  0  0
  -24.8901  -32.2891   26.4796 H   0  0  0  0  0  0
  -25.8024  -30.8916   27.0207 H   0  0  0  0  0  0
  -26.2974  -29.6715   24.1256 H   0  0  0  0  0  0
  -27.4122  -29.7293   25.4718 H   0  0  0  0  0  0
  -27.8823  -30.4279   23.9405 H   0  0  0  0  0  0
  -27.2697  -33.3644   26.2009 H   0  0  0  0  0  0
  -28.3902  -32.6849   25.0318 H   0  0  0  0  0  0
  -28.0729  -31.8475   26.5423 H   0  0  0  0  0  0
  -28.2578  -38.0107   24.7534 H   0  0  0  0  0  0
  -28.1072  -36.2628   24.6237 H   0  0  0  0  0  0
  -27.2285  -37.1393   25.8862 H   0  0  0  0  0  0
  -20.9417  -29.8741   21.6782 H   0  0  0  0  0  0
  -26.0144  -38.2836   24.1431 H   0  0  0  0  0  0
  -28.4697  -15.6205   23.9266 H   0  0  0  0  0  0
  -30.1011  -16.2068   23.7217 H   0  0  0  0  0  0
  -29.7109  -14.5884   23.2364 H   0  0  0  0  0  0
  -31.4155  -17.3760   20.1005 H   0  0  0  0  0  0
  -30.0256  -17.2603   19.1109 H   0  0  0  0  0  0
  -27.5567  -23.0403   21.0273 H   0  0  0  0  0  0
  -27.5375  -23.5744   19.4014 H   0  0  0  0  0  0
  -30.3105  -22.9389   20.3306 H   0  0  0  0  0  0
  -29.5004  -22.4030   18.9131 H   0  0  0  0  0  0
  -28.6052  -17.1801   21.9967 H   0  0  0  0  0  0
  -27.9943  -15.6721   21.5204 H   0  0  0  0  0  0
  -29.3283  -25.0784   21.3713 H   0  0  0  0  0  0
  -27.6426  -25.1860   21.6331 H   0  0  0  0  0  0
  1 25  1  0  0  0
  1 30  2  0  0  0
  1 83  1  0  0  0
  2  3  1  0  0  0
  2 25  1  0  0  0
  2 87  1  0  0  0
  2 88  1  0  0  0
  3  4  1  0  0  0
  3 89  1  0  0  0
  3 90  1  0  0  0
  4  5  1  0  0  0
  4 91  1  0  0  0
  4 92  1  0  0  0
  5  6  1  0  0  0
  5 26  1  0  0  0
  5 93  1  0  0  0
  6 25  1  0  0  0
  6 94  1  0  0  0
  6 95  1  0  0  0
  7  8  2  0  0  0
  7 26  1  0  0  0
  7 29  1  0  0  0
  8  9  1  0  0  0
  8 22  1  0  0  0
  9 10  1  0  0  0
  9 27  2  0  0  0
 10 11  2  0  0  0
 10 15  1  0  0  0
 11 12  1  0  0  0
 11 96  1  0  0  0
 12 13  2  0  0  0
 12 97  1  0  0  0
 13 14  1  0  0  0
 13 31  1  0  0  0
 14 15  2  0  0  0
 14 98  1  0  0  0
 15 99  1  0  0  0
 16 17  2  0  0  0
 16 21  1  0  0  0
 16 31  1  0  0  0
 17 18  1  0  0  0
 17100  1  0  0  0
 18 19  2  0  0  0
 18101  1  0  0  0
 19 20  1  0  0  0
 19 24  1  0  0  0
 20 21  2  0  0  0
 20102  1  0  0  0
 21 23  1  0  0  0
 22 28  1  0  0  0
 22 32  2  0  0  0
 26 27  1  0  0  0
 28103  1  0  0  0
 28104  1  0  0  0
 29105  1  0  0  0
 29106  1  0  0  0
 33 34  1  0  0  0
 33 66  1  0  0  0
 33 70  2  0  0  0
 34 36  1  0  0  0
 34 59  1  0  0  0
 34107  1  0  0  0
 35 44  2  0  0  0
 35 45  1  0  0  0
 35 68  1  0  0  0
 36 56  1  0  0  0
 36108  1  0  0  0
 37 39  1  0  0  0
 37 47  1  0  0  0
 37 66  1  0  0  0
 37109  1  0  0  0
 38 43  2  0  0  0
 38 46  1  0  0  0
 38 47  1  0  0  0
 39 64  1  0  0  0
 39 67  2  0  0  0
 40 52  1  0  0  0
 40 53  2  0  0  0
 40 58  1  0  0  0
 41110  1  0  0  0
 41111  1  0  0  0
 41112  1  0  0  0
 41 48  1  0  0  0
 42 43  1  0  0  0
 42 66  1  0  0  0
 42113  1  0  0  0
 42114  1  0  0  0
 43 44  1  0  0  0
 44115  1  0  0  0
 45 46  2  0  0  0
 45116  1  0  0  0
 46117  1  0  0  0
 47118  1  0  0  0
 47119  1  0  0  0
 48 56  1  0  0  0
 48 65  1  0  0  0
 48120  1  0  0  0
 49 50  1  0  0  0
 49 53  1  0  0  0
 49 64  1  0  0  0
 49121  1  0  0  0
 50 51  1  0  0  0
 50122  1  0  0  0
 50123  1  0  0  0
 51 52  1  0  0  0
 51124  1  0  0  0
 51125  1  0  0  0
 52126  1  0  0  0
 52127  1  0  0  0
 53 54  1  0  0  0
 54 55  2  0  0  0
 54128  1  0  0  0
 55 57  1  0  0  0
 55129  1  0  0  0
 56 69  2  0  0  0
 57 58  2  0  0  0
 57130  1  0  0  0
 58131  1  0  0  0
 59 60  1  0  0  0
 59 61  1  0  0  0
 59 62  1  0  0  0
 60132  1  0  0  0
 60133  1  0  0  0
 60134  1  0  0  0
 61135  1  0  0  0
 61136  1  0  0  0
 61137  1  0  0  0
 62138  1  0  0  0
 62139  1  0  0  0
 62140  1  0  0  0
 63 65  1  0  0  0
 63141  1  0  0  0
 63142  1  0  0  0
 63143  1  0  0  0
 64144  1  0  0  0
 65145  1  0  0  0
 68 78  1  0  0  0
 71 72  1  0  0  0
 71 74  1  0  0  0
 71 80  2  0  0  0
 72 79  1  0  0  0
 72 81  2  0  0  0
 73 77  1  0  0  0
 73146  1  0  0  0
 73147  1  0  0  0
 73148  1  0  0  0
 74 83  1  0  0  0
 74149  1  0  0  0
 74150  1  0  0  0
 75 76  1  0  0  0
 75 78  1  0  0  0
 75151  1  0  0  0
 75152  1  0  0  0
 76 82  1  0  0  0
 76153  1  0  0  0
 76154  1  0  0  0
 77 83  1  0  0  0
 77155  1  0  0  0
 77156  1  0  0  0
 78157  1  0  0  0
 78158  1  0  0  0
 79 84  1  0  0  0
 79 85  1  0  0  0
 79 86  1  0  0  0
 80 82  1  0  0  0
 81 82  1  0  0  0
M  ISO  4   1 100  68 101  78 101  83 100
M  END
> <chiral flag>
0

> <version>
0

> <s_m_source_file>
/data/baiqing/PycharmProjects/Reinvent-master-3.2/result/LINK_invent/BTK/process_docking_weight1_custom_sum_contain_oxygen_bond_distance_aromatic_linkinvent_7_9_3/rearranged_h_0053.sdf

> <i_m_source_file_index>
73

> <r_mmod_Potential_Energy-OPLS-2005>
474.116271972656

> <r_mmod_Stretch_Energy-OPLS-2005>
161.511001586914

> <r_mmod_Bend_Energy-OPLS-2005>
248.958801269531

> <r_mmod_Torsional_Energy-OPLS-2005>
309.311676025391

> <r_mmod_Improper_Torsional_Energy-OPLS-2005>
11.1269245147705

> <r_mmod_Van_der_Waal_Energy-OPLS-2005>
121.905685424805

> <r_mmod_Electrostatic_Energy-OPLS-2005>
-279.193267822266

> <r_mmod_Solvation_Energy-OPLS-2005>
-191.610748291016

> <b_mmod_Minimization_Converged-OPLS-2005>
0

> <r_mmod_RMS_Derivative-OPLS-2005>
1.98625349998474

$$$$
76
                    3D
 Structure written by MMmdl.
153161  0  0  1  0            999 V2000
  -30.5322  -14.9485   20.4185 C   0  0  0  0  0  0
  -30.4410  -12.5852   19.5061 C   0  0  0  0  0  0
  -29.5250  -12.5300   18.2610 C   0  0  0  0  0  0
  -28.0564  -12.3177   18.6753 C   0  0  0  0  0  0
  -27.6311  -13.2474   19.8424 C   0  0  2  0  0  0
  -28.6711  -13.2710   20.9833 C   0  0  0  0  0  0
  -25.2462  -13.8216   20.5705 C   0  0  0  0  0  0
  -24.1777  -13.0444   20.9228 C   0  0  0  0  0  0
  -24.6392  -11.6927   20.8758 C   0  0  0  0  0  0
  -23.9078  -10.4297   21.0411 C   0  0  0  0  0  0
  -24.3628   -9.4210   21.9185 C   0  0  0  0  0  0
  -23.6299   -8.2248   22.0756 C   0  0  0  0  0  0
  -22.4279   -8.0288   21.3549 C   0  0  0  0  0  0
  -21.9918   -9.0263   20.4650 C   0  0  0  0  0  0
  -22.7252  -10.2138   20.3058 C   0  0  0  0  0  0
  -21.6854   -6.0736   22.5278 C   0  0  0  0  0  0
  -21.4015   -6.5639   23.8211 C   0  0  0  0  0  0
  -21.3660   -5.6792   24.9175 C   0  0  0  0  0  0
  -21.6046   -4.3056   24.7225 C   0  0  0  0  0  0
  -21.8819   -3.8145   23.4346 C   0  0  0  0  0  0
  -21.9194   -4.6963   22.3401 C   0  0  0  0  0  0
  -22.7796  -13.5221   21.1884 C   0  0  0  0  0  0
  -22.1661   -4.2148   21.0980 F   0  0  0  0  0  0
  -21.5632   -3.4540   25.7738 F   0  0  0  0  0  0
  -29.9499  -13.6819   20.3902 N   0  0  0  0  0  0
  -26.2885  -12.9444   20.3247 N   0  0  0  0  0  0
  -25.9324  -11.6573   20.5741 N   0  0  0  0  0  0
  -22.0443  -12.8205   22.0437 N   0  0  0  0  0  0
  -25.4135  -15.1944   20.4122 N   0  0  0  0  0  0
  -31.7278  -15.0253   20.1166 O   0  0  0  0  0  0
  -21.6646   -6.8882   21.4239 O   0  0  0  0  0  0
  -22.3478  -14.5527   20.6736 O   0  0  0  0  0  0
  -24.6440  -31.8430   23.1875 C   0  0  0  0  0  0
  -25.9211  -32.4688   23.8267 C   0  0  1  0  0  0
  -27.2140  -27.1241   20.1514 C   0  0  0  0  0  0
  -25.5958  -33.8496   24.2184 N   0  0  0  0  0  0
  -23.4482  -30.4619   21.5327 C   0  0  2  0  0  0
  -24.8981  -28.8885   20.1063 C   0  0  0  0  0  0
  -22.7570  -29.4538   22.4850 C   0  0  0  0  0  0
  -18.0308  -28.1392   22.8479 C   0  0  0  0  0  0
  -24.1490  -36.7251   23.2641 C   0  0  0  0  0  0
  -26.0046  -30.7104   21.3909 C   0  0  0  0  0  0
  -26.0737  -29.3214   20.7316 C   0  0  0  0  0  0
  -27.2307  -28.4539   20.7402 C   0  0  0  0  0  0
  -26.0182  -26.8028   19.4709 C   0  0  0  0  0  0
  -24.8845  -27.6441   19.4595 C   0  0  0  0  0  0
  -23.6748  -29.7915   20.1512 C   0  0  0  0  0  0
  -25.4124  -36.3029   24.0313 C   0  0  1  0  0  0
  -20.5919  -28.3725   23.1232 C   0  0  2  0  0  0
  -20.6794  -26.9425   22.5413 C   0  0  0  0  0  0
  -19.5778  -26.6372   21.5217 C   0  0  0  0  0  0
  -18.1957  -26.7926   22.1630 C   0  0  0  0  0  0
  -19.1563  -28.8879   23.2847 C   0  0  0  0  0  0
  -18.9474  -30.1478   23.8873 C   0  0  0  0  0  0
  -17.6466  -30.6589   24.0553 C   0  0  0  0  0  0
  -25.9076  -34.9404   23.5058 C   0  0  0  0  0  0
  -16.5360  -29.9076   23.6332 C   0  0  0  0  0  0
  -16.7292  -28.6495   23.0357 C   0  0  0  0  0  0
  -26.4527  -31.6569   25.0721 C   0  0  0  0  0  0
  -25.3701  -31.3771   26.1410 C   0  0  0  0  0  0
  -27.0397  -30.2962   24.6321 C   0  0  0  0  0  0
  -27.6050  -32.4344   25.7506 C   0  0  0  0  0  0
  -27.5575  -37.1784   24.8465 C   0  0  0  0  0  0
  -21.4260  -29.3052   22.3605 N   0  0  0  0  0  0
  -26.4287  -37.3743   23.9406 N   0  0  0  0  0  0
  -24.7185  -31.0271   22.0917 N   0  0  0  0  0  0
  -23.4211  -28.8084   23.3002 O   0  0  0  0  0  0
  -28.2594  -26.1307   20.2534 O   0  0  0  0  0  0
  -26.5659  -34.8905   22.4635 O   0  0  0  0  0  0
  -23.5559  -32.1316   23.7086 O   0  0  0  0  0  0
  -28.6200  -19.6763   23.0953 C   0  0  0  0  0  0
  -28.9723  -20.3543   21.0570 C   0  0  0  0  0  0
  -29.3455  -18.9159   21.1399 C   0  0  0  0  0  0
  -29.4556  -17.3899   23.2345 C   0  0  0  0  0  0
  -28.7790  -21.6507   20.0719 C   0  0  0  0  0  0
  -29.9440  -17.6647   20.2574 C   0  0  0  0  0  0
  -28.8505  -23.2710   20.5987 C   0  0  0  0  0  0
  -28.0529  -24.6109   19.9408 C   0  0  0  0  0  0
  -28.4756  -20.7168   22.3074 N   0  0  0  0  0  0
  -29.1570  -18.6121   22.5058 N   0  0  0  0  0  0
  -29.7347  -16.1179   20.5726 N   0  0  0  0  0  0
  -31.4763  -12.7408   19.1987 H   0  0  0  0  0  0
  -30.4306  -11.6320   20.0368 H   0  0  0  0  0  0
  -29.8450  -11.7317   17.5899 H   0  0  0  0  0  0
  -29.6166  -13.4595   17.6966 H   0  0  0  0  0  0
  -27.9500  -11.2755   18.9789 H   0  0  0  0  0  0
  -27.3957  -12.4550   17.8187 H   0  0  0  0  0  0
  -27.5974  -14.2507   19.4177 H   0  0  0  0  0  0
  -28.7542  -12.2934   21.4605 H   0  0  0  0  0  0
  -28.3692  -13.9705   21.7642 H   0  0  0  0  0  0
  -25.2775   -9.5684   22.4758 H   0  0  0  0  0  0
  -24.0008   -7.4638   22.7474 H   0  0  0  0  0  0
  -21.0851   -8.8788   19.8953 H   0  0  0  0  0  0
  -22.3718  -10.9679   19.6166 H   0  0  0  0  0  0
  -21.2006   -7.6147   23.9714 H   0  0  0  0  0  0
  -21.1480   -6.0523   25.9078 H   0  0  0  0  0  0
  -22.0596   -2.7607   23.2849 H   0  0  0  0  0  0
  -22.4075  -11.9882   22.4835 H   0  0  0  0  0  0
  -21.1054  -13.1212   22.2636 H   0  0  0  0  0  0
  -24.6429  -15.8442   20.5228 H   0  0  0  0  0  0
  -26.2502  -15.6339   20.0515 H   0  0  0  0  0  0
  -26.7270  -32.5283   23.0987 H   0  0  0  0  0  0
  -25.0089  -33.9606   25.0323 H   0  0  0  0  0  0
  -22.7517  -31.2886   21.3783 H   0  0  0  0  0  0
  -23.3759  -35.9575   23.3293 H   0  0  0  0  0  0
  -24.3572  -36.8895   22.2056 H   0  0  0  0  0  0
  -23.7241  -37.6442   23.6685 H   0  0  0  0  0  0
  -26.1648  -31.4637   20.6186 H   0  0  0  0  0  0
  -26.8732  -30.7582   22.0359 H   0  0  0  0  0  0
  -28.1223  -28.7758   21.2595 H   0  0  0  0  0  0
  -25.9229  -25.8584   18.9573 H   0  0  0  0  0  0
  -23.9899  -27.3123   18.9500 H   0  0  0  0  0  0
  -23.8114  -30.5662   19.3957 H   0  0  0  0  0  0
  -22.7897  -29.2336   19.8404 H   0  0  0  0  0  0
  -25.1313  -36.1853   25.0805 H   0  0  0  0  0  0
  -21.0015  -28.3319   24.1356 H   0  0  0  0  0  0
  -20.5685  -26.2343   23.3642 H   0  0  0  0  0  0
  -21.6660  -26.7425   22.1209 H   0  0  0  0  0  0
  -19.6942  -25.6270   21.1283 H   0  0  0  0  0  0
  -19.6723  -27.3162   20.6734 H   0  0  0  0  0  0
  -17.4224  -26.6671   21.4035 H   0  0  0  0  0  0
  -18.0363  -26.0080   22.9038 H   0  0  0  0  0  0
  -19.7943  -30.7306   24.2232 H   0  0  0  0  0  0
  -17.5007  -31.6271   24.5146 H   0  0  0  0  0  0
  -15.5354  -30.2963   23.7658 H   0  0  0  0  0  0
  -15.8697  -28.0796   22.7083 H   0  0  0  0  0  0
  -24.5883  -30.7118   25.7729 H   0  0  0  0  0  0
  -24.8889  -32.2958   26.4773 H   0  0  0  0  0  0
  -25.7975  -30.8981   27.0228 H   0  0  0  0  0  0
  -26.3022  -29.6682   24.1311 H   0  0  0  0  0  0
  -27.3979  -29.7271   25.4909 H   0  0  0  0  0  0
  -27.8942  -30.4195   23.9666 H   0  0  0  0  0  0
  -27.2636  -33.3661   26.2028 H   0  0  0  0  0  0
  -28.3889  -32.6882   25.0357 H   0  0  0  0  0  0
  -28.0689  -31.8510   26.5469 H   0  0  0  0  0  0
  -28.2586  -38.0087   24.7508 H   0  0  0  0  0  0
  -28.1078  -36.2615   24.6296 H   0  0  0  0  0  0
  -27.2289  -37.1435   25.8867 H   0  0  0  0  0  0
  -20.9479  -29.8763   21.6776 H   0  0  0  0  0  0
  -26.0153  -38.2809   24.1414 H   0  0  0  0  0  0
  -28.3380  -19.6946   24.1395 H   0  0  0  0  0  0
  -29.4345  -17.5766   24.3090 H   0  0  0  0  0  0
  -30.4536  -17.0327   22.9809 H   0  0  0  0  0  0
  -28.7120  -16.6255   23.0102 H   0  0  0  0  0  0
  -27.8005  -21.5387   19.6036 H   0  0  0  0  0  0
  -29.4747  -21.5542   19.2385 H   0  0  0  0  0  0
  -31.0241  -17.8076   20.1984 H   0  0  0  0  0  0
  -29.6038  -17.8011   19.2310 H   0  0  0  0  0  0
  -29.9089  -23.5232   20.6550 H   0  0  0  0  0  0
  -28.5271  -23.2651   21.6389 H   0  0  0  0  0  0
  -27.0014  -24.3975   20.1279 H   0  0  0  0  0  0
  -28.1646  -24.5324   18.8593 H   0  0  0  0  0  0
  -28.7787  -15.8961   20.8025 H   0  0  0  0  0  0
  1 25  1  0  0  0
  1 30  2  0  0  0
  1 81  1  0  0  0
  2  3  1  0  0  0
  2 25  1  0  0  0
  2 82  1  0  0  0
  2 83  1  0  0  0
  3  4  1  0  0  0
  3 84  1  0  0  0
  3 85  1  0  0  0
  4  5  1  0  0  0
  4 86  1  0  0  0
  4 87  1  0  0  0
  5  6  1  0  0  0
  5 26  1  0  0  0
  5 88  1  0  0  0
  6 25  1  0  0  0
  6 89  1  0  0  0
  6 90  1  0  0  0
  7  8  2  0  0  0
  7 26  1  0  0  0
  7 29  1  0  0  0
  8  9  1  0  0  0
  8 22  1  0  0  0
  9 10  1  0  0  0
  9 27  2  0  0  0
 10 11  2  0  0  0
 10 15  1  0  0  0
 11 12  1  0  0  0
 11 91  1  0  0  0
 12 13  2  0  0  0
 12 92  1  0  0  0
 13 14  1  0  0  0
 13 31  1  0  0  0
 14 15  2  0  0  0
 14 93  1  0  0  0
 15 94  1  0  0  0
 16 17  2  0  0  0
 16 21  1  0  0  0
 16 31  1  0  0  0
 17 18  1  0  0  0
 17 95  1  0  0  0
 18 19  2  0  0  0
 18 96  1  0  0  0
 19 20  1  0  0  0
 19 24  1  0  0  0
 20 21  2  0  0  0
 20 97  1  0  0  0
 21 23  1  0  0  0
 22 28  1  0  0  0
 22 32  2  0  0  0
 26 27  1  0  0  0
 28 98  1  0  0  0
 28 99  1  0  0  0
 29100  1  0  0  0
 29101  1  0  0  0
 33 34  1  0  0  0
 33 66  1  0  0  0
 33 70  2  0  0  0
 34 36  1  0  0  0
 34 59  1  0  0  0
 34102  1  0  0  0
 35 44  2  0  0  0
 35 45  1  0  0  0
 35 68  1  0  0  0
 36 56  1  0  0  0
 36103  1  0  0  0
 37 39  1  0  0  0
 37 47  1  0  0  0
 37 66  1  0  0  0
 37104  1  0  0  0
 38 43  2  0  0  0
 38 46  1  0  0  0
 38 47  1  0  0  0
 39 64  1  0  0  0
 39 67  2  0  0  0
 40 52  1  0  0  0
 40 53  2  0  0  0
 40 58  1  0  0  0
 41105  1  0  0  0
 41106  1  0  0  0
 41107  1  0  0  0
 41 48  1  0  0  0
 42 43  1  0  0  0
 42 66  1  0  0  0
 42108  1  0  0  0
 42109  1  0  0  0
 43 44  1  0  0  0
 44110  1  0  0  0
 45 46  2  0  0  0
 45111  1  0  0  0
 46112  1  0  0  0
 47113  1  0  0  0
 47114  1  0  0  0
 48 56  1  0  0  0
 48 65  1  0  0  0
 48115  1  0  0  0
 49 50  1  0  0  0
 49 53  1  0  0  0
 49 64  1  0  0  0
 49116  1  0  0  0
 50 51  1  0  0  0
 50117  1  0  0  0
 50118  1  0  0  0
 51 52  1  0  0  0
 51119  1  0  0  0
 51120  1  0  0  0
 52121  1  0  0  0
 52122  1  0  0  0
 53 54  1  0  0  0
 54 55  2  0  0  0
 54123  1  0  0  0
 55 57  1  0  0  0
 55124  1  0  0  0
 56 69  2  0  0  0
 57 58  2  0  0  0
 57125  1  0  0  0
 58126  1  0  0  0
 59 60  1  0  0  0
 59 61  1  0  0  0
 59 62  1  0  0  0
 60127  1  0  0  0
 60128  1  0  0  0
 60129  1  0  0  0
 61130  1  0  0  0
 61131  1  0  0  0
 61132  1  0  0  0
 62133  1  0  0  0
 62134  1  0  0  0
 62135  1  0  0  0
 63 65  1  0  0  0
 63136  1  0  0  0
 63137  1  0  0  0
 63138  1  0  0  0
 64139  1  0  0  0
 65140  1  0  0  0
 68 78  1  0  0  0
 71 79  2  0  0  0
 71 80  1  0  0  0
 71141  1  0  0  0
 72 73  2  0  0  0
 72 75  1  0  0  0
 72 79  1  0  0  0
 73 76  1  0  0  0
 73 80  1  0  0  0
 74 80  1  0  0  0
 74142  1  0  0  0
 74143  1  0  0  0
 74144  1  0  0  0
 75 77  1  0  0  0
 75145  1  0  0  0
 75146  1  0  0  0
 76 81  1  0  0  0
 76147  1  0  0  0
 76148  1  0  0  0
 77 78  1  0  0  0
 77149  1  0  0  0
 77150  1  0  0  0
 78151  1  0  0  0
 78152  1  0  0  0
 81153  1  0  0  0
M  ISO  4   1 100  68 101  78 101  81 100
M  END
> <chiral flag>
0

> <version>
0

> <s_m_source_file>
/data/baiqing/PycharmProjects/Reinvent-master-3.2/result/LINK_invent/BTK/process_docking_weight1_custom_sum_contain_oxygen_bond_distance_aromatic_linkinvent_7_9_3/rearranged_h_0053.sdf

> <i_m_source_file_index>
74

> <r_mmod_Potential_Energy-OPLS-2005>
476.161071777344

> <r_mmod_Stretch_Energy-OPLS-2005>
294.704681396484

> <r_mmod_Bend_Energy-OPLS-2005>
289.092163085938

> <r_mmod_Torsional_Energy-OPLS-2005>
209.160202026367

> <r_mmod_Improper_Torsional_Energy-OPLS-2005>
5.33798265457153

> <r_mmod_Van_der_Waal_Energy-OPLS-2005>
117.154655456543

> <r_mmod_Electrostatic_Energy-OPLS-2005>
-408.915802001953

> <r_mmod_Solvation_Energy-OPLS-2005>
-229.779296875

> <b_mmod_Minimization_Converged-OPLS-2005>
0

> <r_mmod_RMS_Derivative-OPLS-2005>
0.789003968238831

$$$$
77
                    3D
 Structure written by MMmdl.
169177  0  0  1  0            999 V2000
  -30.7121  -14.3971   20.6060 C   0  0  0  0  0  0
  -30.4171  -12.2701   19.4114 C   0  0  0  0  0  0
  -29.4939  -12.5156   18.2008 C   0  0  0  0  0  0
  -28.0147  -12.3751   18.6131 C   0  0  0  0  0  0
  -27.6656  -13.1989   19.8808 C   0  0  2  0  0  0
  -28.6992  -12.9388   20.9997 C   0  0  0  0  0  0
  -25.2607  -13.8139   20.5663 C   0  0  0  0  0  0
  -24.1856  -13.0440   20.9152 C   0  0  0  0  0  0
  -24.6375  -11.6891   20.8699 C   0  0  0  0  0  0
  -23.9030  -10.4290   21.0393 C   0  0  0  0  0  0
  -24.3590   -9.4213   21.9183 C   0  0  0  0  0  0
  -23.6281   -8.2241   22.0747 C   0  0  0  0  0  0
  -22.4266   -8.0274   21.3531 C   0  0  0  0  0  0
  -21.9889   -9.0239   20.4631 C   0  0  0  0  0  0
  -22.7200  -10.2127   20.3043 C   0  0  0  0  0  0
  -21.6854   -6.0725   22.5282 C   0  0  0  0  0  0
  -21.4007   -6.5629   23.8214 C   0  0  0  0  0  0
  -21.3654   -5.6782   24.9172 C   0  0  0  0  0  0
  -21.6048   -4.3046   24.7231 C   0  0  0  0  0  0
  -21.8812   -3.8135   23.4350 C   0  0  0  0  0  0
  -21.9188   -4.6953   22.3406 C   0  0  0  0  0  0
  -22.7879  -13.5240   21.1849 C   0  0  0  0  0  0
  -22.1666   -4.2146   21.0983 F   0  0  0  0  0  0
  -21.5635   -3.4522   25.7736 F   0  0  0  0  0  0
  -30.0398  -13.2276   20.4597 N   0  0  0  0  0  0
  -26.3035  -12.9297   20.3350 N   0  0  0  0  0  0
  -25.9298  -11.6459   20.5708 N   0  0  0  0  0  0
  -22.0516  -12.8233   22.0392 N   0  0  0  0  0  0
  -25.4356  -15.1864   20.4103 N   0  0  0  0  0  0
  -31.8076  -14.6227   20.0854 O   0  0  0  0  0  0
  -21.6630   -6.8875   21.4246 O   0  0  0  0  0  0
  -22.3574  -14.5555   20.6707 O   0  0  0  0  0  0
  -24.6120  -31.8681   23.2107 C   0  0  0  0  0  0
  -25.9021  -32.4822   23.8395 C   0  0  1  0  0  0
  -27.2279  -27.4591   20.0877 C   0  0  0  0  0  0
  -25.5885  -33.8620   24.2329 N   0  0  0  0  0  0
  -23.3994  -30.4941   21.5489 C   0  0  2  0  0  0
  -24.8423  -28.9593   20.1163 C   0  0  0  0  0  0
  -22.7400  -29.4673   22.4971 C   0  0  0  0  0  0
  -18.0268  -28.1388   22.8493 C   0  0  0  0  0  0
  -24.1480  -36.7318   23.2638 C   0  0  0  0  0  0
  -25.9260  -30.8412   21.3581 C   0  0  0  0  0  0
  -26.0026  -29.4765   20.7081 C   0  0  0  0  0  0
  -27.2032  -28.7338   20.6909 C   0  0  0  0  0  0
  -26.0562  -26.9464   19.4956 C   0  0  0  0  0  0
  -24.8623  -27.6918   19.5071 C   0  0  0  0  0  0
  -23.6059  -29.8262   20.1636 C   0  0  0  0  0  0
  -25.4106  -36.3121   24.0336 C   0  0  1  0  0  0
  -20.5858  -28.3671   23.1313 C   0  0  2  0  0  0
  -20.6768  -26.9406   22.5413 C   0  0  0  0  0  0
  -19.5741  -26.6388   21.5215 C   0  0  0  0  0  0
  -18.1917  -26.7932   22.1625 C   0  0  0  0  0  0
  -19.1519  -28.8846   23.2903 C   0  0  0  0  0  0
  -18.9451  -30.1454   23.8907 C   0  0  0  0  0  0
  -17.6455  -30.6589   24.0577 C   0  0  0  0  0  0
  -25.9024  -34.9476   23.5125 C   0  0  0  0  0  0
  -16.5344  -29.9095   23.6328 C   0  0  0  0  0  0
  -16.7262  -28.6518   23.0340 C   0  0  0  0  0  0
  -26.4460  -31.6601   25.0712 C   0  0  0  0  0  0
  -25.3769  -31.3705   26.1496 C   0  0  0  0  0  0
  -27.0247  -30.3042   24.6044 C   0  0  0  0  0  0
  -27.6027  -32.4330   25.7480 C   0  0  0  0  0  0
  -27.5580  -37.1813   24.8469 C   0  0  0  0  0  0
  -21.4132  -29.3042   22.3720 N   0  0  0  0  0  0
  -26.4292  -37.3808   23.9411 N   0  0  0  0  0  0
  -24.6638  -31.0825   22.0976 N   0  0  0  0  0  0
  -23.4193  -28.8208   23.2990 O   0  0  0  0  0  0
  -28.3778  -26.7132   20.0810 O   0  0  0  0  0  0
  -26.5590  -34.8929   22.4689 O   0  0  0  0  0  0
  -23.5314  -32.1392   23.7523 O   0  0  0  0  0  0
  -29.1763  -22.7493   19.7550 C   0  0  0  0  0  0
  -29.6410  -21.8266   18.8095 C   0  0  0  0  0  0
  -29.9637  -23.8942   19.9692 C   0  0  0  0  0  0
  -31.4724  -23.1469   18.4164 C   0  0  0  0  0  0
  -32.7924  -23.3364   17.7068 C   0  0  0  0  0  0
  -29.8363  -24.1659   22.4517 C   0  0  0  0  0  0
  -30.1028  -18.6898   17.2108 C   0  0  0  0  0  0
  -28.9889  -20.4725   18.5792 C   0  0  0  0  0  0
  -29.9287  -17.4599   19.9131 C   0  0  0  0  0  0
  -30.3991  -16.7818   21.2166 C   0  0  0  0  0  0
  -30.5518  -18.8566   19.6903 C   0  0  0  0  0  0
  -28.3087  -25.5943   20.9691 C   0  0  0  0  0  0
  -29.6674  -24.8740   21.0979 C   0  0  1  0  0  0
  -30.8036  -22.0294   18.1528 N   0  0  0  0  0  0
  -31.1135  -24.0762   19.2918 N   0  0  0  0  0  0
  -30.0321  -15.3662   21.2337 N   0  0  0  0  0  0
  -30.1108  -19.5241   18.4341 N   0  3  1  0  0  0
  -31.4657  -12.3533   19.1179 H   0  0  0  0  0  0
  -30.2936  -11.2500   19.7795 H   0  0  0  0  0  0
  -29.7239  -11.8104   17.4016 H   0  0  0  0  0  0
  -29.6744  -13.5127   17.7943 H   0  0  0  0  0  0
  -27.8222  -11.3175   18.8003 H   0  0  0  0  0  0
  -27.3621  -12.6581   17.7867 H   0  0  0  0  0  0
  -27.7209  -14.2518   19.6050 H   0  0  0  0  0  0
  -28.6521  -11.8953   21.3180 H   0  0  0  0  0  0
  -28.4596  -13.5180   21.8920 H   0  0  0  0  0  0
  -25.2745   -9.5688   22.4746 H   0  0  0  0  0  0
  -23.9991   -7.4614   22.7452 H   0  0  0  0  0  0
  -21.0819   -8.8730   19.8934 H   0  0  0  0  0  0
  -22.3652  -10.9648   19.6138 H   0  0  0  0  0  0
  -21.1993   -7.6138   23.9723 H   0  0  0  0  0  0
  -21.1499   -6.0513   25.9081 H   0  0  0  0  0  0
  -22.0600   -2.7602   23.2851 H   0  0  0  0  0  0
  -22.4122  -11.9881   22.4763 H   0  0  0  0  0  0
  -21.1139  -13.1271   22.2591 H   0  0  0  0  0  0
  -24.6692  -15.8444   20.5019 H   0  0  0  0  0  0
  -26.2944  -15.6208   20.0974 H   0  0  0  0  0  0
  -26.7099  -32.5537   23.1163 H   0  0  0  0  0  0
  -25.0102  -33.9790   25.0525 H   0  0  0  0  0  0
  -22.6868  -31.3095   21.4106 H   0  0  0  0  0  0
  -23.3733  -35.9660   23.3330 H   0  0  0  0  0  0
  -24.3595  -36.8904   22.2049 H   0  0  0  0  0  0
  -23.7227  -37.6532   23.6632 H   0  0  0  0  0  0
  -26.0311  -31.6043   20.5858 H   0  0  0  0  0  0
  -26.8198  -30.8994   21.9681 H   0  0  0  0  0  0
  -28.1007  -29.1282   21.1477 H   0  0  0  0  0  0
  -26.0661  -25.9729   19.0249 H   0  0  0  0  0  0
  -23.9714  -27.2866   19.0455 H   0  0  0  0  0  0
  -23.7138  -30.5983   19.4005 H   0  0  0  0  0  0
  -22.7309  -29.2447   19.8671 H   0  0  0  0  0  0
  -25.1277  -36.1989   25.0826 H   0  0  0  0  0  0
  -20.9964  -28.3237   24.1426 H   0  0  0  0  0  0
  -20.5669  -26.2278   23.3601 H   0  0  0  0  0  0
  -21.6639  -26.7437   22.1207 H   0  0  0  0  0  0
  -19.6902  -25.6300   21.1231 H   0  0  0  0  0  0
  -19.6678  -27.3215   20.6756 H   0  0  0  0  0  0
  -17.4183  -26.6672   21.4029 H   0  0  0  0  0  0
  -18.0324  -26.0072   22.9014 H   0  0  0  0  0  0
  -19.7936  -30.7265   24.2261 H   0  0  0  0  0  0
  -17.5015  -31.6264   24.5184 H   0  0  0  0  0  0
  -15.5347  -30.3005   23.7643 H   0  0  0  0  0  0
  -15.8670  -28.0854   22.7025 H   0  0  0  0  0  0
  -24.5914  -30.7071   25.7878 H   0  0  0  0  0  0
  -24.8992  -32.2849   26.5003 H   0  0  0  0  0  0
  -25.8160  -30.8848   27.0217 H   0  0  0  0  0  0
  -26.2745  -29.6860   24.1087 H   0  0  0  0  0  0
  -27.4018  -29.7218   25.4462 H   0  0  0  0  0  0
  -27.8599  -30.4381   23.9174 H   0  0  0  0  0  0
  -27.2624  -33.3606   26.2104 H   0  0  0  0  0  0
  -28.3807  -32.6931   25.0297 H   0  0  0  0  0  0
  -28.0726  -31.8426   26.5360 H   0  0  0  0  0  0
  -28.2600  -38.0106   24.7509 H   0  0  0  0  0  0
  -28.1057  -36.2624   24.6290 H   0  0  0  0  0  0
  -27.2298  -37.1482   25.8876 H   0  0  0  0  0  0
  -20.9271  -29.8770   21.6966 H   0  0  0  0  0  0
  -26.0170  -38.2878   24.1425 H   0  0  0  0  0  0
  -28.2799  -22.5584   20.3305 H   0  0  0  0  0  0
  -32.7196  -24.1415   16.9769 H   0  0  0  0  0  0
  -33.1058  -22.4306   17.1851 H   0  0  0  0  0  0
  -33.5683  -23.5866   18.4290 H   0  0  0  0  0  0
  -30.8450  -23.7654   22.5497 H   0  0  0  0  0  0
  -29.1471  -23.3287   22.5578 H   0  0  0  0  0  0
  -29.6654  -24.8496   23.2825 H   0  0  0  0  0  0
  -29.9680  -19.3037   16.3196 H   0  0  0  0  0  0
  -29.3054  -17.9468   17.2301 H   0  0  0  0  0  0
  -31.0556  -18.1689   17.1040 H   0  0  0  0  0  0
  -28.3930  -20.5337   17.6682 H   0  0  0  0  0  0
  -28.3137  -20.1905   19.3890 H   0  0  0  0  0  0
  -28.8414  -17.5311   19.9151 H   0  0  0  0  0  0
  -30.1948  -16.8126   19.0762 H   0  0  0  0  0  0
  -31.4816  -16.8747   21.3277 H   0  0  0  0  0  0
  -29.9553  -17.2798   22.0803 H   0  0  0  0  0  0
  -31.6366  -18.7574   19.6439 H   0  0  0  0  0  0
  -30.3545  -19.5016   20.5486 H   0  0  0  0  0  0
  -28.0214  -25.9733   21.9522 H   0  0  0  0  0  0
  -27.5282  -24.8938   20.6726 H   0  0  0  0  0  0
  -30.4325  -25.6529   21.0691 H   0  0  0  0  0  0
  -29.1504  -15.1116   21.6545 H   0  0  0  0  0  0
  -30.8023  -20.2541   18.2491 H   0  0  0  0  0  0
  1 25  1  0  0  0
  1 30  2  0  0  0
  1 86  1  0  0  0
  2  3  1  0  0  0
  2 25  1  0  0  0
  2 88  1  0  0  0
  2 89  1  0  0  0
  3  4  1  0  0  0
  3 90  1  0  0  0
  3 91  1  0  0  0
  4  5  1  0  0  0
  4 92  1  0  0  0
  4 93  1  0  0  0
  5  6  1  0  0  0
  5 26  1  0  0  0
  5 94  1  0  0  0
  6 25  1  0  0  0
  6 95  1  0  0  0
  6 96  1  0  0  0
  7  8  2  0  0  0
  7 26  1  0  0  0
  7 29  1  0  0  0
  8  9  1  0  0  0
  8 22  1  0  0  0
  9 10  1  0  0  0
  9 27  2  0  0  0
 10 11  2  0  0  0
 10 15  1  0  0  0
 11 12  1  0  0  0
 11 97  1  0  0  0
 12 13  2  0  0  0
 12 98  1  0  0  0
 13 14  1  0  0  0
 13 31  1  0  0  0
 14 15  2  0  0  0
 14 99  1  0  0  0
 15100  1  0  0  0
 16 17  2  0  0  0
 16 21  1  0  0  0
 16 31  1  0  0  0
 17 18  1  0  0  0
 17101  1  0  0  0
 18 19  2  0  0  0
 18102  1  0  0  0
 19 20  1  0  0  0
 19 24  1  0  0  0
 20 21  2  0  0  0
 20103  1  0  0  0
 21 23  1  0  0  0
 22 28  1  0  0  0
 22 32  2  0  0  0
 26 27  1  0  0  0
 28104  1  0  0  0
 28105  1  0  0  0
 29106  1  0  0  0
 29107  1  0  0  0
 33 34  1  0  0  0
 33 66  1  0  0  0
 33 70  2  0  0  0
 34 36  1  0  0  0
 34 59  1  0  0  0
 34108  1  0  0  0
 35 44  2  0  0  0
 35 45  1  0  0  0
 35 68  1  0  0  0
 36 56  1  0  0  0
 36109  1  0  0  0
 37 39  1  0  0  0
 37 47  1  0  0  0
 37 66  1  0  0  0
 37110  1  0  0  0
 38 43  2  0  0  0
 38 46  1  0  0  0
 38 47  1  0  0  0
 39 64  1  0  0  0
 39 67  2  0  0  0
 40 52  1  0  0  0
 40 53  2  0  0  0
 40 58  1  0  0  0
 41111  1  0  0  0
 41112  1  0  0  0
 41113  1  0  0  0
 41 48  1  0  0  0
 42 43  1  0  0  0
 42 66  1  0  0  0
 42114  1  0  0  0
 42115  1  0  0  0
 43 44  1  0  0  0
 44116  1  0  0  0
 45 46  2  0  0  0
 45117  1  0  0  0
 46118  1  0  0  0
 47119  1  0  0  0
 47120  1  0  0  0
 48 56  1  0  0  0
 48 65  1  0  0  0
 48121  1  0  0  0
 49 50  1  0  0  0
 49 53  1  0  0  0
 49 64  1  0  0  0
 49122  1  0  0  0
 50 51  1  0  0  0
 50123  1  0  0  0
 50124  1  0  0  0
 51 52  1  0  0  0
 51125  1  0  0  0
 51126  1  0  0  0
 52127  1  0  0  0
 52128  1  0  0  0
 53 54  1  0  0  0
 54 55  2  0  0  0
 54129  1  0  0  0
 55 57  1  0  0  0
 55130  1  0  0  0
 56 69  2  0  0  0
 57 58  2  0  0  0
 57131  1  0  0  0
 58132  1  0  0  0
 59 60  1  0  0  0
 59 61  1  0  0  0
 59 62  1  0  0  0
 60133  1  0  0  0
 60134  1  0  0  0
 60135  1  0  0  0
 61136  1  0  0  0
 61137  1  0  0  0
 61138  1  0  0  0
 62139  1  0  0  0
 62140  1  0  0  0
 62141  1  0  0  0
 63 65  1  0  0  0
 63142  1  0  0  0
 63143  1  0  0  0
 63144  1  0  0  0
 64145  1  0  0  0
 65146  1  0  0  0
 68 82  1  0  0  0
 71 72  2  0  0  0
 71 73  1  0  0  0
 71147  1  0  0  0
 72 78  1  0  0  0
 72 84  1  0  0  0
 73 83  1  0  0  0
 73 85  2  0  0  0
 74 75  1  0  0  0
 74 84  2  0  0  0
 74 85  1  0  0  0
 75148  1  0  0  0
 75149  1  0  0  0
 75150  1  0  0  0
 76151  1  0  0  0
 76152  1  0  0  0
 76153  1  0  0  0
 76 83  1  0  0  0
 77154  1  0  0  0
 77155  1  0  0  0
 77156  1  0  0  0
 77 87  1  0  0  0
 78 87  1  0  0  0
 78157  1  0  0  0
 78158  1  0  0  0
 79 80  1  0  0  0
 79 81  1  0  0  0
 79159  1  0  0  0
 79160  1  0  0  0
 80 86  1  0  0  0
 80161  1  0  0  0
 80162  1  0  0  0
 81 87  1  0  0  0
 81163  1  0  0  0
 81164  1  0  0  0
 82 83  1  0  0  0
 82165  1  0  0  0
 82166  1  0  0  0
 83167  1  0  0  0
 86168  1  0  0  0
 87169  1  0  0  0
M  CHG  1  87   1
M  ISO  4   1 100  68 101  82 101  86 100
M  END
> <chiral flag>
0

> <version>
0

> <s_m_source_file>
/data/baiqing/PycharmProjects/Reinvent-master-3.2/result/LINK_invent/BTK/process_docking_weight1_custom_sum_contain_oxygen_bond_distance_aromatic_linkinvent_7_9_3/rearranged_h_0053.sdf

> <i_m_source_file_index>
75

> <r_mmod_Potential_Energy-OPLS-2005>
-704.921997070312

> <r_mmod_Stretch_Energy-OPLS-2005>
31.834924697876

> <r_mmod_Bend_Energy-OPLS-2005>
107.929420471191

> <r_mmod_Torsional_Energy-OPLS-2005>
227.902938842773

> <r_mmod_Improper_Torsional_Energy-OPLS-2005>
4.95937585830688

> <r_mmod_Van_der_Waal_Energy-OPLS-2005>
171.309020996094

> <r_mmod_Electrostatic_Energy-OPLS-2005>
-804.6416015625

> <r_mmod_Solvation_Energy-OPLS-2005>
-452.555999755859

> <b_mmod_Minimization_Converged-OPLS-2005>
0

> <r_mmod_RMS_Derivative-OPLS-2005>
3.07941889762878

$$$$
78
                    3D
 Structure written by MMmdl.
156164  0  0  1  0            999 V2000
  -30.7596  -14.4432   20.4827 C   0  0  0  0  0  0
  -30.3916  -12.2711   19.4286 C   0  0  0  0  0  0
  -29.4817  -12.4826   18.2027 C   0  0  0  0  0  0
  -28.0043  -12.3635   18.6188 C   0  0  0  0  0  0
  -27.6542  -13.2225   19.8649 C   0  0  2  0  0  0
  -28.7020  -13.0595   20.9903 C   0  0  0  0  0  0
  -25.2572  -13.8214   20.5727 C   0  0  0  0  0  0
  -24.1824  -13.0439   20.9201 C   0  0  0  0  0  0
  -24.6404  -11.6925   20.8731 C   0  0  0  0  0  0
  -23.9066  -10.4295   21.0395 C   0  0  0  0  0  0
  -24.3619   -9.4220   21.9175 C   0  0  0  0  0  0
  -23.6308   -8.2251   22.0747 C   0  0  0  0  0  0
  -22.4301   -8.0287   21.3530 C   0  0  0  0  0  0
  -21.9917   -9.0254   20.4631 C   0  0  0  0  0  0
  -22.7239  -10.2140   20.3040 C   0  0  0  0  0  0
  -21.6860   -6.0742   22.5280 C   0  0  0  0  0  0
  -21.4026   -6.5646   23.8212 C   0  0  0  0  0  0
  -21.3654   -5.6795   24.9177 C   0  0  0  0  0  0
  -21.6043   -4.3054   24.7222 C   0  0  0  0  0  0
  -21.8820   -3.8150   23.4339 C   0  0  0  0  0  0
  -21.9198   -4.6969   22.3402 C   0  0  0  0  0  0
  -22.7849  -13.5231   21.1850 C   0  0  0  0  0  0
  -22.1665   -4.2153   21.0978 F   0  0  0  0  0  0
  -21.5614   -3.4543   25.7730 F   0  0  0  0  0  0
  -30.0293  -13.3031   20.4115 N   0  0  0  0  0  0
  -26.3007  -12.9402   20.3375 N   0  0  0  0  0  0
  -25.9332  -11.6546   20.5766 N   0  0  0  0  0  0
  -22.0494  -12.8212   22.0412 N   0  0  0  0  0  0
  -25.4232  -15.1926   20.4139 N   0  0  0  0  0  0
  -31.9416  -14.4870   20.1369 O   0  0  0  0  0  0
  -21.6644   -6.8898   21.4249 O   0  0  0  0  0  0
  -22.3518  -14.5528   20.6710 O   0  0  0  0  0  0
  -24.6165  -31.8695   23.2158 C   0  0  0  0  0  0
  -25.9033  -32.4870   23.8452 C   0  0  1  0  0  0
  -27.2264  -27.4358   20.1171 C   0  0  0  0  0  0
  -25.5843  -33.8682   24.2336 N   0  0  0  0  0  0
  -23.4071  -30.4904   21.5538 C   0  0  2  0  0  0
  -24.8513  -28.9602   20.1135 C   0  0  0  0  0  0
  -22.7412  -29.4638   22.5007 C   0  0  0  0  0  0
  -18.0248  -28.1420   22.8463 C   0  0  0  0  0  0
  -24.1468  -36.7376   23.2631 C   0  0  0  0  0  0
  -25.9387  -30.8273   21.3786 C   0  0  0  0  0  0
  -26.0097  -29.4683   20.7159 C   0  0  0  0  0  0
  -27.2057  -28.7190   20.7040 C   0  0  0  0  0  0
  -26.0564  -26.9423   19.4975 C   0  0  0  0  0  0
  -24.8716  -27.7014   19.4883 C   0  0  0  0  0  0
  -23.6196  -29.8334   20.1646 C   0  0  0  0  0  0
  -25.4089  -36.3178   24.0338 C   0  0  1  0  0  0
  -20.5809  -28.3712   23.1243 C   0  0  2  0  0  0
  -20.6715  -26.9427   22.5406 C   0  0  0  0  0  0
  -19.5697  -26.6416   21.5190 C   0  0  0  0  0  0
  -18.1898  -26.7950   22.1632 C   0  0  0  0  0  0
  -19.1475  -28.8907   23.2834 C   0  0  0  0  0  0
  -18.9398  -30.1524   23.8829 C   0  0  0  0  0  0
  -17.6396  -30.6647   24.0499 C   0  0  0  0  0  0
  -25.9008  -34.9534   23.5142 C   0  0  0  0  0  0
  -16.5297  -29.9100   23.6307 C   0  0  0  0  0  0
  -16.7235  -28.6516   23.0361 C   0  0  0  0  0  0
  -26.4413  -31.6712   25.0849 C   0  0  0  0  0  0
  -25.3667  -31.3871   26.1604 C   0  0  0  0  0  0
  -27.0192  -30.3115   24.6319 C   0  0  0  0  0  0
  -27.5968  -32.4467   25.7621 C   0  0  0  0  0  0
  -27.5575  -37.1853   24.8457 C   0  0  0  0  0  0
  -21.4138  -29.3066   22.3677 N   0  0  0  0  0  0
  -26.4286  -37.3847   23.9403 N   0  0  0  0  0  0
  -24.6713  -31.0789   22.1061 N   0  0  0  0  0  0
  -23.4148  -28.8180   23.3079 O   0  0  0  0  0  0
  -28.3745  -26.6786   20.1792 O   0  0  0  0  0  0
  -26.5619  -34.8967   22.4739 O   0  0  0  0  0  0
  -23.5346  -32.1437   23.7532 O   0  0  0  0  0  0
  -29.8084  -18.9950   19.1468 C   0  0  0  0  0  0
  -29.4321  -19.9003   21.6614 C   0  0  0  0  0  0
  -29.9941  -18.1526   20.2715 C   0  0  0  0  0  0
  -29.2972  -20.7636   20.5410 C   0  0  0  0  0  0
  -26.7324  -22.5985   19.9610 C   0  0  0  0  0  0
  -30.7195  -16.8271   20.1115 C   0  0  0  0  0  0
  -28.5907  -24.3443   19.5480 C   0  0  0  0  0  0
  -28.1980  -25.3320   20.6582 C   0  0  0  0  0  0
  -28.2283  -22.8468   19.7242 C   0  0  1  0  0  0
  -29.7752  -18.5927   21.5330 N   0  0  0  0  0  0
  -29.4593  -20.2972   19.2785 N   0  0  0  0  0  0
  -29.0460  -22.1365   20.7169 N   0  0  0  0  0  0
  -30.0936  -15.5994   20.6313 N   0  0  0  0  0  0
  -31.4413  -12.3087   19.1305 H   0  0  0  0  0  0
  -30.2379  -11.2776   19.8534 H   0  0  0  0  0  0
  -29.7111  -11.7500   17.4282 H   0  0  0  0  0  0
  -29.6658  -13.4627   17.7577 H   0  0  0  0  0  0
  -27.8088  -11.3115   18.8317 H   0  0  0  0  0  0
  -27.3540  -12.6295   17.7845 H   0  0  0  0  0  0
  -27.6796  -14.2617   19.5382 H   0  0  0  0  0  0
  -28.6627  -12.0538   21.4092 H   0  0  0  0  0  0
  -28.5000  -13.7392   21.8179 H   0  0  0  0  0  0
  -25.2766   -9.5699   22.4741 H   0  0  0  0  0  0
  -24.0010   -7.4646   22.7464 H   0  0  0  0  0  0
  -21.0853   -8.8791   19.8932 H   0  0  0  0  0  0
  -22.3718  -10.9681   19.6143 H   0  0  0  0  0  0
  -21.2040   -7.6157   23.9728 H   0  0  0  0  0  0
  -21.1463   -6.0519   25.9076 H   0  0  0  0  0  0
  -22.0602   -2.7614   23.2841 H   0  0  0  0  0  0
  -22.4140  -11.9897   22.4809 H   0  0  0  0  0  0
  -21.1082  -13.1190   22.2577 H   0  0  0  0  0  0
  -24.6549  -15.8462   20.5241 H   0  0  0  0  0  0
  -26.2780  -15.6351   20.1017 H   0  0  0  0  0  0
  -26.7137  -32.5555   23.1244 H   0  0  0  0  0  0
  -24.9908  -33.9882   25.0416 H   0  0  0  0  0  0
  -22.7022  -31.3113   21.4139 H   0  0  0  0  0  0
  -23.3716  -35.9721   23.3327 H   0  0  0  0  0  0
  -24.3523  -36.8978   22.2032 H   0  0  0  0  0  0
  -23.7241  -37.6602   23.6620 H   0  0  0  0  0  0
  -26.0667  -31.5839   20.6046 H   0  0  0  0  0  0
  -26.8217  -30.8651   22.0060 H   0  0  0  0  0  0
  -28.1019  -29.1000   21.1790 H   0  0  0  0  0  0
  -26.0545  -25.9676   19.0285 H   0  0  0  0  0  0
  -23.9884  -27.3051   19.0046 H   0  0  0  0  0  0
  -23.7719  -30.6179   19.4226 H   0  0  0  0  0  0
  -22.7347  -29.2785   19.8439 H   0  0  0  0  0  0
  -25.1251  -36.2024   25.0823 H   0  0  0  0  0  0
  -20.9844  -28.3290   24.1390 H   0  0  0  0  0  0
  -20.5559  -26.2361   23.3635 H   0  0  0  0  0  0
  -21.6578  -26.7380   22.1225 H   0  0  0  0  0  0
  -19.6860  -25.6309   21.1278 H   0  0  0  0  0  0
  -19.6624  -27.3188   20.6684 H   0  0  0  0  0  0
  -17.4143  -26.6566   21.4093 H   0  0  0  0  0  0
  -18.0352  -26.0160   22.9105 H   0  0  0  0  0  0
  -19.7857  -30.7390   24.2135 H   0  0  0  0  0  0
  -17.4884  -31.6363   24.5016 H   0  0  0  0  0  0
  -15.5251  -30.2985   23.7553 H   0  0  0  0  0  0
  -15.8657  -28.0813   22.7066 H   0  0  0  0  0  0
  -24.5799  -30.7258   25.7967 H   0  0  0  0  0  0
  -24.8910  -32.3056   26.5068 H   0  0  0  0  0  0
  -25.7993  -30.9037   27.0375 H   0  0  0  0  0  0
  -26.2727  -29.6972   24.1276 H   0  0  0  0  0  0
  -27.3724  -29.7309   25.4851 H   0  0  0  0  0  0
  -27.8693  -30.4368   23.9608 H   0  0  0  0  0  0
  -27.2527  -33.3726   26.2253 H   0  0  0  0  0  0
  -28.3734  -32.7143   25.0447 H   0  0  0  0  0  0
  -28.0690  -31.8606   26.5517 H   0  0  0  0  0  0
  -28.2606  -38.0139   24.7460 H   0  0  0  0  0  0
  -28.1045  -36.2660   24.6287 H   0  0  0  0  0  0
  -27.2296  -37.1533   25.8867 H   0  0  0  0  0  0
  -20.9425  -29.8720   21.6772 H   0  0  0  0  0  0
  -26.0185  -38.2932   24.1378 H   0  0  0  0  0  0
  -30.0298  -18.6484   18.1475 H   0  0  0  0  0  0
  -29.3004  -20.2643   22.6704 H   0  0  0  0  0  0
  -26.1188  -23.2185   19.3039 H   0  0  0  0  0  0
  -26.4490  -22.8097   20.9906 H   0  0  0  0  0  0
  -26.4696  -21.5585   19.7588 H   0  0  0  0  0  0
  -31.6941  -16.9610   20.5860 H   0  0  0  0  0  0
  -30.9318  -16.6814   19.0505 H   0  0  0  0  0  0
  -29.6630  -24.4469   19.3800 H   0  0  0  0  0  0
  -28.1114  -24.6837   18.6289 H   0  0  0  0  0  0
  -27.1838  -25.1419   21.0134 H   0  0  0  0  0  0
  -28.8312  -25.1747   21.5298 H   0  0  0  0  0  0
  -28.4498  -22.4281   18.7443 H   0  0  0  0  0  0
  -28.9613  -22.4258   21.6870 H   0  0  0  0  0  0
  -29.1146  -15.6064   20.8683 H   0  0  0  0  0  0
  1 25  1  0  0  0
  1 30  2  0  0  0
  1 83  1  0  0  0
  2  3  1  0  0  0
  2 25  1  0  0  0
  2 84  1  0  0  0
  2 85  1  0  0  0
  3  4  1  0  0  0
  3 86  1  0  0  0
  3 87  1  0  0  0
  4  5  1  0  0  0
  4 88  1  0  0  0
  4 89  1  0  0  0
  5  6  1  0  0  0
  5 26  1  0  0  0
  5 90  1  0  0  0
  6 25  1  0  0  0
  6 91  1  0  0  0
  6 92  1  0  0  0
  7  8  2  0  0  0
  7 26  1  0  0  0
  7 29  1  0  0  0
  8  9  1  0  0  0
  8 22  1  0  0  0
  9 10  1  0  0  0
  9 27  2  0  0  0
 10 11  2  0  0  0
 10 15  1  0  0  0
 11 12  1  0  0  0
 11 93  1  0  0  0
 12 13  2  0  0  0
 12 94  1  0  0  0
 13 14  1  0  0  0
 13 31  1  0  0  0
 14 15  2  0  0  0
 14 95  1  0  0  0
 15 96  1  0  0  0
 16 17  2  0  0  0
 16 21  1  0  0  0
 16 31  1  0  0  0
 17 18  1  0  0  0
 17 97  1  0  0  0
 18 19  2  0  0  0
 18 98  1  0  0  0
 19 20  1  0  0  0
 19 24  1  0  0  0
 20 21  2  0  0  0
 20 99  1  0  0  0
 21 23  1  0  0  0
 22 28  1  0  0  0
 22 32  2  0  0  0
 26 27  1  0  0  0
 28100  1  0  0  0
 28101  1  0  0  0
 29102  1  0  0  0
 29103  1  0  0  0
 33 34  1  0  0  0
 33 66  1  0  0  0
 33 70  2  0  0  0
 34 36  1  0  0  0
 34 59  1  0  0  0
 34104  1  0  0  0
 35 44  2  0  0  0
 35 45  1  0  0  0
 35 68  1  0  0  0
 36 56  1  0  0  0
 36105  1  0  0  0
 37 39  1  0  0  0
 37 47  1  0  0  0
 37 66  1  0  0  0
 37106  1  0  0  0
 38 43  2  0  0  0
 38 46  1  0  0  0
 38 47  1  0  0  0
 39 64  1  0  0  0
 39 67  2  0  0  0
 40 52  1  0  0  0
 40 53  2  0  0  0
 40 58  1  0  0  0
 41107  1  0  0  0
 41108  1  0  0  0
 41109  1  0  0  0
 41 48  1  0  0  0
 42 43  1  0  0  0
 42 66  1  0  0  0
 42110  1  0  0  0
 42111  1  0  0  0
 43 44  1  0  0  0
 44112  1  0  0  0
 45 46  2  0  0  0
 45113  1  0  0  0
 46114  1  0  0  0
 47115  1  0  0  0
 47116  1  0  0  0
 48 56  1  0  0  0
 48 65  1  0  0  0
 48117  1  0  0  0
 49 50  1  0  0  0
 49 53  1  0  0  0
 49 64  1  0  0  0
 49118  1  0  0  0
 50 51  1  0  0  0
 50119  1  0  0  0
 50120  1  0  0  0
 51 52  1  0  0  0
 51121  1  0  0  0
 51122  1  0  0  0
 52123  1  0  0  0
 52124  1  0  0  0
 53 54  1  0  0  0
 54 55  2  0  0  0
 54125  1  0  0  0
 55 57  1  0  0  0
 55126  1  0  0  0
 56 69  2  0  0  0
 57 58  2  0  0  0
 57127  1  0  0  0
 58128  1  0  0  0
 59 60  1  0  0  0
 59 61  1  0  0  0
 59 62  1  0  0  0
 60129  1  0  0  0
 60130  1  0  0  0
 60131  1  0  0  0
 61132  1  0  0  0
 61133  1  0  0  0
 61134  1  0  0  0
 62135  1  0  0  0
 62136  1  0  0  0
 62137  1  0  0  0
 63 65  1  0  0  0
 63138  1  0  0  0
 63139  1  0  0  0
 63140  1  0  0  0
 64141  1  0  0  0
 65142  1  0  0  0
 68 78  1  0  0  0
 71 73  2  0  0  0
 71 81  1  0  0  0
 71143  1  0  0  0
 72 74  1  0  0  0
 72 80  2  0  0  0
 72144  1  0  0  0
 73 76  1  0  0  0
 73 80  1  0  0  0
 74 81  2  0  0  0
 74 82  1  0  0  0
 75145  1  0  0  0
 75146  1  0  0  0
 75147  1  0  0  0
 75 79  1  0  0  0
 76 83  1  0  0  0
 76148  1  0  0  0
 76149  1  0  0  0
 77 78  1  0  0  0
 77 79  1  0  0  0
 77150  1  0  0  0
 77151  1  0  0  0
 78152  1  0  0  0
 78153  1  0  0  0
 79 82  1  0  0  0
 79154  1  0  0  0
 82155  1  0  0  0
 83156  1  0  0  0
M  ISO  4   1 100  68 101  78 101  83 100
M  END
> <chiral flag>
0

> <version>
0

> <s_m_source_file>
/data/baiqing/PycharmProjects/Reinvent-master-3.2/result/LINK_invent/BTK/process_docking_weight1_custom_sum_contain_oxygen_bond_distance_aromatic_linkinvent_7_9_3/rearranged_h_0053.sdf

> <i_m_source_file_index>
76

> <r_mmod_Potential_Energy-OPLS-2005>
-23.8957252502441

> <r_mmod_Stretch_Energy-OPLS-2005>
36.2199935913086

> <r_mmod_Bend_Energy-OPLS-2005>
110.540092468262

> <r_mmod_Torsional_Energy-OPLS-2005>
236.043563842773

> <r_mmod_Improper_Torsional_Energy-OPLS-2005>
12.7161903381348

> <r_mmod_Van_der_Waal_Energy-OPLS-2005>
166.170394897461

> <r_mmod_Electrostatic_Energy-OPLS-2005>
-379.602661132812

> <r_mmod_Solvation_Energy-OPLS-2005>
-230.441253662109

> <b_mmod_Minimization_Converged-OPLS-2005>
0

> <r_mmod_RMS_Derivative-OPLS-2005>
4.98322868347168

$$$$
79
                    3D
 Structure written by MMmdl.
157165  0  0  1  0            999 V2000
  -30.4755  -15.4013   20.2805 C   0  0  0  0  0  0
  -30.4499  -12.9111   19.4648 C   0  0  0  0  0  0
  -29.5364  -12.5748   18.2545 C   0  0  0  0  0  0
  -28.0917  -12.2788   18.7041 C   0  0  0  0  0  0
  -27.5962  -13.2938   19.7630 C   0  0  2  0  0  0
  -28.6447  -13.5862   20.8700 C   0  0  0  0  0  0
  -25.2323  -13.8171   20.5736 C   0  0  0  0  0  0
  -24.1686  -13.0335   20.9294 C   0  0  0  0  0  0
  -24.6396  -11.6874   20.8713 C   0  0  0  0  0  0
  -23.9074  -10.4236   21.0338 C   0  0  0  0  0  0
  -24.3616   -9.4183   21.9135 C   0  0  0  0  0  0
  -23.6299   -8.2224   22.0718 C   0  0  0  0  0  0
  -22.4281   -8.0253   21.3512 C   0  0  0  0  0  0
  -21.9898   -9.0217   20.4595 C   0  0  0  0  0  0
  -22.7243  -10.2097   20.2969 C   0  0  0  0  0  0
  -21.6830   -6.0731   22.5311 C   0  0  0  0  0  0
  -21.4020   -6.5631   23.8254 C   0  0  0  0  0  0
  -21.3668   -5.6775   24.9204 C   0  0  0  0  0  0
  -21.6038   -4.3044   24.7238 C   0  0  0  0  0  0
  -21.8822   -3.8135   23.4367 C   0  0  0  0  0  0
  -21.9184   -4.6957   22.3423 C   0  0  0  0  0  0
  -22.7707  -13.5071   21.1994 C   0  0  0  0  0  0
  -22.1639   -4.2150   21.1005 F   0  0  0  0  0  0
  -21.5629   -3.4511   25.7757 F   0  0  0  0  0  0
  -29.8671  -14.0966   20.2152 N   0  0  0  0  0  0
  -26.2765  -12.9529   20.3009 N   0  0  0  0  0  0
  -25.9334  -11.6612   20.5537 N   0  0  0  0  0  0
  -22.0372  -12.8033   22.0601 N   0  0  0  0  0  0
  -25.3901  -15.1839   20.4262 N   0  0  0  0  0  0
  -31.7062  -15.3135   20.1752 O   0  0  0  0  0  0
  -21.6613   -6.8877   21.4277 O   0  0  0  0  0  0
  -22.3356  -14.5349   20.6852 O   0  0  0  0  0  0
  -24.6795  -31.8134   23.1609 C   0  0  0  0  0  0
  -25.9431  -32.4549   23.8109 C   0  0  1  0  0  0
  -27.2515  -26.8491   20.1746 C   0  0  0  0  0  0
  -25.6069  -33.8360   24.2026 N   0  0  0  0  0  0
  -23.4982  -30.4217   21.5087 C   0  0  2  0  0  0
  -24.9568  -28.7885   20.1089 C   0  0  0  0  0  0
  -22.7749  -29.4393   22.4713 C   0  0  0  0  0  0
  -18.0344  -28.1475   22.8455 C   0  0  0  0  0  0
  -24.1485  -36.7183   23.2640 C   0  0  0  0  0  0
  -26.0715  -30.5944   21.4005 C   0  0  0  0  0  0
  -26.1405  -29.1730   20.7482 C   0  0  0  0  0  0
  -27.2687  -28.2232   20.7642 C   0  0  0  0  0  0
  -26.0320  -26.6369   19.4869 C   0  0  0  0  0  0
  -24.9323  -27.5410   19.4623 C   0  0  0  0  0  0
  -23.7519  -29.7351   20.1362 C   0  0  0  0  0  0
  -25.4126  -36.2924   24.0298 C   0  0  1  0  0  0
  -20.5979  -28.3827   23.1161 C   0  0  2  0  0  0
  -20.6838  -26.9499   22.5397 C   0  0  0  0  0  0
  -19.5805  -26.6422   21.5231 C   0  0  0  0  0  0
  -18.1978  -26.8002   22.1635 C   0  0  0  0  0  0
  -19.1603  -28.8967   23.2808 C   0  0  0  0  0  0
  -18.9519  -30.1535   23.8865 C   0  0  0  0  0  0
  -17.6510  -30.6648   24.0579 C   0  0  0  0  0  0
  -25.9117  -34.9317   23.4964 C   0  0  0  0  0  0
  -16.5406  -29.9145   23.6333 C   0  0  0  0  0  0
  -16.7321  -28.6580   23.0344 C   0  0  0  0  0  0
  -26.4616  -31.6533   25.0680 C   0  0  0  0  0  0
  -25.3694  -31.3880   26.1322 C   0  0  0  0  0  0
  -27.0515  -30.2889   24.6445 C   0  0  0  0  0  0
  -27.6087  -32.4339   25.7547 C   0  0  0  0  0  0
  -27.5547  -37.1763   24.8473 C   0  0  0  0  0  0
  -21.4400  -29.3086   22.3493 N   0  0  0  0  0  0
  -26.4239  -37.3685   23.9415 N   0  0  0  0  0  0
  -24.7719  -30.9731   22.0775 N   0  0  0  0  0  0
  -23.4258  -28.7933   23.2982 O   0  0  0  0  0  0
  -28.2293  -25.6935   20.3198 O   0  0  0  0  0  0
  -26.5680  -34.8876   22.4533 O   0  0  0  0  0  0
  -23.5846  -32.1110   23.6677 O   0  0  0  0  0  0
  -27.5717  -21.4744   19.5485 C   0  0  0  0  0  0
  -28.5265  -22.4130   19.9412 C   0  0  0  0  0  0
  -29.2559  -19.9490   20.0804 C   0  0  0  0  0  0
  -31.4350  -18.6383   19.4102 C   0  0  0  0  0  0
  -26.6554  -18.1590   20.1446 C   0  0  0  0  0  0
  -27.8895  -18.2495   17.8507 C   0  0  0  0  0  0
  -28.3434  -24.1764   19.5927 C   0  0  0  0  0  0
  -30.1797  -18.4207   20.2722 C   0  0  2  0  0  0
  -27.2154  -19.0212   19.0138 C   0  0  0  0  0  0
  -28.0232  -20.1288   19.5498 N   0  0  0  0  0  0
  -29.5596  -21.3670   20.2562 N   0  3  0  0  0  0
  -29.7923  -16.7488   20.2718 N   0  0  0  0  0  0
  -31.4455  -13.1460   19.0837 H   0  0  0  0  0  0
  -30.5850  -12.0466   20.1221 H   0  0  0  0  0  0
  -29.9280  -11.7359   17.6750 H   0  0  0  0  0  0
  -29.5447  -13.4233   17.5714 H   0  0  0  0  0  0
  -28.0532  -11.2669   19.1082 H   0  0  0  0  0  0
  -27.4272  -12.2643   17.8387 H   0  0  0  0  0  0
  -27.4563  -14.2084   19.1849 H   0  0  0  0  0  0
  -28.8341  -12.6991   21.4726 H   0  0  0  0  0  0
  -28.2786  -14.3666   21.5402 H   0  0  0  0  0  0
  -25.2796   -9.5679   22.4680 H   0  0  0  0  0  0
  -24.0007   -7.4610   22.7432 H   0  0  0  0  0  0
  -21.0796   -8.8715   19.8952 H   0  0  0  0  0  0
  -22.3668  -10.9587   19.6034 H   0  0  0  0  0  0
  -21.2021   -7.6141   23.9758 H   0  0  0  0  0  0
  -21.1467   -6.0503   25.9118 H   0  0  0  0  0  0
  -22.0585   -2.7587   23.2872 H   0  0  0  0  0  0
  -22.3899  -11.9638   22.4941 H   0  0  0  0  0  0
  -21.0986  -13.1060   22.2866 H   0  0  0  0  0  0
  -24.6224  -15.8348   20.5408 H   0  0  0  0  0  0
  -26.2227  -15.6275   20.0666 H   0  0  0  0  0  0
  -26.7516  -32.5074   23.0842 H   0  0  0  0  0  0
  -25.0339  -33.9409   25.0265 H   0  0  0  0  0  0
  -22.8180  -31.2567   21.3330 H   0  0  0  0  0  0
  -23.3741  -35.9513   23.3268 H   0  0  0  0  0  0
  -24.3559  -36.8847   22.2052 H   0  0  0  0  0  0
  -23.7248  -37.6386   23.6694 H   0  0  0  0  0  0
  -26.2499  -31.3253   20.6111 H   0  0  0  0  0  0
  -26.9351  -30.6655   22.0479 H   0  0  0  0  0  0
  -28.1550  -28.5187   21.3076 H   0  0  0  0  0  0
  -25.8757  -25.6792   19.0173 H   0  0  0  0  0  0
  -24.0310  -27.2277   18.9524 H   0  0  0  0  0  0
  -23.9539  -30.5107   19.3982 H   0  0  0  0  0  0
  -22.8571  -29.2206   19.7845 H   0  0  0  0  0  0
  -25.1316  -36.1674   25.0782 H   0  0  0  0  0  0
  -21.0081  -28.3457   24.1303 H   0  0  0  0  0  0
  -20.5763  -26.2457   23.3672 H   0  0  0  0  0  0
  -21.6690  -26.7515   22.1182 H   0  0  0  0  0  0
  -19.6964  -25.6316   21.1333 H   0  0  0  0  0  0
  -19.6733  -27.3188   20.6718 H   0  0  0  0  0  0
  -17.4244  -26.6760   21.4026 H   0  0  0  0  0  0
  -18.0328  -26.0180   22.9054 H   0  0  0  0  0  0
  -19.7981  -30.7349   24.2259 H   0  0  0  0  0  0
  -17.5067  -31.6315   24.5214 H   0  0  0  0  0  0
  -15.5409  -30.3061   23.7671 H   0  0  0  0  0  0
  -15.8733  -28.0915   22.7065 H   0  0  0  0  0  0
  -24.5850  -30.7246   25.7665 H   0  0  0  0  0  0
  -24.8929  -32.3146   26.4541 H   0  0  0  0  0  0
  -25.7892  -30.9196   27.0227 H   0  0  0  0  0  0
  -26.3178  -29.6547   24.1465 H   0  0  0  0  0  0
  -27.4058  -29.7285   25.5107 H   0  0  0  0  0  0
  -27.9101  -30.4103   23.9838 H   0  0  0  0  0  0
  -27.2623  -33.3649   26.2042 H   0  0  0  0  0  0
  -28.4006  -32.6878   25.0487 H   0  0  0  0  0  0
  -28.0623  -31.8508   26.5577 H   0  0  0  0  0  0
  -28.2567  -38.0057   24.7476 H   0  0  0  0  0  0
  -28.1040  -36.2587   24.6319 H   0  0  0  0  0  0
  -27.2279  -37.1431   25.8884 H   0  0  0  0  0  0
  -20.9679  -29.8803   21.6637 H   0  0  0  0  0  0
  -26.0070  -38.2732   24.1418 H   0  0  0  0  0  0
  -26.5962  -21.6962   19.1479 H   0  0  0  0  0  0
  -31.8438  -19.6309   19.6041 H   0  0  0  0  0  0
  -31.2018  -18.5879   18.3454 H   0  0  0  0  0  0
  -32.2435  -17.9384   19.6202 H   0  0  0  0  0  0
  -25.8526  -17.5382   19.7546 H   0  0  0  0  0  0
  -26.2088  -18.7863   20.9167 H   0  0  0  0  0  0
  -27.3948  -17.5327   20.6386 H   0  0  0  0  0  0
  -27.2937  -17.4005   17.5159 H   0  0  0  0  0  0
  -28.8759  -17.8590   18.0795 H   0  0  0  0  0  0
  -28.0030  -18.8900   16.9774 H   0  0  0  0  0  0
  -27.4412  -24.1812   18.9857 H   0  0  0  0  0  0
  -29.1261  -24.3557   18.8568 H   0  0  0  0  0  0
  -30.5320  -18.5435   21.2970 H   0  0  0  0  0  0
  -26.3472  -19.4909   18.5583 H   0  0  0  0  0  0
  -30.4941  -21.6437   20.5376 H   0  0  0  0  0  0
  -28.7948  -16.6233   20.3417 H   0  0  0  0  0  0
  1 25  1  0  0  0
  1 30  2  0  0  0
  1 82  1  0  0  0
  2  3  1  0  0  0
  2 25  1  0  0  0
  2 83  1  0  0  0
  2 84  1  0  0  0
  3  4  1  0  0  0
  3 85  1  0  0  0
  3 86  1  0  0  0
  4  5  1  0  0  0
  4 87  1  0  0  0
  4 88  1  0  0  0
  5  6  1  0  0  0
  5 26  1  0  0  0
  5 89  1  0  0  0
  6 25  1  0  0  0
  6 90  1  0  0  0
  6 91  1  0  0  0
  7  8  2  0  0  0
  7 26  1  0  0  0
  7 29  1  0  0  0
  8  9  1  0  0  0
  8 22  1  0  0  0
  9 10  1  0  0  0
  9 27  2  0  0  0
 10 11  2  0  0  0
 10 15  1  0  0  0
 11 12  1  0  0  0
 11 92  1  0  0  0
 12 13  2  0  0  0
 12 93  1  0  0  0
 13 14  1  0  0  0
 13 31  1  0  0  0
 14 15  2  0  0  0
 14 94  1  0  0  0
 15 95  1  0  0  0
 16 17  2  0  0  0
 16 21  1  0  0  0
 16 31  1  0  0  0
 17 18  1  0  0  0
 17 96  1  0  0  0
 18 19  2  0  0  0
 18 97  1  0  0  0
 19 20  1  0  0  0
 19 24  1  0  0  0
 20 21  2  0  0  0
 20 98  1  0  0  0
 21 23  1  0  0  0
 22 28  1  0  0  0
 22 32  2  0  0  0
 26 27  1  0  0  0
 28 99  1  0  0  0
 28100  1  0  0  0
 29101  1  0  0  0
 29102  1  0  0  0
 33 34  1  0  0  0
 33 66  1  0  0  0
 33 70  2  0  0  0
 34 36  1  0  0  0
 34 59  1  0  0  0
 34103  1  0  0  0
 35 44  2  0  0  0
 35 45  1  0  0  0
 35 68  1  0  0  0
 36 56  1  0  0  0
 36104  1  0  0  0
 37 39  1  0  0  0
 37 47  1  0  0  0
 37 66  1  0  0  0
 37105  1  0  0  0
 38 43  2  0  0  0
 38 46  1  0  0  0
 38 47  1  0  0  0
 39 64  1  0  0  0
 39 67  2  0  0  0
 40 52  1  0  0  0
 40 53  2  0  0  0
 40 58  1  0  0  0
 41106  1  0  0  0
 41107  1  0  0  0
 41108  1  0  0  0
 41 48  1  0  0  0
 42 43  1  0  0  0
 42 66  1  0  0  0
 42109  1  0  0  0
 42110  1  0  0  0
 43 44  1  0  0  0
 44111  1  0  0  0
 45 46  2  0  0  0
 45112  1  0  0  0
 46113  1  0  0  0
 47114  1  0  0  0
 47115  1  0  0  0
 48 56  1  0  0  0
 48 65  1  0  0  0
 48116  1  0  0  0
 49 50  1  0  0  0
 49 53  1  0  0  0
 49 64  1  0  0  0
 49117  1  0  0  0
 50 51  1  0  0  0
 50118  1  0  0  0
 50119  1  0  0  0
 51 52  1  0  0  0
 51120  1  0  0  0
 51121  1  0  0  0
 52122  1  0  0  0
 52123  1  0  0  0
 53 54  1  0  0  0
 54 55  2  0  0  0
 54124  1  0  0  0
 55 57  1  0  0  0
 55125  1  0  0  0
 56 69  2  0  0  0
 57 58  2  0  0  0
 57126  1  0  0  0
 58127  1  0  0  0
 59 60  1  0  0  0
 59 61  1  0  0  0
 59 62  1  0  0  0
 60128  1  0  0  0
 60129  1  0  0  0
 60130  1  0  0  0
 61131  1  0  0  0
 61132  1  0  0  0
 61133  1  0  0  0
 62134  1  0  0  0
 62135  1  0  0  0
 62136  1  0  0  0
 63 65  1  0  0  0
 63137  1  0  0  0
 63138  1  0  0  0
 63139  1  0  0  0
 64140  1  0  0  0
 65141  1  0  0  0
 68 77  1  0  0  0
 71 72  2  0  0  0
 71 80  1  0  0  0
 71142  1  0  0  0
 72 77  1  0  0  0
 72 81  1  0  0  0
 73 78  1  0  0  0
 73 80  1  0  0  0
 73 81  2  0  0  0
 74143  1  0  0  0
 74144  1  0  0  0
 74145  1  0  0  0
 74 78  1  0  0  0
 75146  1  0  0  0
 75147  1  0  0  0
 75148  1  0  0  0
 75 79  1  0  0  0
 76 79  1  0  0  0
 76149  1  0  0  0
 76150  1  0  0  0
 76151  1  0  0  0
 77152  1  0  0  0
 77153  1  0  0  0
 78 82  1  0  0  0
 78154  1  0  0  0
 79 80  1  0  0  0
 79155  1  0  0  0
 81156  1  0  0  0
 82157  1  0  0  0
M  CHG  1  81   1
M  ISO  4   1 100  68 101  77 101  82 100
M  END
> <chiral flag>
0

> <version>
0

> <s_m_source_file>
/data/baiqing/PycharmProjects/Reinvent-master-3.2/result/LINK_invent/BTK/process_docking_weight1_custom_sum_contain_oxygen_bond_distance_aromatic_linkinvent_7_9_3/rearranged_h_0053.sdf

> <i_m_source_file_index>
77

> <r_mmod_Potential_Energy-OPLS-2005>
1584.62512207031

> <r_mmod_Stretch_Energy-OPLS-2005>
728.683227539062

> <r_mmod_Bend_Energy-OPLS-2005>
572.504821777344

> <r_mmod_Torsional_Energy-OPLS-2005>
255.201629638672

> <r_mmod_Improper_Torsional_Energy-OPLS-2005>
8.51619815826416

> <r_mmod_Van_der_Waal_Energy-OPLS-2005>
105.214004516602

> <r_mmod_Electrostatic_Energy-OPLS-2005>
-258.618713378906

> <r_mmod_Solvation_Energy-OPLS-2005>
-439.544250488281

> <b_mmod_Minimization_Converged-OPLS-2005>
0

> <r_mmod_RMS_Derivative-OPLS-2005>
8.23503303527832

$$$$
80
                    3D
 Structure written by MMmdl.
155163  0  0  1  0            999 V2000
  -30.7092  -14.5598   20.4042 C   0  0  0  0  0  0
  -30.4191  -12.3079   19.4461 C   0  0  0  0  0  0
  -29.4951  -12.3681   18.2125 C   0  0  0  0  0  0
  -28.0090  -12.3076   18.6260 C   0  0  0  0  0  0
  -27.6409  -13.2129   19.8369 C   0  0  2  0  0  0
  -28.6967  -13.1306   20.9603 C   0  0  0  0  0  0
  -25.2541  -13.8179   20.5700 C   0  0  0  0  0  0
  -24.1791  -13.0457   20.9176 C   0  0  0  0  0  0
  -24.6340  -11.6918   20.8697 C   0  0  0  0  0  0
  -23.9008  -10.4303   21.0369 C   0  0  0  0  0  0
  -24.3582   -9.4235   21.9144 C   0  0  0  0  0  0
  -23.6280   -8.2253   22.0727 C   0  0  0  0  0  0
  -22.4255   -8.0280   21.3524 C   0  0  0  0  0  0
  -21.9874   -9.0247   20.4631 C   0  0  0  0  0  0
  -22.7181  -10.2128   20.3035 C   0  0  0  0  0  0
  -21.6876   -6.0717   22.5269 C   0  0  0  0  0  0
  -21.4034   -6.5626   23.8199 C   0  0  0  0  0  0
  -21.3653   -5.6771   24.9154 C   0  0  0  0  0  0
  -21.6049   -4.3036   24.7207 C   0  0  0  0  0  0
  -21.8839   -3.8131   23.4328 C   0  0  0  0  0  0
  -21.9206   -4.6950   22.3391 C   0  0  0  0  0  0
  -22.7818  -13.5252   21.1864 C   0  0  0  0  0  0
  -22.1677   -4.2142   21.0962 F   0  0  0  0  0  0
  -21.5604   -3.4522   25.7711 F   0  0  0  0  0  0
  -30.0130  -13.3858   20.3609 N   0  0  0  0  0  0
  -26.2933  -12.9343   20.3267 N   0  0  0  0  0  0
  -25.9260  -11.6504   20.5733 N   0  0  0  0  0  0
  -22.0470  -12.8221   22.0407 N   0  0  0  0  0  0
  -25.4322  -15.1896   20.4207 N   0  0  0  0  0  0
  -31.9289  -14.6024   20.2285 O   0  0  0  0  0  0
  -21.6650   -6.8854   21.4215 O   0  0  0  0  0  0
  -22.3495  -14.5559   20.6729 O   0  0  0  0  0  0
  -24.6179  -31.8639   23.2135 C   0  0  0  0  0  0
  -25.9086  -32.4776   23.8404 C   0  0  1  0  0  0
  -27.2257  -27.3978   20.1178 C   0  0  0  0  0  0
  -25.5970  -33.8584   24.2337 N   0  0  0  0  0  0
  -23.4047  -30.4912   21.5509 C   0  0  2  0  0  0
  -24.8490  -28.9536   20.1143 C   0  0  0  0  0  0
  -22.7414  -29.4647   22.4969 C   0  0  0  0  0  0
  -18.0266  -28.1416   22.8447 C   0  0  0  0  0  0
  -24.1499  -36.7309   23.2632 C   0  0  0  0  0  0
  -25.9382  -30.8145   21.3760 C   0  0  0  0  0  0
  -26.0116  -29.4489   20.7230 C   0  0  0  0  0  0
  -27.1985  -28.6779   20.7223 C   0  0  0  0  0  0
  -26.0474  -26.9299   19.4905 C   0  0  0  0  0  0
  -24.8669  -27.6942   19.4925 C   0  0  0  0  0  0
  -23.6190  -29.8330   20.1615 C   0  0  0  0  0  0
  -25.4112  -36.3073   24.0321 C   0  0  1  0  0  0
  -20.5855  -28.3700   23.1307 C   0  0  2  0  0  0
  -20.6806  -26.9445   22.5406 C   0  0  0  0  0  0
  -19.5791  -26.6411   21.5207 C   0  0  0  0  0  0
  -18.1949  -26.7955   22.1582 C   0  0  0  0  0  0
  -19.1518  -28.8874   23.2862 C   0  0  0  0  0  0
  -18.9445  -30.1488   23.8863 C   0  0  0  0  0  0
  -17.6452  -30.6607   24.0574 C   0  0  0  0  0  0
  -25.9049  -34.9442   23.5097 C   0  0  0  0  0  0
  -16.5338  -29.9100   23.6360 C   0  0  0  0  0  0
  -16.7263  -28.6542   23.0321 C   0  0  0  0  0  0
  -26.4550  -31.6549   25.0720 C   0  0  0  0  0  0
  -25.3892  -31.3607   26.1515 C   0  0  0  0  0  0
  -27.0391  -30.2986   24.6109 C   0  0  0  0  0  0
  -27.6100  -32.4290   25.7489 C   0  0  0  0  0  0
  -27.5566  -37.1812   24.8463 C   0  0  0  0  0  0
  -21.4138  -29.3033   22.3696 N   0  0  0  0  0  0
  -26.4286  -37.3761   23.9399 N   0  0  0  0  0  0
  -24.6714  -31.0726   22.1049 N   0  0  0  0  0  0
  -23.4158  -28.8202   23.3045 O   0  0  0  0  0  0
  -28.3798  -26.6314   20.1504 O   0  0  0  0  0  0
  -26.5558  -34.8886   22.4635 O   0  0  0  0  0  0
  -23.5372  -32.1419   23.7528 O   0  0  0  0  0  0
  -30.2796  -21.9315   20.6012 C   0  0  0  0  0  0
  -29.4218  -22.9557   20.9250 C   0  0  0  0  0  0
  -29.4814  -16.0503   18.9829 C   0  0  0  0  0  0
  -29.5433  -24.4542   20.6475 C   0  0  0  0  0  0
  -29.7485  -18.3007   20.7391 C   0  0  0  0  0  0
  -30.4122  -19.4981   21.4691 C   0  0  0  0  0  0
  -30.5274  -16.9550   20.9719 C   0  0  0  0  0  0
  -28.2047  -25.2211   20.4432 C   0  0  0  0  0  0
  -28.4434  -22.4162   21.7656 N   0  0  0  0  0  0
  -28.6573  -21.1435   21.9432 N   0  0  0  0  0  0
  -29.7909  -20.8198   21.2751 N   0  0  0  0  0  0
  -29.9889  -15.7223   20.3247 N   0  0  0  0  0  0
  -31.4622  -12.3844   19.1351 H   0  0  0  0  0  0
  -30.3227  -11.3445   19.9491 H   0  0  0  0  0  0
  -29.7111  -11.5159   17.5646 H   0  0  0  0  0  0
  -29.7036  -13.2461   17.6038 H   0  0  0  0  0  0
  -27.8001  -11.2657   18.8718 H   0  0  0  0  0  0
  -27.3703  -12.5381   17.7730 H   0  0  0  0  0  0
  -27.6259  -14.2356   19.4700 H   0  0  0  0  0  0
  -28.6805  -12.1497   21.4384 H   0  0  0  0  0  0
  -28.4704  -13.8609   21.7379 H   0  0  0  0  0  0
  -25.2720   -9.5752   22.4707 H   0  0  0  0  0  0
  -24.0025   -7.4663   22.7455 H   0  0  0  0  0  0
  -21.0803   -8.8756   19.8945 H   0  0  0  0  0  0
  -22.3622  -10.9660   19.6157 H   0  0  0  0  0  0
  -21.2038   -7.6140   23.9720 H   0  0  0  0  0  0
  -21.1438   -6.0472   25.9060 H   0  0  0  0  0  0
  -22.0617   -2.7599   23.2817 H   0  0  0  0  0  0
  -22.4090  -11.9895   22.4806 H   0  0  0  0  0  0
  -21.1110  -13.1276   22.2652 H   0  0  0  0  0  0
  -24.6847  -15.8600   20.5646 H   0  0  0  0  0  0
  -26.3071  -15.6249   20.1530 H   0  0  0  0  0  0
  -26.7141  -32.5466   23.1142 H   0  0  0  0  0  0
  -25.0281  -33.9772   25.0585 H   0  0  0  0  0  0
  -22.6942  -31.3086   21.4171 H   0  0  0  0  0  0
  -23.3716  -35.9688   23.3314 H   0  0  0  0  0  0
  -24.3600  -36.8905   22.2047 H   0  0  0  0  0  0
  -23.7310  -37.6540   23.6645 H   0  0  0  0  0  0
  -26.0669  -31.5769   20.6075 H   0  0  0  0  0  0
  -26.8227  -30.8592   21.9996 H   0  0  0  0  0  0
  -28.0872  -29.0465   21.2150 H   0  0  0  0  0  0
  -26.0237  -25.9757   18.9864 H   0  0  0  0  0  0
  -23.9787  -27.3103   19.0062 H   0  0  0  0  0  0
  -23.7519  -30.6185   19.4171 H   0  0  0  0  0  0
  -22.7370  -29.2741   19.8435 H   0  0  0  0  0  0
  -25.1289  -36.1918   25.0808 H   0  0  0  0  0  0
  -20.9920  -28.3317   24.1444 H   0  0  0  0  0  0
  -20.5814  -26.2301   23.3587 H   0  0  0  0  0  0
  -21.6675  -26.7591   22.1148 H   0  0  0  0  0  0
  -19.6993  -25.6328   21.1245 H   0  0  0  0  0  0
  -19.6769  -27.3220   20.6744 H   0  0  0  0  0  0
  -17.4244  -26.6676   21.3967 H   0  0  0  0  0  0
  -18.0353  -26.0120   22.8999 H   0  0  0  0  0  0
  -19.7929  -30.7313   24.2195 H   0  0  0  0  0  0
  -17.5014  -31.6275   24.5201 H   0  0  0  0  0  0
  -15.5343  -30.2984   23.7753 H   0  0  0  0  0  0
  -15.8641  -28.0887   22.7011 H   0  0  0  0  0  0
  -24.6072  -30.6920   25.7907 H   0  0  0  0  0  0
  -24.9113  -32.2744   26.5055 H   0  0  0  0  0  0
  -25.8372  -30.8760   27.0205 H   0  0  0  0  0  0
  -26.2907  -29.6667   24.1317 H   0  0  0  0  0  0
  -27.4315  -29.7284   25.4542 H   0  0  0  0  0  0
  -27.8688  -30.4256   23.9148 H   0  0  0  0  0  0
  -27.2675  -33.3558   26.2096 H   0  0  0  0  0  0
  -28.3914  -32.6895   25.0342 H   0  0  0  0  0  0
  -28.0775  -31.8416   26.5402 H   0  0  0  0  0  0
  -28.2577  -38.0109   24.7459 H   0  0  0  0  0  0
  -28.1056  -36.2627   24.6334 H   0  0  0  0  0  0
  -27.2281  -37.1522   25.8867 H   0  0  0  0  0  0
  -20.9329  -29.8682   21.6830 H   0  0  0  0  0  0
  -26.0146  -38.2818   24.1418 H   0  0  0  0  0  0
  -31.2066  -21.9100   20.0385 H   0  0  0  0  0  0
  -28.5443  -16.6042   19.0372 H   0  0  0  0  0  0
  -30.2157  -16.6525   18.4426 H   0  0  0  0  0  0
  -29.2994  -15.1778   18.3626 H   0  0  0  0  0  0
  -30.1664  -24.6006   19.7633 H   0  0  0  0  0  0
  -30.0846  -24.9259   21.4675 H   0  0  0  0  0  0
  -29.7196  -18.5555   19.6785 H   0  0  0  0  0  0
  -28.7091  -18.1915   21.0552 H   0  0  0  0  0  0
  -31.4536  -19.5671   21.1539 H   0  0  0  0  0  0
  -30.4384  -19.2913   22.5430 H   0  0  0  0  0  0
  -30.6083  -16.7700   22.0436 H   0  0  0  0  0  0
  -31.5504  -17.1083   20.6172 H   0  0  0  0  0  0
  -27.6261  -25.1365   21.3666 H   0  0  0  0  0  0
  -27.6310  -24.7232   19.6639 H   0  0  0  0  0  0
  1 25  1  0  0  0
  1 30  2  0  0  0
  1 82  1  0  0  0
  2  3  1  0  0  0
  2 25  1  0  0  0
  2 83  1  0  0  0
  2 84  1  0  0  0
  3  4  1  0  0  0
  3 85  1  0  0  0
  3 86  1  0  0  0
  4  5  1  0  0  0
  4 87  1  0  0  0
  4 88  1  0  0  0
  5  6  1  0  0  0
  5 26  1  0  0  0
  5 89  1  0  0  0
  6 25  1  0  0  0
  6 90  1  0  0  0
  6 91  1  0  0  0
  7  8  2  0  0  0
  7 26  1  0  0  0
  7 29  1  0  0  0
  8  9  1  0  0  0
  8 22  1  0  0  0
  9 10  1  0  0  0
  9 27  2  0  0  0
 10 11  2  0  0  0
 10 15  1  0  0  0
 11 12  1  0  0  0
 11 92  1  0  0  0
 12 13  2  0  0  0
 12 93  1  0  0  0
 13 14  1  0  0  0
 13 31  1  0  0  0
 14 15  2  0  0  0
 14 94  1  0  0  0
 15 95  1  0  0  0
 16 17  2  0  0  0
 16 21  1  0  0  0
 16 31  1  0  0  0
 17 18  1  0  0  0
 17 96  1  0  0  0
 18 19  2  0  0  0
 18 97  1  0  0  0
 19 20  1  0  0  0
 19 24  1  0  0  0
 20 21  2  0  0  0
 20 98  1  0  0  0
 21 23  1  0  0  0
 22 28  1  0  0  0
 22 32  2  0  0  0
 26 27  1  0  0  0
 28 99  1  0  0  0
 28100  1  0  0  0
 29101  1  0  0  0
 29102  1  0  0  0
 33 34  1  0  0  0
 33 66  1  0  0  0
 33 70  2  0  0  0
 34 36  1  0  0  0
 34 59  1  0  0  0
 34103  1  0  0  0
 35 44  2  0  0  0
 35 45  1  0  0  0
 35 68  1  0  0  0
 36 56  1  0  0  0
 36104  1  0  0  0
 37 39  1  0  0  0
 37 47  1  0  0  0
 37 66  1  0  0  0
 37105  1  0  0  0
 38 43  2  0  0  0
 38 46  1  0  0  0
 38 47  1  0  0  0
 39 64  1  0  0  0
 39 67  2  0  0  0
 40 52  1  0  0  0
 40 53  2  0  0  0
 40 58  1  0  0  0
 41106  1  0  0  0
 41107  1  0  0  0
 41108  1  0  0  0
 41 48  1  0  0  0
 42 43  1  0  0  0
 42 66  1  0  0  0
 42109  1  0  0  0
 42110  1  0  0  0
 43 44  1  0  0  0
 44111  1  0  0  0
 45 46  2  0  0  0
 45112  1  0  0  0
 46113  1  0  0  0
 47114  1  0  0  0
 47115  1  0  0  0
 48 56  1  0  0  0
 48 65  1  0  0  0
 48116  1  0  0  0
 49 50  1  0  0  0
 49 53  1  0  0  0
 49 64  1  0  0  0
 49117  1  0  0  0
 50 51  1  0  0  0
 50118  1  0  0  0
 50119  1  0  0  0
 51 52  1  0  0  0
 51120  1  0  0  0
 51121  1  0  0  0
 52122  1  0  0  0
 52123  1  0  0  0
 53 54  1  0  0  0
 54 55  2  0  0  0
 54124  1  0  0  0
 55 57  1  0  0  0
 55125  1  0  0  0
 56 69  2  0  0  0
 57 58  2  0  0  0
 57126  1  0  0  0
 58127  1  0  0  0
 59 60  1  0  0  0
 59 61  1  0  0  0
 59 62  1  0  0  0
 60128  1  0  0  0
 60129  1  0  0  0
 60130  1  0  0  0
 61131  1  0  0  0
 61132  1  0  0  0
 61133  1  0  0  0
 62134  1  0  0  0
 62135  1  0  0  0
 62136  1  0  0  0
 63 65  1  0  0  0
 63137  1  0  0  0
 63138  1  0  0  0
 63139  1  0  0  0
 64140  1  0  0  0
 65141  1  0  0  0
 68 78  1  0  0  0
 71 72  2  0  0  0
 71 81  1  0  0  0
 71142  1  0  0  0
 72 74  1  0  0  0
 72 79  1  0  0  0
 73 82  1  0  0  0
 73143  1  0  0  0
 73144  1  0  0  0
 73145  1  0  0  0
 74 78  1  0  0  0
 74146  1  0  0  0
 74147  1  0  0  0
 75 76  1  0  0  0
 75 77  1  0  0  0
 75148  1  0  0  0
 75149  1  0  0  0
 76 81  1  0  0  0
 76150  1  0  0  0
 76151  1  0  0  0
 77 82  1  0  0  0
 77152  1  0  0  0
 77153  1  0  0  0
 78154  1  0  0  0
 78155  1  0  0  0
 79 80  2  0  0  0
 80 81  1  0  0  0
M  ISO  4   1 100  68 101  78 101  82 100
M  END
> <chiral flag>
0

> <version>
0

> <s_m_source_file>
/data/baiqing/PycharmProjects/Reinvent-master-3.2/result/LINK_invent/BTK/process_docking_weight1_custom_sum_contain_oxygen_bond_distance_aromatic_linkinvent_7_9_3/rearranged_h_0053.sdf

> <i_m_source_file_index>
78

> <r_mmod_Potential_Energy-OPLS-2005>
151.438522338867

> <r_mmod_Stretch_Energy-OPLS-2005>
45.9129371643066

> <r_mmod_Bend_Energy-OPLS-2005>
110.358299255371

> <r_mmod_Torsional_Energy-OPLS-2005>
313.186889648438

> <r_mmod_Improper_Torsional_Energy-OPLS-2005>
13.1100025177002

> <r_mmod_Van_der_Waal_Energy-OPLS-2005>
134.172180175781

> <r_mmod_Electrostatic_Energy-OPLS-2005>
-290.931243896484

> <r_mmod_Solvation_Energy-OPLS-2005>
-215.311004638672

> <b_mmod_Minimization_Converged-OPLS-2005>
0

> <r_mmod_RMS_Derivative-OPLS-2005>
4.46276903152466

$$$$
81
                    3D
 Structure written by MMmdl.
169177  0  0  1  0            999 V2000
  -30.5776  -14.9728   20.3809 C   0  0  0  0  0  0
  -30.4423  -12.6043   19.4782 C   0  0  0  0  0  0
  -29.5115  -12.4753   18.2502 C   0  0  0  0  0  0
  -28.0556  -12.2269   18.6895 C   0  0  0  0  0  0
  -27.6181  -13.1780   19.8259 C   0  0  2  0  0  0
  -28.6806  -13.2876   20.9511 C   0  0  0  0  0  0
  -25.2432  -13.7967   20.5811 C   0  0  0  0  0  0
  -24.1710  -13.0274   20.9305 C   0  0  0  0  0  0
  -24.6284  -11.6764   20.8837 C   0  0  0  0  0  0
  -23.8972  -10.4190   21.0460 C   0  0  0  0  0  0
  -24.3542   -9.4106   21.9220 C   0  0  0  0  0  0
  -23.6223   -8.2148   22.0755 C   0  0  0  0  0  0
  -22.4221   -8.0214   21.3526 C   0  0  0  0  0  0
  -21.9855   -9.0182   20.4628 C   0  0  0  0  0  0
  -22.7174  -10.2059   20.3069 C   0  0  0  0  0  0
  -21.6813   -6.0710   22.5280 C   0  0  0  0  0  0
  -21.3978   -6.5629   23.8210 C   0  0  0  0  0  0
  -21.3649   -5.6786   24.9174 C   0  0  0  0  0  0
  -21.6042   -4.3048   24.7236 C   0  0  0  0  0  0
  -21.8821   -3.8134   23.4360 C   0  0  0  0  0  0
  -21.9182   -4.6943   22.3410 C   0  0  0  0  0  0
  -22.7760  -13.5135   21.1916 C   0  0  0  0  0  0
  -22.1672   -4.2133   21.0988 F   0  0  0  0  0  0
  -21.5625   -3.4543   25.7761 F   0  0  0  0  0  0
  -29.9364  -13.7270   20.3205 N   0  0  0  0  0  0
  -26.2805  -12.9081   20.3280 N   0  0  0  0  0  0
  -25.9188  -11.6296   20.5820 N   0  0  0  0  0  0
  -22.0387  -12.8166   22.0486 N   0  0  0  0  0  0
  -25.3963  -15.1695   20.4342 N   0  0  0  0  0  0
  -31.8026  -14.9585   20.2215 O   0  0  0  0  0  0
  -21.6578   -6.8828   21.4226 O   0  0  0  0  0  0
  -22.3495  -14.5452   20.6738 O   0  0  0  0  0  0
  -24.6411  -31.8477   23.1936 C   0  0  0  0  0  0
  -25.9201  -32.4712   23.8306 C   0  0  1  0  0  0
  -27.2180  -27.1708   20.1368 C   0  0  0  0  0  0
  -25.5961  -33.8518   24.2227 N   0  0  0  0  0  0
  -23.4434  -30.4711   21.5378 C   0  0  2  0  0  0
  -24.8939  -28.9132   20.1048 C   0  0  0  0  0  0
  -22.7563  -29.4564   22.4859 C   0  0  0  0  0  0
  -18.0310  -28.1391   22.8474 C   0  0  0  0  0  0
  -24.1488  -36.7252   23.2638 C   0  0  0  0  0  0
  -25.9987  -30.7292   21.3930 C   0  0  0  0  0  0
  -26.0688  -29.3457   20.7327 C   0  0  0  0  0  0
  -27.2286  -28.4866   20.7434 C   0  0  0  0  0  0
  -26.0247  -26.8562   19.4397 C   0  0  0  0  0  0
  -24.8833  -27.6797   19.4443 C   0  0  0  0  0  0
  -23.6692  -29.8100   20.1535 C   0  0  0  0  0  0
  -25.4119  -36.3037   24.0320 C   0  0  1  0  0  0
  -20.5921  -28.3713   23.1236 C   0  0  2  0  0  0
  -20.6790  -26.9415   22.5403 C   0  0  0  0  0  0
  -19.5761  -26.6381   21.5208 C   0  0  0  0  0  0
  -18.1947  -26.7927   22.1625 C   0  0  0  0  0  0
  -19.1566  -28.8873   23.2846 C   0  0  0  0  0  0
  -18.9483  -30.1468   23.8874 C   0  0  0  0  0  0
  -17.6477  -30.6581   24.0566 C   0  0  0  0  0  0
  -25.9073  -34.9410   23.5078 C   0  0  0  0  0  0
  -16.5369  -29.9076   23.6333 C   0  0  0  0  0  0
  -16.7295  -28.6500   23.0346 C   0  0  0  0  0  0
  -26.4532  -31.6558   25.0731 C   0  0  0  0  0  0
  -25.3735  -31.3737   26.1440 C   0  0  0  0  0  0
  -27.0383  -30.2951   24.6288 C   0  0  0  0  0  0
  -27.6074  -32.4308   25.7509 C   0  0  0  0  0  0
  -27.5575  -37.1785   24.8467 C   0  0  0  0  0  0
  -21.4257  -29.3041   22.3605 N   0  0  0  0  0  0
  -26.4284  -37.3753   23.9417 N   0  0  0  0  0  0
  -24.7138  -31.0366   22.0963 N   0  0  0  0  0  0
  -23.4224  -28.8103   23.2990 O   0  0  0  0  0  0
  -28.2537  -26.1746   20.2446 O   0  0  0  0  0  0
  -26.5647  -34.8903   22.4650 O   0  0  0  0  0  0
  -23.5538  -32.1344   23.7169 O   0  0  0  0  0  0
  -28.0730  -21.0283   20.9915 C   0  0  0  0  0  0
  -29.3698  -20.4714   20.6872 C   0  0  0  0  0  0
  -29.8864  -22.7322   19.9619 C   0  0  0  0  0  0
  -28.6050  -23.2918   20.3120 C   0  0  0  0  0  0
  -25.8472  -19.9242   20.4650 C   0  0  0  0  0  0
  -31.9758  -24.1493   20.2075 C   0  0  0  0  0  0
  -26.9409  -16.4803   17.8664 C   0  0  0  0  0  0
  -26.9132  -20.1966   21.5347 C   0  0  0  0  0  0
  -30.9236  -23.5809   19.2496 C   0  0  0  0  0  0
  -29.8709  -18.9821   21.1753 C   0  0  0  0  0  0
  -27.9329  -24.7186   19.8505 C   0  0  0  0  0  0
  -28.3733  -16.3632   18.4032 C   0  0  0  0  0  0
  -30.4645  -17.6968   20.3026 C   0  0  0  0  0  0
  -28.4960  -16.4046   19.9507 C   0  0  0  0  0  0
  -30.2618  -21.4006   20.1887 N   0  0  0  0  0  0
  -27.7334  -22.3613   20.8209 N   0  0  0  0  0  0
  -29.8867  -16.2401   20.3957 N   0  0  0  0  0  0
  -31.4643  -12.7755   19.1382 H   0  0  0  0  0  0
  -30.4718  -11.6748   20.0491 H   0  0  0  0  0  0
  -29.8461  -11.6570   17.6113 H   0  0  0  0  0  0
  -29.5729  -13.3753   17.6393 H   0  0  0  0  0  0
  -27.9853  -11.1943   19.0336 H   0  0  0  0  0  0
  -27.3802  -12.3096   17.8372 H   0  0  0  0  0  0
  -27.5299  -14.1082   19.2943 H   0  0  0  0  0  0
  -28.8103  -12.3313   21.4598 H   0  0  0  0  0  0
  -28.3744  -13.9926   21.7236 H   0  0  0  0  0  0
  -25.2681   -9.5575   22.4806 H   0  0  0  0  0  0
  -23.9901   -7.4534   22.7470 H   0  0  0  0  0  0
  -21.0792   -8.8703   19.8929 H   0  0  0  0  0  0
  -22.3646  -10.9607   19.6189 H   0  0  0  0  0  0
  -21.1955   -7.6134   23.9712 H   0  0  0  0  0  0
  -21.1476   -6.0517   25.9080 H   0  0  0  0  0  0
  -22.0614   -2.7607   23.2861 H   0  0  0  0  0  0
  -22.3984  -11.9823   22.4883 H   0  0  0  0  0  0
  -21.1000  -13.1189   22.2653 H   0  0  0  0  0  0
  -24.6122  -15.8032   20.5400 H   0  0  0  0  0  0
  -26.2158  -15.6150   20.0456 H   0  0  0  0  0  0
  -26.7267  -32.5327   23.1037 H   0  0  0  0  0  0
  -25.0094  -33.9633   25.0364 H   0  0  0  0  0  0
  -22.7442  -31.2965   21.3890 H   0  0  0  0  0  0
  -23.3750  -35.9582   23.3298 H   0  0  0  0  0  0
  -24.3573  -36.8883   22.2053 H   0  0  0  0  0  0
  -23.7240  -37.6452   23.6668 H   0  0  0  0  0  0
  -26.1556  -31.4853   20.6233 H   0  0  0  0  0  0
  -26.8700  -30.7756   22.0350 H   0  0  0  0  0  0
  -28.1156  -28.8045   21.2726 H   0  0  0  0  0  0
  -25.9196  -25.9329   18.8908 H   0  0  0  0  0  0
  -23.9925  -27.3511   18.9268 H   0  0  0  0  0  0
  -23.8057  -30.5896   19.4032 H   0  0  0  0  0  0
  -22.7843  -29.2534   19.8382 H   0  0  0  0  0  0
  -25.1299  -36.1873   25.0810 H   0  0  0  0  0  0
  -21.0018  -28.3303   24.1353 H   0  0  0  0  0  0
  -20.5677  -26.2324   23.3620 H   0  0  0  0  0  0
  -21.6656  -26.7413   22.1207 H   0  0  0  0  0  0
  -19.6920  -25.6294   21.1234 H   0  0  0  0  0  0
  -19.6688  -27.3193   20.6739 H   0  0  0  0  0  0
  -17.4209  -26.6668   21.4035 H   0  0  0  0  0  0
  -18.0347  -26.0077   22.9029 H   0  0  0  0  0  0
  -19.7957  -30.7292   24.2227 H   0  0  0  0  0  0
  -17.5028  -31.6252   24.5179 H   0  0  0  0  0  0
  -15.5367  -30.2970   23.7666 H   0  0  0  0  0  0
  -15.8697  -28.0814   22.7063 H   0  0  0  0  0  0
  -24.5922  -30.7064   25.7781 H   0  0  0  0  0  0
  -24.8913  -32.2910   26.4823 H   0  0  0  0  0  0
  -25.8046  -30.8953   27.0245 H   0  0  0  0  0  0
  -26.2988  -29.6683   24.1290 H   0  0  0  0  0  0
  -27.3993  -29.7237   25.4853 H   0  0  0  0  0  0
  -27.8904  -30.4180   23.9602 H   0  0  0  0  0  0
  -27.2678  -33.3627   26.2038 H   0  0  0  0  0  0
  -28.3912  -32.6831   25.0356 H   0  0  0  0  0  0
  -28.0703  -31.8459   26.5467 H   0  0  0  0  0  0
  -28.2587  -38.0088   24.7514 H   0  0  0  0  0  0
  -28.1074  -36.2617   24.6284 H   0  0  0  0  0  0
  -27.2292  -37.1427   25.8870 H   0  0  0  0  0  0
  -20.9467  -29.8761   21.6791 H   0  0  0  0  0  0
  -26.0144  -38.2818   24.1433 H   0  0  0  0  0  0
  -25.0259  -19.3334   20.8727 H   0  0  0  0  0  0
  -26.2673  -19.3749   19.6216 H   0  0  0  0  0  0
  -25.4261  -20.8547   20.0828 H   0  0  0  0  0  0
  -32.7180  -24.7340   19.6634 H   0  0  0  0  0  0
  -32.4995  -23.3506   20.7340 H   0  0  0  0  0  0
  -31.5173  -24.8019   20.9506 H   0  0  0  0  0  0
  -26.3731  -15.5616   18.0016 H   0  0  0  0  0  0
  -26.9510  -16.6856   16.7958 H   0  0  0  0  0  0
  -26.3958  -17.2900   18.3514 H   0  0  0  0  0  0
  -26.4586  -20.7387   22.3661 H   0  0  0  0  0  0
  -27.2314  -19.2504   21.9592 H   0  0  0  0  0  0
  -30.4329  -24.3952   18.7154 H   0  0  0  0  0  0
  -31.4117  -22.9734   18.4861 H   0  0  0  0  0  0
  -29.1610  -18.5736   21.8865 H   0  0  0  0  0  0
  -30.6909  -19.2416   21.8445 H   0  0  0  0  0  0
  -26.9010  -24.5633   20.1637 H   0  0  0  0  0  0
  -27.9123  -24.6920   18.7604 H   0  0  0  0  0  0
  -28.9369  -17.1932   17.9788 H   0  0  0  0  0  0
  -28.8374  -15.4688   17.9910 H   0  0  0  0  0  0
  -31.5153  -17.6062   20.5810 H   0  0  0  0  0  0
  -30.5185  -17.9942   19.2562 H   0  0  0  0  0  0
  -27.8662  -15.7189   20.4904 H   0  0  0  0  0  0
  -28.0854  -17.3595   20.2754 H   0  0  0  0  0  0
  1 25  1  0  0  0
  1 30  2  0  0  0
  1 87  1  0  0  0
  2  3  1  0  0  0
  2 25  1  0  0  0
  2 88  1  0  0  0
  2 89  1  0  0  0
  3  4  1  0  0  0
  3 90  1  0  0  0
  3 91  1  0  0  0
  4  5  1  0  0  0
  4 92  1  0  0  0
  4 93  1  0  0  0
  5  6  1  0  0  0
  5 26  1  0  0  0
  5 94  1  0  0  0
  6 25  1  0  0  0
  6 95  1  0  0  0
  6 96  1  0  0  0
  7  8  2  0  0  0
  7 26  1  0  0  0
  7 29  1  0  0  0
  8  9  1  0  0  0
  8 22  1  0  0  0
  9 10  1  0  0  0
  9 27  2  0  0  0
 10 11  2  0  0  0
 10 15  1  0  0  0
 11 12  1  0  0  0
 11 97  1  0  0  0
 12 13  2  0  0  0
 12 98  1  0  0  0
 13 14  1  0  0  0
 13 31  1  0  0  0
 14 15  2  0  0  0
 14 99  1  0  0  0
 15100  1  0  0  0
 16 17  2  0  0  0
 16 21  1  0  0  0
 16 31  1  0  0  0
 17 18  1  0  0  0
 17101  1  0  0  0
 18 19  2  0  0  0
 18102  1  0  0  0
 19 20  1  0  0  0
 19 24  1  0  0  0
 20 21  2  0  0  0
 20103  1  0  0  0
 21 23  1  0  0  0
 22 28  1  0  0  0
 22 32  2  0  0  0
 26 27  1  0  0  0
 28104  1  0  0  0
 28105  1  0  0  0
 29106  1  0  0  0
 29107  1  0  0  0
 33 34  1  0  0  0
 33 66  1  0  0  0
 33 70  2  0  0  0
 34 36  1  0  0  0
 34 59  1  0  0  0
 34108  1  0  0  0
 35 44  2  0  0  0
 35 45  1  0  0  0
 35 68  1  0  0  0
 36 56  1  0  0  0
 36109  1  0  0  0
 37 39  1  0  0  0
 37 47  1  0  0  0
 37 66  1  0  0  0
 37110  1  0  0  0
 38 43  2  0  0  0
 38 46  1  0  0  0
 38 47  1  0  0  0
 39 64  1  0  0  0
 39 67  2  0  0  0
 40 52  1  0  0  0
 40 53  2  0  0  0
 40 58  1  0  0  0
 41111  1  0  0  0
 41112  1  0  0  0
 41113  1  0  0  0
 41 48  1  0  0  0
 42 43  1  0  0  0
 42 66  1  0  0  0
 42114  1  0  0  0
 42115  1  0  0  0
 43 44  1  0  0  0
 44116  1  0  0  0
 45 46  2  0  0  0
 45117  1  0  0  0
 46118  1  0  0  0
 47119  1  0  0  0
 47120  1  0  0  0
 48 56  1  0  0  0
 48 65  1  0  0  0
 48121  1  0  0  0
 49 50  1  0  0  0
 49 53  1  0  0  0
 49 64  1  0  0  0
 49122  1  0  0  0
 50 51  1  0  0  0
 50123  1  0  0  0
 50124  1  0  0  0
 51 52  1  0  0  0
 51125  1  0  0  0
 51126  1  0  0  0
 52127  1  0  0  0
 52128  1  0  0  0
 53 54  1  0  0  0
 54 55  2  0  0  0
 54129  1  0  0  0
 55 57  1  0  0  0
 55130  1  0  0  0
 56 69  2  0  0  0
 57 58  2  0  0  0
 57131  1  0  0  0
 58132  1  0  0  0
 59 60  1  0  0  0
 59 61  1  0  0  0
 59 62  1  0  0  0
 60133  1  0  0  0
 60134  1  0  0  0
 60135  1  0  0  0
 61136  1  0  0  0
 61137  1  0  0  0
 61138  1  0  0  0
 62139  1  0  0  0
 62140  1  0  0  0
 62141  1  0  0  0
 63 65  1  0  0  0
 63142  1  0  0  0
 63143  1  0  0  0
 63144  1  0  0  0
 64145  1  0  0  0
 65146  1  0  0  0
 68 81  1  0  0  0
 71 72  2  0  0  0
 71 78  1  0  0  0
 71 86  1  0  0  0
 72 80  1  0  0  0
 72 85  1  0  0  0
 73 74  1  0  0  0
 73 79  1  0  0  0
 73 85  2  0  0  0
 74 81  1  0  0  0
 74 86  2  0  0  0
 75 78  1  0  0  0
 75147  1  0  0  0
 75148  1  0  0  0
 75149  1  0  0  0
 76 79  1  0  0  0
 76150  1  0  0  0
 76151  1  0  0  0
 76152  1  0  0  0
 77 82  1  0  0  0
 77153  1  0  0  0
 77154  1  0  0  0
 77155  1  0  0  0
 78156  1  0  0  0
 78157  1  0  0  0
 79158  1  0  0  0
 79159  1  0  0  0
 80 83  1  0  0  0
 80160  1  0  0  0
 80161  1  0  0  0
 81162  1  0  0  0
 81163  1  0  0  0
 82 84  1  0  0  0
 82164  1  0  0  0
 82165  1  0  0  0
 83 87  1  0  0  0
 83166  1  0  0  0
 83167  1  0  0  0
 84 87  1  0  0  0
 84168  1  0  0  0
 84169  1  0  0  0
M  ISO  4   1 100  68 101  81 101  87 100
M  END
> <chiral flag>
0

> <version>
0

> <s_m_source_file>
/data/baiqing/PycharmProjects/Reinvent-master-3.2/result/LINK_invent/BTK/process_docking_weight1_custom_sum_contain_oxygen_bond_distance_aromatic_linkinvent_7_9_3/rearranged_h_0053.sdf

> <i_m_source_file_index>
79

> <r_mmod_Potential_Energy-OPLS-2005>
735.029907226562

> <r_mmod_Stretch_Energy-OPLS-2005>
224.782165527344

> <r_mmod_Bend_Energy-OPLS-2005>
295.719177246094

> <r_mmod_Torsional_Energy-OPLS-2005>
286.112823486328

> <r_mmod_Improper_Torsional_Energy-OPLS-2005>
10.2569971084595

> <r_mmod_Van_der_Waal_Energy-OPLS-2005>
154.153076171875

> <r_mmod_Electrostatic_Energy-OPLS-2005>
-225.83479309082

> <r_mmod_Solvation_Energy-OPLS-2005>
-207.51806640625

> <b_mmod_Minimization_Converged-OPLS-2005>
0

> <r_mmod_RMS_Derivative-OPLS-2005>
1.86345505714417

$$$$
82
                    3D
 Structure written by MMmdl.
166174  0  0  1  0            999 V2000
  -30.6586  -14.9030   20.3864 C   0  0  0  0  0  0
  -30.4263  -12.5697   19.4671 C   0  0  0  0  0  0
  -29.5087  -12.4981   18.2344 C   0  0  0  0  0  0
  -28.0505  -12.2922   18.6758 C   0  0  0  0  0  0
  -27.6283  -13.2531   19.8214 C   0  0  2  0  0  0
  -28.6862  -13.3376   20.9429 C   0  0  0  0  0  0
  -25.2529  -13.8252   20.5727 C   0  0  0  0  0  0
  -24.1826  -13.0480   20.9241 C   0  0  0  0  0  0
  -24.6427  -11.6966   20.8795 C   0  0  0  0  0  0
  -23.9115  -10.4331   21.0427 C   0  0  0  0  0  0
  -24.3670   -9.4230   21.9186 C   0  0  0  0  0  0
  -23.6341   -8.2267   22.0753 C   0  0  0  0  0  0
  -22.4319   -8.0298   21.3546 C   0  0  0  0  0  0
  -21.9946   -9.0287   20.4673 C   0  0  0  0  0  0
  -22.7273  -10.2166   20.3086 C   0  0  0  0  0  0
  -21.6857   -6.0751   22.5267 C   0  0  0  0  0  0
  -21.4017   -6.5644   23.8206 C   0  0  0  0  0  0
  -21.3681   -5.6779   24.9152 C   0  0  0  0  0  0
  -21.6044   -4.3041   24.7179 C   0  0  0  0  0  0
  -21.8834   -3.8158   23.4300 C   0  0  0  0  0  0
  -21.9209   -4.6979   22.3373 C   0  0  0  0  0  0
  -22.7838  -13.5267   21.1828 C   0  0  0  0  0  0
  -22.1668   -4.2183   21.0946 F   0  0  0  0  0  0
  -21.5650   -3.4516   25.7679 F   0  0  0  0  0  0
  -29.9481  -13.7134   20.2950 N   0  0  0  0  0  0
  -26.2937  -12.9481   20.3247 N   0  0  0  0  0  0
  -25.9381  -11.6624   20.5794 N   0  0  0  0  0  0
  -22.0441  -12.8332   22.0391 N   0  0  0  0  0  0
  -25.4217  -15.1967   20.4147 N   0  0  0  0  0  0
  -31.8786  -14.7729   20.2788 O   0  0  0  0  0  0
  -21.6669   -6.8908   21.4232 O   0  0  0  0  0  0
  -22.3533  -14.5519   20.6580 O   0  0  0  0  0  0
  -24.6444  -31.8436   23.1888 C   0  0  0  0  0  0
  -25.9241  -32.4676   23.8253 C   0  0  1  0  0  0
  -27.1998  -27.1481   20.1344 C   0  0  0  0  0  0
  -25.5982  -33.8474   24.2175 N   0  0  0  0  0  0
  -23.4433  -30.4683   21.5336 C   0  0  2  0  0  0
  -24.8830  -28.8952   20.1038 C   0  0  0  0  0  0
  -22.7572  -29.4566   22.4855 C   0  0  0  0  0  0
  -18.0311  -28.1368   22.8499 C   0  0  0  0  0  0
  -24.1487  -36.7270   23.2645 C   0  0  0  0  0  0
  -25.9985  -30.7192   21.3871 C   0  0  0  0  0  0
  -26.0604  -29.3331   20.7244 C   0  0  0  0  0  0
  -27.2156  -28.4735   20.7247 C   0  0  0  0  0  0
  -25.9973  -26.8019   19.4843 C   0  0  0  0  0  0
  -24.8645  -27.6437   19.4698 C   0  0  0  0  0  0
  -23.6643  -29.8018   20.1488 C   0  0  0  0  0  0
  -25.4113  -36.3015   24.0316 C   0  0  1  0  0  0
  -20.5927  -28.3704   23.1239 C   0  0  2  0  0  0
  -20.6791  -26.9404   22.5417 C   0  0  0  0  0  0
  -19.5743  -26.6366   21.5242 C   0  0  0  0  0  0
  -18.1921  -26.7910   22.1641 C   0  0  0  0  0  0
  -19.1562  -28.8858   23.2858 C   0  0  0  0  0  0
  -18.9476  -30.1466   23.8867 C   0  0  0  0  0  0
  -17.6464  -30.6561   24.0559 C   0  0  0  0  0  0
  -25.9081  -34.9398   23.5051 C   0  0  0  0  0  0
  -16.5363  -29.9058   23.6325 C   0  0  0  0  0  0
  -16.7294  -28.6479   23.0348 C   0  0  0  0  0  0
  -26.4535  -31.6546   25.0719 C   0  0  0  0  0  0
  -25.3741  -31.3783   26.1448 C   0  0  0  0  0  0
  -27.0414  -30.2917   24.6371 C   0  0  0  0  0  0
  -27.6010  -32.4350   25.7527 C   0  0  0  0  0  0
  -27.5568  -37.1786   24.8445 C   0  0  0  0  0  0
  -21.4270  -29.3049   22.3622 N   0  0  0  0  0  0
  -26.4266  -37.3742   23.9411 N   0  0  0  0  0  0
  -24.7151  -31.0340   22.0900 N   0  0  0  0  0  0
  -23.4249  -28.8127   23.2989 O   0  0  0  0  0  0
  -28.2727  -26.1999   20.2151 O   0  0  0  0  0  0
  -26.5658  -34.8896   22.4635 O   0  0  0  0  0  0
  -23.5572  -32.1297   23.7148 O   0  0  0  0  0  0
  -28.1864  -19.5338   19.8012 C   0  0  0  0  0  0
  -29.2799  -18.9119   20.5044 C   0  0  0  0  0  0
  -29.8346  -21.1884   21.1083 C   0  0  0  0  0  0
  -28.7216  -21.8147   20.4398 C   0  0  0  0  0  0
  -30.8013  -22.0244   21.9253 C   0  0  0  0  0  0
  -32.6560  -17.7273   19.7864 C   0  0  0  0  0  0
  -32.7915  -16.5432   17.5778 C   0  0  0  0  0  0
  -31.6518  -18.7316   17.7477 C   0  0  0  0  0  0
  -28.2534  -23.3793   20.7312 C   0  0  0  0  0  0
  -29.4457  -17.3015   20.8524 C   0  0  0  0  0  0
  -30.4839  -16.6751   18.6647 C   0  0  0  0  0  0
  -28.2643  -24.7176   19.7437 C   0  0  0  0  0  0
  -31.8795  -17.3957   18.4843 C   0  0  0  0  0  0
  -27.9139  -20.9111   19.7774 N   0  0  0  0  0  0
  -30.0905  -19.8208   21.1422 N   0  0  0  0  0  0
  -30.0971  -16.1632   20.0025 N   0  0  0  0  0  0
  -31.4603  -12.6818   19.1367 H   0  0  0  0  0  0
  -30.3953  -11.6413   20.0419 H   0  0  0  0  0  0
  -29.8268  -11.6839   17.5815 H   0  0  0  0  0  0
  -29.5918  -13.4167   17.6505 H   0  0  0  0  0  0
  -27.9655  -11.2565   19.0134 H   0  0  0  0  0  0
  -27.3789  -12.3926   17.8242 H   0  0  0  0  0  0
  -27.5775  -14.2403   19.3588 H   0  0  0  0  0  0
  -28.7863  -12.3884   21.4718 H   0  0  0  0  0  0
  -28.4053  -14.0887   21.6830 H   0  0  0  0  0  0
  -25.2844   -9.5685   22.4729 H   0  0  0  0  0  0
  -24.0070   -7.4653   22.7469 H   0  0  0  0  0  0
  -21.0871   -8.8841   19.8985 H   0  0  0  0  0  0
  -22.3775  -10.9715   19.6206 H   0  0  0  0  0  0
  -21.1983   -7.6140   23.9715 H   0  0  0  0  0  0
  -21.1500   -6.0493   25.9061 H   0  0  0  0  0  0
  -22.0599   -2.7618   23.2768 H   0  0  0  0  0  0
  -22.4050  -12.0087   22.4941 H   0  0  0  0  0  0
  -21.1040  -13.1359   22.2481 H   0  0  0  0  0  0
  -24.6507  -15.8441   20.5294 H   0  0  0  0  0  0
  -26.2691  -15.6372   20.0822 H   0  0  0  0  0  0
  -26.7325  -32.5250   23.0984 H   0  0  0  0  0  0
  -25.0080  -33.9553   25.0284 H   0  0  0  0  0  0
  -22.7428  -31.2931   21.3845 H   0  0  0  0  0  0
  -23.3740  -35.9615   23.3265 H   0  0  0  0  0  0
  -24.3584  -36.8948   22.2070 H   0  0  0  0  0  0
  -23.7251  -37.6460   23.6713 H   0  0  0  0  0  0
  -26.1678  -31.4759   20.6177 H   0  0  0  0  0  0
  -26.8657  -30.7541   22.0359 H   0  0  0  0  0  0
  -28.1100  -28.8027   21.2367 H   0  0  0  0  0  0
  -25.8844  -25.8430   19.0054 H   0  0  0  0  0  0
  -23.9674  -27.3048   18.9697 H   0  0  0  0  0  0
  -23.7982  -30.5775   19.3927 H   0  0  0  0  0  0
  -22.7766  -29.2470   19.8417 H   0  0  0  0  0  0
  -25.1299  -36.1823   25.0808 H   0  0  0  0  0  0
  -21.0030  -28.3291   24.1353 H   0  0  0  0  0  0
  -20.5683  -26.2326   23.3651 H   0  0  0  0  0  0
  -21.6644  -26.7386   22.1196 H   0  0  0  0  0  0
  -19.6888  -25.6285   21.1242 H   0  0  0  0  0  0
  -19.6646  -27.3192   20.6783 H   0  0  0  0  0  0
  -17.4215  -26.6702   21.4023 H   0  0  0  0  0  0
  -18.0265  -26.0034   22.8996 H   0  0  0  0  0  0
  -19.7956  -30.7296   24.2200 H   0  0  0  0  0  0
  -17.5013  -31.6231   24.5167 H   0  0  0  0  0  0
  -15.5353  -30.2933   23.7665 H   0  0  0  0  0  0
  -15.8705  -28.0792   22.7048 H   0  0  0  0  0  0
  -24.5850  -30.7192   25.7818 H   0  0  0  0  0  0
  -24.9040  -32.3009   26.4861 H   0  0  0  0  0  0
  -25.8048  -30.8960   27.0231 H   0  0  0  0  0  0
  -26.3063  -29.6607   24.1370 H   0  0  0  0  0  0
  -27.3958  -29.7245   25.4986 H   0  0  0  0  0  0
  -27.8981  -30.4088   23.9739 H   0  0  0  0  0  0
  -27.2499  -33.3602   26.2103 H   0  0  0  0  0  0
  -28.3828  -32.7013   25.0407 H   0  0  0  0  0  0
  -28.0687  -31.8525   26.5471 H   0  0  0  0  0  0
  -28.2559  -38.0103   24.7512 H   0  0  0  0  0  0
  -28.1083  -36.2641   24.6219 H   0  0  0  0  0  0
  -27.2313  -37.1374   25.8852 H   0  0  0  0  0  0
  -20.9478  -29.8804   21.6827 H   0  0  0  0  0  0
  -26.0122  -38.2807   24.1404 H   0  0  0  0  0  0
  -27.4593  -18.9069   19.3067 H   0  0  0  0  0  0
  -31.3473  -22.7170   21.2844 H   0  0  0  0  0  0
  -31.5230  -21.4014   22.4497 H   0  0  0  0  0  0
  -30.2705  -22.5930   22.6859 H   0  0  0  0  0  0
  -33.0412  -16.8487   20.2928 H   0  0  0  0  0  0
  -32.0587  -18.2772   20.5067 H   0  0  0  0  0  0
  -33.5327  -18.3416   19.5768 H   0  0  0  0  0  0
  -33.7984  -16.9609   17.5170 H   0  0  0  0  0  0
  -32.4045  -16.4832   16.5571 H   0  0  0  0  0  0
  -32.8915  -15.5218   17.9454 H   0  0  0  0  0  0
  -32.5958  -19.2014   17.4675 H   0  0  0  0  0  0
  -31.1144  -19.4495   18.3660 H   0  0  0  0  0  0
  -31.0760  -18.5958   16.8327 H   0  0  0  0  0  0
  -28.8353  -23.7164   21.5841 H   0  0  0  0  0  0
  -27.2496  -23.2992   21.1472 H   0  0  0  0  0  0
  -28.4397  -16.9423   21.0664 H   0  0  0  0  0  0
  -29.9515  -17.2644   21.8165 H   0  0  0  0  0  0
  -30.4237  -15.8391   17.9616 H   0  0  0  0  0  0
  -29.6846  -17.3311   18.3174 H   0  0  0  0  0  0
  -27.5232  -24.5643   18.9609 H   0  0  0  0  0  0
  -29.2103  -24.6417   19.2108 H   0  0  0  0  0  0
  1 25  1  0  0  0
  1 30  2  0  0  0
  1 86  1  0  0  0
  2  3  1  0  0  0
  2 25  1  0  0  0
  2 87  1  0  0  0
  2 88  1  0  0  0
  3  4  1  0  0  0
  3 89  1  0  0  0
  3 90  1  0  0  0
  4  5  1  0  0  0
  4 91  1  0  0  0
  4 92  1  0  0  0
  5  6  1  0  0  0
  5 26  1  0  0  0
  5 93  1  0  0  0
  6 25  1  0  0  0
  6 94  1  0  0  0
  6 95  1  0  0  0
  7  8  2  0  0  0
  7 26  1  0  0  0
  7 29  1  0  0  0
  8  9  1  0  0  0
  8 22  1  0  0  0
  9 10  1  0  0  0
  9 27  2  0  0  0
 10 11  2  0  0  0
 10 15  1  0  0  0
 11 12  1  0  0  0
 11 96  1  0  0  0
 12 13  2  0  0  0
 12 97  1  0  0  0
 13 14  1  0  0  0
 13 31  1  0  0  0
 14 15  2  0  0  0
 14 98  1  0  0  0
 15 99  1  0  0  0
 16 17  2  0  0  0
 16 21  1  0  0  0
 16 31  1  0  0  0
 17 18  1  0  0  0
 17100  1  0  0  0
 18 19  2  0  0  0
 18101  1  0  0  0
 19 20  1  0  0  0
 19 24  1  0  0  0
 20 21  2  0  0  0
 20102  1  0  0  0
 21 23  1  0  0  0
 22 28  1  0  0  0
 22 32  2  0  0  0
 26 27  1  0  0  0
 28103  1  0  0  0
 28104  1  0  0  0
 29105  1  0  0  0
 29106  1  0  0  0
 33 34  1  0  0  0
 33 66  1  0  0  0
 33 70  2  0  0  0
 34 36  1  0  0  0
 34 59  1  0  0  0
 34107  1  0  0  0
 35 44  2  0  0  0
 35 45  1  0  0  0
 35 68  1  0  0  0
 36 56  1  0  0  0
 36108  1  0  0  0
 37 39  1  0  0  0
 37 47  1  0  0  0
 37 66  1  0  0  0
 37109  1  0  0  0
 38 43  2  0  0  0
 38 46  1  0  0  0
 38 47  1  0  0  0
 39 64  1  0  0  0
 39 67  2  0  0  0
 40 52  1  0  0  0
 40 53  2  0  0  0
 40 58  1  0  0  0
 41110  1  0  0  0
 41111  1  0  0  0
 41112  1  0  0  0
 41 48  1  0  0  0
 42 43  1  0  0  0
 42 66  1  0  0  0
 42113  1  0  0  0
 42114  1  0  0  0
 43 44  1  0  0  0
 44115  1  0  0  0
 45 46  2  0  0  0
 45116  1  0  0  0
 46117  1  0  0  0
 47118  1  0  0  0
 47119  1  0  0  0
 48 56  1  0  0  0
 48 65  1  0  0  0
 48120  1  0  0  0
 49 50  1  0  0  0
 49 53  1  0  0  0
 49 64  1  0  0  0
 49121  1  0  0  0
 50 51  1  0  0  0
 50122  1  0  0  0
 50123  1  0  0  0
 51 52  1  0  0  0
 51124  1  0  0  0
 51125  1  0  0  0
 52126  1  0  0  0
 52127  1  0  0  0
 53 54  1  0  0  0
 54 55  2  0  0  0
 54128  1  0  0  0
 55 57  1  0  0  0
 55129  1  0  0  0
 56 69  2  0  0  0
 57 58  2  0  0  0
 57130  1  0  0  0
 58131  1  0  0  0
 59 60  1  0  0  0
 59 61  1  0  0  0
 59 62  1  0  0  0
 60132  1  0  0  0
 60133  1  0  0  0
 60134  1  0  0  0
 61135  1  0  0  0
 61136  1  0  0  0
 61137  1  0  0  0
 62138  1  0  0  0
 62139  1  0  0  0
 62140  1  0  0  0
 63 65  1  0  0  0
 63141  1  0  0  0
 63142  1  0  0  0
 63143  1  0  0  0
 64144  1  0  0  0
 65145  1  0  0  0
 68 82  1  0  0  0
 71 72  2  0  0  0
 71 84  1  0  0  0
 71146  1  0  0  0
 72 80  1  0  0  0
 72 85  1  0  0  0
 73 74  1  0  0  0
 73 75  1  0  0  0
 73 85  2  0  0  0
 74 79  1  0  0  0
 74 84  2  0  0  0
 75147  1  0  0  0
 75148  1  0  0  0
 75149  1  0  0  0
 76150  1  0  0  0
 76151  1  0  0  0
 76152  1  0  0  0
 76 83  1  0  0  0
 77 83  1  0  0  0
 77153  1  0  0  0
 77154  1  0  0  0
 77155  1  0  0  0
 78 83  1  0  0  0
 78156  1  0  0  0
 78157  1  0  0  0
 78158  1  0  0  0
 79 82  1  0  0  0
 79159  1  0  0  0
 79160  1  0  0  0
 80 86  1  0  0  0
 80161  1  0  0  0
 80162  1  0  0  0
 81 83  1  0  0  0
 81 86  1  0  0  0
 81163  1  0  0  0
 81164  1  0  0  0
 82165  1  0  0  0
 82166  1  0  0  0
M  ISO  4   1 100  68 101  82 101  86 100
M  END
> <chiral flag>
0

> <version>
0

> <s_m_source_file>
/data/baiqing/PycharmProjects/Reinvent-master-3.2/result/LINK_invent/BTK/process_docking_weight1_custom_sum_contain_oxygen_bond_distance_aromatic_linkinvent_7_9_3/rearranged_h_0053.sdf

> <i_m_source_file_index>
80

> <r_mmod_Potential_Energy-OPLS-2005>
679.482299804688

> <r_mmod_Stretch_Energy-OPLS-2005>
232.410705566406

> <r_mmod_Bend_Energy-OPLS-2005>
301.37060546875

> <r_mmod_Torsional_Energy-OPLS-2005>
318.1611328125

> <r_mmod_Improper_Torsional_Energy-OPLS-2005>
26.5564517974854

> <r_mmod_Van_der_Waal_Energy-OPLS-2005>
138.931686401367

> <r_mmod_Electrostatic_Energy-OPLS-2005>
-315.552398681641

> <r_mmod_Solvation_Energy-OPLS-2005>
-202.461532592773

> <b_mmod_Minimization_Converged-OPLS-2005>
0

> <r_mmod_RMS_Derivative-OPLS-2005>
4.18733310699463

$$$$
83
                    3D
 Structure written by MMmdl.
170178  0  0  1  0            999 V2000
  -30.7202  -14.6254   20.3226 C   0  0  0  0  0  0
  -30.4054  -12.3463   19.4645 C   0  0  0  0  0  0
  -29.4912  -12.3377   18.2240 C   0  0  0  0  0  0
  -28.0088  -12.2704   18.6347 C   0  0  0  0  0  0
  -27.6269  -13.2102   19.8106 C   0  0  2  0  0  0
  -28.6802  -13.2237   20.9323 C   0  0  0  0  0  0
  -25.2537  -13.8012   20.5827 C   0  0  0  0  0  0
  -24.1788  -13.0337   20.9253 C   0  0  0  0  0  0
  -24.6359  -11.6824   20.8755 C   0  0  0  0  0  0
  -23.9023  -10.4249   21.0401 C   0  0  0  0  0  0
  -24.3591   -9.4174   21.9181 C   0  0  0  0  0  0
  -23.6265   -8.2211   22.0760 C   0  0  0  0  0  0
  -22.4241   -8.0266   21.3546 C   0  0  0  0  0  0
  -21.9872   -9.0234   20.4636 C   0  0  0  0  0  0
  -22.7193  -10.2114   20.3049 C   0  0  0  0  0  0
  -21.6850   -6.0717   22.5274 C   0  0  0  0  0  0
  -21.4008   -6.5619   23.8206 C   0  0  0  0  0  0
  -21.3662   -5.6779   24.9169 C   0  0  0  0  0  0
  -21.6044   -4.3044   24.7213 C   0  0  0  0  0  0
  -21.8820   -3.8129   23.4340 C   0  0  0  0  0  0
  -21.9202   -4.6945   22.3402 C   0  0  0  0  0  0
  -22.7827  -13.5188   21.1886 C   0  0  0  0  0  0
  -22.1680   -4.2128   21.0978 F   0  0  0  0  0  0
  -21.5640   -3.4539   25.7737 F   0  0  0  0  0  0
  -29.9870  -13.4705   20.3207 N   0  0  0  0  0  0
  -26.2898  -12.9243   20.3204 N   0  0  0  0  0  0
  -25.9270  -11.6409   20.5714 N   0  0  0  0  0  0
  -22.0449  -12.8215   22.0432 N   0  0  0  0  0  0
  -25.4285  -15.1674   20.4487 N   0  0  0  0  0  0
  -31.9450  -14.5135   20.3968 O   0  0  0  0  0  0
  -21.6622   -6.8852   21.4234 O   0  0  0  0  0  0
  -22.3546  -14.5500   20.6707 O   0  0  0  0  0  0
  -24.6156  -31.8679   23.2117 C   0  0  0  0  0  0
  -25.9054  -32.4815   23.8405 C   0  0  1  0  0  0
  -27.2262  -27.4222   20.0759 C   0  0  0  0  0  0
  -25.5918  -33.8617   24.2324 N   0  0  0  0  0  0
  -23.4025  -30.4953   21.5517 C   0  0  2  0  0  0
  -24.8450  -28.9639   20.1144 C   0  0  0  0  0  0
  -22.7408  -29.4673   22.4980 C   0  0  0  0  0  0
  -18.0275  -28.1381   22.8486 C   0  0  0  0  0  0
  -24.1493  -36.7311   23.2636 C   0  0  0  0  0  0
  -25.9350  -30.8265   21.3705 C   0  0  0  0  0  0
  -26.0076  -29.4619   20.7137 C   0  0  0  0  0  0
  -27.1965  -28.6938   20.7017 C   0  0  0  0  0  0
  -26.0338  -26.9420   19.4877 C   0  0  0  0  0  0
  -24.8530  -27.7019   19.5030 C   0  0  0  0  0  0
  -23.6109  -29.8340   20.1648 C   0  0  0  0  0  0
  -25.4115  -36.3098   24.0329 C   0  0  1  0  0  0
  -20.5860  -28.3671   23.1313 C   0  0  2  0  0  0
  -20.6768  -26.9407   22.5416 C   0  0  0  0  0  0
  -19.5755  -26.6386   21.5207 C   0  0  0  0  0  0
  -18.1927  -26.7927   22.1613 C   0  0  0  0  0  0
  -19.1519  -28.8842   23.2897 C   0  0  0  0  0  0
  -18.9447  -30.1447   23.8904 C   0  0  0  0  0  0
  -17.6454  -30.6590   24.0563 C   0  0  0  0  0  0
  -25.9041  -34.9468   23.5114 C   0  0  0  0  0  0
  -16.5346  -29.9091   23.6329 C   0  0  0  0  0  0
  -16.7268  -28.6509   23.0349 C   0  0  0  0  0  0
  -26.4486  -31.6601   25.0736 C   0  0  0  0  0  0
  -25.3761  -31.3708   26.1489 C   0  0  0  0  0  0
  -27.0325  -30.3040   24.6132 C   0  0  0  0  0  0
  -27.6051  -32.4331   25.7503 C   0  0  0  0  0  0
  -27.5580  -37.1809   24.8463 C   0  0  0  0  0  0
  -21.4135  -29.3041   22.3717 N   0  0  0  0  0  0
  -26.4295  -37.3784   23.9403 N   0  0  0  0  0  0
  -24.6692  -31.0779   22.1022 N   0  0  0  0  0  0
  -23.4176  -28.8200   23.3016 O   0  0  0  0  0  0
  -28.3923  -26.6762   20.1043 O   0  0  0  0  0  0
  -26.5592  -34.8914   22.4667 O   0  0  0  0  0  0
  -23.5350  -32.1445   23.7506 O   0  0  0  0  0  0
  -27.2717  -18.9285   20.2723 C   0  0  0  0  0  0
  -27.0242  -17.7613   19.5547 C   0  0  0  0  0  0
  -28.4635  -18.9866   20.9950 C   0  0  0  0  0  0
  -29.0474  -16.8560   20.2309 C   0  0  0  0  0  0
  -25.8161  -17.6578   18.6469 C   0  0  0  0  0  0
  -31.4869  -16.9776   19.6164 C   0  0  0  0  0  0
  -30.0278  -15.7676   18.1460 C   0  0  0  0  0  0
  -27.2224  -23.1362   18.6198 C   0  0  0  0  0  0
  -28.8239  -20.2711   21.7484 C   0  0  0  0  0  0
  -29.6288  -21.3440   20.9539 C   0  0  0  0  0  0
  -29.0471  -21.8418   19.6007 C   0  0  0  0  0  0
  -29.2350  -24.3461   19.5402 C   0  0  0  0  0  0
  -28.6679  -25.7254   19.0572 C   0  0  0  0  0  0
  -30.2506  -16.0129   19.6645 C   0  0  0  0  0  0
  -27.8832  -16.7249   19.5812 N   0  0  0  0  0  0
  -29.3348  -17.9460   20.9762 N   0  0  0  0  0  0
  -28.3124  -23.1543   19.6298 N   0  3  1  0  0  0
  -31.4494  -12.4156   19.1544 H   0  0  0  0  0  0
  -30.3225  -11.4064   20.0133 H   0  0  0  0  0  0
  -29.7268  -11.4687   17.6072 H   0  0  0  0  0  0
  -29.6850  -13.1895   17.5807 H   0  0  0  0  0  0
  -27.8162  -11.2347   18.9188 H   0  0  0  0  0  0
  -27.3698  -12.4668   17.7731 H   0  0  0  0  0  0
  -27.5914  -14.2033   19.3761 H   0  0  0  0  0  0
  -28.6878  -12.2742   21.4695 H   0  0  0  0  0  0
  -28.4441  -13.9966   21.6643 H   0  0  0  0  0  0
  -25.2738   -9.5677   22.4736 H   0  0  0  0  0  0
  -23.9977   -7.4600   22.7475 H   0  0  0  0  0  0
  -21.0826   -8.8751   19.8904 H   0  0  0  0  0  0
  -22.3661  -10.9670   19.6167 H   0  0  0  0  0  0
  -21.1982   -7.6127   23.9710 H   0  0  0  0  0  0
  -21.1488   -6.0505   25.9074 H   0  0  0  0  0  0
  -22.0597   -2.7588   23.2848 H   0  0  0  0  0  0
  -22.4030  -11.9863   22.4822 H   0  0  0  0  0  0
  -21.1076  -13.1289   22.2618 H   0  0  0  0  0  0
  -24.6677  -15.8244   20.5650 H   0  0  0  0  0  0
  -26.3002  -15.5940   20.1329 H   0  0  0  0  0  0
  -26.7115  -32.5517   23.1158 H   0  0  0  0  0  0
  -25.0102  -33.9788   25.0492 H   0  0  0  0  0  0
  -22.6919  -31.3129   21.4153 H   0  0  0  0  0  0
  -23.3743  -35.9655   23.3304 H   0  0  0  0  0  0
  -24.3583  -36.8924   22.2048 H   0  0  0  0  0  0
  -23.7263  -37.6522   23.6654 H   0  0  0  0  0  0
  -26.0545  -31.5951   20.6053 H   0  0  0  0  0  0
  -26.8202  -30.8727   21.9932 H   0  0  0  0  0  0
  -28.0928  -29.0744   21.1718 H   0  0  0  0  0  0
  -25.9696  -25.9749   19.0241 H   0  0  0  0  0  0
  -23.9546  -27.3070   19.0492 H   0  0  0  0  0  0
  -23.7257  -30.6122   19.4093 H   0  0  0  0  0  0
  -22.7333  -29.2593   19.8636 H   0  0  0  0  0  0
  -25.1292  -36.1952   25.0823 H   0  0  0  0  0  0
  -20.9950  -28.3235   24.1433 H   0  0  0  0  0  0
  -20.5676  -26.2273   23.3599 H   0  0  0  0  0  0
  -21.6640  -26.7461   22.1205 H   0  0  0  0  0  0
  -19.6915  -25.6298   21.1241 H   0  0  0  0  0  0
  -19.6700  -27.3195   20.6736 H   0  0  0  0  0  0
  -17.4197  -26.6680   21.4010 H   0  0  0  0  0  0
  -18.0326  -26.0069   22.9013 H   0  0  0  0  0  0
  -19.7925  -30.7263   24.2269 H   0  0  0  0  0  0
  -17.5015  -31.6270   24.5174 H   0  0  0  0  0  0
  -15.5349  -30.3001   23.7658 H   0  0  0  0  0  0
  -15.8664  -28.0846   22.7050 H   0  0  0  0  0  0
  -24.5920  -30.7066   25.7830 H   0  0  0  0  0  0
  -24.8978  -32.2872   26.4961 H   0  0  0  0  0  0
  -25.8132  -30.8860   27.0229 H   0  0  0  0  0  0
  -26.2877  -29.6786   24.1194 H   0  0  0  0  0  0
  -27.4091  -29.7289   25.4602 H   0  0  0  0  0  0
  -27.8716  -30.4343   23.9291 H   0  0  0  0  0  0
  -27.2649  -33.3612   26.2112 H   0  0  0  0  0  0
  -28.3853  -32.6928   25.0333 H   0  0  0  0  0  0
  -28.0733  -31.8445   26.5404 H   0  0  0  0  0  0
  -28.2592  -38.0109   24.7503 H   0  0  0  0  0  0
  -28.1080  -36.2636   24.6297 H   0  0  0  0  0  0
  -27.2292  -37.1467   25.8865 H   0  0  0  0  0  0
  -20.9281  -29.8775   21.6957 H   0  0  0  0  0  0
  -26.0174  -38.2855   24.1414 H   0  0  0  0  0  0
  -26.5790  -19.7593   20.2437 H   0  0  0  0  0  0
  -24.8988  -17.7561   19.2264 H   0  0  0  0  0  0
  -25.7856  -16.7064   18.1151 H   0  0  0  0  0  0
  -25.8337  -18.4554   17.9047 H   0  0  0  0  0  0
  -31.2406  -17.9177   19.1201 H   0  0  0  0  0  0
  -32.3312  -16.5609   19.0655 H   0  0  0  0  0  0
  -31.8427  -17.2278   20.6163 H   0  0  0  0  0  0
  -29.9461  -16.7067   17.5986 H   0  0  0  0  0  0
  -29.1072  -15.2233   17.9441 H   0  0  0  0  0  0
  -30.8485  -15.2052   17.7023 H   0  0  0  0  0  0
  -26.6199  -22.2296   18.6985 H   0  0  0  0  0  0
  -27.6155  -23.1872   17.6032 H   0  0  0  0  0  0
  -26.5226  -23.9522   18.7669 H   0  0  0  0  0  0
  -29.3856  -19.9978   22.6414 H   0  0  0  0  0  0
  -27.9016  -20.7236   22.1175 H   0  0  0  0  0  0
  -30.5990  -20.8970   20.7406 H   0  0  0  0  0  0
  -29.8446  -22.1940   21.6009 H   0  0  0  0  0  0
  -28.4224  -21.0582   19.1777 H   0  0  0  0  0  0
  -29.8628  -21.9177   18.8802 H   0  0  0  0  0  0
  -29.7605  -24.4738   20.4873 H   0  0  0  0  0  0
  -30.0106  -24.0942   18.8167 H   0  0  0  0  0  0
  -27.9110  -25.6392   18.2830 H   0  0  0  0  0  0
  -29.4835  -26.2065   18.5160 H   0  0  0  0  0  0
  -27.8343  -23.2102   20.5181 H   0  0  0  0  0  0
  1 25  1  0  0  0
  1 30  2  0  0  0
  1 84  1  0  0  0
  2  3  1  0  0  0
  2 25  1  0  0  0
  2 88  1  0  0  0
  2 89  1  0  0  0
  3  4  1  0  0  0
  3 90  1  0  0  0
  3 91  1  0  0  0
  4  5  1  0  0  0
  4 92  1  0  0  0
  4 93  1  0  0  0
  5  6  1  0  0  0
  5 26  1  0  0  0
  5 94  1  0  0  0
  6 25  1  0  0  0
  6 95  1  0  0  0
  6 96  1  0  0  0
  7  8  2  0  0  0
  7 26  1  0  0  0
  7 29  1  0  0  0
  8  9  1  0  0  0
  8 22  1  0  0  0
  9 10  1  0  0  0
  9 27  2  0  0  0
 10 11  2  0  0  0
 10 15  1  0  0  0
 11 12  1  0  0  0
 11 97  1  0  0  0
 12 13  2  0  0  0
 12 98  1  0  0  0
 13 14  1  0  0  0
 13 31  1  0  0  0
 14 15  2  0  0  0
 14 99  1  0  0  0
 15100  1  0  0  0
 16 17  2  0  0  0
 16 21  1  0  0  0
 16 31  1  0  0  0
 17 18  1  0  0  0
 17101  1  0  0  0
 18 19  2  0  0  0
 18102  1  0  0  0
 19 20  1  0  0  0
 19 24  1  0  0  0
 20 21  2  0  0  0
 20103  1  0  0  0
 21 23  1  0  0  0
 22 28  1  0  0  0
 22 32  2  0  0  0
 26 27  1  0  0  0
 28104  1  0  0  0
 28105  1  0  0  0
 29106  1  0  0  0
 29107  1  0  0  0
 33 34  1  0  0  0
 33 66  1  0  0  0
 33 70  2  0  0  0
 34 36  1  0  0  0
 34 59  1  0  0  0
 34108  1  0  0  0
 35 44  2  0  0  0
 35 45  1  0  0  0
 35 68  1  0  0  0
 36 56  1  0  0  0
 36109  1  0  0  0
 37 39  1  0  0  0
 37 47  1  0  0  0
 37 66  1  0  0  0
 37110  1  0  0  0
 38 43  2  0  0  0
 38 46  1  0  0  0
 38 47  1  0  0  0
 39 64  1  0  0  0
 39 67  2  0  0  0
 40 52  1  0  0  0
 40 53  2  0  0  0
 40 58  1  0  0  0
 41111  1  0  0  0
 41112  1  0  0  0
 41113  1  0  0  0
 41 48  1  0  0  0
 42 43  1  0  0  0
 42 66  1  0  0  0
 42114  1  0  0  0
 42115  1  0  0  0
 43 44  1  0  0  0
 44116  1  0  0  0
 45 46  2  0  0  0
 45117  1  0  0  0
 46118  1  0  0  0
 47119  1  0  0  0
 47120  1  0  0  0
 48 56  1  0  0  0
 48 65  1  0  0  0
 48121  1  0  0  0
 49 50  1  0  0  0
 49 53  1  0  0  0
 49 64  1  0  0  0
 49122  1  0  0  0
 50 51  1  0  0  0
 50123  1  0  0  0
 50124  1  0  0  0
 51 52  1  0  0  0
 51125  1  0  0  0
 51126  1  0  0  0
 52127  1  0  0  0
 52128  1  0  0  0
 53 54  1  0  0  0
 54 55  2  0  0  0
 54129  1  0  0  0
 55 57  1  0  0  0
 55130  1  0  0  0
 56 69  2  0  0  0
 57 58  2  0  0  0
 57131  1  0  0  0
 58132  1  0  0  0
 59 60  1  0  0  0
 59 61  1  0  0  0
 59 62  1  0  0  0
 60133  1  0  0  0
 60134  1  0  0  0
 60135  1  0  0  0
 61136  1  0  0  0
 61137  1  0  0  0
 61138  1  0  0  0
 62139  1  0  0  0
 62140  1  0  0  0
 62141  1  0  0  0
 63 65  1  0  0  0
 63142  1  0  0  0
 63143  1  0  0  0
 63144  1  0  0  0
 64145  1  0  0  0
 65146  1  0  0  0
 68 83  1  0  0  0
 71 72  2  0  0  0
 71 73  1  0  0  0
 71147  1  0  0  0
 72 75  1  0  0  0
 72 85  1  0  0  0
 73 79  1  0  0  0
 73 86  2  0  0  0
 74 84  1  0  0  0
 74 85  2  0  0  0
 74 86  1  0  0  0
 75148  1  0  0  0
 75149  1  0  0  0
 75150  1  0  0  0
 76151  1  0  0  0
 76152  1  0  0  0
 76153  1  0  0  0
 76 84  1  0  0  0
 77 84  1  0  0  0
 77154  1  0  0  0
 77155  1  0  0  0
 77156  1  0  0  0
 78157  1  0  0  0
 78158  1  0  0  0
 78159  1  0  0  0
 78 87  1  0  0  0
 79 80  1  0  0  0
 79160  1  0  0  0
 79161  1  0  0  0
 80 81  1  0  0  0
 80162  1  0  0  0
 80163  1  0  0  0
 81 87  1  0  0  0
 81164  1  0  0  0
 81165  1  0  0  0
 82 83  1  0  0  0
 82 87  1  0  0  0
 82166  1  0  0  0
 82167  1  0  0  0
 83168  1  0  0  0
 83169  1  0  0  0
 87170  1  0  0  0
M  CHG  1  87   1
M  ISO  4   1 100  68 101  83 101  84 100
M  END
> <chiral flag>
0

> <version>
0

> <s_m_source_file>
/data/baiqing/PycharmProjects/Reinvent-master-3.2/result/LINK_invent/BTK/process_docking_weight1_custom_sum_contain_oxygen_bond_distance_aromatic_linkinvent_7_9_3/rearranged_h_0053.sdf

> <i_m_source_file_index>
81

> <r_mmod_Potential_Energy-OPLS-2005>
-225.000915527344

> <r_mmod_Stretch_Energy-OPLS-2005>
60.5142097473145

> <r_mmod_Bend_Energy-OPLS-2005>
177.490264892578

> <r_mmod_Torsional_Energy-OPLS-2005>
277.400817871094

> <r_mmod_Improper_Torsional_Energy-OPLS-2005>
23.253116607666

> <r_mmod_Van_der_Waal_Energy-OPLS-2005>
182.864379882812

> <r_mmod_Electrostatic_Energy-OPLS-2005>
-593.061584472656

> <r_mmod_Solvation_Energy-OPLS-2005>
-423.971374511719

> <b_mmod_Minimization_Converged-OPLS-2005>
0

> <r_mmod_RMS_Derivative-OPLS-2005>
2.1276535987854

$$$$
84
                    3D
 Structure written by MMmdl.
159167  0  0  1  0            999 V2000
  -30.7361  -14.4263   20.5750 C   0  0  0  0  0  0
  -30.4144  -12.2820   19.4148 C   0  0  0  0  0  0
  -29.4901  -12.4953   18.1988 C   0  0  0  0  0  0
  -28.0080  -12.3726   18.6087 C   0  0  0  0  0  0
  -27.6598  -13.2045   19.8720 C   0  0  2  0  0  0
  -28.7008  -12.9670   20.9854 C   0  0  0  0  0  0
  -25.2576  -13.8141   20.5662 C   0  0  0  0  0  0
  -24.1820  -13.0446   20.9152 C   0  0  0  0  0  0
  -24.6357  -11.6902   20.8712 C   0  0  0  0  0  0
  -23.9027  -10.4306   21.0398 C   0  0  0  0  0  0
  -24.3597   -9.4241   21.9182 C   0  0  0  0  0  0
  -23.6288   -8.2269   22.0764 C   0  0  0  0  0  0
  -22.4258   -8.0299   21.3565 C   0  0  0  0  0  0
  -21.9885   -9.0266   20.4650 C   0  0  0  0  0  0
  -22.7198  -10.2153   20.3057 C   0  0  0  0  0  0
  -21.6856   -6.0740   22.5283 C   0  0  0  0  0  0
  -21.4016   -6.5639   23.8220 C   0  0  0  0  0  0
  -21.3668   -5.6790   24.9176 C   0  0  0  0  0  0
  -21.6051   -4.3057   24.7223 C   0  0  0  0  0  0
  -21.8830   -3.8153   23.4346 C   0  0  0  0  0  0
  -21.9197   -4.6968   22.3396 C   0  0  0  0  0  0
  -22.7863  -13.5280   21.1838 C   0  0  0  0  0  0
  -22.1673   -4.2161   21.0971 F   0  0  0  0  0  0
  -21.5628   -3.4535   25.7734 F   0  0  0  0  0  0
  -30.0294  -13.2713   20.4330 N   0  0  0  0  0  0
  -26.3007  -12.9312   20.3346 N   0  0  0  0  0  0
  -25.9282  -11.6478   20.5727 N   0  0  0  0  0  0
  -22.0473  -12.8304   22.0378 N   0  0  0  0  0  0
  -25.4348  -15.1854   20.4094 N   0  0  0  0  0  0
  -31.8904  -14.5378   20.1463 O   0  0  0  0  0  0
  -21.6644   -6.8886   21.4245 O   0  0  0  0  0  0
  -22.3581  -14.5610   20.6704 O   0  0  0  0  0  0
  -24.6138  -31.8707   23.2135 C   0  0  0  0  0  0
  -25.9053  -32.4834   23.8403 C   0  0  1  0  0  0
  -27.2265  -27.4548   20.0603 C   0  0  0  0  0  0
  -25.5913  -33.8626   24.2338 N   0  0  0  0  0  0
  -23.3976  -30.4993   21.5544 C   0  0  2  0  0  0
  -24.8357  -28.9630   20.1205 C   0  0  0  0  0  0
  -22.7394  -29.4705   22.5003 C   0  0  0  0  0  0
  -18.0275  -28.1390   22.8494 C   0  0  0  0  0  0
  -24.1490  -36.7321   23.2638 C   0  0  0  0  0  0
  -25.9279  -30.8350   21.3677 C   0  0  0  0  0  0
  -25.9972  -29.4689   20.7178 C   0  0  0  0  0  0
  -27.1910  -28.7140   20.7004 C   0  0  0  0  0  0
  -26.0393  -26.9536   19.4786 C   0  0  0  0  0  0
  -24.8483  -27.6993   19.5090 C   0  0  0  0  0  0
  -23.6029  -29.8354   20.1678 C   0  0  0  0  0  0
  -25.4111  -36.3112   24.0337 C   0  0  1  0  0  0
  -20.5863  -28.3680   23.1315 C   0  0  2  0  0  0
  -20.6774  -26.9420   22.5415 C   0  0  0  0  0  0
  -19.5748  -26.6400   21.5216 C   0  0  0  0  0  0
  -18.1924  -26.7935   22.1625 C   0  0  0  0  0  0
  -19.1523  -28.8847   23.2906 C   0  0  0  0  0  0
  -18.9456  -30.1454   23.8916 C   0  0  0  0  0  0
  -17.6460  -30.6595   24.0572 C   0  0  0  0  0  0
  -25.9038  -34.9479   23.5132 C   0  0  0  0  0  0
  -16.5351  -29.9104   23.6326 C   0  0  0  0  0  0
  -16.7266  -28.6522   23.0339 C   0  0  0  0  0  0
  -26.4478  -31.6605   25.0727 C   0  0  0  0  0  0
  -25.3748  -31.3720   26.1482 C   0  0  0  0  0  0
  -27.0307  -30.3046   24.6110 C   0  0  0  0  0  0
  -27.6053  -32.4322   25.7487 C   0  0  0  0  0  0
  -27.5583  -37.1817   24.8467 C   0  0  0  0  0  0
  -21.4129  -29.3051   22.3726 N   0  0  0  0  0  0
  -26.4299  -37.3797   23.9404 N   0  0  0  0  0  0
  -24.6647  -31.0824   22.1035 N   0  0  0  0  0  0
  -23.4176  -28.8240   23.3034 O   0  0  0  0  0  0
  -28.4170  -26.7610   20.0168 O   0  0  0  0  0  0
  -26.5596  -34.8930   22.4694 O   0  0  0  0  0  0
  -23.5341  -32.1456   23.7555 O   0  0  0  0  0  0
  -29.4271  -21.1685   18.2909 C   0  0  0  0  0  0
  -27.5630  -20.1158   18.6598 C   0  0  0  0  0  0
  -28.3861  -22.0627   18.2484 C   0  0  0  0  0  0
  -29.5665  -15.8229   22.2094 C   0  0  0  0  0  0
  -28.4555  -23.5335   17.9492 C   0  0  0  0  0  0
  -28.3225  -24.4223   19.2000 C   0  0  0  0  0  0
  -29.1813  -17.6716   19.7035 C   0  0  0  0  0  0
  -29.6443  -18.6821   18.6326 C   0  0  0  0  0  0
  -30.3664  -16.7649   20.0836 C   0  0  0  0  0  0
  -28.6420  -25.8990   18.8956 C   0  0  0  0  0  0
  -27.1896  -21.3852   18.4915 N   0  0  0  0  0  0
  -28.8869  -19.9188   18.5649 N   0  0  0  0  0  0
  -30.0144  -15.5458   20.8392 N   0  0  0  0  0  0
  -31.4594  -12.3644   19.1094 H   0  0  0  0  0  0
  -30.3008  -11.2710   19.8073 H   0  0  0  0  0  0
  -29.7249  -11.7682   17.4217 H   0  0  0  0  0  0
  -29.6722  -13.4764   17.7587 H   0  0  0  0  0  0
  -27.8073  -11.3184   18.7978 H   0  0  0  0  0  0
  -27.3642  -12.6598   17.7764 H   0  0  0  0  0  0
  -27.7101  -14.2561   19.5860 H   0  0  0  0  0  0
  -28.6718  -11.9271   21.3138 H   0  0  0  0  0  0
  -28.4617  -13.5461   21.8732 H   0  0  0  0  0  0
  -25.2748   -9.5742   22.4754 H   0  0  0  0  0  0
  -24.0029   -7.4668   22.7489 H   0  0  0  0  0  0
  -21.0831   -8.8765   19.8940 H   0  0  0  0  0  0
  -22.3653  -10.9698   19.6175 H   0  0  0  0  0  0
  -21.2003   -7.6149   23.9721 H   0  0  0  0  0  0
  -21.1478   -6.0516   25.9078 H   0  0  0  0  0  0
  -22.0592   -2.7615   23.2832 H   0  0  0  0  0  0
  -22.4040  -11.9978   22.4846 H   0  0  0  0  0  0
  -21.1082  -13.1400   22.2476 H   0  0  0  0  0  0
  -24.6796  -15.8484   20.5353 H   0  0  0  0  0  0
  -26.3096  -15.6200   20.1436 H   0  0  0  0  0  0
  -26.7128  -32.5539   23.1165 H   0  0  0  0  0  0
  -25.0071  -33.9785   25.0486 H   0  0  0  0  0  0
  -22.6866  -31.3178   21.4198 H   0  0  0  0  0  0
  -23.3740  -35.9668   23.3318 H   0  0  0  0  0  0
  -24.3582  -36.8915   22.2047 H   0  0  0  0  0  0
  -23.7257  -37.6541   23.6636 H   0  0  0  0  0  0
  -26.0461  -31.5995   20.5975 H   0  0  0  0  0  0
  -26.8154  -30.8835   21.9875 H   0  0  0  0  0  0
  -28.0907  -29.1063   21.1539 H   0  0  0  0  0  0
  -26.0112  -25.9920   18.9893 H   0  0  0  0  0  0
  -23.9514  -27.3005   19.0547 H   0  0  0  0  0  0
  -23.7202  -30.6130   19.4121 H   0  0  0  0  0  0
  -22.7234  -29.2633   19.8661 H   0  0  0  0  0  0
  -25.1288  -36.1978   25.0830 H   0  0  0  0  0  0
  -20.9965  -28.3256   24.1429 H   0  0  0  0  0  0
  -20.5694  -26.2292   23.3605 H   0  0  0  0  0  0
  -21.6641  -26.7479   22.1189 H   0  0  0  0  0  0
  -19.6909  -25.6315   21.1233 H   0  0  0  0  0  0
  -19.6678  -27.3222   20.6753 H   0  0  0  0  0  0
  -17.4195  -26.6692   21.4026 H   0  0  0  0  0  0
  -18.0324  -26.0074   22.9015 H   0  0  0  0  0  0
  -19.7931  -30.7269   24.2288 H   0  0  0  0  0  0
  -17.5015  -31.6269   24.5185 H   0  0  0  0  0  0
  -15.5351  -30.3014   23.7637 H   0  0  0  0  0  0
  -15.8667  -28.0857   22.7029 H   0  0  0  0  0  0
  -24.5912  -30.7078   25.7827 H   0  0  0  0  0  0
  -24.8954  -32.2883   26.4933 H   0  0  0  0  0  0
  -25.8099  -30.8885   27.0237 H   0  0  0  0  0  0
  -26.2850  -29.6807   24.1173 H   0  0  0  0  0  0
  -27.4084  -29.7284   25.4564 H   0  0  0  0  0  0
  -27.8680  -30.4361   23.9256 H   0  0  0  0  0  0
  -27.2670  -33.3609   26.2097 H   0  0  0  0  0  0
  -28.3844  -32.6908   25.0303 H   0  0  0  0  0  0
  -28.0745  -31.8430   26.5378 H   0  0  0  0  0  0
  -28.2617  -38.0101   24.7498 H   0  0  0  0  0  0
  -28.1062  -36.2628   24.6307 H   0  0  0  0  0  0
  -27.2300  -37.1491   25.8874 H   0  0  0  0  0  0
  -20.9298  -29.8768   21.6941 H   0  0  0  0  0  0
  -26.0189  -38.2883   24.1382 H   0  0  0  0  0  0
  -30.4871  -21.3197   18.1336 H   0  0  0  0  0  0
  -26.8605  -19.3140   18.8464 H   0  0  0  0  0  0
  -29.9201  -16.7906   22.5680 H   0  0  0  0  0  0
  -29.9191  -15.0783   22.9256 H   0  0  0  0  0  0
  -28.4780  -15.8384   22.2446 H   0  0  0  0  0  0
  -27.6871  -23.8031   17.2237 H   0  0  0  0  0  0
  -29.4040  -23.7536   17.4569 H   0  0  0  0  0  0
  -29.0067  -24.0725   19.9720 H   0  0  0  0  0  0
  -27.3205  -24.3062   19.6102 H   0  0  0  0  0  0
  -28.3502  -17.0824   19.3141 H   0  0  0  0  0  0
  -28.8181  -18.1881   20.5928 H   0  0  0  0  0  0
  -29.6308  -18.2172   17.6463 H   0  0  0  0  0  0
  -30.6842  -18.9564   18.8196 H   0  0  0  0  0  0
  -30.8514  -16.4938   19.1422 H   0  0  0  0  0  0
  -31.1124  -17.3325   20.6423 H   0  0  0  0  0  0
  -28.1050  -26.2434   18.0088 H   0  0  0  0  0  0
  -29.6970  -25.9818   18.6337 H   0  0  0  0  0  0
  1 25  1  0  0  0
  1 30  2  0  0  0
  1 83  1  0  0  0
  2  3  1  0  0  0
  2 25  1  0  0  0
  2 84  1  0  0  0
  2 85  1  0  0  0
  3  4  1  0  0  0
  3 86  1  0  0  0
  3 87  1  0  0  0
  4  5  1  0  0  0
  4 88  1  0  0  0
  4 89  1  0  0  0
  5  6  1  0  0  0
  5 26  1  0  0  0
  5 90  1  0  0  0
  6 25  1  0  0  0
  6 91  1  0  0  0
  6 92  1  0  0  0
  7  8  2  0  0  0
  7 26  1  0  0  0
  7 29  1  0  0  0
  8  9  1  0  0  0
  8 22  1  0  0  0
  9 10  1  0  0  0
  9 27  2  0  0  0
 10 11  2  0  0  0
 10 15  1  0  0  0
 11 12  1  0  0  0
 11 93  1  0  0  0
 12 13  2  0  0  0
 12 94  1  0  0  0
 13 14  1  0  0  0
 13 31  1  0  0  0
 14 15  2  0  0  0
 14 95  1  0  0  0
 15 96  1  0  0  0
 16 17  2  0  0  0
 16 21  1  0  0  0
 16 31  1  0  0  0
 17 18  1  0  0  0
 17 97  1  0  0  0
 18 19  2  0  0  0
 18 98  1  0  0  0
 19 20  1  0  0  0
 19 24  1  0  0  0
 20 21  2  0  0  0
 20 99  1  0  0  0
 21 23  1  0  0  0
 22 28  1  0  0  0
 22 32  2  0  0  0
 26 27  1  0  0  0
 28100  1  0  0  0
 28101  1  0  0  0
 29102  1  0  0  0
 29103  1  0  0  0
 33 34  1  0  0  0
 33 66  1  0  0  0
 33 70  2  0  0  0
 34 36  1  0  0  0
 34 59  1  0  0  0
 34104  1  0  0  0
 35 44  2  0  0  0
 35 45  1  0  0  0
 35 68  1  0  0  0
 36 56  1  0  0  0
 36105  1  0  0  0
 37 39  1  0  0  0
 37 47  1  0  0  0
 37 66  1  0  0  0
 37106  1  0  0  0
 38 43  2  0  0  0
 38 46  1  0  0  0
 38 47  1  0  0  0
 39 64  1  0  0  0
 39 67  2  0  0  0
 40 52  1  0  0  0
 40 53  2  0  0  0
 40 58  1  0  0  0
 41107  1  0  0  0
 41108  1  0  0  0
 41109  1  0  0  0
 41 48  1  0  0  0
 42 43  1  0  0  0
 42 66  1  0  0  0
 42110  1  0  0  0
 42111  1  0  0  0
 43 44  1  0  0  0
 44112  1  0  0  0
 45 46  2  0  0  0
 45113  1  0  0  0
 46114  1  0  0  0
 47115  1  0  0  0
 47116  1  0  0  0
 48 56  1  0  0  0
 48 65  1  0  0  0
 48117  1  0  0  0
 49 50  1  0  0  0
 49 53  1  0  0  0
 49 64  1  0  0  0
 49118  1  0  0  0
 50 51  1  0  0  0
 50119  1  0  0  0
 50120  1  0  0  0
 51 52  1  0  0  0
 51121  1  0  0  0
 51122  1  0  0  0
 52123  1  0  0  0
 52124  1  0  0  0
 53 54  1  0  0  0
 54 55  2  0  0  0
 54125  1  0  0  0
 55 57  1  0  0  0
 55126  1  0  0  0
 56 69  2  0  0  0
 57 58  2  0  0  0
 57127  1  0  0  0
 58128  1  0  0  0
 59 60  1  0  0  0
 59 61  1  0  0  0
 59 62  1  0  0  0
 60129  1  0  0  0
 60130  1  0  0  0
 60131  1  0  0  0
 61132  1  0  0  0
 61133  1  0  0  0
 61134  1  0  0  0
 62135  1  0  0  0
 62136  1  0  0  0
 62137  1  0  0  0
 63 65  1  0  0  0
 63138  1  0  0  0
 63139  1  0  0  0
 63140  1  0  0  0
 64141  1  0  0  0
 65142  1  0  0  0
 68 80  1  0  0  0
 71 73  2  0  0  0
 71 82  1  0  0  0
 71143  1  0  0  0
 72 81  2  0  0  0
 72 82  1  0  0  0
 72144  1  0  0  0
 73 75  1  0  0  0
 73 81  1  0  0  0
 74 83  1  0  0  0
 74145  1  0  0  0
 74146  1  0  0  0
 74147  1  0  0  0
 75 76  1  0  0  0
 75148  1  0  0  0
 75149  1  0  0  0
 76 80  1  0  0  0
 76150  1  0  0  0
 76151  1  0  0  0
 77 78  1  0  0  0
 77 79  1  0  0  0
 77152  1  0  0  0
 77153  1  0  0  0
 78 82  1  0  0  0
 78154  1  0  0  0
 78155  1  0  0  0
 79 83  1  0  0  0
 79156  1  0  0  0
 79157  1  0  0  0
 80158  1  0  0  0
 80159  1  0  0  0
M  ISO  4   1 100  68 101  80 101  83 100
M  END
> <chiral flag>
0

> <version>
0

> <s_m_source_file>
/data/baiqing/PycharmProjects/Reinvent-master-3.2/result/LINK_invent/BTK/process_docking_weight1_custom_sum_contain_oxygen_bond_distance_aromatic_linkinvent_7_9_3/rearranged_h_0053.sdf

> <i_m_source_file_index>
82

> <r_mmod_Potential_Energy-OPLS-2005>
64.1033706665039

> <r_mmod_Stretch_Energy-OPLS-2005>
33.2841186523438

> <r_mmod_Bend_Energy-OPLS-2005>
109.640869140625

> <r_mmod_Torsional_Energy-OPLS-2005>
275.451904296875

> <r_mmod_Improper_Torsional_Energy-OPLS-2005>
13.4274206161499

> <r_mmod_Van_der_Waal_Energy-OPLS-2005>
139.441360473633

> <r_mmod_Electrostatic_Energy-OPLS-2005>
-305.176696777344

> <r_mmod_Solvation_Energy-OPLS-2005>
-215.450668334961

> <b_mmod_Minimization_Converged-OPLS-2005>
0

> <r_mmod_RMS_Derivative-OPLS-2005>
2.31363773345947

$$$$
85
                    3D
 Structure written by MMmdl.
154162  0  0  1  0            999 V2000
  -30.6426  -14.7159   20.4532 C   0  0  0  0  0  0
  -30.4240  -12.4333   19.4820 C   0  0  0  0  0  0
  -29.5092  -12.4995   18.2399 C   0  0  0  0  0  0
  -28.0347  -12.3315   18.6510 C   0  0  0  0  0  0
  -27.6423  -13.2335   19.8522 C   0  0  2  0  0  0
  -28.6856  -13.1733   20.9909 C   0  0  0  0  0  0
  -25.2508  -13.8202   20.5699 C   0  0  0  0  0  0
  -24.1800  -13.0444   20.9211 C   0  0  0  0  0  0
  -24.6396  -11.6923   20.8754 C   0  0  0  0  0  0
  -23.9074  -10.4297   21.0411 C   0  0  0  0  0  0
  -24.3625   -9.4210   21.9186 C   0  0  0  0  0  0
  -23.6299   -8.2245   22.0755 C   0  0  0  0  0  0
  -22.4280   -8.0284   21.3545 C   0  0  0  0  0  0
  -21.9918   -9.0258   20.4647 C   0  0  0  0  0  0
  -22.7249  -10.2136   20.3057 C   0  0  0  0  0  0
  -21.6855   -6.0738   22.5281 C   0  0  0  0  0  0
  -21.4015   -6.5642   23.8213 C   0  0  0  0  0  0
  -21.3660   -5.6794   24.9176 C   0  0  0  0  0  0
  -21.6045   -4.3056   24.7227 C   0  0  0  0  0  0
  -21.8820   -3.8149   23.4347 C   0  0  0  0  0  0
  -21.9193   -4.6965   22.3404 C   0  0  0  0  0  0
  -22.7821  -13.5224   21.1870 C   0  0  0  0  0  0
  -22.1662   -4.2151   21.0980 F   0  0  0  0  0  0
  -21.5628   -3.4540   25.7738 F   0  0  0  0  0  0
  -29.9920  -13.5042   20.4106 N   0  0  0  0  0  0
  -26.2938  -12.9417   20.3291 N   0  0  0  0  0  0
  -25.9327  -11.6557   20.5761 N   0  0  0  0  0  0
  -22.0466  -12.8207   22.0421 N   0  0  0  0  0  0
  -25.4191  -15.1927   20.4109 N   0  0  0  0  0  0
  -31.8276  -14.7835   20.1197 O   0  0  0  0  0  0
  -21.6643   -6.8883   21.4244 O   0  0  0  0  0  0
  -22.3507  -14.5531   20.6720 O   0  0  0  0  0  0
  -24.6309  -31.8564   23.2005 C   0  0  0  0  0  0
  -25.9139  -32.4760   23.8344 C   0  0  1  0  0  0
  -27.2151  -27.2667   20.1252 C   0  0  0  0  0  0
  -25.5937  -33.8563   24.2266 N   0  0  0  0  0  0
  -23.4269  -30.4813   21.5436 C   0  0  2  0  0  0
  -24.8736  -28.9347   20.1071 C   0  0  0  0  0  0
  -22.7502  -29.4608   22.4908 C   0  0  0  0  0  0
  -18.0294  -28.1389   22.8487 C   0  0  0  0  0  0
  -24.1489  -36.7283   23.2638 C   0  0  0  0  0  0
  -25.9736  -30.7703   21.3818 C   0  0  0  0  0  0
  -26.0451  -29.3948   20.7217 C   0  0  0  0  0  0
  -27.2173  -28.5721   20.7237 C   0  0  0  0  0  0
  -26.0243  -26.8879   19.4609 C   0  0  0  0  0  0
  -24.8686  -27.6893   19.4655 C   0  0  0  0  0  0
  -23.6446  -29.8205   20.1578 C   0  0  0  0  0  0
  -25.4116  -36.3071   24.0326 C   0  0  1  0  0  0
  -20.5898  -28.3701   23.1269 C   0  0  2  0  0  0
  -20.6782  -26.9418   22.5407 C   0  0  0  0  0  0
  -19.5754  -26.6386   21.5214 C   0  0  0  0  0  0
  -18.1936  -26.7931   22.1627 C   0  0  0  0  0  0
  -19.1548  -28.8862   23.2874 C   0  0  0  0  0  0
  -18.9467  -30.1461   23.8895 C   0  0  0  0  0  0
  -17.6466  -30.6590   24.0565 C   0  0  0  0  0  0
  -25.9056  -34.9442   23.5098 C   0  0  0  0  0  0
  -16.5358  -29.9087   23.6331 C   0  0  0  0  0  0
  -16.7280  -28.6504   23.0355 C   0  0  0  0  0  0
  -26.4506  -31.6582   25.0730 C   0  0  0  0  0  0
  -25.3727  -31.3733   26.1448 C   0  0  0  0  0  0
  -27.0355  -30.2998   24.6219 C   0  0  0  0  0  0
  -27.6056  -32.4328   25.7505 C   0  0  0  0  0  0
  -27.5579  -37.1798   24.8466 C   0  0  0  0  0  0
  -21.4209  -29.3047   22.3655 N   0  0  0  0  0  0
  -26.4291  -37.3770   23.9408 N   0  0  0  0  0  0
  -24.6960  -31.0535   22.0982 N   0  0  0  0  0  0
  -23.4205  -28.8143   23.2999 O   0  0  0  0  0  0
  -28.2986  -26.3577   20.2119 O   0  0  0  0  0  0
  -26.5625  -34.8914   22.4665 O   0  0  0  0  0  0
  -23.5460  -32.1384   23.7303 O   0  0  0  0  0  0
  -29.4571  -20.4728   21.7988 C   0  0  0  0  0  0
  -29.1588  -20.8604   20.5098 C   0  0  0  0  0  0
  -29.7957  -18.6188   20.5500 C   0  0  0  0  0  0
  -30.2791  -18.3530   22.9479 C   0  0  0  0  0  0
  -28.6071  -22.2039   19.8950 C   0  0  0  0  0  0
  -30.3527  -17.2307   20.0416 C   0  0  0  0  0  0
  -28.9469  -23.6735   20.4802 C   0  0  0  0  0  0
  -28.0499  -24.9009   19.9284 C   0  0  0  0  0  0
  -29.8387  -19.1358   21.7917 N   0  0  0  0  0  0
  -29.3697  -19.6713   19.7882 N   0  3  0  0  0  0
  -29.9125  -15.8821   20.6051 N   0  0  0  0  0  0
  -31.4691  -12.5331   19.1840 H   0  0  0  0  0  0
  -30.3466  -11.4584   19.9658 H   0  0  0  0  0  0
  -29.7877  -11.7254   17.5236 H   0  0  0  0  0  0
  -29.6449  -13.4540   17.7293 H   0  0  0  0  0  0
  -27.8870  -11.2833   18.9133 H   0  0  0  0  0  0
  -27.3796  -12.5255   17.8007 H   0  0  0  0  0  0
  -27.6367  -14.2542   19.4696 H   0  0  0  0  0  0
  -28.7098  -12.1814   21.4447 H   0  0  0  0  0  0
  -28.4268  -13.8703   21.7896 H   0  0  0  0  0  0
  -25.2768   -9.5684   22.4763 H   0  0  0  0  0  0
  -24.0008   -7.4635   22.7473 H   0  0  0  0  0  0
  -21.0851   -8.8781   19.8948 H   0  0  0  0  0  0
  -22.3712  -10.9678   19.6167 H   0  0  0  0  0  0
  -21.2009   -7.6149   23.9720 H   0  0  0  0  0  0
  -21.1480   -6.0521   25.9079 H   0  0  0  0  0  0
  -22.0597   -2.7611   23.2847 H   0  0  0  0  0  0
  -22.4084  -11.9868   22.4805 H   0  0  0  0  0  0
  -21.1080  -13.1227   22.2623 H   0  0  0  0  0  0
  -24.6489  -15.8438   20.5190 H   0  0  0  0  0  0
  -26.2599  -15.6320   20.0593 H   0  0  0  0  0  0
  -26.7203  -32.5414   23.1083 H   0  0  0  0  0  0
  -25.0085  -33.9704   25.0413 H   0  0  0  0  0  0
  -22.7231  -31.3040   21.4004 H   0  0  0  0  0  0
  -23.3751  -35.9616   23.3301 H   0  0  0  0  0  0
  -24.3580  -36.8906   22.2052 H   0  0  0  0  0  0
  -23.7243  -37.6486   23.6663 H   0  0  0  0  0  0
  -26.1142  -31.5323   20.6137 H   0  0  0  0  0  0
  -26.8507  -30.8170   22.0156 H   0  0  0  0  0  0
  -28.1098  -28.9152   21.2283 H   0  0  0  0  0  0
  -25.9468  -25.9459   18.9397 H   0  0  0  0  0  0
  -23.9751  -27.3362   18.9691 H   0  0  0  0  0  0
  -23.7692  -30.5999   19.4050 H   0  0  0  0  0  0
  -22.7631  -29.2550   19.8505 H   0  0  0  0  0  0
  -25.1297  -36.1918   25.0818 H   0  0  0  0  0  0
  -20.9994  -28.3279   24.1388 H   0  0  0  0  0  0
  -20.5687  -26.2311   23.3613 H   0  0  0  0  0  0
  -21.6650  -26.7444   22.1198 H   0  0  0  0  0  0
  -19.6916  -25.6296   21.1247 H   0  0  0  0  0  0
  -19.6690  -27.3195   20.6742 H   0  0  0  0  0  0
  -17.4205  -26.6682   21.4029 H   0  0  0  0  0  0
  -18.0334  -26.0074   22.9024 H   0  0  0  0  0  0
  -19.7942  -30.7280   24.2262 H   0  0  0  0  0  0
  -17.5020  -31.6269   24.5167 H   0  0  0  0  0  0
  -15.5358  -30.2991   23.7655 H   0  0  0  0  0  0
  -15.8680  -28.0822   22.7073 H   0  0  0  0  0  0
  -24.5912  -30.7070   25.7777 H   0  0  0  0  0  0
  -24.8907  -32.2902   26.4849 H   0  0  0  0  0  0
  -25.8042  -30.8930   27.0238 H   0  0  0  0  0  0
  -26.2942  -29.6744   24.1232 H   0  0  0  0  0  0
  -27.4022  -29.7263   25.4742 H   0  0  0  0  0  0
  -27.8827  -30.4270   23.9476 H   0  0  0  0  0  0
  -27.2659  -33.3633   26.2065 H   0  0  0  0  0  0
  -28.3873  -32.6880   25.0338 H   0  0  0  0  0  0
  -28.0715  -31.8466   26.5435 H   0  0  0  0  0  0
  -28.2592  -38.0097   24.7513 H   0  0  0  0  0  0
  -28.1077  -36.2629   24.6292 H   0  0  0  0  0  0
  -27.2297  -37.1448   25.8869 H   0  0  0  0  0  0
  -20.9392  -29.8777   21.6869 H   0  0  0  0  0  0
  -26.0168  -38.2843   24.1411 H   0  0  0  0  0  0
  -29.4277  -21.0487   22.7147 H   0  0  0  0  0  0
  -30.2685  -18.9776   23.8410 H   0  0  0  0  0  0
  -31.2924  -17.9896   22.7761 H   0  0  0  0  0  0
  -29.6047  -17.5084   23.0902 H   0  0  0  0  0  0
  -27.5211  -22.1080   19.9057 H   0  0  0  0  0  0
  -28.8717  -22.2091   18.8374 H   0  0  0  0  0  0
  -31.4344  -17.3237   20.1472 H   0  0  0  0  0  0
  -30.1595  -17.2139   18.9689 H   0  0  0  0  0  0
  -29.9992  -23.8853   20.2921 H   0  0  0  0  0  0
  -28.8399  -23.6462   21.5645 H   0  0  0  0  0  0
  -27.0482  -24.6585   20.2838 H   0  0  0  0  0  0
  -28.0129  -24.8090   18.8423 H   0  0  0  0  0  0
  -29.2501  -19.6005   18.7840 H   0  0  0  0  0  0
  -28.9412  -15.7879   20.8587 H   0  0  0  0  0  0
  1 25  1  0  0  0
  1 30  2  0  0  0
  1 81  1  0  0  0
  2  3  1  0  0  0
  2 25  1  0  0  0
  2 82  1  0  0  0
  2 83  1  0  0  0
  3  4  1  0  0  0
  3 84  1  0  0  0
  3 85  1  0  0  0
  4  5  1  0  0  0
  4 86  1  0  0  0
  4 87  1  0  0  0
  5  6  1  0  0  0
  5 26  1  0  0  0
  5 88  1  0  0  0
  6 25  1  0  0  0
  6 89  1  0  0  0
  6 90  1  0  0  0
  7  8  2  0  0  0
  7 26  1  0  0  0
  7 29  1  0  0  0
  8  9  1  0  0  0
  8 22  1  0  0  0
  9 10  1  0  0  0
  9 27  2  0  0  0
 10 11  2  0  0  0
 10 15  1  0  0  0
 11 12  1  0  0  0
 11 91  1  0  0  0
 12 13  2  0  0  0
 12 92  1  0  0  0
 13 14  1  0  0  0
 13 31  1  0  0  0
 14 15  2  0  0  0
 14 93  1  0  0  0
 15 94  1  0  0  0
 16 17  2  0  0  0
 16 21  1  0  0  0
 16 31  1  0  0  0
 17 18  1  0  0  0
 17 95  1  0  0  0
 18 19  2  0  0  0
 18 96  1  0  0  0
 19 20  1  0  0  0
 19 24  1  0  0  0
 20 21  2  0  0  0
 20 97  1  0  0  0
 21 23  1  0  0  0
 22 28  1  0  0  0
 22 32  2  0  0  0
 26 27  1  0  0  0
 28 98  1  0  0  0
 28 99  1  0  0  0
 29100  1  0  0  0
 29101  1  0  0  0
 33 34  1  0  0  0
 33 66  1  0  0  0
 33 70  2  0  0  0
 34 36  1  0  0  0
 34 59  1  0  0  0
 34102  1  0  0  0
 35 44  2  0  0  0
 35 45  1  0  0  0
 35 68  1  0  0  0
 36 56  1  0  0  0
 36103  1  0  0  0
 37 39  1  0  0  0
 37 47  1  0  0  0
 37 66  1  0  0  0
 37104  1  0  0  0
 38 43  2  0  0  0
 38 46  1  0  0  0
 38 47  1  0  0  0
 39 64  1  0  0  0
 39 67  2  0  0  0
 40 52  1  0  0  0
 40 53  2  0  0  0
 40 58  1  0  0  0
 41105  1  0  0  0
 41106  1  0  0  0
 41107  1  0  0  0
 41 48  1  0  0  0
 42 43  1  0  0  0
 42 66  1  0  0  0
 42108  1  0  0  0
 42109  1  0  0  0
 43 44  1  0  0  0
 44110  1  0  0  0
 45 46  2  0  0  0
 45111  1  0  0  0
 46112  1  0  0  0
 47113  1  0  0  0
 47114  1  0  0  0
 48 56  1  0  0  0
 48 65  1  0  0  0
 48115  1  0  0  0
 49 50  1  0  0  0
 49 53  1  0  0  0
 49 64  1  0  0  0
 49116  1  0  0  0
 50 51  1  0  0  0
 50117  1  0  0  0
 50118  1  0  0  0
 51 52  1  0  0  0
 51119  1  0  0  0
 51120  1  0  0  0
 52121  1  0  0  0
 52122  1  0  0  0
 53 54  1  0  0  0
 54 55  2  0  0  0
 54123  1  0  0  0
 55 57  1  0  0  0
 55124  1  0  0  0
 56 69  2  0  0  0
 57 58  2  0  0  0
 57125  1  0  0  0
 58126  1  0  0  0
 59 60  1  0  0  0
 59 61  1  0  0  0
 59 62  1  0  0  0
 60127  1  0  0  0
 60128  1  0  0  0
 60129  1  0  0  0
 61130  1  0  0  0
 61131  1  0  0  0
 61132  1  0  0  0
 62133  1  0  0  0
 62134  1  0  0  0
 62135  1  0  0  0
 63 65  1  0  0  0
 63136  1  0  0  0
 63137  1  0  0  0
 63138  1  0  0  0
 64139  1  0  0  0
 65140  1  0  0  0
 68 78  1  0  0  0
 71 72  2  0  0  0
 71 79  1  0  0  0
 71141  1  0  0  0
 72 75  1  0  0  0
 72 80  1  0  0  0
 73 76  1  0  0  0
 73 79  1  0  0  0
 73 80  2  0  0  0
 74 79  1  0  0  0
 74142  1  0  0  0
 74143  1  0  0  0
 74144  1  0  0  0
 75 77  1  0  0  0
 75145  1  0  0  0
 75146  1  0  0  0
 76 81  1  0  0  0
 76147  1  0  0  0
 76148  1  0  0  0
 77 78  1  0  0  0
 77149  1  0  0  0
 77150  1  0  0  0
 78151  1  0  0  0
 78152  1  0  0  0
 80153  1  0  0  0
 81154  1  0  0  0
M  CHG  1  80   1
M  ISO  4   1 100  68 101  78 101  81 100
M  END
> <chiral flag>
0

> <version>
0

> <s_m_source_file>
/data/baiqing/PycharmProjects/Reinvent-master-3.2/result/LINK_invent/BTK/process_docking_weight1_custom_sum_contain_oxygen_bond_distance_aromatic_linkinvent_7_9_3/rearranged_h_0053.sdf

> <i_m_source_file_index>
83

> <r_mmod_Potential_Energy-OPLS-2005>
0.904853940010071

> <r_mmod_Stretch_Energy-OPLS-2005>
111.567733764648

> <r_mmod_Bend_Energy-OPLS-2005>
172.679321289062

> <r_mmod_Torsional_Energy-OPLS-2005>
209.201034545898

> <r_mmod_Improper_Torsional_Energy-OPLS-2005>
8.31764221191406

> <r_mmod_Van_der_Waal_Energy-OPLS-2005>
121.558265686035

> <r_mmod_Electrostatic_Energy-OPLS-2005>
-265.243591308594

> <r_mmod_Solvation_Energy-OPLS-2005>
-438.106109619141

> <b_mmod_Minimization_Converged-OPLS-2005>
0

> <r_mmod_RMS_Derivative-OPLS-2005>
0.427811414003372

$$$$
86
                    3D
 Structure written by MMmdl.
160168  0  0  1  0            999 V2000
  -30.6707  -14.4490   20.5412 C   0  0  0  0  0  0
  -30.4286  -12.2781   19.4306 C   0  0  0  0  0  0
  -29.4983  -12.4933   18.2160 C   0  0  0  0  0  0
  -28.0176  -12.3599   18.6249 C   0  0  0  0  0  0
  -27.6657  -13.1917   19.8865 C   0  0  2  0  0  0
  -28.7056  -12.9531   21.0089 C   0  0  0  0  0  0
  -25.2614  -13.8125   20.5681 C   0  0  0  0  0  0
  -24.1842  -13.0422   20.9165 C   0  0  0  0  0  0
  -24.6373  -11.6881   20.8725 C   0  0  0  0  0  0
  -23.9031  -10.4281   21.0404 C   0  0  0  0  0  0
  -24.3599   -9.4201   21.9181 C   0  0  0  0  0  0
  -23.6286   -8.2231   22.0745 C   0  0  0  0  0  0
  -22.4268   -8.0275   21.3538 C   0  0  0  0  0  0
  -21.9895   -9.0241   20.4634 C   0  0  0  0  0  0
  -22.7211  -10.2127   20.3047 C   0  0  0  0  0  0
  -21.6857   -6.0727   22.5272 C   0  0  0  0  0  0
  -21.4015   -6.5628   23.8204 C   0  0  0  0  0  0
  -21.3659   -5.6779   24.9164 C   0  0  0  0  0  0
  -21.6048   -4.3043   24.7216 C   0  0  0  0  0  0
  -21.8826   -3.8140   23.4334 C   0  0  0  0  0  0
  -21.9196   -4.6957   22.3393 C   0  0  0  0  0  0
  -22.7873  -13.5224   21.1846 C   0  0  0  0  0  0
  -22.1661   -4.2146   21.0974 F   0  0  0  0  0  0
  -21.5637   -3.4524   25.7726 F   0  0  0  0  0  0
  -30.0443  -13.2479   20.4666 N   0  0  0  0  0  0
  -26.3040  -12.9260   20.3420 N   0  0  0  0  0  0
  -25.9300  -11.6436   20.5790 N   0  0  0  0  0  0
  -22.0536  -12.8195   22.0406 N   0  0  0  0  0  0
  -25.4360  -15.1843   20.4060 N   0  0  0  0  0  0
  -31.8000  -14.6640   20.0903 O   0  0  0  0  0  0
  -21.6635   -6.8872   21.4238 O   0  0  0  0  0  0
  -22.3542  -14.5539   20.6713 O   0  0  0  0  0  0
  -24.6090  -31.8674   23.2098 C   0  0  0  0  0  0
  -25.9010  -32.4808   23.8372 C   0  0  1  0  0  0
  -27.2514  -27.4696   20.0904 C   0  0  0  0  0  0
  -25.5888  -33.8611   24.2313 N   0  0  0  0  0  0
  -23.3945  -30.4898   21.5459 C   0  0  2  0  0  0
  -24.8447  -28.9515   20.1100 C   0  0  0  0  0  0
  -22.7362  -29.4663   22.4969 C   0  0  0  0  0  0
  -18.0265  -28.1390   22.8492 C   0  0  0  0  0  0
  -24.1488  -36.7332   23.2633 C   0  0  0  0  0  0
  -25.9142  -30.8458   21.3530 C   0  0  0  0  0  0
  -25.9947  -29.4791   20.7067 C   0  0  0  0  0  0
  -27.1929  -28.7402   20.6989 C   0  0  0  0  0  0
  -26.0852  -26.9389   19.4936 C   0  0  0  0  0  0
  -24.8824  -27.6798   19.5038 C   0  0  0  0  0  0
  -23.6023  -29.8129   20.1607 C   0  0  0  0  0  0
  -25.4101  -36.3101   24.0326 C   0  0  1  0  0  0
  -20.5847  -28.3669   23.1327 C   0  0  2  0  0  0
  -20.6753  -26.9408   22.5422 C   0  0  0  0  0  0
  -19.5736  -26.6391   21.5216 C   0  0  0  0  0  0
  -18.1915  -26.7936   22.1627 C   0  0  0  0  0  0
  -19.1512  -28.8843   23.2914 C   0  0  0  0  0  0
  -18.9445  -30.1452   23.8920 C   0  0  0  0  0  0
  -17.6448  -30.6595   24.0579 C   0  0  0  0  0  0
  -25.9024  -34.9467   23.5116 C   0  0  0  0  0  0
  -16.5341  -29.9109   23.6319 C   0  0  0  0  0  0
  -16.7255  -28.6533   23.0323 C   0  0  0  0  0  0
  -26.4468  -31.6576   25.0683 C   0  0  0  0  0  0
  -25.3771  -31.3682   26.1456 C   0  0  0  0  0  0
  -27.0292  -30.3018   24.6039 C   0  0  0  0  0  0
  -27.6039  -32.4292   25.7473 C   0  0  0  0  0  0
  -27.5576  -37.1816   24.8458 C   0  0  0  0  0  0
  -21.4094  -29.3046   22.3731 N   0  0  0  0  0  0
  -26.4285  -37.3782   23.9405 N   0  0  0  0  0  0
  -24.6570  -31.0813   22.0966 N   0  0  0  0  0  0
  -23.4158  -28.8200   23.2986 O   0  0  0  0  0  0
  -28.4640  -26.8250   20.1461 O   0  0  0  0  0  0
  -26.5585  -34.8919   22.4672 O   0  0  0  0  0  0
  -23.5304  -32.1406   23.7532 O   0  0  0  0  0  0
  -29.6638  -24.5893   17.7183 C   0  0  0  0  0  0
  -29.0821  -24.5016   20.3496 C   0  0  0  0  0  0
  -30.0815  -23.5055   18.5335 C   0  0  0  0  0  0
  -28.7496  -25.6237   19.5525 C   0  0  0  0  0  0
  -31.8506  -20.4279   20.1566 C   0  0  0  0  0  0
  -31.0887  -22.4942   18.0081 C   0  0  0  0  0  0
  -30.2354  -17.9482   20.3675 C   0  0  0  0  0  0
  -29.6466  -16.5902   19.9329 C   0  0  0  0  0  0
  -30.6657  -21.0099   18.0384 C   0  0  0  0  0  0
  -30.0898  -18.9484   19.1890 C   0  0  0  0  0  0
  -29.7549  -23.4337   19.8475 N   0  0  0  0  0  0
  -29.0035  -25.6589   18.2227 N   0  0  0  0  0  0
  -29.8459  -15.4618   20.8492 N   0  0  0  0  0  0
  -30.5895  -20.3442   19.3763 N   0  3  1  0  0  0
  -31.4718  -12.3809   19.1268 H   0  0  0  0  0  0
  -30.3310  -11.2622   19.8164 H   0  0  0  0  0  0
  -29.7321  -11.7729   17.4312 H   0  0  0  0  0  0
  -29.6709  -13.4818   17.7869 H   0  0  0  0  0  0
  -27.8183  -11.3033   18.8124 H   0  0  0  0  0  0
  -27.3703  -12.6469   17.7960 H   0  0  0  0  0  0
  -27.7087  -14.2395   19.5928 H   0  0  0  0  0  0
  -28.6699  -11.9150   21.3432 H   0  0  0  0  0  0
  -28.4761  -13.5507   21.8932 H   0  0  0  0  0  0
  -25.2756   -9.5669   22.4735 H   0  0  0  0  0  0
  -24.0011   -7.4607   22.7442 H   0  0  0  0  0  0
  -21.0835   -8.8734   19.8920 H   0  0  0  0  0  0
  -22.3675  -10.9657   19.6139 H   0  0  0  0  0  0
  -21.2006   -7.6133   23.9695 H   0  0  0  0  0  0
  -21.1482   -6.0513   25.9061 H   0  0  0  0  0  0
  -22.0616   -2.7605   23.2825 H   0  0  0  0  0  0
  -22.4173  -11.9836   22.4747 H   0  0  0  0  0  0
  -21.1159  -13.1204   22.2648 H   0  0  0  0  0  0
  -24.6749  -15.8461   20.5148 H   0  0  0  0  0  0
  -26.2894  -15.6180   20.0794 H   0  0  0  0  0  0
  -26.7080  -32.5544   23.1141 H   0  0  0  0  0  0
  -25.0054  -33.9775   25.0473 H   0  0  0  0  0  0
  -22.6823  -31.3053   21.4037 H   0  0  0  0  0  0
  -23.3720  -35.9695   23.3295 H   0  0  0  0  0  0
  -24.3586  -36.8953   22.2046 H   0  0  0  0  0  0
  -23.7280  -37.6553   23.6652 H   0  0  0  0  0  0
  -26.0101  -31.6101   20.5797 H   0  0  0  0  0  0
  -26.8076  -30.9100   21.9625 H   0  0  0  0  0  0
  -28.0815  -29.1464   21.1628 H   0  0  0  0  0  0
  -26.0996  -25.9650   19.0256 H   0  0  0  0  0  0
  -23.9955  -27.2685   19.0424 H   0  0  0  0  0  0
  -23.7056  -30.5842   19.3967 H   0  0  0  0  0  0
  -22.7285  -29.2268   19.8685 H   0  0  0  0  0  0
  -25.1279  -36.1947   25.0819 H   0  0  0  0  0  0
  -20.9952  -28.3243   24.1441 H   0  0  0  0  0  0
  -20.5649  -26.2283   23.3610 H   0  0  0  0  0  0
  -21.6627  -26.7451   22.1218 H   0  0  0  0  0  0
  -19.6896  -25.6301   21.1245 H   0  0  0  0  0  0
  -19.6680  -27.3206   20.6750 H   0  0  0  0  0  0
  -17.4181  -26.6683   21.4033 H   0  0  0  0  0  0
  -18.0322  -26.0080   22.9026 H   0  0  0  0  0  0
  -19.7924  -30.7269   24.2289 H   0  0  0  0  0  0
  -17.5011  -31.6271   24.5186 H   0  0  0  0  0  0
  -15.5347  -30.3026   23.7626 H   0  0  0  0  0  0
  -15.8658  -28.0881   22.6985 H   0  0  0  0  0  0
  -24.5932  -30.7028   25.7819 H   0  0  0  0  0  0
  -24.8986  -32.2845   26.4918 H   0  0  0  0  0  0
  -25.8159  -30.8851   27.0196 H   0  0  0  0  0  0
  -26.2822  -29.6784   24.1107 H   0  0  0  0  0  0
  -27.4077  -29.7236   25.4481 H   0  0  0  0  0  0
  -27.8645  -30.4319   23.9157 H   0  0  0  0  0  0
  -27.2625  -33.3557   26.2096 H   0  0  0  0  0  0
  -28.3847  -32.6901   25.0320 H   0  0  0  0  0  0
  -28.0706  -31.8387   26.5366 H   0  0  0  0  0  0
  -28.2575  -38.0125   24.7484 H   0  0  0  0  0  0
  -28.1080  -36.2651   24.6287 H   0  0  0  0  0  0
  -27.2298  -37.1475   25.8862 H   0  0  0  0  0  0
  -20.9227  -29.8810   21.7011 H   0  0  0  0  0  0
  -26.0163  -38.2852   24.1413 H   0  0  0  0  0  0
  -29.9502  -24.6520   16.6783 H   0  0  0  0  0  0
  -28.9163  -24.5160   21.4175 H   0  0  0  0  0  0
  -32.1578  -21.4585   20.3278 H   0  0  0  0  0  0
  -32.6648  -19.9024   19.6568 H   0  0  0  0  0  0
  -31.7270  -19.9979   21.1498 H   0  0  0  0  0  0
  -32.0424  -22.6540   18.5087 H   0  0  0  0  0  0
  -31.2919  -22.7507   16.9677 H   0  0  0  0  0  0
  -31.2848  -17.8107   20.6294 H   0  0  0  0  0  0
  -29.7232  -18.3190   21.2556 H   0  0  0  0  0  0
  -30.0328  -16.3239   18.9458 H   0  0  0  0  0  0
  -28.5712  -16.7028   19.7873 H   0  0  0  0  0  0
  -31.3850  -20.4580   17.4309 H   0  0  0  0  0  0
  -29.7053  -20.9096   17.5292 H   0  0  0  0  0  0
  -29.0393  -19.0079   18.8984 H   0  0  0  0  0  0
  -30.6113  -18.5117   18.3351 H   0  0  0  0  0  0
  -29.0081  -15.1582   21.3243 H   0  0  0  0  0  0
  -29.8947  -20.8463   19.9129 H   0  0  0  0  0  0
  1 25  1  0  0  0
  1 30  2  0  0  0
  1 83  1  0  0  0
  2  3  1  0  0  0
  2 25  1  0  0  0
  2 85  1  0  0  0
  2 86  1  0  0  0
  3  4  1  0  0  0
  3 87  1  0  0  0
  3 88  1  0  0  0
  4  5  1  0  0  0
  4 89  1  0  0  0
  4 90  1  0  0  0
  5  6  1  0  0  0
  5 26  1  0  0  0
  5 91  1  0  0  0
  6 25  1  0  0  0
  6 92  1  0  0  0
  6 93  1  0  0  0
  7  8  2  0  0  0
  7 26  1  0  0  0
  7 29  1  0  0  0
  8  9  1  0  0  0
  8 22  1  0  0  0
  9 10  1  0  0  0
  9 27  2  0  0  0
 10 11  2  0  0  0
 10 15  1  0  0  0
 11 12  1  0  0  0
 11 94  1  0  0  0
 12 13  2  0  0  0
 12 95  1  0  0  0
 13 14  1  0  0  0
 13 31  1  0  0  0
 14 15  2  0  0  0
 14 96  1  0  0  0
 15 97  1  0  0  0
 16 17  2  0  0  0
 16 21  1  0  0  0
 16 31  1  0  0  0
 17 18  1  0  0  0
 17 98  1  0  0  0
 18 19  2  0  0  0
 18 99  1  0  0  0
 19 20  1  0  0  0
 19 24  1  0  0  0
 20 21  2  0  0  0
 20100  1  0  0  0
 21 23  1  0  0  0
 22 28  1  0  0  0
 22 32  2  0  0  0
 26 27  1  0  0  0
 28101  1  0  0  0
 28102  1  0  0  0
 29103  1  0  0  0
 29104  1  0  0  0
 33 34  1  0  0  0
 33 66  1  0  0  0
 33 70  2  0  0  0
 34 36  1  0  0  0
 34 59  1  0  0  0
 34105  1  0  0  0
 35 44  2  0  0  0
 35 45  1  0  0  0
 35 68  1  0  0  0
 36 56  1  0  0  0
 36106  1  0  0  0
 37 39  1  0  0  0
 37 47  1  0  0  0
 37 66  1  0  0  0
 37107  1  0  0  0
 38 43  2  0  0  0
 38 46  1  0  0  0
 38 47  1  0  0  0
 39 64  1  0  0  0
 39 67  2  0  0  0
 40 52  1  0  0  0
 40 53  2  0  0  0
 40 58  1  0  0  0
 41108  1  0  0  0
 41109  1  0  0  0
 41110  1  0  0  0
 41 48  1  0  0  0
 42 43  1  0  0  0
 42 66  1  0  0  0
 42111  1  0  0  0
 42112  1  0  0  0
 43 44  1  0  0  0
 44113  1  0  0  0
 45 46  2  0  0  0
 45114  1  0  0  0
 46115  1  0  0  0
 47116  1  0  0  0
 47117  1  0  0  0
 48 56  1  0  0  0
 48 65  1  0  0  0
 48118  1  0  0  0
 49 50  1  0  0  0
 49 53  1  0  0  0
 49 64  1  0  0  0
 49119  1  0  0  0
 50 51  1  0  0  0
 50120  1  0  0  0
 50121  1  0  0  0
 51 52  1  0  0  0
 51122  1  0  0  0
 51123  1  0  0  0
 52124  1  0  0  0
 52125  1  0  0  0
 53 54  1  0  0  0
 54 55  2  0  0  0
 54126  1  0  0  0
 55 57  1  0  0  0
 55127  1  0  0  0
 56 69  2  0  0  0
 57 58  2  0  0  0
 57128  1  0  0  0
 58129  1  0  0  0
 59 60  1  0  0  0
 59 61  1  0  0  0
 59 62  1  0  0  0
 60130  1  0  0  0
 60131  1  0  0  0
 60132  1  0  0  0
 61133  1  0  0  0
 61134  1  0  0  0
 61135  1  0  0  0
 62136  1  0  0  0
 62137  1  0  0  0
 62138  1  0  0  0
 63 65  1  0  0  0
 63139  1  0  0  0
 63140  1  0  0  0
 63141  1  0  0  0
 64142  1  0  0  0
 65143  1  0  0  0
 68 74  1  0  0  0
 71 73  2  0  0  0
 71 82  1  0  0  0
 71144  1  0  0  0
 72 74  1  0  0  0
 72 81  2  0  0  0
 72145  1  0  0  0
 73 76  1  0  0  0
 73 81  1  0  0  0
 74 82  2  0  0  0
 75146  1  0  0  0
 75147  1  0  0  0
 75148  1  0  0  0
 75 84  1  0  0  0
 76 79  1  0  0  0
 76149  1  0  0  0
 76150  1  0  0  0
 77 78  1  0  0  0
 77 80  1  0  0  0
 77151  1  0  0  0
 77152  1  0  0  0
 78 83  1  0  0  0
 78153  1  0  0  0
 78154  1  0  0  0
 79 84  1  0  0  0
 79155  1  0  0  0
 79156  1  0  0  0
 80 84  1  0  0  0
 80157  1  0  0  0
 80158  1  0  0  0
 83159  1  0  0  0
 84160  1  0  0  0
M  CHG  1  84   1
M  ISO  4   1 100  68 101  74 101  83 100
M  END
> <chiral flag>
0

> <version>
0

> <s_m_source_file>
/data/baiqing/PycharmProjects/Reinvent-master-3.2/result/LINK_invent/BTK/process_docking_weight1_custom_sum_contain_oxygen_bond_distance_aromatic_linkinvent_7_9_3/rearranged_h_0053.sdf

> <i_m_source_file_index>
84

> <r_mmod_Potential_Energy-OPLS-2005>
-45.7565078735352

> <r_mmod_Stretch_Energy-OPLS-2005>
36.289119720459

> <r_mmod_Bend_Energy-OPLS-2005>
119.290687561035

> <r_mmod_Torsional_Energy-OPLS-2005>
260.039916992188

> <r_mmod_Improper_Torsional_Energy-OPLS-2005>
14.8920316696167

> <r_mmod_Van_der_Waal_Energy-OPLS-2005>
161.878540039062

> <r_mmod_Electrostatic_Energy-OPLS-2005>
-196.043609619141

> <r_mmod_Solvation_Energy-OPLS-2005>
-455.147552490234

> <b_mmod_Minimization_Converged-OPLS-2005>
0

> <r_mmod_RMS_Derivative-OPLS-2005>
1.7915940284729

$$$$
87
                    3D
 Structure written by MMmdl.
148156  0  0  1  0            999 V2000
  -30.5831  -14.8765   20.4271 C   0  0  0  0  0  0
  -30.4299  -12.5410   19.4919 C   0  0  0  0  0  0
  -29.5134  -12.5168   18.2487 C   0  0  0  0  0  0
  -28.0443  -12.3195   18.6660 C   0  0  0  0  0  0
  -27.6297  -13.2461   19.8399 C   0  0  2  0  0  0
  -28.6729  -13.2555   20.9772 C   0  0  0  0  0  0
  -25.2455  -13.8218   20.5712 C   0  0  0  0  0  0
  -24.1771  -13.0440   20.9225 C   0  0  0  0  0  0
  -24.6385  -11.6927   20.8756 C   0  0  0  0  0  0
  -23.9072  -10.4293   21.0408 C   0  0  0  0  0  0
  -24.3623   -9.4206   21.9184 C   0  0  0  0  0  0
  -23.6295   -8.2243   22.0753 C   0  0  0  0  0  0
  -22.4276   -8.0281   21.3544 C   0  0  0  0  0  0
  -21.9915   -9.0254   20.4645 C   0  0  0  0  0  0
  -22.7246  -10.2132   20.3056 C   0  0  0  0  0  0
  -21.6854   -6.0732   22.5275 C   0  0  0  0  0  0
  -21.4016   -6.5636   23.8210 C   0  0  0  0  0  0
  -21.3660   -5.6792   24.9173 C   0  0  0  0  0  0
  -21.6046   -4.3054   24.7226 C   0  0  0  0  0  0
  -21.8819   -3.8142   23.4347 C   0  0  0  0  0  0
  -21.9193   -4.6957   22.3403 C   0  0  0  0  0  0
  -22.7792  -13.5208   21.1886 C   0  0  0  0  0  0
  -22.1661   -4.2143   21.0980 F   0  0  0  0  0  0
  -21.5629   -3.4538   25.7740 F   0  0  0  0  0  0
  -29.9562  -13.6389   20.3783 N   0  0  0  0  0  0
  -26.2880  -12.9448   20.3252 N   0  0  0  0  0  0
  -25.9315  -11.6577   20.5745 N   0  0  0  0  0  0
  -22.0448  -12.8190   22.0444 N   0  0  0  0  0  0
  -25.4124  -15.1947   20.4138 N   0  0  0  0  0  0
  -31.7868  -14.9191   20.1565 O   0  0  0  0  0  0
  -21.6644   -6.8875   21.4238 O   0  0  0  0  0  0
  -22.3474  -14.5512   20.6734 O   0  0  0  0  0  0
  -24.6396  -31.8474   23.1902 C   0  0  0  0  0  0
  -25.9185  -32.4712   23.8280 C   0  0  1  0  0  0
  -27.2163  -27.1725   20.1476 C   0  0  0  0  0  0
  -25.5943  -33.8515   24.2200 N   0  0  0  0  0  0
  -23.4409  -30.4675   21.5355 C   0  0  2  0  0  0
  -24.8893  -28.8990   20.1095 C   0  0  0  0  0  0
  -22.7546  -29.4566   22.4873 C   0  0  0  0  0  0
  -18.0300  -28.1391   22.8481 C   0  0  0  0  0  0
  -24.1490  -36.7262   23.2642 C   0  0  0  0  0  0
  -25.9936  -30.7330   21.3829 C   0  0  0  0  0  0
  -26.0651  -29.3475   20.7244 C   0  0  0  0  0  0
  -27.2307  -28.5000   20.7256 C   0  0  0  0  0  0
  -26.0153  -26.8134   19.4978 C   0  0  0  0  0  0
  -24.8751  -27.6443   19.4815 C   0  0  0  0  0  0
  -23.6640  -29.7968   20.1543 C   0  0  0  0  0  0
  -25.4123  -36.3042   24.0314 C   0  0  1  0  0  0
  -20.5909  -28.3714   23.1242 C   0  0  2  0  0  0
  -20.6785  -26.9421   22.5403 C   0  0  0  0  0  0
  -19.5759  -26.6378   21.5211 C   0  0  0  0  0  0
  -18.1940  -26.7932   22.1622 C   0  0  0  0  0  0
  -19.1556  -28.8871   23.2854 C   0  0  0  0  0  0
  -18.9476  -30.1468   23.8879 C   0  0  0  0  0  0
  -17.6476  -30.6592   24.0560 C   0  0  0  0  0  0
  -25.9068  -34.9417   23.5066 C   0  0  0  0  0  0
  -16.5365  -29.9085   23.6336 C   0  0  0  0  0  0
  -16.7287  -28.6501   23.0361 C   0  0  0  0  0  0
  -26.4516  -31.6575   25.0717 C   0  0  0  0  0  0
  -25.3707  -31.3757   26.1418 C   0  0  0  0  0  0
  -27.0382  -30.2976   24.6277 C   0  0  0  0  0  0
  -27.6053  -32.4338   25.7500 C   0  0  0  0  0  0
  -27.5578  -37.1785   24.8465 C   0  0  0  0  0  0
  -21.4242  -29.3047   22.3620 N   0  0  0  0  0  0
  -26.4289  -37.3752   23.9406 N   0  0  0  0  0  0
  -24.7110  -31.0362   22.0918 N   0  0  0  0  0  0
  -23.4208  -28.8115   23.3010 O   0  0  0  0  0  0
  -28.2839  -26.2185   20.2197 O   0  0  0  0  0  0
  -26.5656  -34.8913   22.4645 O   0  0  0  0  0  0
  -23.5521  -32.1332   23.7141 O   0  0  0  0  0  0
  -29.2334  -19.7850   21.5151 C   0  0  0  0  0  0
  -29.6704  -19.8862   19.2475 C   0  0  0  0  0  0
  -29.6574  -19.0215   20.3859 C   0  0  0  0  0  0
  -29.0534  -21.8925   20.3824 C   0  0  0  0  0  0
  -30.3947  -17.5452   20.4125 C   0  0  0  0  0  0
  -29.1592  -23.5318   20.4734 C   0  0  0  0  0  0
  -28.0351  -24.6957   20.0940 C   0  0  0  0  0  0
  -28.9525  -21.1458   21.5054 N   0  0  0  0  0  0
  -29.3909  -21.2441   19.2504 N   0  0  0  0  0  0
  -29.8512  -16.0824   20.5568 N   0  0  0  0  0  0
  -31.4681  -12.6762   19.1840 H   0  0  0  0  0  0
  -30.3983  -11.5846   20.0163 H   0  0  0  0  0  0
  -29.8192  -11.7217   17.5673 H   0  0  0  0  0  0
  -29.6172  -13.4522   17.6961 H   0  0  0  0  0  0
  -27.9264  -11.2762   18.9614 H   0  0  0  0  0  0
  -27.3829  -12.4693   17.8118 H   0  0  0  0  0  0
  -27.6004  -14.2530   19.4223 H   0  0  0  0  0  0
  -28.7411  -12.2779   21.4569 H   0  0  0  0  0  0
  -28.3862  -13.9644   21.7557 H   0  0  0  0  0  0
  -25.2764   -9.5682   22.4763 H   0  0  0  0  0  0
  -24.0000   -7.4635   22.7472 H   0  0  0  0  0  0
  -21.0845   -8.8775   19.8952 H   0  0  0  0  0  0
  -22.3701  -10.9673   19.6167 H   0  0  0  0  0  0
  -21.2010   -7.6145   23.9709 H   0  0  0  0  0  0
  -21.1484   -6.0524   25.9077 H   0  0  0  0  0  0
  -22.0597   -2.7603   23.2852 H   0  0  0  0  0  0
  -22.4078  -11.9854   22.4826 H   0  0  0  0  0  0
  -21.1064  -13.1203   22.2661 H   0  0  0  0  0  0
  -24.6423  -15.8456   20.5251 H   0  0  0  0  0  0
  -26.2551  -15.6361   20.0690 H   0  0  0  0  0  0
  -26.7256  -32.5333   23.1015 H   0  0  0  0  0  0
  -25.0073  -33.9632   25.0336 H   0  0  0  0  0  0
  -22.7418  -31.2926   21.3835 H   0  0  0  0  0  0
  -23.3757  -35.9589   23.3294 H   0  0  0  0  0  0
  -24.3575  -36.8904   22.2060 H   0  0  0  0  0  0
  -23.7239  -37.6452   23.6687 H   0  0  0  0  0  0
  -26.1449  -31.4902   20.6122 H   0  0  0  0  0  0
  -26.8653  -30.7817   22.0237 H   0  0  0  0  0  0
  -28.1282  -28.8377   21.2248 H   0  0  0  0  0  0
  -25.9269  -25.8527   19.0134 H   0  0  0  0  0  0
  -23.9764  -27.2957   18.9913 H   0  0  0  0  0  0
  -23.7955  -30.5713   19.3979 H   0  0  0  0  0  0
  -22.7792  -29.2361   19.8474 H   0  0  0  0  0  0
  -25.1308  -36.1877   25.0806 H   0  0  0  0  0  0
  -21.0003  -28.3306   24.1363 H   0  0  0  0  0  0
  -20.5677  -26.2329   23.3619 H   0  0  0  0  0  0
  -21.6654  -26.7429   22.1204 H   0  0  0  0  0  0
  -19.6919  -25.6283   21.1257 H   0  0  0  0  0  0
  -19.6696  -27.3174   20.6730 H   0  0  0  0  0  0
  -17.4208  -26.6676   21.4028 H   0  0  0  0  0  0
  -18.0339  -26.0077   22.9020 H   0  0  0  0  0  0
  -19.7954  -30.7284   24.2243 H   0  0  0  0  0  0
  -17.5032  -31.6274   24.5159 H   0  0  0  0  0  0
  -15.5365  -30.2984   23.7671 H   0  0  0  0  0  0
  -15.8685  -28.0813   22.7094 H   0  0  0  0  0  0
  -24.5891  -30.7101   25.7741 H   0  0  0  0  0  0
  -24.8893  -32.2936   26.4798 H   0  0  0  0  0  0
  -25.7995  -30.8963   27.0227 H   0  0  0  0  0  0
  -26.2996  -29.6698   24.1281 H   0  0  0  0  0  0
  -27.4003  -29.7275   25.4843 H   0  0  0  0  0  0
  -27.8899  -30.4216   23.9583 H   0  0  0  0  0  0
  -27.2655  -33.3664   26.2015 H   0  0  0  0  0  0
  -28.3899  -32.6854   25.0352 H   0  0  0  0  0  0
  -28.0683  -31.8504   26.5466 H   0  0  0  0  0  0
  -28.2584  -38.0093   24.7521 H   0  0  0  0  0  0
  -28.1083  -36.2621   24.6283 H   0  0  0  0  0  0
  -27.2294  -37.1426   25.8866 H   0  0  0  0  0  0
  -20.9444  -29.8766   21.6810 H   0  0  0  0  0  0
  -26.0158  -38.2818   24.1418 H   0  0  0  0  0  0
  -29.2161  -19.3197   22.4896 H   0  0  0  0  0  0
  -30.0198  -19.5009   18.3009 H   0  0  0  0  0  0
  -31.1441  -17.6327   21.2008 H   0  0  0  0  0  0
  -30.9890  -17.5230   19.4972 H   0  0  0  0  0  0
  -30.0491  -23.7813   19.8963 H   0  0  0  0  0  0
  -29.4508  -23.7350   21.5035 H   0  0  0  0  0  0
  -27.1472  -24.4727   20.6867 H   0  0  0  0  0  0
  -27.7484  -24.5139   19.0584 H   0  0  0  0  0  0
  -28.8621  -15.9735   20.7253 H   0  0  0  0  0  0
  1 25  1  0  0  0
  1 30  2  0  0  0
  1 80  1  0  0  0
  2  3  1  0  0  0
  2 25  1  0  0  0
  2 81  1  0  0  0
  2 82  1  0  0  0
  3  4  1  0  0  0
  3 83  1  0  0  0
  3 84  1  0  0  0
  4  5  1  0  0  0
  4 85  1  0  0  0
  4 86  1  0  0  0
  5  6  1  0  0  0
  5 26  1  0  0  0
  5 87  1  0  0  0
  6 25  1  0  0  0
  6 88  1  0  0  0
  6 89  1  0  0  0
  7  8  2  0  0  0
  7 26  1  0  0  0
  7 29  1  0  0  0
  8  9  1  0  0  0
  8 22  1  0  0  0
  9 10  1  0  0  0
  9 27  2  0  0  0
 10 11  2  0  0  0
 10 15  1  0  0  0
 11 12  1  0  0  0
 11 90  1  0  0  0
 12 13  2  0  0  0
 12 91  1  0  0  0
 13 14  1  0  0  0
 13 31  1  0  0  0
 14 15  2  0  0  0
 14 92  1  0  0  0
 15 93  1  0  0  0
 16 17  2  0  0  0
 16 21  1  0  0  0
 16 31  1  0  0  0
 17 18  1  0  0  0
 17 94  1  0  0  0
 18 19  2  0  0  0
 18 95  1  0  0  0
 19 20  1  0  0  0
 19 24  1  0  0  0
 20 21  2  0  0  0
 20 96  1  0  0  0
 21 23  1  0  0  0
 22 28  1  0  0  0
 22 32  2  0  0  0
 26 27  1  0  0  0
 28 97  1  0  0  0
 28 98  1  0  0  0
 29 99  1  0  0  0
 29100  1  0  0  0
 33 34  1  0  0  0
 33 66  1  0  0  0
 33 70  2  0  0  0
 34 36  1  0  0  0
 34 59  1  0  0  0
 34101  1  0  0  0
 35 44  2  0  0  0
 35 45  1  0  0  0
 35 68  1  0  0  0
 36 56  1  0  0  0
 36102  1  0  0  0
 37 39  1  0  0  0
 37 47  1  0  0  0
 37 66  1  0  0  0
 37103  1  0  0  0
 38 43  2  0  0  0
 38 46  1  0  0  0
 38 47  1  0  0  0
 39 64  1  0  0  0
 39 67  2  0  0  0
 40 52  1  0  0  0
 40 53  2  0  0  0
 40 58  1  0  0  0
 41104  1  0  0  0
 41105  1  0  0  0
 41106  1  0  0  0
 41 48  1  0  0  0
 42 43  1  0  0  0
 42 66  1  0  0  0
 42107  1  0  0  0
 42108  1  0  0  0
 43 44  1  0  0  0
 44109  1  0  0  0
 45 46  2  0  0  0
 45110  1  0  0  0
 46111  1  0  0  0
 47112  1  0  0  0
 47113  1  0  0  0
 48 56  1  0  0  0
 48 65  1  0  0  0
 48114  1  0  0  0
 49 50  1  0  0  0
 49 53  1  0  0  0
 49 64  1  0  0  0
 49115  1  0  0  0
 50 51  1  0  0  0
 50116  1  0  0  0
 50117  1  0  0  0
 51 52  1  0  0  0
 51118  1  0  0  0
 51119  1  0  0  0
 52120  1  0  0  0
 52121  1  0  0  0
 53 54  1  0  0  0
 54 55  2  0  0  0
 54122  1  0  0  0
 55 57  1  0  0  0
 55123  1  0  0  0
 56 69  2  0  0  0
 57 58  2  0  0  0
 57124  1  0  0  0
 58125  1  0  0  0
 59 60  1  0  0  0
 59 61  1  0  0  0
 59 62  1  0  0  0
 60126  1  0  0  0
 60127  1  0  0  0
 60128  1  0  0  0
 61129  1  0  0  0
 61130  1  0  0  0
 61131  1  0  0  0
 62132  1  0  0  0
 62133  1  0  0  0
 62134  1  0  0  0
 63 65  1  0  0  0
 63135  1  0  0  0
 63136  1  0  0  0
 63137  1  0  0  0
 64138  1  0  0  0
 65139  1  0  0  0
 68 77  1  0  0  0
 71 73  2  0  0  0
 71 78  1  0  0  0
 71140  1  0  0  0
 72 73  1  0  0  0
 72 79  2  0  0  0
 72141  1  0  0  0
 73 75  1  0  0  0
 74 76  1  0  0  0
 74 78  2  0  0  0
 74 79  1  0  0  0
 75 80  1  0  0  0
 75142  1  0  0  0
 75143  1  0  0  0
 76 77  1  0  0  0
 76144  1  0  0  0
 76145  1  0  0  0
 77146  1  0  0  0
 77147  1  0  0  0
 80148  1  0  0  0
M  ISO  4   1 100  68 101  77 101  80 100
M  END
> <chiral flag>
0

> <version>
0

> <s_m_source_file>
/data/baiqing/PycharmProjects/Reinvent-master-3.2/result/LINK_invent/BTK/process_docking_weight1_custom_sum_contain_oxygen_bond_distance_aromatic_linkinvent_7_9_3/rearranged_h_0053.sdf

> <i_m_source_file_index>
85

> <r_mmod_Potential_Energy-OPLS-2005>
47.5587043762207

> <r_mmod_Stretch_Energy-OPLS-2005>
199.286880493164

> <r_mmod_Bend_Energy-OPLS-2005>
250.834823608398

> <r_mmod_Torsional_Energy-OPLS-2005>
210.975341796875

> <r_mmod_Improper_Torsional_Energy-OPLS-2005>
10.3838357925415

> <r_mmod_Van_der_Waal_Energy-OPLS-2005>
140.951095581055

> <r_mmod_Electrostatic_Energy-OPLS-2005>
-677.906311035156

> <r_mmod_Solvation_Energy-OPLS-2005>
-239.61491394043

> <b_mmod_Minimization_Converged-OPLS-2005>
0

> <r_mmod_RMS_Derivative-OPLS-2005>
0.575472831726074

$$$$
88
                    3D
 Structure written by MMmdl.
164172  0  0  1  0            999 V2000
  -30.7352  -14.4352   20.6597 C   0  0  0  0  0  0
  -30.4219  -12.3259   19.4048 C   0  0  0  0  0  0
  -29.4880  -12.5318   18.1949 C   0  0  0  0  0  0
  -28.0114  -12.3646   18.6053 C   0  0  0  0  0  0
  -27.6612  -13.1853   19.8720 C   0  0  2  0  0  0
  -28.7047  -12.9114   20.9807 C   0  0  0  0  0  0
  -25.2617  -13.8105   20.5682 C   0  0  0  0  0  0
  -24.1856  -13.0415   20.9208 C   0  0  0  0  0  0
  -24.6377  -11.6870   20.8735 C   0  0  0  0  0  0
  -23.9043  -10.4275   21.0388 C   0  0  0  0  0  0
  -24.3604   -9.4216   21.9178 C   0  0  0  0  0  0
  -23.6293   -8.2249   22.0757 C   0  0  0  0  0  0
  -22.4267   -8.0285   21.3551 C   0  0  0  0  0  0
  -21.9897   -9.0245   20.4638 C   0  0  0  0  0  0
  -22.7235  -10.2117   20.3011 C   0  0  0  0  0  0
  -21.6857   -6.0742   22.5292 C   0  0  0  0  0  0
  -21.4023   -6.5640   23.8226 C   0  0  0  0  0  0
  -21.3646   -5.6784   24.9184 C   0  0  0  0  0  0
  -21.6025   -4.3050   24.7227 C   0  0  0  0  0  0
  -21.8807   -3.8147   23.4350 C   0  0  0  0  0  0
  -21.9191   -4.6969   22.3407 C   0  0  0  0  0  0
  -22.7871  -13.5225   21.1805 C   0  0  0  0  0  0
  -22.1660   -4.2151   21.0987 F   0  0  0  0  0  0
  -21.5614   -3.4532   25.7742 F   0  0  0  0  0  0
  -30.0310  -13.2792   20.4606 N   0  0  0  0  0  0
  -26.3011  -12.9225   20.3329 N   0  0  0  0  0  0
  -25.9277  -11.6404   20.5720 N   0  0  0  0  0  0
  -22.0455  -12.8172   22.0265 N   0  0  0  0  0  0
  -25.4340  -15.1817   20.4023 N   0  0  0  0  0  0
  -31.8077  -14.6496   20.0912 O   0  0  0  0  0  0
  -21.6629   -6.8885   21.4253 O   0  0  0  0  0  0
  -22.3589  -14.5540   20.6656 O   0  0  0  0  0  0
  -24.6110  -31.8693   23.2121 C   0  0  0  0  0  0
  -25.9020  -32.4830   23.8399 C   0  0  1  0  0  0
  -27.2419  -27.4680   20.0932 C   0  0  0  0  0  0
  -25.5892  -33.8626   24.2336 N   0  0  0  0  0  0
  -23.3981  -30.4904   21.5512 C   0  0  2  0  0  0
  -24.8472  -28.9536   20.1199 C   0  0  0  0  0  0
  -22.7389  -29.4649   22.5007 C   0  0  0  0  0  0
  -18.0271  -28.1376   22.8509 C   0  0  0  0  0  0
  -24.1486  -36.7320   23.2635 C   0  0  0  0  0  0
  -25.9208  -30.8442   21.3593 C   0  0  0  0  0  0
  -26.0018  -29.4761   20.7173 C   0  0  0  0  0  0
  -27.2031  -28.7367   20.7085 C   0  0  0  0  0  0
  -26.0775  -26.9479   19.4954 C   0  0  0  0  0  0
  -24.8758  -27.6848   19.5117 C   0  0  0  0  0  0
  -23.6071  -29.8180   20.1667 C   0  0  0  0  0  0
  -25.4102  -36.3113   24.0340 C   0  0  1  0  0  0
  -20.5858  -28.3644   23.1345 C   0  0  2  0  0  0
  -20.6755  -26.9386   22.5432 C   0  0  0  0  0  0
  -19.5734  -26.6386   21.5225 C   0  0  0  0  0  0
  -18.1913  -26.7925   22.1637 C   0  0  0  0  0  0
  -19.1519  -28.8825   23.2929 C   0  0  0  0  0  0
  -18.9445  -30.1440   23.8928 C   0  0  0  0  0  0
  -17.6444  -30.6581   24.0568 C   0  0  0  0  0  0
  -25.9028  -34.9477   23.5132 C   0  0  0  0  0  0
  -16.5337  -29.9085   23.6323 C   0  0  0  0  0  0
  -16.7261  -28.6504   23.0344 C   0  0  0  0  0  0
  -26.4477  -31.6593   25.0703 C   0  0  0  0  0  0
  -25.3772  -31.3671   26.1467 C   0  0  0  0  0  0
  -27.0292  -30.3044   24.6024 C   0  0  0  0  0  0
  -27.6058  -32.4300   25.7471 C   0  0  0  0  0  0
  -27.5582  -37.1812   24.8465 C   0  0  0  0  0  0
  -21.4119  -29.3020   22.3753 N   0  0  0  0  0  0
  -26.4290  -37.3796   23.9411 N   0  0  0  0  0  0
  -24.6614  -31.0812   22.1009 N   0  0  0  0  0  0
  -23.4168  -28.8194   23.3046 O   0  0  0  0  0  0
  -28.4133  -26.7589   20.0209 O   0  0  0  0  0  0
  -26.5586  -34.8921   22.4692 O   0  0  0  0  0  0
  -23.5316  -32.1431   23.7538 O   0  0  0  0  0  0
  -27.7329  -23.9192   22.2546 C   0  0  0  0  0  0
  -28.2490  -24.6421   21.2178 C   0  0  0  0  0  0
  -25.2123  -21.7657   22.0176 C   0  0  0  0  0  0
  -25.9300  -19.1233   23.7925 C   0  0  0  0  0  0
  -28.7651  -26.0577   21.2117 C   0  0  0  0  0  0
  -28.8962  -17.3588   22.1669 C   0  0  0  0  0  0
  -28.9798  -15.8445   21.8623 C   0  0  0  0  0  0
  -27.4237  -17.7343   22.4697 C   0  0  0  0  0  0
  -27.2571  -20.1721   21.9253 C   0  0  0  0  0  0
  -26.7157  -21.5844   22.3264 C   0  0  1  0  0  0
  -28.2539  -23.8284   20.0811 N   0  0  0  0  0  0
  -27.7389  -22.6726   20.3747 N   0  0  0  0  0  0
  -27.4294  -22.6921   21.6957 N   0  0  0  0  0  0
  -30.3264  -15.3324   21.5827 N   0  0  0  0  0  0
  -27.1797  -19.1135   22.9871 N   0  3  1  0  0  0
  -31.4635  -12.4366   19.0978 H   0  0  0  0  0  0
  -30.3422  -11.3027   19.7752 H   0  0  0  0  0  0
  -29.7381  -11.8261   17.4021 H   0  0  0  0  0  0
  -29.6420  -13.5292   17.7776 H   0  0  0  0  0  0
  -27.8311  -11.3046   18.7880 H   0  0  0  0  0  0
  -27.3563  -12.6465   17.7805 H   0  0  0  0  0  0
  -27.7109  -14.2299   19.5733 H   0  0  0  0  0  0
  -28.7009  -11.8477   21.2203 H   0  0  0  0  0  0
  -28.4495  -13.3767   21.9250 H   0  0  0  0  0  0
  -25.2758   -9.5702   22.4735 H   0  0  0  0  0  0
  -24.0018   -7.4646   22.7482 H   0  0  0  0  0  0
  -21.0808   -8.8759   19.8974 H   0  0  0  0  0  0
  -22.3715  -10.9626   19.6075 H   0  0  0  0  0  0
  -21.2039   -7.6151   23.9745 H   0  0  0  0  0  0
  -21.1450   -6.0505   25.9082 H   0  0  0  0  0  0
  -22.0583   -2.7603   23.2845 H   0  0  0  0  0  0
  -21.0981  -13.1032   22.2272 H   0  0  0  0  0  0
  -22.4085  -11.9839   22.4637 H   0  0  0  0  0  0
  -24.6295  -15.7979   20.4166 H   0  0  0  0  0  0
  -26.2284  -15.5802   19.9192 H   0  0  0  0  0  0
  -26.7090  -32.5568   23.1169 H   0  0  0  0  0  0
  -25.0060  -33.9788   25.0491 H   0  0  0  0  0  0
  -22.6855  -31.3056   21.4115 H   0  0  0  0  0  0
  -23.3736  -35.9669   23.3308 H   0  0  0  0  0  0
  -24.3582  -36.8919   22.2049 H   0  0  0  0  0  0
  -23.7247  -37.6535   23.6635 H   0  0  0  0  0  0
  -26.0184  -31.6069   20.5849 H   0  0  0  0  0  0
  -26.8144  -30.9088   21.9685 H   0  0  0  0  0  0
  -28.0988  -29.1423   21.1577 H   0  0  0  0  0  0
  -26.1042  -25.9775   19.0194 H   0  0  0  0  0  0
  -23.9878  -27.2748   19.0498 H   0  0  0  0  0  0
  -23.7143  -30.5909   19.4043 H   0  0  0  0  0  0
  -22.7320  -29.2351   19.8727 H   0  0  0  0  0  0
  -25.1278  -36.1985   25.0836 H   0  0  0  0  0  0
  -20.9959  -28.3205   24.1459 H   0  0  0  0  0  0
  -20.5653  -26.2248   23.3611 H   0  0  0  0  0  0
  -21.6627  -26.7428   22.1225 H   0  0  0  0  0  0
  -19.6885  -25.6302   21.1231 H   0  0  0  0  0  0
  -19.6672  -27.3213   20.6767 H   0  0  0  0  0  0
  -17.4186  -26.6694   21.4032 H   0  0  0  0  0  0
  -18.0307  -26.0053   22.9018 H   0  0  0  0  0  0
  -19.7918  -30.7262   24.2297 H   0  0  0  0  0  0
  -17.4995  -31.6263   24.5170 H   0  0  0  0  0  0
  -15.5339  -30.2996   23.7619 H   0  0  0  0  0  0
  -15.8667  -28.0836   22.7027 H   0  0  0  0  0  0
  -24.5952  -30.7002   25.7816 H   0  0  0  0  0  0
  -24.8954  -32.2813   26.4943 H   0  0  0  0  0  0
  -25.8166  -30.8835   27.0198 H   0  0  0  0  0  0
  -26.2804  -29.6810   24.1118 H   0  0  0  0  0  0
  -27.4122  -29.7266   25.4446 H   0  0  0  0  0  0
  -27.8616  -30.4376   23.9106 H   0  0  0  0  0  0
  -27.2681  -33.3581   26.2091 H   0  0  0  0  0  0
  -28.3862  -32.6880   25.0300 H   0  0  0  0  0  0
  -28.0732  -31.8388   26.5355 H   0  0  0  0  0  0
  -28.2608  -38.0101   24.7503 H   0  0  0  0  0  0
  -28.1065  -36.2627   24.6300 H   0  0  0  0  0  0
  -27.2297  -37.1485   25.8869 H   0  0  0  0  0  0
  -20.9265  -29.8743   21.6987 H   0  0  0  0  0  0
  -26.0180  -38.2875   24.1411 H   0  0  0  0  0  0
  -27.5407  -24.1753   23.2892 H   0  0  0  0  0  0
  -25.0131  -21.6750   20.9491 H   0  0  0  0  0  0
  -24.8708  -22.7547   22.3244 H   0  0  0  0  0  0
  -24.5775  -21.0458   22.5272 H   0  0  0  0  0  0
  -25.7568  -20.0693   24.3023 H   0  0  0  0  0  0
  -25.9692  -18.3752   24.5845 H   0  0  0  0  0  0
  -25.0625  -18.8957   23.1719 H   0  0  0  0  0  0
  -29.8529  -26.0496   21.2792 H   0  0  0  0  0  0
  -28.4225  -26.5932   22.0993 H   0  0  0  0  0  0
  -29.2718  -17.9398   21.3233 H   0  0  0  0  0  0
  -29.5247  -17.5960   23.0267 H   0  0  0  0  0  0
  -28.3254  -15.6446   21.0195 H   0  0  0  0  0  0
  -28.5884  -15.3103   22.7280 H   0  0  0  0  0  0
  -27.0736  -17.0214   23.2182 H   0  0  0  0  0  0
  -26.7964  -17.5558   21.5952 H   0  0  0  0  0  0
  -26.7405  -19.8367   21.0256 H   0  0  0  0  0  0
  -28.3088  -20.2524   21.6459 H   0  0  0  0  0  0
  -26.8783  -21.7255   23.3952 H   0  0  0  0  0  0
  -31.0589  -15.9906   21.8066 H   0  0  0  0  0  0
  -27.9133  -19.3147   23.6507 H   0  0  0  0  0  0
  1 25  1  0  0  0
  1 30  2  0  0  0
  1 84  1  0  0  0
  2  3  1  0  0  0
  2 25  1  0  0  0
  2 86  1  0  0  0
  2 87  1  0  0  0
  3  4  1  0  0  0
  3 88  1  0  0  0
  3 89  1  0  0  0
  4  5  1  0  0  0
  4 90  1  0  0  0
  4 91  1  0  0  0
  5  6  1  0  0  0
  5 26  1  0  0  0
  5 92  1  0  0  0
  6 25  1  0  0  0
  6 93  1  0  0  0
  6 94  1  0  0  0
  7  8  2  0  0  0
  7 26  1  0  0  0
  7 29  1  0  0  0
  8  9  1  0  0  0
  8 22  1  0  0  0
  9 10  1  0  0  0
  9 27  2  0  0  0
 10 11  2  0  0  0
 10 15  1  0  0  0
 11 12  1  0  0  0
 11 95  1  0  0  0
 12 13  2  0  0  0
 12 96  1  0  0  0
 13 14  1  0  0  0
 13 31  1  0  0  0
 14 15  2  0  0  0
 14 97  1  0  0  0
 15 98  1  0  0  0
 16 17  2  0  0  0
 16 21  1  0  0  0
 16 31  1  0  0  0
 17 18  1  0  0  0
 17 99  1  0  0  0
 18 19  2  0  0  0
 18100  1  0  0  0
 19 20  1  0  0  0
 19 24  1  0  0  0
 20 21  2  0  0  0
 20101  1  0  0  0
 21 23  1  0  0  0
 22 28  1  0  0  0
 22 32  2  0  0  0
 26 27  1  0  0  0
 28102  1  0  0  0
 28103  1  0  0  0
 29104  1  0  0  0
 29105  1  0  0  0
 33 34  1  0  0  0
 33 66  1  0  0  0
 33 70  2  0  0  0
 34 36  1  0  0  0
 34 59  1  0  0  0
 34106  1  0  0  0
 35 44  2  0  0  0
 35 45  1  0  0  0
 35 68  1  0  0  0
 36 56  1  0  0  0
 36107  1  0  0  0
 37 39  1  0  0  0
 37 47  1  0  0  0
 37 66  1  0  0  0
 37108  1  0  0  0
 38 43  2  0  0  0
 38 46  1  0  0  0
 38 47  1  0  0  0
 39 64  1  0  0  0
 39 67  2  0  0  0
 40 52  1  0  0  0
 40 53  2  0  0  0
 40 58  1  0  0  0
 41109  1  0  0  0
 41110  1  0  0  0
 41111  1  0  0  0
 41 48  1  0  0  0
 42 43  1  0  0  0
 42 66  1  0  0  0
 42112  1  0  0  0
 42113  1  0  0  0
 43 44  1  0  0  0
 44114  1  0  0  0
 45 46  2  0  0  0
 45115  1  0  0  0
 46116  1  0  0  0
 47117  1  0  0  0
 47118  1  0  0  0
 48 56  1  0  0  0
 48 65  1  0  0  0
 48119  1  0  0  0
 49 50  1  0  0  0
 49 53  1  0  0  0
 49 64  1  0  0  0
 49120  1  0  0  0
 50 51  1  0  0  0
 50121  1  0  0  0
 50122  1  0  0  0
 51 52  1  0  0  0
 51123  1  0  0  0
 51124  1  0  0  0
 52125  1  0  0  0
 52126  1  0  0  0
 53 54  1  0  0  0
 54 55  2  0  0  0
 54127  1  0  0  0
 55 57  1  0  0  0
 55128  1  0  0  0
 56 69  2  0  0  0
 57 58  2  0  0  0
 57129  1  0  0  0
 58130  1  0  0  0
 59 60  1  0  0  0
 59 61  1  0  0  0
 59 62  1  0  0  0
 60131  1  0  0  0
 60132  1  0  0  0
 60133  1  0  0  0
 61134  1  0  0  0
 61135  1  0  0  0
 61136  1  0  0  0
 62137  1  0  0  0
 62138  1  0  0  0
 62139  1  0  0  0
 63 65  1  0  0  0
 63140  1  0  0  0
 63141  1  0  0  0
 63142  1  0  0  0
 64143  1  0  0  0
 65144  1  0  0  0
 68 75  1  0  0  0
 71 72  2  0  0  0
 71 83  1  0  0  0
 71145  1  0  0  0
 72 75  1  0  0  0
 72 81  1  0  0  0
 73146  1  0  0  0
 73147  1  0  0  0
 73148  1  0  0  0
 73 80  1  0  0  0
 74149  1  0  0  0
 74150  1  0  0  0
 74151  1  0  0  0
 74 85  1  0  0  0
 75152  1  0  0  0
 75153  1  0  0  0
 76 77  1  0  0  0
 76 78  1  0  0  0
 76154  1  0  0  0
 76155  1  0  0  0
 77 84  1  0  0  0
 77156  1  0  0  0
 77157  1  0  0  0
 78 85  1  0  0  0
 78158  1  0  0  0
 78159  1  0  0  0
 79 80  1  0  0  0
 79 85  1  0  0  0
 79160  1  0  0  0
 79161  1  0  0  0
 80 83  1  0  0  0
 80162  1  0  0  0
 81 82  2  0  0  0
 82 83  1  0  0  0
 84163  1  0  0  0
 85164  1  0  0  0
M  CHG  1  85   1
M  ISO  4   1 100  68 101  75 101  84 100
M  END
> <chiral flag>
0

> <version>
0

> <s_m_source_file>
/data/baiqing/PycharmProjects/Reinvent-master-3.2/result/LINK_invent/BTK/process_docking_weight1_custom_sum_contain_oxygen_bond_distance_aromatic_linkinvent_7_9_3/rearranged_h_0053.sdf

> <i_m_source_file_index>
86

> <r_mmod_Potential_Energy-OPLS-2005>
-110.882530212402

> <r_mmod_Stretch_Energy-OPLS-2005>
36.8560905456543

> <r_mmod_Bend_Energy-OPLS-2005>
122.501937866211

> <r_mmod_Torsional_Energy-OPLS-2005>
304.672332763672

> <r_mmod_Improper_Torsional_Energy-OPLS-2005>
6.42862749099731

> <r_mmod_Van_der_Waal_Energy-OPLS-2005>
131.996185302734

> <r_mmod_Electrostatic_Energy-OPLS-2005>
-227.505264282227

> <r_mmod_Solvation_Energy-OPLS-2005>
-494.027618408203

> <b_mmod_Minimization_Converged-OPLS-2005>
0

> <r_mmod_RMS_Derivative-OPLS-2005>
1.65174889564514

$$$$
89
                    3D
 Structure written by MMmdl.
172180  0  0  1  0            999 V2000
  -30.7147  -14.4434   20.5735 C   0  0  0  0  0  0
  -30.4182  -12.2881   19.4129 C   0  0  0  0  0  0
  -29.4866  -12.4990   18.2019 C   0  0  0  0  0  0
  -28.0083  -12.3656   18.6202 C   0  0  0  0  0  0
  -27.6610  -13.1948   19.8858 C   0  0  2  0  0  0
  -28.7095  -12.9680   21.0004 C   0  0  0  0  0  0
  -25.2590  -13.8130   20.5684 C   0  0  0  0  0  0
  -24.1823  -13.0428   20.9149 C   0  0  0  0  0  0
  -24.6361  -11.6892   20.8738 C   0  0  0  0  0  0
  -23.9023  -10.4294   21.0420 C   0  0  0  0  0  0
  -24.3576   -9.4229   21.9199 C   0  0  0  0  0  0
  -23.6266   -8.2264   22.0768 C   0  0  0  0  0  0
  -22.4251   -8.0290   21.3549 C   0  0  0  0  0  0
  -21.9886   -9.0258   20.4651 C   0  0  0  0  0  0
  -22.7197  -10.2148   20.3063 C   0  0  0  0  0  0
  -21.6851   -6.0716   22.5270 C   0  0  0  0  0  0
  -21.4001   -6.5633   23.8197 C   0  0  0  0  0  0
  -21.3658   -5.6795   24.9170 C   0  0  0  0  0  0
  -21.6048   -4.3059   24.7218 C   0  0  0  0  0  0
  -21.8820   -3.8136   23.4346 C   0  0  0  0  0  0
  -21.9202   -4.6944   22.3394 C   0  0  0  0  0  0
  -22.7859  -13.5231   21.1831 C   0  0  0  0  0  0
  -22.1669   -4.2127   21.0975 F   0  0  0  0  0  0
  -21.5639   -3.4544   25.7743 F   0  0  0  0  0  0
  -30.0395  -13.2691   20.4385 N   0  0  0  0  0  0
  -26.3021  -12.9269   20.3456 N   0  0  0  0  0  0
  -25.9296  -11.6442   20.5836 N   0  0  0  0  0  0
  -22.0517  -12.8224   22.0390 N   0  0  0  0  0  0
  -25.4387  -15.1836   20.4051 N   0  0  0  0  0  0
  -31.8444  -14.6291   20.1108 O   0  0  0  0  0  0
  -21.6634   -6.8863   21.4236 O   0  0  0  0  0  0
  -22.3577  -14.5577   20.6710 O   0  0  0  0  0  0
  -24.6138  -31.8694   23.2129 C   0  0  0  0  0  0
  -25.9033  -32.4817   23.8432 C   0  0  1  0  0  0
  -27.2329  -27.4563   20.0921 C   0  0  0  0  0  0
  -25.5894  -33.8628   24.2350 N   0  0  0  0  0  0
  -23.4018  -30.4933   21.5508 C   0  0  2  0  0  0
  -24.8503  -28.9624   20.1147 C   0  0  0  0  0  0
  -22.7418  -29.4679   22.5001 C   0  0  0  0  0  0
  -18.0289  -28.1391   22.8513 C   0  0  0  0  0  0
  -24.1487  -36.7322   23.2647 C   0  0  0  0  0  0
  -25.9302  -30.8393   21.3650 C   0  0  0  0  0  0
  -26.0102  -29.4781   20.7092 C   0  0  0  0  0  0
  -27.2086  -28.7317   20.6971 C   0  0  0  0  0  0
  -26.0613  -26.9480   19.4969 C   0  0  0  0  0  0
  -24.8691  -27.6947   19.5074 C   0  0  0  0  0  0
  -23.6103  -29.8261   20.1660 C   0  0  0  0  0  0
  -25.4112  -36.3130   24.0350 C   0  0  1  0  0  0
  -20.5881  -28.3695   23.1318 C   0  0  2  0  0  0
  -20.6783  -26.9430   22.5422 C   0  0  0  0  0  0
  -19.5757  -26.6408   21.5227 C   0  0  0  0  0  0
  -18.1933  -26.7946   22.1629 C   0  0  0  0  0  0
  -19.1534  -28.8863   23.2911 C   0  0  0  0  0  0
  -18.9463  -30.1472   23.8926 C   0  0  0  0  0  0
  -17.6460  -30.6595   24.0589 C   0  0  0  0  0  0
  -25.9030  -34.9479   23.5147 C   0  0  0  0  0  0
  -16.5356  -29.9109   23.6323 C   0  0  0  0  0  0
  -16.7276  -28.6520   23.0359 C   0  0  0  0  0  0
  -26.4482  -31.6597   25.0758 C   0  0  0  0  0  0
  -25.3735  -31.3631   26.1478 C   0  0  0  0  0  0
  -27.0363  -30.3068   24.6121 C   0  0  0  0  0  0
  -27.6066  -32.4329   25.7505 C   0  0  0  0  0  0
  -27.5586  -37.1813   24.8468 C   0  0  0  0  0  0
  -21.4156  -29.3040   22.3711 N   0  0  0  0  0  0
  -26.4302  -37.3810   23.9414 N   0  0  0  0  0  0
  -24.6665  -31.0817   22.1014 N   0  0  0  0  0  0
  -23.4197  -28.8228   23.3041 O   0  0  0  0  0  0
  -28.3708  -26.6898   20.0976 O   0  0  0  0  0  0
  -26.5587  -34.8914   22.4697 O   0  0  0  0  0  0
  -23.5326  -32.1446   23.7528 O   0  0  0  0  0  0
  -30.5440  -18.6296   22.0727 C   0  0  0  0  0  0
  -31.4296  -19.7154   22.0161 C   0  0  0  0  0  0
  -31.1080  -17.3505   22.2280 C   0  0  0  0  0  0
  -33.2002  -18.2800   22.2271 C   0  0  0  0  0  0
  -34.7001  -18.1045   22.3110 C   0  0  0  0  0  0
  -29.4644  -16.4039   19.9677 C   0  0  0  0  0  0
  -27.5137  -21.3914   19.2258 C   0  0  0  0  0  0
  -30.9559  -21.1588   21.9061 C   0  0  0  0  0  0
  -30.2409  -16.0965   22.2966 C   0  0  0  0  0  0
  -31.1107  -21.7555   20.4898 C   0  0  0  0  0  0
  -29.1723  -24.4403   20.7752 C   0  0  0  0  0  0
  -29.9417  -21.4598   19.5248 C   0  0  0  0  0  0
  -28.5679  -23.5790   19.6382 C   0  0  0  0  0  0
  -28.3557  -25.7002   21.1303 C   0  0  0  0  0  0
  -32.7581  -19.5255   22.0804 N   0  0  0  0  0  0
  -32.4426  -17.1888   22.3125 N   0  0  0  0  0  0
  -29.9635  -15.4786   20.9935 N   0  0  0  0  0  0
  -28.6415  -22.1044   19.8787 N   0  3  1  0  0  0
  -31.4646  -12.3753   19.1091 H   0  0  0  0  0  0
  -30.3055  -11.2749   19.8032 H   0  0  0  0  0  0
  -29.7178  -11.7755   17.4174 H   0  0  0  0  0  0
  -29.6549  -13.4825   17.7641 H   0  0  0  0  0  0
  -27.8152  -11.3091   18.8110 H   0  0  0  0  0  0
  -27.3532  -12.6481   17.7942 H   0  0  0  0  0  0
  -27.6977  -14.2419   19.5960 H   0  0  0  0  0  0
  -28.6838  -11.9318   21.3415 H   0  0  0  0  0  0
  -28.4841  -13.5707   21.8832 H   0  0  0  0  0  0
  -25.2715   -9.5722   22.4770 H   0  0  0  0  0  0
  -23.9975   -7.4676   22.7480 H   0  0  0  0  0  0
  -21.0831   -8.8780   19.8944 H   0  0  0  0  0  0
  -22.3663  -10.9694   19.6177 H   0  0  0  0  0  0
  -21.1981   -7.6140   23.9687 H   0  0  0  0  0  0
  -21.1475   -6.0531   25.9070 H   0  0  0  0  0  0
  -22.0593   -2.7591   23.2859 H   0  0  0  0  0  0
  -22.4084  -11.9824   22.4687 H   0  0  0  0  0  0
  -21.1166  -13.1288   22.2665 H   0  0  0  0  0  0
  -24.6808  -15.8484   20.5088 H   0  0  0  0  0  0
  -26.3034  -15.6132   20.1014 H   0  0  0  0  0  0
  -26.7108  -32.5569   23.1206 H   0  0  0  0  0  0
  -25.0072  -33.9799   25.0519 H   0  0  0  0  0  0
  -22.6922  -31.3122   21.4112 H   0  0  0  0  0  0
  -23.3769  -35.9633   23.3322 H   0  0  0  0  0  0
  -24.3581  -36.8949   22.2059 H   0  0  0  0  0  0
  -23.7209  -37.6517   23.6656 H   0  0  0  0  0  0
  -26.0407  -31.6069   20.5973 H   0  0  0  0  0  0
  -26.8191  -30.8944   21.9824 H   0  0  0  0  0  0
  -28.1062  -29.1182   21.1597 H   0  0  0  0  0  0
  -26.0719  -25.9721   19.0312 H   0  0  0  0  0  0
  -23.9753  -27.2888   19.0518 H   0  0  0  0  0  0
  -23.7139  -30.6016   19.4052 H   0  0  0  0  0  0
  -22.7351  -29.2428   19.8740 H   0  0  0  0  0  0
  -25.1277  -36.2002   25.0844 H   0  0  0  0  0  0
  -20.9979  -28.3282   24.1439 H   0  0  0  0  0  0
  -20.5745  -26.2307   23.3624 H   0  0  0  0  0  0
  -21.6646  -26.7493   22.1185 H   0  0  0  0  0  0
  -19.6931  -25.6325   21.1253 H   0  0  0  0  0  0
  -19.6686  -27.3241   20.6778 H   0  0  0  0  0  0
  -17.4206  -26.6757   21.4010 H   0  0  0  0  0  0
  -18.0283  -26.0062   22.8987 H   0  0  0  0  0  0
  -19.7936  -30.7287   24.2305 H   0  0  0  0  0  0
  -17.5008  -31.6267   24.5209 H   0  0  0  0  0  0
  -15.5361  -30.3024   23.7619 H   0  0  0  0  0  0
  -15.8685  -28.0849   22.7063 H   0  0  0  0  0  0
  -24.5995  -30.6886   25.7794 H   0  0  0  0  0  0
  -24.8796  -32.2725   26.4903 H   0  0  0  0  0  0
  -25.8094  -30.8844   27.0252 H   0  0  0  0  0  0
  -26.2925  -29.6764   24.1227 H   0  0  0  0  0  0
  -27.4243  -29.7343   25.4560 H   0  0  0  0  0  0
  -27.8693  -30.4482   23.9233 H   0  0  0  0  0  0
  -27.2744  -33.3671   26.2047 H   0  0  0  0  0  0
  -28.3875  -32.6825   25.0305 H   0  0  0  0  0  0
  -28.0723  -31.8461   26.5432 H   0  0  0  0  0  0
  -28.2584  -38.0130   24.7546 H   0  0  0  0  0  0
  -28.1106  -36.2656   24.6270 H   0  0  0  0  0  0
  -27.2289  -37.1430   25.8867 H   0  0  0  0  0  0
  -20.9335  -29.8729   21.6894 H   0  0  0  0  0  0
  -26.0206  -38.2892   24.1430 H   0  0  0  0  0  0
  -29.4728  -18.7658   22.0148 H   0  0  0  0  0  0
  -35.1721  -19.0031   22.7125 H   0  0  0  0  0  0
  -35.1121  -17.9215   21.3178 H   0  0  0  0  0  0
  -34.9725  -17.2704   22.9577 H   0  0  0  0  0  0
  -28.6365  -16.9993   20.3538 H   0  0  0  0  0  0
  -29.1111  -15.8764   19.0811 H   0  0  0  0  0  0
  -30.2525  -17.0832   19.6375 H   0  0  0  0  0  0
  -27.5058  -20.3335   19.4956 H   0  0  0  0  0  0
  -27.5793  -21.4560   18.1381 H   0  0  0  0  0  0
  -26.5484  -21.8003   19.5296 H   0  0  0  0  0  0
  -31.5459  -21.7524   22.6058 H   0  0  0  0  0  0
  -29.9293  -21.2418   22.2607 H   0  0  0  0  0  0
  -30.7016  -15.3714   22.9728 H   0  0  0  0  0  0
  -29.2873  -16.3472   22.7640 H   0  0  0  0  0  0
  -32.0365  -21.3859   20.0495 H   0  0  0  0  0  0
  -31.2702  -22.8265   20.5579 H   0  0  0  0  0  0
  -30.1880  -24.7433   20.5205 H   0  0  0  0  0  0
  -29.2518  -23.8403   21.6831 H   0  0  0  0  0  0
  -29.8059  -20.3779   19.5004 H   0  0  0  0  0  0
  -30.2191  -21.7421   18.5078 H   0  0  0  0  0  0
  -29.0241  -23.8359   18.6817 H   0  0  0  0  0  0
  -27.5175  -23.8565   19.5414 H   0  0  0  0  0  0
  -28.7736  -26.1569   22.0297 H   0  0  0  0  0  0
  -27.3403  -25.3959   21.3953 H   0  0  0  0  0  0
  -28.4832  -21.9595   20.8636 H   0  0  0  0  0  0
  1 25  1  0  0  0
  1 30  2  0  0  0
  1 87  1  0  0  0
  2  3  1  0  0  0
  2 25  1  0  0  0
  2 89  1  0  0  0
  2 90  1  0  0  0
  3  4  1  0  0  0
  3 91  1  0  0  0
  3 92  1  0  0  0
  4  5  1  0  0  0
  4 93  1  0  0  0
  4 94  1  0  0  0
  5  6  1  0  0  0
  5 26  1  0  0  0
  5 95  1  0  0  0
  6 25  1  0  0  0
  6 96  1  0  0  0
  6 97  1  0  0  0
  7  8  2  0  0  0
  7 26  1  0  0  0
  7 29  1  0  0  0
  8  9  1  0  0  0
  8 22  1  0  0  0
  9 10  1  0  0  0
  9 27  2  0  0  0
 10 11  2  0  0  0
 10 15  1  0  0  0
 11 12  1  0  0  0
 11 98  1  0  0  0
 12 13  2  0  0  0
 12 99  1  0  0  0
 13 14  1  0  0  0
 13 31  1  0  0  0
 14 15  2  0  0  0
 14100  1  0  0  0
 15101  1  0  0  0
 16 17  2  0  0  0
 16 21  1  0  0  0
 16 31  1  0  0  0
 17 18  1  0  0  0
 17102  1  0  0  0
 18 19  2  0  0  0
 18103  1  0  0  0
 19 20  1  0  0  0
 19 24  1  0  0  0
 20 21  2  0  0  0
 20104  1  0  0  0
 21 23  1  0  0  0
 22 28  1  0  0  0
 22 32  2  0  0  0
 26 27  1  0  0  0
 28105  1  0  0  0
 28106  1  0  0  0
 29107  1  0  0  0
 29108  1  0  0  0
 33 34  1  0  0  0
 33 66  1  0  0  0
 33 70  2  0  0  0
 34 36  1  0  0  0
 34 59  1  0  0  0
 34109  1  0  0  0
 35 44  2  0  0  0
 35 45  1  0  0  0
 35 68  1  0  0  0
 36 56  1  0  0  0
 36110  1  0  0  0
 37 39  1  0  0  0
 37 47  1  0  0  0
 37 66  1  0  0  0
 37111  1  0  0  0
 38 43  2  0  0  0
 38 46  1  0  0  0
 38 47  1  0  0  0
 39 64  1  0  0  0
 39 67  2  0  0  0
 40 52  1  0  0  0
 40 53  2  0  0  0
 40 58  1  0  0  0
 41112  1  0  0  0
 41113  1  0  0  0
 41114  1  0  0  0
 41 48  1  0  0  0
 42 43  1  0  0  0
 42 66  1  0  0  0
 42115  1  0  0  0
 42116  1  0  0  0
 43 44  1  0  0  0
 44117  1  0  0  0
 45 46  2  0  0  0
 45118  1  0  0  0
 46119  1  0  0  0
 47120  1  0  0  0
 47121  1  0  0  0
 48 56  1  0  0  0
 48 65  1  0  0  0
 48122  1  0  0  0
 49 50  1  0  0  0
 49 53  1  0  0  0
 49 64  1  0  0  0
 49123  1  0  0  0
 50 51  1  0  0  0
 50124  1  0  0  0
 50125  1  0  0  0
 51 52  1  0  0  0
 51126  1  0  0  0
 51127  1  0  0  0
 52128  1  0  0  0
 52129  1  0  0  0
 53 54  1  0  0  0
 54 55  2  0  0  0
 54130  1  0  0  0
 55 57  1  0  0  0
 55131  1  0  0  0
 56 69  2  0  0  0
 57 58  2  0  0  0
 57132  1  0  0  0
 58133  1  0  0  0
 59 60  1  0  0  0
 59 61  1  0  0  0
 59 62  1  0  0  0
 60134  1  0  0  0
 60135  1  0  0  0
 60136  1  0  0  0
 61137  1  0  0  0
 61138  1  0  0  0
 61139  1  0  0  0
 62140  1  0  0  0
 62141  1  0  0  0
 62142  1  0  0  0
 63 65  1  0  0  0
 63143  1  0  0  0
 63144  1  0  0  0
 63145  1  0  0  0
 64146  1  0  0  0
 65147  1  0  0  0
 68 84  1  0  0  0
 71 72  2  0  0  0
 71 73  1  0  0  0
 71148  1  0  0  0
 72 78  1  0  0  0
 72 85  1  0  0  0
 73 79  1  0  0  0
 73 86  2  0  0  0
 74 75  1  0  0  0
 74 85  2  0  0  0
 74 86  1  0  0  0
 75149  1  0  0  0
 75150  1  0  0  0
 75151  1  0  0  0
 76 87  1  0  0  0
 76152  1  0  0  0
 76153  1  0  0  0
 76154  1  0  0  0
 77155  1  0  0  0
 77156  1  0  0  0
 77157  1  0  0  0
 77 88  1  0  0  0
 78 80  1  0  0  0
 78158  1  0  0  0
 78159  1  0  0  0
 79 87  1  0  0  0
 79160  1  0  0  0
 79161  1  0  0  0
 80 82  1  0  0  0
 80162  1  0  0  0
 80163  1  0  0  0
 81 83  1  0  0  0
 81 84  1  0  0  0
 81164  1  0  0  0
 81165  1  0  0  0
 82 88  1  0  0  0
 82166  1  0  0  0
 82167  1  0  0  0
 83 88  1  0  0  0
 83168  1  0  0  0
 83169  1  0  0  0
 84170  1  0  0  0
 84171  1  0  0  0
 88172  1  0  0  0
M  CHG  1  88   1
M  ISO  4   1 100  68 101  84 101  87 100
M  END
> <chiral flag>
0

> <version>
0

> <s_m_source_file>
/data/baiqing/PycharmProjects/Reinvent-master-3.2/result/LINK_invent/BTK/process_docking_weight1_custom_sum_contain_oxygen_bond_distance_aromatic_linkinvent_7_9_3/rearranged_h_0053.sdf

> <i_m_source_file_index>
87

> <r_mmod_Potential_Energy-OPLS-2005>
-553.777465820312

> <r_mmod_Stretch_Energy-OPLS-2005>
35.2897300720215

> <r_mmod_Bend_Energy-OPLS-2005>
99.0946197509766

> <r_mmod_Torsional_Energy-OPLS-2005>
326.378509521484

> <r_mmod_Improper_Torsional_Energy-OPLS-2005>
8.99813461303711

> <r_mmod_Van_der_Waal_Energy-OPLS-2005>
153.207427978516

> <r_mmod_Electrostatic_Energy-OPLS-2005>
-711.832824707031

> <r_mmod_Solvation_Energy-OPLS-2005>
-475.832794189453

> <b_mmod_Minimization_Converged-OPLS-2005>
0

> <r_mmod_RMS_Derivative-OPLS-2005>
3.08557844161987

$$$$
90
                    3D
 Structure written by MMmdl.
169177  0  0  1  0            999 V2000
  -30.8037  -14.3974   20.6738 C   0  0  0  0  0  0
  -30.4054  -12.2954   19.4326 C   0  0  0  0  0  0
  -29.4926  -12.5237   18.2130 C   0  0  0  0  0  0
  -28.0152  -12.3775   18.6144 C   0  0  0  0  0  0
  -27.6604  -13.2144   19.8686 C   0  0  2  0  0  0
  -28.6918  -13.0019   20.9969 C   0  0  0  0  0  0
  -25.2566  -13.8181   20.5648 C   0  0  0  0  0  0
  -24.1827  -13.0445   20.9140 C   0  0  0  0  0  0
  -24.6404  -11.6917   20.8742 C   0  0  0  0  0  0
  -23.9088  -10.4297   21.0416 C   0  0  0  0  0  0
  -24.3636   -9.4209   21.9190 C   0  0  0  0  0  0
  -23.6299   -8.2246   22.0760 C   0  0  0  0  0  0
  -22.4279   -8.0282   21.3549 C   0  0  0  0  0  0
  -21.9930   -9.0253   20.4645 C   0  0  0  0  0  0
  -22.7272  -10.2125   20.3052 C   0  0  0  0  0  0
  -21.6853   -6.0742   22.5282 C   0  0  0  0  0  0
  -21.4012   -6.5647   23.8212 C   0  0  0  0  0  0
  -21.3653   -5.6797   24.9176 C   0  0  0  0  0  0
  -21.6046   -4.3060   24.7237 C   0  0  0  0  0  0
  -21.8814   -3.8155   23.4359 C   0  0  0  0  0  0
  -21.9184   -4.6970   22.3410 C   0  0  0  0  0  0
  -22.7847  -13.5223   21.1818 C   0  0  0  0  0  0
  -22.1653   -4.2164   21.0983 F   0  0  0  0  0  0
  -21.5630   -3.4536   25.7745 F   0  0  0  0  0  0
  -30.0492  -13.2732   20.4795 N   0  0  0  0  0  0
  -26.3013  -12.9370   20.3312 N   0  0  0  0  0  0
  -25.9323  -11.6524   20.5736 N   0  0  0  0  0  0
  -22.0510  -12.8199   22.0382 N   0  0  0  0  0  0
  -25.4305  -15.1909   20.4100 N   0  0  0  0  0  0
  -31.7981  -14.6327   19.9826 O   0  0  0  0  0  0
  -21.6629   -6.8888   21.4248 O   0  0  0  0  0  0
  -22.3524  -14.5535   20.6683 O   0  0  0  0  0  0
  -24.6173  -31.8684   23.2087 C   0  0  0  0  0  0
  -25.9060  -32.4824   23.8393 C   0  0  1  0  0  0
  -27.2341  -27.4100   20.0846 C   0  0  0  0  0  0
  -25.5907  -33.8628   24.2318 N   0  0  0  0  0  0
  -23.4073  -30.4912   21.5518 C   0  0  2  0  0  0
  -24.8526  -28.9614   20.1134 C   0  0  0  0  0  0
  -22.7455  -29.4631   22.4991 C   0  0  0  0  0  0
  -18.0277  -28.1367   22.8495 C   0  0  0  0  0  0
  -24.1474  -36.7292   23.2634 C   0  0  0  0  0  0
  -25.9410  -30.8212   21.3703 C   0  0  0  0  0  0
  -26.0153  -29.4563   20.7141 C   0  0  0  0  0  0
  -27.2067  -28.6871   20.7004 C   0  0  0  0  0  0
  -26.0457  -26.9522   19.4614 C   0  0  0  0  0  0
  -24.8624  -27.7086   19.4859 C   0  0  0  0  0  0
  -23.6169  -29.8304   20.1654 C   0  0  0  0  0  0
  -25.4102  -36.3098   24.0326 C   0  0  1  0  0  0
  -20.5880  -28.3641   23.1309 C   0  0  2  0  0  0
  -20.6764  -26.9371   22.5407 C   0  0  0  0  0  0
  -19.5721  -26.6375   21.5217 C   0  0  0  0  0  0
  -18.1899  -26.7912   22.1631 C   0  0  0  0  0  0
  -19.1537  -28.8826   23.2888 C   0  0  0  0  0  0
  -18.9469  -30.1441   23.8884 C   0  0  0  0  0  0
  -17.6467  -30.6576   24.0570 C   0  0  0  0  0  0
  -25.9051  -34.9471   23.5121 C   0  0  0  0  0  0
  -16.5355  -29.9084   23.6334 C   0  0  0  0  0  0
  -16.7270  -28.6511   23.0348 C   0  0  0  0  0  0
  -26.4494  -31.6612   25.0729 C   0  0  0  0  0  0
  -25.3756  -31.3698   26.1466 C   0  0  0  0  0  0
  -27.0368  -30.3069   24.6097 C   0  0  0  0  0  0
  -27.6031  -32.4377   25.7510 C   0  0  0  0  0  0
  -27.5567  -37.1788   24.8471 C   0  0  0  0  0  0
  -21.4177  -29.3020   22.3742 N   0  0  0  0  0  0
  -26.4277  -37.3793   23.9423 N   0  0  0  0  0  0
  -24.6739  -31.0755   22.1006 N   0  0  0  0  0  0
  -23.4219  -28.8172   23.3033 O   0  0  0  0  0  0
  -28.3951  -26.6450   20.1232 O   0  0  0  0  0  0
  -26.5613  -34.8919   22.4681 O   0  0  0  0  0  0
  -23.5354  -32.1471   23.7447 O   0  0  0  0  0  0
  -30.4634  -23.9877   19.1774 C   0  0  0  0  0  0
  -29.4225  -24.3233   20.0690 C   0  0  0  0  0  0
  -31.2702  -22.3587   20.6589 C   0  0  0  0  0  0
  -30.2197  -22.7253   21.5634 C   0  0  0  0  0  0
  -32.9299  -17.0193   21.5035 C   0  0  0  0  0  0
  -33.2685  -21.0197   19.7207 C   0  0  0  0  0  0
  -33.4722  -22.3059   21.8266 C   0  0  0  0  0  0
  -30.1748  -15.0639   22.9698 C   0  0  0  0  0  0
  -28.2911  -25.2769   19.6692 C   0  0  0  0  0  0
  -30.3634  -16.7811   21.1609 C   0  0  0  0  0  0
  -32.2429  -20.1063   21.8047 C   0  0  0  0  0  0
  -31.5386  -17.6674   21.6950 C   0  0  2  0  0  0
  -32.4947  -21.4411   21.0030 C   0  0  0  0  0  0
  -31.3787  -23.0307   19.4753 N   0  0  0  0  0  0
  -29.3068  -23.6854   21.2602 N   0  0  0  0  0  0
  -30.3507  -15.3430   21.5378 N   0  0  0  0  0  0
  -31.4756  -19.0414   21.0972 N   0  3  0  0  0  0
  -30.0499  -22.0434   23.1389 Cl  0  0  0  0  0  0
  -31.4544  -12.3557   19.1372 H   0  0  0  0  0  0
  -30.2703  -11.2835   19.8178 H   0  0  0  0  0  0
  -29.7346  -11.8157   17.4203 H   0  0  0  0  0  0
  -29.6662  -13.5185   17.7992 H   0  0  0  0  0  0
  -27.8212  -11.3219   18.8082 H   0  0  0  0  0  0
  -27.3696  -12.6592   17.7819 H   0  0  0  0  0  0
  -27.7066  -14.2638   19.5724 H   0  0  0  0  0  0
  -28.6479  -11.9770   21.3689 H   0  0  0  0  0  0
  -28.3992  -13.6326   21.8321 H   0  0  0  0  0  0
  -25.2780   -9.5667   22.4763 H   0  0  0  0  0  0
  -23.9999   -7.4645   22.7486 H   0  0  0  0  0  0
  -21.0862   -8.8778   19.8951 H   0  0  0  0  0  0
  -22.3748  -10.9657   19.6153 H   0  0  0  0  0  0
  -21.1998   -7.6156   23.9728 H   0  0  0  0  0  0
  -21.1481   -6.0528   25.9085 H   0  0  0  0  0  0
  -22.0597   -2.7617   23.2851 H   0  0  0  0  0  0
  -22.4112  -11.9839   22.4737 H   0  0  0  0  0  0
  -21.1130  -13.1211   22.2617 H   0  0  0  0  0  0
  -24.6679  -15.8521   20.5079 H   0  0  0  0  0  0
  -26.2971  -15.6291   20.1269 H   0  0  0  0  0  0
  -26.7114  -32.5547   23.1145 H   0  0  0  0  0  0
  -25.0081  -33.9804   25.0472 H   0  0  0  0  0  0
  -22.6936  -31.3059   21.4131 H   0  0  0  0  0  0
  -23.3751  -35.9609   23.3315 H   0  0  0  0  0  0
  -24.3559  -36.8923   22.2047 H   0  0  0  0  0  0
  -23.7209  -37.6481   23.6674 H   0  0  0  0  0  0
  -26.0592  -31.5867   20.6031 H   0  0  0  0  0  0
  -26.8259  -30.8749   21.9917 H   0  0  0  0  0  0
  -28.1028  -29.0631   21.1736 H   0  0  0  0  0  0
  -25.9937  -26.0063   18.9445 H   0  0  0  0  0  0
  -23.9699  -27.3259   19.0105 H   0  0  0  0  0  0
  -23.7315  -30.6119   19.4128 H   0  0  0  0  0  0
  -22.7406  -29.2562   19.8618 H   0  0  0  0  0  0
  -25.1276  -36.1949   25.0815 H   0  0  0  0  0  0
  -20.9951  -28.3190   24.1441 H   0  0  0  0  0  0
  -20.5701  -26.2236   23.3601 H   0  0  0  0  0  0
  -21.6620  -26.7419   22.1164 H   0  0  0  0  0  0
  -19.6891  -25.6302   21.1218 H   0  0  0  0  0  0
  -19.6653  -27.3223   20.6771 H   0  0  0  0  0  0
  -17.4171  -26.6673   21.4026 H   0  0  0  0  0  0
  -18.0277  -26.0044   22.9015 H   0  0  0  0  0  0
  -19.7950  -30.7265   24.2222 H   0  0  0  0  0  0
  -17.5034  -31.6256   24.5169 H   0  0  0  0  0  0
  -15.5366  -30.2989   23.7673 H   0  0  0  0  0  0
  -15.8662  -28.0861   22.7021 H   0  0  0  0  0  0
  -24.5894  -30.7096   25.7793 H   0  0  0  0  0  0
  -24.8977  -32.2852   26.4964 H   0  0  0  0  0  0
  -25.8085  -30.8816   27.0204 H   0  0  0  0  0  0
  -26.2923  -29.6794   24.1171 H   0  0  0  0  0  0
  -27.4218  -29.7319   25.4532 H   0  0  0  0  0  0
  -27.8720  -30.4441   23.9219 H   0  0  0  0  0  0
  -27.2601  -33.3679   26.2055 H   0  0  0  0  0  0
  -28.3844  -32.6958   25.0352 H   0  0  0  0  0  0
  -28.0699  -31.8546   26.5462 H   0  0  0  0  0  0
  -28.2549  -38.0112   24.7554 H   0  0  0  0  0  0
  -28.1095  -36.2643   24.6272 H   0  0  0  0  0  0
  -27.2285  -37.1398   25.8869 H   0  0  0  0  0  0
  -20.9350  -29.8804   21.7012 H   0  0  0  0  0  0
  -26.0167  -38.2859   24.1477 H   0  0  0  0  0  0
  -30.5455  -24.4621   18.2101 H   0  0  0  0  0  0
  -32.9809  -16.0479   21.9952 H   0  0  0  0  0  0
  -33.7333  -17.6068   21.9436 H   0  0  0  0  0  0
  -33.1662  -16.8706   20.4492 H   0  0  0  0  0  0
  -33.6709  -21.8811   19.1860 H   0  0  0  0  0  0
  -32.6403  -20.4735   19.0167 H   0  0  0  0  0  0
  -34.1291  -20.3906   19.9569 H   0  0  0  0  0  0
  -33.7489  -23.2135   21.2869 H   0  0  0  0  0  0
  -34.3949  -21.7695   22.0549 H   0  0  0  0  0  0
  -33.0320  -22.6128   22.7763 H   0  0  0  0  0  0
  -31.0140  -15.4512   23.5479 H   0  0  0  0  0  0
  -30.1260  -13.9949   23.1888 H   0  0  0  0  0  0
  -29.2609  -15.5231   23.3483 H   0  0  0  0  0  0
  -27.3857  -24.8169   20.0693 H   0  0  0  0  0  0
  -28.2021  -25.2776   18.5822 H   0  0  0  0  0  0
  -30.3286  -16.8572   20.0715 H   0  0  0  0  0  0
  -29.4193  -17.2104   21.4975 H   0  0  0  0  0  0
  -31.8211  -20.2708   22.7906 H   0  0  0  0  0  0
  -33.2271  -19.6987   22.0334 H   0  0  0  0  0  0
  -31.3823  -17.7779   22.7703 H   0  0  0  0  0  0
  -31.8020  -18.9902   20.1440 H   0  0  0  0  0  0
  -30.5094  -19.3245   21.0682 H   0  0  0  0  0  0
  1 25  1  0  0  0
  1 30  2  0  0  0
  1 86  1  0  0  0
  2  3  1  0  0  0
  2 25  1  0  0  0
  2 89  1  0  0  0
  2 90  1  0  0  0
  3  4  1  0  0  0
  3 91  1  0  0  0
  3 92  1  0  0  0
  4  5  1  0  0  0
  4 93  1  0  0  0
  4 94  1  0  0  0
  5  6  1  0  0  0
  5 26  1  0  0  0
  5 95  1  0  0  0
  6 25  1  0  0  0
  6 96  1  0  0  0
  6 97  1  0  0  0
  7  8  2  0  0  0
  7 26  1  0  0  0
  7 29  1  0  0  0
  8  9  1  0  0  0
  8 22  1  0  0  0
  9 10  1  0  0  0
  9 27  2  0  0  0
 10 11  2  0  0  0
 10 15  1  0  0  0
 11 12  1  0  0  0
 11 98  1  0  0  0
 12 13  2  0  0  0
 12 99  1  0  0  0
 13 14  1  0  0  0
 13 31  1  0  0  0
 14 15  2  0  0  0
 14100  1  0  0  0
 15101  1  0  0  0
 16 17  2  0  0  0
 16 21  1  0  0  0
 16 31  1  0  0  0
 17 18  1  0  0  0
 17102  1  0  0  0
 18 19  2  0  0  0
 18103  1  0  0  0
 19 20  1  0  0  0
 19 24  1  0  0  0
 20 21  2  0  0  0
 20104  1  0  0  0
 21 23  1  0  0  0
 22 28  1  0  0  0
 22 32  2  0  0  0
 26 27  1  0  0  0
 28105  1  0  0  0
 28106  1  0  0  0
 29107  1  0  0  0
 29108  1  0  0  0
 33 34  1  0  0  0
 33 66  1  0  0  0
 33 70  2  0  0  0
 34 36  1  0  0  0
 34 59  1  0  0  0
 34109  1  0  0  0
 35 44  2  0  0  0
 35 45  1  0  0  0
 35 68  1  0  0  0
 36 56  1  0  0  0
 36110  1  0  0  0
 37 39  1  0  0  0
 37 47  1  0  0  0
 37 66  1  0  0  0
 37111  1  0  0  0
 38 43  2  0  0  0
 38 46  1  0  0  0
 38 47  1  0  0  0
 39 64  1  0  0  0
 39 67  2  0  0  0
 40 52  1  0  0  0
 40 53  2  0  0  0
 40 58  1  0  0  0
 41112  1  0  0  0
 41113  1  0  0  0
 41114  1  0  0  0
 41 48  1  0  0  0
 42 43  1  0  0  0
 42 66  1  0  0  0
 42115  1  0  0  0
 42116  1  0  0  0
 43 44  1  0  0  0
 44117  1  0  0  0
 45 46  2  0  0  0
 45118  1  0  0  0
 46119  1  0  0  0
 47120  1  0  0  0
 47121  1  0  0  0
 48 56  1  0  0  0
 48 65  1  0  0  0
 48122  1  0  0  0
 49 50  1  0  0  0
 49 53  1  0  0  0
 49 64  1  0  0  0
 49123  1  0  0  0
 50 51  1  0  0  0
 50124  1  0  0  0
 50125  1  0  0  0
 51 52  1  0  0  0
 51126  1  0  0  0
 51127  1  0  0  0
 52128  1  0  0  0
 52129  1  0  0  0
 53 54  1  0  0  0
 54 55  2  0  0  0
 54130  1  0  0  0
 55 57  1  0  0  0
 55131  1  0  0  0
 56 69  2  0  0  0
 57 58  2  0  0  0
 57132  1  0  0  0
 58133  1  0  0  0
 59 60  1  0  0  0
 59 61  1  0  0  0
 59 62  1  0  0  0
 60134  1  0  0  0
 60135  1  0  0  0
 60136  1  0  0  0
 61137  1  0  0  0
 61138  1  0  0  0
 61139  1  0  0  0
 62140  1  0  0  0
 62141  1  0  0  0
 62142  1  0  0  0
 63 65  1  0  0  0
 63143  1  0  0  0
 63144  1  0  0  0
 63145  1  0  0  0
 64146  1  0  0  0
 65147  1  0  0  0
 68 79  1  0  0  0
 71 72  2  0  0  0
 71 84  1  0  0  0
 71148  1  0  0  0
 72 79  1  0  0  0
 72 85  1  0  0  0
 73 74  1  0  0  0
 73 83  1  0  0  0
 73 84  2  0  0  0
 74 85  2  0  0  0
 74 88  1  0  0  0
 75149  1  0  0  0
 75150  1  0  0  0
 75151  1  0  0  0
 75 82  1  0  0  0
 76152  1  0  0  0
 76153  1  0  0  0
 76154  1  0  0  0
 76 83  1  0  0  0
 77 83  1  0  0  0
 77155  1  0  0  0
 77156  1  0  0  0
 77157  1  0  0  0
 78 86  1  0  0  0
 78158  1  0  0  0
 78159  1  0  0  0
 78160  1  0  0  0
 79161  1  0  0  0
 79162  1  0  0  0
 80 82  1  0  0  0
 80 86  1  0  0  0
 80163  1  0  0  0
 80164  1  0  0  0
 81 83  1  0  0  0
 81 87  1  0  0  0
 81165  1  0  0  0
 81166  1  0  0  0
 82 87  1  0  0  0
 82167  1  0  0  0
 87168  1  0  0  0
 87169  1  0  0  0
M  CHG  1  87   1
M  ISO  4   1 100  68 101  79 101  86 100
M  END
> <chiral flag>
0

> <version>
0

> <s_m_source_file>
/data/baiqing/PycharmProjects/Reinvent-master-3.2/result/LINK_invent/BTK/process_docking_weight1_custom_sum_contain_oxygen_bond_distance_aromatic_linkinvent_7_9_3/rearranged_h_0053.sdf

> <i_m_source_file_index>
88

> <r_mmod_Potential_Energy-OPLS-2005>
83.4828414916992

> <r_mmod_Stretch_Energy-OPLS-2005>
56.8833236694336

> <r_mmod_Bend_Energy-OPLS-2005>
135.527297973633

> <r_mmod_Torsional_Energy-OPLS-2005>
301.0048828125

> <r_mmod_Improper_Torsional_Energy-OPLS-2005>
5.87231016159058

> <r_mmod_Van_der_Waal_Energy-OPLS-2005>
177.080703735352

> <r_mmod_Electrostatic_Energy-OPLS-2005>
-168.37385559082

> <r_mmod_Solvation_Energy-OPLS-2005>
-437.646331787109

> <b_mmod_Minimization_Converged-OPLS-2005>
0

> <r_mmod_RMS_Derivative-OPLS-2005>
2.78655099868774

$$$$
91
                    3D
 Structure written by MMmdl.
145153  0  0  1  0            999 V2000
  -30.4634  -15.2128   20.3770 C   0  0  0  0  0  0
  -30.4361  -12.7721   19.5214 C   0  0  0  0  0  0
  -29.5310  -12.5651   18.2821 C   0  0  0  0  0  0
  -28.0770  -12.3006   18.7096 C   0  0  0  0  0  0
  -27.6129  -13.2711   19.8246 C   0  0  2  0  0  0
  -28.6482  -13.4285   20.9583 C   0  0  0  0  0  0
  -25.2392  -13.8243   20.5744 C   0  0  0  0  0  0
  -24.1741  -13.0437   20.9260 C   0  0  0  0  0  0
  -24.6392  -11.6931   20.8765 C   0  0  0  0  0  0
  -23.9086  -10.4293   21.0410 C   0  0  0  0  0  0
  -24.3633   -9.4206   21.9186 C   0  0  0  0  0  0
  -23.6305   -8.2241   22.0751 C   0  0  0  0  0  0
  -22.4286   -8.0282   21.3544 C   0  0  0  0  0  0
  -21.9927   -9.0255   20.4643 C   0  0  0  0  0  0
  -22.7258  -10.2134   20.3056 C   0  0  0  0  0  0
  -21.6856   -6.0739   22.5279 C   0  0  0  0  0  0
  -21.4015   -6.5642   23.8213 C   0  0  0  0  0  0
  -21.3659   -5.6794   24.9175 C   0  0  0  0  0  0
  -21.6045   -4.3057   24.7225 C   0  0  0  0  0  0
  -21.8818   -3.8149   23.4346 C   0  0  0  0  0  0
  -21.9195   -4.6967   22.3403 C   0  0  0  0  0  0
  -22.7760  -13.5190   21.1910 C   0  0  0  0  0  0
  -22.1663   -4.2152   21.0981 F   0  0  0  0  0  0
  -21.5630   -3.4540   25.7737 F   0  0  0  0  0  0
  -29.8862  -13.9171   20.3323 N   0  0  0  0  0  0
  -26.2819  -12.9511   20.3227 N   0  0  0  0  0  0
  -25.9328  -11.6621   20.5729 N   0  0  0  0  0  0
  -22.0424  -12.8164   22.0464 N   0  0  0  0  0  0
  -25.4025  -15.1975   20.4170 N   0  0  0  0  0  0
  -31.6839  -15.2096   20.1652 O   0  0  0  0  0  0
  -21.6645   -6.8882   21.4241 O   0  0  0  0  0  0
  -22.3438  -14.5494   20.6755 O   0  0  0  0  0  0
  -24.6607  -31.8264   23.1740 C   0  0  0  0  0  0
  -25.9301  -32.4606   23.8190 C   0  0  1  0  0  0
  -27.2133  -26.9547   20.1771 C   0  0  0  0  0  0
  -25.5981  -33.8420   24.2096 N   0  0  0  0  0  0
  -23.4737  -30.4410   21.5223 C   0  0  2  0  0  0
  -24.9263  -28.8370   20.1107 C   0  0  0  0  0  0
  -22.7654  -29.4458   22.4786 C   0  0  0  0  0  0
  -18.0320  -28.1410   22.8472 C   0  0  0  0  0  0
  -24.1489  -36.7204   23.2646 C   0  0  0  0  0  0
  -26.0422  -30.6419   21.4009 C   0  0  0  0  0  0
  -26.1104  -29.2355   20.7438 C   0  0  0  0  0  0
  -27.2502  -28.3150   20.7543 C   0  0  0  0  0  0
  -26.0009  -26.7078   19.4926 C   0  0  0  0  0  0
  -24.8958  -27.5926   19.4651 C   0  0  0  0  0  0
  -23.7118  -29.7615   20.1468 C   0  0  0  0  0  0
  -25.4129  -36.2974   24.0303 C   0  0  1  0  0  0
  -20.5945  -28.3750   23.1191 C   0  0  2  0  0  0
  -20.6795  -26.9435   22.5400 C   0  0  0  0  0  0
  -19.5767  -26.6383   21.5211 C   0  0  0  0  0  0
  -18.1951  -26.7943   22.1627 C   0  0  0  0  0  0
  -19.1582  -28.8900   23.2821 C   0  0  0  0  0  0
  -18.9493  -30.1491   23.8856 C   0  0  0  0  0  0
  -17.6487  -30.6602   24.0555 C   0  0  0  0  0  0
  -25.9096  -34.9359   23.5018 C   0  0  0  0  0  0
  -16.5376  -29.9091   23.6347 C   0  0  0  0  0  0
  -16.7302  -28.6509   23.0371 C   0  0  0  0  0  0
  -26.4560  -31.6545   25.0708 C   0  0  0  0  0  0
  -25.3697  -31.3788   26.1371 C   0  0  0  0  0  0
  -27.0449  -30.2915   24.6425 C   0  0  0  0  0  0
  -27.6051  -32.4351   25.7511 C   0  0  0  0  0  0
  -27.5566  -37.1757   24.8467 C   0  0  0  0  0  0
  -21.4325  -29.3045   22.3538 N   0  0  0  0  0  0
  -26.4270  -37.3712   23.9415 N   0  0  0  0  0  0
  -24.7467  -30.9956   22.0861 N   0  0  0  0  0  0
  -23.4215  -28.8021   23.3011 O   0  0  0  0  0  0
  -28.2005  -25.8445   20.2604 O   0  0  0  0  0  0
  -26.5693  -34.8890   22.4607 O   0  0  0  0  0  0
  -23.5684  -32.1219   23.6854 O   0  0  0  0  0  0
  -28.7702  -20.4831   21.3485 C   0  0  0  0  0  0
  -29.5508  -20.6586   19.2448 C   0  0  0  0  0  0
  -29.3859  -19.6775   20.3058 C   0  0  0  0  0  0
  -28.6147  -22.7177   20.2553 C   0  0  0  0  0  0
  -30.1331  -18.0925   20.3600 C   0  0  0  0  0  0
  -27.8199  -24.2646   20.0660 C   0  0  0  0  0  0
  -28.4002  -21.8584   21.3086 N   0  0  0  0  0  0
  -29.1804  -22.0281   19.2152 N   0  0  0  0  0  0
  -29.7178  -16.4887   20.4539 N   0  0  0  0  0  0
  -31.4581  -12.9652   19.1920 H   0  0  0  0  0  0
  -30.4893  -11.8614   20.1203 H   0  0  0  0  0  0
  -29.9005  -11.7385   17.6736 H   0  0  0  0  0  0
  -29.5700  -13.4537   17.6505 H   0  0  0  0  0  0
  -28.0236  -11.2740   19.0737 H   0  0  0  0  0  0
  -27.4084  -12.3559   17.8498 H   0  0  0  0  0  0
  -27.5343  -14.2423   19.3351 H   0  0  0  0  0  0
  -28.8040  -12.4904   21.4929 H   0  0  0  0  0  0
  -28.2978  -14.1532   21.6949 H   0  0  0  0  0  0
  -25.2773   -9.5686   22.4766 H   0  0  0  0  0  0
  -24.0017   -7.4630   22.7466 H   0  0  0  0  0  0
  -21.0861   -8.8774   19.8944 H   0  0  0  0  0  0
  -22.3713  -10.9674   19.6168 H   0  0  0  0  0  0
  -21.2003   -7.6149   23.9717 H   0  0  0  0  0  0
  -21.1483   -6.0524   25.9078 H   0  0  0  0  0  0
  -22.0597   -2.7611   23.2845 H   0  0  0  0  0  0
  -22.4064  -11.9832   22.4843 H   0  0  0  0  0  0
  -21.1034  -13.1159   22.2674 H   0  0  0  0  0  0
  -24.6294  -15.8453   20.5251 H   0  0  0  0  0  0
  -26.2403  -15.6390   20.0621 H   0  0  0  0  0  0
  -26.7370  -32.5150   23.0905 H   0  0  0  0  0  0
  -25.0100  -33.9504   25.0226 H   0  0  0  0  0  0
  -22.7858  -31.2723   21.3552 H   0  0  0  0  0  0
  -23.3763  -35.9523   23.3288 H   0  0  0  0  0  0
  -24.3565  -36.8866   22.2065 H   0  0  0  0  0  0
  -23.7234  -37.6386   23.6705 H   0  0  0  0  0  0
  -26.2203  -31.3859   20.6232 H   0  0  0  0  0  0
  -26.9034  -30.6964   22.0549 H   0  0  0  0  0  0
  -28.1446  -28.6164   21.2814 H   0  0  0  0  0  0
  -25.8614  -25.7614   18.9930 H   0  0  0  0  0  0
  -23.9970  -27.2821   18.9502 H   0  0  0  0  0  0
  -23.8663  -30.5318   19.3906 H   0  0  0  0  0  0
  -22.8219  -29.2158   19.8287 H   0  0  0  0  0  0
  -25.1327  -36.1767   25.0792 H   0  0  0  0  0  0
  -21.0037  -28.3353   24.1313 H   0  0  0  0  0  0
  -20.5671  -26.2369   23.3638 H   0  0  0  0  0  0
  -21.6659  -26.7413   22.1204 H   0  0  0  0  0  0
  -19.6923  -25.6283   21.1271 H   0  0  0  0  0  0
  -19.6702  -27.3167   20.6719 H   0  0  0  0  0  0
  -17.4215  -26.6685   21.4036 H   0  0  0  0  0  0
  -18.0352  -26.0100   22.9039 H   0  0  0  0  0  0
  -19.7968  -30.7319   24.2207 H   0  0  0  0  0  0
  -17.5040  -31.6280   24.5162 H   0  0  0  0  0  0
  -15.5375  -30.2980   23.7696 H   0  0  0  0  0  0
  -15.8703  -28.0809   22.7118 H   0  0  0  0  0  0
  -24.5891  -30.7121   25.7686 H   0  0  0  0  0  0
  -24.8871  -32.2988   26.4679 H   0  0  0  0  0  0
  -25.7942  -30.9039   27.0224 H   0  0  0  0  0  0
  -26.3112  -29.6601   24.1403 H   0  0  0  0  0  0
  -27.3955  -29.7269   25.5074 H   0  0  0  0  0  0
  -27.9066  -30.4101   23.9856 H   0  0  0  0  0  0
  -27.2617  -33.3691   26.1969 H   0  0  0  0  0  0
  -28.3928  -32.6849   25.0390 H   0  0  0  0  0  0
  -28.0647  -31.8559   26.5529 H   0  0  0  0  0  0
  -28.2563  -38.0072   24.7526 H   0  0  0  0  0  0
  -28.1084  -36.2601   24.6280 H   0  0  0  0  0  0
  -27.2287  -37.1387   25.8871 H   0  0  0  0  0  0
  -20.9566  -29.8744   21.6682 H   0  0  0  0  0  0
  -26.0117  -38.2766   24.1441 H   0  0  0  0  0  0
  -28.5898  -20.0129   22.3041 H   0  0  0  0  0  0
  -30.0539  -20.3349   18.3453 H   0  0  0  0  0  0
  -30.8360  -18.1965   21.1877 H   0  0  0  0  0  0
  -30.7802  -18.1081   19.4819 H   0  0  0  0  0  0
  -26.9118  -24.1472   20.6574 H   0  0  0  0  0  0
  -27.4735  -24.2147   19.0342 H   0  0  0  0  0  0
  -28.7277  -16.3338   20.5767 H   0  0  0  0  0  0
  1 25  1  0  0  0
  1 30  2  0  0  0
  1 79  1  0  0  0
  2  3  1  0  0  0
  2 25  1  0  0  0
  2 80  1  0  0  0
  2 81  1  0  0  0
  3  4  1  0  0  0
  3 82  1  0  0  0
  3 83  1  0  0  0
  4  5  1  0  0  0
  4 84  1  0  0  0
  4 85  1  0  0  0
  5  6  1  0  0  0
  5 26  1  0  0  0
  5 86  1  0  0  0
  6 25  1  0  0  0
  6 87  1  0  0  0
  6 88  1  0  0  0
  7  8  2  0  0  0
  7 26  1  0  0  0
  7 29  1  0  0  0
  8  9  1  0  0  0
  8 22  1  0  0  0
  9 10  1  0  0  0
  9 27  2  0  0  0
 10 11  2  0  0  0
 10 15  1  0  0  0
 11 12  1  0  0  0
 11 89  1  0  0  0
 12 13  2  0  0  0
 12 90  1  0  0  0
 13 14  1  0  0  0
 13 31  1  0  0  0
 14 15  2  0  0  0
 14 91  1  0  0  0
 15 92  1  0  0  0
 16 17  2  0  0  0
 16 21  1  0  0  0
 16 31  1  0  0  0
 17 18  1  0  0  0
 17 93  1  0  0  0
 18 19  2  0  0  0
 18 94  1  0  0  0
 19 20  1  0  0  0
 19 24  1  0  0  0
 20 21  2  0  0  0
 20 95  1  0  0  0
 21 23  1  0  0  0
 22 28  1  0  0  0
 22 32  2  0  0  0
 26 27  1  0  0  0
 28 96  1  0  0  0
 28 97  1  0  0  0
 29 98  1  0  0  0
 29 99  1  0  0  0
 33 34  1  0  0  0
 33 66  1  0  0  0
 33 70  2  0  0  0
 34 36  1  0  0  0
 34 59  1  0  0  0
 34100  1  0  0  0
 35 44  2  0  0  0
 35 45  1  0  0  0
 35 68  1  0  0  0
 36 56  1  0  0  0
 36101  1  0  0  0
 37 39  1  0  0  0
 37 47  1  0  0  0
 37 66  1  0  0  0
 37102  1  0  0  0
 38 43  2  0  0  0
 38 46  1  0  0  0
 38 47  1  0  0  0
 39 64  1  0  0  0
 39 67  2  0  0  0
 40 52  1  0  0  0
 40 53  2  0  0  0
 40 58  1  0  0  0
 41103  1  0  0  0
 41104  1  0  0  0
 41105  1  0  0  0
 41 48  1  0  0  0
 42 43  1  0  0  0
 42 66  1  0  0  0
 42106  1  0  0  0
 42107  1  0  0  0
 43 44  1  0  0  0
 44108  1  0  0  0
 45 46  2  0  0  0
 45109  1  0  0  0
 46110  1  0  0  0
 47111  1  0  0  0
 47112  1  0  0  0
 48 56  1  0  0  0
 48 65  1  0  0  0
 48113  1  0  0  0
 49 50  1  0  0  0
 49 53  1  0  0  0
 49 64  1  0  0  0
 49114  1  0  0  0
 50 51  1  0  0  0
 50115  1  0  0  0
 50116  1  0  0  0
 51 52  1  0  0  0
 51117  1  0  0  0
 51118  1  0  0  0
 52119  1  0  0  0
 52120  1  0  0  0
 53 54  1  0  0  0
 54 55  2  0  0  0
 54121  1  0  0  0
 55 57  1  0  0  0
 55122  1  0  0  0
 56 69  2  0  0  0
 57 58  2  0  0  0
 57123  1  0  0  0
 58124  1  0  0  0
 59 60  1  0  0  0
 59 61  1  0  0  0
 59 62  1  0  0  0
 60125  1  0  0  0
 60126  1  0  0  0
 60127  1  0  0  0
 61128  1  0  0  0
 61129  1  0  0  0
 61130  1  0  0  0
 62131  1  0  0  0
 62132  1  0  0  0
 62133  1  0  0  0
 63 65  1  0  0  0
 63134  1  0  0  0
 63135  1  0  0  0
 63136  1  0  0  0
 64137  1  0  0  0
 65138  1  0  0  0
 68 76  1  0  0  0
 71 73  2  0  0  0
 71 77  1  0  0  0
 71139  1  0  0  0
 72 73  1  0  0  0
 72 78  2  0  0  0
 72140  1  0  0  0
 73 75  1  0  0  0
 74 76  1  0  0  0
 74 77  2  0  0  0
 74 78  1  0  0  0
 75 79  1  0  0  0
 75141  1  0  0  0
 75142  1  0  0  0
 76143  1  0  0  0
 76144  1  0  0  0
 79145  1  0  0  0
M  ISO  4   1 100  68 101  76 101  79 100
M  END
> <chiral flag>
0

> <version>
0

> <s_m_source_file>
/data/baiqing/PycharmProjects/Reinvent-master-3.2/result/LINK_invent/BTK/process_docking_weight1_custom_sum_contain_oxygen_bond_distance_aromatic_linkinvent_7_9_3/rearranged_h_0053.sdf

> <i_m_source_file_index>
89

> <r_mmod_Potential_Energy-OPLS-2005>
805.581665039062

> <r_mmod_Stretch_Energy-OPLS-2005>
481.773284912109

> <r_mmod_Bend_Energy-OPLS-2005>
442.117462158203

> <r_mmod_Torsional_Energy-OPLS-2005>
217.913314819336

> <r_mmod_Improper_Torsional_Energy-OPLS-2005>
10.528546333313

> <r_mmod_Van_der_Waal_Energy-OPLS-2005>
138.772994995117

> <r_mmod_Electrostatic_Energy-OPLS-2005>
-654.269348144531

> <r_mmod_Solvation_Energy-OPLS-2005>
-245.484130859375

> <b_mmod_Minimization_Converged-OPLS-2005>
0

> <r_mmod_RMS_Derivative-OPLS-2005>
0.598635911941528

$$$$
92
                    3D
 Structure written by MMmdl.
148156  0  0  1  0            999 V2000
  -30.4234  -15.2271   20.3656 C   0  0  0  0  0  0
  -30.4457  -12.7637   19.5378 C   0  0  0  0  0  0
  -29.5461  -12.5753   18.2896 C   0  0  0  0  0  0
  -28.0872  -12.3075   18.7011 C   0  0  0  0  0  0
  -27.6168  -13.2701   19.8198 C   0  0  2  0  0  0
  -28.6458  -13.4176   20.9596 C   0  0  0  0  0  0
  -25.2432  -13.8241   20.5706 C   0  0  0  0  0  0
  -24.1778  -13.0436   20.9223 C   0  0  0  0  0  0
  -24.6423  -11.6928   20.8729 C   0  0  0  0  0  0
  -23.9118  -10.4289   21.0383 C   0  0  0  0  0  0
  -24.3658   -9.4208   21.9169 C   0  0  0  0  0  0
  -23.6318   -8.2251   22.0747 C   0  0  0  0  0  0
  -22.4295   -8.0287   21.3550 C   0  0  0  0  0  0
  -21.9939   -9.0262   20.4647 C   0  0  0  0  0  0
  -22.7282  -10.2132   20.3041 C   0  0  0  0  0  0
  -21.6857   -6.0744   22.5283 C   0  0  0  0  0  0
  -21.4023   -6.5647   23.8221 C   0  0  0  0  0  0
  -21.3659   -5.6795   24.9179 C   0  0  0  0  0  0
  -21.6036   -4.3054   24.7223 C   0  0  0  0  0  0
  -21.8823   -3.8154   23.4350 C   0  0  0  0  0  0
  -21.9196   -4.6976   22.3410 C   0  0  0  0  0  0
  -22.7794  -13.5190   21.1879 C   0  0  0  0  0  0
  -22.1654   -4.2156   21.0987 F   0  0  0  0  0  0
  -21.5634   -3.4543   25.7738 F   0  0  0  0  0  0
  -29.8984  -13.9030   20.3608 N   0  0  0  0  0  0
  -26.2840  -12.9496   20.3151 N   0  0  0  0  0  0
  -25.9356  -11.6610   20.5683 N   0  0  0  0  0  0
  -22.0440  -12.8178   22.0429 N   0  0  0  0  0  0
  -25.4123  -15.1975   20.4171 N   0  0  0  0  0  0
  -31.6424  -15.2144   20.1226 O   0  0  0  0  0  0
  -21.6660   -6.8883   21.4243 O   0  0  0  0  0  0
  -22.3476  -14.5493   20.6715 O   0  0  0  0  0  0
  -24.6604  -31.8255   23.1742 C   0  0  0  0  0  0
  -25.9301  -32.4595   23.8195 C   0  0  1  0  0  0
  -27.2122  -26.9539   20.1824 C   0  0  0  0  0  0
  -25.5982  -33.8412   24.2099 N   0  0  0  0  0  0
  -23.4736  -30.4388   21.5225 C   0  0  2  0  0  0
  -24.9254  -28.8303   20.1146 C   0  0  0  0  0  0
  -22.7647  -29.4449   22.4795 C   0  0  0  0  0  0
  -18.0314  -28.1415   22.8463 C   0  0  0  0  0  0
  -24.1497  -36.7216   23.2644 C   0  0  0  0  0  0
  -26.0412  -30.6420   21.3987 C   0  0  0  0  0  0
  -26.1096  -29.2344   20.7439 C   0  0  0  0  0  0
  -27.2509  -28.3172   20.7510 C   0  0  0  0  0  0
  -25.9998  -26.6960   19.5059 C   0  0  0  0  0  0
  -24.8937  -27.5809   19.4768 C   0  0  0  0  0  0
  -23.7125  -29.7568   20.1473 C   0  0  0  0  0  0
  -25.4136  -36.2968   24.0295 C   0  0  1  0  0  0
  -20.5931  -28.3753   23.1191 C   0  0  2  0  0  0
  -20.6786  -26.9436   22.5398 C   0  0  0  0  0  0
  -19.5760  -26.6382   21.5207 C   0  0  0  0  0  0
  -18.1947  -26.7946   22.1618 C   0  0  0  0  0  0
  -19.1574  -28.8905   23.2815 C   0  0  0  0  0  0
  -18.9484  -30.1494   23.8849 C   0  0  0  0  0  0
  -17.6477  -30.6600   24.0555 C   0  0  0  0  0  0
  -25.9096  -34.9347   23.5011 C   0  0  0  0  0  0
  -16.5368  -29.9090   23.6342 C   0  0  0  0  0  0
  -16.7293  -28.6514   23.0354 C   0  0  0  0  0  0
  -26.4561  -31.6532   25.0709 C   0  0  0  0  0  0
  -25.3712  -31.3776   26.1381 C   0  0  0  0  0  0
  -27.0447  -30.2900   24.6421 C   0  0  0  0  0  0
  -27.6057  -32.4340   25.7514 C   0  0  0  0  0  0
  -27.5567  -37.1764   24.8462 C   0  0  0  0  0  0
  -21.4319  -29.3054   22.3550 N   0  0  0  0  0  0
  -26.4280  -37.3701   23.9397 N   0  0  0  0  0  0
  -24.7466  -30.9947   22.0862 N   0  0  0  0  0  0
  -23.4206  -28.8010   23.3019 O   0  0  0  0  0  0
  -28.2223  -25.8669   20.2423 O   0  0  0  0  0  0
  -26.5694  -34.8875   22.4598 O   0  0  0  0  0  0
  -23.5678  -32.1224   23.6841 O   0  0  0  0  0  0
  -32.0207  -19.4670   19.6816 C   0  0  0  0  0  0
  -31.0536  -20.4078   19.8471 C   0  0  0  0  0  0
  -30.1835  -18.3378   20.2331 C   0  0  0  0  0  0
  -28.9766  -22.7910   20.2406 C   0  0  0  0  0  0
  -28.6996  -21.0137   20.3620 C   0  0  0  0  0  0
  -27.9403  -24.2507   20.2349 C   0  0  0  0  0  0
  -29.5567  -16.7610   20.5306 C   0  0  0  0  0  0
  -31.4790  -18.2266   19.9234 N   0  0  0  0  0  0
  -29.8343  -19.8200   20.1972 N   0  0  0  0  0  0
  -29.0976  -16.7663   21.7830 F   0  0  0  0  0  0
  -28.4734  -16.6321   19.7631 F   0  0  0  0  0  0
  -31.4720  -12.9497   19.2178 H   0  0  0  0  0  0
  -30.4866  -11.8448   20.1246 H   0  0  0  0  0  0
  -29.9181  -11.7582   17.6700 H   0  0  0  0  0  0
  -29.5946  -13.4744   17.6725 H   0  0  0  0  0  0
  -28.0282  -11.2760   19.0520 H   0  0  0  0  0  0
  -27.4301  -12.3747   17.8332 H   0  0  0  0  0  0
  -27.5398  -14.2415   19.3320 H   0  0  0  0  0  0
  -28.7907  -12.4759   21.4900 H   0  0  0  0  0  0
  -28.2884  -14.1390   21.6968 H   0  0  0  0  0  0
  -25.2795   -9.5697   22.4752 H   0  0  0  0  0  0
  -24.0026   -7.4654   22.7475 H   0  0  0  0  0  0
  -21.0872   -8.8794   19.8955 H   0  0  0  0  0  0
  -22.3738  -10.9676   19.6164 H   0  0  0  0  0  0
  -21.2011   -7.6150   23.9732 H   0  0  0  0  0  0
  -21.1474   -6.0517   25.9079 H   0  0  0  0  0  0
  -22.0599   -2.7615   23.2856 H   0  0  0  0  0  0
  -22.4060  -11.9859   22.4863 H   0  0  0  0  0  0
  -21.1052  -13.1202   22.2595 H   0  0  0  0  0  0
  -24.6519  -15.8548   20.5516 H   0  0  0  0  0  0
  -26.2660  -15.6425   20.1058 H   0  0  0  0  0  0
  -26.7362  -32.5140   23.0904 H   0  0  0  0  0  0
  -25.0081  -33.9505   25.0215 H   0  0  0  0  0  0
  -22.7859  -31.2698   21.3527 H   0  0  0  0  0  0
  -23.3755  -35.9549   23.3287 H   0  0  0  0  0  0
  -24.3569  -36.8881   22.2061 H   0  0  0  0  0  0
  -23.7262  -37.6402   23.6719 H   0  0  0  0  0  0
  -26.2146  -31.3844   20.6189 H   0  0  0  0  0  0
  -26.9033  -30.6999   22.0512 H   0  0  0  0  0  0
  -28.1511  -28.6247   21.2640 H   0  0  0  0  0  0
  -25.8724  -25.7457   19.0099 H   0  0  0  0  0  0
  -23.9927  -27.2665   18.9687 H   0  0  0  0  0  0
  -23.8723  -30.5265   19.3919 H   0  0  0  0  0  0
  -22.8223  -29.2123   19.8257 H   0  0  0  0  0  0
  -25.1334  -36.1761   25.0786 H   0  0  0  0  0  0
  -21.0017  -28.3356   24.1315 H   0  0  0  0  0  0
  -20.5663  -26.2369   23.3641 H   0  0  0  0  0  0
  -21.6652  -26.7414   22.1203 H   0  0  0  0  0  0
  -19.6916  -25.6282   21.1274 H   0  0  0  0  0  0
  -19.6702  -27.3164   20.6718 H   0  0  0  0  0  0
  -17.4211  -26.6678   21.4034 H   0  0  0  0  0  0
  -18.0350  -26.0111   22.9038 H   0  0  0  0  0  0
  -19.7956  -30.7326   24.2203 H   0  0  0  0  0  0
  -17.5024  -31.6276   24.5165 H   0  0  0  0  0  0
  -15.5366  -30.2970   23.7703 H   0  0  0  0  0  0
  -15.8691  -28.0818   22.7091 H   0  0  0  0  0  0
  -24.5873  -30.7151   25.7686 H   0  0  0  0  0  0
  -24.8939  -32.2983   26.4746 H   0  0  0  0  0  0
  -25.7960  -30.8966   27.0201 H   0  0  0  0  0  0
  -26.3102  -29.6584   24.1413 H   0  0  0  0  0  0
  -27.3958  -29.7251   25.5066 H   0  0  0  0  0  0
  -27.9054  -30.4070   23.9837 H   0  0  0  0  0  0
  -27.2611  -33.3660   26.2003 H   0  0  0  0  0  0
  -28.3920  -32.6868   25.0393 H   0  0  0  0  0  0
  -28.0671  -31.8535   26.5511 H   0  0  0  0  0  0
  -28.2562  -38.0079   24.7489 H   0  0  0  0  0  0
  -28.1084  -36.2598   24.6313 H   0  0  0  0  0  0
  -27.2277  -37.1429   25.8864 H   0  0  0  0  0  0
  -20.9570  -29.8765   21.6697 H   0  0  0  0  0  0
  -26.0124  -38.2754   24.1412 H   0  0  0  0  0  0
  -33.0584  -19.5922   19.4055 H   0  0  0  0  0  0
  -31.1661  -21.4753   19.7279 H   0  0  0  0  0  0
  -29.5373  -22.9036   19.3128 H   0  0  0  0  0  0
  -29.7040  -22.9945   21.0257 H   0  0  0  0  0  0
  -27.9236  -20.7762   19.6336 H   0  0  0  0  0  0
  -28.2230  -20.8355   21.3261 H   0  0  0  0  0  0
  -27.2753  -24.1173   21.0888 H   0  0  0  0  0  0
  -27.2927  -24.0969   19.3724 H   0  0  0  0  0  0
  1 25  1  0  0  0
  1 30  2  0  0  0
  1 77  1  0  0  0
  2  3  1  0  0  0
  2 25  1  0  0  0
  2 82  1  0  0  0
  2 83  1  0  0  0
  3  4  1  0  0  0
  3 84  1  0  0  0
  3 85  1  0  0  0
  4  5  1  0  0  0
  4 86  1  0  0  0
  4 87  1  0  0  0
  5  6  1  0  0  0
  5 26  1  0  0  0
  5 88  1  0  0  0
  6 25  1  0  0  0
  6 89  1  0  0  0
  6 90  1  0  0  0
  7  8  2  0  0  0
  7 26  1  0  0  0
  7 29  1  0  0  0
  8  9  1  0  0  0
  8 22  1  0  0  0
  9 10  1  0  0  0
  9 27  2  0  0  0
 10 11  2  0  0  0
 10 15  1  0  0  0
 11 12  1  0  0  0
 11 91  1  0  0  0
 12 13  2  0  0  0
 12 92  1  0  0  0
 13 14  1  0  0  0
 13 31  1  0  0  0
 14 15  2  0  0  0
 14 93  1  0  0  0
 15 94  1  0  0  0
 16 17  2  0  0  0
 16 21  1  0  0  0
 16 31  1  0  0  0
 17 18  1  0  0  0
 17 95  1  0  0  0
 18 19  2  0  0  0
 18 96  1  0  0  0
 19 20  1  0  0  0
 19 24  1  0  0  0
 20 21  2  0  0  0
 20 97  1  0  0  0
 21 23  1  0  0  0
 22 28  1  0  0  0
 22 32  2  0  0  0
 26 27  1  0  0  0
 28 98  1  0  0  0
 28 99  1  0  0  0
 29100  1  0  0  0
 29101  1  0  0  0
 33 34  1  0  0  0
 33 66  1  0  0  0
 33 70  2  0  0  0
 34 36  1  0  0  0
 34 59  1  0  0  0
 34102  1  0  0  0
 35 44  2  0  0  0
 35 45  1  0  0  0
 35 68  1  0  0  0
 36 56  1  0  0  0
 36103  1  0  0  0
 37 39  1  0  0  0
 37 47  1  0  0  0
 37 66  1  0  0  0
 37104  1  0  0  0
 38 43  2  0  0  0
 38 46  1  0  0  0
 38 47  1  0  0  0
 39 64  1  0  0  0
 39 67  2  0  0  0
 40 52  1  0  0  0
 40 53  2  0  0  0
 40 58  1  0  0  0
 41105  1  0  0  0
 41106  1  0  0  0
 41107  1  0  0  0
 41 48  1  0  0  0
 42 43  1  0  0  0
 42 66  1  0  0  0
 42108  1  0  0  0
 42109  1  0  0  0
 43 44  1  0  0  0
 44110  1  0  0  0
 45 46  2  0  0  0
 45111  1  0  0  0
 46112  1  0  0  0
 47113  1  0  0  0
 47114  1  0  0  0
 48 56  1  0  0  0
 48 65  1  0  0  0
 48115  1  0  0  0
 49 50  1  0  0  0
 49 53  1  0  0  0
 49 64  1  0  0  0
 49116  1  0  0  0
 50 51  1  0  0  0
 50117  1  0  0  0
 50118  1  0  0  0
 51 52  1  0  0  0
 51119  1  0  0  0
 51120  1  0  0  0
 52121  1  0  0  0
 52122  1  0  0  0
 53 54  1  0  0  0
 54 55  2  0  0  0
 54123  1  0  0  0
 55 57  1  0  0  0
 55124  1  0  0  0
 56 69  2  0  0  0
 57 58  2  0  0  0
 57125  1  0  0  0
 58126  1  0  0  0
 59 60  1  0  0  0
 59 61  1  0  0  0
 59 62  1  0  0  0
 60127  1  0  0  0
 60128  1  0  0  0
 60129  1  0  0  0
 61130  1  0  0  0
 61131  1  0  0  0
 61132  1  0  0  0
 62133  1  0  0  0
 62134  1  0  0  0
 62135  1  0  0  0
 63 65  1  0  0  0
 63136  1  0  0  0
 63137  1  0  0  0
 63138  1  0  0  0
 64139  1  0  0  0
 65140  1  0  0  0
 68 76  1  0  0  0
 71 72  2  0  0  0
 71 78  1  0  0  0
 71141  1  0  0  0
 72 79  1  0  0  0
 72142  1  0  0  0
 73 77  1  0  0  0
 73 78  2  0  0  0
 73 79  1  0  0  0
 74 75  1  0  0  0
 74 76  1  0  0  0
 74143  1  0  0  0
 74144  1  0  0  0
 75 79  1  0  0  0
 75145  1  0  0  0
 75146  1  0  0  0
 76147  1  0  0  0
 76148  1  0  0  0
 77 80  1  0  0  0
 77 81  1  0  0  0
M  ISO  4   1 100  68 101  76 101  77 100
M  END
> <chiral flag>
0

> <version>
0

> <s_m_source_file>
/data/baiqing/PycharmProjects/Reinvent-master-3.2/result/LINK_invent/BTK/process_docking_weight1_custom_sum_contain_oxygen_bond_distance_aromatic_linkinvent_7_9_3/rearranged_h_0053.sdf

> <i_m_source_file_index>
90

> <r_mmod_Potential_Energy-OPLS-2005>
1439.55712890625

> <r_mmod_Stretch_Energy-OPLS-2005>
611.866027832031

> <r_mmod_Bend_Energy-OPLS-2005>
482.415954589844

> <r_mmod_Torsional_Energy-OPLS-2005>
201.595306396484

> <r_mmod_Improper_Torsional_Energy-OPLS-2005>
2.4240620136261

> <r_mmod_Van_der_Waal_Energy-OPLS-2005>
109.582633972168

> <r_mmod_Electrostatic_Energy-OPLS-2005>
-166.483535766602

> <r_mmod_Solvation_Energy-OPLS-2005>
-213.702285766602

> <b_mmod_Minimization_Converged-OPLS-2005>
0

> <r_mmod_RMS_Derivative-OPLS-2005>
1.87845993041992

$$$$
93
                    3D
 Structure written by MMmdl.
170178  0  0  1  0            999 V2000
  -30.7422  -14.4919   20.3681 C   0  0  0  0  0  0
  -30.4148  -12.2699   19.4190 C   0  0  0  0  0  0
  -29.4602  -12.3513   18.2061 C   0  0  0  0  0  0
  -27.9909  -12.2785   18.6486 C   0  0  0  0  0  0
  -27.6485  -13.2054   19.8469 C   0  0  2  0  0  0
  -28.7154  -13.1010   20.9635 C   0  0  0  0  0  0
  -25.2563  -13.8196   20.5716 C   0  0  0  0  0  0
  -24.1794  -13.0468   20.9238 C   0  0  0  0  0  0
  -24.6350  -11.6937   20.8831 C   0  0  0  0  0  0
  -23.9024  -10.4298   21.0463 C   0  0  0  0  0  0
  -24.3567   -9.4185   21.9212 C   0  0  0  0  0  0
  -23.6235   -8.2218   22.0759 C   0  0  0  0  0  0
  -22.4223   -8.0259   21.3544 C   0  0  0  0  0  0
  -21.9877   -9.0250   20.4660 C   0  0  0  0  0  0
  -22.7209  -10.2135   20.3097 C   0  0  0  0  0  0
  -21.6821   -6.0705   22.5279 C   0  0  0  0  0  0
  -21.3998   -6.5617   23.8217 C   0  0  0  0  0  0
  -21.3671   -5.6782   24.9193 C   0  0  0  0  0  0
  -21.6055   -4.3043   24.7251 C   0  0  0  0  0  0
  -21.8809   -3.8117   23.4372 C   0  0  0  0  0  0
  -21.9170   -4.6929   22.3416 C   0  0  0  0  0  0
  -22.7817  -13.5270   21.1883 C   0  0  0  0  0  0
  -22.1636   -4.2101   21.0999 F   0  0  0  0  0  0
  -21.5641   -3.4544   25.7770 F   0  0  0  0  0  0
  -30.0338  -13.3322   20.3544 N   0  0  0  0  0  0
  -26.2982  -12.9357   20.3389 N   0  0  0  0  0  0
  -25.9289  -11.6534   20.5932 N   0  0  0  0  0  0
  -22.0406  -12.8267   22.0427 N   0  0  0  0  0  0
  -25.4382  -15.1889   20.4069 N   0  0  0  0  0  0
  -31.9717  -14.5204   20.3399 O   0  0  0  0  0  0
  -21.6602   -6.8839   21.4236 O   0  0  0  0  0  0
  -22.3531  -14.5576   20.6739 O   0  0  0  0  0  0
  -24.6132  -31.8712   23.2166 C   0  0  0  0  0  0
  -25.9050  -32.4827   23.8439 C   0  0  1  0  0  0
  -27.2184  -27.4361   20.0527 C   0  0  0  0  0  0
  -25.5912  -33.8637   24.2356 N   0  0  0  0  0  0
  -23.3972  -30.5011   21.5613 C   0  0  2  0  0  0
  -24.8337  -28.9733   20.1210 C   0  0  0  0  0  0
  -22.7396  -29.4682   22.5039 C   0  0  0  0  0  0
  -18.0266  -28.1348   22.8507 C   0  0  0  0  0  0
  -24.1483  -36.7310   23.2643 C   0  0  0  0  0  0
  -25.9319  -30.8271   21.3764 C   0  0  0  0  0  0
  -25.9998  -29.4643   20.7178 C   0  0  0  0  0  0
  -27.1912  -28.6974   20.6949 C   0  0  0  0  0  0
  -26.0180  -26.9668   19.4575 C   0  0  0  0  0  0
  -24.8347  -27.7177   19.5017 C   0  0  0  0  0  0
  -23.5996  -29.8417   20.1750 C   0  0  0  0  0  0
  -25.4106  -36.3120   24.0351 C   0  0  1  0  0  0
  -20.5853  -28.3649   23.1324 C   0  0  2  0  0  0
  -20.6768  -26.9392   22.5425 C   0  0  0  0  0  0
  -19.5735  -26.6371   21.5229 C   0  0  0  0  0  0
  -18.1909  -26.7893   22.1634 C   0  0  0  0  0  0
  -19.1520  -28.8814   23.2905 C   0  0  0  0  0  0
  -18.9453  -30.1417   23.8915 C   0  0  0  0  0  0
  -17.6463  -30.6572   24.0555 C   0  0  0  0  0  0
  -25.9050  -34.9487   23.5151 C   0  0  0  0  0  0
  -16.5353  -29.9073   23.6313 C   0  0  0  0  0  0
  -16.7260  -28.6469   23.0373 C   0  0  0  0  0  0
  -26.4469  -31.6601   25.0772 C   0  0  0  0  0  0
  -25.3720  -31.3755   26.1513 C   0  0  0  0  0  0
  -27.0322  -30.3032   24.6185 C   0  0  0  0  0  0
  -27.6033  -32.4328   25.7525 C   0  0  0  0  0  0
  -27.5576  -37.1821   24.8466 C   0  0  0  0  0  0
  -21.4126  -29.3031   22.3748 N   0  0  0  0  0  0
  -26.4289  -37.3800   23.9416 N   0  0  0  0  0  0
  -24.6644  -31.0832   22.1066 N   0  0  0  0  0  0
  -23.4185  -28.8204   23.3066 O   0  0  0  0  0  0
  -28.3978  -26.7084   20.0191 O   0  0  0  0  0  0
  -26.5609  -34.8917   22.4710 O   0  0  0  0  0  0
  -23.5318  -32.1479   23.7553 O   0  0  0  0  0  0
  -28.9257  -19.7509   20.0013 C   0  0  0  0  0  0
  -31.0332  -20.4340   20.2186 C   0  0  2  0  0  0
  -32.4783  -20.0412   19.8147 C   0  0  0  0  0  0
  -32.1291  -22.3680   21.7265 C   0  0  0  0  0  0
  -30.6158  -15.6776   18.2849 C   0  0  0  0  0  0
  -31.0244  -21.3082   21.5235 C   0  0  0  0  0  0
  -29.6485  -23.4917   18.3379 C   0  0  0  0  0  0
  -29.6771  -24.6749   19.3349 C   0  0  0  0  0  0
  -30.5686  -17.9540   19.9736 C   0  0  0  0  0  0
  -29.6543  -16.7316   20.3000 C   0  0  0  0  0  0
  -30.7349  -22.3971   18.5408 C   0  0  0  0  0  0
  -28.4205  -25.5455   19.1790 C   0  0  0  0  0  0
  -28.9363  -20.7937   19.2446 N   0  0  0  0  0  0
  -30.1459  -19.2762   20.4562 N   0  0  0  0  0  0
  -30.1317  -15.4793   19.6682 N   0  0  0  0  0  0
  -30.3016  -21.0711   19.0839 N   0  3  2  0  0  0
  -31.4555  -12.3533   19.0956 H   0  0  0  0  0  0
  -30.3290  -11.2947   19.8999 H   0  0  0  0  0  0
  -29.6779  -11.5334   17.5184 H   0  0  0  0  0  0
  -29.5827  -13.2514   17.6196 H   0  0  0  0  0  0
  -27.8037  -11.2383   18.9188 H   0  0  0  0  0  0
  -27.3374  -12.4921   17.8015 H   0  0  0  0  0  0
  -27.6658  -14.2286   19.4712 H   0  0  0  0  0  0
  -28.6829  -12.1152   21.4327 H   0  0  0  0  0  0
  -28.5227  -13.8327   21.7507 H   0  0  0  0  0  0
  -25.2708   -9.5617   22.4798 H   0  0  0  0  0  0
  -23.9919   -7.4599   22.7477 H   0  0  0  0  0  0
  -21.0812   -8.8778   19.8961 H   0  0  0  0  0  0
  -22.3679  -10.9667   19.6208 H   0  0  0  0  0  0
  -21.1982   -7.6127   23.9711 H   0  0  0  0  0  0
  -21.1520   -6.0521   25.9095 H   0  0  0  0  0  0
  -22.0581   -2.7571   23.2913 H   0  0  0  0  0  0
  -22.3946  -11.9882   22.4776 H   0  0  0  0  0  0
  -21.1046  -13.1368   22.2658 H   0  0  0  0  0  0
  -24.6885  -15.8636   20.5134 H   0  0  0  0  0  0
  -26.3083  -15.6044   20.1011 H   0  0  0  0  0  0
  -26.7116  -32.5526   23.1188 H   0  0  0  0  0  0
  -25.0053  -33.9818   25.0487 H   0  0  0  0  0  0
  -22.6825  -31.3166   21.4333 H   0  0  0  0  0  0
  -23.3740  -35.9649   23.3331 H   0  0  0  0  0  0
  -24.3558  -36.8901   22.2050 H   0  0  0  0  0  0
  -23.7240  -37.6527   23.6634 H   0  0  0  0  0  0
  -26.0627  -31.5926   20.6108 H   0  0  0  0  0  0
  -26.8117  -30.8631   22.0049 H   0  0  0  0  0  0
  -28.0910  -29.0742   21.1587 H   0  0  0  0  0  0
  -25.9464  -26.0274   18.9353 H   0  0  0  0  0  0
  -23.9344  -27.3309   19.0443 H   0  0  0  0  0  0
  -23.7032  -30.6180   19.4171 H   0  0  0  0  0  0
  -22.7168  -29.2687   19.8842 H   0  0  0  0  0  0
  -25.1280  -36.1980   25.0845 H   0  0  0  0  0  0
  -20.9965  -28.3226   24.1436 H   0  0  0  0  0  0
  -20.5682  -26.2276   23.3621 H   0  0  0  0  0  0
  -21.6639  -26.7438   22.1218 H   0  0  0  0  0  0
  -19.6917  -25.6294   21.1222 H   0  0  0  0  0  0
  -19.6656  -27.3211   20.6780 H   0  0  0  0  0  0
  -17.4203  -26.6656   21.4020 H   0  0  0  0  0  0
  -18.0294  -26.0010   22.8998 H   0  0  0  0  0  0
  -19.7942  -30.7212   24.2303 H   0  0  0  0  0  0
  -17.5028  -31.6256   24.5151 H   0  0  0  0  0  0
  -15.5356  -30.2994   23.7617 H   0  0  0  0  0  0
  -15.8650  -28.0779   22.7122 H   0  0  0  0  0  0
  -24.5833  -30.7171   25.7857 H   0  0  0  0  0  0
  -24.8986  -32.2955   26.4953 H   0  0  0  0  0  0
  -25.8027  -30.8900   27.0278 H   0  0  0  0  0  0
  -26.2923  -29.6787   24.1167 H   0  0  0  0  0  0
  -27.4021  -29.7255   25.4667 H   0  0  0  0  0  0
  -27.8771  -30.4353   23.9422 H   0  0  0  0  0  0
  -27.2633  -33.3597   26.2135 H   0  0  0  0  0  0
  -28.3802  -32.6940   25.0342 H   0  0  0  0  0  0
  -28.0731  -31.8449   26.5406 H   0  0  0  0  0  0
  -28.2620  -38.0092   24.7499 H   0  0  0  0  0  0
  -28.1051  -36.2633   24.6315 H   0  0  0  0  0  0
  -27.2305  -37.1511   25.8872 H   0  0  0  0  0  0
  -20.9283  -29.8734   21.6951 H   0  0  0  0  0  0
  -26.0176  -38.2887   24.1387 H   0  0  0  0  0  0
  -28.0250  -19.2226   20.3152 H   0  0  0  0  0  0
  -32.9724  -19.4836   20.6098 H   0  0  0  0  0  0
  -33.0980  -20.9107   19.5988 H   0  0  0  0  0  0
  -32.5097  -19.4286   18.9142 H   0  0  0  0  0  0
  -33.1286  -21.9383   21.6586 H   0  0  0  0  0  0
  -32.0487  -22.7903   22.7293 H   0  0  0  0  0  0
  -32.0607  -23.2072   21.0384 H   0  0  0  0  0  0
  -31.5260  -16.2780   18.2534 H   0  0  0  0  0  0
  -30.9300  -14.7572   17.8002 H   0  0  0  0  0  0
  -29.8544  -16.1393   17.6556 H   0  0  0  0  0  0
  -31.1113  -20.6283   22.3719 H   0  0  0  0  0  0
  -30.0542  -21.7858   21.6540 H   0  0  0  0  0  0
  -29.8194  -23.9210   17.3490 H   0  0  0  0  0  0
  -28.6460  -23.0718   18.2618 H   0  0  0  0  0  0
  -30.5666  -25.2786   19.1600 H   0  0  0  0  0  0
  -29.7370  -24.3155   20.3633 H   0  0  0  0  0  0
  -30.6637  -18.0716   18.8937 H   0  0  0  0  0  0
  -31.5627  -17.7301   20.3614 H   0  0  0  0  0  0
  -29.5697  -16.6043   21.3821 H   0  0  0  0  0  0
  -28.6476  -16.9106   19.9227 H   0  0  0  0  0  0
  -31.6182  -22.7916   19.0285 H   0  0  0  0  0  0
  -31.1108  -22.1456   17.5490 H   0  0  0  0  0  0
  -28.3094  -25.8618   18.1376 H   0  0  0  0  0  0
  -27.5881  -24.8871   19.4245 H   0  0  0  0  0  0
  -30.5483  -20.4656   18.3133 H   0  0  0  0  0  0
  1 25  1  0  0  0
  1 30  2  0  0  0
  1 85  1  0  0  0
  2  3  1  0  0  0
  2 25  1  0  0  0
  2 87  1  0  0  0
  2 88  1  0  0  0
  3  4  1  0  0  0
  3 89  1  0  0  0
  3 90  1  0  0  0
  4  5  1  0  0  0
  4 91  1  0  0  0
  4 92  1  0  0  0
  5  6  1  0  0  0
  5 26  1  0  0  0
  5 93  1  0  0  0
  6 25  1  0  0  0
  6 94  1  0  0  0
  6 95  1  0  0  0
  7  8  2  0  0  0
  7 26  1  0  0  0
  7 29  1  0  0  0
  8  9  1  0  0  0
  8 22  1  0  0  0
  9 10  1  0  0  0
  9 27  2  0  0  0
 10 11  2  0  0  0
 10 15  1  0  0  0
 11 12  1  0  0  0
 11 96  1  0  0  0
 12 13  2  0  0  0
 12 97  1  0  0  0
 13 14  1  0  0  0
 13 31  1  0  0  0
 14 15  2  0  0  0
 14 98  1  0  0  0
 15 99  1  0  0  0
 16 17  2  0  0  0
 16 21  1  0  0  0
 16 31  1  0  0  0
 17 18  1  0  0  0
 17100  1  0  0  0
 18 19  2  0  0  0
 18101  1  0  0  0
 19 20  1  0  0  0
 19 24  1  0  0  0
 20 21  2  0  0  0
 20102  1  0  0  0
 21 23  1  0  0  0
 22 28  1  0  0  0
 22 32  2  0  0  0
 26 27  1  0  0  0
 28103  1  0  0  0
 28104  1  0  0  0
 29105  1  0  0  0
 29106  1  0  0  0
 33 34  1  0  0  0
 33 66  1  0  0  0
 33 70  2  0  0  0
 34 36  1  0  0  0
 34 59  1  0  0  0
 34107  1  0  0  0
 35 44  2  0  0  0
 35 45  1  0  0  0
 35 68  1  0  0  0
 36 56  1  0  0  0
 36108  1  0  0  0
 37 39  1  0  0  0
 37 47  1  0  0  0
 37 66  1  0  0  0
 37109  1  0  0  0
 38 43  2  0  0  0
 38 46  1  0  0  0
 38 47  1  0  0  0
 39 64  1  0  0  0
 39 67  2  0  0  0
 40 52  1  0  0  0
 40 53  2  0  0  0
 40 58  1  0  0  0
 41110  1  0  0  0
 41111  1  0  0  0
 41112  1  0  0  0
 41 48  1  0  0  0
 42 43  1  0  0  0
 42 66  1  0  0  0
 42113  1  0  0  0
 42114  1  0  0  0
 43 44  1  0  0  0
 44115  1  0  0  0
 45 46  2  0  0  0
 45116  1  0  0  0
 46117  1  0  0  0
 47118  1  0  0  0
 47119  1  0  0  0
 48 56  1  0  0  0
 48 65  1  0  0  0
 48120  1  0  0  0
 49 50  1  0  0  0
 49 53  1  0  0  0
 49 64  1  0  0  0
 49121  1  0  0  0
 50 51  1  0  0  0
 50122  1  0  0  0
 50123  1  0  0  0
 51 52  1  0  0  0
 51124  1  0  0  0
 51125  1  0  0  0
 52126  1  0  0  0
 52127  1  0  0  0
 53 54  1  0  0  0
 54 55  2  0  0  0
 54128  1  0  0  0
 55 57  1  0  0  0
 55129  1  0  0  0
 56 69  2  0  0  0
 57 58  2  0  0  0
 57130  1  0  0  0
 58131  1  0  0  0
 59 60  1  0  0  0
 59 61  1  0  0  0
 59 62  1  0  0  0
 60132  1  0  0  0
 60133  1  0  0  0
 60134  1  0  0  0
 61135  1  0  0  0
 61136  1  0  0  0
 61137  1  0  0  0
 62138  1  0  0  0
 62139  1  0  0  0
 62140  1  0  0  0
 63 65  1  0  0  0
 63141  1  0  0  0
 63142  1  0  0  0
 63143  1  0  0  0
 64144  1  0  0  0
 65145  1  0  0  0
 68 82  1  0  0  0
 71 83  2  0  0  0
 71 84  1  0  0  0
 71146  1  0  0  0
 72 73  1  0  0  0
 72 76  1  0  0  0
 72 84  1  0  0  0
 72 86  1  0  0  0
 73147  1  0  0  0
 73148  1  0  0  0
 73149  1  0  0  0
 74 76  1  0  0  0
 74150  1  0  0  0
 74151  1  0  0  0
 74152  1  0  0  0
 75 85  1  0  0  0
 75153  1  0  0  0
 75154  1  0  0  0
 75155  1  0  0  0
 76156  1  0  0  0
 76157  1  0  0  0
 77 78  1  0  0  0
 77 81  1  0  0  0
 77158  1  0  0  0
 77159  1  0  0  0
 78 82  1  0  0  0
 78160  1  0  0  0
 78161  1  0  0  0
 79 80  1  0  0  0
 79 84  1  0  0  0
 79162  1  0  0  0
 79163  1  0  0  0
 80 85  1  0  0  0
 80164  1  0  0  0
 80165  1  0  0  0
 81166  1  0  0  0
 81167  1  0  0  0
 81 86  1  0  0  0
 82168  1  0  0  0
 82169  1  0  0  0
 83 86  1  0  0  0
 86170  1  0  0  0
M  CHG  1  86   1
M  ISO  4   1 100  68 101  82 101  85 100
M  END
> <chiral flag>
0

> <version>
0

> <s_m_source_file>
/data/baiqing/PycharmProjects/Reinvent-master-3.2/result/LINK_invent/BTK/process_docking_weight1_custom_sum_contain_oxygen_bond_distance_aromatic_linkinvent_7_9_3/rearranged_h_0053.sdf

> <i_m_source_file_index>
91

> <r_mmod_Potential_Energy-OPLS-2005>
265.598327636719

> <r_mmod_Stretch_Energy-OPLS-2005>
44.2714462280273

> <r_mmod_Bend_Energy-OPLS-2005>
188.763320922852

> <r_mmod_Torsional_Energy-OPLS-2005>
369.505096435547

> <r_mmod_Improper_Torsional_Energy-OPLS-2005>
35.5038604736328

> <r_mmod_Van_der_Waal_Energy-OPLS-2005>
163.493804931641

> <r_mmod_Electrostatic_Energy-OPLS-2005>
-155.697555541992

> <r_mmod_Solvation_Energy-OPLS-2005>
-424.282135009766

> <b_mmod_Minimization_Converged-OPLS-2005>
0

> <r_mmod_RMS_Derivative-OPLS-2005>
3.86078834533691

$$$$
