0
                    3D
 Structure written by MMmdl.
139147  0  0  1  0            999 V2000
  -30.1730  -16.0432   20.2541 C   0  0  0  0  0  0
  -30.3856  -13.3663   19.5752 C   0  0  0  0  0  0
  -29.5677  -12.7601   18.3840 C   0  0  0  0  0  0
  -28.1690  -12.3253   18.8340 C   0  0  0  0  0  0
  -27.5776  -13.3639   19.8067 C   0  0  2  0  0  0
  -28.5559  -13.8800   20.9003 C   0  0  0  0  0  0
  -25.2241  -13.8394   20.5851 C   0  0  0  0  0  0
  -24.1695  -13.0472   20.9314 C   0  0  0  0  0  0
  -24.6457  -11.6993   20.8759 C   0  0  0  0  0  0
  -23.9181  -10.4317   21.0391 C   0  0  0  0  0  0
  -24.3684   -9.4227   21.9191 C   0  0  0  0  0  0
  -23.6332   -8.2283   22.0769 C   0  0  0  0  0  0
  -22.4317   -8.0325   21.3562 C   0  0  0  0  0  0
  -21.9964   -9.0305   20.4674 C   0  0  0  0  0  0
  -22.7326  -10.2167   20.3068 C   0  0  0  0  0  0
  -21.6870   -6.0761   22.5275 C   0  0  0  0  0  0
  -21.4037   -6.5664   23.8211 C   0  0  0  0  0  0
  -21.3660   -5.6816   24.9175 C   0  0  0  0  0  0
  -21.6034   -4.3077   24.7222 C   0  0  0  0  0  0
  -21.8812   -3.8167   23.4344 C   0  0  0  0  0  0
  -21.9195   -4.6985   22.3398 C   0  0  0  0  0  0
  -22.7690  -13.5148   21.1945 C   0  0  0  0  0  0
  -22.1657   -4.2167   21.0974 F   0  0  0  0  0  0
  -21.5620   -3.4560   25.7729 F   0  0  0  0  0  0
  -29.6893  -14.6036   20.2392 N   0  0  0  0  0  0
  -26.2725  -12.9825   20.3269 N   0  0  0  0  0  0
  -25.9434  -11.6834   20.5669 N   0  0  0  0  0  0
  -22.0357  -12.8108   22.0482 N   0  0  0  0  0  0
  -25.3822  -15.2159   20.4335 N   0  0  0  0  0  0
  -31.4096  -15.8596   20.1107 O   0  0  0  0  0  0
  -21.6674   -6.8915   21.4243 O   0  0  0  0  0  0
  -22.3327  -14.5450   20.6815 O   0  0  0  0  0  0
  -24.7083  -31.7633   23.1295 C   0  0  0  0  0  0
  -25.9525  -32.4294   23.7966 C   0  0  1  0  0  0
  -27.2384  -26.4153   20.2373 C   0  0  0  0  0  0
  -25.5982  -33.8136   24.1807 N   0  0  0  0  0  0
  -23.5505  -30.3539   21.4892 C   0  0  2  0  0  0
  -25.0115  -28.6375   20.1277 C   0  0  0  0  0  0
  -22.7874  -29.4114   22.4617 C   0  0  0  0  0  0
  -18.0350  -28.1394   22.8438 C   0  0  0  0  0  0
  -24.1561  -36.7139   23.2650 C   0  0  0  0  0  0
  -26.1421  -30.4062   21.4364 C   0  0  0  0  0  0
  -26.2051  -28.9373   20.7927 C   0  0  0  0  0  0
  -27.2888  -27.8641   20.8071 C   0  0  0  0  0  0
  -26.0092  -26.4031   19.5068 C   0  0  0  0  0  0
  -24.9687  -27.3997   19.4599 C   0  0  0  0  0  0
  -23.8231  -29.6271   20.1366 C   0  0  0  0  0  0
  -25.4197  -36.2806   24.0255 C   0  0  1  0  0  0
  -20.6003  -28.3783   23.1078 C   0  0  2  0  0  0
  -20.6826  -26.9424   22.5364 C   0  0  0  0  0  0
  -19.5790  -26.6329   21.5199 C   0  0  0  0  0  0
  -18.1994  -26.7898   22.1648 C   0  0  0  0  0  0
  -19.1619  -28.8919   23.2731 C   0  0  0  0  0  0
  -18.9507  -30.1501   23.8774 C   0  0  0  0  0  0
  -17.6493  -30.6571   24.0521 C   0  0  0  0  0  0
  -25.9159  -34.9181   23.4898 C   0  0  0  0  0  0
  -16.5390  -29.9044   23.6336 C   0  0  0  0  0  0
  -16.7326  -28.6473   23.0350 C   0  0  0  0  0  0
  -26.4624  -31.6444   25.0700 C   0  0  0  0  0  0
  -25.3675  -31.3819   26.1319 C   0  0  0  0  0  0
  -27.0595  -30.2759   24.6774 C   0  0  0  0  0  0
  -27.5991  -32.4373   25.7557 C   0  0  0  0  0  0
  -27.5593  -37.1730   24.8445 C   0  0  0  0  0  0
  -21.4494  -29.2992   22.3379 N   0  0  0  0  0  0
  -26.4321  -37.3574   23.9359 N   0  0  0  0  0  0
  -24.8277  -30.8810   22.0710 N   0  0  0  0  0  0
  -23.4187  -28.7721   23.3056 O   0  0  0  0  0  0
  -28.1577  -25.0623   20.3001 O   0  0  0  0  0  0
  -26.5847  -34.8787   22.4550 O   0  0  0  0  0  0
  -23.6049  -32.0830   23.6058 O   0  0  0  0  0  0
  -29.7311  -18.9905   19.2527 C   0  0  0  0  0  0
  -29.5369  -17.8378   20.2426 C   0  0  0  0  0  0
  -28.7630  -21.3120   20.2526 C   0  0  0  0  0  0
  -27.9652  -23.1709   20.1539 C   0  0  0  0  0  0
  -29.3710  -20.4644   19.2518 N   0  0  0  0  0  0
  -28.9221  -18.7647   21.2208 N   0  0  0  0  0  0
  -28.5541  -20.2296   21.2195 N   0  0  0  0  0  0
  -31.3654  -13.6420   19.1823 H   0  0  0  0  0  0
  -30.6074  -12.5916   20.3134 H   0  0  0  0  0  0
  -30.0998  -11.9155   17.9425 H   0  0  0  0  0  0
  -29.4788  -13.5109   17.5996 H   0  0  0  0  0  0
  -28.2597  -11.3629   19.3415 H   0  0  0  0  0  0
  -27.5147  -12.1683   17.9754 H   0  0  0  0  0  0
  -27.3887  -14.2244   19.1630 H   0  0  0  0  0  0
  -28.8801  -13.0813   21.5712 H   0  0  0  0  0  0
  -28.0383  -14.6037   21.5338 H   0  0  0  0  0  0
  -25.2816   -9.5699   22.4804 H   0  0  0  0  0  0
  -24.0021   -7.4671   22.7508 H   0  0  0  0  0  0
  -21.0887   -8.8860   19.8993 H   0  0  0  0  0  0
  -22.3783  -10.9728   19.6200 H   0  0  0  0  0  0
  -21.2055   -7.6180   23.9711 H   0  0  0  0  0  0
  -21.1479   -6.0560   25.9075 H   0  0  0  0  0  0
  -22.0583   -2.7628   23.2839 H   0  0  0  0  0  0
  -22.3998  -11.9757   22.4851 H   0  0  0  0  0  0
  -21.0995  -13.1120   22.2745 H   0  0  0  0  0  0
  -24.6197  -15.8717   20.5750 H   0  0  0  0  0  0
  -26.2363  -15.6645   20.1276 H   0  0  0  0  0  0
  -26.7608  -32.4685   23.0679 H   0  0  0  0  0  0
  -24.9964  -33.9134   24.9852 H   0  0  0  0  0  0
  -22.8936  -31.2001   21.2721 H   0  0  0  0  0  0
  -23.3804  -35.9488   23.3206 H   0  0  0  0  0  0
  -24.3653  -36.8920   22.2087 H   0  0  0  0  0  0
  -23.7362  -37.6301   23.6814 H   0  0  0  0  0  0
  -26.3673  -31.1059   20.6318 H   0  0  0  0  0  0
  -26.9854  -30.4884   22.1092 H   0  0  0  0  0  0
  -28.1818  -28.1109   21.3663 H   0  0  0  0  0  0
  -25.7945  -25.4890   18.9714 H   0  0  0  0  0  0
  -24.0771  -27.1580   18.8970 H   0  0  0  0  0  0
  -24.0248  -30.3754   19.3672 H   0  0  0  0  0  0
  -22.9234  -29.1077   19.8037 H   0  0  0  0  0  0
  -25.1433  -36.1551   25.0750 H   0  0  0  0  0  0
  -21.0073  -28.3401   24.1209 H   0  0  0  0  0  0
  -20.5711  -26.2389   23.3630 H   0  0  0  0  0  0
  -21.6681  -26.7357   22.1155 H   0  0  0  0  0  0
  -19.6956  -25.6207   21.1302 H   0  0  0  0  0  0
  -19.6709  -27.3077   20.6674 H   0  0  0  0  0  0
  -17.4224  -26.6534   21.4104 H   0  0  0  0  0  0
  -18.0474  -26.0088   22.9115 H   0  0  0  0  0  0
  -19.7973  -30.7354   24.2098 H   0  0  0  0  0  0
  -17.5020  -31.6246   24.5128 H   0  0  0  0  0  0
  -15.5378  -30.2899   23.7696 H   0  0  0  0  0  0
  -15.8737  -28.0740   22.7122 H   0  0  0  0  0  0
  -24.5613  -30.7526   25.7527 H   0  0  0  0  0  0
  -24.9217  -32.3103   26.4898 H   0  0  0  0  0  0
  -25.7778  -30.8698   27.0038 H   0  0  0  0  0  0
  -26.3351  -29.6302   24.1801 H   0  0  0  0  0  0
  -27.3948  -29.7292   25.5598 H   0  0  0  0  0  0
  -27.9366  -30.3830   24.0397 H   0  0  0  0  0  0
  -27.2406  -33.3657   26.2030 H   0  0  0  0  0  0
  -28.3878  -32.6998   25.0492 H   0  0  0  0  0  0
  -28.0613  -31.8628   26.5602 H   0  0  0  0  0  0
  -28.2507  -38.0116   24.7520 H   0  0  0  0  0  0
  -28.1206  -36.2627   24.6274 H   0  0  0  0  0  0
  -27.2284  -37.1334   25.8838 H   0  0  0  0  0  0
  -20.9827  -29.8678   21.6437 H   0  0  0  0  0  0
  -26.0128  -38.2633   24.1283 H   0  0  0  0  0  0
  -30.2321  -18.7196   18.3319 H   0  0  0  0  0  0
  -27.1319  -23.0330   20.8431 H   0  0  0  0  0  0
  -27.4942  -23.1088   19.1738 H   0  0  0  0  0  0
  1 25  1  0  0  0
  1 30  2  0  0  0
  1 72  1  0  0  0
  2  3  1  0  0  0
  2 25  1  0  0  0
  2 78  1  0  0  0
  2 79  1  0  0  0
  3  4  1  0  0  0
  3 80  1  0  0  0
  3 81  1  0  0  0
  4  5  1  0  0  0
  4 82  1  0  0  0
  4 83  1  0  0  0
  5  6  1  0  0  0
  5 26  1  0  0  0
  5 84  1  0  0  0
  6 25  1  0  0  0
  6 85  1  0  0  0
  6 86  1  0  0  0
  7  8  2  0  0  0
  7 26  1  0  0  0
  7 29  1  0  0  0
  8  9  1  0  0  0
  8 22  1  0  0  0
  9 10  1  0  0  0
  9 27  2  0  0  0
 10 11  2  0  0  0
 10 15  1  0  0  0
 11 12  1  0  0  0
 11 87  1  0  0  0
 12 13  2  0  0  0
 12 88  1  0  0  0
 13 14  1  0  0  0
 13 31  1  0  0  0
 14 15  2  0  0  0
 14 89  1  0  0  0
 15 90  1  0  0  0
 16 17  2  0  0  0
 16 21  1  0  0  0
 16 31  1  0  0  0
 17 18  1  0  0  0
 17 91  1  0  0  0
 18 19  2  0  0  0
 18 92  1  0  0  0
 19 20  1  0  0  0
 19 24  1  0  0  0
 20 21  2  0  0  0
 20 93  1  0  0  0
 21 23  1  0  0  0
 22 28  1  0  0  0
 22 32  2  0  0  0
 26 27  1  0  0  0
 28 94  1  0  0  0
 28 95  1  0  0  0
 29 96  1  0  0  0
 29 97  1  0  0  0
 33 34  1  0  0  0
 33 66  1  0  0  0
 33 70  2  0  0  0
 34 36  1  0  0  0
 34 59  1  0  0  0
 34 98  1  0  0  0
 35 44  2  0  0  0
 35 45  1  0  0  0
 35 68  1  0  0  0
 36 56  1  0  0  0
 36 99  1  0  0  0
 37 39  1  0  0  0
 37 47  1  0  0  0
 37 66  1  0  0  0
 37100  1  0  0  0
 38 43  2  0  0  0
 38 46  1  0  0  0
 38 47  1  0  0  0
 39 64  1  0  0  0
 39 67  2  0  0  0
 40 52  1  0  0  0
 40 53  2  0  0  0
 40 58  1  0  0  0
 41101  1  0  0  0
 41102  1  0  0  0
 41103  1  0  0  0
 41 48  1  0  0  0
 42 43  1  0  0  0
 42 66  1  0  0  0
 42104  1  0  0  0
 42105  1  0  0  0
 43 44  1  0  0  0
 44106  1  0  0  0
 45 46  2  0  0  0
 45107  1  0  0  0
 46108  1  0  0  0
 47109  1  0  0  0
 47110  1  0  0  0
 48 56  1  0  0  0
 48 65  1  0  0  0
 48111  1  0  0  0
 49 50  1  0  0  0
 49 53  1  0  0  0
 49 64  1  0  0  0
 49112  1  0  0  0
 50 51  1  0  0  0
 50113  1  0  0  0
 50114  1  0  0  0
 51 52  1  0  0  0
 51115  1  0  0  0
 51116  1  0  0  0
 52117  1  0  0  0
 52118  1  0  0  0
 53 54  1  0  0  0
 54 55  2  0  0  0
 54119  1  0  0  0
 55 57  1  0  0  0
 55120  1  0  0  0
 56 69  2  0  0  0
 57 58  2  0  0  0
 57121  1  0  0  0
 58122  1  0  0  0
 59 60  1  0  0  0
 59 61  1  0  0  0
 59 62  1  0  0  0
 60123  1  0  0  0
 60124  1  0  0  0
 60125  1  0  0  0
 61126  1  0  0  0
 61127  1  0  0  0
 61128  1  0  0  0
 62129  1  0  0  0
 62130  1  0  0  0
 62131  1  0  0  0
 63 65  1  0  0  0
 63132  1  0  0  0
 63133  1  0  0  0
 63134  1  0  0  0
 64135  1  0  0  0
 65136  1  0  0  0
 68 74  1  0  0  0
 71 72  2  0  0  0
 71 75  1  0  0  0
 71137  1  0  0  0
 72 76  1  0  0  0
 73 74  1  0  0  0
 73 75  2  0  0  0
 73 77  1  0  0  0
 74138  1  0  0  0
 74139  1  0  0  0
 76 77  2  0  0  0
M  ISO  4   1 100  68 101  72 100  74 101
M  END
> <chiral flag>
0

> <version>
0

> <s_m_source_file>
/data/baiqing/PycharmProjects/Reinvent-master-3.2/result/LINK_invent/BTK/process_docking_weight1_custom_sum_contain_oxygen_bond_distance_aromatic_linkinvent_7_9_3/rearranged_h_0057.sdf

> <i_m_source_file_index>
1

> <r_mmod_Potential_Energy-OPLS-2005>
4139.9306640625

> <r_mmod_Stretch_Energy-OPLS-2005>
1633.58166503906

> <r_mmod_Bend_Energy-OPLS-2005>
988.313415527344

> <r_mmod_Torsional_Energy-OPLS-2005>
222.330230712891

> <r_mmod_Improper_Torsional_Energy-OPLS-2005>
7.33307981491089

> <r_mmod_Van_der_Waal_Energy-OPLS-2005>
145.569976806641

> <r_mmod_Electrostatic_Energy-OPLS-2005>
-210.78678894043

> <r_mmod_Solvation_Energy-OPLS-2005>
-245.551956176758

> <b_mmod_Minimization_Converged-OPLS-2005>
0

> <r_mmod_RMS_Derivative-OPLS-2005>
3.76690888404846

$$$$
1
                    3D
 Structure written by MMmdl.
159167  0  0  1  0            999 V2000
  -30.5324  -14.8228   20.3315 C   0  0  0  0  0  0
  -30.4479  -12.4595   19.5121 C   0  0  0  0  0  0
  -29.5458  -12.3619   18.2641 C   0  0  0  0  0  0
  -28.0457  -12.2837   18.6398 C   0  0  0  0  0  0
  -27.6214  -13.2105   19.8160 C   0  0  2  0  0  0
  -28.6646  -13.2152   20.9461 C   0  0  0  0  0  0
  -25.2518  -13.8164   20.5571 C   0  0  0  0  0  0
  -24.1780  -13.0426   20.9137 C   0  0  0  0  0  0
  -24.6325  -11.6896   20.8646 C   0  0  0  0  0  0
  -23.9036  -10.4286   21.0386 C   0  0  0  0  0  0
  -24.3624   -9.4225   21.9183 C   0  0  0  0  0  0
  -23.6294   -8.2279   22.0778 C   0  0  0  0  0  0
  -22.4274   -8.0321   21.3581 C   0  0  0  0  0  0
  -21.9904   -9.0272   20.4671 C   0  0  0  0  0  0
  -22.7222  -10.2136   20.3053 C   0  0  0  0  0  0
  -21.6860   -6.0729   22.5262 C   0  0  0  0  0  0
  -21.4015   -6.5620   23.8214 C   0  0  0  0  0  0
  -21.3649   -5.6768   24.9188 C   0  0  0  0  0  0
  -21.6069   -4.3045   24.7223 C   0  0  0  0  0  0
  -21.8819   -3.8124   23.4353 C   0  0  0  0  0  0
  -21.9200   -4.6948   22.3407 C   0  0  0  0  0  0
  -22.7825  -13.5280   21.1774 C   0  0  0  0  0  0
  -22.1649   -4.2130   21.0994 F   0  0  0  0  0  0
  -21.5647   -3.4549   25.7757 F   0  0  0  0  0  0
  -29.9484  -13.5731   20.3445 N   0  0  0  0  0  0
  -26.2827  -12.9236   20.3124 N   0  0  0  0  0  0
  -25.9234  -11.6417   20.5665 N   0  0  0  0  0  0
  -22.0421  -12.8328   22.0344 N   0  0  0  0  0  0
  -25.4294  -15.1893   20.3923 N   0  0  0  0  0  0
  -31.7624  -14.9035   20.2265 O   0  0  0  0  0  0
  -21.6652   -6.8886   21.4247 O   0  0  0  0  0  0
  -22.3512  -14.5561   20.6594 O   0  0  0  0  0  0
  -24.6253  -31.8638   23.2015 C   0  0  0  0  0  0
  -25.9107  -32.4811   23.8388 C   0  0  1  0  0  0
  -27.2340  -27.3106   20.1157 C   0  0  0  0  0  0
  -25.5950  -33.8623   24.2303 N   0  0  0  0  0  0
  -23.4193  -30.4727   21.5530 C   0  0  2  0  0  0
  -24.8665  -28.9191   20.1211 C   0  0  0  0  0  0
  -22.7468  -29.4623   22.5085 C   0  0  0  0  0  0
  -18.0267  -28.1332   22.8491 C   0  0  0  0  0  0
  -24.1486  -36.7316   23.2645 C   0  0  0  0  0  0
  -25.9572  -30.7894   21.3662 C   0  0  0  0  0  0
  -26.0329  -29.4112   20.7115 C   0  0  0  0  0  0
  -27.2181  -28.6210   20.6987 C   0  0  0  0  0  0
  -26.0441  -26.8652   19.5097 C   0  0  0  0  0  0
  -24.8731  -27.6479   19.5101 C   0  0  0  0  0  0
  -23.6241  -29.7856   20.1758 C   0  0  0  0  0  0
  -25.4118  -36.3115   24.0316 C   0  0  1  0  0  0
  -20.5842  -28.3671   23.1326 C   0  0  2  0  0  0
  -20.6760  -26.9388   22.5437 C   0  0  0  0  0  0
  -19.5763  -26.6335   21.5228 C   0  0  0  0  0  0
  -18.1921  -26.7899   22.1569 C   0  0  0  0  0  0
  -19.1505  -28.8828   23.2883 C   0  0  0  0  0  0
  -18.9432  -30.1439   23.8878 C   0  0  0  0  0  0
  -17.6435  -30.6561   24.0544 C   0  0  0  0  0  0
  -25.9048  -34.9481   23.5083 C   0  0  0  0  0  0
  -16.5324  -29.9039   23.6334 C   0  0  0  0  0  0
  -16.7254  -28.6429   23.0396 C   0  0  0  0  0  0
  -26.4469  -31.6706   25.0820 C   0  0  0  0  0  0
  -25.3660  -31.3890   26.1546 C   0  0  0  0  0  0
  -27.0398  -30.3158   24.6322 C   0  0  0  0  0  0
  -27.6045  -32.4504   25.7530 C   0  0  0  0  0  0
  -27.5574  -37.1802   24.8433 C   0  0  0  0  0  0
  -21.4199  -29.3037   22.3795 N   0  0  0  0  0  0
  -26.4297  -37.3813   23.9384 N   0  0  0  0  0  0
  -24.6883  -31.0591   22.0985 N   0  0  0  0  0  0
  -23.4208  -28.8189   23.3194 O   0  0  0  0  0  0
  -28.3733  -26.4953   20.1866 O   0  0  0  0  0  0
  -26.5585  -34.8890   22.4627 O   0  0  0  0  0  0
  -23.5443  -32.1464   23.7301 O   0  0  0  0  0  0
  -29.8575  -19.9474   20.2140 C   0  0  0  0  0  0
  -29.2435  -18.6858   20.5773 C   0  0  0  0  0  0
  -28.9454  -20.9900   20.3665 C   0  0  0  0  0  0
  -28.4935  -17.1606   18.0330 C   0  0  0  0  0  0
  -26.4435  -20.8229   21.0307 C   0  0  0  0  0  0
  -29.9184  -17.2622   20.8569 C   0  0  0  0  0  0
  -29.2200  -22.5404   20.1621 C   0  0  0  0  0  0
  -28.2092  -23.7809   20.4090 C   0  0  0  0  0  0
  -29.4131  -16.0478   18.6045 C   0  0  0  0  0  0
  -28.4787  -25.1369   19.5883 C   0  0  0  0  0  0
  -27.9762  -18.9565   20.8994 N   0  0  0  0  0  0
  -27.7787  -20.3127   20.7518 N   0  0  0  0  0  0
  -29.7283  -15.9492   20.0656 N   0  0  0  0  0  0
  -31.4805  -12.6010   19.1978 H   0  0  0  0  0  0
  -30.4366  -11.5281   20.0822 H   0  0  0  0  0  0
  -29.8125  -11.4475   17.7314 H   0  0  0  0  0  0
  -29.7616  -13.1769   17.5745 H   0  0  0  0  0  0
  -27.8616  -11.2465   18.9247 H   0  0  0  0  0  0
  -27.4390  -12.4633   17.7534 H   0  0  0  0  0  0
  -27.5554  -14.2119   19.4153 H   0  0  0  0  0  0
  -28.7228  -12.2348   21.4147 H   0  0  0  0  0  0
  -28.3834  -13.9386   21.7157 H   0  0  0  0  0  0
  -25.2744   -9.5695   22.4794 H   0  0  0  0  0  0
  -24.0005   -7.4651   22.7481 H   0  0  0  0  0  0
  -21.0876   -8.8758   19.8943 H   0  0  0  0  0  0
  -22.3669  -10.9707   19.6189 H   0  0  0  0  0  0
  -21.1967   -7.6124   23.9720 H   0  0  0  0  0  0
  -21.1489   -6.0510   25.9105 H   0  0  0  0  0  0
  -22.0597   -2.7607   23.2871 H   0  0  0  0  0  0
  -22.3937  -12.0057   22.4937 H   0  0  0  0  0  0
  -21.1027  -13.1462   22.2339 H   0  0  0  0  0  0
  -24.6863  -15.8691   20.5135 H   0  0  0  0  0  0
  -26.3087  -15.6160   20.1202 H   0  0  0  0  0  0
  -26.7194  -32.5422   23.1173 H   0  0  0  0  0  0
  -25.0277  -33.9854   25.0558 H   0  0  0  0  0  0
  -22.7147  -31.2931   21.4060 H   0  0  0  0  0  0
  -23.3759  -35.9634   23.3309 H   0  0  0  0  0  0
  -24.3565  -36.8946   22.2055 H   0  0  0  0  0  0
  -23.7194  -37.6496   23.6676 H   0  0  0  0  0  0
  -26.0731  -31.5482   20.5908 H   0  0  0  0  0  0
  -26.8472  -30.8563   21.9807 H   0  0  0  0  0  0
  -28.1182  -28.9994   21.1594 H   0  0  0  0  0  0
  -25.9840  -25.8880   19.0493 H   0  0  0  0  0  0
  -23.9743  -27.2621   19.0546 H   0  0  0  0  0  0
  -23.7002  -30.5529   19.4074 H   0  0  0  0  0  0
  -22.7535  -29.1877   19.9024 H   0  0  0  0  0  0
  -25.1288  -36.2003   25.0807 H   0  0  0  0  0  0
  -20.9889  -28.3181   24.1472 H   0  0  0  0  0  0
  -20.5640  -26.2279   23.3639 H   0  0  0  0  0  0
  -21.6644  -26.7419   22.1247 H   0  0  0  0  0  0
  -19.6936  -25.6238   21.1308 H   0  0  0  0  0  0
  -19.6706  -27.3106   20.6738 H   0  0  0  0  0  0
  -17.4231  -26.6735   21.3899 H   0  0  0  0  0  0
  -18.0213  -25.9955   22.8857 H   0  0  0  0  0  0
  -19.7898  -30.7266   24.2218 H   0  0  0  0  0  0
  -17.4966  -31.6225   24.5181 H   0  0  0  0  0  0
  -15.5316  -30.2934   23.7686 H   0  0  0  0  0  0
  -15.8636  -28.0728   22.7207 H   0  0  0  0  0  0
  -24.5651  -30.7507   25.7811 H   0  0  0  0  0  0
  -24.9060  -32.3106   26.5156 H   0  0  0  0  0  0
  -25.7858  -30.8835   27.0251 H   0  0  0  0  0  0
  -26.3052  -29.6866   24.1302 H   0  0  0  0  0  0
  -27.4109  -29.7478   25.4876 H   0  0  0  0  0  0
  -27.8870  -30.4546   23.9587 H   0  0  0  0  0  0
  -27.2656  -33.3747   26.2221 H   0  0  0  0  0  0
  -28.3719  -32.7236   25.0273 H   0  0  0  0  0  0
  -28.0899  -31.8627   26.5332 H   0  0  0  0  0  0
  -28.2638  -38.0077   24.7522 H   0  0  0  0  0  0
  -28.1031  -36.2616   24.6218 H   0  0  0  0  0  0
  -27.2289  -37.1401   25.8840 H   0  0  0  0  0  0
  -20.9427  -29.8759   21.6955 H   0  0  0  0  0  0
  -26.0188  -38.2887   24.1403 H   0  0  0  0  0  0
  -30.8933  -20.0750   19.9293 H   0  0  0  0  0  0
  -28.2852  -16.9259   16.9855 H   0  0  0  0  0  0
  -28.9597  -18.1424   17.9935 H   0  0  0  0  0  0
  -27.5251  -17.2587   18.5278 H   0  0  0  0  0  0
  -26.4234  -21.3769   21.9761 H   0  0  0  0  0  0
  -25.7278  -19.9961   21.1017 H   0  0  0  0  0  0
  -26.1203  -21.4723   20.2169 H   0  0  0  0  0  0
  -30.9950  -17.4349   20.9397 H   0  0  0  0  0  0
  -29.6308  -17.0037   21.8788 H   0  0  0  0  0  0
  -29.6606  -22.6697   19.1714 H   0  0  0  0  0  0
  -30.0655  -22.7694   20.8183 H   0  0  0  0  0  0
  -28.2102  -24.0313   21.4722 H   0  0  0  0  0  0
  -27.1916  -23.4766   20.1816 H   0  0  0  0  0  0
  -30.3278  -16.0123   18.0151 H   0  0  0  0  0  0
  -28.9226  -15.1309   18.3112 H   0  0  0  0  0  0
  -27.9410  -25.1015   18.6427 H   0  0  0  0  0  0
  -29.5253  -25.0826   19.2788 H   0  0  0  0  0  0
  1 25  1  0  0  0
  1 30  2  0  0  0
  1 83  1  0  0  0
  2  3  1  0  0  0
  2 25  1  0  0  0
  2 84  1  0  0  0
  2 85  1  0  0  0
  3  4  1  0  0  0
  3 86  1  0  0  0
  3 87  1  0  0  0
  4  5  1  0  0  0
  4 88  1  0  0  0
  4 89  1  0  0  0
  5  6  1  0  0  0
  5 26  1  0  0  0
  5 90  1  0  0  0
  6 25  1  0  0  0
  6 91  1  0  0  0
  6 92  1  0  0  0
  7  8  2  0  0  0
  7 26  1  0  0  0
  7 29  1  0  0  0
  8  9  1  0  0  0
  8 22  1  0  0  0
  9 10  1  0  0  0
  9 27  2  0  0  0
 10 11  2  0  0  0
 10 15  1  0  0  0
 11 12  1  0  0  0
 11 93  1  0  0  0
 12 13  2  0  0  0
 12 94  1  0  0  0
 13 14  1  0  0  0
 13 31  1  0  0  0
 14 15  2  0  0  0
 14 95  1  0  0  0
 15 96  1  0  0  0
 16 17  2  0  0  0
 16 21  1  0  0  0
 16 31  1  0  0  0
 17 18  1  0  0  0
 17 97  1  0  0  0
 18 19  2  0  0  0
 18 98  1  0  0  0
 19 20  1  0  0  0
 19 24  1  0  0  0
 20 21  2  0  0  0
 20 99  1  0  0  0
 21 23  1  0  0  0
 22 28  1  0  0  0
 22 32  2  0  0  0
 26 27  1  0  0  0
 28100  1  0  0  0
 28101  1  0  0  0
 29102  1  0  0  0
 29103  1  0  0  0
 33 34  1  0  0  0
 33 66  1  0  0  0
 33 70  2  0  0  0
 34 36  1  0  0  0
 34 59  1  0  0  0
 34104  1  0  0  0
 35 44  2  0  0  0
 35 45  1  0  0  0
 35 68  1  0  0  0
 36 56  1  0  0  0
 36105  1  0  0  0
 37 39  1  0  0  0
 37 47  1  0  0  0
 37 66  1  0  0  0
 37106  1  0  0  0
 38 43  2  0  0  0
 38 46  1  0  0  0
 38 47  1  0  0  0
 39 64  1  0  0  0
 39 67  2  0  0  0
 40 52  1  0  0  0
 40 53  2  0  0  0
 40 58  1  0  0  0
 41107  1  0  0  0
 41108  1  0  0  0
 41109  1  0  0  0
 41 48  1  0  0  0
 42 43  1  0  0  0
 42 66  1  0  0  0
 42110  1  0  0  0
 42111  1  0  0  0
 43 44  1  0  0  0
 44112  1  0  0  0
 45 46  2  0  0  0
 45113  1  0  0  0
 46114  1  0  0  0
 47115  1  0  0  0
 47116  1  0  0  0
 48 56  1  0  0  0
 48 65  1  0  0  0
 48117  1  0  0  0
 49 50  1  0  0  0
 49 53  1  0  0  0
 49 64  1  0  0  0
 49118  1  0  0  0
 50 51  1  0  0  0
 50119  1  0  0  0
 50120  1  0  0  0
 51 52  1  0  0  0
 51121  1  0  0  0
 51122  1  0  0  0
 52123  1  0  0  0
 52124  1  0  0  0
 53 54  1  0  0  0
 54 55  2  0  0  0
 54125  1  0  0  0
 55 57  1  0  0  0
 55126  1  0  0  0
 56 69  2  0  0  0
 57 58  2  0  0  0
 57127  1  0  0  0
 58128  1  0  0  0
 59 60  1  0  0  0
 59 61  1  0  0  0
 59 62  1  0  0  0
 60129  1  0  0  0
 60130  1  0  0  0
 60131  1  0  0  0
 61132  1  0  0  0
 61133  1  0  0  0
 61134  1  0  0  0
 62135  1  0  0  0
 62136  1  0  0  0
 62137  1  0  0  0
 63 65  1  0  0  0
 63138  1  0  0  0
 63139  1  0  0  0
 63140  1  0  0  0
 64141  1  0  0  0
 65142  1  0  0  0
 68 80  1  0  0  0
 71 72  1  0  0  0
 71 73  2  0  0  0
 71143  1  0  0  0
 72 76  1  0  0  0
 72 81  2  0  0  0
 73 77  1  0  0  0
 73 82  1  0  0  0
 74 79  1  0  0  0
 74144  1  0  0  0
 74145  1  0  0  0
 74146  1  0  0  0
 75 82  1  0  0  0
 75147  1  0  0  0
 75148  1  0  0  0
 75149  1  0  0  0
 76 83  1  0  0  0
 76150  1  0  0  0
 76151  1  0  0  0
 77 78  1  0  0  0
 77152  1  0  0  0
 77153  1  0  0  0
 78 80  1  0  0  0
 78154  1  0  0  0
 78155  1  0  0  0
 79 83  1  0  0  0
 79156  1  0  0  0
 79157  1  0  0  0
 80158  1  0  0  0
 80159  1  0  0  0
 81 82  1  0  0  0
M  ISO  4   1 100  68 101  80 101  83 100
M  END
> <chiral flag>
0

> <version>
0

> <s_m_source_file>
/data/baiqing/PycharmProjects/Reinvent-master-3.2/result/LINK_invent/BTK/process_docking_weight1_custom_sum_contain_oxygen_bond_distance_aromatic_linkinvent_7_9_3/rearranged_h_0057.sdf

> <i_m_source_file_index>
2

> <r_mmod_Potential_Energy-OPLS-2005>
342.551849365234

> <r_mmod_Stretch_Energy-OPLS-2005>
123.440116882324

> <r_mmod_Bend_Energy-OPLS-2005>
231.092437744141

> <r_mmod_Torsional_Energy-OPLS-2005>
325.392333984375

> <r_mmod_Improper_Torsional_Energy-OPLS-2005>
13.6411333084106

> <r_mmod_Van_der_Waal_Energy-OPLS-2005>
117.583183288574

> <r_mmod_Electrostatic_Energy-OPLS-2005>
-373.398254394531

> <r_mmod_Solvation_Energy-OPLS-2005>
-202.372772216797

> <b_mmod_Minimization_Converged-OPLS-2005>
0

> <r_mmod_RMS_Derivative-OPLS-2005>
9.59316253662109

$$$$
2
                    3D
 Structure written by MMmdl.
145153  0  0  1  0            999 V2000
  -30.3030  -15.5585   20.3890 C   0  0  0  0  0  0
  -30.4409  -13.0113   19.5779 C   0  0  0  0  0  0
  -29.5635  -12.6648   18.3390 C   0  0  0  0  0  0
  -28.1233  -12.3217   18.7523 C   0  0  0  0  0  0
  -27.6086  -13.3041   19.8264 C   0  0  2  0  0  0
  -28.6166  -13.5633   20.9653 C   0  0  0  0  0  0
  -25.2364  -13.8288   20.5785 C   0  0  0  0  0  0
  -24.1746  -13.0442   20.9255 C   0  0  0  0  0  0
  -24.6435  -11.6943   20.8749 C   0  0  0  0  0  0
  -23.9145  -10.4289   21.0399 C   0  0  0  0  0  0
  -24.3666   -9.4214   21.9208 C   0  0  0  0  0  0
  -23.6324   -8.2260   22.0770 C   0  0  0  0  0  0
  -22.4316   -8.0293   21.3546 C   0  0  0  0  0  0
  -21.9972   -9.0269   20.4640 C   0  0  0  0  0  0
  -22.7307  -10.2140   20.3056 C   0  0  0  0  0  0
  -21.6874   -6.0748   22.5266 C   0  0  0  0  0  0
  -21.4037   -6.5655   23.8197 C   0  0  0  0  0  0
  -21.3691   -5.6799   24.9159 C   0  0  0  0  0  0
  -21.6054   -4.3058   24.7201 C   0  0  0  0  0  0
  -21.8817   -3.8154   23.4320 C   0  0  0  0  0  0
  -21.9199   -4.6979   22.3379 C   0  0  0  0  0  0
  -22.7757  -13.5174   21.1905 C   0  0  0  0  0  0
  -22.1676   -4.2171   21.0963 F   0  0  0  0  0  0
  -21.5635   -3.4536   25.7719 F   0  0  0  0  0  0
  -29.8307  -14.1736   20.3689 N   0  0  0  0  0  0
  -26.2819  -12.9613   20.3226 N   0  0  0  0  0  0
  -25.9381  -11.6687   20.5674 N   0  0  0  0  0  0
  -22.0444  -12.8141   22.0454 N   0  0  0  0  0  0
  -25.3986  -15.2035   20.4302 N   0  0  0  0  0  0
  -31.4821  -15.5690   19.9921 O   0  0  0  0  0  0
  -21.6682   -6.8895   21.4220 O   0  0  0  0  0  0
  -22.3431  -14.5472   20.6756 O   0  0  0  0  0  0
  -24.6759  -31.8076   23.1553 C   0  0  0  0  0  0
  -25.9361  -32.4518   23.8092 C   0  0  1  0  0  0
  -27.2194  -26.7514   20.2097 C   0  0  0  0  0  0
  -25.5974  -33.8351   24.1993 N   0  0  0  0  0  0
  -23.5012  -30.4094   21.5090 C   0  0  2  0  0  0
  -24.9600  -28.7637   20.1110 C   0  0  0  0  0  0
  -22.7744  -29.4344   22.4737 C   0  0  0  0  0  0
  -18.0336  -28.1414   22.8477 C   0  0  0  0  0  0
  -24.1504  -36.7203   23.2650 C   0  0  0  0  0  0
  -26.0774  -30.5601   21.4091 C   0  0  0  0  0  0
  -26.1447  -29.1275   20.7601 C   0  0  0  0  0  0
  -27.2596  -28.1455   20.7801 C   0  0  0  0  0  0
  -26.0042  -26.5852   19.4975 C   0  0  0  0  0  0
  -24.9259  -27.5192   19.4569 C   0  0  0  0  0  0
  -23.7521  -29.7116   20.1412 C   0  0  0  0  0  0
  -25.4147  -36.2945   24.0290 C   0  0  1  0  0  0
  -20.5967  -28.3768   23.1188 C   0  0  2  0  0  0
  -20.6810  -26.9441   22.5431 C   0  0  0  0  0  0
  -19.5784  -26.6374   21.5243 C   0  0  0  0  0  0
  -18.1962  -26.7951   22.1632 C   0  0  0  0  0  0
  -19.1600  -28.8916   23.2814 C   0  0  0  0  0  0
  -18.9494  -30.1498   23.8859 C   0  0  0  0  0  0
  -17.6481  -30.6605   24.0557 C   0  0  0  0  0  0
  -25.9109  -34.9318   23.4976 C   0  0  0  0  0  0
  -16.5374  -29.9083   23.6344 C   0  0  0  0  0  0
  -16.7314  -28.6501   23.0373 C   0  0  0  0  0  0
  -26.4552  -31.6529   25.0690 C   0  0  0  0  0  0
  -25.3629  -31.3831   26.1315 C   0  0  0  0  0  0
  -27.0447  -30.2875   24.6512 C   0  0  0  0  0  0
  -27.6030  -32.4346   25.7513 C   0  0  0  0  0  0
  -27.5573  -37.1783   24.8458 C   0  0  0  0  0  0
  -21.4390  -29.3024   22.3508 N   0  0  0  0  0  0
  -26.4286  -37.3684   23.9387 N   0  0  0  0  0  0
  -24.7755  -30.9549   22.0790 N   0  0  0  0  0  0
  -23.4223  -28.7956   23.3064 O   0  0  0  0  0  0
  -28.1906  -25.5607   20.3320 O   0  0  0  0  0  0
  -26.5735  -34.8878   22.4580 O   0  0  0  0  0  0
  -23.5802  -32.1113   23.6548 O   0  0  0  0  0  0
  -29.0137  -16.7573   22.1966 C   0  0  0  0  0  0
  -28.4771  -18.8172   22.0248 C   0  0  0  0  0  0
  -29.5189  -17.0652   20.9501 C   0  0  0  0  0  0
  -28.8023  -22.1771   20.6296 C   0  0  0  0  0  0
  -29.1278  -20.3208   20.1553 C   0  0  0  0  0  0
  -28.1162  -23.8529   19.9953 C   0  0  0  0  0  0
  -28.3581  -17.7876   22.8323 N   0  0  0  0  0  0
  -29.1673  -18.6976   20.8690 N   0  0  0  0  0  0
  -31.4496  -13.2517   19.2373 H   0  0  0  0  0  0
  -30.5653  -12.1357   20.2192 H   0  0  0  0  0  0
  -30.0003  -11.8349   17.7849 H   0  0  0  0  0  0
  -29.5559  -13.5216   17.6623 H   0  0  0  0  0  0
  -28.1163  -11.3046   19.1467 H   0  0  0  0  0  0
  -27.4632  -12.3240   17.8847 H   0  0  0  0  0  0
  -27.4997  -14.2537   19.2989 H   0  0  0  0  0  0
  -28.8334  -12.6564   21.5312 H   0  0  0  0  0  0
  -28.1569  -14.2457   21.6752 H   0  0  0  0  0  0
  -25.2808   -9.5721   22.4795 H   0  0  0  0  0  0
  -24.0055   -7.4661   22.7487 H   0  0  0  0  0  0
  -21.0937   -8.8786   19.8907 H   0  0  0  0  0  0
  -22.3788  -10.9696   19.6168 H   0  0  0  0  0  0
  -21.2035   -7.6165   23.9713 H   0  0  0  0  0  0
  -21.1542   -6.0530   25.9071 H   0  0  0  0  0  0
  -22.0569   -2.7618   23.2799 H   0  0  0  0  0  0
  -22.4118  -11.9840   22.4864 H   0  0  0  0  0  0
  -21.1035  -13.1096   22.2635 H   0  0  0  0  0  0
  -24.6336  -15.8535   20.5703 H   0  0  0  0  0  0
  -26.2493  -15.6573   20.1225 H   0  0  0  0  0  0
  -26.7448  -32.5017   23.0820 H   0  0  0  0  0  0
  -25.0044  -33.9416   25.0098 H   0  0  0  0  0  0
  -22.8223  -31.2441   21.3236 H   0  0  0  0  0  0
  -23.3769  -35.9531   23.3286 H   0  0  0  0  0  0
  -24.3567  -36.8886   22.2068 H   0  0  0  0  0  0
  -23.7274  -37.6387   23.6732 H   0  0  0  0  0  0
  -26.2569  -31.2930   20.6198 H   0  0  0  0  0  0
  -26.9350  -30.6392   22.0656 H   0  0  0  0  0  0
  -28.1497  -28.4260   21.3260 H   0  0  0  0  0  0
  -25.8438  -25.6399   19.0001 H   0  0  0  0  0  0
  -24.0286  -27.2369   18.9251 H   0  0  0  0  0  0
  -23.9196  -30.4732   19.3790 H   0  0  0  0  0  0
  -22.8596  -29.1717   19.8192 H   0  0  0  0  0  0
  -25.1365  -36.1731   25.0786 H   0  0  0  0  0  0
  -21.0040  -28.3386   24.1314 H   0  0  0  0  0  0
  -20.5692  -26.2392   23.3684 H   0  0  0  0  0  0
  -21.6674  -26.7408   22.1239 H   0  0  0  0  0  0
  -19.6939  -25.6264   21.1322 H   0  0  0  0  0  0
  -19.6729  -27.3147   20.6747 H   0  0  0  0  0  0
  -17.4247  -26.6730   21.4014 H   0  0  0  0  0  0
  -18.0310  -26.0095   22.9022 H   0  0  0  0  0  0
  -19.7961  -30.7330   24.2228 H   0  0  0  0  0  0
  -17.5019  -31.6283   24.5159 H   0  0  0  0  0  0
  -15.5365  -30.2960   23.7676 H   0  0  0  0  0  0
  -15.8724  -28.0783   22.7115 H   0  0  0  0  0  0
  -24.5859  -30.7117   25.7627 H   0  0  0  0  0  0
  -24.8749  -32.3046   26.4509 H   0  0  0  0  0  0
  -25.7817  -30.9169   27.0244 H   0  0  0  0  0  0
  -26.3119  -29.6533   24.1506 H   0  0  0  0  0  0
  -27.3908  -29.7267   25.5205 H   0  0  0  0  0  0
  -27.9094  -30.4016   23.9972 H   0  0  0  0  0  0
  -27.2597  -33.3723   26.1894 H   0  0  0  0  0  0
  -28.3947  -32.6781   25.0413 H   0  0  0  0  0  0
  -28.0563  -31.8588   26.5594 H   0  0  0  0  0  0
  -28.2583  -38.0087   24.7463 H   0  0  0  0  0  0
  -28.1086  -36.2607   24.6336 H   0  0  0  0  0  0
  -27.2281  -37.1472   25.8861 H   0  0  0  0  0  0
  -20.9671  -29.8682   21.6588 H   0  0  0  0  0  0
  -26.0136  -38.2758   24.1333 H   0  0  0  0  0  0
  -29.0924  -15.8202   22.7263 H   0  0  0  0  0  0
  -28.0333  -19.7543   22.3297 H   0  0  0  0  0  0
  -29.7910  -22.5191   20.9355 H   0  0  0  0  0  0
  -28.2811  -22.0935   21.5845 H   0  0  0  0  0  0
  -29.8455  -20.5443   20.9449 H   0  0  0  0  0  0
  -28.0371  -20.3164   20.1415 H   0  0  0  0  0  0
  -27.0419  -23.6785   19.9420 H   0  0  0  0  0  0
  -28.4097  -23.8493   18.9449 H   0  0  0  0  0  0
  1 25  1  0  0  0
  1 30  2  0  0  0
  1 73  1  0  0  0
  2  3  1  0  0  0
  2 25  1  0  0  0
  2 79  1  0  0  0
  2 80  1  0  0  0
  3  4  1  0  0  0
  3 81  1  0  0  0
  3 82  1  0  0  0
  4  5  1  0  0  0
  4 83  1  0  0  0
  4 84  1  0  0  0
  5  6  1  0  0  0
  5 26  1  0  0  0
  5 85  1  0  0  0
  6 25  1  0  0  0
  6 86  1  0  0  0
  6 87  1  0  0  0
  7  8  2  0  0  0
  7 26  1  0  0  0
  7 29  1  0  0  0
  8  9  1  0  0  0
  8 22  1  0  0  0
  9 10  1  0  0  0
  9 27  2  0  0  0
 10 11  2  0  0  0
 10 15  1  0  0  0
 11 12  1  0  0  0
 11 88  1  0  0  0
 12 13  2  0  0  0
 12 89  1  0  0  0
 13 14  1  0  0  0
 13 31  1  0  0  0
 14 15  2  0  0  0
 14 90  1  0  0  0
 15 91  1  0  0  0
 16 17  2  0  0  0
 16 21  1  0  0  0
 16 31  1  0  0  0
 17 18  1  0  0  0
 17 92  1  0  0  0
 18 19  2  0  0  0
 18 93  1  0  0  0
 19 20  1  0  0  0
 19 24  1  0  0  0
 20 21  2  0  0  0
 20 94  1  0  0  0
 21 23  1  0  0  0
 22 28  1  0  0  0
 22 32  2  0  0  0
 26 27  1  0  0  0
 28 95  1  0  0  0
 28 96  1  0  0  0
 29 97  1  0  0  0
 29 98  1  0  0  0
 33 34  1  0  0  0
 33 66  1  0  0  0
 33 70  2  0  0  0
 34 36  1  0  0  0
 34 59  1  0  0  0
 34 99  1  0  0  0
 35 44  2  0  0  0
 35 45  1  0  0  0
 35 68  1  0  0  0
 36 56  1  0  0  0
 36100  1  0  0  0
 37 39  1  0  0  0
 37 47  1  0  0  0
 37 66  1  0  0  0
 37101  1  0  0  0
 38 43  2  0  0  0
 38 46  1  0  0  0
 38 47  1  0  0  0
 39 64  1  0  0  0
 39 67  2  0  0  0
 40 52  1  0  0  0
 40 53  2  0  0  0
 40 58  1  0  0  0
 41102  1  0  0  0
 41103  1  0  0  0
 41104  1  0  0  0
 41 48  1  0  0  0
 42 43  1  0  0  0
 42 66  1  0  0  0
 42105  1  0  0  0
 42106  1  0  0  0
 43 44  1  0  0  0
 44107  1  0  0  0
 45 46  2  0  0  0
 45108  1  0  0  0
 46109  1  0  0  0
 47110  1  0  0  0
 47111  1  0  0  0
 48 56  1  0  0  0
 48 65  1  0  0  0
 48112  1  0  0  0
 49 50  1  0  0  0
 49 53  1  0  0  0
 49 64  1  0  0  0
 49113  1  0  0  0
 50 51  1  0  0  0
 50114  1  0  0  0
 50115  1  0  0  0
 51 52  1  0  0  0
 51116  1  0  0  0
 51117  1  0  0  0
 52118  1  0  0  0
 52119  1  0  0  0
 53 54  1  0  0  0
 54 55  2  0  0  0
 54120  1  0  0  0
 55 57  1  0  0  0
 55121  1  0  0  0
 56 69  2  0  0  0
 57 58  2  0  0  0
 57122  1  0  0  0
 58123  1  0  0  0
 59 60  1  0  0  0
 59 61  1  0  0  0
 59 62  1  0  0  0
 60124  1  0  0  0
 60125  1  0  0  0
 60126  1  0  0  0
 61127  1  0  0  0
 61128  1  0  0  0
 61129  1  0  0  0
 62130  1  0  0  0
 62131  1  0  0  0
 62132  1  0  0  0
 63 65  1  0  0  0
 63133  1  0  0  0
 63134  1  0  0  0
 63135  1  0  0  0
 64136  1  0  0  0
 65137  1  0  0  0
 68 76  1  0  0  0
 71 73  2  0  0  0
 71 77  1  0  0  0
 71138  1  0  0  0
 72 77  2  0  0  0
 72 78  1  0  0  0
 72139  1  0  0  0
 73 78  1  0  0  0
 74 75  1  0  0  0
 74 76  1  0  0  0
 74140  1  0  0  0
 74141  1  0  0  0
 75 78  1  0  0  0
 75142  1  0  0  0
 75143  1  0  0  0
 76144  1  0  0  0
 76145  1  0  0  0
M  ISO  4   1 100  68 101  73 100  76 101
M  END
> <chiral flag>
0

> <version>
0

> <s_m_source_file>
/data/baiqing/PycharmProjects/Reinvent-master-3.2/result/LINK_invent/BTK/process_docking_weight1_custom_sum_contain_oxygen_bond_distance_aromatic_linkinvent_7_9_3/rearranged_h_0057.sdf

> <i_m_source_file_index>
3

> <r_mmod_Potential_Energy-OPLS-2005>
2734.93872070312

> <r_mmod_Stretch_Energy-OPLS-2005>
1136.13525390625

> <r_mmod_Bend_Energy-OPLS-2005>
976.85546875

> <r_mmod_Torsional_Energy-OPLS-2005>
209.260620117188

> <r_mmod_Improper_Torsional_Energy-OPLS-2005>
3.31722497940063

> <r_mmod_Van_der_Waal_Energy-OPLS-2005>
119.363716125488

> <r_mmod_Electrostatic_Energy-OPLS-2005>
-292.431243896484

> <r_mmod_Solvation_Energy-OPLS-2005>
-212.740753173828

> <b_mmod_Minimization_Converged-OPLS-2005>
0

> <r_mmod_RMS_Derivative-OPLS-2005>
4.15952825546265

$$$$
3
                    3D
 Structure written by MMmdl.
163171  0  0  1  0            999 V2000
  -30.5503  -14.9524   20.4826 C   0  0  0  0  0  0
  -30.4167  -12.5994   19.5216 C   0  0  0  0  0  0
  -29.5149  -12.5357   18.2670 C   0  0  0  0  0  0
  -28.0470  -12.3165   18.6720 C   0  0  0  0  0  0
  -27.6154  -13.2519   19.8306 C   0  0  2  0  0  0
  -28.6404  -13.2853   20.9793 C   0  0  0  0  0  0
  -25.2376  -13.8223   20.5671 C   0  0  0  0  0  0
  -24.1709  -13.0429   20.9189 C   0  0  0  0  0  0
  -24.6339  -11.6913   20.8713 C   0  0  0  0  0  0
  -23.9046  -10.4277   21.0377 C   0  0  0  0  0  0
  -24.3608   -9.4196   21.9151 C   0  0  0  0  0  0
  -23.6288   -8.2229   22.0740 C   0  0  0  0  0  0
  -22.4268   -8.0258   21.3537 C   0  0  0  0  0  0
  -21.9895   -9.0218   20.4634 C   0  0  0  0  0  0
  -22.7217  -10.2100   20.3034 C   0  0  0  0  0  0
  -21.6848   -6.0714   22.5273 C   0  0  0  0  0  0
  -21.4011   -6.5630   23.8198 C   0  0  0  0  0  0
  -21.3664   -5.6797   24.9167 C   0  0  0  0  0  0
  -21.6044   -4.3054   24.7230 C   0  0  0  0  0  0
  -21.8819   -3.8136   23.4356 C   0  0  0  0  0  0
  -21.9186   -4.6943   22.3404 C   0  0  0  0  0  0
  -22.7740  -13.5178   21.1890 C   0  0  0  0  0  0
  -22.1655   -4.2119   21.0983 F   0  0  0  0  0  0
  -21.5634   -3.4549   25.7750 F   0  0  0  0  0  0
  -29.9224  -13.7048   20.4045 N   0  0  0  0  0  0
  -26.2774  -12.9449   20.3151 N   0  0  0  0  0  0
  -25.9262  -11.6571   20.5673 N   0  0  0  0  0  0
  -22.0453  -12.8126   22.0461 N   0  0  0  0  0  0
  -25.4099  -15.1951   20.4155 N   0  0  0  0  0  0
  -31.7305  -14.9714   20.1113 O   0  0  0  0  0  0
  -21.6642   -6.8850   21.4231 O   0  0  0  0  0  0
  -22.3389  -14.5472   20.6745 O   0  0  0  0  0  0
  -24.6495  -31.8361   23.1833 C   0  0  0  0  0  0
  -25.9231  -32.4626   23.8237 C   0  0  1  0  0  0
  -27.2076  -27.0945   20.1487 C   0  0  0  0  0  0
  -25.5949  -33.8433   24.2155 N   0  0  0  0  0  0
  -23.4550  -30.4579   21.5279 C   0  0  2  0  0  0
  -24.9039  -28.8815   20.1062 C   0  0  0  0  0  0
  -22.7609  -29.4519   22.4804 C   0  0  0  0  0  0
  -18.0320  -28.1413   22.8493 C   0  0  0  0  0  0
  -24.1515  -36.7278   23.2643 C   0  0  0  0  0  0
  -26.0150  -30.6989   21.3873 C   0  0  0  0  0  0
  -26.0832  -29.3069   20.7287 C   0  0  0  0  0  0
  -27.2396  -28.4317   20.7290 C   0  0  0  0  0  0
  -26.0030  -26.7828   19.4819 C   0  0  0  0  0  0
  -24.8797  -27.6378   19.4624 C   0  0  0  0  0  0
  -23.6831  -29.7890   20.1477 C   0  0  0  0  0  0
  -25.4125  -36.2987   24.0311 C   0  0  1  0  0  0
  -20.5939  -28.3748   23.1241 C   0  0  2  0  0  0
  -20.6809  -26.9440   22.5420 C   0  0  0  0  0  0
  -19.5772  -26.6395   21.5236 C   0  0  0  0  0  0
  -18.1954  -26.7954   22.1642 C   0  0  0  0  0  0
  -19.1573  -28.8895   23.2859 C   0  0  0  0  0  0
  -18.9473  -30.1492   23.8898 C   0  0  0  0  0  0
  -17.6465  -30.6600   24.0571 C   0  0  0  0  0  0
  -25.9083  -34.9354   23.5054 C   0  0  0  0  0  0
  -16.5360  -29.9095   23.6324 C   0  0  0  0  0  0
  -16.7295  -28.6523   23.0348 C   0  0  0  0  0  0
  -26.4528  -31.6495   25.0688 C   0  0  0  0  0  0
  -25.3703  -31.3674   26.1387 C   0  0  0  0  0  0
  -27.0380  -30.2872   24.6296 C   0  0  0  0  0  0
  -27.6073  -32.4260   25.7456 C   0  0  0  0  0  0
  -27.5581  -37.1765   24.8445 C   0  0  0  0  0  0
  -21.4292  -29.3049   22.3575 N   0  0  0  0  0  0
  -26.4292  -37.3690   23.9389 N   0  0  0  0  0  0
  -24.7260  -31.0202   22.0873 N   0  0  0  0  0  0
  -23.4235  -28.8052   23.2950 O   0  0  0  0  0  0
  -28.2452  -26.0825   20.2116 O   0  0  0  0  0  0
  -26.5703  -34.8862   22.4659 O   0  0  0  0  0  0
  -23.5603  -32.1276   23.7024 O   0  0  0  0  0  0
  -32.2189  -20.7581   19.8752 C   0  0  0  0  0  0
  -30.1737  -18.9437   20.0384 C   0  0  0  0  0  0
  -31.4071  -18.7046   19.3669 C   0  0  0  0  0  0
  -29.9552  -20.4420   20.2569 C   0  0  0  0  0  0
  -31.6899  -17.8690   16.9713 C   0  0  0  0  0  0
  -29.2969  -16.0796   23.3904 C   0  0  0  0  0  0
  -29.3429  -17.5306   20.2995 C   0  0  0  0  0  0
  -31.6696  -17.5028   18.4608 C   0  0  0  0  0  0
  -28.7231  -21.5324   20.3916 C   0  0  0  0  0  0
  -29.0143  -23.2275   20.2710 C   0  0  0  0  0  0
  -30.3250  -16.5132   22.3307 C   0  0  0  0  0  0
  -27.9312  -24.5379   20.2045 C   0  0  0  0  0  0
  -32.4219  -19.5771   19.3441 N   0  0  0  0  0  0
  -31.0502  -21.2275   20.2549 N   0  0  0  0  0  0
  -29.9204  -16.1689   20.9504 N   0  0  0  0  0  0
  -31.4541  -12.7399   19.2147 H   0  0  0  0  0  0
  -30.3973  -11.6476   20.0542 H   0  0  0  0  0  0
  -29.8417  -11.7347   17.6021 H   0  0  0  0  0  0
  -29.6045  -13.4643   17.7020 H   0  0  0  0  0  0
  -27.9404  -11.2761   18.9788 H   0  0  0  0  0  0
  -27.3903  -12.4460   17.8105 H   0  0  0  0  0  0
  -27.5805  -14.2537   19.4011 H   0  0  0  0  0  0
  -28.7185  -12.3111   21.4647 H   0  0  0  0  0  0
  -28.3049  -13.9869   21.7402 H   0  0  0  0  0  0
  -25.2755   -9.5666   22.4720 H   0  0  0  0  0  0
  -23.9990   -7.4621   22.7465 H   0  0  0  0  0  0
  -21.0821   -8.8714   19.8955 H   0  0  0  0  0  0
  -22.3648  -10.9619   19.6140 H   0  0  0  0  0  0
  -21.2008   -7.6140   23.9680 H   0  0  0  0  0  0
  -21.1494   -6.0541   25.9061 H   0  0  0  0  0  0
  -22.0602   -2.7598   23.2870 H   0  0  0  0  0  0
  -22.4155  -11.9802   22.4807 H   0  0  0  0  0  0
  -21.1072  -13.1075   22.2746 H   0  0  0  0  0  0
  -24.6524  -15.8573   20.5441 H   0  0  0  0  0  0
  -26.2706  -15.6317   20.1131 H   0  0  0  0  0  0
  -26.7297  -32.5221   23.0955 H   0  0  0  0  0  0
  -24.9907  -33.9526   25.0173 H   0  0  0  0  0  0
  -22.7609  -31.2859   21.3662 H   0  0  0  0  0  0
  -23.3735  -35.9652   23.3260 H   0  0  0  0  0  0
  -24.3614  -36.8990   22.2070 H   0  0  0  0  0  0
  -23.7336  -37.6480   23.6739 H   0  0  0  0  0  0
  -26.1751  -31.4471   20.6102 H   0  0  0  0  0  0
  -26.8871  -30.7500   22.0281 H   0  0  0  0  0  0
  -28.1420  -28.7523   21.2303 H   0  0  0  0  0  0
  -25.8859  -25.8366   18.9792 H   0  0  0  0  0  0
  -23.9832  -27.3155   18.9520 H   0  0  0  0  0  0
  -23.8240  -30.5633   19.3917 H   0  0  0  0  0  0
  -22.8011  -29.2301   19.8326 H   0  0  0  0  0  0
  -25.1293  -36.1802   25.0797 H   0  0  0  0  0  0
  -21.0030  -28.3353   24.1367 H   0  0  0  0  0  0
  -20.5746  -26.2336   23.3631 H   0  0  0  0  0  0
  -21.6665  -26.7468   22.1174 H   0  0  0  0  0  0
  -19.6937  -25.6307   21.1276 H   0  0  0  0  0  0
  -19.6728  -27.3214   20.6770 H   0  0  0  0  0  0
  -17.4221  -26.6733   21.4032 H   0  0  0  0  0  0
  -18.0332  -26.0097   22.9035 H   0  0  0  0  0  0
  -19.7936  -30.7313   24.2293 H   0  0  0  0  0  0
  -17.4997  -31.6282   24.5176 H   0  0  0  0  0  0
  -15.5360  -30.2977   23.7655 H   0  0  0  0  0  0
  -15.8707  -28.0836   22.7043 H   0  0  0  0  0  0
  -24.5963  -30.6909   25.7730 H   0  0  0  0  0  0
  -24.8769  -32.2822   26.4678 H   0  0  0  0  0  0
  -25.7995  -30.8977   27.0257 H   0  0  0  0  0  0
  -26.2987  -29.6548   24.1364 H   0  0  0  0  0  0
  -27.4029  -29.7190   25.4866 H   0  0  0  0  0  0
  -27.8883  -30.4039   23.9579 H   0  0  0  0  0  0
  -27.2701  -33.3618   26.1923 H   0  0  0  0  0  0
  -28.3921  -32.6733   25.0288 H   0  0  0  0  0  0
  -28.0693  -31.8445   26.5447 H   0  0  0  0  0  0
  -28.2524  -38.0114   24.7486 H   0  0  0  0  0  0
  -28.1157  -36.2644   24.6265 H   0  0  0  0  0  0
  -27.2326  -37.1407   25.8853 H   0  0  0  0  0  0
  -20.9521  -29.8746   21.6741 H   0  0  0  0  0  0
  -26.0160  -38.2765   24.1359 H   0  0  0  0  0  0
  -33.0573  -21.4380   19.8851 H   0  0  0  0  0  0
  -31.8588  -16.9794   16.3633 H   0  0  0  0  0  0
  -32.4817  -18.5824   16.7486 H   0  0  0  0  0  0
  -30.7388  -18.3051   16.6643 H   0  0  0  0  0  0
  -29.6022  -16.4275   24.3786 H   0  0  0  0  0  0
  -29.2074  -14.9961   23.4576 H   0  0  0  0  0  0
  -28.3094  -16.4988   23.1916 H   0  0  0  0  0  0
  -28.8868  -17.2514   19.3482 H   0  0  0  0  0  0
  -28.4856  -17.8083   20.9143 H   0  0  0  0  0  0
  -30.9044  -16.7435   18.5351 H   0  0  0  0  0  0
  -32.6156  -17.0376   18.7417 H   0  0  0  0  0  0
  -28.2204  -21.3343   21.3384 H   0  0  0  0  0  0
  -27.9988  -21.2669   19.6209 H   0  0  0  0  0  0
  -29.6179  -23.3436   19.3695 H   0  0  0  0  0  0
  -29.7002  -23.4599   21.0852 H   0  0  0  0  0  0
  -31.2966  -16.0813   22.5802 H   0  0  0  0  0  0
  -30.4788  -17.5887   22.4304 H   0  0  0  0  0  0
  -27.2258  -24.3905   21.0227 H   0  0  0  0  0  0
  -27.3508  -24.3477   19.3037 H   0  0  0  0  0  0
  1 25  1  0  0  0
  1 30  2  0  0  0
  1 85  1  0  0  0
  2  3  1  0  0  0
  2 25  1  0  0  0
  2 86  1  0  0  0
  2 87  1  0  0  0
  3  4  1  0  0  0
  3 88  1  0  0  0
  3 89  1  0  0  0
  4  5  1  0  0  0
  4 90  1  0  0  0
  4 91  1  0  0  0
  5  6  1  0  0  0
  5 26  1  0  0  0
  5 92  1  0  0  0
  6 25  1  0  0  0
  6 93  1  0  0  0
  6 94  1  0  0  0
  7  8  2  0  0  0
  7 26  1  0  0  0
  7 29  1  0  0  0
  8  9  1  0  0  0
  8 22  1  0  0  0
  9 10  1  0  0  0
  9 27  2  0  0  0
 10 11  2  0  0  0
 10 15  1  0  0  0
 11 12  1  0  0  0
 11 95  1  0  0  0
 12 13  2  0  0  0
 12 96  1  0  0  0
 13 14  1  0  0  0
 13 31  1  0  0  0
 14 15  2  0  0  0
 14 97  1  0  0  0
 15 98  1  0  0  0
 16 17  2  0  0  0
 16 21  1  0  0  0
 16 31  1  0  0  0
 17 18  1  0  0  0
 17 99  1  0  0  0
 18 19  2  0  0  0
 18100  1  0  0  0
 19 20  1  0  0  0
 19 24  1  0  0  0
 20 21  2  0  0  0
 20101  1  0  0  0
 21 23  1  0  0  0
 22 28  1  0  0  0
 22 32  2  0  0  0
 26 27  1  0  0  0
 28102  1  0  0  0
 28103  1  0  0  0
 29104  1  0  0  0
 29105  1  0  0  0
 33 34  1  0  0  0
 33 66  1  0  0  0
 33 70  2  0  0  0
 34 36  1  0  0  0
 34 59  1  0  0  0
 34106  1  0  0  0
 35 44  2  0  0  0
 35 45  1  0  0  0
 35 68  1  0  0  0
 36 56  1  0  0  0
 36107  1  0  0  0
 37 39  1  0  0  0
 37 47  1  0  0  0
 37 66  1  0  0  0
 37108  1  0  0  0
 38 43  2  0  0  0
 38 46  1  0  0  0
 38 47  1  0  0  0
 39 64  1  0  0  0
 39 67  2  0  0  0
 40 52  1  0  0  0
 40 53  2  0  0  0
 40 58  1  0  0  0
 41109  1  0  0  0
 41110  1  0  0  0
 41111  1  0  0  0
 41 48  1  0  0  0
 42 43  1  0  0  0
 42 66  1  0  0  0
 42112  1  0  0  0
 42113  1  0  0  0
 43 44  1  0  0  0
 44114  1  0  0  0
 45 46  2  0  0  0
 45115  1  0  0  0
 46116  1  0  0  0
 47117  1  0  0  0
 47118  1  0  0  0
 48 56  1  0  0  0
 48 65  1  0  0  0
 48119  1  0  0  0
 49 50  1  0  0  0
 49 53  1  0  0  0
 49 64  1  0  0  0
 49120  1  0  0  0
 50 51  1  0  0  0
 50121  1  0  0  0
 50122  1  0  0  0
 51 52  1  0  0  0
 51123  1  0  0  0
 51124  1  0  0  0
 52125  1  0  0  0
 52126  1  0  0  0
 53 54  1  0  0  0
 54 55  2  0  0  0
 54127  1  0  0  0
 55 57  1  0  0  0
 55128  1  0  0  0
 56 69  2  0  0  0
 57 58  2  0  0  0
 57129  1  0  0  0
 58130  1  0  0  0
 59 60  1  0  0  0
 59 61  1  0  0  0
 59 62  1  0  0  0
 60131  1  0  0  0
 60132  1  0  0  0
 60133  1  0  0  0
 61134  1  0  0  0
 61135  1  0  0  0
 61136  1  0  0  0
 62137  1  0  0  0
 62138  1  0  0  0
 62139  1  0  0  0
 63 65  1  0  0  0
 63140  1  0  0  0
 63141  1  0  0  0
 63142  1  0  0  0
 64143  1  0  0  0
 65144  1  0  0  0
 68 82  1  0  0  0
 71 83  2  0  0  0
 71 84  1  0  0  0
 71145  1  0  0  0
 72 73  2  0  0  0
 72 74  1  0  0  0
 72 77  1  0  0  0
 73 78  1  0  0  0
 73 83  1  0  0  0
 74 79  1  0  0  0
 74 84  2  0  0  0
 75 78  1  0  0  0
 75146  1  0  0  0
 75147  1  0  0  0
 75148  1  0  0  0
 76 81  1  0  0  0
 76149  1  0  0  0
 76150  1  0  0  0
 76151  1  0  0  0
 77 85  1  0  0  0
 77152  1  0  0  0
 77153  1  0  0  0
 78154  1  0  0  0
 78155  1  0  0  0
 79 80  1  0  0  0
 79156  1  0  0  0
 79157  1  0  0  0
 80 82  1  0  0  0
 80158  1  0  0  0
 80159  1  0  0  0
 81 85  1  0  0  0
 81160  1  0  0  0
 81161  1  0  0  0
 82162  1  0  0  0
 82163  1  0  0  0
M  ISO  4   1 100  68 101  82 101  85 100
M  END
> <chiral flag>
0

> <version>
0

> <s_m_source_file>
/data/baiqing/PycharmProjects/Reinvent-master-3.2/result/LINK_invent/BTK/process_docking_weight1_custom_sum_contain_oxygen_bond_distance_aromatic_linkinvent_7_9_3/rearranged_h_0057.sdf

> <i_m_source_file_index>
4

> <r_mmod_Potential_Energy-OPLS-2005>
540.537902832031

> <r_mmod_Stretch_Energy-OPLS-2005>
339.554565429688

> <r_mmod_Bend_Energy-OPLS-2005>
364.141448974609

> <r_mmod_Torsional_Energy-OPLS-2005>
332.944702148438

> <r_mmod_Improper_Torsional_Energy-OPLS-2005>
4.17803049087524

> <r_mmod_Van_der_Waal_Energy-OPLS-2005>
151.351470947266

> <r_mmod_Electrostatic_Energy-OPLS-2005>
-652.161499023438

> <r_mmod_Solvation_Energy-OPLS-2005>
-209.485076904297

> <b_mmod_Minimization_Converged-OPLS-2005>
0

> <r_mmod_RMS_Derivative-OPLS-2005>
2.99785685539246

$$$$
4
                    3D
 Structure written by MMmdl.
151159  0  0  1  0            999 V2000
  -30.3868  -15.3704   20.3327 C   0  0  0  0  0  0
  -30.4249  -12.8733   19.5403 C   0  0  0  0  0  0
  -29.5302  -12.5995   18.3030 C   0  0  0  0  0  0
  -28.0910  -12.2961   18.7437 C   0  0  0  0  0  0
  -27.6078  -13.2841   19.8332 C   0  0  2  0  0  0
  -28.6359  -13.5060   20.9643 C   0  0  0  0  0  0
  -25.2363  -13.8273   20.5788 C   0  0  0  0  0  0
  -24.1737  -13.0448   20.9284 C   0  0  0  0  0  0
  -24.6397  -11.6948   20.8796 C   0  0  0  0  0  0
  -23.9103  -10.4306   21.0435 C   0  0  0  0  0  0
  -24.3643   -9.4210   21.9202 C   0  0  0  0  0  0
  -23.6313   -8.2247   22.0759 C   0  0  0  0  0  0
  -22.4293   -8.0282   21.3548 C   0  0  0  0  0  0
  -21.9946   -9.0273   20.4652 C   0  0  0  0  0  0
  -22.7282  -10.2147   20.3076 C   0  0  0  0  0  0
  -21.6855   -6.0741   22.5278 C   0  0  0  0  0  0
  -21.4021   -6.5653   23.8207 C   0  0  0  0  0  0
  -21.3654   -5.6798   24.9174 C   0  0  0  0  0  0
  -21.6037   -4.3064   24.7228 C   0  0  0  0  0  0
  -21.8817   -3.8155   23.4353 C   0  0  0  0  0  0
  -21.9198   -4.6976   22.3399 C   0  0  0  0  0  0
  -22.7756  -13.5180   21.1939 C   0  0  0  0  0  0
  -22.1668   -4.2160   21.0986 F   0  0  0  0  0  0
  -21.5627   -3.4547   25.7745 F   0  0  0  0  0  0
  -29.8515  -14.0377   20.3273 N   0  0  0  0  0  0
  -26.2808  -12.9560   20.3315 N   0  0  0  0  0  0
  -25.9340  -11.6655   20.5799 N   0  0  0  0  0  0
  -22.0447  -12.8123   22.0488 N   0  0  0  0  0  0
  -25.3982  -15.2010   20.4219 N   0  0  0  0  0  0
  -31.6042  -15.3564   20.0901 O   0  0  0  0  0  0
  -21.6644   -6.8891   21.4239 O   0  0  0  0  0  0
  -22.3427  -14.5504   20.6823 O   0  0  0  0  0  0
  -24.6680  -31.8132   23.1638 C   0  0  0  0  0  0
  -25.9314  -32.4542   23.8140 C   0  0  1  0  0  0
  -27.2186  -26.8419   20.1931 C   0  0  0  0  0  0
  -25.5936  -33.8371   24.2015 N   0  0  0  0  0  0
  -23.4903  -30.4202   21.5128 C   0  0  2  0  0  0
  -24.9460  -28.7921   20.1083 C   0  0  0  0  0  0
  -22.7706  -29.4392   22.4762 C   0  0  0  0  0  0
  -18.0313  -28.1414   22.8489 C   0  0  0  0  0  0
  -24.1499  -36.7195   23.2651 C   0  0  0  0  0  0
  -26.0632  -30.5900   21.4125 C   0  0  0  0  0  0
  -26.1270  -29.1709   20.7584 C   0  0  0  0  0  0
  -27.2471  -28.2130   20.7846 C   0  0  0  0  0  0
  -26.0152  -26.6414   19.4787 C   0  0  0  0  0  0
  -24.9199  -27.5500   19.4516 C   0  0  0  0  0  0
  -23.7369  -29.7297   20.1405 C   0  0  0  0  0  0
  -25.4141  -36.2949   24.0288 C   0  0  1  0  0  0
  -20.5950  -28.3787   23.1169 C   0  0  2  0  0  0
  -20.6819  -26.9472   22.5379 C   0  0  0  0  0  0
  -19.5762  -26.6415   21.5226 C   0  0  0  0  0  0
  -18.1975  -26.7915   22.1712 C   0  0  0  0  0  0
  -19.1577  -28.8926   23.2797 C   0  0  0  0  0  0
  -18.9485  -30.1527   23.8796 C   0  0  0  0  0  0
  -17.6483  -30.6638   24.0504 C   0  0  0  0  0  0
  -25.9104  -34.9328   23.4984 C   0  0  0  0  0  0
  -16.5368  -29.9101   23.6351 C   0  0  0  0  0  0
  -16.7295  -28.6511   23.0398 C   0  0  0  0  0  0
  -26.4541  -31.6545   25.0714 C   0  0  0  0  0  0
  -25.3644  -31.3834   26.1358 C   0  0  0  0  0  0
  -27.0431  -30.2897   24.6525 C   0  0  0  0  0  0
  -27.6015  -32.4373   25.7517 C   0  0  0  0  0  0
  -27.5566  -37.1749   24.8452 C   0  0  0  0  0  0
  -21.4361  -29.3066   22.3516 N   0  0  0  0  0  0
  -26.4276  -37.3693   23.9395 N   0  0  0  0  0  0
  -24.7625  -30.9707   22.0829 N   0  0  0  0  0  0
  -23.4208  -28.7971   23.3047 O   0  0  0  0  0  0
  -28.1878  -25.6903   20.3528 O   0  0  0  0  0  0
  -26.5765  -34.8873   22.4611 O   0  0  0  0  0  0
  -23.5720  -32.1151   23.6642 O   0  0  0  0  0  0
  -27.3660  -22.0493   21.3029 C   0  0  0  0  0  0
  -27.1826  -20.6944   21.6868 C   0  0  0  0  0  0
  -28.3643  -22.4394   20.3933 C   0  0  0  0  0  0
  -28.9495  -19.8230   20.4253 C   0  0  0  0  0  0
  -26.0190  -20.3402   22.5907 C   0  0  0  0  0  0
  -29.8549  -18.3206   18.4689 C   0  0  0  0  0  0
  -28.2738  -24.1138   19.7511 C   0  0  0  0  0  0
  -29.8081  -18.3140   20.0084 C   0  0  2  0  0  0
  -27.9373  -19.6411   21.2679 N   0  0  0  0  0  0
  -29.1346  -21.2198   19.9898 N   0  0  0  0  0  0
  -29.6182  -16.6642   20.4055 N   0  0  0  0  0  0
  -31.4408  -13.0753   19.2003 H   0  0  0  0  0  0
  -30.5001  -11.9768   20.1597 H   0  0  0  0  0  0
  -29.9220  -11.7670   17.7176 H   0  0  0  0  0  0
  -29.5380  -13.4688   17.6419 H   0  0  0  0  0  0
  -28.0826  -11.2845   19.1476 H   0  0  0  0  0  0
  -27.4058  -12.2894   17.8954 H   0  0  0  0  0  0
  -27.5085  -14.2384   19.3157 H   0  0  0  0  0  0
  -28.8264  -12.5950   21.5330 H   0  0  0  0  0  0
  -28.2577  -14.2433   21.6730 H   0  0  0  0  0  0
  -25.2791   -9.5689   22.4789 H   0  0  0  0  0  0
  -24.0020   -7.4647   22.7493 H   0  0  0  0  0  0
  -21.0867   -8.8803   19.8966 H   0  0  0  0  0  0
  -22.3747  -10.9693   19.6199 H   0  0  0  0  0  0
  -21.2010   -7.6165   23.9717 H   0  0  0  0  0  0
  -21.1475   -6.0533   25.9067 H   0  0  0  0  0  0
  -22.0600   -2.7621   23.2847 H   0  0  0  0  0  0
  -22.4072  -11.9727   22.4761 H   0  0  0  0  0  0
  -21.1081  -13.1152   22.2800 H   0  0  0  0  0  0
  -24.6269  -15.8486   20.5410 H   0  0  0  0  0  0
  -26.2392  -15.6479   20.0824 H   0  0  0  0  0  0
  -26.7390  -32.5049   23.0857 H   0  0  0  0  0  0
  -24.9936  -33.9455   25.0059 H   0  0  0  0  0  0
  -22.8063  -31.2522   21.3331 H   0  0  0  0  0  0
  -23.3771  -35.9516   23.3278 H   0  0  0  0  0  0
  -24.3581  -36.8884   22.2076 H   0  0  0  0  0  0
  -23.7253  -37.6361   23.6749 H   0  0  0  0  0  0
  -26.2527  -31.3254   20.6291 H   0  0  0  0  0  0
  -26.9200  -30.6524   22.0720 H   0  0  0  0  0  0
  -28.1272  -28.4900   21.3487 H   0  0  0  0  0  0
  -25.8703  -25.6927   18.9833 H   0  0  0  0  0  0
  -24.0226  -27.2514   18.9267 H   0  0  0  0  0  0
  -23.9037  -30.4958   19.3824 H   0  0  0  0  0  0
  -22.8452  -29.1868   19.8224 H   0  0  0  0  0  0
  -25.1357  -36.1730   25.0782 H   0  0  0  0  0  0
  -21.0008  -28.3409   24.1309 H   0  0  0  0  0  0
  -20.5757  -26.2400   23.3610 H   0  0  0  0  0  0
  -21.6666  -26.7464   22.1139 H   0  0  0  0  0  0
  -19.6929  -25.6334   21.1246 H   0  0  0  0  0  0
  -19.6623  -27.3250   20.6778 H   0  0  0  0  0  0
  -17.4209  -26.6555   21.4178 H   0  0  0  0  0  0
  -18.0488  -26.0111   22.9179 H   0  0  0  0  0  0
  -19.7970  -30.7373   24.2097 H   0  0  0  0  0  0
  -17.5029  -31.6339   24.5057 H   0  0  0  0  0  0
  -15.5371  -30.2992   23.7691 H   0  0  0  0  0  0
  -15.8686  -28.0800   22.7188 H   0  0  0  0  0  0
  -24.5872  -30.7124   25.7688 H   0  0  0  0  0  0
  -24.8770  -32.3042   26.4568 H   0  0  0  0  0  0
  -25.7862  -30.9160   27.0271 H   0  0  0  0  0  0
  -26.3126  -29.6566   24.1480 H   0  0  0  0  0  0
  -27.3868  -29.7276   25.5219 H   0  0  0  0  0  0
  -27.9115  -30.4043   24.0037 H   0  0  0  0  0  0
  -27.2588  -33.3732   26.1947 H   0  0  0  0  0  0
  -28.3922  -32.6833   25.0417 H   0  0  0  0  0  0
  -28.0607  -31.8595   26.5548 H   0  0  0  0  0  0
  -28.2539  -38.0078   24.7501 H   0  0  0  0  0  0
  -28.1092  -36.2595   24.6278 H   0  0  0  0  0  0
  -27.2277  -37.1410   25.8849 H   0  0  0  0  0  0
  -20.9639  -29.8752   21.6631 H   0  0  0  0  0  0
  -26.0102  -38.2736   24.1411 H   0  0  0  0  0  0
  -26.6758  -22.8025   21.6625 H   0  0  0  0  0  0
  -26.0503  -19.2984   22.9111 H   0  0  0  0  0  0
  -25.0815  -20.4981   22.0577 H   0  0  0  0  0  0
  -26.0126  -20.9702   23.4806 H   0  0  0  0  0  0
  -30.3214  -19.2376   18.1082 H   0  0  0  0  0  0
  -28.8516  -18.2788   18.0435 H   0  0  0  0  0  0
  -30.4306  -17.4863   18.0672 H   0  0  0  0  0  0
  -27.4826  -24.0654   19.0040 H   0  0  0  0  0  0
  -29.1802  -24.1616   19.1476 H   0  0  0  0  0  0
  -30.8240  -18.5116   20.3495 H   0  0  0  0  0  0
  -28.6616  -16.4973   20.6811 H   0  0  0  0  0  0
  1 25  1  0  0  0
  1 30  2  0  0  0
  1 81  1  0  0  0
  2  3  1  0  0  0
  2 25  1  0  0  0
  2 82  1  0  0  0
  2 83  1  0  0  0
  3  4  1  0  0  0
  3 84  1  0  0  0
  3 85  1  0  0  0
  4  5  1  0  0  0
  4 86  1  0  0  0
  4 87  1  0  0  0
  5  6  1  0  0  0
  5 26  1  0  0  0
  5 88  1  0  0  0
  6 25  1  0  0  0
  6 89  1  0  0  0
  6 90  1  0  0  0
  7  8  2  0  0  0
  7 26  1  0  0  0
  7 29  1  0  0  0
  8  9  1  0  0  0
  8 22  1  0  0  0
  9 10  1  0  0  0
  9 27  2  0  0  0
 10 11  2  0  0  0
 10 15  1  0  0  0
 11 12  1  0  0  0
 11 91  1  0  0  0
 12 13  2  0  0  0
 12 92  1  0  0  0
 13 14  1  0  0  0
 13 31  1  0  0  0
 14 15  2  0  0  0
 14 93  1  0  0  0
 15 94  1  0  0  0
 16 17  2  0  0  0
 16 21  1  0  0  0
 16 31  1  0  0  0
 17 18  1  0  0  0
 17 95  1  0  0  0
 18 19  2  0  0  0
 18 96  1  0  0  0
 19 20  1  0  0  0
 19 24  1  0  0  0
 20 21  2  0  0  0
 20 97  1  0  0  0
 21 23  1  0  0  0
 22 28  1  0  0  0
 22 32  2  0  0  0
 26 27  1  0  0  0
 28 98  1  0  0  0
 28 99  1  0  0  0
 29100  1  0  0  0
 29101  1  0  0  0
 33 34  1  0  0  0
 33 66  1  0  0  0
 33 70  2  0  0  0
 34 36  1  0  0  0
 34 59  1  0  0  0
 34102  1  0  0  0
 35 44  2  0  0  0
 35 45  1  0  0  0
 35 68  1  0  0  0
 36 56  1  0  0  0
 36103  1  0  0  0
 37 39  1  0  0  0
 37 47  1  0  0  0
 37 66  1  0  0  0
 37104  1  0  0  0
 38 43  2  0  0  0
 38 46  1  0  0  0
 38 47  1  0  0  0
 39 64  1  0  0  0
 39 67  2  0  0  0
 40 52  1  0  0  0
 40 53  2  0  0  0
 40 58  1  0  0  0
 41105  1  0  0  0
 41106  1  0  0  0
 41107  1  0  0  0
 41 48  1  0  0  0
 42 43  1  0  0  0
 42 66  1  0  0  0
 42108  1  0  0  0
 42109  1  0  0  0
 43 44  1  0  0  0
 44110  1  0  0  0
 45 46  2  0  0  0
 45111  1  0  0  0
 46112  1  0  0  0
 47113  1  0  0  0
 47114  1  0  0  0
 48 56  1  0  0  0
 48 65  1  0  0  0
 48115  1  0  0  0
 49 50  1  0  0  0
 49 53  1  0  0  0
 49 64  1  0  0  0
 49116  1  0  0  0
 50 51  1  0  0  0
 50117  1  0  0  0
 50118  1  0  0  0
 51 52  1  0  0  0
 51119  1  0  0  0
 51120  1  0  0  0
 52121  1  0  0  0
 52122  1  0  0  0
 53 54  1  0  0  0
 54 55  2  0  0  0
 54123  1  0  0  0
 55 57  1  0  0  0
 55124  1  0  0  0
 56 69  2  0  0  0
 57 58  2  0  0  0
 57125  1  0  0  0
 58126  1  0  0  0
 59 60  1  0  0  0
 59 61  1  0  0  0
 59 62  1  0  0  0
 60127  1  0  0  0
 60128  1  0  0  0
 60129  1  0  0  0
 61130  1  0  0  0
 61131  1  0  0  0
 61132  1  0  0  0
 62133  1  0  0  0
 62134  1  0  0  0
 62135  1  0  0  0
 63 65  1  0  0  0
 63136  1  0  0  0
 63137  1  0  0  0
 63138  1  0  0  0
 64139  1  0  0  0
 65140  1  0  0  0
 68 77  1  0  0  0
 71 72  2  0  0  0
 71 73  1  0  0  0
 71141  1  0  0  0
 72 75  1  0  0  0
 72 79  1  0  0  0
 73 77  1  0  0  0
 73 80  2  0  0  0
 74 78  1  0  0  0
 74 79  2  0  0  0
 74 80  1  0  0  0
 75142  1  0  0  0
 75143  1  0  0  0
 75144  1  0  0  0
 76145  1  0  0  0
 76146  1  0  0  0
 76147  1  0  0  0
 76 78  1  0  0  0
 77148  1  0  0  0
 77149  1  0  0  0
 78 81  1  0  0  0
 78150  1  0  0  0
 81151  1  0  0  0
M  ISO  4   1 100  68 101  77 101  81 100
M  END
> <chiral flag>
0

> <version>
0

> <s_m_source_file>
/data/baiqing/PycharmProjects/Reinvent-master-3.2/result/LINK_invent/BTK/process_docking_weight1_custom_sum_contain_oxygen_bond_distance_aromatic_linkinvent_7_9_3/rearranged_h_0057.sdf

> <i_m_source_file_index>
5

> <r_mmod_Potential_Energy-OPLS-2005>
1022.78527832031

> <r_mmod_Stretch_Energy-OPLS-2005>
705.739196777344

> <r_mmod_Bend_Energy-OPLS-2005>
505.6103515625

> <r_mmod_Torsional_Energy-OPLS-2005>
209.361557006836

> <r_mmod_Improper_Torsional_Energy-OPLS-2005>
6.38819313049316

> <r_mmod_Van_der_Waal_Energy-OPLS-2005>
126.087867736816

> <r_mmod_Electrostatic_Energy-OPLS-2005>
-877.269775390625

> <r_mmod_Solvation_Energy-OPLS-2005>
-244.511169433594

> <b_mmod_Minimization_Converged-OPLS-2005>
0

> <r_mmod_RMS_Derivative-OPLS-2005>
3.34662318229675

$$$$
5
                    3D
 Structure written by MMmdl.
155163  0  0  1  0            999 V2000
  -30.6962  -14.5675   20.6456 C   0  0  0  0  0  0
  -30.4602  -12.4019   19.4303 C   0  0  0  0  0  0
  -29.5177  -12.5279   18.2172 C   0  0  0  0  0  0
  -28.0438  -12.3591   18.6302 C   0  0  0  0  0  0
  -27.6711  -13.2074   19.8715 C   0  0  2  0  0  0
  -28.7128  -13.0441   21.0029 C   0  0  0  0  0  0
  -25.2713  -13.8177   20.5661 C   0  0  0  0  0  0
  -24.1956  -13.0475   20.9155 C   0  0  0  0  0  0
  -24.6480  -11.6918   20.8692 C   0  0  0  0  0  0
  -23.9113  -10.4313   21.0342 C   0  0  0  0  0  0
  -24.3654   -9.4233   21.9142 C   0  0  0  0  0  0
  -23.6319   -8.2276   22.0739 C   0  0  0  0  0  0
  -22.4305   -8.0311   21.3535 C   0  0  0  0  0  0
  -21.9932   -9.0277   20.4633 C   0  0  0  0  0  0
  -22.7266  -10.2147   20.3020 C   0  0  0  0  0  0
  -21.6861   -6.0754   22.5274 C   0  0  0  0  0  0
  -21.4006   -6.5659   23.8216 C   0  0  0  0  0  0
  -21.3664   -5.6799   24.9180 C   0  0  0  0  0  0
  -21.6037   -4.3071   24.7205 C   0  0  0  0  0  0
  -21.8833   -3.8173   23.4343 C   0  0  0  0  0  0
  -21.9214   -4.6979   22.3404 C   0  0  0  0  0  0
  -22.7965  -13.5215   21.1877 C   0  0  0  0  0  0
  -22.1682   -4.2177   21.0962 F   0  0  0  0  0  0
  -21.5635   -3.4558   25.7719 F   0  0  0  0  0  0
  -30.0355  -13.3861   20.4479 N   0  0  0  0  0  0
  -26.3120  -12.9303   20.3304 N   0  0  0  0  0  0
  -25.9413  -11.6471   20.5740 N   0  0  0  0  0  0
  -22.0607  -12.8140   22.0375 N   0  0  0  0  0  0
  -25.4524  -15.1892   20.4074 N   0  0  0  0  0  0
  -31.8173  -14.7735   20.1728 O   0  0  0  0  0  0
  -21.6665   -6.8919   21.4243 O   0  0  0  0  0  0
  -22.3618  -14.5555   20.6803 O   0  0  0  0  0  0
  -24.6228  -31.8593   23.2031 C   0  0  0  0  0  0
  -25.9099  -32.4760   23.8350 C   0  0  1  0  0  0
  -27.2408  -27.3688   20.0976 C   0  0  0  0  0  0
  -25.5908  -33.8549   24.2270 N   0  0  0  0  0  0
  -23.4150  -30.4796   21.5464 C   0  0  2  0  0  0
  -24.8634  -28.9356   20.1185 C   0  0  0  0  0  0
  -22.7457  -29.4607   22.4996 C   0  0  0  0  0  0
  -18.0290  -28.1411   22.8517 C   0  0  0  0  0  0
  -24.1511  -36.7310   23.2636 C   0  0  0  0  0  0
  -25.9514  -30.8081   21.3627 C   0  0  0  0  0  0
  -26.0315  -29.4349   20.7098 C   0  0  0  0  0  0
  -27.2256  -28.6638   20.6883 C   0  0  0  0  0  0
  -26.0519  -26.9050   19.4912 C   0  0  0  0  0  0
  -24.8703  -27.6710   19.5066 C   0  0  0  0  0  0
  -23.6290  -29.8073   20.1647 C   0  0  0  0  0  0
  -25.4121  -36.3055   24.0315 C   0  0  1  0  0  0
  -20.5880  -28.3713   23.1350 C   0  0  2  0  0  0
  -20.6780  -26.9423   22.5544 C   0  0  0  0  0  0
  -19.5735  -26.6343   21.5353 C   0  0  0  0  0  0
  -18.1942  -26.7880   22.1825 C   0  0  0  0  0  0
  -19.1550  -28.8909   23.2871 C   0  0  0  0  0  0
  -18.9502  -30.1531   23.8845 C   0  0  0  0  0  0
  -17.6494  -30.6638   24.0597 C   0  0  0  0  0  0
  -25.9041  -34.9423   23.5091 C   0  0  0  0  0  0
  -16.5395  -29.9127   23.6370 C   0  0  0  0  0  0
  -16.7297  -28.6545   23.0379 C   0  0  0  0  0  0
  -26.4503  -31.6538   25.0699 C   0  0  0  0  0  0
  -25.3773  -31.3660   26.1464 C   0  0  0  0  0  0
  -27.0314  -30.2963   24.6084 C   0  0  0  0  0  0
  -27.6040  -32.4306   25.7484 C   0  0  0  0  0  0
  -27.5582  -37.1816   24.8453 C   0  0  0  0  0  0
  -21.4182  -29.2983   22.3694 N   0  0  0  0  0  0
  -26.4301  -37.3746   23.9392 N   0  0  0  0  0  0
  -24.6820  -31.0662   22.0961 N   0  0  0  0  0  0
  -23.4191  -28.8189   23.3117 O   0  0  0  0  0  0
  -28.3814  -26.5702   20.0762 O   0  0  0  0  0  0
  -26.5625  -34.8872   22.4680 O   0  0  0  0  0  0
  -23.5416  -32.1373   23.7388 O   0  0  0  0  0  0
  -28.2144  -19.5304   21.1241 C   0  0  0  0  0  0
  -29.6768  -18.0711   21.3657 C   0  0  0  0  0  0
  -31.8685  -17.0707   22.2648 C   0  0  0  0  0  0
  -28.8802  -22.6467   20.6608 C   0  0  0  0  0  0
  -29.0883  -24.0521   19.9705 C   0  0  0  0  0  0
  -29.6022  -21.3982   20.0300 C   0  0  0  0  0  0
  -28.2384  -25.2158   20.6063 C   0  0  0  0  0  0
  -30.3778  -16.8309   21.9321 C   0  0  2  0  0  0
  -28.3378  -18.2746   21.5578 N   0  0  0  0  0  0
  -30.3141  -19.1031   20.7785 N   0  0  0  0  0  0
  -29.3488  -20.0786   20.6759 N   0  0  0  0  0  0
  -30.0133  -15.5103   21.3378 N   0  0  0  0  0  0
  -31.4906  -12.5543   19.1019 H   0  0  0  0  0  0
  -30.4349  -11.3955   19.8415 H   0  0  0  0  0  0
  -29.7870  -11.7965   17.4520 H   0  0  0  0  0  0
  -29.6592  -13.5104   17.7678 H   0  0  0  0  0  0
  -27.8802  -11.3043   18.8490 H   0  0  0  0  0  0
  -27.3903  -12.6010   17.7893 H   0  0  0  0  0  0
  -27.7105  -14.2485   19.5512 H   0  0  0  0  0  0
  -28.7263  -12.0264   21.3912 H   0  0  0  0  0  0
  -28.4415  -13.6699   21.8536 H   0  0  0  0  0  0
  -25.2807   -9.5711   22.4697 H   0  0  0  0  0  0
  -24.0054   -7.4660   22.7442 H   0  0  0  0  0  0
  -21.0874   -8.8777   19.8918 H   0  0  0  0  0  0
  -22.3719  -10.9682   19.6132 H   0  0  0  0  0  0
  -21.1976   -7.6168   23.9722 H   0  0  0  0  0  0
  -21.1466   -6.0531   25.9077 H   0  0  0  0  0  0
  -22.0607   -2.7639   23.2821 H   0  0  0  0  0  0
  -22.4221  -11.9745   22.4669 H   0  0  0  0  0  0
  -21.1231  -13.1115   22.2631 H   0  0  0  0  0  0
  -24.7102  -15.8603   20.5714 H   0  0  0  0  0  0
  -26.3225  -15.6224   20.1198 H   0  0  0  0  0  0
  -26.7163  -32.5445   23.1106 H   0  0  0  0  0  0
  -24.9995  -33.9694   25.0364 H   0  0  0  0  0  0
  -22.7028  -31.2958   21.4030 H   0  0  0  0  0  0
  -23.3720  -35.9699   23.3300 H   0  0  0  0  0  0
  -24.3591  -36.8950   22.2049 H   0  0  0  0  0  0
  -23.7340  -37.6542   23.6673 H   0  0  0  0  0  0
  -26.0705  -31.5663   20.5858 H   0  0  0  0  0  0
  -26.8371  -30.8643   21.9829 H   0  0  0  0  0  0
  -28.1294  -29.0526   21.1414 H   0  0  0  0  0  0
  -26.0316  -25.9385   19.0058 H   0  0  0  0  0  0
  -23.9744  -27.2802   19.0451 H   0  0  0  0  0  0
  -23.7418  -30.5817   19.4065 H   0  0  0  0  0  0
  -22.7538  -29.2309   19.8646 H   0  0  0  0  0  0
  -25.1322  -36.1891   25.0807 H   0  0  0  0  0  0
  -20.9942  -28.3340   24.1466 H   0  0  0  0  0  0
  -20.5664  -26.2418   23.3838 H   0  0  0  0  0  0
  -21.6654  -26.7394   22.1380 H   0  0  0  0  0  0
  -19.6931  -25.6220   21.1496 H   0  0  0  0  0  0
  -19.6651  -27.3119   20.6847 H   0  0  0  0  0  0
  -17.4141  -26.6419   21.4354 H   0  0  0  0  0  0
  -18.0468  -26.0119   22.9358 H   0  0  0  0  0  0
  -19.7970  -30.7381   24.2142 H   0  0  0  0  0  0
  -17.5072  -31.6314   24.5220 H   0  0  0  0  0  0
  -15.5410  -30.3032   23.7738 H   0  0  0  0  0  0
  -15.8684  -28.0853   22.7124 H   0  0  0  0  0  0
  -24.5935  -30.7009   25.7839 H   0  0  0  0  0  0
  -24.8973  -32.2809   26.4940 H   0  0  0  0  0  0
  -25.8140  -30.8832   27.0213 H   0  0  0  0  0  0
  -26.2826  -29.6746   24.1164 H   0  0  0  0  0  0
  -27.4094  -29.7184   25.4529 H   0  0  0  0  0  0
  -27.8667  -30.4256   23.9196 H   0  0  0  0  0  0
  -27.2588  -33.3586   26.2062 H   0  0  0  0  0  0
  -28.3837  -32.6935   25.0318 H   0  0  0  0  0  0
  -28.0722  -31.8458   26.5416 H   0  0  0  0  0  0
  -28.2602  -38.0111   24.7460 H   0  0  0  0  0  0
  -28.1086  -36.2638   24.6326 H   0  0  0  0  0  0
  -27.2291  -37.1509   25.8856 H   0  0  0  0  0  0
  -20.9396  -29.8505   21.6731 H   0  0  0  0  0  0
  -26.0170  -38.2830   24.1355 H   0  0  0  0  0  0
  -27.2749  -20.0659   21.1347 H   0  0  0  0  0  0
  -31.9726  -17.9626   22.8883 H   0  0  0  0  0  0
  -32.4569  -17.2451   21.3642 H   0  0  0  0  0  0
  -32.3206  -16.2548   22.8301 H   0  0  0  0  0  0
  -29.1839  -22.7376   21.7028 H   0  0  0  0  0  0
  -27.8097  -22.4428   20.6785 H   0  0  0  0  0  0
  -28.8410  -23.9645   18.9136 H   0  0  0  0  0  0
  -30.1473  -24.3186   19.9952 H   0  0  0  0  0  0
  -30.6789  -21.5693   19.9950 H   0  0  0  0  0  0
  -29.2852  -21.3015   18.9890 H   0  0  0  0  0  0
  -28.5074  -25.2816   21.6572 H   0  0  0  0  0  0
  -27.1967  -24.8960   20.6113 H   0  0  0  0  0  0
  -29.9256  -16.7250   22.9227 H   0  0  0  0  0  0
  -29.0683  -15.2392   21.5604 H   0  0  0  0  0  0
  1 25  1  0  0  0
  1 30  2  0  0  0
  1 82  1  0  0  0
  2  3  1  0  0  0
  2 25  1  0  0  0
  2 83  1  0  0  0
  2 84  1  0  0  0
  3  4  1  0  0  0
  3 85  1  0  0  0
  3 86  1  0  0  0
  4  5  1  0  0  0
  4 87  1  0  0  0
  4 88  1  0  0  0
  5  6  1  0  0  0
  5 26  1  0  0  0
  5 89  1  0  0  0
  6 25  1  0  0  0
  6 90  1  0  0  0
  6 91  1  0  0  0
  7  8  2  0  0  0
  7 26  1  0  0  0
  7 29  1  0  0  0
  8  9  1  0  0  0
  8 22  1  0  0  0
  9 10  1  0  0  0
  9 27  2  0  0  0
 10 11  2  0  0  0
 10 15  1  0  0  0
 11 12  1  0  0  0
 11 92  1  0  0  0
 12 13  2  0  0  0
 12 93  1  0  0  0
 13 14  1  0  0  0
 13 31  1  0  0  0
 14 15  2  0  0  0
 14 94  1  0  0  0
 15 95  1  0  0  0
 16 17  2  0  0  0
 16 21  1  0  0  0
 16 31  1  0  0  0
 17 18  1  0  0  0
 17 96  1  0  0  0
 18 19  2  0  0  0
 18 97  1  0  0  0
 19 20  1  0  0  0
 19 24  1  0  0  0
 20 21  2  0  0  0
 20 98  1  0  0  0
 21 23  1  0  0  0
 22 28  1  0  0  0
 22 32  2  0  0  0
 26 27  1  0  0  0
 28 99  1  0  0  0
 28100  1  0  0  0
 29101  1  0  0  0
 29102  1  0  0  0
 33 34  1  0  0  0
 33 66  1  0  0  0
 33 70  2  0  0  0
 34 36  1  0  0  0
 34 59  1  0  0  0
 34103  1  0  0  0
 35 44  2  0  0  0
 35 45  1  0  0  0
 35 68  1  0  0  0
 36 56  1  0  0  0
 36104  1  0  0  0
 37 39  1  0  0  0
 37 47  1  0  0  0
 37 66  1  0  0  0
 37105  1  0  0  0
 38 43  2  0  0  0
 38 46  1  0  0  0
 38 47  1  0  0  0
 39 64  1  0  0  0
 39 67  2  0  0  0
 40 52  1  0  0  0
 40 53  2  0  0  0
 40 58  1  0  0  0
 41106  1  0  0  0
 41107  1  0  0  0
 41108  1  0  0  0
 41 48  1  0  0  0
 42 43  1  0  0  0
 42 66  1  0  0  0
 42109  1  0  0  0
 42110  1  0  0  0
 43 44  1  0  0  0
 44111  1  0  0  0
 45 46  2  0  0  0
 45112  1  0  0  0
 46113  1  0  0  0
 47114  1  0  0  0
 47115  1  0  0  0
 48 56  1  0  0  0
 48 65  1  0  0  0
 48116  1  0  0  0
 49 50  1  0  0  0
 49 53  1  0  0  0
 49 64  1  0  0  0
 49117  1  0  0  0
 50 51  1  0  0  0
 50118  1  0  0  0
 50119  1  0  0  0
 51 52  1  0  0  0
 51120  1  0  0  0
 51121  1  0  0  0
 52122  1  0  0  0
 52123  1  0  0  0
 53 54  1  0  0  0
 54 55  2  0  0  0
 54124  1  0  0  0
 55 57  1  0  0  0
 55125  1  0  0  0
 56 69  2  0  0  0
 57 58  2  0  0  0
 57126  1  0  0  0
 58127  1  0  0  0
 59 60  1  0  0  0
 59 61  1  0  0  0
 59 62  1  0  0  0
 60128  1  0  0  0
 60129  1  0  0  0
 60130  1  0  0  0
 61131  1  0  0  0
 61132  1  0  0  0
 61133  1  0  0  0
 62134  1  0  0  0
 62135  1  0  0  0
 62136  1  0  0  0
 63 65  1  0  0  0
 63137  1  0  0  0
 63138  1  0  0  0
 63139  1  0  0  0
 64140  1  0  0  0
 65141  1  0  0  0
 68 77  1  0  0  0
 71 79  2  0  0  0
 71 81  1  0  0  0
 71142  1  0  0  0
 72 78  1  0  0  0
 72 79  1  0  0  0
 72 80  2  0  0  0
 73143  1  0  0  0
 73144  1  0  0  0
 73145  1  0  0  0
 73 78  1  0  0  0
 74 75  1  0  0  0
 74 76  1  0  0  0
 74146  1  0  0  0
 74147  1  0  0  0
 75 77  1  0  0  0
 75148  1  0  0  0
 75149  1  0  0  0
 76 81  1  0  0  0
 76150  1  0  0  0
 76151  1  0  0  0
 77152  1  0  0  0
 77153  1  0  0  0
 78 82  1  0  0  0
 78154  1  0  0  0
 80 81  1  0  0  0
 82155  1  0  0  0
M  ISO  4   1 100  68 101  77 101  82 100
M  END
> <chiral flag>
0

> <version>
0

> <s_m_source_file>
/data/baiqing/PycharmProjects/Reinvent-master-3.2/result/LINK_invent/BTK/process_docking_weight1_custom_sum_contain_oxygen_bond_distance_aromatic_linkinvent_7_9_3/rearranged_h_0057.sdf

> <i_m_source_file_index>
6

> <r_mmod_Potential_Energy-OPLS-2005>
-118.913818359375

> <r_mmod_Stretch_Energy-OPLS-2005>
58.0442161560059

> <r_mmod_Bend_Energy-OPLS-2005>
136.757476806641

> <r_mmod_Torsional_Energy-OPLS-2005>
222.195724487305

> <r_mmod_Improper_Torsional_Energy-OPLS-2005>
2.59683966636658

> <r_mmod_Van_der_Waal_Energy-OPLS-2005>
121.290634155273

> <r_mmod_Electrostatic_Energy-OPLS-2005>
-464.329650878906

> <r_mmod_Solvation_Energy-OPLS-2005>
-224.629913330078

> <b_mmod_Minimization_Converged-OPLS-2005>
0

> <r_mmod_RMS_Derivative-OPLS-2005>
5.95086050033569

$$$$
6
                    3D
 Structure written by MMmdl.
162170  0  0  1  0            999 V2000
  -30.7039  -14.5477   20.4369 C   0  0  0  0  0  0
  -30.4227  -12.3032   19.4491 C   0  0  0  0  0  0
  -29.5005  -12.3846   18.2140 C   0  0  0  0  0  0
  -28.0118  -12.3211   18.6245 C   0  0  0  0  0  0
  -27.6457  -13.1961   19.8578 C   0  0  2  0  0  0
  -28.7047  -13.0929   20.9773 C   0  0  0  0  0  0
  -25.2585  -13.8119   20.5729 C   0  0  0  0  0  0
  -24.1817  -13.0416   20.9200 C   0  0  0  0  0  0
  -24.6363  -11.6876   20.8774 C   0  0  0  0  0  0
  -23.9019  -10.4281   21.0422 C   0  0  0  0  0  0
  -24.3582   -9.4201   21.9184 C   0  0  0  0  0  0
  -23.6272   -8.2225   22.0744 C   0  0  0  0  0  0
  -22.4248   -8.0263   21.3545 C   0  0  0  0  0  0
  -21.9886   -9.0229   20.4640 C   0  0  0  0  0  0
  -22.7197  -10.2118   20.3067 C   0  0  0  0  0  0
  -21.6856   -6.0716   22.5267 C   0  0  0  0  0  0
  -21.4006   -6.5619   23.8195 C   0  0  0  0  0  0
  -21.3671   -5.6781   24.9167 C   0  0  0  0  0  0
  -21.6058   -4.3044   24.7233 C   0  0  0  0  0  0
  -21.8819   -3.8128   23.4357 C   0  0  0  0  0  0
  -21.9194   -4.6942   22.3408 C   0  0  0  0  0  0
  -22.7851  -13.5235   21.1866 C   0  0  0  0  0  0
  -22.1658   -4.2119   21.0989 F   0  0  0  0  0  0
  -21.5658   -3.4542   25.7757 F   0  0  0  0  0  0
  -30.0190  -13.3679   20.3797 N   0  0  0  0  0  0
  -26.2973  -12.9233   20.3382 N   0  0  0  0  0  0
  -25.9285  -11.6416   20.5809 N   0  0  0  0  0  0
  -22.0510  -12.8199   22.0415 N   0  0  0  0  0  0
  -25.4353  -15.1839   20.4173 N   0  0  0  0  0  0
  -31.9177  -14.6177   20.2321 O   0  0  0  0  0  0
  -21.6637   -6.8841   21.4218 O   0  0  0  0  0  0
  -22.3542  -14.5548   20.6730 O   0  0  0  0  0  0
  -24.6170  -31.8686   23.2115 C   0  0  0  0  0  0
  -25.9054  -32.4826   23.8411 C   0  0  1  0  0  0
  -27.2272  -27.4083   20.0928 C   0  0  0  0  0  0
  -25.5912  -33.8626   24.2341 N   0  0  0  0  0  0
  -23.4049  -30.4969   21.5527 C   0  0  2  0  0  0
  -24.8483  -28.9683   20.1114 C   0  0  0  0  0  0
  -22.7426  -29.4677   22.4972 C   0  0  0  0  0  0
  -18.0281  -28.1379   22.8500 C   0  0  0  0  0  0
  -24.1491  -36.7313   23.2639 C   0  0  0  0  0  0
  -25.9384  -30.8259   21.3714 C   0  0  0  0  0  0
  -26.0110  -29.4614   20.7131 C   0  0  0  0  0  0
  -27.1979  -28.6883   20.7022 C   0  0  0  0  0  0
  -26.0391  -26.9520   19.4652 C   0  0  0  0  0  0
  -24.8599  -27.7153   19.4846 C   0  0  0  0  0  0
  -23.6129  -29.8367   20.1645 C   0  0  0  0  0  0
  -25.4113  -36.3114   24.0340 C   0  0  1  0  0  0
  -20.5879  -28.3675   23.1305 C   0  0  2  0  0  0
  -20.6768  -26.9407   22.5412 C   0  0  0  0  0  0
  -19.5738  -26.6383   21.5218 C   0  0  0  0  0  0
  -18.1920  -26.7925   22.1634 C   0  0  0  0  0  0
  -19.1531  -28.8844   23.2902 C   0  0  0  0  0  0
  -18.9455  -30.1451   23.8911 C   0  0  0  0  0  0
  -17.6454  -30.6580   24.0570 C   0  0  0  0  0  0
  -25.9039  -34.9478   23.5133 C   0  0  0  0  0  0
  -16.5350  -29.9082   23.6324 C   0  0  0  0  0  0
  -16.7271  -28.6501   23.0345 C   0  0  0  0  0  0
  -26.4477  -31.6607   25.0744 C   0  0  0  0  0  0
  -25.3732  -31.3702   26.1482 C   0  0  0  0  0  0
  -27.0309  -30.3047   24.6136 C   0  0  0  0  0  0
  -27.6064  -32.4325   25.7494 C   0  0  0  0  0  0
  -27.5586  -37.1810   24.8464 C   0  0  0  0  0  0
  -21.4155  -29.3040   22.3703 N   0  0  0  0  0  0
  -26.4298  -37.3796   23.9406 N   0  0  0  0  0  0
  -24.6716  -31.0777   22.1026 N   0  0  0  0  0  0
  -23.4197  -28.8203   23.2998 O   0  0  0  0  0  0
  -28.4044  -26.6717   20.1538 O   0  0  0  0  0  0
  -26.5597  -34.8924   22.4692 O   0  0  0  0  0  0
  -23.5357  -32.1448   23.7499 O   0  0  0  0  0  0
  -29.6232  -23.5141   22.6157 C   0  0  0  0  0  0
  -29.6880  -22.1144   20.8910 C   0  0  0  0  0  0
  -29.0795  -24.2546   20.5889 C   0  0  0  0  0  0
  -29.8217  -23.7728   24.0941 C   0  0  0  0  0  0
  -29.4205  -15.9961   19.0396 C   0  0  0  0  0  0
  -31.6246  -19.6212   21.7055 C   0  0  0  0  0  0
  -29.9121  -20.7236   20.2803 C   0  0  0  0  0  0
  -28.4606  -25.3109   19.6558 C   0  0  0  0  0  0
  -30.3684  -16.9235   21.1422 C   0  0  0  0  0  0
  -29.8494  -18.2943   20.5543 C   0  0  0  0  0  0
  -29.8432  -22.2669   22.2017 N   0  0  0  0  0  0
  -29.2343  -24.5488   21.8772 N   0  0  0  0  0  0
  -29.3116  -23.0638   20.0354 N   0  0  0  0  0  0
  -29.9617  -15.6942   20.3802 N   0  0  0  0  0  0
  -30.2256  -19.5906   21.2099 N   0  3  1  0  0  0
  -31.4695  -12.3871   19.1483 H   0  0  0  0  0  0
  -30.3232  -11.3286   19.9308 H   0  0  0  0  0  0
  -29.7192  -11.5533   17.5433 H   0  0  0  0  0  0
  -29.7151  -13.2710   17.6226 H   0  0  0  0  0  0
  -27.7929  -11.2753   18.8423 H   0  0  0  0  0  0
  -27.3783  -12.5859   17.7781 H   0  0  0  0  0  0
  -27.6222  -14.2210   19.5106 H   0  0  0  0  0  0
  -28.6974  -12.0996   21.4295 H   0  0  0  0  0  0
  -28.4870  -13.7962   21.7810 H   0  0  0  0  0  0
  -25.2741   -9.5690   22.4737 H   0  0  0  0  0  0
  -24.0016   -7.4615   22.7445 H   0  0  0  0  0  0
  -21.0837   -8.8728   19.8921 H   0  0  0  0  0  0
  -22.3656  -10.9653   19.6176 H   0  0  0  0  0  0
  -21.1967   -7.6121   23.9682 H   0  0  0  0  0  0
  -21.1513   -6.0525   25.9067 H   0  0  0  0  0  0
  -22.0591   -2.7587   23.2874 H   0  0  0  0  0  0
  -22.4157  -11.9844   22.4745 H   0  0  0  0  0  0
  -21.1119  -13.1166   22.2632 H   0  0  0  0  0  0
  -24.6736  -15.8451   20.5263 H   0  0  0  0  0  0
  -26.3014  -15.6213   20.1304 H   0  0  0  0  0  0
  -26.7126  -32.5526   23.1174 H   0  0  0  0  0  0
  -25.0062  -33.9793   25.0488 H   0  0  0  0  0  0
  -22.6948  -31.3146   21.4164 H   0  0  0  0  0  0
  -23.3754  -35.9643   23.3306 H   0  0  0  0  0  0
  -24.3584  -36.8925   22.2052 H   0  0  0  0  0  0
  -23.7241  -37.6520   23.6648 H   0  0  0  0  0  0
  -26.0587  -31.5954   20.6077 H   0  0  0  0  0  0
  -26.8243  -30.8728   21.9933 H   0  0  0  0  0  0
  -28.0951  -29.0656   21.1734 H   0  0  0  0  0  0
  -25.9616  -26.0169   18.9376 H   0  0  0  0  0  0
  -23.9667  -27.3390   19.0055 H   0  0  0  0  0  0
  -23.7215  -30.6145   19.4080 H   0  0  0  0  0  0
  -22.7358  -29.2600   19.8678 H   0  0  0  0  0  0
  -25.1289  -36.1984   25.0833 H   0  0  0  0  0  0
  -20.9985  -28.3236   24.1421 H   0  0  0  0  0  0
  -20.5674  -26.2284   23.3602 H   0  0  0  0  0  0
  -21.6633  -26.7430   22.1203 H   0  0  0  0  0  0
  -19.6891  -25.6294   21.1240 H   0  0  0  0  0  0
  -19.6670  -27.3202   20.6754 H   0  0  0  0  0  0
  -17.4190  -26.6695   21.4034 H   0  0  0  0  0  0
  -18.0311  -26.0059   22.9022 H   0  0  0  0  0  0
  -19.7925  -30.7274   24.2281 H   0  0  0  0  0  0
  -17.4999  -31.6259   24.5169 H   0  0  0  0  0  0
  -15.5349  -30.2984   23.7624 H   0  0  0  0  0  0
  -15.8680  -28.0821   22.7040 H   0  0  0  0  0  0
  -24.5905  -30.7067   25.7791 H   0  0  0  0  0  0
  -24.8926  -32.2852   26.4953 H   0  0  0  0  0  0
  -25.8071  -30.8836   27.0225 H   0  0  0  0  0  0
  -26.2861  -29.6809   24.1186 H   0  0  0  0  0  0
  -27.4066  -29.7289   25.4604 H   0  0  0  0  0  0
  -27.8702  -30.4363   23.9304 H   0  0  0  0  0  0
  -27.2703  -33.3618   26.2099 H   0  0  0  0  0  0
  -28.3847  -32.6895   25.0297 H   0  0  0  0  0  0
  -28.0762  -31.8432   26.5380 H   0  0  0  0  0  0
  -28.2601  -38.0112   24.7522 H   0  0  0  0  0  0
  -28.1088  -36.2646   24.6278 H   0  0  0  0  0  0
  -27.2301  -37.1445   25.8865 H   0  0  0  0  0  0
  -20.9311  -29.8782   21.6948 H   0  0  0  0  0  0
  -26.0193  -38.2875   24.1404 H   0  0  0  0  0  0
  -30.5929  -23.1211   24.5090 H   0  0  0  0  0  0
  -28.8941  -23.5893   24.6358 H   0  0  0  0  0  0
  -30.1256  -24.8034   24.2746 H   0  0  0  0  0  0
  -28.4674  -16.5185   19.0962 H   0  0  0  0  0  0
  -29.2361  -15.1192   18.4330 H   0  0  0  0  0  0
  -30.1214  -16.5788   18.4408 H   0  0  0  0  0  0
  -31.7615  -18.9160   22.5252 H   0  0  0  0  0  0
  -31.9027  -20.6017   22.0889 H   0  0  0  0  0  0
  -32.3334  -19.3683   20.9163 H   0  0  0  0  0  0
  -30.6807  -20.7938   19.5094 H   0  0  0  0  0  0
  -28.9846  -20.4964   19.7511 H   0  0  0  0  0  0
  -27.4973  -24.8736   19.4196 H   0  0  0  0  0  0
  -29.0225  -25.3219   18.7211 H   0  0  0  0  0  0
  -30.0144  -16.8117   22.1674 H   0  0  0  0  0  0
  -31.4581  -16.9523   21.1992 H   0  0  0  0  0  0
  -28.7598  -18.2682   20.4983 H   0  0  0  0  0  0
  -30.2193  -18.3923   19.5348 H   0  0  0  0  0  0
  -29.6303  -19.7564   22.0091 H   0  0  0  0  0  0
  1 25  1  0  0  0
  1 30  2  0  0  0
  1 84  1  0  0  0
  2  3  1  0  0  0
  2 25  1  0  0  0
  2 86  1  0  0  0
  2 87  1  0  0  0
  3  4  1  0  0  0
  3 88  1  0  0  0
  3 89  1  0  0  0
  4  5  1  0  0  0
  4 90  1  0  0  0
  4 91  1  0  0  0
  5  6  1  0  0  0
  5 26  1  0  0  0
  5 92  1  0  0  0
  6 25  1  0  0  0
  6 93  1  0  0  0
  6 94  1  0  0  0
  7  8  2  0  0  0
  7 26  1  0  0  0
  7 29  1  0  0  0
  8  9  1  0  0  0
  8 22  1  0  0  0
  9 10  1  0  0  0
  9 27  2  0  0  0
 10 11  2  0  0  0
 10 15  1  0  0  0
 11 12  1  0  0  0
 11 95  1  0  0  0
 12 13  2  0  0  0
 12 96  1  0  0  0
 13 14  1  0  0  0
 13 31  1  0  0  0
 14 15  2  0  0  0
 14 97  1  0  0  0
 15 98  1  0  0  0
 16 17  2  0  0  0
 16 21  1  0  0  0
 16 31  1  0  0  0
 17 18  1  0  0  0
 17 99  1  0  0  0
 18 19  2  0  0  0
 18100  1  0  0  0
 19 20  1  0  0  0
 19 24  1  0  0  0
 20 21  2  0  0  0
 20101  1  0  0  0
 21 23  1  0  0  0
 22 28  1  0  0  0
 22 32  2  0  0  0
 26 27  1  0  0  0
 28102  1  0  0  0
 28103  1  0  0  0
 29104  1  0  0  0
 29105  1  0  0  0
 33 34  1  0  0  0
 33 66  1  0  0  0
 33 70  2  0  0  0
 34 36  1  0  0  0
 34 59  1  0  0  0
 34106  1  0  0  0
 35 44  2  0  0  0
 35 45  1  0  0  0
 35 68  1  0  0  0
 36 56  1  0  0  0
 36107  1  0  0  0
 37 39  1  0  0  0
 37 47  1  0  0  0
 37 66  1  0  0  0
 37108  1  0  0  0
 38 43  2  0  0  0
 38 46  1  0  0  0
 38 47  1  0  0  0
 39 64  1  0  0  0
 39 67  2  0  0  0
 40 52  1  0  0  0
 40 53  2  0  0  0
 40 58  1  0  0  0
 41109  1  0  0  0
 41110  1  0  0  0
 41111  1  0  0  0
 41 48  1  0  0  0
 42 43  1  0  0  0
 42 66  1  0  0  0
 42112  1  0  0  0
 42113  1  0  0  0
 43 44  1  0  0  0
 44114  1  0  0  0
 45 46  2  0  0  0
 45115  1  0  0  0
 46116  1  0  0  0
 47117  1  0  0  0
 47118  1  0  0  0
 48 56  1  0  0  0
 48 65  1  0  0  0
 48119  1  0  0  0
 49 50  1  0  0  0
 49 53  1  0  0  0
 49 64  1  0  0  0
 49120  1  0  0  0
 50 51  1  0  0  0
 50121  1  0  0  0
 50122  1  0  0  0
 51 52  1  0  0  0
 51123  1  0  0  0
 51124  1  0  0  0
 52125  1  0  0  0
 52126  1  0  0  0
 53 54  1  0  0  0
 54 55  2  0  0  0
 54127  1  0  0  0
 55 57  1  0  0  0
 55128  1  0  0  0
 56 69  2  0  0  0
 57 58  2  0  0  0
 57129  1  0  0  0
 58130  1  0  0  0
 59 60  1  0  0  0
 59 61  1  0  0  0
 59 62  1  0  0  0
 60131  1  0  0  0
 60132  1  0  0  0
 60133  1  0  0  0
 61134  1  0  0  0
 61135  1  0  0  0
 61136  1  0  0  0
 62137  1  0  0  0
 62138  1  0  0  0
 62139  1  0  0  0
 63 65  1  0  0  0
 63140  1  0  0  0
 63141  1  0  0  0
 63142  1  0  0  0
 64143  1  0  0  0
 65144  1  0  0  0
 68 78  1  0  0  0
 71 74  1  0  0  0
 71 81  2  0  0  0
 71 82  1  0  0  0
 72 77  1  0  0  0
 72 81  1  0  0  0
 72 83  2  0  0  0
 73 78  1  0  0  0
 73 82  2  0  0  0
 73 83  1  0  0  0
 74145  1  0  0  0
 74146  1  0  0  0
 74147  1  0  0  0
 75 84  1  0  0  0
 75148  1  0  0  0
 75149  1  0  0  0
 75150  1  0  0  0
 76151  1  0  0  0
 76152  1  0  0  0
 76153  1  0  0  0
 76 85  1  0  0  0
 77 85  1  0  0  0
 77154  1  0  0  0
 77155  1  0  0  0
 78156  1  0  0  0
 78157  1  0  0  0
 79 80  1  0  0  0
 79 84  1  0  0  0
 79158  1  0  0  0
 79159  1  0  0  0
 80 85  1  0  0  0
 80160  1  0  0  0
 80161  1  0  0  0
 85162  1  0  0  0
M  CHG  1  85   1
M  ISO  4   1 100  68 101  78 101  84 100
M  END
> <chiral flag>
0

> <version>
0

> <s_m_source_file>
/data/baiqing/PycharmProjects/Reinvent-master-3.2/result/LINK_invent/BTK/process_docking_weight1_custom_sum_contain_oxygen_bond_distance_aromatic_linkinvent_7_9_3/rearranged_h_0057.sdf

> <i_m_source_file_index>
7

> <r_mmod_Potential_Energy-OPLS-2005>
-639.393737792969

> <r_mmod_Stretch_Energy-OPLS-2005>
49.223575592041

> <r_mmod_Bend_Energy-OPLS-2005>
134.983093261719

> <r_mmod_Torsional_Energy-OPLS-2005>
302.430847167969

> <r_mmod_Improper_Torsional_Energy-OPLS-2005>
12.1241388320923

> <r_mmod_Van_der_Waal_Energy-OPLS-2005>
200.530914306641

> <r_mmod_Electrostatic_Energy-OPLS-2005>
-918.4365234375

> <r_mmod_Solvation_Energy-OPLS-2005>
-454.771850585938

> <b_mmod_Minimization_Converged-OPLS-2005>
0

> <r_mmod_RMS_Derivative-OPLS-2005>
2.25763034820557

$$$$
7
                    3D
 Structure written by MMmdl.
161169  0  0  1  0            999 V2000
  -30.5391  -14.9867   20.4386 C   0  0  0  0  0  0
  -30.4255  -12.6158   19.5210 C   0  0  0  0  0  0
  -29.5354  -12.5897   18.2574 C   0  0  0  0  0  0
  -28.0624  -12.3710   18.6499 C   0  0  0  0  0  0
  -27.6216  -13.2736   19.8280 C   0  0  2  0  0  0
  -28.6560  -13.2859   20.9701 C   0  0  0  0  0  0
  -25.2329  -13.8254   20.5541 C   0  0  0  0  0  0
  -24.1708  -13.0418   20.9175 C   0  0  0  0  0  0
  -24.6388  -11.6926   20.8708 C   0  0  0  0  0  0
  -23.9092  -10.4257   21.0359 C   0  0  0  0  0  0
  -24.3649   -9.4160   21.9118 C   0  0  0  0  0  0
  -23.6302   -8.2233   22.0754 C   0  0  0  0  0  0
  -22.4270   -8.0286   21.3598 C   0  0  0  0  0  0
  -21.9941   -9.0207   20.4631 C   0  0  0  0  0  0
  -22.7272  -10.2066   20.2996 C   0  0  0  0  0  0
  -21.6828   -6.0726   22.5356 C   0  0  0  0  0  0
  -21.4047   -6.5606   23.8322 C   0  0  0  0  0  0
  -21.3643   -5.6730   24.9258 C   0  0  0  0  0  0
  -21.6023   -4.2999   24.7250 C   0  0  0  0  0  0
  -21.8800   -3.8135   23.4358 C   0  0  0  0  0  0
  -21.9179   -4.6973   22.3432 C   0  0  0  0  0  0
  -22.7744  -13.5211   21.1866 C   0  0  0  0  0  0
  -22.1617   -4.2201   21.0984 F   0  0  0  0  0  0
  -21.5589   -3.4443   25.7712 F   0  0  0  0  0  0
  -29.9403  -13.7177   20.4064 N   0  0  0  0  0  0
  -26.2791  -12.9534   20.3051 N   0  0  0  0  0  0
  -25.9311  -11.6645   20.5613 N   0  0  0  0  0  0
  -22.0390  -12.8255   22.0458 N   0  0  0  0  0  0
  -25.3785  -15.1997   20.3950 N   0  0  0  0  0  0
  -31.7418  -14.9741   20.1165 O   0  0  0  0  0  0
  -21.6607   -6.8884   21.4338 O   0  0  0  0  0  0
  -22.3415  -14.5515   20.6753 O   0  0  0  0  0  0
  -24.6430  -31.8393   23.1872 C   0  0  0  0  0  0
  -25.9198  -32.4683   23.8220 C   0  0  1  0  0  0
  -27.2372  -27.1511   20.1797 C   0  0  0  0  0  0
  -25.5908  -33.8486   24.2109 N   0  0  0  0  0  0
  -23.4500  -30.4539   21.5279 C   0  0  2  0  0  0
  -24.9071  -28.8737   20.1193 C   0  0  0  0  0  0
  -22.7552  -29.4520   22.4843 C   0  0  0  0  0  0
  -18.0261  -28.1413   22.8406 C   0  0  0  0  0  0
  -24.1532  -36.7319   23.2627 C   0  0  0  0  0  0
  -26.0025  -30.7247   21.3797 C   0  0  0  0  0  0
  -26.0795  -29.3326   20.7332 C   0  0  0  0  0  0
  -27.2497  -28.4854   20.7427 C   0  0  0  0  0  0
  -26.0392  -26.7811   19.5368 C   0  0  0  0  0  0
  -24.8971  -27.6127   19.4993 C   0  0  0  0  0  0
  -23.6808  -29.7708   20.1507 C   0  0  0  0  0  0
  -25.4151  -36.3024   24.0269 C   0  0  1  0  0  0
  -20.5870  -28.3755   23.1220 C   0  0  2  0  0  0
  -20.6755  -26.9459   22.5412 C   0  0  0  0  0  0
  -19.5770  -26.6391   21.5183 C   0  0  0  0  0  0
  -18.1929  -26.7933   22.1573 C   0  0  0  0  0  0
  -19.1517  -28.8908   23.2792 C   0  0  0  0  0  0
  -18.9431  -30.1472   23.8858 C   0  0  0  0  0  0
  -17.6437  -30.6595   24.0567 C   0  0  0  0  0  0
  -25.9108  -34.9394   23.5030 C   0  0  0  0  0  0
  -16.5323  -29.9104   23.6317 C   0  0  0  0  0  0
  -16.7247  -28.6528   23.0319 C   0  0  0  0  0  0
  -26.4512  -31.6554   25.0680 C   0  0  0  0  0  0
  -25.3685  -31.3789   26.1388 C   0  0  0  0  0  0
  -27.0389  -30.2946   24.6262 C   0  0  0  0  0  0
  -27.6057  -32.4291   25.7448 C   0  0  0  0  0  0
  -27.5593  -37.1807   24.8413 C   0  0  0  0  0  0
  -21.4258  -29.3055   22.3592 N   0  0  0  0  0  0
  -26.4310  -37.3727   23.9356 N   0  0  0  0  0  0
  -24.7171  -31.0282   22.0873 N   0  0  0  0  0  0
  -23.4176  -28.8059   23.3013 O   0  0  0  0  0  0
  -28.3178  -26.2052   20.1553 O   0  0  0  0  0  0
  -26.5740  -34.8882   22.4631 O   0  0  0  0  0  0
  -23.5541  -32.1244   23.7109 O   0  0  0  0  0  0
  -29.3367  -17.3761   17.2476 C   0  0  0  0  0  0
  -29.5264  -19.1099   19.3825 C   0  0  0  0  0  0
  -29.6342  -19.5001   18.0044 C   0  0  0  0  0  0
  -29.6338  -17.5955   19.5300 C   0  0  0  0  0  0
  -29.9405  -20.8924   17.4885 C   0  0  0  0  0  0
  -28.6010  -16.5001   21.5985 C   0  0  0  0  0  0
  -30.5274  -22.3668   21.2845 C   0  0  0  0  0  0
  -29.1667  -20.3162   20.4600 C   0  0  0  0  0  0
  -28.1900  -23.2151   20.3851 C   0  0  0  0  0  0
  -28.2813  -24.8390   20.8792 C   0  0  0  0  0  0
  -29.8725  -16.5199   20.7412 C   0  0  1  0  0  0
  -29.3798  -22.0213   20.3380 C   0  0  1  0  0  0
  -29.5200  -18.6444   16.9795 N   0  0  0  0  0  0
  -29.4258  -16.8341   18.4396 N   0  0  0  0  0  0
  -31.4695  -12.7405   19.2328 H   0  0  0  0  0  0
  -30.3839  -11.6543   20.0360 H   0  0  0  0  0  0
  -29.8790  -11.8157   17.5710 H   0  0  0  0  0  0
  -29.6330  -13.5344   17.7194 H   0  0  0  0  0  0
  -27.9543  -11.3246   18.9268 H   0  0  0  0  0  0
  -27.4189  -12.5314   17.7808 H   0  0  0  0  0  0
  -27.5768  -14.2848   19.4258 H   0  0  0  0  0  0
  -28.7377  -12.2966   21.4223 H   0  0  0  0  0  0
  -28.3418  -13.9375   21.7777 H   0  0  0  0  0  0
  -25.2821   -9.5603   22.4651 H   0  0  0  0  0  0
  -24.0027   -7.4665   22.7479 H   0  0  0  0  0  0
  -21.0883   -8.8661   19.8932 H   0  0  0  0  0  0
  -22.3731  -10.9570   19.6078 H   0  0  0  0  0  0
  -21.2071   -7.6120   23.9901 H   0  0  0  0  0  0
  -21.1456   -6.0388   25.9162 H   0  0  0  0  0  0
  -22.0580   -2.7595   23.2812 H   0  0  0  0  0  0
  -22.3929  -11.9926   22.4925 H   0  0  0  0  0  0
  -21.1098  -13.1532   22.2703 H   0  0  0  0  0  0
  -24.5957  -15.8321   20.5356 H   0  0  0  0  0  0
  -26.2206  -15.6733   20.0901 H   0  0  0  0  0  0
  -26.7293  -32.5266   23.0968 H   0  0  0  0  0  0
  -24.9831  -33.9567   25.0099 H   0  0  0  0  0  0
  -22.7565  -31.2784   21.3655 H   0  0  0  0  0  0
  -23.3744  -35.9707   23.3251 H   0  0  0  0  0  0
  -24.3649  -36.9025   22.2061 H   0  0  0  0  0  0
  -23.7374  -37.6529   23.6719 H   0  0  0  0  0  0
  -26.1459  -31.4777   20.6020 H   0  0  0  0  0  0
  -26.8734  -30.7882   22.0166 H   0  0  0  0  0  0
  -28.1510  -28.8375   21.2233 H   0  0  0  0  0  0
  -25.9840  -25.8079   19.0681 H   0  0  0  0  0  0
  -24.0070  -27.2628   18.9946 H   0  0  0  0  0  0
  -23.8127  -30.5367   19.3842 H   0  0  0  0  0  0
  -22.8041  -29.1967   19.8510 H   0  0  0  0  0  0
  -25.1376  -36.1825   25.0761 H   0  0  0  0  0  0
  -20.9887  -28.3352   24.1382 H   0  0  0  0  0  0
  -20.5587  -26.2400   23.3640 H   0  0  0  0  0  0
  -21.6647  -26.7449   22.1285 H   0  0  0  0  0  0
  -19.6989  -25.6295   21.1254 H   0  0  0  0  0  0
  -19.6741  -27.3173   20.6682 H   0  0  0  0  0  0
  -17.4209  -26.6572   21.3987 H   0  0  0  0  0  0
  -18.0397  -26.0112   22.9014 H   0  0  0  0  0  0
  -19.7915  -30.7255   24.2253 H   0  0  0  0  0  0
  -17.5010  -31.6271   24.5192 H   0  0  0  0  0  0
  -15.5340  -30.3022   23.7686 H   0  0  0  0  0  0
  -15.8609  -28.0869   22.7060 H   0  0  0  0  0  0
  -24.5909  -30.7082   25.7731 H   0  0  0  0  0  0
  -24.8838  -32.3014   26.4590 H   0  0  0  0  0  0
  -25.7959  -30.9138   27.0279 H   0  0  0  0  0  0
  -26.3061  -29.6679   24.1197 H   0  0  0  0  0  0
  -27.3961  -29.7197   25.4802 H   0  0  0  0  0  0
  -27.8940  -30.4192   23.9623 H   0  0  0  0  0  0
  -27.2685  -33.3624   26.1916 H   0  0  0  0  0  0
  -28.3910  -32.6745   25.0310 H   0  0  0  0  0  0
  -28.0661  -31.8479   26.5441 H   0  0  0  0  0  0
  -28.2539  -38.0163   24.7488 H   0  0  0  0  0  0
  -28.1145  -36.2687   24.6187 H   0  0  0  0  0  0
  -27.2317  -37.1410   25.8812 H   0  0  0  0  0  0
  -20.9505  -29.8743   21.6720 H   0  0  0  0  0  0
  -26.0165  -38.2786   24.1334 H   0  0  0  0  0  0
  -29.1732  -16.7116   16.4094 H   0  0  0  0  0  0
  -30.8919  -21.2443   17.8978 H   0  0  0  0  0  0
  -29.1291  -21.5895   17.6823 H   0  0  0  0  0  0
  -30.0784  -20.9170   16.4046 H   0  0  0  0  0  0
  -28.2679  -17.5173   21.8071 H   0  0  0  0  0  0
  -28.7642  -16.0129   22.5586 H   0  0  0  0  0  0
  -27.7821  -16.0228   21.0737 H   0  0  0  0  0  0
  -31.4260  -21.8383   20.9625 H   0  0  0  0  0  0
  -30.3107  -22.0756   22.3106 H   0  0  0  0  0  0
  -30.7760  -23.4263   21.2646 H   0  0  0  0  0  0
  -29.6509  -19.9996   21.3864 H   0  0  0  0  0  0
  -28.1081  -20.1580   20.6787 H   0  0  0  0  0  0
  -27.6221  -23.1771   19.4501 H   0  0  0  0  0  0
  -27.4949  -22.8016   21.1159 H   0  0  0  0  0  0
  -29.1133  -24.8903   21.5804 H   0  0  0  0  0  0
  -27.4277  -24.9541   21.5500 H   0  0  0  0  0  0
  -30.6309  -17.0034   21.3618 H   0  0  0  0  0  0
  -29.8731  -22.3005   19.4281 H   0  0  0  0  0  0
  1 25  1  0  0  0
  1 30  2  0  0  0
  1 81  1  0  0  0
  2  3  1  0  0  0
  2 25  1  0  0  0
  2 85  1  0  0  0
  2 86  1  0  0  0
  3  4  1  0  0  0
  3 87  1  0  0  0
  3 88  1  0  0  0
  4  5  1  0  0  0
  4 89  1  0  0  0
  4 90  1  0  0  0
  5  6  1  0  0  0
  5 26  1  0  0  0
  5 91  1  0  0  0
  6 25  1  0  0  0
  6 92  1  0  0  0
  6 93  1  0  0  0
  7  8  2  0  0  0
  7 26  1  0  0  0
  7 29  1  0  0  0
  8  9  1  0  0  0
  8 22  1  0  0  0
  9 10  1  0  0  0
  9 27  2  0  0  0
 10 11  2  0  0  0
 10 15  1  0  0  0
 11 12  1  0  0  0
 11 94  1  0  0  0
 12 13  2  0  0  0
 12 95  1  0  0  0
 13 14  1  0  0  0
 13 31  1  0  0  0
 14 15  2  0  0  0
 14 96  1  0  0  0
 15 97  1  0  0  0
 16 17  2  0  0  0
 16 21  1  0  0  0
 16 31  1  0  0  0
 17 18  1  0  0  0
 17 98  1  0  0  0
 18 19  2  0  0  0
 18 99  1  0  0  0
 19 20  1  0  0  0
 19 24  1  0  0  0
 20 21  2  0  0  0
 20100  1  0  0  0
 21 23  1  0  0  0
 22 28  1  0  0  0
 22 32  2  0  0  0
 26 27  1  0  0  0
 28101  1  0  0  0
 28102  1  0  0  0
 29103  1  0  0  0
 29104  1  0  0  0
 33 34  1  0  0  0
 33 66  1  0  0  0
 33 70  2  0  0  0
 34 36  1  0  0  0
 34 59  1  0  0  0
 34105  1  0  0  0
 35 44  2  0  0  0
 35 45  1  0  0  0
 35 68  1  0  0  0
 36 56  1  0  0  0
 36106  1  0  0  0
 37 39  1  0  0  0
 37 47  1  0  0  0
 37 66  1  0  0  0
 37107  1  0  0  0
 38 43  2  0  0  0
 38 46  1  0  0  0
 38 47  1  0  0  0
 39 64  1  0  0  0
 39 67  2  0  0  0
 40 52  1  0  0  0
 40 53  2  0  0  0
 40 58  1  0  0  0
 41108  1  0  0  0
 41109  1  0  0  0
 41110  1  0  0  0
 41 48  1  0  0  0
 42 43  1  0  0  0
 42 66  1  0  0  0
 42111  1  0  0  0
 42112  1  0  0  0
 43 44  1  0  0  0
 44113  1  0  0  0
 45 46  2  0  0  0
 45114  1  0  0  0
 46115  1  0  0  0
 47116  1  0  0  0
 47117  1  0  0  0
 48 56  1  0  0  0
 48 65  1  0  0  0
 48118  1  0  0  0
 49 50  1  0  0  0
 49 53  1  0  0  0
 49 64  1  0  0  0
 49119  1  0  0  0
 50 51  1  0  0  0
 50120  1  0  0  0
 50121  1  0  0  0
 51 52  1  0  0  0
 51122  1  0  0  0
 51123  1  0  0  0
 52124  1  0  0  0
 52125  1  0  0  0
 53 54  1  0  0  0
 54 55  2  0  0  0
 54126  1  0  0  0
 55 57  1  0  0  0
 55127  1  0  0  0
 56 69  2  0  0  0
 57 58  2  0  0  0
 57128  1  0  0  0
 58129  1  0  0  0
 59 60  1  0  0  0
 59 61  1  0  0  0
 59 62  1  0  0  0
 60130  1  0  0  0
 60131  1  0  0  0
 60132  1  0  0  0
 61133  1  0  0  0
 61134  1  0  0  0
 61135  1  0  0  0
 62136  1  0  0  0
 62137  1  0  0  0
 62138  1  0  0  0
 63 65  1  0  0  0
 63139  1  0  0  0
 63140  1  0  0  0
 63141  1  0  0  0
 64142  1  0  0  0
 65143  1  0  0  0
 68 80  1  0  0  0
 71 83  2  0  0  0
 71 84  1  0  0  0
 71144  1  0  0  0
 72 73  2  0  0  0
 72 74  1  0  0  0
 72 78  1  0  0  0
 73 75  1  0  0  0
 73 83  1  0  0  0
 74 81  1  0  0  0
 74 84  2  0  0  0
 75145  1  0  0  0
 75146  1  0  0  0
 75147  1  0  0  0
 76148  1  0  0  0
 76149  1  0  0  0
 76150  1  0  0  0
 76 81  1  0  0  0
 77151  1  0  0  0
 77152  1  0  0  0
 77153  1  0  0  0
 77 82  1  0  0  0
 78 82  1  0  0  0
 78154  1  0  0  0
 78155  1  0  0  0
 79 80  1  0  0  0
 79 82  1  0  0  0
 79156  1  0  0  0
 79157  1  0  0  0
 80158  1  0  0  0
 80159  1  0  0  0
 81160  1  0  0  0
 82161  1  0  0  0
M  ISO  4   1 100  68 101  80 101  81 100
M  END
> <chiral flag>
0

> <version>
0

> <s_m_source_file>
/data/baiqing/PycharmProjects/Reinvent-master-3.2/result/LINK_invent/BTK/process_docking_weight1_custom_sum_contain_oxygen_bond_distance_aromatic_linkinvent_7_9_3/rearranged_h_0057.sdf

> <i_m_source_file_index>
8

> <r_mmod_Potential_Energy-OPLS-2005>
458.994537353516

> <r_mmod_Stretch_Energy-OPLS-2005>
316.149780273438

> <r_mmod_Bend_Energy-OPLS-2005>
387.773620605469

> <r_mmod_Torsional_Energy-OPLS-2005>
261.290924072266

> <r_mmod_Improper_Torsional_Energy-OPLS-2005>
3.13367009162903

> <r_mmod_Van_der_Waal_Energy-OPLS-2005>
150.314147949219

> <r_mmod_Electrostatic_Energy-OPLS-2005>
-642.47265625

> <r_mmod_Solvation_Energy-OPLS-2005>
-207.239440917969

> <b_mmod_Minimization_Converged-OPLS-2005>
0

> <r_mmod_RMS_Derivative-OPLS-2005>
6.74678039550781

$$$$
8
                    3D
 Structure written by MMmdl.
148156  0  0  1  0            999 V2000
  -30.2051  -15.7555   20.3251 C   0  0  0  0  0  0
  -30.4307  -13.1610   19.5616 C   0  0  0  0  0  0
  -29.5717  -12.6898   18.3467 C   0  0  0  0  0  0
  -28.1436  -12.3055   18.7709 C   0  0  0  0  0  0
  -27.5957  -13.3048   19.8117 C   0  0  2  0  0  0
  -28.6035  -13.6512   20.9305 C   0  0  0  0  0  0
  -25.2346  -13.8253   20.5811 C   0  0  0  0  0  0
  -24.1715  -13.0411   20.9270 C   0  0  0  0  0  0
  -24.6418  -11.6923   20.8741 C   0  0  0  0  0  0
  -23.9117  -10.4282   21.0391 C   0  0  0  0  0  0
  -24.3661   -9.4198   21.9171 C   0  0  0  0  0  0
  -23.6323   -8.2240   22.0745 C   0  0  0  0  0  0
  -22.4299   -8.0280   21.3541 C   0  0  0  0  0  0
  -21.9939   -9.0254   20.4638 C   0  0  0  0  0  0
  -22.7281  -10.2128   20.3045 C   0  0  0  0  0  0
  -21.6859   -6.0741   22.5283 C   0  0  0  0  0  0
  -21.4014   -6.5639   23.8220 C   0  0  0  0  0  0
  -21.3676   -5.6790   24.9183 C   0  0  0  0  0  0
  -21.6054   -4.3052   24.7224 C   0  0  0  0  0  0
  -21.8814   -3.8146   23.4346 C   0  0  0  0  0  0
  -21.9191   -4.6971   22.3404 C   0  0  0  0  0  0
  -22.7731  -13.5160   21.1908 C   0  0  0  0  0  0
  -22.1654   -4.2156   21.0981 F   0  0  0  0  0  0
  -21.5641   -3.4535   25.7740 F   0  0  0  0  0  0
  -29.7664  -14.3378   20.3039 N   0  0  0  0  0  0
  -26.2778  -12.9573   20.3209 N   0  0  0  0  0  0
  -25.9359  -11.6647   20.5644 N   0  0  0  0  0  0
  -22.0390  -12.8153   22.0481 N   0  0  0  0  0  0
  -25.3955  -15.2001   20.4363 N   0  0  0  0  0  0
  -31.4397  -15.7033   20.1411 O   0  0  0  0  0  0
  -21.6652   -6.8887   21.4247 O   0  0  0  0  0  0
  -22.3406  -14.5449   20.6735 O   0  0  0  0  0  0
  -24.6894  -31.7920   23.1453 C   0  0  0  0  0  0
  -25.9441  -32.4428   23.8025 C   0  0  1  0  0  0
  -27.2247  -26.6168   20.2279 C   0  0  0  0  0  0
  -25.5992  -33.8263   24.1901 N   0  0  0  0  0  0
  -23.5186  -30.3894   21.5022 C   0  0  2  0  0  0
  -24.9743  -28.7098   20.1238 C   0  0  0  0  0  0
  -22.7781  -29.4266   22.4705 C   0  0  0  0  0  0
  -18.0329  -28.1417   22.8445 C   0  0  0  0  0  0
  -24.1499  -36.7144   23.2658 C   0  0  0  0  0  0
  -26.1024  -30.4933   21.4249 C   0  0  0  0  0  0
  -26.1628  -29.0478   20.7803 C   0  0  0  0  0  0
  -27.2675  -28.0313   20.7988 C   0  0  0  0  0  0
  -26.0062  -26.5125   19.5042 C   0  0  0  0  0  0
  -24.9402  -27.4697   19.4618 C   0  0  0  0  0  0
  -23.7764  -29.6789   20.1413 C   0  0  0  0  0  0
  -25.4152  -36.2874   24.0273 C   0  0  1  0  0  0
  -20.5966  -28.3782   23.1131 C   0  0  2  0  0  0
  -20.6795  -26.9438   22.5402 C   0  0  0  0  0  0
  -19.5774  -26.6358   21.5215 C   0  0  0  0  0  0
  -18.1954  -26.7940   22.1621 C   0  0  0  0  0  0
  -19.1595  -28.8925   23.2765 C   0  0  0  0  0  0
  -18.9509  -30.1502   23.8819 C   0  0  0  0  0  0
  -17.6501  -30.6604   24.0540 C   0  0  0  0  0  0
  -25.9136  -34.9270   23.4933 C   0  0  0  0  0  0
  -16.5385  -29.9082   23.6354 C   0  0  0  0  0  0
  -16.7310  -28.6500   23.0373 C   0  0  0  0  0  0
  -26.4588  -31.6504   25.0692 C   0  0  0  0  0  0
  -25.3626  -31.3857   26.1289 C   0  0  0  0  0  0
  -27.0527  -30.2831   24.6659 C   0  0  0  0  0  0
  -27.6020  -32.4387   25.7506 C   0  0  0  0  0  0
  -27.5555  -37.1734   24.8464 C   0  0  0  0  0  0
  -21.4423  -29.3020   22.3454 N   0  0  0  0  0  0
  -26.4273  -37.3637   23.9393 N   0  0  0  0  0  0
  -24.7942  -30.9277   22.0754 N   0  0  0  0  0  0
  -23.4188  -28.7880   23.3089 O   0  0  0  0  0  0
  -28.2146  -25.3888   20.2578 O   0  0  0  0  0  0
  -26.5786  -34.8850   22.4560 O   0  0  0  0  0  0
  -23.5900  -32.1043   23.6351 O   0  0  0  0  0  0
  -29.2200  -22.6099   20.2761 C   0  0  0  0  0  0
  -27.5036  -21.4935   20.3052 C   0  0  0  0  0  0
  -28.2253  -23.7758   20.2683 C   0  0  0  0  0  0
  -28.2117  -17.3222   19.3477 C   0  0  0  0  0  0
  -28.6209  -17.4062   21.8008 C   0  0  0  0  0  0
  -29.6363  -19.4210   20.2914 C   0  0  0  0  0  0
  -29.3029  -17.4683   20.4221 C   0  0  0  0  0  0
  -27.1321  -22.8528   20.2893 N   0  0  0  0  0  0
  -28.8196  -21.0743   20.3037 N   0  0  0  0  0  0
  -31.4132  -13.4520   19.1890 H   0  0  0  0  0  0
  -30.6286  -12.3262   20.2354 H   0  0  0  0  0  0
  -30.0548  -11.8498   17.8460 H   0  0  0  0  0  0
  -29.5258  -13.4979   17.6141 H   0  0  0  0  0  0
  -28.1755  -11.3048   19.2032 H   0  0  0  0  0  0
  -27.4878  -12.2479   17.9013 H   0  0  0  0  0  0
  -27.4447  -14.2120   19.2325 H   0  0  0  0  0  0
  -28.8875  -12.7583   21.4904 H   0  0  0  0  0  0
  -28.1402  -14.3128   21.6585 H   0  0  0  0  0  0
  -25.2803   -9.5682   22.4748 H   0  0  0  0  0  0
  -24.0040   -7.4629   22.7460 H   0  0  0  0  0  0
  -21.0873   -8.8783   19.8935 H   0  0  0  0  0  0
  -22.3738  -10.9676   19.6162 H   0  0  0  0  0  0
  -21.1992   -7.6143   23.9730 H   0  0  0  0  0  0
  -21.1514   -6.0514   25.9094 H   0  0  0  0  0  0
  -22.0576   -2.7606   23.2843 H   0  0  0  0  0  0
  -22.4047  -11.9856   22.4922 H   0  0  0  0  0  0
  -21.0980  -13.1126   22.2658 H   0  0  0  0  0  0
  -24.6279  -15.8466   20.5785 H   0  0  0  0  0  0
  -26.2529  -15.6574   20.1588 H   0  0  0  0  0  0
  -26.7530  -32.4870   23.0735 H   0  0  0  0  0  0
  -25.0021  -33.9295   24.9973 H   0  0  0  0  0  0
  -22.8486  -31.2291   21.3067 H   0  0  0  0  0  0
  -23.3759  -35.9478   23.3307 H   0  0  0  0  0  0
  -24.3547  -36.8819   22.2072 H   0  0  0  0  0  0
  -23.7274  -37.6327   23.6750 H   0  0  0  0  0  0
  -26.3158  -31.2104   20.6309 H   0  0  0  0  0  0
  -26.9497  -30.5635   22.0939 H   0  0  0  0  0  0
  -28.1632  -28.3057   21.3366 H   0  0  0  0  0  0
  -25.8336  -25.5805   18.9842 H   0  0  0  0  0  0
  -24.0464  -27.2037   18.9136 H   0  0  0  0  0  0
  -23.9623  -30.4368   19.3797 H   0  0  0  0  0  0
  -22.8780  -29.1529   19.8132 H   0  0  0  0  0  0
  -25.1370  -36.1632   25.0763 H   0  0  0  0  0  0
  -21.0030  -28.3410   24.1266 H   0  0  0  0  0  0
  -20.5656  -26.2406   23.3667 H   0  0  0  0  0  0
  -21.6658  -26.7373   22.1227 H   0  0  0  0  0  0
  -19.6941  -25.6244   21.1306 H   0  0  0  0  0  0
  -19.6727  -27.3114   20.6703 H   0  0  0  0  0  0
  -17.4220  -26.6653   21.4028 H   0  0  0  0  0  0
  -18.0365  -26.0101   22.9047 H   0  0  0  0  0  0
  -19.7986  -30.7326   24.2162 H   0  0  0  0  0  0
  -17.5057  -31.6281   24.5144 H   0  0  0  0  0  0
  -15.5384  -30.2964   23.7732 H   0  0  0  0  0  0
  -15.8702  -28.0792   22.7155 H   0  0  0  0  0  0
  -24.5773  -30.7275   25.7551 H   0  0  0  0  0  0
  -24.8873  -32.3106   26.4569 H   0  0  0  0  0  0
  -25.7755  -30.9061   27.0172 H   0  0  0  0  0  0
  -26.3254  -29.6417   24.1674 H   0  0  0  0  0  0
  -27.3929  -29.7318   25.5434 H   0  0  0  0  0  0
  -27.9246  -30.3927   24.0210 H   0  0  0  0  0  0
  -27.2537  -33.3737   26.1900 H   0  0  0  0  0  0
  -28.3915  -32.6878   25.0406 H   0  0  0  0  0  0
  -28.0606  -31.8659   26.5575 H   0  0  0  0  0  0
  -28.2554  -38.0041   24.7471 H   0  0  0  0  0  0
  -28.1064  -36.2559   24.6344 H   0  0  0  0  0  0
  -27.2259  -37.1430   25.8862 H   0  0  0  0  0  0
  -20.9742  -29.8670   21.6502 H   0  0  0  0  0  0
  -26.0095  -38.2687   24.1383 H   0  0  0  0  0  0
  -30.2886  -22.7768   20.2607 H   0  0  0  0  0  0
  -26.7247  -20.7435   20.3144 H   0  0  0  0  0  0
  -27.3828  -18.0114   19.5137 H   0  0  0  0  0  0
  -27.7957  -16.3205   19.3191 H   0  0  0  0  0  0
  -28.6132  -17.5337   18.3566 H   0  0  0  0  0  0
  -27.8368  -18.1580   21.8959 H   0  0  0  0  0  0
  -29.3469  -17.5912   22.5922 H   0  0  0  0  0  0
  -28.1563  -16.4442   22.0005 H   0  0  0  0  0  0
  -30.2233  -19.4758   19.3750 H   0  0  0  0  0  0
  -30.3940  -19.5518   21.0638 H   0  0  0  0  0  0
  1 25  1  0  0  0
  1 30  2  0  0  0
  1 77  1  0  0  0
  2  3  1  0  0  0
  2 25  1  0  0  0
  2 80  1  0  0  0
  2 81  1  0  0  0
  3  4  1  0  0  0
  3 82  1  0  0  0
  3 83  1  0  0  0
  4  5  1  0  0  0
  4 84  1  0  0  0
  4 85  1  0  0  0
  5  6  1  0  0  0
  5 26  1  0  0  0
  5 86  1  0  0  0
  6 25  1  0  0  0
  6 87  1  0  0  0
  6 88  1  0  0  0
  7  8  2  0  0  0
  7 26  1  0  0  0
  7 29  1  0  0  0
  8  9  1  0  0  0
  8 22  1  0  0  0
  9 10  1  0  0  0
  9 27  2  0  0  0
 10 11  2  0  0  0
 10 15  1  0  0  0
 11 12  1  0  0  0
 11 89  1  0  0  0
 12 13  2  0  0  0
 12 90  1  0  0  0
 13 14  1  0  0  0
 13 31  1  0  0  0
 14 15  2  0  0  0
 14 91  1  0  0  0
 15 92  1  0  0  0
 16 17  2  0  0  0
 16 21  1  0  0  0
 16 31  1  0  0  0
 17 18  1  0  0  0
 17 93  1  0  0  0
 18 19  2  0  0  0
 18 94  1  0  0  0
 19 20  1  0  0  0
 19 24  1  0  0  0
 20 21  2  0  0  0
 20 95  1  0  0  0
 21 23  1  0  0  0
 22 28  1  0  0  0
 22 32  2  0  0  0
 26 27  1  0  0  0
 28 96  1  0  0  0
 28 97  1  0  0  0
 29 98  1  0  0  0
 29 99  1  0  0  0
 33 34  1  0  0  0
 33 66  1  0  0  0
 33 70  2  0  0  0
 34 36  1  0  0  0
 34 59  1  0  0  0
 34100  1  0  0  0
 35 44  2  0  0  0
 35 45  1  0  0  0
 35 68  1  0  0  0
 36 56  1  0  0  0
 36101  1  0  0  0
 37 39  1  0  0  0
 37 47  1  0  0  0
 37 66  1  0  0  0
 37102  1  0  0  0
 38 43  2  0  0  0
 38 46  1  0  0  0
 38 47  1  0  0  0
 39 64  1  0  0  0
 39 67  2  0  0  0
 40 52  1  0  0  0
 40 53  2  0  0  0
 40 58  1  0  0  0
 41103  1  0  0  0
 41104  1  0  0  0
 41105  1  0  0  0
 41 48  1  0  0  0
 42 43  1  0  0  0
 42 66  1  0  0  0
 42106  1  0  0  0
 42107  1  0  0  0
 43 44  1  0  0  0
 44108  1  0  0  0
 45 46  2  0  0  0
 45109  1  0  0  0
 46110  1  0  0  0
 47111  1  0  0  0
 47112  1  0  0  0
 48 56  1  0  0  0
 48 65  1  0  0  0
 48113  1  0  0  0
 49 50  1  0  0  0
 49 53  1  0  0  0
 49 64  1  0  0  0
 49114  1  0  0  0
 50 51  1  0  0  0
 50115  1  0  0  0
 50116  1  0  0  0
 51 52  1  0  0  0
 51117  1  0  0  0
 51118  1  0  0  0
 52119  1  0  0  0
 52120  1  0  0  0
 53 54  1  0  0  0
 54 55  2  0  0  0
 54121  1  0  0  0
 55 57  1  0  0  0
 55122  1  0  0  0
 56 69  2  0  0  0
 57 58  2  0  0  0
 57123  1  0  0  0
 58124  1  0  0  0
 59 60  1  0  0  0
 59 61  1  0  0  0
 59 62  1  0  0  0
 60125  1  0  0  0
 60126  1  0  0  0
 60127  1  0  0  0
 61128  1  0  0  0
 61129  1  0  0  0
 61130  1  0  0  0
 62131  1  0  0  0
 62132  1  0  0  0
 62133  1  0  0  0
 63 65  1  0  0  0
 63134  1  0  0  0
 63135  1  0  0  0
 63136  1  0  0  0
 64137  1  0  0  0
 65138  1  0  0  0
 68 73  1  0  0  0
 71 73  2  0  0  0
 71 79  1  0  0  0
 71139  1  0  0  0
 72 78  2  0  0  0
 72 79  1  0  0  0
 72140  1  0  0  0
 73 78  1  0  0  0
 74141  1  0  0  0
 74142  1  0  0  0
 74143  1  0  0  0
 74 77  1  0  0  0
 75 77  1  0  0  0
 75144  1  0  0  0
 75145  1  0  0  0
 75146  1  0  0  0
 76 77  1  0  0  0
 76 79  1  0  0  0
 76147  1  0  0  0
 76148  1  0  0  0
M  ISO  4   1 100  68 101  73 101  77 100
M  END
> <chiral flag>
0

> <version>
0

> <s_m_source_file>
/data/baiqing/PycharmProjects/Reinvent-master-3.2/result/LINK_invent/BTK/process_docking_weight1_custom_sum_contain_oxygen_bond_distance_aromatic_linkinvent_7_9_3/rearranged_h_0057.sdf

> <i_m_source_file_index>
9

> <r_mmod_Potential_Energy-OPLS-2005>
2809.64331054688

> <r_mmod_Stretch_Energy-OPLS-2005>
1219.44421386719

> <r_mmod_Bend_Energy-OPLS-2005>
710.215087890625

> <r_mmod_Torsional_Energy-OPLS-2005>
211.443283081055

> <r_mmod_Improper_Torsional_Energy-OPLS-2005>
2.41525483131409

> <r_mmod_Van_der_Waal_Energy-OPLS-2005>
103.027313232422

> <r_mmod_Electrostatic_Energy-OPLS-2005>
-302.603790283203

> <r_mmod_Solvation_Energy-OPLS-2005>
-208.674453735352

> <b_mmod_Minimization_Converged-OPLS-2005>
0

> <r_mmod_RMS_Derivative-OPLS-2005>
1.89546251296997

$$$$
9
                    3D
 Structure written by MMmdl.
162170  0  0  1  0            999 V2000
  -30.5137  -15.0560   20.4270 C   0  0  0  0  0  0
  -30.4491  -12.6797   19.4727 C   0  0  0  0  0  0
  -29.5116  -12.5572   18.2467 C   0  0  0  0  0  0
  -28.0491  -12.3217   18.6743 C   0  0  0  0  0  0
  -27.6275  -13.2406   19.8498 C   0  0  2  0  0  0
  -28.6942  -13.2275   20.9664 C   0  0  0  0  0  0
  -25.2396  -13.8147   20.5731 C   0  0  0  0  0  0
  -24.1730  -13.0376   20.9246 C   0  0  0  0  0  0
  -24.6373  -11.6875   20.8801 C   0  0  0  0  0  0
  -23.9070  -10.4254   21.0428 C   0  0  0  0  0  0
  -24.3620   -9.4167   21.9198 C   0  0  0  0  0  0
  -23.6292   -8.2209   22.0758 C   0  0  0  0  0  0
  -22.4277   -8.0260   21.3544 C   0  0  0  0  0  0
  -21.9914   -9.0236   20.4643 C   0  0  0  0  0  0
  -22.7252  -10.2110   20.3062 C   0  0  0  0  0  0
  -21.6843   -6.0735   22.5287 C   0  0  0  0  0  0
  -21.4004   -6.5641   23.8220 C   0  0  0  0  0  0
  -21.3658   -5.6794   24.9180 C   0  0  0  0  0  0
  -21.6049   -4.3059   24.7226 C   0  0  0  0  0  0
  -21.8820   -3.8153   23.4346 C   0  0  0  0  0  0
  -21.9183   -4.6967   22.3402 C   0  0  0  0  0  0
  -22.7751  -13.5159   21.1892 C   0  0  0  0  0  0
  -22.1653   -4.2158   21.0977 F   0  0  0  0  0  0
  -21.5632   -3.4535   25.7732 F   0  0  0  0  0  0
  -29.9221  -13.7730   20.3562 N   0  0  0  0  0  0
  -26.2876  -12.9394   20.3374 N   0  0  0  0  0  0
  -25.9315  -11.6526   20.5829 N   0  0  0  0  0  0
  -22.0408  -12.8157   22.0458 N   0  0  0  0  0  0
  -25.3911  -15.1868   20.4077 N   0  0  0  0  0  0
  -31.7258  -15.0663   20.1713 O   0  0  0  0  0  0
  -21.6634   -6.8871   21.4246 O   0  0  0  0  0  0
  -22.3436  -14.5472   20.6744 O   0  0  0  0  0  0
  -24.6471  -31.8399   23.1832 C   0  0  0  0  0  0
  -25.9230  -32.4666   23.8236 C   0  0  1  0  0  0
  -27.2231  -27.0962   20.1515 C   0  0  0  0  0  0
  -25.5971  -33.8477   24.2159 N   0  0  0  0  0  0
  -23.4530  -30.4561   21.5303 C   0  0  2  0  0  0
  -24.9029  -28.8714   20.1138 C   0  0  0  0  0  0
  -22.7587  -29.4524   22.4855 C   0  0  0  0  0  0
  -18.0310  -28.1390   22.8474 C   0  0  0  0  0  0
  -24.1498  -36.7241   23.2641 C   0  0  0  0  0  0
  -26.0116  -30.6996   21.3879 C   0  0  0  0  0  0
  -26.0825  -29.3062   20.7300 C   0  0  0  0  0  0
  -27.2424  -28.4364   20.7270 C   0  0  0  0  0  0
  -26.0127  -26.7690   19.5021 C   0  0  0  0  0  0
  -24.8822  -27.6169   19.4851 C   0  0  0  0  0  0
  -23.6817  -29.7790   20.1526 C   0  0  0  0  0  0
  -25.4133  -36.3015   24.0309 C   0  0  1  0  0  0
  -20.5923  -28.3721   23.1230 C   0  0  2  0  0  0
  -20.6797  -26.9423   22.5400 C   0  0  0  0  0  0
  -19.5768  -26.6377   21.5215 C   0  0  0  0  0  0
  -18.1952  -26.7927   22.1625 C   0  0  0  0  0  0
  -19.1567  -28.8876   23.2840 C   0  0  0  0  0  0
  -18.9483  -30.1477   23.8857 C   0  0  0  0  0  0
  -17.6478  -30.6586   24.0561 C   0  0  0  0  0  0
  -25.9087  -34.9392   23.5044 C   0  0  0  0  0  0
  -16.5369  -29.9077   23.6340 C   0  0  0  0  0  0
  -16.7295  -28.6499   23.0351 C   0  0  0  0  0  0
  -26.4538  -31.6537   25.0688 C   0  0  0  0  0  0
  -25.3717  -31.3741   26.1378 C   0  0  0  0  0  0
  -27.0416  -30.2927   24.6299 C   0  0  0  0  0  0
  -27.6057  -32.4312   25.7477 C   0  0  0  0  0  0
  -27.5579  -37.1778   24.8465 C   0  0  0  0  0  0
  -21.4276  -29.3041   22.3601 N   0  0  0  0  0  0
  -26.4292  -37.3736   23.9406 N   0  0  0  0  0  0
  -24.7241  -31.0212   22.0888 N   0  0  0  0  0  0
  -23.4211  -28.8090   23.3036 O   0  0  0  0  0  0
  -28.2887  -26.1106   20.1923 O   0  0  0  0  0  0
  -26.5677  -34.8899   22.4625 O   0  0  0  0  0  0
  -23.5581  -32.1300   23.7024 O   0  0  0  0  0  0
  -30.0966  -20.6578   20.3989 C   0  0  0  0  0  0
  -28.0604  -20.9562   19.9435 C   0  0  0  0  0  0
  -29.5907  -19.3197   20.2761 C   0  0  0  0  0  0
  -31.8513  -23.6625   20.8910 C   0  0  0  0  0  0
  -30.1816  -24.9449   18.1101 C   0  0  0  0  0  0
  -28.4051  -16.4452   20.9484 C   0  0  0  0  0  0
  -30.3503  -17.8143   20.2964 C   0  0  0  0  0  0
  -30.3376  -23.8083   21.1580 C   0  0  0  0  0  0
  -29.9075  -23.5173   18.6219 C   0  0  0  0  0  0
  -28.0840  -24.5392   20.1739 C   0  0  0  0  0  0
  -29.3217  -23.3580   20.0579 C   0  0  0  0  0  0
  -28.2435  -19.6013   19.9732 N   0  0  0  0  0  0
  -29.1324  -21.7490   20.1891 N   0  0  0  0  0  0
  -29.7970  -16.3267   20.5207 N   0  0  0  0  0  0
  -31.4650  -12.8814   19.1299 H   0  0  0  0  0  0
  -30.5155  -11.7307   20.0076 H   0  0  0  0  0  0
  -29.8444  -11.7499   17.5923 H   0  0  0  0  0  0
  -29.5694  -13.4731   17.6564 H   0  0  0  0  0  0
  -27.9579  -11.2781   18.9766 H   0  0  0  0  0  0
  -27.3758  -12.4543   17.8259 H   0  0  0  0  0  0
  -27.5869  -14.2441   19.4293 H   0  0  0  0  0  0
  -28.8449  -12.2047   21.3147 H   0  0  0  0  0  0
  -28.3950  -13.7472   21.8698 H   0  0  0  0  0  0
  -25.2753   -9.5652   22.4789 H   0  0  0  0  0  0
  -23.9996   -7.4597   22.7475 H   0  0  0  0  0  0
  -21.0847   -8.8764   19.8940 H   0  0  0  0  0  0
  -22.3716  -10.9660   19.6183 H   0  0  0  0  0  0
  -21.2000   -7.6150   23.9730 H   0  0  0  0  0  0
  -21.1482   -6.0519   25.9086 H   0  0  0  0  0  0
  -22.0601   -2.7615   23.2841 H   0  0  0  0  0  0
  -22.4017  -11.9818   22.4859 H   0  0  0  0  0  0
  -21.1025  -13.1190   22.2671 H   0  0  0  0  0  0
  -24.6165  -15.8308   20.5258 H   0  0  0  0  0  0
  -26.2396  -15.6407   20.1004 H   0  0  0  0  0  0
  -26.7293  -32.5258   23.0958 H   0  0  0  0  0  0
  -25.0106  -33.9585   25.0298 H   0  0  0  0  0  0
  -22.7574  -31.2827   21.3708 H   0  0  0  0  0  0
  -23.3770  -35.9561   23.3280 H   0  0  0  0  0  0
  -24.3582  -36.8900   22.2059 H   0  0  0  0  0  0
  -23.7243  -37.6425   23.6698 H   0  0  0  0  0  0
  -26.1729  -31.4534   20.6158 H   0  0  0  0  0  0
  -26.8786  -30.7497   22.0344 H   0  0  0  0  0  0
  -28.1431  -28.7690   21.2237 H   0  0  0  0  0  0
  -25.9100  -25.8156   19.0084 H   0  0  0  0  0  0
  -23.9816  -27.2787   18.9917 H   0  0  0  0  0  0
  -23.8229  -30.5499   19.3943 H   0  0  0  0  0  0
  -22.7954  -29.2229   19.8418 H   0  0  0  0  0  0
  -25.1325  -36.1834   25.0801 H   0  0  0  0  0  0
  -21.0011  -28.3314   24.1355 H   0  0  0  0  0  0
  -20.5703  -26.2341   23.3627 H   0  0  0  0  0  0
  -21.6665  -26.7438   22.1197 H   0  0  0  0  0  0
  -19.6938  -25.6285   21.1260 H   0  0  0  0  0  0
  -19.6698  -27.3179   20.6738 H   0  0  0  0  0  0
  -17.4226  -26.6673   21.4023 H   0  0  0  0  0  0
  -18.0346  -26.0069   22.9020 H   0  0  0  0  0  0
  -19.7961  -30.7312   24.2194 H   0  0  0  0  0  0
  -17.5029  -31.6259   24.5176 H   0  0  0  0  0  0
  -15.5367  -30.2965   23.7681 H   0  0  0  0  0  0
  -15.8698  -28.0813   22.7065 H   0  0  0  0  0  0
  -24.5897  -30.7089   25.7697 H   0  0  0  0  0  0
  -24.8908  -32.2930   26.4741 H   0  0  0  0  0  0
  -25.7992  -30.8950   27.0196 H   0  0  0  0  0  0
  -26.3046  -29.6624   24.1313 H   0  0  0  0  0  0
  -27.4025  -29.7247   25.4882 H   0  0  0  0  0  0
  -27.8950  -30.4145   23.9628 H   0  0  0  0  0  0
  -27.2644  -33.3638   26.1978 H   0  0  0  0  0  0
  -28.3907  -32.6828   25.0335 H   0  0  0  0  0  0
  -28.0682  -31.8490   26.5457 H   0  0  0  0  0  0
  -28.2585  -38.0086   24.7526 H   0  0  0  0  0  0
  -28.1090  -36.2618   24.6284 H   0  0  0  0  0  0
  -27.2299  -37.1410   25.8868 H   0  0  0  0  0  0
  -20.9503  -29.8736   21.6752 H   0  0  0  0  0  0
  -26.0152  -38.2803   24.1405 H   0  0  0  0  0  0
  -31.1278  -20.9008   20.5874 H   0  0  0  0  0  0
  -27.1016  -21.3861   19.6883 H   0  0  0  0  0  0
  -32.4162  -23.9123   21.7897 H   0  0  0  0  0  0
  -32.1896  -24.3427   20.1106 H   0  0  0  0  0  0
  -32.1541  -22.6651   20.5936 H   0  0  0  0  0  0
  -30.7319  -24.9120   17.1696 H   0  0  0  0  0  0
  -30.7658  -25.5373   18.8128 H   0  0  0  0  0  0
  -29.2565  -25.4840   17.9079 H   0  0  0  0  0  0
  -28.0677  -15.6957   21.6476 H   0  0  0  0  0  0
  -27.7591  -16.4581   20.0730 H   0  0  0  0  0  0
  -28.2393  -17.3761   21.4884 H   0  0  0  0  0  0
  -31.1519  -17.8921   21.0312 H   0  0  0  0  0  0
  -30.8909  -17.7407   19.3520 H   0  0  0  0  0  0
  -30.1865  -24.8655   21.3791 H   0  0  0  0  0  0
  -30.0878  -23.3001   22.0896 H   0  0  0  0  0  0
  -30.8254  -22.9359   18.5336 H   0  0  0  0  0  0
  -29.2193  -23.0503   17.9160 H   0  0  0  0  0  0
  -27.5297  -24.3181   21.0864 H   0  0  0  0  0  0
  -27.3885  -24.3121   19.3680 H   0  0  0  0  0  0
  1 25  1  0  0  0
  1 30  2  0  0  0
  1 84  1  0  0  0
  2  3  1  0  0  0
  2 25  1  0  0  0
  2 85  1  0  0  0
  2 86  1  0  0  0
  3  4  1  0  0  0
  3 87  1  0  0  0
  3 88  1  0  0  0
  4  5  1  0  0  0
  4 89  1  0  0  0
  4 90  1  0  0  0
  5  6  1  0  0  0
  5 26  1  0  0  0
  5 91  1  0  0  0
  6 25  1  0  0  0
  6 92  1  0  0  0
  6 93  1  0  0  0
  7  8  2  0  0  0
  7 26  1  0  0  0
  7 29  1  0  0  0
  8  9  1  0  0  0
  8 22  1  0  0  0
  9 10  1  0  0  0
  9 27  2  0  0  0
 10 11  2  0  0  0
 10 15  1  0  0  0
 11 12  1  0  0  0
 11 94  1  0  0  0
 12 13  2  0  0  0
 12 95  1  0  0  0
 13 14  1  0  0  0
 13 31  1  0  0  0
 14 15  2  0  0  0
 14 96  1  0  0  0
 15 97  1  0  0  0
 16 17  2  0  0  0
 16 21  1  0  0  0
 16 31  1  0  0  0
 17 18  1  0  0  0
 17 98  1  0  0  0
 18 19  2  0  0  0
 18 99  1  0  0  0
 19 20  1  0  0  0
 19 24  1  0  0  0
 20 21  2  0  0  0
 20100  1  0  0  0
 21 23  1  0  0  0
 22 28  1  0  0  0
 22 32  2  0  0  0
 26 27  1  0  0  0
 28101  1  0  0  0
 28102  1  0  0  0
 29103  1  0  0  0
 29104  1  0  0  0
 33 34  1  0  0  0
 33 66  1  0  0  0
 33 70  2  0  0  0
 34 36  1  0  0  0
 34 59  1  0  0  0
 34105  1  0  0  0
 35 44  2  0  0  0
 35 45  1  0  0  0
 35 68  1  0  0  0
 36 56  1  0  0  0
 36106  1  0  0  0
 37 39  1  0  0  0
 37 47  1  0  0  0
 37 66  1  0  0  0
 37107  1  0  0  0
 38 43  2  0  0  0
 38 46  1  0  0  0
 38 47  1  0  0  0
 39 64  1  0  0  0
 39 67  2  0  0  0
 40 52  1  0  0  0
 40 53  2  0  0  0
 40 58  1  0  0  0
 41108  1  0  0  0
 41109  1  0  0  0
 41110  1  0  0  0
 41 48  1  0  0  0
 42 43  1  0  0  0
 42 66  1  0  0  0
 42111  1  0  0  0
 42112  1  0  0  0
 43 44  1  0  0  0
 44113  1  0  0  0
 45 46  2  0  0  0
 45114  1  0  0  0
 46115  1  0  0  0
 47116  1  0  0  0
 47117  1  0  0  0
 48 56  1  0  0  0
 48 65  1  0  0  0
 48118  1  0  0  0
 49 50  1  0  0  0
 49 53  1  0  0  0
 49 64  1  0  0  0
 49119  1  0  0  0
 50 51  1  0  0  0
 50120  1  0  0  0
 50121  1  0  0  0
 51 52  1  0  0  0
 51122  1  0  0  0
 51123  1  0  0  0
 52124  1  0  0  0
 52125  1  0  0  0
 53 54  1  0  0  0
 54 55  2  0  0  0
 54126  1  0  0  0
 55 57  1  0  0  0
 55127  1  0  0  0
 56 69  2  0  0  0
 57 58  2  0  0  0
 57128  1  0  0  0
 58129  1  0  0  0
 59 60  1  0  0  0
 59 61  1  0  0  0
 59 62  1  0  0  0
 60130  1  0  0  0
 60131  1  0  0  0
 60132  1  0  0  0
 61133  1  0  0  0
 61134  1  0  0  0
 61135  1  0  0  0
 62136  1  0  0  0
 62137  1  0  0  0
 62138  1  0  0  0
 63 65  1  0  0  0
 63139  1  0  0  0
 63140  1  0  0  0
 63141  1  0  0  0
 64142  1  0  0  0
 65143  1  0  0  0
 68 80  1  0  0  0
 71 73  2  0  0  0
 71 83  1  0  0  0
 71144  1  0  0  0
 72 82  2  0  0  0
 72 83  1  0  0  0
 72145  1  0  0  0
 73 77  1  0  0  0
 73 82  1  0  0  0
 74 78  1  0  0  0
 74146  1  0  0  0
 74147  1  0  0  0
 74148  1  0  0  0
 75 79  1  0  0  0
 75149  1  0  0  0
 75150  1  0  0  0
 75151  1  0  0  0
 76 84  1  0  0  0
 76152  1  0  0  0
 76153  1  0  0  0
 76154  1  0  0  0
 77 84  1  0  0  0
 77155  1  0  0  0
 77156  1  0  0  0
 78157  1  0  0  0
 78158  1  0  0  0
 78 81  1  0  0  0
 79 81  1  0  0  0
 79159  1  0  0  0
 79160  1  0  0  0
 80 81  1  0  0  0
 80161  1  0  0  0
 80162  1  0  0  0
 81 83  1  0  0  0
M  ISO  4   1 100  68 101  80 101  84 100
M  END
> <chiral flag>
0

> <version>
0

> <s_m_source_file>
/data/baiqing/PycharmProjects/Reinvent-master-3.2/result/LINK_invent/BTK/process_docking_weight1_custom_sum_contain_oxygen_bond_distance_aromatic_linkinvent_7_9_3/rearranged_h_0057.sdf

> <i_m_source_file_index>
10

> <r_mmod_Potential_Energy-OPLS-2005>
815.142395019531

> <r_mmod_Stretch_Energy-OPLS-2005>
341.304107666016

> <r_mmod_Bend_Energy-OPLS-2005>
337.220581054688

> <r_mmod_Torsional_Energy-OPLS-2005>
303.373748779297

> <r_mmod_Improper_Torsional_Energy-OPLS-2005>
7.12746953964233

> <r_mmod_Van_der_Waal_Energy-OPLS-2005>
126.9267578125

> <r_mmod_Electrostatic_Energy-OPLS-2005>
-327.912963867188

> <r_mmod_Solvation_Energy-OPLS-2005>
-211.176574707031

> <b_mmod_Minimization_Converged-OPLS-2005>
0

> <r_mmod_RMS_Derivative-OPLS-2005>
1.2302234172821

$$$$
10
                    3D
 Structure written by MMmdl.
155163  0  0  1  0            999 V2000
  -30.5994  -14.8618   20.3125 C   0  0  0  0  0  0
  -30.4357  -12.5089   19.4665 C   0  0  0  0  0  0
  -29.5101  -12.4370   18.2356 C   0  0  0  0  0  0
  -28.0316  -12.2865   18.6607 C   0  0  0  0  0  0
  -27.6169  -13.2125   19.8380 C   0  0  2  0  0  0
  -28.6863  -13.2743   20.9473 C   0  0  0  0  0  0
  -25.2453  -13.8096   20.5816 C   0  0  0  0  0  0
  -24.1724  -13.0380   20.9260 C   0  0  0  0  0  0
  -24.6305  -11.6849   20.8793 C   0  0  0  0  0  0
  -23.8988  -10.4251   21.0446 C   0  0  0  0  0  0
  -24.3570   -9.4157   21.9198 C   0  0  0  0  0  0
  -23.6263   -8.2194   22.0744 C   0  0  0  0  0  0
  -22.4243   -8.0257   21.3530 C   0  0  0  0  0  0
  -21.9860   -9.0234   20.4629 C   0  0  0  0  0  0
  -22.7182  -10.2115   20.3057 C   0  0  0  0  0  0
  -21.6837   -6.0710   22.5273 C   0  0  0  0  0  0
  -21.4028   -6.5621   23.8210 C   0  0  0  0  0  0
  -21.3655   -5.6776   24.9171 C   0  0  0  0  0  0
  -21.6042   -4.3040   24.7226 C   0  0  0  0  0  0
  -21.8819   -3.8128   23.4349 C   0  0  0  0  0  0
  -21.9188   -4.6943   22.3404 C   0  0  0  0  0  0
  -22.7757  -13.5200   21.1886 C   0  0  0  0  0  0
  -22.1641   -4.2139   21.0985 F   0  0  0  0  0  0
  -21.5616   -3.4519   25.7731 F   0  0  0  0  0  0
  -29.9593  -13.6319   20.3031 N   0  0  0  0  0  0
  -26.2837  -12.9238   20.3385 N   0  0  0  0  0  0
  -25.9222  -11.6414   20.5804 N   0  0  0  0  0  0
  -22.0364  -12.8233   22.0440 N   0  0  0  0  0  0
  -25.4206  -15.1831   20.4292 N   0  0  0  0  0  0
  -31.8317  -14.8785   20.2633 O   0  0  0  0  0  0
  -21.6608   -6.8857   21.4239 O   0  0  0  0  0  0
  -22.3490  -14.5529   20.6730 O   0  0  0  0  0  0
  -24.6293  -31.8514   23.1899 C   0  0  0  0  0  0
  -25.9101  -32.4736   23.8263 C   0  0  1  0  0  0
  -27.2363  -27.2491   20.1310 C   0  0  0  0  0  0
  -25.5867  -33.8541   24.2200 N   0  0  0  0  0  0
  -23.4289  -30.4637   21.5364 C   0  0  2  0  0  0
  -24.8807  -28.9006   20.1061 C   0  0  0  0  0  0
  -22.7496  -29.4546   22.4948 C   0  0  0  0  0  0
  -18.0265  -28.1390   22.8494 C   0  0  0  0  0  0
  -24.1470  -36.7276   23.2645 C   0  0  0  0  0  0
  -25.9695  -30.7605   21.3667 C   0  0  0  0  0  0
  -26.0460  -29.3775   20.7178 C   0  0  0  0  0  0
  -27.2191  -28.5576   20.7253 C   0  0  0  0  0  0
  -26.0519  -26.8385   19.4858 C   0  0  0  0  0  0
  -24.8894  -27.6440   19.4744 C   0  0  0  0  0  0
  -23.6422  -29.7778   20.1592 C   0  0  0  0  0  0
  -25.4101  -36.3061   24.0322 C   0  0  1  0  0  0
  -20.5872  -28.3689   23.1284 C   0  0  2  0  0  0
  -20.6749  -26.9408   22.5429 C   0  0  0  0  0  0
  -19.5721  -26.6379   21.5222 C   0  0  0  0  0  0
  -18.1910  -26.7931   22.1642 C   0  0  0  0  0  0
  -19.1524  -28.8858   23.2871 C   0  0  0  0  0  0
  -18.9454  -30.1465   23.8886 C   0  0  0  0  0  0
  -17.6454  -30.6599   24.0556 C   0  0  0  0  0  0
  -25.9054  -34.9436   23.5094 C   0  0  0  0  0  0
  -16.5340  -29.9104   23.6338 C   0  0  0  0  0  0
  -16.7250  -28.6514   23.0371 C   0  0  0  0  0  0
  -26.4476  -31.6572   25.0661 C   0  0  0  0  0  0
  -25.3692  -31.3746   26.1390 C   0  0  0  0  0  0
  -27.0322  -30.2981   24.6152 C   0  0  0  0  0  0
  -27.6020  -32.4317   25.7438 C   0  0  0  0  0  0
  -27.5557  -37.1779   24.8462 C   0  0  0  0  0  0
  -21.4200  -29.3021   22.3686 N   0  0  0  0  0  0
  -26.4264  -37.3777   23.9425 N   0  0  0  0  0  0
  -24.6960  -31.0432   22.0885 N   0  0  0  0  0  0
  -23.4186  -28.8100   23.3069 O   0  0  0  0  0  0
  -28.3503  -26.3836   20.2531 O   0  0  0  0  0  0
  -26.5666  -34.8925   22.4690 O   0  0  0  0  0  0
  -23.5432  -32.1335   23.7193 O   0  0  0  0  0  0
  -30.4383  -19.5928   19.2395 C   0  0  0  0  0  0
  -29.8087  -18.8947   20.3192 C   0  0  0  0  0  0
  -29.7187  -16.9503   17.6911 C   0  0  0  0  0  0
  -30.0882  -17.3989   20.8542 C   0  0  0  0  0  0
  -28.0899  -23.5580   19.9374 C   0  0  0  0  0  0
  -28.9713  -22.4733   20.7744 C   0  0  0  0  0  0
  -29.0678  -16.1906   18.8635 C   0  0  0  0  0  0
  -28.5468  -25.0771   19.5350 C   0  0  0  0  0  0
  -30.1115  -20.8741   19.1866 N   0  0  0  0  0  0
  -29.1073  -19.8515   20.9546 N   0  0  0  0  0  0
  -29.2955  -21.0604   20.2545 N   0  0  0  0  0  0
  -29.8732  -16.0611   20.1010 N   0  0  0  0  0  0
  -31.4736  -12.6401   19.1531 H   0  0  0  0  0  0
  -30.4092  -11.5775   20.0352 H   0  0  0  0  0  0
  -29.7978  -11.5907   17.6097 H   0  0  0  0  0  0
  -29.6467  -13.3178   17.6084 H   0  0  0  0  0  0
  -27.8892  -11.2471   18.9615 H   0  0  0  0  0  0
  -27.3760  -12.4470   17.8033 H   0  0  0  0  0  0
  -27.5153  -14.1995   19.4176 H   0  0  0  0  0  0
  -28.7662  -12.3192   21.4686 H   0  0  0  0  0  0
  -28.4169  -14.0218   21.6963 H   0  0  0  0  0  0
  -25.2709   -9.5624   22.4793 H   0  0  0  0  0  0
  -23.9946   -7.4573   22.7471 H   0  0  0  0  0  0
  -21.0757   -8.8773   19.8962 H   0  0  0  0  0  0
  -22.3634  -10.9674   19.6185 H   0  0  0  0  0  0
  -21.2042   -7.6129   23.9706 H   0  0  0  0  0  0
  -21.1460   -6.0498   25.9065 H   0  0  0  0  0  0
  -22.0606   -2.7588   23.2846 H   0  0  0  0  0  0
  -22.3943  -11.9925   22.4920 H   0  0  0  0  0  0
  -21.0997  -13.1336   22.2658 H   0  0  0  0  0  0
  -24.6676  -15.8499   20.5553 H   0  0  0  0  0  0
  -26.2891  -15.6185   20.1515 H   0  0  0  0  0  0
  -26.7163  -32.5378   23.0990 H   0  0  0  0  0  0
  -24.9887  -33.9660   25.0257 H   0  0  0  0  0  0
  -22.7229  -31.2828   21.3826 H   0  0  0  0  0  0
  -23.3728  -35.9601   23.3312 H   0  0  0  0  0  0
  -24.3551  -36.8910   22.2054 H   0  0  0  0  0  0
  -23.7212  -37.6473   23.6684 H   0  0  0  0  0  0
  -26.0906  -31.5102   20.5835 H   0  0  0  0  0  0
  -26.8548  -30.8301   21.9894 H   0  0  0  0  0  0
  -28.1080  -28.9114   21.2267 H   0  0  0  0  0  0
  -25.9953  -25.8643   19.0209 H   0  0  0  0  0  0
  -23.9945  -27.2744   18.9938 H   0  0  0  0  0  0
  -23.7419  -30.5400   19.3856 H   0  0  0  0  0  0
  -22.7692  -29.1874   19.8768 H   0  0  0  0  0  0
  -25.1278  -36.1908   25.0803 H   0  0  0  0  0  0
  -20.9940  -28.3278   24.1414 H   0  0  0  0  0  0
  -20.5648  -26.2303   23.3633 H   0  0  0  0  0  0
  -21.6613  -26.7438   22.1217 H   0  0  0  0  0  0
  -19.6894  -25.6295   21.1241 H   0  0  0  0  0  0
  -19.6649  -27.3203   20.6761 H   0  0  0  0  0  0
  -17.4166  -26.6657   21.4051 H   0  0  0  0  0  0
  -18.0311  -26.0070   22.9040 H   0  0  0  0  0  0
  -19.7941  -30.7271   24.2254 H   0  0  0  0  0  0
  -17.5025  -31.6282   24.5163 H   0  0  0  0  0  0
  -15.5355  -30.3005   23.7683 H   0  0  0  0  0  0
  -15.8639  -28.0826   22.7125 H   0  0  0  0  0  0
  -24.5863  -30.7093   25.7725 H   0  0  0  0  0  0
  -24.8869  -32.2920   26.4757 H   0  0  0  0  0  0
  -25.7982  -30.8955   27.0199 H   0  0  0  0  0  0
  -26.2914  -29.6732   24.1137 H   0  0  0  0  0  0
  -27.3972  -29.7228   25.4675 H   0  0  0  0  0  0
  -27.8800  -30.4243   23.9410 H   0  0  0  0  0  0
  -27.2630  -33.3640   26.1962 H   0  0  0  0  0  0
  -28.3855  -32.6843   25.0280 H   0  0  0  0  0  0
  -28.0667  -31.8474   26.5392 H   0  0  0  0  0  0
  -28.2583  -38.0075   24.7526 H   0  0  0  0  0  0
  -28.1044  -36.2602   24.6265 H   0  0  0  0  0  0
  -27.2279  -37.1422   25.8869 H   0  0  0  0  0  0
  -20.9420  -29.8707   21.6832 H   0  0  0  0  0  0
  -26.0135  -38.2835   24.1468 H   0  0  0  0  0  0
  -31.1590  -19.1988   18.5359 H   0  0  0  0  0  0
  -29.3150  -17.9588   17.5998 H   0  0  0  0  0  0
  -29.4845  -16.4626   16.7425 H   0  0  0  0  0  0
  -30.8054  -17.0031   17.7676 H   0  0  0  0  0  0
  -31.1389  -17.3808   21.1516 H   0  0  0  0  0  0
  -29.5536  -17.2796   21.7965 H   0  0  0  0  0  0
  -27.0967  -23.6130   20.3831 H   0  0  0  0  0  0
  -27.9153  -23.0603   18.9823 H   0  0  0  0  0  0
  -28.4709  -22.3352   21.7328 H   0  0  0  0  0  0
  -29.9218  -22.9364   21.0290 H   0  0  0  0  0  0
  -28.0720  -16.5793   19.0876 H   0  0  0  0  0  0
  -28.9156  -15.2128   18.4273 H   0  0  0  0  0  0
  -28.1524  -25.2511   18.5326 H   0  0  0  0  0  0
  -29.6234  -25.0263   19.3690 H   0  0  0  0  0  0
  1 25  1  0  0  0
  1 30  2  0  0  0
  1 82  1  0  0  0
  2  3  1  0  0  0
  2 25  1  0  0  0
  2 83  1  0  0  0
  2 84  1  0  0  0
  3  4  1  0  0  0
  3 85  1  0  0  0
  3 86  1  0  0  0
  4  5  1  0  0  0
  4 87  1  0  0  0
  4 88  1  0  0  0
  5  6  1  0  0  0
  5 26  1  0  0  0
  5 89  1  0  0  0
  6 25  1  0  0  0
  6 90  1  0  0  0
  6 91  1  0  0  0
  7  8  2  0  0  0
  7 26  1  0  0  0
  7 29  1  0  0  0
  8  9  1  0  0  0
  8 22  1  0  0  0
  9 10  1  0  0  0
  9 27  2  0  0  0
 10 11  2  0  0  0
 10 15  1  0  0  0
 11 12  1  0  0  0
 11 92  1  0  0  0
 12 13  2  0  0  0
 12 93  1  0  0  0
 13 14  1  0  0  0
 13 31  1  0  0  0
 14 15  2  0  0  0
 14 94  1  0  0  0
 15 95  1  0  0  0
 16 17  2  0  0  0
 16 21  1  0  0  0
 16 31  1  0  0  0
 17 18  1  0  0  0
 17 96  1  0  0  0
 18 19  2  0  0  0
 18 97  1  0  0  0
 19 20  1  0  0  0
 19 24  1  0  0  0
 20 21  2  0  0  0
 20 98  1  0  0  0
 21 23  1  0  0  0
 22 28  1  0  0  0
 22 32  2  0  0  0
 26 27  1  0  0  0
 28 99  1  0  0  0
 28100  1  0  0  0
 29101  1  0  0  0
 29102  1  0  0  0
 33 34  1  0  0  0
 33 66  1  0  0  0
 33 70  2  0  0  0
 34 36  1  0  0  0
 34 59  1  0  0  0
 34103  1  0  0  0
 35 44  2  0  0  0
 35 45  1  0  0  0
 35 68  1  0  0  0
 36 56  1  0  0  0
 36104  1  0  0  0
 37 39  1  0  0  0
 37 47  1  0  0  0
 37 66  1  0  0  0
 37105  1  0  0  0
 38 43  2  0  0  0
 38 46  1  0  0  0
 38 47  1  0  0  0
 39 64  1  0  0  0
 39 67  2  0  0  0
 40 52  1  0  0  0
 40 53  2  0  0  0
 40 58  1  0  0  0
 41106  1  0  0  0
 41107  1  0  0  0
 41108  1  0  0  0
 41 48  1  0  0  0
 42 43  1  0  0  0
 42 66  1  0  0  0
 42109  1  0  0  0
 42110  1  0  0  0
 43 44  1  0  0  0
 44111  1  0  0  0
 45 46  2  0  0  0
 45112  1  0  0  0
 46113  1  0  0  0
 47114  1  0  0  0
 47115  1  0  0  0
 48 56  1  0  0  0
 48 65  1  0  0  0
 48116  1  0  0  0
 49 50  1  0  0  0
 49 53  1  0  0  0
 49 64  1  0  0  0
 49117  1  0  0  0
 50 51  1  0  0  0
 50118  1  0  0  0
 50119  1  0  0  0
 51 52  1  0  0  0
 51120  1  0  0  0
 51121  1  0  0  0
 52122  1  0  0  0
 52123  1  0  0  0
 53 54  1  0  0  0
 54 55  2  0  0  0
 54124  1  0  0  0
 55 57  1  0  0  0
 55125  1  0  0  0
 56 69  2  0  0  0
 57 58  2  0  0  0
 57126  1  0  0  0
 58127  1  0  0  0
 59 60  1  0  0  0
 59 61  1  0  0  0
 59 62  1  0  0  0
 60128  1  0  0  0
 60129  1  0  0  0
 60130  1  0  0  0
 61131  1  0  0  0
 61132  1  0  0  0
 61133  1  0  0  0
 62134  1  0  0  0
 62135  1  0  0  0
 62136  1  0  0  0
 63 65  1  0  0  0
 63137  1  0  0  0
 63138  1  0  0  0
 63139  1  0  0  0
 64140  1  0  0  0
 65141  1  0  0  0
 68 78  1  0  0  0
 71 72  1  0  0  0
 71 79  2  0  0  0
 71142  1  0  0  0
 72 74  1  0  0  0
 72 80  2  0  0  0
 73 77  1  0  0  0
 73143  1  0  0  0
 73144  1  0  0  0
 73145  1  0  0  0
 74 82  1  0  0  0
 74146  1  0  0  0
 74147  1  0  0  0
 75 76  1  0  0  0
 75 78  1  0  0  0
 75148  1  0  0  0
 75149  1  0  0  0
 76 81  1  0  0  0
 76150  1  0  0  0
 76151  1  0  0  0
 77 82  1  0  0  0
 77152  1  0  0  0
 77153  1  0  0  0
 78154  1  0  0  0
 78155  1  0  0  0
 79 81  1  0  0  0
 80 81  1  0  0  0
M  ISO  4   1 100  68 101  78 101  82 100
M  END
> <chiral flag>
0

> <version>
0

> <s_m_source_file>
/data/baiqing/PycharmProjects/Reinvent-master-3.2/result/LINK_invent/BTK/process_docking_weight1_custom_sum_contain_oxygen_bond_distance_aromatic_linkinvent_7_9_3/rearranged_h_0057.sdf

> <i_m_source_file_index>
11

> <r_mmod_Potential_Energy-OPLS-2005>
460.105621337891

> <r_mmod_Stretch_Energy-OPLS-2005>
151.273162841797

> <r_mmod_Bend_Energy-OPLS-2005>
250.717498779297

> <r_mmod_Torsional_Energy-OPLS-2005>
333.076019287109

> <r_mmod_Improper_Torsional_Energy-OPLS-2005>
10.3607320785522

> <r_mmod_Van_der_Waal_Energy-OPLS-2005>
119.895538330078

> <r_mmod_Electrostatic_Energy-OPLS-2005>
-331.283538818359

> <r_mmod_Solvation_Energy-OPLS-2005>
-208.924499511719

> <b_mmod_Minimization_Converged-OPLS-2005>
0

> <r_mmod_RMS_Derivative-OPLS-2005>
3.70567154884338

$$$$
11
                    3D
 Structure written by MMmdl.
164172  0  0  1  0            999 V2000
  -30.7511  -14.4469   20.6549 C   0  0  0  0  0  0
  -30.4222  -12.3211   19.4210 C   0  0  0  0  0  0
  -29.4969  -12.5264   18.2044 C   0  0  0  0  0  0
  -28.0111  -12.4015   18.5994 C   0  0  0  0  0  0
  -27.6648  -13.2030   19.8804 C   0  0  2  0  0  0
  -28.7044  -12.9117   20.9849 C   0  0  0  0  0  0
  -25.2605  -13.8163   20.5681 C   0  0  0  0  0  0
  -24.1845  -13.0447   20.9165 C   0  0  0  0  0  0
  -24.6388  -11.6914   20.8686 C   0  0  0  0  0  0
  -23.9038  -10.4320   21.0380 C   0  0  0  0  0  0
  -24.3613   -9.4241   21.9151 C   0  0  0  0  0  0
  -23.6313   -8.2268   22.0743 C   0  0  0  0  0  0
  -22.4287   -8.0297   21.3546 C   0  0  0  0  0  0
  -21.9905   -9.0258   20.4646 C   0  0  0  0  0  0
  -22.7208  -10.2145   20.3040 C   0  0  0  0  0  0
  -21.6870   -6.0740   22.5292 C   0  0  0  0  0  0
  -21.4023   -6.5645   23.8227 C   0  0  0  0  0  0
  -21.3662   -5.6792   24.9181 C   0  0  0  0  0  0
  -21.6045   -4.3056   24.7218 C   0  0  0  0  0  0
  -21.8821   -3.8151   23.4336 C   0  0  0  0  0  0
  -21.9209   -4.6975   22.3397 C   0  0  0  0  0  0
  -22.7886  -13.5263   21.1852 C   0  0  0  0  0  0
  -22.1684   -4.2168   21.0975 F   0  0  0  0  0  0
  -21.5625   -3.4537   25.7726 F   0  0  0  0  0  0
  -30.0335  -13.2885   20.4741 N   0  0  0  0  0  0
  -26.3044  -12.9322   20.3362 N   0  0  0  0  0  0
  -25.9300  -11.6471   20.5669 N   0  0  0  0  0  0
  -22.0520  -12.8270   22.0413 N   0  0  0  0  0  0
  -25.4317  -15.1894   20.4137 N   0  0  0  0  0  0
  -31.8110  -14.6130   20.0398 O   0  0  0  0  0  0
  -21.6665   -6.8881   21.4246 O   0  0  0  0  0  0
  -22.3562  -14.5569   20.6693 O   0  0  0  0  0  0
  -24.6133  -31.8700   23.2104 C   0  0  0  0  0  0
  -25.9056  -32.4826   23.8394 C   0  0  1  0  0  0
  -27.2453  -27.4664   20.0856 C   0  0  0  0  0  0
  -25.5940  -33.8624   24.2334 N   0  0  0  0  0  0
  -23.3976  -30.4950   21.5506 C   0  0  2  0  0  0
  -24.8416  -28.9601   20.1140 C   0  0  0  0  0  0
  -22.7415  -29.4686   22.5010 C   0  0  0  0  0  0
  -18.0269  -28.1379   22.8483 C   0  0  0  0  0  0
  -24.1485  -36.7328   23.2636 C   0  0  0  0  0  0
  -25.9240  -30.8387   21.3636 C   0  0  0  0  0  0
  -25.9971  -29.4769   20.7107 C   0  0  0  0  0  0
  -27.1956  -28.7363   20.6950 C   0  0  0  0  0  0
  -26.0637  -26.9483   19.5008 C   0  0  0  0  0  0
  -24.8697  -27.6916   19.5098 C   0  0  0  0  0  0
  -23.6024  -29.8231   20.1644 C   0  0  0  0  0  0
  -25.4101  -36.3109   24.0334 C   0  0  1  0  0  0
  -20.5862  -28.3665   23.1310 C   0  0  2  0  0  0
  -20.6759  -26.9405   22.5420 C   0  0  0  0  0  0
  -19.5731  -26.6386   21.5221 C   0  0  0  0  0  0
  -18.1911  -26.7920   22.1621 C   0  0  0  0  0  0
  -19.1521  -28.8838   23.2885 C   0  0  0  0  0  0
  -18.9457  -30.1447   23.8892 C   0  0  0  0  0  0
  -17.6460  -30.6582   24.0572 C   0  0  0  0  0  0
  -25.9039  -34.9478   23.5114 C   0  0  0  0  0  0
  -16.5352  -29.9093   23.6327 C   0  0  0  0  0  0
  -16.7257  -28.6514   23.0335 C   0  0  0  0  0  0
  -26.4460  -31.6613   25.0744 C   0  0  0  0  0  0
  -25.3736  -31.3773   26.1519 C   0  0  0  0  0  0
  -27.0297  -30.3031   24.6172 C   0  0  0  0  0  0
  -27.6021  -32.4350   25.7509 C   0  0  0  0  0  0
  -27.5569  -37.1822   24.8454 C   0  0  0  0  0  0
  -21.4146  -29.3036   22.3747 N   0  0  0  0  0  0
  -26.4281  -37.3797   23.9399 N   0  0  0  0  0  0
  -24.6634  -31.0838   22.0982 N   0  0  0  0  0  0
  -23.4216  -28.8252   23.3045 O   0  0  0  0  0  0
  -28.4546  -26.8041   20.0843 O   0  0  0  0  0  0
  -26.5618  -34.8923   22.4675 O   0  0  0  0  0  0
  -23.5345  -32.1441   23.7545 O   0  0  0  0  0  0
  -31.6899  -20.1387   21.1546 C   0  0  0  0  0  0
  -30.5948  -18.9165   19.3812 C   0  0  0  0  0  0
  -31.0821  -20.1416   19.8814 C   0  0  0  0  0  0
  -31.7812  -18.9289   21.8683 C   0  0  0  0  0  0
  -31.2667  -17.7469   21.2811 C   0  0  0  0  0  0
  -29.0381  -15.7149   22.0748 C   0  0  0  0  0  0
  -28.6647  -21.9589   19.4829 C   0  0  0  0  0  0
  -31.0402  -21.4107   19.0287 C   0  0  0  0  0  0
  -31.3610  -16.4024   22.0168 C   0  0  0  0  0  0
  -29.9725  -25.0042   19.5263 C   0  0  0  0  0  0
  -30.2324  -23.7194   18.7014 C   0  0  0  0  0  0
  -28.5205  -25.5201   19.4765 C   0  0  0  0  0  0
  -30.6810  -17.7496   20.0566 N   0  0  0  0  0  0
  -30.3867  -15.3668   21.6005 N   0  0  0  0  0  0
  -30.0664  -22.4513   19.4721 N   0  3  1  0  0  0
  -32.5159  -18.9266   23.4330 Cl  0  0  0  0  0  0
  -31.4655  -12.4150   19.1146 H   0  0  0  0  0  0
  -30.3349  -11.2989   19.7893 H   0  0  0  0  0  0
  -29.7322  -11.7956   17.4294 H   0  0  0  0  0  0
  -29.6850  -13.5079   17.7666 H   0  0  0  0  0  0
  -27.7955  -11.3435   18.7571 H   0  0  0  0  0  0
  -27.3765  -12.7205   17.7725 H   0  0  0  0  0  0
  -27.7220  -14.2576   19.6135 H   0  0  0  0  0  0
  -28.6908  -11.8447   21.2115 H   0  0  0  0  0  0
  -28.4305  -13.3552   21.9316 H   0  0  0  0  0  0
  -25.2753   -9.5766   22.4697 H   0  0  0  0  0  0
  -24.0060   -7.4681   22.7476 H   0  0  0  0  0  0
  -21.0826   -8.8749   19.8965 H   0  0  0  0  0  0
  -22.3639  -10.9674   19.6154 H   0  0  0  0  0  0
  -21.2006   -7.6158   23.9740 H   0  0  0  0  0  0
  -21.1488   -6.0509   25.9085 H   0  0  0  0  0  0
  -22.0588   -2.7617   23.2828 H   0  0  0  0  0  0
  -22.4125  -11.9954   22.4854 H   0  0  0  0  0  0
  -21.1145  -13.1324   22.2577 H   0  0  0  0  0  0
  -24.6643  -15.8406   20.5358 H   0  0  0  0  0  0
  -26.2854  -15.6395   20.1071 H   0  0  0  0  0  0
  -26.7143  -32.5518   23.1176 H   0  0  0  0  0  0
  -25.0120  -33.9751   25.0513 H   0  0  0  0  0  0
  -22.6816  -31.3090   21.4161 H   0  0  0  0  0  0
  -23.3735  -35.9672   23.3319 H   0  0  0  0  0  0
  -24.3575  -36.8924   22.2039 H   0  0  0  0  0  0
  -23.7247  -37.6549   23.6635 H   0  0  0  0  0  0
  -26.0506  -31.6058   20.5995 H   0  0  0  0  0  0
  -26.8061  -30.8789   21.9893 H   0  0  0  0  0  0
  -28.0900  -29.1423   21.1454 H   0  0  0  0  0  0
  -26.0419  -25.9773   19.0269 H   0  0  0  0  0  0
  -23.9832  -27.2811   19.0471 H   0  0  0  0  0  0
  -23.7024  -30.5970   19.4030 H   0  0  0  0  0  0
  -22.7252  -29.2420   19.8752 H   0  0  0  0  0  0
  -25.1270  -36.1977   25.0832 H   0  0  0  0  0  0
  -20.9915  -28.3235   24.1440 H   0  0  0  0  0  0
  -20.5672  -26.2286   23.3612 H   0  0  0  0  0  0
  -21.6627  -26.7453   22.1210 H   0  0  0  0  0  0
  -19.6898  -25.6314   21.1215 H   0  0  0  0  0  0
  -19.6658  -27.3221   20.6769 H   0  0  0  0  0  0
  -17.4189  -26.6676   21.4013 H   0  0  0  0  0  0
  -18.0295  -26.0058   22.9002 H   0  0  0  0  0  0
  -19.7948  -30.7258   24.2241 H   0  0  0  0  0  0
  -17.5029  -31.6239   24.5209 H   0  0  0  0  0  0
  -15.5357  -30.2995   23.7642 H   0  0  0  0  0  0
  -15.8658  -28.0839   22.7026 H   0  0  0  0  0  0
  -24.5875  -30.7135   25.7912 H   0  0  0  0  0  0
  -24.8990  -32.2966   26.4958 H   0  0  0  0  0  0
  -25.8101  -30.8974   27.0287 H   0  0  0  0  0  0
  -26.2870  -29.6822   24.1155 H   0  0  0  0  0  0
  -27.3950  -29.7235   25.4666 H   0  0  0  0  0  0
  -27.8748  -30.4321   23.9407 H   0  0  0  0  0  0
  -27.2598  -33.3607   26.2136 H   0  0  0  0  0  0
  -28.3800  -32.6994   25.0346 H   0  0  0  0  0  0
  -28.0735  -31.8489   26.5399 H   0  0  0  0  0  0
  -28.2609  -38.0104   24.7500 H   0  0  0  0  0  0
  -28.1045  -36.2642   24.6277 H   0  0  0  0  0  0
  -27.2301  -37.1475   25.8864 H   0  0  0  0  0  0
  -20.9332  -29.8777   21.6978 H   0  0  0  0  0  0
  -26.0182  -38.2879   24.1400 H   0  0  0  0  0  0
  -32.0978  -21.0490   21.5739 H   0  0  0  0  0  0
  -30.1376  -18.8629   18.4018 H   0  0  0  0  0  0
  -28.9696  -16.7636   22.3630 H   0  0  0  0  0  0
  -28.7812  -15.1509   22.9713 H   0  0  0  0  0  0
  -28.2730  -15.5784   21.3177 H   0  0  0  0  0  0
  -28.5436  -21.1114   20.1575 H   0  0  0  0  0  0
  -28.3489  -21.6503   18.4853 H   0  0  0  0  0  0
  -27.9676  -22.7191   19.8244 H   0  0  0  0  0  0
  -30.8337  -21.1410   17.9903 H   0  0  0  0  0  0
  -32.0484  -21.8284   19.0301 H   0  0  0  0  0  0
  -31.2151  -16.5738   23.0834 H   0  0  0  0  0  0
  -32.3924  -16.0560   21.9404 H   0  0  0  0  0  0
  -30.3248  -24.8925   20.5545 H   0  0  0  0  0  0
  -30.5987  -25.7875   19.0964 H   0  0  0  0  0  0
  -31.2678  -23.7825   18.3626 H   0  0  0  0  0  0
  -29.6401  -23.7042   17.7836 H   0  0  0  0  0  0
  -27.8491  -24.8532   20.0143 H   0  0  0  0  0  0
  -28.1898  -25.5836   18.4396 H   0  0  0  0  0  0
  -30.3077  -22.6792   20.4250 H   0  0  0  0  0  0
  1 25  1  0  0  0
  1 30  2  0  0  0
  1 84  1  0  0  0
  2  3  1  0  0  0
  2 25  1  0  0  0
  2 87  1  0  0  0
  2 88  1  0  0  0
  3  4  1  0  0  0
  3 89  1  0  0  0
  3 90  1  0  0  0
  4  5  1  0  0  0
  4 91  1  0  0  0
  4 92  1  0  0  0
  5  6  1  0  0  0
  5 26  1  0  0  0
  5 93  1  0  0  0
  6 25  1  0  0  0
  6 94  1  0  0  0
  6 95  1  0  0  0
  7  8  2  0  0  0
  7 26  1  0  0  0
  7 29  1  0  0  0
  8  9  1  0  0  0
  8 22  1  0  0  0
  9 10  1  0  0  0
  9 27  2  0  0  0
 10 11  2  0  0  0
 10 15  1  0  0  0
 11 12  1  0  0  0
 11 96  1  0  0  0
 12 13  2  0  0  0
 12 97  1  0  0  0
 13 14  1  0  0  0
 13 31  1  0  0  0
 14 15  2  0  0  0
 14 98  1  0  0  0
 15 99  1  0  0  0
 16 17  2  0  0  0
 16 21  1  0  0  0
 16 31  1  0  0  0
 17 18  1  0  0  0
 17100  1  0  0  0
 18 19  2  0  0  0
 18101  1  0  0  0
 19 20  1  0  0  0
 19 24  1  0  0  0
 20 21  2  0  0  0
 20102  1  0  0  0
 21 23  1  0  0  0
 22 28  1  0  0  0
 22 32  2  0  0  0
 26 27  1  0  0  0
 28103  1  0  0  0
 28104  1  0  0  0
 29105  1  0  0  0
 29106  1  0  0  0
 33 34  1  0  0  0
 33 66  1  0  0  0
 33 70  2  0  0  0
 34 36  1  0  0  0
 34 59  1  0  0  0
 34107  1  0  0  0
 35 44  2  0  0  0
 35 45  1  0  0  0
 35 68  1  0  0  0
 36 56  1  0  0  0
 36108  1  0  0  0
 37 39  1  0  0  0
 37 47  1  0  0  0
 37 66  1  0  0  0
 37109  1  0  0  0
 38 43  2  0  0  0
 38 46  1  0  0  0
 38 47  1  0  0  0
 39 64  1  0  0  0
 39 67  2  0  0  0
 40 52  1  0  0  0
 40 53  2  0  0  0
 40 58  1  0  0  0
 41110  1  0  0  0
 41111  1  0  0  0
 41112  1  0  0  0
 41 48  1  0  0  0
 42 43  1  0  0  0
 42 66  1  0  0  0
 42113  1  0  0  0
 42114  1  0  0  0
 43 44  1  0  0  0
 44115  1  0  0  0
 45 46  2  0  0  0
 45116  1  0  0  0
 46117  1  0  0  0
 47118  1  0  0  0
 47119  1  0  0  0
 48 56  1  0  0  0
 48 65  1  0  0  0
 48120  1  0  0  0
 49 50  1  0  0  0
 49 53  1  0  0  0
 49 64  1  0  0  0
 49121  1  0  0  0
 50 51  1  0  0  0
 50122  1  0  0  0
 50123  1  0  0  0
 51 52  1  0  0  0
 51124  1  0  0  0
 51125  1  0  0  0
 52126  1  0  0  0
 52127  1  0  0  0
 53 54  1  0  0  0
 54 55  2  0  0  0
 54128  1  0  0  0
 55 57  1  0  0  0
 55129  1  0  0  0
 56 69  2  0  0  0
 57 58  2  0  0  0
 57130  1  0  0  0
 58131  1  0  0  0
 59 60  1  0  0  0
 59 61  1  0  0  0
 59 62  1  0  0  0
 60132  1  0  0  0
 60133  1  0  0  0
 60134  1  0  0  0
 61135  1  0  0  0
 61136  1  0  0  0
 61137  1  0  0  0
 62138  1  0  0  0
 62139  1  0  0  0
 62140  1  0  0  0
 63 65  1  0  0  0
 63141  1  0  0  0
 63142  1  0  0  0
 63143  1  0  0  0
 64144  1  0  0  0
 65145  1  0  0  0
 68 82  1  0  0  0
 71 73  2  0  0  0
 71 74  1  0  0  0
 71146  1  0  0  0
 72 73  1  0  0  0
 72 83  2  0  0  0
 72147  1  0  0  0
 73 78  1  0  0  0
 74 75  2  0  0  0
 74 86  1  0  0  0
 75 79  1  0  0  0
 75 83  1  0  0  0
 76 84  1  0  0  0
 76148  1  0  0  0
 76149  1  0  0  0
 76150  1  0  0  0
 77151  1  0  0  0
 77152  1  0  0  0
 77153  1  0  0  0
 77 85  1  0  0  0
 78 85  1  0  0  0
 78154  1  0  0  0
 78155  1  0  0  0
 79 84  1  0  0  0
 79156  1  0  0  0
 79157  1  0  0  0
 80 81  1  0  0  0
 80 82  1  0  0  0
 80158  1  0  0  0
 80159  1  0  0  0
 81 85  1  0  0  0
 81160  1  0  0  0
 81161  1  0  0  0
 82162  1  0  0  0
 82163  1  0  0  0
 85164  1  0  0  0
M  CHG  1  85   1
M  ISO  4   1 100  68 101  82 101  84 100
M  END
> <chiral flag>
0

> <version>
0

> <s_m_source_file>
/data/baiqing/PycharmProjects/Reinvent-master-3.2/result/LINK_invent/BTK/process_docking_weight1_custom_sum_contain_oxygen_bond_distance_aromatic_linkinvent_7_9_3/rearranged_h_0057.sdf

> <i_m_source_file_index>
12

> <r_mmod_Potential_Energy-OPLS-2005>
-209.762054443359

> <r_mmod_Stretch_Energy-OPLS-2005>
42.6697044372559

> <r_mmod_Bend_Energy-OPLS-2005>
126.691253662109

> <r_mmod_Torsional_Energy-OPLS-2005>
231.410400390625

> <r_mmod_Improper_Torsional_Energy-OPLS-2005>
3.60151767730713

> <r_mmod_Van_der_Waal_Energy-OPLS-2005>
178.928848266602

> <r_mmod_Electrostatic_Energy-OPLS-2005>
-338.443237304688

> <r_mmod_Solvation_Energy-OPLS-2005>
-465.214202880859

> <b_mmod_Minimization_Converged-OPLS-2005>
0

> <r_mmod_RMS_Derivative-OPLS-2005>
3.94885969161987

$$$$
12
                    3D
 Structure written by MMmdl.
154162  0  0  1  0            999 V2000
  -30.3991  -15.3828   20.3814 C   0  0  0  0  0  0
  -30.4371  -12.9038   19.5082 C   0  0  0  0  0  0
  -29.5378  -12.5980   18.2833 C   0  0  0  0  0  0
  -28.0923  -12.2980   18.7194 C   0  0  0  0  0  0
  -27.6027  -13.2832   19.8089 C   0  0  2  0  0  0
  -28.6386  -13.5093   20.9298 C   0  0  0  0  0  0
  -25.2361  -13.8250   20.5757 C   0  0  0  0  0  0
  -24.1733  -13.0426   20.9277 C   0  0  0  0  0  0
  -24.6406  -11.6934   20.8775 C   0  0  0  0  0  0
  -23.9103  -10.4294   21.0405 C   0  0  0  0  0  0
  -24.3645   -9.4206   21.9177 C   0  0  0  0  0  0
  -23.6310   -8.2245   22.0745 C   0  0  0  0  0  0
  -22.4287   -8.0289   21.3542 C   0  0  0  0  0  0
  -21.9932   -9.0261   20.4635 C   0  0  0  0  0  0
  -22.7277  -10.2135   20.3046 C   0  0  0  0  0  0
  -21.6858   -6.0745   22.5288 C   0  0  0  0  0  0
  -21.4017   -6.5643   23.8222 C   0  0  0  0  0  0
  -21.3662   -5.6788   24.9183 C   0  0  0  0  0  0
  -21.6045   -4.3050   24.7224 C   0  0  0  0  0  0
  -21.8815   -3.8150   23.4342 C   0  0  0  0  0  0
  -21.9190   -4.6972   22.3402 C   0  0  0  0  0  0
  -22.7747  -13.5173   21.1920 C   0  0  0  0  0  0
  -22.1654   -4.2163   21.0978 F   0  0  0  0  0  0
  -21.5626   -3.4528   25.7732 F   0  0  0  0  0  0
  -29.8382  -14.0650   20.2744 N   0  0  0  0  0  0
  -26.2788  -12.9539   20.3184 N   0  0  0  0  0  0
  -25.9347  -11.6637   20.5702 N   0  0  0  0  0  0
  -22.0390  -12.8163   22.0469 N   0  0  0  0  0  0
  -25.3968  -15.1992   20.4223 N   0  0  0  0  0  0
  -31.6394  -15.3323   20.2843 O   0  0  0  0  0  0
  -21.6637   -6.8896   21.4252 O   0  0  0  0  0  0
  -22.3425  -14.5469   20.6746 O   0  0  0  0  0  0
  -24.6690  -31.8175   23.1649 C   0  0  0  0  0  0
  -25.9350  -32.4553   23.8134 C   0  0  1  0  0  0
  -27.2154  -26.8579   20.2056 C   0  0  0  0  0  0
  -25.5989  -33.8373   24.2042 N   0  0  0  0  0  0
  -23.4861  -30.4261   21.5163 C   0  0  2  0  0  0
  -24.9400  -28.7956   20.1204 C   0  0  0  0  0  0
  -22.7692  -29.4415   22.4769 C   0  0  0  0  0  0
  -18.0328  -28.1421   22.8457 C   0  0  0  0  0  0
  -24.1497  -36.7189   23.2646 C   0  0  0  0  0  0
  -26.0597  -30.6026   21.4046 C   0  0  0  0  0  0
  -26.1265  -29.1830   20.7548 C   0  0  0  0  0  0
  -27.2605  -28.2400   20.7631 C   0  0  0  0  0  0
  -25.9965  -26.6353   19.5266 C   0  0  0  0  0  0
  -24.9042  -27.5441   19.4832 C   0  0  0  0  0  0
  -23.7307  -29.7344   20.1462 C   0  0  0  0  0  0
  -25.4145  -36.2947   24.0288 C   0  0  1  0  0  0
  -20.5954  -28.3773   23.1175 C   0  0  2  0  0  0
  -20.6804  -26.9449   22.5404 C   0  0  0  0  0  0
  -19.5776  -26.6384   21.5221 C   0  0  0  0  0  0
  -18.1957  -26.7947   22.1625 C   0  0  0  0  0  0
  -19.1590  -28.8921   23.2797 C   0  0  0  0  0  0
  -18.9496  -30.1510   23.8830 C   0  0  0  0  0  0
  -17.6486  -30.6602   24.0558 C   0  0  0  0  0  0
  -25.9114  -34.9331   23.4994 C   0  0  0  0  0  0
  -16.5377  -29.9086   23.6349 C   0  0  0  0  0  0
  -16.7309  -28.6518   23.0348 C   0  0  0  0  0  0
  -26.4578  -31.6508   25.0684 C   0  0  0  0  0  0
  -25.3686  -31.3773   26.1330 C   0  0  0  0  0  0
  -27.0484  -30.2855   24.6470 C   0  0  0  0  0  0
  -27.6052  -32.4330   25.7496 C   0  0  0  0  0  0
  -27.5574  -37.1755   24.8466 C   0  0  0  0  0  0
  -21.4358  -29.3047   22.3515 N   0  0  0  0  0  0
  -26.4282  -37.3691   23.9406 N   0  0  0  0  0  0
  -24.7606  -30.9770   22.0820 N   0  0  0  0  0  0
  -23.4214  -28.7996   23.3043 O   0  0  0  0  0  0
  -28.2245  -25.7346   20.2114 O   0  0  0  0  0  0
  -26.5727  -34.8875   22.4593 O   0  0  0  0  0  0
  -23.5748  -32.1183   23.6701 O   0  0  0  0  0  0
  -30.0835  -19.5554   22.5572 C   0  0  0  0  0  0
  -29.6103  -20.7875   22.0268 C   0  0  0  0  0  0
  -29.1289  -20.8411   20.6903 C   0  0  0  0  0  0
  -29.6827  -18.2128   20.6945 C   0  0  0  0  0  0
  -30.8007  -22.0962   23.9194 C   0  0  0  0  0  0
  -28.2900  -22.2157   23.6396 C   0  0  0  0  0  0
  -28.7958  -22.4597   19.9877 C   0  0  0  0  0  0
  -28.0409  -24.0805   20.5026 C   0  0  0  0  0  0
  -29.6349  -22.0394   22.9141 C   0  0  0  0  0  0
  -30.1395  -18.3568   21.9279 N   0  0  0  0  0  0
  -29.1805  -19.4646   20.0907 N   0  0  0  0  0  0
  -29.6442  -16.6883   20.2670 N   0  0  0  0  0  0
  -31.4451  -13.1366   19.1626 H   0  0  0  0  0  0
  -30.5445  -12.0237   20.1440 H   0  0  0  0  0  0
  -29.9446  -11.7631   17.7121 H   0  0  0  0  0  0
  -29.5418  -13.4581   17.6115 H   0  0  0  0  0  0
  -28.0686  -11.2810   19.1116 H   0  0  0  0  0  0
  -27.4245  -12.3102   17.8575 H   0  0  0  0  0  0
  -27.4956  -14.2346   19.2862 H   0  0  0  0  0  0
  -28.8464  -12.5877   21.4763 H   0  0  0  0  0  0
  -28.2581  -14.2245   21.6612 H   0  0  0  0  0  0
  -25.2787   -9.5677   22.4758 H   0  0  0  0  0  0
  -24.0018   -7.4629   22.7456 H   0  0  0  0  0  0
  -21.0866   -8.8789   19.8937 H   0  0  0  0  0  0
  -22.3741  -10.9675   19.6151 H   0  0  0  0  0  0
  -21.2018   -7.6148   23.9740 H   0  0  0  0  0  0
  -21.1484   -6.0508   25.9088 H   0  0  0  0  0  0
  -22.0592   -2.7613   23.2831 H   0  0  0  0  0  0
  -22.4004  -11.9853   22.4913 H   0  0  0  0  0  0
  -21.0989  -13.1172   22.2627 H   0  0  0  0  0  0
  -24.6237  -15.8453   20.5428 H   0  0  0  0  0  0
  -26.2368  -15.6490   20.0869 H   0  0  0  0  0  0
  -26.7418  -32.5073   23.0847 H   0  0  0  0  0  0
  -25.0078  -33.9447   25.0151 H   0  0  0  0  0  0
  -22.8028  -31.2598   21.3387 H   0  0  0  0  0  0
  -23.3777  -35.9503   23.3274 H   0  0  0  0  0  0
  -24.3564  -36.8879   22.2067 H   0  0  0  0  0  0
  -23.7244  -37.6357   23.6733 H   0  0  0  0  0  0
  -26.2454  -31.3382   20.6202 H   0  0  0  0  0  0
  -26.9179  -30.6646   22.0619 H   0  0  0  0  0  0
  -28.1652  -28.5434   21.2709 H   0  0  0  0  0  0
  -25.8636  -25.6830   19.0323 H   0  0  0  0  0  0
  -24.0052  -27.2421   18.9637 H   0  0  0  0  0  0
  -23.8940  -30.4998   19.3868 H   0  0  0  0  0  0
  -22.8385  -29.1939   19.8253 H   0  0  0  0  0  0
  -25.1349  -36.1731   25.0777 H   0  0  0  0  0  0
  -21.0038  -28.3392   24.1299 H   0  0  0  0  0  0
  -20.5694  -26.2393   23.3654 H   0  0  0  0  0  0
  -21.6665  -26.7424   22.1204 H   0  0  0  0  0  0
  -19.6935  -25.6284   21.1280 H   0  0  0  0  0  0
  -19.6709  -27.3169   20.6731 H   0  0  0  0  0  0
  -17.4227  -26.6689   21.4026 H   0  0  0  0  0  0
  -18.0345  -26.0111   22.9042 H   0  0  0  0  0  0
  -19.7976  -30.7350   24.2151 H   0  0  0  0  0  0
  -17.5039  -31.6267   24.5190 H   0  0  0  0  0  0
  -15.5375  -30.2963   23.7719 H   0  0  0  0  0  0
  -15.8710  -28.0828   22.7070 H   0  0  0  0  0  0
  -24.5881  -30.7109   25.7634 H   0  0  0  0  0  0
  -24.8861  -32.2978   26.4618 H   0  0  0  0  0  0
  -25.7903  -30.9023   27.0197 H   0  0  0  0  0  0
  -26.3163  -29.6502   24.1465 H   0  0  0  0  0  0
  -27.3970  -29.7250   25.5155 H   0  0  0  0  0  0
  -27.9123  -30.4006   23.9923 H   0  0  0  0  0  0
  -27.2608  -33.3683   26.1924 H   0  0  0  0  0  0
  -28.3942  -32.6812   25.0383 H   0  0  0  0  0  0
  -28.0633  -31.8555   26.5540 H   0  0  0  0  0  0
  -28.2567  -38.0071   24.7513 H   0  0  0  0  0  0
  -28.1089  -36.2595   24.6294 H   0  0  0  0  0  0
  -27.2278  -37.1396   25.8863 H   0  0  0  0  0  0
  -20.9631  -29.8709   21.6605 H   0  0  0  0  0  0
  -26.0122  -38.2742   24.1411 H   0  0  0  0  0  0
  -30.4482  -19.5064   23.5711 H   0  0  0  0  0  0
  -31.7626  -21.9589   23.4245 H   0  0  0  0  0  0
  -30.7127  -21.3511   24.7107 H   0  0  0  0  0  0
  -30.8327  -23.0699   24.4114 H   0  0  0  0  0  0
  -27.4545  -22.2530   22.9403 H   0  0  0  0  0  0
  -28.2691  -23.1405   24.2177 H   0  0  0  0  0  0
  -28.0968  -21.3936   24.3298 H   0  0  0  0  0  0
  -28.3054  -22.2230   19.0451 H   0  0  0  0  0  0
  -29.7993  -22.7495   19.6787 H   0  0  0  0  0  0
  -28.1452  -24.0888   21.5833 H   0  0  0  0  0  0
  -26.9707  -23.9176   20.3794 H   0  0  0  0  0  0
  -29.8080  -22.8998   22.2738 H   0  0  0  0  0  0
  -28.7376  -16.4805   19.8835 H   0  0  0  0  0  0
  1 25  1  0  0  0
  1 30  2  0  0  0
  1 82  1  0  0  0
  2  3  1  0  0  0
  2 25  1  0  0  0
  2 83  1  0  0  0
  2 84  1  0  0  0
  3  4  1  0  0  0
  3 85  1  0  0  0
  3 86  1  0  0  0
  4  5  1  0  0  0
  4 87  1  0  0  0
  4 88  1  0  0  0
  5  6  1  0  0  0
  5 26  1  0  0  0
  5 89  1  0  0  0
  6 25  1  0  0  0
  6 90  1  0  0  0
  6 91  1  0  0  0
  7  8  2  0  0  0
  7 26  1  0  0  0
  7 29  1  0  0  0
  8  9  1  0  0  0
  8 22  1  0  0  0
  9 10  1  0  0  0
  9 27  2  0  0  0
 10 11  2  0  0  0
 10 15  1  0  0  0
 11 12  1  0  0  0
 11 92  1  0  0  0
 12 13  2  0  0  0
 12 93  1  0  0  0
 13 14  1  0  0  0
 13 31  1  0  0  0
 14 15  2  0  0  0
 14 94  1  0  0  0
 15 95  1  0  0  0
 16 17  2  0  0  0
 16 21  1  0  0  0
 16 31  1  0  0  0
 17 18  1  0  0  0
 17 96  1  0  0  0
 18 19  2  0  0  0
 18 97  1  0  0  0
 19 20  1  0  0  0
 19 24  1  0  0  0
 20 21  2  0  0  0
 20 98  1  0  0  0
 21 23  1  0  0  0
 22 28  1  0  0  0
 22 32  2  0  0  0
 26 27  1  0  0  0
 28 99  1  0  0  0
 28100  1  0  0  0
 29101  1  0  0  0
 29102  1  0  0  0
 33 34  1  0  0  0
 33 66  1  0  0  0
 33 70  2  0  0  0
 34 36  1  0  0  0
 34 59  1  0  0  0
 34103  1  0  0  0
 35 44  2  0  0  0
 35 45  1  0  0  0
 35 68  1  0  0  0
 36 56  1  0  0  0
 36104  1  0  0  0
 37 39  1  0  0  0
 37 47  1  0  0  0
 37 66  1  0  0  0
 37105  1  0  0  0
 38 43  2  0  0  0
 38 46  1  0  0  0
 38 47  1  0  0  0
 39 64  1  0  0  0
 39 67  2  0  0  0
 40 52  1  0  0  0
 40 53  2  0  0  0
 40 58  1  0  0  0
 41106  1  0  0  0
 41107  1  0  0  0
 41108  1  0  0  0
 41 48  1  0  0  0
 42 43  1  0  0  0
 42 66  1  0  0  0
 42109  1  0  0  0
 42110  1  0  0  0
 43 44  1  0  0  0
 44111  1  0  0  0
 45 46  2  0  0  0
 45112  1  0  0  0
 46113  1  0  0  0
 47114  1  0  0  0
 47115  1  0  0  0
 48 56  1  0  0  0
 48 65  1  0  0  0
 48116  1  0  0  0
 49 50  1  0  0  0
 49 53  1  0  0  0
 49 64  1  0  0  0
 49117  1  0  0  0
 50 51  1  0  0  0
 50118  1  0  0  0
 50119  1  0  0  0
 51 52  1  0  0  0
 51120  1  0  0  0
 51121  1  0  0  0
 52122  1  0  0  0
 52123  1  0  0  0
 53 54  1  0  0  0
 54 55  2  0  0  0
 54124  1  0  0  0
 55 57  1  0  0  0
 55125  1  0  0  0
 56 69  2  0  0  0
 57 58  2  0  0  0
 57126  1  0  0  0
 58127  1  0  0  0
 59 60  1  0  0  0
 59 61  1  0  0  0
 59 62  1  0  0  0
 60128  1  0  0  0
 60129  1  0  0  0
 60130  1  0  0  0
 61131  1  0  0  0
 61132  1  0  0  0
 61133  1  0  0  0
 62134  1  0  0  0
 62135  1  0  0  0
 62136  1  0  0  0
 63 65  1  0  0  0
 63137  1  0  0  0
 63138  1  0  0  0
 63139  1  0  0  0
 64140  1  0  0  0
 65141  1  0  0  0
 68 78  1  0  0  0
 71 72  2  0  0  0
 71 80  1  0  0  0
 71142  1  0  0  0
 72 73  1  0  0  0
 72 79  1  0  0  0
 73 77  1  0  0  0
 73 81  2  0  0  0
 74 80  2  0  0  0
 74 81  1  0  0  0
 74 82  1  0  0  0
 75143  1  0  0  0
 75144  1  0  0  0
 75145  1  0  0  0
 75 79  1  0  0  0
 76 79  1  0  0  0
 76146  1  0  0  0
 76147  1  0  0  0
 76148  1  0  0  0
 77 78  1  0  0  0
 77149  1  0  0  0
 77150  1  0  0  0
 78151  1  0  0  0
 78152  1  0  0  0
 79153  1  0  0  0
 82154  1  0  0  0
M  ISO  4   1 100  68 101  78 101  82 100
M  END
> <chiral flag>
0

> <version>
0

> <s_m_source_file>
/data/baiqing/PycharmProjects/Reinvent-master-3.2/result/LINK_invent/BTK/process_docking_weight1_custom_sum_contain_oxygen_bond_distance_aromatic_linkinvent_7_9_3/rearranged_h_0057.sdf

> <i_m_source_file_index>
13

> <r_mmod_Potential_Energy-OPLS-2005>
1253.35131835938

> <r_mmod_Stretch_Energy-OPLS-2005>
721.119506835938

> <r_mmod_Bend_Energy-OPLS-2005>
505.021026611328

> <r_mmod_Torsional_Energy-OPLS-2005>
252.714111328125

> <r_mmod_Improper_Torsional_Energy-OPLS-2005>
10.4270162582397

> <r_mmod_Van_der_Waal_Energy-OPLS-2005>
134.360275268555

> <r_mmod_Electrostatic_Energy-OPLS-2005>
-701.080932617188

> <r_mmod_Solvation_Energy-OPLS-2005>
-244.598281860352

> <b_mmod_Minimization_Converged-OPLS-2005>
0

> <r_mmod_RMS_Derivative-OPLS-2005>
1.2483617067337

$$$$
13
                    3D
 Structure written by MMmdl.
151159  0  0  1  0            999 V2000
  -30.5709  -14.8713   20.4530 C   0  0  0  0  0  0
  -30.4377  -12.5382   19.4979 C   0  0  0  0  0  0
  -29.5190  -12.5258   18.2542 C   0  0  0  0  0  0
  -28.0479  -12.3277   18.6663 C   0  0  0  0  0  0
  -27.6363  -13.2428   19.8492 C   0  0  2  0  0  0
  -28.6793  -13.2294   20.9892 C   0  0  0  0  0  0
  -25.2478  -13.8211   20.5719 C   0  0  0  0  0  0
  -24.1797  -13.0452   20.9274 C   0  0  0  0  0  0
  -24.6387  -11.6923   20.8777 C   0  0  0  0  0  0
  -23.9072  -10.4293   21.0415 C   0  0  0  0  0  0
  -24.3628   -9.4204   21.9185 C   0  0  0  0  0  0
  -23.6298   -8.2242   22.0761 C   0  0  0  0  0  0
  -22.4285   -8.0278   21.3549 C   0  0  0  0  0  0
  -21.9915   -9.0253   20.4658 C   0  0  0  0  0  0
  -22.7241  -10.2129   20.3059 C   0  0  0  0  0  0
  -21.6857   -6.0721   22.5266 C   0  0  0  0  0  0
  -21.4019   -6.5630   23.8195 C   0  0  0  0  0  0
  -21.3663   -5.6791   24.9164 C   0  0  0  0  0  0
  -21.6048   -4.3052   24.7221 C   0  0  0  0  0  0
  -21.8820   -3.8136   23.4343 C   0  0  0  0  0  0
  -21.9200   -4.6949   22.3397 C   0  0  0  0  0  0
  -22.7811  -13.5216   21.1900 C   0  0  0  0  0  0
  -22.1668   -4.2132   21.0974 F   0  0  0  0  0  0
  -21.5635   -3.4538   25.7737 F   0  0  0  0  0  0
  -29.9688  -13.6209   20.4058 N   0  0  0  0  0  0
  -26.2904  -12.9431   20.3275 N   0  0  0  0  0  0
  -25.9314  -11.6569   20.5751 N   0  0  0  0  0  0
  -22.0443  -12.8221   22.0459 N   0  0  0  0  0  0
  -25.4151  -15.1930   20.3972 N   0  0  0  0  0  0
  -31.7529  -14.9634   20.1086 O   0  0  0  0  0  0
  -21.6655   -6.8865   21.4230 O   0  0  0  0  0  0
  -22.3515  -14.5517   20.6707 O   0  0  0  0  0  0
  -24.6406  -31.8496   23.1960 C   0  0  0  0  0  0
  -25.9195  -32.4723   23.8322 C   0  0  1  0  0  0
  -27.2042  -27.1635   20.1422 C   0  0  0  0  0  0
  -25.5961  -33.8531   24.2233 N   0  0  0  0  0  0
  -23.4412  -30.4761   21.5409 C   0  0  2  0  0  0
  -24.8899  -28.9207   20.1086 C   0  0  0  0  0  0
  -22.7539  -29.4588   22.4869 C   0  0  0  0  0  0
  -18.0302  -28.1398   22.8487 C   0  0  0  0  0  0
  -24.1487  -36.7262   23.2639 C   0  0  0  0  0  0
  -25.9993  -30.7325   21.3953 C   0  0  0  0  0  0
  -26.0687  -29.3494   20.7320 C   0  0  0  0  0  0
  -27.2274  -28.4864   20.7379 C   0  0  0  0  0  0
  -25.9992  -26.8486   19.4657 C   0  0  0  0  0  0
  -24.8674  -27.6827   19.4602 C   0  0  0  0  0  0
  -23.6669  -29.8197   20.1559 C   0  0  0  0  0  0
  -25.4119  -36.3054   24.0319 C   0  0  1  0  0  0
  -20.5911  -28.3718   23.1253 C   0  0  2  0  0  0
  -20.6794  -26.9430   22.5407 C   0  0  0  0  0  0
  -19.5759  -26.6388   21.5226 C   0  0  0  0  0  0
  -18.1940  -26.7940   22.1633 C   0  0  0  0  0  0
  -19.1558  -28.8868   23.2868 C   0  0  0  0  0  0
  -18.9480  -30.1465   23.8884 C   0  0  0  0  0  0
  -17.6481  -30.6587   24.0566 C   0  0  0  0  0  0
  -25.9067  -34.9421   23.5076 C   0  0  0  0  0  0
  -16.5367  -29.9093   23.6337 C   0  0  0  0  0  0
  -16.7287  -28.6517   23.0346 C   0  0  0  0  0  0
  -26.4533  -31.6574   25.0740 C   0  0  0  0  0  0
  -25.3736  -31.3745   26.1445 C   0  0  0  0  0  0
  -27.0388  -30.2972   24.6297 C   0  0  0  0  0  0
  -27.6057  -32.4341   25.7523 C   0  0  0  0  0  0
  -27.5573  -37.1790   24.8468 C   0  0  0  0  0  0
  -21.4228  -29.3084   22.3643 N   0  0  0  0  0  0
  -26.4287  -37.3761   23.9411 N   0  0  0  0  0  0
  -24.7131  -31.0388   22.0986 N   0  0  0  0  0  0
  -23.4203  -28.8099   23.2975 O   0  0  0  0  0  0
  -28.2315  -26.1536   20.2324 O   0  0  0  0  0  0
  -26.5642  -34.8900   22.4647 O   0  0  0  0  0  0
  -23.5532  -32.1359   23.7198 O   0  0  0  0  0  0
  -28.4073  -22.2070   19.1958 C   0  0  0  0  0  0
  -29.3860  -21.4514   21.5514 C   0  0  0  0  0  0
  -28.5784  -23.2520   20.1727 C   0  0  0  0  0  0
  -29.1674  -20.3998   20.5822 C   0  0  0  0  0  0
  -27.8119  -24.6905   19.9679 C   0  0  0  0  0  0
  -30.0978  -17.5583   20.4343 C   0  0  0  0  0  0
  -29.0900  -18.7924   20.9441 C   0  0  2  0  0  0
  -29.0955  -22.8091   21.3695 N   0  0  0  0  0  0
  -28.6729  -20.8535   19.3837 N   0  0  0  0  0  0
  -29.7987  -16.0285   20.6822 N   0  0  0  0  0  0
  -27.6952  -18.3926   20.7147 N   0  3  0  0  0  0
  -31.4745  -12.6818   19.1908 H   0  0  0  0  0  0
  -30.4104  -11.5730   20.0072 H   0  0  0  0  0  0
  -29.8243  -11.7370   17.5646 H   0  0  0  0  0  0
  -29.6247  -13.4676   17.7132 H   0  0  0  0  0  0
  -27.9254  -11.2822   18.9520 H   0  0  0  0  0  0
  -27.3890  -12.4900   17.8116 H   0  0  0  0  0  0
  -27.6160  -14.2547   19.4452 H   0  0  0  0  0  0
  -28.7452  -12.2410   21.4462 H   0  0  0  0  0  0
  -28.3912  -13.9156   21.7869 H   0  0  0  0  0  0
  -25.2773   -9.5684   22.4762 H   0  0  0  0  0  0
  -24.0011   -7.4636   22.7482 H   0  0  0  0  0  0
  -21.0843   -8.8756   19.8977 H   0  0  0  0  0  0
  -22.3685  -10.9663   19.6176 H   0  0  0  0  0  0
  -21.2010   -7.6137   23.9689 H   0  0  0  0  0  0
  -21.1490   -6.0524   25.9063 H   0  0  0  0  0  0
  -22.0601   -2.7597   23.2847 H   0  0  0  0  0  0
  -22.4055  -11.9888   22.4863 H   0  0  0  0  0  0
  -21.1041  -13.1214   22.2620 H   0  0  0  0  0  0
  -24.5602  -15.7383   20.3489 H   0  0  0  0  0  0
  -26.0839  -15.4816   19.6958 H   0  0  0  0  0  0
  -26.7248  -32.5338   23.1042 H   0  0  0  0  0  0
  -25.0112  -33.9660   25.0384 H   0  0  0  0  0  0
  -22.7430  -31.3029   21.3951 H   0  0  0  0  0  0
  -23.3755  -35.9588   23.3301 H   0  0  0  0  0  0
  -24.3579  -36.8895   22.2056 H   0  0  0  0  0  0
  -23.7232  -37.6451   23.6676 H   0  0  0  0  0  0
  -26.1581  -31.4915   20.6283 H   0  0  0  0  0  0
  -26.8690  -30.7760   22.0391 H   0  0  0  0  0  0
  -28.1186  -28.8053   21.2600 H   0  0  0  0  0  0
  -25.8653  -25.9149   18.9443 H   0  0  0  0  0  0
  -23.9698  -27.3536   18.9545 H   0  0  0  0  0  0
  -23.8051  -30.6031   19.4098 H   0  0  0  0  0  0
  -22.7814  -29.2666   19.8371 H   0  0  0  0  0  0
  -25.1307  -36.1889   25.0812 H   0  0  0  0  0  0
  -21.0001  -28.3304   24.1376 H   0  0  0  0  0  0
  -20.5712  -26.2333   23.3628 H   0  0  0  0  0  0
  -21.6658  -26.7456   22.1196 H   0  0  0  0  0  0
  -19.6900  -25.6288   21.1278 H   0  0  0  0  0  0
  -19.6693  -27.3182   20.6742 H   0  0  0  0  0  0
  -17.4207  -26.6684   21.4042 H   0  0  0  0  0  0
  -18.0326  -26.0096   22.9045 H   0  0  0  0  0  0
  -19.7953  -30.7290   24.2250 H   0  0  0  0  0  0
  -17.5028  -31.6262   24.5176 H   0  0  0  0  0  0
  -15.5367  -30.2993   23.7676 H   0  0  0  0  0  0
  -15.8684  -28.0847   22.7051 H   0  0  0  0  0  0
  -24.5917  -30.7086   25.7781 H   0  0  0  0  0  0
  -24.8924  -32.2915   26.4849 H   0  0  0  0  0  0
  -25.8046  -30.8943   27.0239 H   0  0  0  0  0  0
  -26.2995  -29.6705   24.1290 H   0  0  0  0  0  0
  -27.3991  -29.7263   25.4865 H   0  0  0  0  0  0
  -27.8919  -30.4215   23.9622 H   0  0  0  0  0  0
  -27.2638  -33.3653   26.2053 H   0  0  0  0  0  0
  -28.3891  -32.6883   25.0370 H   0  0  0  0  0  0
  -28.0693  -31.8499   26.5481 H   0  0  0  0  0  0
  -28.2592  -38.0087   24.7516 H   0  0  0  0  0  0
  -28.1067  -36.2614   24.6297 H   0  0  0  0  0  0
  -27.2288  -37.1447   25.8871 H   0  0  0  0  0  0
  -20.9401  -29.8848   21.6889 H   0  0  0  0  0  0
  -26.0153  -38.2827   24.1423 H   0  0  0  0  0  0
  -27.9364  -22.4471   18.2531 H   0  0  0  0  0  0
  -29.7130  -21.1904   22.5482 H   0  0  0  0  0  0
  -26.8759  -24.5426   20.5091 H   0  0  0  0  0  0
  -27.5574  -24.6713   18.9084 H   0  0  0  0  0  0
  -31.0922  -17.7608   20.8331 H   0  0  0  0  0  0
  -30.2092  -17.6617   19.3545 H   0  0  0  0  0  0
  -29.1957  -18.7871   22.0308 H   0  0  0  0  0  0
  -28.8634  -15.8068   20.9841 H   0  0  0  0  0  0
  -27.4861  -17.5104   21.1397 H   0  0  0  0  0  0
  -27.5145  -18.3572   19.7275 H   0  0  0  0  0  0
  -27.0886  -19.0836   21.1152 H   0  0  0  0  0  0
  1 25  1  0  0  0
  1 30  2  0  0  0
  1 80  1  0  0  0
  2  3  1  0  0  0
  2 25  1  0  0  0
  2 82  1  0  0  0
  2 83  1  0  0  0
  3  4  1  0  0  0
  3 84  1  0  0  0
  3 85  1  0  0  0
  4  5  1  0  0  0
  4 86  1  0  0  0
  4 87  1  0  0  0
  5  6  1  0  0  0
  5 26  1  0  0  0
  5 88  1  0  0  0
  6 25  1  0  0  0
  6 89  1  0  0  0
  6 90  1  0  0  0
  7  8  2  0  0  0
  7 26  1  0  0  0
  7 29  1  0  0  0
  8  9  1  0  0  0
  8 22  1  0  0  0
  9 10  1  0  0  0
  9 27  2  0  0  0
 10 11  2  0  0  0
 10 15  1  0  0  0
 11 12  1  0  0  0
 11 91  1  0  0  0
 12 13  2  0  0  0
 12 92  1  0  0  0
 13 14  1  0  0  0
 13 31  1  0  0  0
 14 15  2  0  0  0
 14 93  1  0  0  0
 15 94  1  0  0  0
 16 17  2  0  0  0
 16 21  1  0  0  0
 16 31  1  0  0  0
 17 18  1  0  0  0
 17 95  1  0  0  0
 18 19  2  0  0  0
 18 96  1  0  0  0
 19 20  1  0  0  0
 19 24  1  0  0  0
 20 21  2  0  0  0
 20 97  1  0  0  0
 21 23  1  0  0  0
 22 28  1  0  0  0
 22 32  2  0  0  0
 26 27  1  0  0  0
 28 98  1  0  0  0
 28 99  1  0  0  0
 29100  1  0  0  0
 29101  1  0  0  0
 33 34  1  0  0  0
 33 66  1  0  0  0
 33 70  2  0  0  0
 34 36  1  0  0  0
 34 59  1  0  0  0
 34102  1  0  0  0
 35 44  2  0  0  0
 35 45  1  0  0  0
 35 68  1  0  0  0
 36 56  1  0  0  0
 36103  1  0  0  0
 37 39  1  0  0  0
 37 47  1  0  0  0
 37 66  1  0  0  0
 37104  1  0  0  0
 38 43  2  0  0  0
 38 46  1  0  0  0
 38 47  1  0  0  0
 39 64  1  0  0  0
 39 67  2  0  0  0
 40 52  1  0  0  0
 40 53  2  0  0  0
 40 58  1  0  0  0
 41105  1  0  0  0
 41106  1  0  0  0
 41107  1  0  0  0
 41 48  1  0  0  0
 42 43  1  0  0  0
 42 66  1  0  0  0
 42108  1  0  0  0
 42109  1  0  0  0
 43 44  1  0  0  0
 44110  1  0  0  0
 45 46  2  0  0  0
 45111  1  0  0  0
 46112  1  0  0  0
 47113  1  0  0  0
 47114  1  0  0  0
 48 56  1  0  0  0
 48 65  1  0  0  0
 48115  1  0  0  0
 49 50  1  0  0  0
 49 53  1  0  0  0
 49 64  1  0  0  0
 49116  1  0  0  0
 50 51  1  0  0  0
 50117  1  0  0  0
 50118  1  0  0  0
 51 52  1  0  0  0
 51119  1  0  0  0
 51120  1  0  0  0
 52121  1  0  0  0
 52122  1  0  0  0
 53 54  1  0  0  0
 54 55  2  0  0  0
 54123  1  0  0  0
 55 57  1  0  0  0
 55124  1  0  0  0
 56 69  2  0  0  0
 57 58  2  0  0  0
 57125  1  0  0  0
 58126  1  0  0  0
 59 60  1  0  0  0
 59 61  1  0  0  0
 59 62  1  0  0  0
 60127  1  0  0  0
 60128  1  0  0  0
 60129  1  0  0  0
 61130  1  0  0  0
 61131  1  0  0  0
 61132  1  0  0  0
 62133  1  0  0  0
 62134  1  0  0  0
 62135  1  0  0  0
 63 65  1  0  0  0
 63136  1  0  0  0
 63137  1  0  0  0
 63138  1  0  0  0
 64139  1  0  0  0
 65140  1  0  0  0
 68 75  1  0  0  0
 71 73  2  0  0  0
 71 79  1  0  0  0
 71141  1  0  0  0
 72 74  1  0  0  0
 72 78  2  0  0  0
 72142  1  0  0  0
 73 75  1  0  0  0
 73 78  1  0  0  0
 74 77  1  0  0  0
 74 79  2  0  0  0
 75143  1  0  0  0
 75144  1  0  0  0
 76 77  1  0  0  0
 76 80  1  0  0  0
 76145  1  0  0  0
 76146  1  0  0  0
 77 81  1  0  0  0
 77147  1  0  0  0
 80148  1  0  0  0
 81149  1  0  0  0
 81150  1  0  0  0
 81151  1  0  0  0
M  CHG  1  81   1
M  ISO  4   1 100  68 101  75 101  80 100
M  END
> <chiral flag>
0

> <version>
0

> <s_m_source_file>
/data/baiqing/PycharmProjects/Reinvent-master-3.2/result/LINK_invent/BTK/process_docking_weight1_custom_sum_contain_oxygen_bond_distance_aromatic_linkinvent_7_9_3/rearranged_h_0057.sdf

> <i_m_source_file_index>
14

> <r_mmod_Potential_Energy-OPLS-2005>
137.815277099609

> <r_mmod_Stretch_Energy-OPLS-2005>
216.923126220703

> <r_mmod_Bend_Energy-OPLS-2005>
245.94010925293

> <r_mmod_Torsional_Energy-OPLS-2005>
247.839019775391

> <r_mmod_Improper_Torsional_Energy-OPLS-2005>
14.414909362793

> <r_mmod_Van_der_Waal_Energy-OPLS-2005>
144.929489135742

> <r_mmod_Electrostatic_Energy-OPLS-2005>
-334.889862060547

> <r_mmod_Solvation_Energy-OPLS-2005>
-556.627075195312

> <b_mmod_Minimization_Converged-OPLS-2005>
0

> <r_mmod_RMS_Derivative-OPLS-2005>
1.651522397995

$$$$
14
                    3D
 Structure written by MMmdl.
148156  0  0  1  0            999 V2000
  -30.4759  -15.2597   20.3955 C   0  0  0  0  0  0
  -30.4464  -12.8144   19.5170 C   0  0  0  0  0  0
  -29.5299  -12.5711   18.2902 C   0  0  0  0  0  0
  -28.0827  -12.2855   18.7275 C   0  0  0  0  0  0
  -27.6154  -13.2597   19.8332 C   0  0  2  0  0  0
  -28.6645  -13.4109   20.9615 C   0  0  0  0  0  0
  -25.2324  -13.8178   20.5702 C   0  0  0  0  0  0
  -24.1714  -13.0384   20.9291 C   0  0  0  0  0  0
  -24.6395  -11.6899   20.8830 C   0  0  0  0  0  0
  -23.9090  -10.4271   21.0444 C   0  0  0  0  0  0
  -24.3633   -9.4178   21.9209 C   0  0  0  0  0  0
  -23.6298   -8.2218   22.0756 C   0  0  0  0  0  0
  -22.4278   -8.0278   21.3542 C   0  0  0  0  0  0
  -21.9933   -9.0258   20.4642 C   0  0  0  0  0  0
  -22.7274  -10.2128   20.3068 C   0  0  0  0  0  0
  -21.6853   -6.0735   22.5284 C   0  0  0  0  0  0
  -21.4012   -6.5636   23.8219 C   0  0  0  0  0  0
  -21.3650   -5.6786   24.9177 C   0  0  0  0  0  0
  -21.6040   -4.3050   24.7227 C   0  0  0  0  0  0
  -21.8822   -3.8144   23.4346 C   0  0  0  0  0  0
  -21.9197   -4.6964   22.3403 C   0  0  0  0  0  0
  -22.7736  -13.5153   21.1918 C   0  0  0  0  0  0
  -22.1664   -4.2152   21.0980 F   0  0  0  0  0  0
  -21.5624   -3.4533   25.7736 F   0  0  0  0  0  0
  -29.8859  -13.9559   20.3329 N   0  0  0  0  0  0
  -26.2822  -12.9472   20.3307 N   0  0  0  0  0  0
  -25.9341  -11.6592   20.5850 N   0  0  0  0  0  0
  -22.0399  -12.8146   22.0478 N   0  0  0  0  0  0
  -25.3725  -15.1891   20.3928 N   0  0  0  0  0  0
  -31.6906  -15.2301   20.1502 O   0  0  0  0  0  0
  -21.6632   -6.8878   21.4241 O   0  0  0  0  0  0
  -22.3422  -14.5473   20.6774 O   0  0  0  0  0  0
  -24.6622  -31.8254   23.1706 C   0  0  0  0  0  0
  -25.9304  -32.4593   23.8175 C   0  0  1  0  0  0
  -27.2308  -26.9637   20.1697 C   0  0  0  0  0  0
  -25.5977  -33.8408   24.2074 N   0  0  0  0  0  0
  -23.4758  -30.4368   21.5206 C   0  0  2  0  0  0
  -24.9311  -28.8336   20.1116 C   0  0  0  0  0  0
  -22.7675  -29.4443   22.4783 C   0  0  0  0  0  0
  -18.0321  -28.1411   22.8456 C   0  0  0  0  0  0
  -24.1492  -36.7219   23.2650 C   0  0  0  0  0  0
  -26.0442  -30.6438   21.3967 C   0  0  0  0  0  0
  -26.1153  -29.2376   20.7399 C   0  0  0  0  0  0
  -27.2614  -28.3249   20.7446 C   0  0  0  0  0  0
  -26.0113  -26.7043   19.5009 C   0  0  0  0  0  0
  -24.9024  -27.5854   19.4723 C   0  0  0  0  0  0
  -23.7144  -29.7554   20.1461 C   0  0  0  0  0  0
  -25.4123  -36.2967   24.0303 C   0  0  1  0  0  0
  -20.5944  -28.3749   23.1186 C   0  0  2  0  0  0
  -20.6796  -26.9430   22.5399 C   0  0  0  0  0  0
  -19.5772  -26.6372   21.5217 C   0  0  0  0  0  0
  -18.1954  -26.7935   22.1621 C   0  0  0  0  0  0
  -19.1584  -28.8908   23.2801 C   0  0  0  0  0  0
  -18.9503  -30.1499   23.8832 C   0  0  0  0  0  0
  -17.6494  -30.6599   24.0559 C   0  0  0  0  0  0
  -25.9094  -34.9350   23.5007 C   0  0  0  0  0  0
  -16.5383  -29.9085   23.6345 C   0  0  0  0  0  0
  -16.7305  -28.6515   23.0345 C   0  0  0  0  0  0
  -26.4552  -31.6536   25.0708 C   0  0  0  0  0  0
  -25.3670  -31.3802   26.1368 C   0  0  0  0  0  0
  -27.0445  -30.2895   24.6441 C   0  0  0  0  0  0
  -27.6040  -32.4361   25.7504 C   0  0  0  0  0  0
  -27.5562  -37.1765   24.8465 C   0  0  0  0  0  0
  -21.4343  -29.3044   22.3551 N   0  0  0  0  0  0
  -26.4263  -37.3704   23.9422 N   0  0  0  0  0  0
  -24.7488  -30.9947   22.0832 N   0  0  0  0  0  0
  -23.4237  -28.8002   23.3010 O   0  0  0  0  0  0
  -28.2346  -25.8666   20.2397 O   0  0  0  0  0  0
  -26.5711  -34.8891   22.4604 O   0  0  0  0  0  0
  -23.5696  -32.1212   23.6807 O   0  0  0  0  0  0
  -29.2636  -20.5704   19.0710 C   0  0  0  0  0  0
  -28.9083  -21.8967   21.3390 C   0  0  0  0  0  0
  -29.4834  -19.7173   20.2352 C   0  0  0  0  0  0
  -28.6878  -22.7484   20.1689 C   0  0  0  0  0  0
  -28.4388  -16.6249   21.0792 C   0  0  0  0  0  0
  -30.2320  -18.1399   20.2324 C   0  0  0  0  0  0
  -27.8704  -24.2858   20.0516 C   0  0  0  0  0  0
  -29.2990  -20.5171   21.3701 N   0  0  0  0  0  0
  -28.8823  -21.9434   19.0406 N   0  0  0  0  0  0
  -29.7648  -16.5732   20.4814 N   0  0  0  0  0  0
  -31.4567  -13.0274   19.1652 H   0  0  0  0  0  0
  -30.5410  -11.9119   20.1233 H   0  0  0  0  0  0
  -29.9107  -11.7433   17.6911 H   0  0  0  0  0  0
  -29.5475  -13.4518   17.6472 H   0  0  0  0  0  0
  -28.0445  -11.2641   19.1086 H   0  0  0  0  0  0
  -27.4066  -12.3197   17.8729 H   0  0  0  0  0  0
  -27.5316  -14.2167   19.3223 H   0  0  0  0  0  0
  -28.8512  -12.4536   21.4506 H   0  0  0  0  0  0
  -28.3061  -14.0680   21.7517 H   0  0  0  0  0  0
  -25.2776   -9.5653   22.4785 H   0  0  0  0  0  0
  -24.0009   -7.4598   22.7471 H   0  0  0  0  0  0
  -21.0866   -8.8801   19.8928 H   0  0  0  0  0  0
  -22.3766  -10.9682   19.6178 H   0  0  0  0  0  0
  -21.2002   -7.6147   23.9729 H   0  0  0  0  0  0
  -21.1463   -6.0509   25.9082 H   0  0  0  0  0  0
  -22.0608   -2.7612   23.2853 H   0  0  0  0  0  0
  -22.4035  -11.9821   22.4871 H   0  0  0  0  0  0
  -21.1018  -13.1164   22.2684 H   0  0  0  0  0  0
  -24.5856  -15.8227   20.4800 H   0  0  0  0  0  0
  -26.1929  -15.6297   20.0000 H   0  0  0  0  0  0
  -26.7379  -32.5141   23.0903 H   0  0  0  0  0  0
  -25.0073  -33.9490   25.0191 H   0  0  0  0  0  0
  -22.7882  -31.2678   21.3503 H   0  0  0  0  0  0
  -23.3765  -35.9546   23.3276 H   0  0  0  0  0  0
  -24.3557  -36.8893   22.2071 H   0  0  0  0  0  0
  -23.7243  -37.6398   23.6722 H   0  0  0  0  0  0
  -26.2193  -31.3858   20.6165 H   0  0  0  0  0  0
  -26.9066  -30.6984   22.0488 H   0  0  0  0  0  0
  -28.1589  -28.6323   21.2636 H   0  0  0  0  0  0
  -25.8695  -25.7539   19.0112 H   0  0  0  0  0  0
  -24.0022  -27.2670   18.9647 H   0  0  0  0  0  0
  -23.8680  -30.5257   19.3892 H   0  0  0  0  0  0
  -22.8265  -29.2072   19.8267 H   0  0  0  0  0  0
  -25.1313  -36.1761   25.0791 H   0  0  0  0  0  0
  -21.0028  -28.3356   24.1312 H   0  0  0  0  0  0
  -20.5693  -26.2370   23.3637 H   0  0  0  0  0  0
  -21.6653  -26.7406   22.1198 H   0  0  0  0  0  0
  -19.6934  -25.6277   21.1275 H   0  0  0  0  0  0
  -19.6708  -27.3164   20.6734 H   0  0  0  0  0  0
  -17.4214  -26.6680   21.4030 H   0  0  0  0  0  0
  -18.0343  -26.0092   22.9034 H   0  0  0  0  0  0
  -19.7985  -30.7330   24.2168 H   0  0  0  0  0  0
  -17.5049  -31.6268   24.5182 H   0  0  0  0  0  0
  -15.5383  -30.2974   23.7707 H   0  0  0  0  0  0
  -15.8697  -28.0827   22.7076 H   0  0  0  0  0  0
  -24.5861  -30.7134   25.7687 H   0  0  0  0  0  0
  -24.8861  -32.3017   26.4662 H   0  0  0  0  0  0
  -25.7894  -30.9061   27.0232 H   0  0  0  0  0  0
  -26.3109  -29.6577   24.1426 H   0  0  0  0  0  0
  -27.3943  -29.7252   25.5097 H   0  0  0  0  0  0
  -27.9051  -30.4069   23.9854 H   0  0  0  0  0  0
  -27.2597  -33.3723   26.1904 H   0  0  0  0  0  0
  -28.3923  -32.6824   25.0380 H   0  0  0  0  0  0
  -28.0612  -31.8612   26.5565 H   0  0  0  0  0  0
  -28.2551  -38.0086   24.7505 H   0  0  0  0  0  0
  -28.1082  -36.2613   24.6283 H   0  0  0  0  0  0
  -27.2285  -37.1378   25.8868 H   0  0  0  0  0  0
  -20.9614  -29.8755   21.6683 H   0  0  0  0  0  0
  -26.0118  -38.2760   24.1442 H   0  0  0  0  0  0
  -29.4370  -20.1430   18.0931 H   0  0  0  0  0  0
  -28.7218  -22.3213   22.3148 H   0  0  0  0  0  0
  -27.7755  -15.9510   20.5617 H   0  0  0  0  0  0
  -27.9722  -17.6075   21.0066 H   0  0  0  0  0  0
  -28.4806  -16.3541   22.1344 H   0  0  0  0  0  0
  -31.0692  -18.2629   20.9195 H   0  0  0  0  0  0
  -30.7144  -18.0975   19.2550 H   0  0  0  0  0  0
  -26.9846  -24.1465   20.6712 H   0  0  0  0  0  0
  -27.4911  -24.2511   19.0308 H   0  0  0  0  0  0
  1 25  1  0  0  0
  1 30  2  0  0  0
  1 80  1  0  0  0
  2  3  1  0  0  0
  2 25  1  0  0  0
  2 81  1  0  0  0
  2 82  1  0  0  0
  3  4  1  0  0  0
  3 83  1  0  0  0
  3 84  1  0  0  0
  4  5  1  0  0  0
  4 85  1  0  0  0
  4 86  1  0  0  0
  5  6  1  0  0  0
  5 26  1  0  0  0
  5 87  1  0  0  0
  6 25  1  0  0  0
  6 88  1  0  0  0
  6 89  1  0  0  0
  7  8  2  0  0  0
  7 26  1  0  0  0
  7 29  1  0  0  0
  8  9  1  0  0  0
  8 22  1  0  0  0
  9 10  1  0  0  0
  9 27  2  0  0  0
 10 11  2  0  0  0
 10 15  1  0  0  0
 11 12  1  0  0  0
 11 90  1  0  0  0
 12 13  2  0  0  0
 12 91  1  0  0  0
 13 14  1  0  0  0
 13 31  1  0  0  0
 14 15  2  0  0  0
 14 92  1  0  0  0
 15 93  1  0  0  0
 16 17  2  0  0  0
 16 21  1  0  0  0
 16 31  1  0  0  0
 17 18  1  0  0  0
 17 94  1  0  0  0
 18 19  2  0  0  0
 18 95  1  0  0  0
 19 20  1  0  0  0
 19 24  1  0  0  0
 20 21  2  0  0  0
 20 96  1  0  0  0
 21 23  1  0  0  0
 22 28  1  0  0  0
 22 32  2  0  0  0
 26 27  1  0  0  0
 28 97  1  0  0  0
 28 98  1  0  0  0
 29 99  1  0  0  0
 29100  1  0  0  0
 33 34  1  0  0  0
 33 66  1  0  0  0
 33 70  2  0  0  0
 34 36  1  0  0  0
 34 59  1  0  0  0
 34101  1  0  0  0
 35 44  2  0  0  0
 35 45  1  0  0  0
 35 68  1  0  0  0
 36 56  1  0  0  0
 36102  1  0  0  0
 37 39  1  0  0  0
 37 47  1  0  0  0
 37 66  1  0  0  0
 37103  1  0  0  0
 38 43  2  0  0  0
 38 46  1  0  0  0
 38 47  1  0  0  0
 39 64  1  0  0  0
 39 67  2  0  0  0
 40 52  1  0  0  0
 40 53  2  0  0  0
 40 58  1  0  0  0
 41104  1  0  0  0
 41105  1  0  0  0
 41106  1  0  0  0
 41 48  1  0  0  0
 42 43  1  0  0  0
 42 66  1  0  0  0
 42107  1  0  0  0
 42108  1  0  0  0
 43 44  1  0  0  0
 44109  1  0  0  0
 45 46  2  0  0  0
 45110  1  0  0  0
 46111  1  0  0  0
 47112  1  0  0  0
 47113  1  0  0  0
 48 56  1  0  0  0
 48 65  1  0  0  0
 48114  1  0  0  0
 49 50  1  0  0  0
 49 53  1  0  0  0
 49 64  1  0  0  0
 49115  1  0  0  0
 50 51  1  0  0  0
 50116  1  0  0  0
 50117  1  0  0  0
 51 52  1  0  0  0
 51118  1  0  0  0
 51119  1  0  0  0
 52120  1  0  0  0
 52121  1  0  0  0
 53 54  1  0  0  0
 54 55  2  0  0  0
 54122  1  0  0  0
 55 57  1  0  0  0
 55123  1  0  0  0
 56 69  2  0  0  0
 57 58  2  0  0  0
 57124  1  0  0  0
 58125  1  0  0  0
 59 60  1  0  0  0
 59 61  1  0  0  0
 59 62  1  0  0  0
 60126  1  0  0  0
 60127  1  0  0  0
 60128  1  0  0  0
 61129  1  0  0  0
 61130  1  0  0  0
 61131  1  0  0  0
 62132  1  0  0  0
 62133  1  0  0  0
 62134  1  0  0  0
 63 65  1  0  0  0
 63135  1  0  0  0
 63136  1  0  0  0
 63137  1  0  0  0
 64138  1  0  0  0
 65139  1  0  0  0
 68 77  1  0  0  0
 71 73  2  0  0  0
 71 79  1  0  0  0
 71140  1  0  0  0
 72 74  1  0  0  0
 72 78  2  0  0  0
 72141  1  0  0  0
 73 76  1  0  0  0
 73 78  1  0  0  0
 74 77  1  0  0  0
 74 79  2  0  0  0
 75 80  1  0  0  0
 75142  1  0  0  0
 75143  1  0  0  0
 75144  1  0  0  0
 76 80  1  0  0  0
 76145  1  0  0  0
 76146  1  0  0  0
 77147  1  0  0  0
 77148  1  0  0  0
M  ISO  4   1 100  68 101  77 101  80 100
M  END
> <chiral flag>
0

> <version>
0

> <s_m_source_file>
/data/baiqing/PycharmProjects/Reinvent-master-3.2/result/LINK_invent/BTK/process_docking_weight1_custom_sum_contain_oxygen_bond_distance_aromatic_linkinvent_7_9_3/rearranged_h_0057.sdf

> <i_m_source_file_index>
15

> <r_mmod_Potential_Energy-OPLS-2005>
1307.60070800781

> <r_mmod_Stretch_Energy-OPLS-2005>
499.997161865234

> <r_mmod_Bend_Energy-OPLS-2005>
429.736389160156

> <r_mmod_Torsional_Energy-OPLS-2005>
258.079956054688

> <r_mmod_Improper_Torsional_Energy-OPLS-2005>
10.5004959106445

> <r_mmod_Van_der_Waal_Energy-OPLS-2005>
142.201171875

> <r_mmod_Electrostatic_Energy-OPLS-2005>
-229.592208862305

> <r_mmod_Solvation_Energy-OPLS-2005>
-227.890609741211

> <b_mmod_Minimization_Converged-OPLS-2005>
0

> <r_mmod_RMS_Derivative-OPLS-2005>
1.98256230354309

$$$$
15
                    3D
 Structure written by MMmdl.
159167  0  0  1  0            999 V2000
  -30.7357  -14.3755   20.6455 C   0  0  0  0  0  0
  -30.4244  -12.2747   19.3973 C   0  0  0  0  0  0
  -29.4922  -12.5154   18.1933 C   0  0  0  0  0  0
  -28.0105  -12.3904   18.6038 C   0  0  0  0  0  0
  -27.6710  -13.1986   19.8847 C   0  0  2  0  0  0
  -28.7097  -12.9160   20.9930 C   0  0  0  0  0  0
  -25.2646  -13.8144   20.5686 C   0  0  0  0  0  0
  -24.1886  -13.0437   20.9170 C   0  0  0  0  0  0
  -24.6423  -11.6896   20.8735 C   0  0  0  0  0  0
  -23.9086  -10.4288   21.0411 C   0  0  0  0  0  0
  -24.3634   -9.4200   21.9187 C   0  0  0  0  0  0
  -23.6302   -8.2243   22.0760 C   0  0  0  0  0  0
  -22.4282   -8.0291   21.3552 C   0  0  0  0  0  0
  -21.9924   -9.0267   20.4653 C   0  0  0  0  0  0
  -22.7263  -10.2139   20.3057 C   0  0  0  0  0  0
  -21.6849   -6.0747   22.5281 C   0  0  0  0  0  0
  -21.4018   -6.5650   23.8219 C   0  0  0  0  0  0
  -21.3654   -5.6796   24.9177 C   0  0  0  0  0  0
  -21.6039   -4.3058   24.7224 C   0  0  0  0  0  0
  -21.8822   -3.8155   23.4344 C   0  0  0  0  0  0
  -21.9198   -4.6976   22.3402 C   0  0  0  0  0  0
  -22.7911  -13.5251   21.1822 C   0  0  0  0  0  0
  -22.1663   -4.2166   21.0977 F   0  0  0  0  0  0
  -21.5623   -3.4537   25.7734 F   0  0  0  0  0  0
  -30.0499  -13.2198   20.4565 N   0  0  0  0  0  0
  -26.3079  -12.9296   20.3392 N   0  0  0  0  0  0
  -25.9343  -11.6461   20.5761 N   0  0  0  0  0  0
  -22.0532  -12.8245   22.0359 N   0  0  0  0  0  0
  -25.4389  -15.1862   20.4124 N   0  0  0  0  0  0
  -31.7970  -14.6448   20.0761 O   0  0  0  0  0  0
  -21.6640   -6.8893   21.4247 O   0  0  0  0  0  0
  -22.3608  -14.5563   20.6665 O   0  0  0  0  0  0
  -24.6116  -31.8710   23.2126 C   0  0  0  0  0  0
  -25.9020  -32.4843   23.8417 C   0  0  1  0  0  0
  -27.2335  -27.4767   20.1011 C   0  0  0  0  0  0
  -25.5888  -33.8640   24.2342 N   0  0  0  0  0  0
  -23.3972  -30.4941   21.5522 C   0  0  2  0  0  0
  -24.8438  -28.9653   20.1141 C   0  0  0  0  0  0
  -22.7394  -29.4673   22.5013 C   0  0  0  0  0  0
  -18.0271  -28.1385   22.8484 C   0  0  0  0  0  0
  -24.1489  -36.7326   23.2641 C   0  0  0  0  0  0
  -25.9205  -30.8532   21.3558 C   0  0  0  0  0  0
  -25.9995  -29.4890   20.7073 C   0  0  0  0  0  0
  -27.2009  -28.7523   20.6975 C   0  0  0  0  0  0
  -26.0681  -26.9535   19.5042 C   0  0  0  0  0  0
  -24.8705  -27.6951   19.5085 C   0  0  0  0  0  0
  -23.6021  -29.8261   20.1657 C   0  0  0  0  0  0
  -25.4107  -36.3126   24.0342 C   0  0  1  0  0  0
  -20.5856  -28.3657   23.1337 C   0  0  2  0  0  0
  -20.6767  -26.9398   22.5430 C   0  0  0  0  0  0
  -19.5741  -26.6394   21.5234 C   0  0  0  0  0  0
  -18.1913  -26.7931   22.1622 C   0  0  0  0  0  0
  -19.1518  -28.8835   23.2904 C   0  0  0  0  0  0
  -18.9441  -30.1440   23.8915 C   0  0  0  0  0  0
  -17.6445  -30.6582   24.0567 C   0  0  0  0  0  0
  -25.9034  -34.9487   23.5142 C   0  0  0  0  0  0
  -16.5340  -29.9087   23.6324 C   0  0  0  0  0  0
  -16.7261  -28.6509   23.0336 C   0  0  0  0  0  0
  -26.4449  -31.6611   25.0729 C   0  0  0  0  0  0
  -25.3713  -31.3699   26.1476 C   0  0  0  0  0  0
  -27.0274  -30.3068   24.6063 C   0  0  0  0  0  0
  -27.6044  -32.4313   25.7474 C   0  0  0  0  0  0
  -27.5573  -37.1818   24.8463 C   0  0  0  0  0  0
  -21.4129  -29.3025   22.3746 N   0  0  0  0  0  0
  -26.4289  -37.3810   23.9408 N   0  0  0  0  0  0
  -24.6613  -31.0864   22.0997 N   0  0  0  0  0  0
  -23.4178  -28.8224   23.3053 O   0  0  0  0  0  0
  -28.3935  -26.7511   20.1011 O   0  0  0  0  0  0
  -26.5608  -34.8923   22.4712 O   0  0  0  0  0  0
  -23.5317  -32.1431   23.7558 O   0  0  0  0  0  0
  -29.8275  -23.1342   22.2113 C   0  0  0  0  0  0
  -28.8238  -21.2405   22.0992 C   0  0  0  0  0  0
  -28.3440  -22.0201   21.0581 C   0  0  0  0  0  0
  -28.5179  -19.8156   22.4747 C   0  0  0  0  0  0
  -28.9101  -24.4061   20.2814 C   0  0  0  0  0  0
  -30.5272  -16.6483   21.6273 C   0  0  0  0  0  0
  -29.3155  -17.5056   22.0383 C   0  0  0  0  0  0
  -28.3811  -25.6490   21.0055 C   0  0  0  0  0  0
  -27.3443  -21.7244   19.9735 C   0  0  0  0  0  0
  -29.7798  -21.9562   22.8234 N   0  0  0  0  0  0
  -29.0104  -23.2462   21.1566 N   0  0  0  0  0  0
  -30.1316  -15.2541   21.4527 N   0  0  0  0  0  0
  -29.6352  -18.9477   22.0589 N   0  3  0  0  0  0
  -26.8538  -20.4899   20.0559 F   0  0  0  0  0  0
  -26.3104  -22.5631   20.0258 F   0  0  0  0  0  0
  -27.8954  -21.8364   18.7655 F   0  0  0  0  0  0
  -31.4688  -12.3757   19.0965 H   0  0  0  0  0  0
  -30.3224  -11.2511   19.7614 H   0  0  0  0  0  0
  -29.7186  -11.8065   17.3962 H   0  0  0  0  0  0
  -29.6762  -13.5086   17.7816 H   0  0  0  0  0  0
  -27.7950  -11.3334   18.7634 H   0  0  0  0  0  0
  -27.3681  -12.7081   17.7818 H   0  0  0  0  0  0
  -27.7367  -14.2563   19.6283 H   0  0  0  0  0  0
  -28.6717  -11.8631   21.2778 H   0  0  0  0  0  0
  -28.4676  -13.4619   21.9052 H   0  0  0  0  0  0
  -25.2783   -9.5665   22.4759 H   0  0  0  0  0  0
  -24.0009   -7.4630   22.7476 H   0  0  0  0  0  0
  -21.0855   -8.8800   19.8954 H   0  0  0  0  0  0
  -22.3740  -10.9687   19.6164 H   0  0  0  0  0  0
  -21.2012   -7.6159   23.9732 H   0  0  0  0  0  0
  -21.1467   -6.0520   25.9081 H   0  0  0  0  0  0
  -22.0607   -2.7622   23.2837 H   0  0  0  0  0  0
  -22.4126  -11.9890   22.4737 H   0  0  0  0  0  0
  -21.1150  -13.1278   22.2551 H   0  0  0  0  0  0
  -24.6697  -15.8385   20.5185 H   0  0  0  0  0  0
  -26.2808  -15.6197   20.0550 H   0  0  0  0  0  0
  -26.7099  -32.5566   23.1192 H   0  0  0  0  0  0
  -25.0030  -33.9820   25.0474 H   0  0  0  0  0  0
  -22.6848  -31.3097   21.4129 H   0  0  0  0  0  0
  -23.3745  -35.9668   23.3329 H   0  0  0  0  0  0
  -24.3588  -36.8922   22.2053 H   0  0  0  0  0  0
  -23.7240  -37.6538   23.6638 H   0  0  0  0  0  0
  -26.0250  -31.6184   20.5851 H   0  0  0  0  0  0
  -26.8124  -30.9117   21.9674 H   0  0  0  0  0  0
  -28.0952  -29.1525   21.1518 H   0  0  0  0  0  0
  -26.0895  -25.9776   19.0399 H   0  0  0  0  0  0
  -23.9824  -27.2859   19.0477 H   0  0  0  0  0  0
  -23.7022  -30.6004   19.4038 H   0  0  0  0  0  0
  -22.7280  -29.2409   19.8749 H   0  0  0  0  0  0
  -25.1280  -36.2008   25.0834 H   0  0  0  0  0  0
  -20.9943  -28.3220   24.1462 H   0  0  0  0  0  0
  -20.5706  -26.2253   23.3599 H   0  0  0  0  0  0
  -21.6628  -26.7465   22.1197 H   0  0  0  0  0  0
  -19.6909  -25.6325   21.1212 H   0  0  0  0  0  0
  -19.6694  -27.3238   20.6796 H   0  0  0  0  0  0
  -17.4198  -26.6699   21.4008 H   0  0  0  0  0  0
  -18.0276  -26.0080   22.9009 H   0  0  0  0  0  0
  -19.7927  -30.7246   24.2290 H   0  0  0  0  0  0
  -17.5009  -31.6260   24.5176 H   0  0  0  0  0  0
  -15.5343  -30.2994   23.7644 H   0  0  0  0  0  0
  -15.8658  -28.0841   22.7035 H   0  0  0  0  0  0
  -24.5905  -30.7021   25.7806 H   0  0  0  0  0  0
  -24.8866  -32.2842   26.4915 H   0  0  0  0  0  0
  -25.8061  -30.8870   27.0237 H   0  0  0  0  0  0
  -26.2803  -29.6846   24.1117 H   0  0  0  0  0  0
  -27.4079  -29.7281   25.4494 H   0  0  0  0  0  0
  -27.8613  -30.4424   23.9169 H   0  0  0  0  0  0
  -27.2697  -33.3619   26.2068 H   0  0  0  0  0  0
  -28.3826  -32.6878   25.0270 H   0  0  0  0  0  0
  -28.0736  -31.8422   26.5364 H   0  0  0  0  0  0
  -28.2611  -38.0096   24.7514 H   0  0  0  0  0  0
  -28.1043  -36.2633   24.6281 H   0  0  0  0  0  0
  -27.2295  -37.1474   25.8866 H   0  0  0  0  0  0
  -20.9281  -29.8739   21.6957 H   0  0  0  0  0  0
  -26.0184  -38.2893   24.1400 H   0  0  0  0  0  0
  -30.4868  -23.9315   22.5272 H   0  0  0  0  0  0
  -27.5822  -19.4767   22.0358 H   0  0  0  0  0  0
  -28.3841  -19.7251   23.5537 H   0  0  0  0  0  0
  -29.9017  -24.6085   19.8765 H   0  0  0  0  0  0
  -28.2672  -24.1834   19.4314 H   0  0  0  0  0  0
  -31.3166  -16.7052   22.3791 H   0  0  0  0  0  0
  -30.9470  -17.0311   20.6941 H   0  0  0  0  0  0
  -28.9559  -17.1988   23.0220 H   0  0  0  0  0  0
  -28.4975  -17.3407   21.3347 H   0  0  0  0  0  0
  -29.0179  -25.8991   21.8545 H   0  0  0  0  0  0
  -27.3888  -25.4465   21.4154 H   0  0  0  0  0  0
  -29.2669  -14.9495   21.8757 H   0  0  0  0  0  0
  -30.4097  -19.1288   22.6766 H   0  0  0  0  0  0
  -29.9128  -19.2313   21.1348 H   0  0  0  0  0  0
  1 25  1  0  0  0
  1 30  2  0  0  0
  1 82  1  0  0  0
  2  3  1  0  0  0
  2 25  1  0  0  0
  2 87  1  0  0  0
  2 88  1  0  0  0
  3  4  1  0  0  0
  3 89  1  0  0  0
  3 90  1  0  0  0
  4  5  1  0  0  0
  4 91  1  0  0  0
  4 92  1  0  0  0
  5  6  1  0  0  0
  5 26  1  0  0  0
  5 93  1  0  0  0
  6 25  1  0  0  0
  6 94  1  0  0  0
  6 95  1  0  0  0
  7  8  2  0  0  0
  7 26  1  0  0  0
  7 29  1  0  0  0
  8  9  1  0  0  0
  8 22  1  0  0  0
  9 10  1  0  0  0
  9 27  2  0  0  0
 10 11  2  0  0  0
 10 15  1  0  0  0
 11 12  1  0  0  0
 11 96  1  0  0  0
 12 13  2  0  0  0
 12 97  1  0  0  0
 13 14  1  0  0  0
 13 31  1  0  0  0
 14 15  2  0  0  0
 14 98  1  0  0  0
 15 99  1  0  0  0
 16 17  2  0  0  0
 16 21  1  0  0  0
 16 31  1  0  0  0
 17 18  1  0  0  0
 17100  1  0  0  0
 18 19  2  0  0  0
 18101  1  0  0  0
 19 20  1  0  0  0
 19 24  1  0  0  0
 20 21  2  0  0  0
 20102  1  0  0  0
 21 23  1  0  0  0
 22 28  1  0  0  0
 22 32  2  0  0  0
 26 27  1  0  0  0
 28103  1  0  0  0
 28104  1  0  0  0
 29105  1  0  0  0
 29106  1  0  0  0
 33 34  1  0  0  0
 33 66  1  0  0  0
 33 70  2  0  0  0
 34 36  1  0  0  0
 34 59  1  0  0  0
 34107  1  0  0  0
 35 44  2  0  0  0
 35 45  1  0  0  0
 35 68  1  0  0  0
 36 56  1  0  0  0
 36108  1  0  0  0
 37 39  1  0  0  0
 37 47  1  0  0  0
 37 66  1  0  0  0
 37109  1  0  0  0
 38 43  2  0  0  0
 38 46  1  0  0  0
 38 47  1  0  0  0
 39 64  1  0  0  0
 39 67  2  0  0  0
 40 52  1  0  0  0
 40 53  2  0  0  0
 40 58  1  0  0  0
 41110  1  0  0  0
 41111  1  0  0  0
 41112  1  0  0  0
 41 48  1  0  0  0
 42 43  1  0  0  0
 42 66  1  0  0  0
 42113  1  0  0  0
 42114  1  0  0  0
 43 44  1  0  0  0
 44115  1  0  0  0
 45 46  2  0  0  0
 45116  1  0  0  0
 46117  1  0  0  0
 47118  1  0  0  0
 47119  1  0  0  0
 48 56  1  0  0  0
 48 65  1  0  0  0
 48120  1  0  0  0
 49 50  1  0  0  0
 49 53  1  0  0  0
 49 64  1  0  0  0
 49121  1  0  0  0
 50 51  1  0  0  0
 50122  1  0  0  0
 50123  1  0  0  0
 51 52  1  0  0  0
 51124  1  0  0  0
 51125  1  0  0  0
 52126  1  0  0  0
 52127  1  0  0  0
 53 54  1  0  0  0
 54 55  2  0  0  0
 54128  1  0  0  0
 55 57  1  0  0  0
 55129  1  0  0  0
 56 69  2  0  0  0
 57 58  2  0  0  0
 57130  1  0  0  0
 58131  1  0  0  0
 59 60  1  0  0  0
 59 61  1  0  0  0
 59 62  1  0  0  0
 60132  1  0  0  0
 60133  1  0  0  0
 60134  1  0  0  0
 61135  1  0  0  0
 61136  1  0  0  0
 61137  1  0  0  0
 62138  1  0  0  0
 62139  1  0  0  0
 62140  1  0  0  0
 63 65  1  0  0  0
 63141  1  0  0  0
 63142  1  0  0  0
 63143  1  0  0  0
 64144  1  0  0  0
 65145  1  0  0  0
 68 78  1  0  0  0
 71 80  2  0  0  0
 71 81  1  0  0  0
 71146  1  0  0  0
 72 73  2  0  0  0
 72 74  1  0  0  0
 72 80  1  0  0  0
 73 79  1  0  0  0
 73 81  1  0  0  0
 74 83  1  0  0  0
 74147  1  0  0  0
 74148  1  0  0  0
 75 78  1  0  0  0
 75 81  1  0  0  0
 75149  1  0  0  0
 75150  1  0  0  0
 76 77  1  0  0  0
 76 82  1  0  0  0
 76151  1  0  0  0
 76152  1  0  0  0
 77 83  1  0  0  0
 77153  1  0  0  0
 77154  1  0  0  0
 78155  1  0  0  0
 78156  1  0  0  0
 79 84  1  0  0  0
 79 85  1  0  0  0
 79 86  1  0  0  0
 82157  1  0  0  0
 83158  1  0  0  0
 83159  1  0  0  0
M  CHG  1  83   1
M  ISO  4   1 100  68 101  78 101  82 100
M  END
> <chiral flag>
0

> <version>
0

> <s_m_source_file>
/data/baiqing/PycharmProjects/Reinvent-master-3.2/result/LINK_invent/BTK/process_docking_weight1_custom_sum_contain_oxygen_bond_distance_aromatic_linkinvent_7_9_3/rearranged_h_0057.sdf

> <i_m_source_file_index>
16

> <r_mmod_Potential_Energy-OPLS-2005>
-392.353729248047

> <r_mmod_Stretch_Energy-OPLS-2005>
30.6855506896973

> <r_mmod_Bend_Energy-OPLS-2005>
90.7604675292969

> <r_mmod_Torsional_Energy-OPLS-2005>
226.527008056641

> <r_mmod_Improper_Torsional_Energy-OPLS-2005>
2.63543128967285

> <r_mmod_Van_der_Waal_Energy-OPLS-2005>
128.487869262695

> <r_mmod_Electrostatic_Energy-OPLS-2005>
-392.587615966797

> <r_mmod_Solvation_Energy-OPLS-2005>
-485.832672119141

> <b_mmod_Minimization_Converged-OPLS-2005>
0

> <r_mmod_RMS_Derivative-OPLS-2005>
1.8497120141983

$$$$
16
                    3D
 Structure written by MMmdl.
154162  0  0  1  0            999 V2000
  -30.5892  -14.9502   20.4177 C   0  0  0  0  0  0
  -30.4346  -12.5770   19.5129 C   0  0  0  0  0  0
  -29.5230  -12.5203   18.2652 C   0  0  0  0  0  0
  -28.0605  -12.2836   18.6812 C   0  0  0  0  0  0
  -27.6288  -13.2292   19.8293 C   0  0  2  0  0  0
  -28.6734  -13.2929   20.9714 C   0  0  0  0  0  0
  -25.2414  -13.8129   20.5580 C   0  0  0  0  0  0
  -24.1762  -13.0370   20.9232 C   0  0  0  0  0  0
  -24.6408  -11.6872   20.8806 C   0  0  0  0  0  0
  -23.9093  -10.4251   21.0447 C   0  0  0  0  0  0
  -24.3627   -9.4156   21.9221 C   0  0  0  0  0  0
  -23.6281   -8.2201   22.0775 C   0  0  0  0  0  0
  -22.4263   -8.0264   21.3551 C   0  0  0  0  0  0
  -21.9917   -9.0255   20.4656 C   0  0  0  0  0  0
  -22.7269  -10.2121   20.3085 C   0  0  0  0  0  0
  -21.6847   -6.0720   22.5267 C   0  0  0  0  0  0
  -21.3992   -6.5623   23.8198 C   0  0  0  0  0  0
  -21.3670   -5.6777   24.9166 C   0  0  0  0  0  0
  -21.6062   -4.3041   24.7220 C   0  0  0  0  0  0
  -21.8816   -3.8134   23.4342 C   0  0  0  0  0  0
  -21.9183   -4.6948   22.3394 C   0  0  0  0  0  0
  -22.7791  -13.5161   21.1906 C   0  0  0  0  0  0
  -22.1664   -4.2133   21.0980 F   0  0  0  0  0  0
  -21.5651   -3.4523   25.7733 F   0  0  0  0  0  0
  -29.9610  -13.6964   20.3863 N   0  0  0  0  0  0
  -26.2872  -12.9353   20.3207 N   0  0  0  0  0  0
  -25.9332  -11.6508   20.5796 N   0  0  0  0  0  0
  -22.0459  -12.8151   22.0477 N   0  0  0  0  0  0
  -25.3889  -15.1826   20.3757 N   0  0  0  0  0  0
  -31.7859  -14.9034   20.1144 O   0  0  0  0  0  0
  -21.6634   -6.8859   21.4224 O   0  0  0  0  0  0
  -22.3471  -14.5471   20.6763 O   0  0  0  0  0  0
  -24.6401  -31.8447   23.1907 C   0  0  0  0  0  0
  -25.9196  -32.4677   23.8275 C   0  0  1  0  0  0
  -27.2254  -27.1642   20.1428 C   0  0  0  0  0  0
  -25.5965  -33.8480   24.2193 N   0  0  0  0  0  0
  -23.4417  -30.4649   21.5352 C   0  0  2  0  0  0
  -24.8926  -28.8978   20.1058 C   0  0  0  0  0  0
  -22.7543  -29.4551   22.4877 C   0  0  0  0  0  0
  -18.0301  -28.1359   22.8493 C   0  0  0  0  0  0
  -24.1503  -36.7249   23.2645 C   0  0  0  0  0  0
  -25.9972  -30.7229   21.3910 C   0  0  0  0  0  0
  -26.0666  -29.3391   20.7289 C   0  0  0  0  0  0
  -27.2296  -28.4857   20.7367 C   0  0  0  0  0  0
  -26.0311  -26.8271   19.4647 C   0  0  0  0  0  0
  -24.8874  -27.6532   19.4588 C   0  0  0  0  0  0
  -23.6652  -29.7935   20.1538 C   0  0  0  0  0  0
  -25.4132  -36.3022   24.0323 C   0  0  1  0  0  0
  -20.5914  -28.3694   23.1241 C   0  0  2  0  0  0
  -20.6792  -26.9401   22.5407 C   0  0  0  0  0  0
  -19.5765  -26.6361   21.5210 C   0  0  0  0  0  0
  -18.1943  -26.7906   22.1617 C   0  0  0  0  0  0
  -19.1557  -28.8848   23.2854 C   0  0  0  0  0  0
  -18.9469  -30.1451   23.8868 C   0  0  0  0  0  0
  -17.6464  -30.6570   24.0549 C   0  0  0  0  0  0
  -25.9078  -34.9401   23.5065 C   0  0  0  0  0  0
  -16.5359  -29.9057   23.6336 C   0  0  0  0  0  0
  -16.7285  -28.6467   23.0376 C   0  0  0  0  0  0
  -26.4542  -31.6529   25.0705 C   0  0  0  0  0  0
  -25.3743  -31.3696   26.1409 C   0  0  0  0  0  0
  -27.0416  -30.2926   24.6292 C   0  0  0  0  0  0
  -27.6060  -32.4311   25.7484 C   0  0  0  0  0  0
  -27.5587  -37.1779   24.8467 C   0  0  0  0  0  0
  -21.4243  -29.3025   22.3619 N   0  0  0  0  0  0
  -26.4299  -37.3738   23.9403 N   0  0  0  0  0  0
  -24.7116  -31.0324   22.0927 N   0  0  0  0  0  0
  -23.4197  -28.8117   23.3031 O   0  0  0  0  0  0
  -28.2924  -26.2034   20.2462 O   0  0  0  0  0  0
  -26.5668  -34.8900   22.4641 O   0  0  0  0  0  0
  -23.5528  -32.1326   23.7138 O   0  0  0  0  0  0
  -31.4874  -19.9120   19.9219 C   0  0  0  0  0  0
  -32.4304  -18.8759   19.7814 C   0  0  0  0  0  0
  -30.3091  -19.3225   20.2966 C   0  0  0  0  0  0
  -28.4559  -16.5519   20.1996 C   0  0  0  0  0  0
  -29.1103  -20.3397   20.6380 C   0  0  0  0  0  0
  -28.8994  -21.8427   19.9011 C   0  0  0  0  0  0
  -28.8973  -23.3806   20.5697 C   0  0  0  0  0  0
  -28.1348  -24.7059   19.8815 C   0  0  0  0  0  0
  -29.8978  -16.4699   20.7116 C   0  0  2  0  0  0
  -31.9020  -17.6994   20.0220 N   0  0  0  0  0  0
  -30.5884  -17.8465   20.3335 N   0  0  0  0  0  0
  -31.4717  -12.6962   19.1974 H   0  0  0  0  0  0
  -30.4031  -11.6310   20.0557 H   0  0  0  0  0  0
  -29.8532  -11.7313   17.5890 H   0  0  0  0  0  0
  -29.6024  -13.4548   17.7075 H   0  0  0  0  0  0
  -27.9746  -11.2466   19.0075 H   0  0  0  0  0  0
  -27.3960  -12.3887   17.8231 H   0  0  0  0  0  0
  -27.5733  -14.2014   19.3493 H   0  0  0  0  0  0
  -28.7621  -12.3284   21.4733 H   0  0  0  0  0  0
  -28.3686  -13.9967   21.7454 H   0  0  0  0  0  0
  -25.2770   -9.5610   22.4806 H   0  0  0  0  0  0
  -23.9977   -7.4575   22.7487 H   0  0  0  0  0  0
  -21.0865   -8.8810   19.8938 H   0  0  0  0  0  0
  -22.3776  -10.9682   19.6204 H   0  0  0  0  0  0
  -21.1970   -7.6129   23.9692 H   0  0  0  0  0  0
  -21.1518   -6.0518   25.9071 H   0  0  0  0  0  0
  -22.0590   -2.7596   23.2851 H   0  0  0  0  0  0
  -22.4065  -11.9790   22.4821 H   0  0  0  0  0  0
  -21.1111  -13.1228   22.2751 H   0  0  0  0  0  0
  -24.6068  -15.8211   20.4623 H   0  0  0  0  0  0
  -26.2139  -15.6194   19.9848 H   0  0  0  0  0  0
  -26.7266  -32.5284   23.0999 H   0  0  0  0  0  0
  -25.0112  -33.9587   25.0347 H   0  0  0  0  0  0
  -22.7440  -31.2906   21.3821 H   0  0  0  0  0  0
  -23.3772  -35.9569   23.3284 H   0  0  0  0  0  0
  -24.3597  -36.8897   22.2063 H   0  0  0  0  0  0
  -23.7251  -37.6439   23.6689 H   0  0  0  0  0  0
  -26.1645  -31.4810   20.6255 H   0  0  0  0  0  0
  -26.8623  -30.7592   22.0410 H   0  0  0  0  0  0
  -28.1203  -28.8153   21.2529 H   0  0  0  0  0  0
  -25.9402  -25.8886   18.9411 H   0  0  0  0  0  0
  -23.9968  -27.3110   18.9484 H   0  0  0  0  0  0
  -23.7919  -30.5660   19.3949 H   0  0  0  0  0  0
  -22.7807  -29.2299   19.8494 H   0  0  0  0  0  0
  -25.1317  -36.1858   25.0822 H   0  0  0  0  0  0
  -21.0007  -28.3278   24.1357 H   0  0  0  0  0  0
  -20.5682  -26.2300   23.3612 H   0  0  0  0  0  0
  -21.6658  -26.7407   22.1200 H   0  0  0  0  0  0
  -19.6930  -25.6266   21.1244 H   0  0  0  0  0  0
  -19.6701  -27.3170   20.6734 H   0  0  0  0  0  0
  -17.4222  -26.6666   21.4014 H   0  0  0  0  0  0
  -18.0335  -26.0026   22.8989 H   0  0  0  0  0  0
  -19.7947  -30.7279   24.2214 H   0  0  0  0  0  0
  -17.5015  -31.6252   24.5141 H   0  0  0  0  0  0
  -15.5358  -30.2942   23.7663 H   0  0  0  0  0  0
  -15.8688  -28.0758   22.7120 H   0  0  0  0  0  0
  -24.5912  -30.7063   25.7726 H   0  0  0  0  0  0
  -24.8959  -32.2870   26.4844 H   0  0  0  0  0  0
  -25.8051  -30.8852   27.0184 H   0  0  0  0  0  0
  -26.3038  -29.6622   24.1328 H   0  0  0  0  0  0
  -27.4059  -29.7247   25.4864 H   0  0  0  0  0  0
  -27.8935  -30.4150   23.9601 H   0  0  0  0  0  0
  -27.2632  -33.3611   26.2028 H   0  0  0  0  0  0
  -28.3882  -32.6872   25.0326 H   0  0  0  0  0  0
  -28.0727  -31.8475   26.5429 H   0  0  0  0  0  0
  -28.2589  -38.0093   24.7528 H   0  0  0  0  0  0
  -28.1105  -36.2623   24.6281 H   0  0  0  0  0  0
  -27.2305  -37.1405   25.8872 H   0  0  0  0  0  0
  -20.9441  -29.8709   21.6786 H   0  0  0  0  0  0
  -26.0169  -38.2812   24.1387 H   0  0  0  0  0  0
  -31.6705  -20.9725   19.8083 H   0  0  0  0  0  0
  -33.4803  -18.9420   19.5274 H   0  0  0  0  0  0
  -28.0225  -17.5376   20.3537 H   0  0  0  0  0  0
  -27.8262  -15.8744   20.7600 H   0  0  0  0  0  0
  -28.3897  -16.3288   19.1344 H   0  0  0  0  0  0
  -29.1335  -20.5149   21.7121 H   0  0  0  0  0  0
  -28.1789  -19.7949   20.4897 H   0  0  0  0  0  0
  -27.9034  -21.7637   19.4656 H   0  0  0  0  0  0
  -29.5401  -21.8686   19.0206 H   0  0  0  0  0  0
  -29.9422  -23.6525   20.7149 H   0  0  0  0  0  0
  -28.4932  -23.2879   21.5785 H   0  0  0  0  0  0
  -27.0806  -24.4564   19.9718 H   0  0  0  0  0  0
  -28.3428  -24.6625   18.8123 H   0  0  0  0  0  0
  -29.8373  -16.5007   21.7999 H   0  0  0  0  0  0
  1 25  1  0  0  0
  1 30  2  0  0  0
  1 79  1  0  0  0
  2  3  1  0  0  0
  2 25  1  0  0  0
  2 82  1  0  0  0
  2 83  1  0  0  0
  3  4  1  0  0  0
  3 84  1  0  0  0
  3 85  1  0  0  0
  4  5  1  0  0  0
  4 86  1  0  0  0
  4 87  1  0  0  0
  5  6  1  0  0  0
  5 26  1  0  0  0
  5 88  1  0  0  0
  6 25  1  0  0  0
  6 89  1  0  0  0
  6 90  1  0  0  0
  7  8  2  0  0  0
  7 26  1  0  0  0
  7 29  1  0  0  0
  8  9  1  0  0  0
  8 22  1  0  0  0
  9 10  1  0  0  0
  9 27  2  0  0  0
 10 11  2  0  0  0
 10 15  1  0  0  0
 11 12  1  0  0  0
 11 91  1  0  0  0
 12 13  2  0  0  0
 12 92  1  0  0  0
 13 14  1  0  0  0
 13 31  1  0  0  0
 14 15  2  0  0  0
 14 93  1  0  0  0
 15 94  1  0  0  0
 16 17  2  0  0  0
 16 21  1  0  0  0
 16 31  1  0  0  0
 17 18  1  0  0  0
 17 95  1  0  0  0
 18 19  2  0  0  0
 18 96  1  0  0  0
 19 20  1  0  0  0
 19 24  1  0  0  0
 20 21  2  0  0  0
 20 97  1  0  0  0
 21 23  1  0  0  0
 22 28  1  0  0  0
 22 32  2  0  0  0
 26 27  1  0  0  0
 28 98  1  0  0  0
 28 99  1  0  0  0
 29100  1  0  0  0
 29101  1  0  0  0
 33 34  1  0  0  0
 33 66  1  0  0  0
 33 70  2  0  0  0
 34 36  1  0  0  0
 34 59  1  0  0  0
 34102  1  0  0  0
 35 44  2  0  0  0
 35 45  1  0  0  0
 35 68  1  0  0  0
 36 56  1  0  0  0
 36103  1  0  0  0
 37 39  1  0  0  0
 37 47  1  0  0  0
 37 66  1  0  0  0
 37104  1  0  0  0
 38 43  2  0  0  0
 38 46  1  0  0  0
 38 47  1  0  0  0
 39 64  1  0  0  0
 39 67  2  0  0  0
 40 52  1  0  0  0
 40 53  2  0  0  0
 40 58  1  0  0  0
 41105  1  0  0  0
 41106  1  0  0  0
 41107  1  0  0  0
 41 48  1  0  0  0
 42 43  1  0  0  0
 42 66  1  0  0  0
 42108  1  0  0  0
 42109  1  0  0  0
 43 44  1  0  0  0
 44110  1  0  0  0
 45 46  2  0  0  0
 45111  1  0  0  0
 46112  1  0  0  0
 47113  1  0  0  0
 47114  1  0  0  0
 48 56  1  0  0  0
 48 65  1  0  0  0
 48115  1  0  0  0
 49 50  1  0  0  0
 49 53  1  0  0  0
 49 64  1  0  0  0
 49116  1  0  0  0
 50 51  1  0  0  0
 50117  1  0  0  0
 50118  1  0  0  0
 51 52  1  0  0  0
 51119  1  0  0  0
 51120  1  0  0  0
 52121  1  0  0  0
 52122  1  0  0  0
 53 54  1  0  0  0
 54 55  2  0  0  0
 54123  1  0  0  0
 55 57  1  0  0  0
 55124  1  0  0  0
 56 69  2  0  0  0
 57 58  2  0  0  0
 57125  1  0  0  0
 58126  1  0  0  0
 59 60  1  0  0  0
 59 61  1  0  0  0
 59 62  1  0  0  0
 60127  1  0  0  0
 60128  1  0  0  0
 60129  1  0  0  0
 61130  1  0  0  0
 61131  1  0  0  0
 61132  1  0  0  0
 62133  1  0  0  0
 62134  1  0  0  0
 62135  1  0  0  0
 63 65  1  0  0  0
 63136  1  0  0  0
 63137  1  0  0  0
 63138  1  0  0  0
 64139  1  0  0  0
 65140  1  0  0  0
 68 78  1  0  0  0
 71 72  1  0  0  0
 71 73  2  0  0  0
 71141  1  0  0  0
 72 80  2  0  0  0
 72142  1  0  0  0
 73 75  1  0  0  0
 73 81  1  0  0  0
 74143  1  0  0  0
 74144  1  0  0  0
 74145  1  0  0  0
 74 79  1  0  0  0
 75 76  1  0  0  0
 75146  1  0  0  0
 75147  1  0  0  0
 76 77  1  0  0  0
 76148  1  0  0  0
 76149  1  0  0  0
 77 78  1  0  0  0
 77150  1  0  0  0
 77151  1  0  0  0
 78152  1  0  0  0
 78153  1  0  0  0
 79 81  1  0  0  0
 79154  1  0  0  0
 80 81  1  0  0  0
M  ISO  4   1 100  68 101  78 101  79 100
M  END
> <chiral flag>
0

> <version>
0

> <s_m_source_file>
/data/baiqing/PycharmProjects/Reinvent-master-3.2/result/LINK_invent/BTK/process_docking_weight1_custom_sum_contain_oxygen_bond_distance_aromatic_linkinvent_7_9_3/rearranged_h_0057.sdf

> <i_m_source_file_index>
17

> <r_mmod_Potential_Energy-OPLS-2005>
638.897155761719

> <r_mmod_Stretch_Energy-OPLS-2005>
276.758941650391

> <r_mmod_Bend_Energy-OPLS-2005>
305.741882324219

> <r_mmod_Torsional_Energy-OPLS-2005>
224.358749389648

> <r_mmod_Improper_Torsional_Energy-OPLS-2005>
2.9225811958313

> <r_mmod_Van_der_Waal_Energy-OPLS-2005>
124.707717895508

> <r_mmod_Electrostatic_Energy-OPLS-2005>
-250.228805541992

> <r_mmod_Solvation_Energy-OPLS-2005>
-221.402801513672

> <b_mmod_Minimization_Converged-OPLS-2005>
0

> <r_mmod_RMS_Derivative-OPLS-2005>
2.61241745948792

$$$$
17
                    3D
 Structure written by MMmdl.
165173  0  0  1  0            999 V2000
  -30.5991  -14.7738   20.3778 C   0  0  0  0  0  0
  -30.4454  -12.4442   19.4771 C   0  0  0  0  0  0
  -29.5201  -12.3970   18.2402 C   0  0  0  0  0  0
  -28.0346  -12.2906   18.6530 C   0  0  0  0  0  0
  -27.6340  -13.2149   19.8375 C   0  0  2  0  0  0
  -28.6895  -13.2016   20.9618 C   0  0  0  0  0  0
  -25.2532  -13.8154   20.5725 C   0  0  0  0  0  0
  -24.1799  -13.0429   20.9219 C   0  0  0  0  0  0
  -24.6366  -11.6900   20.8776 C   0  0  0  0  0  0
  -23.9044  -10.4289   21.0431 C   0  0  0  0  0  0
  -24.3606   -9.4204   21.9200 C   0  0  0  0  0  0
  -23.6288   -8.2237   22.0763 C   0  0  0  0  0  0
  -22.4272   -8.0278   21.3548 C   0  0  0  0  0  0
  -21.9904   -9.0253   20.4653 C   0  0  0  0  0  0
  -22.7225  -10.2136   20.3070 C   0  0  0  0  0  0
  -21.6852   -6.0736   22.5277 C   0  0  0  0  0  0
  -21.4011   -6.5640   23.8209 C   0  0  0  0  0  0
  -21.3659   -5.6793   24.9170 C   0  0  0  0  0  0
  -21.6046   -4.3056   24.7221 C   0  0  0  0  0  0
  -21.8822   -3.8149   23.4341 C   0  0  0  0  0  0
  -21.9198   -4.6966   22.3399 C   0  0  0  0  0  0
  -22.7829  -13.5236   21.1863 C   0  0  0  0  0  0
  -22.1666   -4.2155   21.0975 F   0  0  0  0  0  0
  -21.5628   -3.4539   25.7731 F   0  0  0  0  0  0
  -29.9791  -13.5423   20.3492 N   0  0  0  0  0  0
  -26.2920  -12.9304   20.3297 N   0  0  0  0  0  0
  -25.9291  -11.6478   20.5806 N   0  0  0  0  0  0
  -22.0464  -12.8238   22.0416 N   0  0  0  0  0  0
  -25.4279  -15.1879   20.4163 N   0  0  0  0  0  0
  -31.8254  -14.8479   20.2664 O   0  0  0  0  0  0
  -21.6638   -6.8876   21.4239 O   0  0  0  0  0  0
  -22.3527  -14.5543   20.6700 O   0  0  0  0  0  0
  -24.6301  -31.8558   23.1989 C   0  0  0  0  0  0
  -25.9130  -32.4760   23.8334 C   0  0  1  0  0  0
  -27.2278  -27.2748   20.1342 C   0  0  0  0  0  0
  -25.5928  -33.8562   24.2259 N   0  0  0  0  0  0
  -23.4270  -30.4773   21.5419 C   0  0  2  0  0  0
  -24.8756  -28.9242   20.1131 C   0  0  0  0  0  0
  -22.7499  -29.4602   22.4921 C   0  0  0  0  0  0
  -18.0290  -28.1388   22.8484 C   0  0  0  0  0  0
  -24.1489  -36.7285   23.2639 C   0  0  0  0  0  0
  -25.9715  -30.7742   21.3760 C   0  0  0  0  0  0
  -26.0464  -29.3976   20.7186 C   0  0  0  0  0  0
  -27.2255  -28.5872   20.7133 C   0  0  0  0  0  0
  -26.0311  -26.8631   19.5044 C   0  0  0  0  0  0
  -24.8730  -27.6650   19.4942 C   0  0  0  0  0  0
  -23.6451  -29.8087   20.1589 C   0  0  0  0  0  0
  -25.4117  -36.3073   24.0325 C   0  0  1  0  0  0
  -20.5893  -28.3697   23.1273 C   0  0  2  0  0  0
  -20.6778  -26.9416   22.5411 C   0  0  0  0  0  0
  -19.5756  -26.6385   21.5212 C   0  0  0  0  0  0
  -18.1934  -26.7932   22.1618 C   0  0  0  0  0  0
  -19.1544  -28.8860   23.2872 C   0  0  0  0  0  0
  -18.9462  -30.1461   23.8890 C   0  0  0  0  0  0
  -17.6462  -30.6588   24.0563 C   0  0  0  0  0  0
  -25.9057  -34.9444   23.5096 C   0  0  0  0  0  0
  -16.5354  -29.9085   23.6333 C   0  0  0  0  0  0
  -16.7277  -28.6503   23.0354 C   0  0  0  0  0  0
  -26.4503  -31.6586   25.0722 C   0  0  0  0  0  0
  -25.3727  -31.3732   26.1442 C   0  0  0  0  0  0
  -27.0353  -30.3004   24.6208 C   0  0  0  0  0  0
  -27.6057  -32.4329   25.7493 C   0  0  0  0  0  0
  -27.5583  -37.1794   24.8461 C   0  0  0  0  0  0
  -21.4207  -29.3042   22.3662 N   0  0  0  0  0  0
  -26.4291  -37.3772   23.9411 N   0  0  0  0  0  0
  -24.6953  -31.0535   22.0955 N   0  0  0  0  0  0
  -23.4200  -28.8146   23.3020 O   0  0  0  0  0  0
  -28.3390  -26.4032   20.1875 O   0  0  0  0  0  0
  -26.5629  -34.8916   22.4666 O   0  0  0  0  0  0
  -23.5454  -32.1370   23.7291 O   0  0  0  0  0  0
  -28.7190  -21.7051   21.7686 C   0  0  0  0  0  0
  -29.2102  -22.3724   20.6683 C   0  0  0  0  0  0
  -29.6101  -20.0811   20.4844 C   0  0  0  0  0  0
  -29.9938  -20.5527   17.4347 C   0  0  0  0  0  0
  -31.8542  -21.8258   18.6589 C   0  0  0  0  0  0
  -29.3452  -16.0786   18.7660 C   0  0  0  0  0  0
  -29.3674  -23.9337   20.4387 C   0  0  0  0  0  0
  -29.7824  -17.2678   20.8641 C   0  0  0  0  0  0
  -28.1178  -24.9172   20.1984 C   0  0  0  0  0  0
  -30.0896  -18.6325   20.0307 C   0  0  2  0  0  0
  -30.3433  -21.5644   18.5409 C   0  0  0  0  0  0
  -29.7102  -21.3193   19.8644 N   0  0  0  0  0  0
  -28.9845  -20.3568   21.6336 N   0  3  0  0  0  0
  -31.5249  -18.5860   19.8162 N   0  0  0  0  0  0
  -29.8089  -15.9058   20.1499 N   0  0  0  0  0  0
  -31.4827  -12.5814   19.1663 H   0  0  0  0  0  0
  -30.4138  -11.4966   20.0175 H   0  0  0  0  0  0
  -29.7820  -11.5336   17.6270 H   0  0  0  0  0  0
  -29.6916  -13.2544   17.5942 H   0  0  0  0  0  0
  -27.8665  -11.2516   18.9385 H   0  0  0  0  0  0
  -27.3881  -12.4708   17.7934 H   0  0  0  0  0  0
  -27.5889  -14.2213   19.4356 H   0  0  0  0  0  0
  -28.7355  -12.2255   21.4465 H   0  0  0  0  0  0
  -28.4309  -13.9248   21.7372 H   0  0  0  0  0  0
  -25.2755   -9.5682   22.4772 H   0  0  0  0  0  0
  -24.0004   -7.4628   22.7478 H   0  0  0  0  0  0
  -21.0840   -8.8771   19.8953 H   0  0  0  0  0  0
  -22.3690  -10.9680   19.6182 H   0  0  0  0  0  0
  -21.1996   -7.6148   23.9710 H   0  0  0  0  0  0
  -21.1478   -6.0523   25.9072 H   0  0  0  0  0  0
  -22.0601   -2.7613   23.2836 H   0  0  0  0  0  0
  -22.4081  -11.9901   22.4807 H   0  0  0  0  0  0
  -21.1082  -13.1267   22.2610 H   0  0  0  0  0  0
  -24.6683  -15.8491   20.5361 H   0  0  0  0  0  0
  -26.2920  -15.6249   20.1220 H   0  0  0  0  0  0
  -26.7196  -32.5416   23.1077 H   0  0  0  0  0  0
  -25.0078  -33.9703   25.0406 H   0  0  0  0  0  0
  -22.7229  -31.2989   21.3947 H   0  0  0  0  0  0
  -23.3758  -35.9610   23.3291 H   0  0  0  0  0  0
  -24.3580  -36.8920   22.2056 H   0  0  0  0  0  0
  -23.7233  -37.6478   23.6672 H   0  0  0  0  0  0
  -26.1082  -31.5359   20.6070 H   0  0  0  0  0  0
  -26.8493  -30.8235   22.0089 H   0  0  0  0  0  0
  -28.1235  -28.9472   21.1957 H   0  0  0  0  0  0
  -25.9616  -25.9012   19.0205 H   0  0  0  0  0  0
  -23.9766  -27.2968   19.0141 H   0  0  0  0  0  0
  -23.7678  -30.5832   19.4010 H   0  0  0  0  0  0
  -22.7648  -29.2392   19.8557 H   0  0  0  0  0  0
  -25.1299  -36.1921   25.0817 H   0  0  0  0  0  0
  -20.9982  -28.3276   24.1395 H   0  0  0  0  0  0
  -20.5677  -26.2309   23.3615 H   0  0  0  0  0  0
  -21.6647  -26.7440   22.1207 H   0  0  0  0  0  0
  -19.6920  -25.6293   21.1248 H   0  0  0  0  0  0
  -19.6700  -27.3191   20.6739 H   0  0  0  0  0  0
  -17.4208  -26.6683   21.4016 H   0  0  0  0  0  0
  -18.0330  -26.0073   22.9011 H   0  0  0  0  0  0
  -19.7937  -30.7279   24.2258 H   0  0  0  0  0  0
  -17.5015  -31.6268   24.5166 H   0  0  0  0  0  0
  -15.5355  -30.2983   23.7663 H   0  0  0  0  0  0
  -15.8676  -28.0820   22.7073 H   0  0  0  0  0  0
  -24.5906  -30.7079   25.7766 H   0  0  0  0  0  0
  -24.8915  -32.2900   26.4858 H   0  0  0  0  0  0
  -25.8043  -30.8914   27.0224 H   0  0  0  0  0  0
  -26.2937  -29.6745   24.1230 H   0  0  0  0  0  0
  -27.4032  -29.7275   25.4731 H   0  0  0  0  0  0
  -27.8816  -30.4280   23.9454 H   0  0  0  0  0  0
  -27.2665  -33.3630   26.2066 H   0  0  0  0  0  0
  -28.3868  -32.6889   25.0322 H   0  0  0  0  0  0
  -28.0728  -31.8460   26.5412 H   0  0  0  0  0  0
  -28.2590  -38.0103   24.7524 H   0  0  0  0  0  0
  -28.1090  -36.2634   24.6268 H   0  0  0  0  0  0
  -27.2303  -37.1420   25.8864 H   0  0  0  0  0  0
  -20.9396  -29.8758   21.6859 H   0  0  0  0  0  0
  -26.0171  -38.2844   24.1421 H   0  0  0  0  0  0
  -28.2549  -22.0972   22.6633 H   0  0  0  0  0  0
  -30.1930  -20.9857   16.4539 H   0  0  0  0  0  0
  -28.9384  -20.2791   17.4547 H   0  0  0  0  0  0
  -30.5945  -19.6467   17.4906 H   0  0  0  0  0  0
  -32.2638  -22.1625   17.7064 H   0  0  0  0  0  0
  -32.4062  -20.9345   18.9494 H   0  0  0  0  0  0
  -32.0673  -22.6004   19.3959 H   0  0  0  0  0  0
  -28.4272  -16.6658   18.7272 H   0  0  0  0  0  0
  -29.1290  -15.1510   18.2525 H   0  0  0  0  0  0
  -30.1087  -16.5775   18.1675 H   0  0  0  0  0  0
  -30.0884  -24.1085   19.6427 H   0  0  0  0  0  0
  -29.8746  -24.3059   21.3289 H   0  0  0  0  0  0
  -28.7630  -17.3502   21.2428 H   0  0  0  0  0  0
  -30.4051  -17.2182   21.7588 H   0  0  0  0  0  0
  -27.3745  -24.7071   20.9687 H   0  0  0  0  0  0
  -27.6704  -24.6198   19.2506 H   0  0  0  0  0  0
  -29.5966  -18.5464   19.0671 H   0  0  0  0  0  0
  -29.8948  -22.4906   18.1832 H   0  0  0  0  0  0
  -28.7564  -19.6622   22.3336 H   0  0  0  0  0  0
  -31.9384  -17.9143   20.4523 H   0  0  0  0  0  0
  -31.9328  -19.4761   20.0756 H   0  0  0  0  0  0
  1 25  1  0  0  0
  1 30  2  0  0  0
  1 85  1  0  0  0
  2  3  1  0  0  0
  2 25  1  0  0  0
  2 86  1  0  0  0
  2 87  1  0  0  0
  3  4  1  0  0  0
  3 88  1  0  0  0
  3 89  1  0  0  0
  4  5  1  0  0  0
  4 90  1  0  0  0
  4 91  1  0  0  0
  5  6  1  0  0  0
  5 26  1  0  0  0
  5 92  1  0  0  0
  6 25  1  0  0  0
  6 93  1  0  0  0
  6 94  1  0  0  0
  7  8  2  0  0  0
  7 26  1  0  0  0
  7 29  1  0  0  0
  8  9  1  0  0  0
  8 22  1  0  0  0
  9 10  1  0  0  0
  9 27  2  0  0  0
 10 11  2  0  0  0
 10 15  1  0  0  0
 11 12  1  0  0  0
 11 95  1  0  0  0
 12 13  2  0  0  0
 12 96  1  0  0  0
 13 14  1  0  0  0
 13 31  1  0  0  0
 14 15  2  0  0  0
 14 97  1  0  0  0
 15 98  1  0  0  0
 16 17  2  0  0  0
 16 21  1  0  0  0
 16 31  1  0  0  0
 17 18  1  0  0  0
 17 99  1  0  0  0
 18 19  2  0  0  0
 18100  1  0  0  0
 19 20  1  0  0  0
 19 24  1  0  0  0
 20 21  2  0  0  0
 20101  1  0  0  0
 21 23  1  0  0  0
 22 28  1  0  0  0
 22 32  2  0  0  0
 26 27  1  0  0  0
 28102  1  0  0  0
 28103  1  0  0  0
 29104  1  0  0  0
 29105  1  0  0  0
 33 34  1  0  0  0
 33 66  1  0  0  0
 33 70  2  0  0  0
 34 36  1  0  0  0
 34 59  1  0  0  0
 34106  1  0  0  0
 35 44  2  0  0  0
 35 45  1  0  0  0
 35 68  1  0  0  0
 36 56  1  0  0  0
 36107  1  0  0  0
 37 39  1  0  0  0
 37 47  1  0  0  0
 37 66  1  0  0  0
 37108  1  0  0  0
 38 43  2  0  0  0
 38 46  1  0  0  0
 38 47  1  0  0  0
 39 64  1  0  0  0
 39 67  2  0  0  0
 40 52  1  0  0  0
 40 53  2  0  0  0
 40 58  1  0  0  0
 41109  1  0  0  0
 41110  1  0  0  0
 41111  1  0  0  0
 41 48  1  0  0  0
 42 43  1  0  0  0
 42 66  1  0  0  0
 42112  1  0  0  0
 42113  1  0  0  0
 43 44  1  0  0  0
 44114  1  0  0  0
 45 46  2  0  0  0
 45115  1  0  0  0
 46116  1  0  0  0
 47117  1  0  0  0
 47118  1  0  0  0
 48 56  1  0  0  0
 48 65  1  0  0  0
 48119  1  0  0  0
 49 50  1  0  0  0
 49 53  1  0  0  0
 49 64  1  0  0  0
 49120  1  0  0  0
 50 51  1  0  0  0
 50121  1  0  0  0
 50122  1  0  0  0
 51 52  1  0  0  0
 51123  1  0  0  0
 51124  1  0  0  0
 52125  1  0  0  0
 52126  1  0  0  0
 53 54  1  0  0  0
 54 55  2  0  0  0
 54127  1  0  0  0
 55 57  1  0  0  0
 55128  1  0  0  0
 56 69  2  0  0  0
 57 58  2  0  0  0
 57129  1  0  0  0
 58130  1  0  0  0
 59 60  1  0  0  0
 59 61  1  0  0  0
 59 62  1  0  0  0
 60131  1  0  0  0
 60132  1  0  0  0
 60133  1  0  0  0
 61134  1  0  0  0
 61135  1  0  0  0
 61136  1  0  0  0
 62137  1  0  0  0
 62138  1  0  0  0
 62139  1  0  0  0
 63 65  1  0  0  0
 63140  1  0  0  0
 63141  1  0  0  0
 63142  1  0  0  0
 64143  1  0  0  0
 65144  1  0  0  0
 68 79  1  0  0  0
 71 72  2  0  0  0
 71 83  1  0  0  0
 71145  1  0  0  0
 72 77  1  0  0  0
 72 82  1  0  0  0
 73 80  1  0  0  0
 73 82  1  0  0  0
 73 83  2  0  0  0
 74146  1  0  0  0
 74147  1  0  0  0
 74148  1  0  0  0
 74 81  1  0  0  0
 75 81  1  0  0  0
 75149  1  0  0  0
 75150  1  0  0  0
 75151  1  0  0  0
 76 85  1  0  0  0
 76152  1  0  0  0
 76153  1  0  0  0
 76154  1  0  0  0
 77 79  1  0  0  0
 77155  1  0  0  0
 77156  1  0  0  0
 78 80  1  0  0  0
 78 85  1  0  0  0
 78157  1  0  0  0
 78158  1  0  0  0
 79159  1  0  0  0
 79160  1  0  0  0
 80 84  1  0  0  0
 80161  1  0  0  0
 81 82  1  0  0  0
 81162  1  0  0  0
 83163  1  0  0  0
 84164  1  0  0  0
 84165  1  0  0  0
M  CHG  1  83   1
M  ISO  4   1 100  68 101  79 101  85 100
M  END
> <chiral flag>
0

> <version>
0

> <s_m_source_file>
/data/baiqing/PycharmProjects/Reinvent-master-3.2/result/LINK_invent/BTK/process_docking_weight1_custom_sum_contain_oxygen_bond_distance_aromatic_linkinvent_7_9_3/rearranged_h_0057.sdf

> <i_m_source_file_index>
18

> <r_mmod_Potential_Energy-OPLS-2005>
320.548736572266

> <r_mmod_Stretch_Energy-OPLS-2005>
128.384735107422

> <r_mmod_Bend_Energy-OPLS-2005>
177.79899597168

> <r_mmod_Torsional_Energy-OPLS-2005>
370.418518066406

> <r_mmod_Improper_Torsional_Energy-OPLS-2005>
12.4324016571045

> <r_mmod_Van_der_Waal_Energy-OPLS-2005>
123.745086669922

> <r_mmod_Electrostatic_Energy-OPLS-2005>
-164.792922973633

> <r_mmod_Solvation_Energy-OPLS-2005>
-425.833679199219

> <b_mmod_Minimization_Converged-OPLS-2005>
0

> <r_mmod_RMS_Derivative-OPLS-2005>
0.548135638237

$$$$
18
                    3D
 Structure written by MMmdl.
160168  0  0  1  0            999 V2000
  -30.6957  -14.4399   20.5715 C   0  0  0  0  0  0
  -30.4235  -12.2810   19.4244 C   0  0  0  0  0  0
  -29.4987  -12.5019   18.2089 C   0  0  0  0  0  0
  -28.0190  -12.3624   18.6174 C   0  0  0  0  0  0
  -27.6670  -13.1965   19.8794 C   0  0  2  0  0  0
  -28.7044  -12.9596   21.0024 C   0  0  0  0  0  0
  -25.2630  -13.8137   20.5673 C   0  0  0  0  0  0
  -24.1865  -13.0447   20.9182 C   0  0  0  0  0  0
  -24.6392  -11.6904   20.8734 C   0  0  0  0  0  0
  -23.9053  -10.4305   21.0408 C   0  0  0  0  0  0
  -24.3606   -9.4221   21.9185 C   0  0  0  0  0  0
  -23.6287   -8.2258   22.0759 C   0  0  0  0  0  0
  -22.4266   -8.0297   21.3560 C   0  0  0  0  0  0
  -21.9903   -9.0269   20.4657 C   0  0  0  0  0  0
  -22.7229  -10.2151   20.3060 C   0  0  0  0  0  0
  -21.6853   -6.0742   22.5282 C   0  0  0  0  0  0
  -21.4014   -6.5643   23.8215 C   0  0  0  0  0  0
  -21.3657   -5.6793   24.9174 C   0  0  0  0  0  0
  -21.6043   -4.3058   24.7226 C   0  0  0  0  0  0
  -21.8817   -3.8151   23.4345 C   0  0  0  0  0  0
  -21.9194   -4.6971   22.3403 C   0  0  0  0  0  0
  -22.7902  -13.5274   21.1836 C   0  0  0  0  0  0
  -22.1661   -4.2154   21.0982 F   0  0  0  0  0  0
  -21.5620   -3.4540   25.7734 F   0  0  0  0  0  0
  -30.0422  -13.2537   20.4586 N   0  0  0  0  0  0
  -26.3049  -12.9284   20.3357 N   0  0  0  0  0  0
  -25.9313  -11.6457   20.5748 N   0  0  0  0  0  0
  -22.0539  -12.8267   22.0378 N   0  0  0  0  0  0
  -25.4375  -15.1849   20.4038 N   0  0  0  0  0  0
  -31.8101  -14.6514   20.0830 O   0  0  0  0  0  0
  -21.6644   -6.8891   21.4250 O   0  0  0  0  0  0
  -22.3619  -14.5598   20.6693 O   0  0  0  0  0  0
  -24.6131  -31.8672   23.2111 C   0  0  0  0  0  0
  -25.9031  -32.4820   23.8397 C   0  0  1  0  0  0
  -27.2384  -27.4428   20.0834 C   0  0  0  0  0  0
  -25.5886  -33.8616   24.2330 N   0  0  0  0  0  0
  -23.4005  -30.4914   21.5511 C   0  0  2  0  0  0
  -24.8457  -28.9568   20.1164 C   0  0  0  0  0  0
  -22.7393  -29.4670   22.5006 C   0  0  0  0  0  0
  -18.0269  -28.1351   22.8521 C   0  0  0  0  0  0
  -24.1489  -36.7312   23.2641 C   0  0  0  0  0  0
  -25.9282  -30.8361   21.3623 C   0  0  0  0  0  0
  -26.0052  -29.4711   20.7075 C   0  0  0  0  0  0
  -27.2018  -28.7213   20.6857 C   0  0  0  0  0  0
  -26.0544  -26.9369   19.4965 C   0  0  0  0  0  0
  -24.8645  -27.6889   19.5109 C   0  0  0  0  0  0
  -23.6075  -29.8219   20.1665 C   0  0  0  0  0  0
  -25.4110  -36.3109   24.0339 C   0  0  1  0  0  0
  -20.5856  -28.3661   23.1327 C   0  0  2  0  0  0
  -20.6784  -26.9415   22.5376 C   0  0  0  0  0  0
  -19.5743  -26.6411   21.5189 C   0  0  0  0  0  0
  -18.1940  -26.7902   22.1655 C   0  0  0  0  0  0
  -19.1510  -28.8819   23.2924 C   0  0  0  0  0  0
  -18.9435  -30.1421   23.8928 C   0  0  0  0  0  0
  -17.6437  -30.6573   24.0554 C   0  0  0  0  0  0
  -25.9033  -34.9470   23.5133 C   0  0  0  0  0  0
  -16.5329  -29.9065   23.6322 C   0  0  0  0  0  0
  -16.7253  -28.6469   23.0381 C   0  0  0  0  0  0
  -26.4475  -31.6598   25.0718 C   0  0  0  0  0  0
  -25.3750  -31.3683   26.1471 C   0  0  0  0  0  0
  -27.0296  -30.3047   24.6066 C   0  0  0  0  0  0
  -27.6065  -32.4305   25.7474 C   0  0  0  0  0  0
  -27.5581  -37.1810   24.8468 C   0  0  0  0  0  0
  -21.4117  -29.3060   22.3756 N   0  0  0  0  0  0
  -26.4298  -37.3788   23.9408 N   0  0  0  0  0  0
  -24.6656  -31.0780   22.1011 N   0  0  0  0  0  0
  -23.4174  -28.8191   23.3029 O   0  0  0  0  0  0
  -28.4322  -26.7475   20.1094 O   0  0  0  0  0  0
  -26.5590  -34.8919   22.4695 O   0  0  0  0  0  0
  -23.5329  -32.1412   23.7521 O   0  0  0  0  0  0
  -27.1418  -22.7516   22.9143 C   0  0  0  0  0  0
  -27.2462  -24.8808   22.0467 C   0  0  0  0  0  0
  -27.9035  -22.2601   21.8277 C   0  0  0  0  0  0
  -27.9989  -24.4083   20.9421 C   0  0  0  0  0  0
  -26.4905  -20.5047   19.9938 C   0  0  0  0  0  0
  -28.2467  -20.7660   21.7500 C   0  0  0  0  0  0
  -28.4712  -25.3397   19.8163 C   0  0  0  0  0  0
  -29.1273  -17.9143   21.2564 C   0  0  0  0  0  0
  -30.1375  -16.8609   20.6628 C   0  0  0  0  0  0
  -27.8709  -18.5746   20.5750 C   0  0  0  0  0  0
  -26.8135  -24.0578   23.0300 N   0  0  0  0  0  0
  -28.3356  -23.0897   20.8355 N   0  0  0  0  0  0
  -29.9527  -15.4472   21.0580 N   0  0  0  0  0  0
  -27.8187  -20.0724   20.5011 N   0  3  1  0  0  0
  -31.4706  -12.3702   19.1291 H   0  0  0  0  0  0
  -30.3117  -11.2662   19.8099 H   0  0  0  0  0  0
  -29.7372  -11.7918   17.4152 H   0  0  0  0  0  0
  -29.6709  -13.4960   17.7914 H   0  0  0  0  0  0
  -27.8248  -11.3058   18.8068 H   0  0  0  0  0  0
  -27.3696  -12.6440   17.7864 H   0  0  0  0  0  0
  -27.7176  -14.2454   19.5884 H   0  0  0  0  0  0
  -28.6695  -11.9228   21.3410 H   0  0  0  0  0  0
  -28.4683  -13.5565   21.8848 H   0  0  0  0  0  0
  -25.2761   -9.5698   22.4748 H   0  0  0  0  0  0
  -24.0010   -7.4648   22.7459 H   0  0  0  0  0  0
  -21.0842   -8.8774   19.8956 H   0  0  0  0  0  0
  -22.3683  -10.9684   19.6163 H   0  0  0  0  0  0
  -21.2011   -7.6155   23.9719 H   0  0  0  0  0  0
  -21.1474   -6.0527   25.9074 H   0  0  0  0  0  0
  -22.0599   -2.7617   23.2843 H   0  0  0  0  0  0
  -22.4159  -11.9913   22.4730 H   0  0  0  0  0  0
  -21.1163  -13.1298   22.2589 H   0  0  0  0  0  0
  -24.6571  -15.8285   20.4709 H   0  0  0  0  0  0
  -26.2648  -15.5979   19.9956 H   0  0  0  0  0  0
  -26.7088  -32.5541   23.1150 H   0  0  0  0  0  0
  -25.0045  -33.9782   25.0478 H   0  0  0  0  0  0
  -22.6893  -31.3077   21.4111 H   0  0  0  0  0  0
  -23.3745  -35.9652   23.3319 H   0  0  0  0  0  0
  -24.3583  -36.8909   22.2053 H   0  0  0  0  0  0
  -23.7245  -37.6524   23.6643 H   0  0  0  0  0  0
  -26.0371  -31.6041   20.5952 H   0  0  0  0  0  0
  -26.8186  -30.8891   21.9771 H   0  0  0  0  0  0
  -28.0999  -29.1170   21.1393 H   0  0  0  0  0  0
  -26.0215  -25.9683   19.0212 H   0  0  0  0  0  0
  -23.9693  -27.2878   19.0565 H   0  0  0  0  0  0
  -23.7131  -30.5940   19.4036 H   0  0  0  0  0  0
  -22.7329  -29.2373   19.8753 H   0  0  0  0  0  0
  -25.1287  -36.1973   25.0830 H   0  0  0  0  0  0
  -20.9946  -28.3198   24.1445 H   0  0  0  0  0  0
  -20.5754  -26.2247   23.3537 H   0  0  0  0  0  0
  -21.6636  -26.7498   22.1123 H   0  0  0  0  0  0
  -19.6906  -25.6335   21.1191 H   0  0  0  0  0  0
  -19.6645  -27.3235   20.6724 H   0  0  0  0  0  0
  -17.4178  -26.6624   21.4091 H   0  0  0  0  0  0
  -18.0405  -26.0038   22.9057 H   0  0  0  0  0  0
  -19.7918  -30.7226   24.2298 H   0  0  0  0  0  0
  -17.4979  -31.6270   24.5116 H   0  0  0  0  0  0
  -15.5332  -30.2980   23.7595 H   0  0  0  0  0  0
  -15.8646  -28.0797   22.7087 H   0  0  0  0  0  0
  -24.5931  -30.7019   25.7807 H   0  0  0  0  0  0
  -24.8935  -32.2827   26.4945 H   0  0  0  0  0  0
  -25.8121  -30.8835   27.0211 H   0  0  0  0  0  0
  -26.2820  -29.6812   24.1150 H   0  0  0  0  0  0
  -27.4109  -29.7274   25.4500 H   0  0  0  0  0  0
  -27.8635  -30.4381   23.9171 H   0  0  0  0  0  0
  -27.2705  -33.3597   26.2089 H   0  0  0  0  0  0
  -28.3862  -32.6877   25.0291 H   0  0  0  0  0  0
  -28.0746  -31.8399   26.5360 H   0  0  0  0  0  0
  -28.2611  -38.0096   24.7501 H   0  0  0  0  0  0
  -28.1061  -36.2625   24.6309 H   0  0  0  0  0  0
  -27.2293  -37.1477   25.8870 H   0  0  0  0  0  0
  -20.9281  -29.8792   21.6984 H   0  0  0  0  0  0
  -26.0187  -38.2866   24.1408 H   0  0  0  0  0  0
  -26.7947  -22.0956   23.6997 H   0  0  0  0  0  0
  -26.9835  -25.9214   22.1574 H   0  0  0  0  0  0
  -26.4742  -21.5539   19.6987 H   0  0  0  0  0  0
  -25.7126  -20.3497   20.7431 H   0  0  0  0  0  0
  -26.2130  -19.9355   19.1059 H   0  0  0  0  0  0
  -27.7918  -20.2624   22.6045 H   0  0  0  0  0  0
  -29.3251  -20.6592   21.8724 H   0  0  0  0  0  0
  -27.9672  -25.0994   18.8798 H   0  0  0  0  0  0
  -29.5201  -25.1036   19.6341 H   0  0  0  0  0  0
  -28.4368  -17.0769   21.1906 H   0  0  0  0  0  0
  -29.6633  -18.5686   20.5681 H   0  0  0  0  0  0
  -31.1560  -17.1494   20.9371 H   0  0  0  0  0  0
  -30.1087  -16.8812   19.5690 H   0  0  0  0  0  0
  -26.9572  -18.2838   21.1074 H   0  0  0  0  0  0
  -27.7515  -18.1866   19.5588 H   0  0  0  0  0  0
  -29.0685  -15.1840   21.4688 H   0  0  0  0  0  0
  -28.4786  -20.3702   19.7972 H   0  0  0  0  0  0
  1 25  1  0  0  0
  1 30  2  0  0  0
  1 83  1  0  0  0
  2  3  1  0  0  0
  2 25  1  0  0  0
  2 85  1  0  0  0
  2 86  1  0  0  0
  3  4  1  0  0  0
  3 87  1  0  0  0
  3 88  1  0  0  0
  4  5  1  0  0  0
  4 89  1  0  0  0
  4 90  1  0  0  0
  5  6  1  0  0  0
  5 26  1  0  0  0
  5 91  1  0  0  0
  6 25  1  0  0  0
  6 92  1  0  0  0
  6 93  1  0  0  0
  7  8  2  0  0  0
  7 26  1  0  0  0
  7 29  1  0  0  0
  8  9  1  0  0  0
  8 22  1  0  0  0
  9 10  1  0  0  0
  9 27  2  0  0  0
 10 11  2  0  0  0
 10 15  1  0  0  0
 11 12  1  0  0  0
 11 94  1  0  0  0
 12 13  2  0  0  0
 12 95  1  0  0  0
 13 14  1  0  0  0
 13 31  1  0  0  0
 14 15  2  0  0  0
 14 96  1  0  0  0
 15 97  1  0  0  0
 16 17  2  0  0  0
 16 21  1  0  0  0
 16 31  1  0  0  0
 17 18  1  0  0  0
 17 98  1  0  0  0
 18 19  2  0  0  0
 18 99  1  0  0  0
 19 20  1  0  0  0
 19 24  1  0  0  0
 20 21  2  0  0  0
 20100  1  0  0  0
 21 23  1  0  0  0
 22 28  1  0  0  0
 22 32  2  0  0  0
 26 27  1  0  0  0
 28101  1  0  0  0
 28102  1  0  0  0
 29103  1  0  0  0
 29104  1  0  0  0
 33 34  1  0  0  0
 33 66  1  0  0  0
 33 70  2  0  0  0
 34 36  1  0  0  0
 34 59  1  0  0  0
 34105  1  0  0  0
 35 44  2  0  0  0
 35 45  1  0  0  0
 35 68  1  0  0  0
 36 56  1  0  0  0
 36106  1  0  0  0
 37 39  1  0  0  0
 37 47  1  0  0  0
 37 66  1  0  0  0
 37107  1  0  0  0
 38 43  2  0  0  0
 38 46  1  0  0  0
 38 47  1  0  0  0
 39 64  1  0  0  0
 39 67  2  0  0  0
 40 52  1  0  0  0
 40 53  2  0  0  0
 40 58  1  0  0  0
 41108  1  0  0  0
 41109  1  0  0  0
 41110  1  0  0  0
 41 48  1  0  0  0
 42 43  1  0  0  0
 42 66  1  0  0  0
 42111  1  0  0  0
 42112  1  0  0  0
 43 44  1  0  0  0
 44113  1  0  0  0
 45 46  2  0  0  0
 45114  1  0  0  0
 46115  1  0  0  0
 47116  1  0  0  0
 47117  1  0  0  0
 48 56  1  0  0  0
 48 65  1  0  0  0
 48118  1  0  0  0
 49 50  1  0  0  0
 49 53  1  0  0  0
 49 64  1  0  0  0
 49119  1  0  0  0
 50 51  1  0  0  0
 50120  1  0  0  0
 50121  1  0  0  0
 51 52  1  0  0  0
 51122  1  0  0  0
 51123  1  0  0  0
 52124  1  0  0  0
 52125  1  0  0  0
 53 54  1  0  0  0
 54 55  2  0  0  0
 54126  1  0  0  0
 55 57  1  0  0  0
 55127  1  0  0  0
 56 69  2  0  0  0
 57 58  2  0  0  0
 57128  1  0  0  0
 58129  1  0  0  0
 59 60  1  0  0  0
 59 61  1  0  0  0
 59 62  1  0  0  0
 60130  1  0  0  0
 60131  1  0  0  0
 60132  1  0  0  0
 61133  1  0  0  0
 61134  1  0  0  0
 61135  1  0  0  0
 62136  1  0  0  0
 62137  1  0  0  0
 62138  1  0  0  0
 63 65  1  0  0  0
 63139  1  0  0  0
 63140  1  0  0  0
 63141  1  0  0  0
 64142  1  0  0  0
 65143  1  0  0  0
 68 77  1  0  0  0
 71 73  2  0  0  0
 71 81  1  0  0  0
 71144  1  0  0  0
 72 74  1  0  0  0
 72 81  2  0  0  0
 72145  1  0  0  0
 73 76  1  0  0  0
 73 82  1  0  0  0
 74 77  1  0  0  0
 74 82  2  0  0  0
 75146  1  0  0  0
 75147  1  0  0  0
 75148  1  0  0  0
 75 84  1  0  0  0
 76 84  1  0  0  0
 76149  1  0  0  0
 76150  1  0  0  0
 77151  1  0  0  0
 77152  1  0  0  0
 78 79  1  0  0  0
 78 80  1  0  0  0
 78153  1  0  0  0
 78154  1  0  0  0
 79 83  1  0  0  0
 79155  1  0  0  0
 79156  1  0  0  0
 80 84  1  0  0  0
 80157  1  0  0  0
 80158  1  0  0  0
 83159  1  0  0  0
 84160  1  0  0  0
M  CHG  1  84   1
M  ISO  4   1 100  68 101  77 101  83 100
M  END
> <chiral flag>
0

> <version>
0

> <s_m_source_file>
/data/baiqing/PycharmProjects/Reinvent-master-3.2/result/LINK_invent/BTK/process_docking_weight1_custom_sum_contain_oxygen_bond_distance_aromatic_linkinvent_7_9_3/rearranged_h_0057.sdf

> <i_m_source_file_index>
19

> <r_mmod_Potential_Energy-OPLS-2005>
142.704483032227

> <r_mmod_Stretch_Energy-OPLS-2005>
45.3150596618652

> <r_mmod_Bend_Energy-OPLS-2005>
336.477447509766

> <r_mmod_Torsional_Energy-OPLS-2005>
222.304977416992

> <r_mmod_Improper_Torsional_Energy-OPLS-2005>
6.52732753753662

> <r_mmod_Van_der_Waal_Energy-OPLS-2005>
183.604797363281

> <r_mmod_Electrostatic_Energy-OPLS-2005>
-178.462753295898

> <r_mmod_Solvation_Energy-OPLS-2005>
-483.775268554688

> <b_mmod_Minimization_Converged-OPLS-2005>
0

> <r_mmod_RMS_Derivative-OPLS-2005>
1.98986721038818

$$$$
19
                    3D
 Structure written by MMmdl.
147155  0  0  1  0            999 V2000
  -30.3847  -15.4112   20.3480 C   0  0  0  0  0  0
  -30.4338  -12.9069   19.5576 C   0  0  0  0  0  0
  -29.5482  -12.6143   18.3164 C   0  0  0  0  0  0
  -28.1035  -12.3058   18.7406 C   0  0  0  0  0  0
  -27.6077  -13.2911   19.8265 C   0  0  2  0  0  0
  -28.6295  -13.5250   20.9634 C   0  0  0  0  0  0
  -25.2360  -13.8271   20.5766 C   0  0  0  0  0  0
  -24.1728  -13.0440   20.9265 C   0  0  0  0  0  0
  -24.6405  -11.6944   20.8760 C   0  0  0  0  0  0
  -23.9104  -10.4296   21.0401 C   0  0  0  0  0  0
  -24.3645   -9.4209   21.9180 C   0  0  0  0  0  0
  -23.6309   -8.2248   22.0753 C   0  0  0  0  0  0
  -22.4287   -8.0290   21.3547 C   0  0  0  0  0  0
  -21.9931   -9.0265   20.4646 C   0  0  0  0  0  0
  -22.7272  -10.2138   20.3052 C   0  0  0  0  0  0
  -21.6858   -6.0742   22.5279 C   0  0  0  0  0  0
  -21.4021   -6.5645   23.8213 C   0  0  0  0  0  0
  -21.3659   -5.6795   24.9173 C   0  0  0  0  0  0
  -21.6042   -4.3057   24.7222 C   0  0  0  0  0  0
  -21.8818   -3.8151   23.4342 C   0  0  0  0  0  0
  -21.9193   -4.6970   22.3399 C   0  0  0  0  0  0
  -22.7742  -13.5183   21.1904 C   0  0  0  0  0  0
  -22.1660   -4.2156   21.0976 F   0  0  0  0  0  0
  -21.5625   -3.4539   25.7734 F   0  0  0  0  0  0
  -29.8501  -14.0725   20.3417 N   0  0  0  0  0  0
  -26.2801  -12.9574   20.3238 N   0  0  0  0  0  0
  -25.9347  -11.6662   20.5718 N   0  0  0  0  0  0
  -22.0401  -12.8167   22.0460 N   0  0  0  0  0  0
  -25.3974  -15.2010   20.4202 N   0  0  0  0  0  0
  -31.5950  -15.3943   20.0702 O   0  0  0  0  0  0
  -21.6646   -6.8889   21.4243 O   0  0  0  0  0  0
  -22.3420  -14.5481   20.6739 O   0  0  0  0  0  0
  -24.6720  -31.8132   23.1632 C   0  0  0  0  0  0
  -25.9361  -32.4532   23.8127 C   0  0  1  0  0  0
  -27.2184  -26.8217   20.1936 C   0  0  0  0  0  0
  -25.5989  -33.8352   24.2020 N   0  0  0  0  0  0
  -23.4927  -30.4216   21.5135 C   0  0  2  0  0  0
  -24.9501  -28.7943   20.1072 C   0  0  0  0  0  0
  -22.7715  -29.4382   22.4738 C   0  0  0  0  0  0
  -18.0332  -28.1413   22.8460 C   0  0  0  0  0  0
  -24.1496  -36.7184   23.2649 C   0  0  0  0  0  0
  -26.0676  -30.5826   21.4145 C   0  0  0  0  0  0
  -26.1325  -29.1625   20.7594 C   0  0  0  0  0  0
  -27.2522  -28.1965   20.7845 C   0  0  0  0  0  0
  -26.0165  -26.6511   19.4619 C   0  0  0  0  0  0
  -24.9246  -27.5618   19.4363 C   0  0  0  0  0  0
  -23.7398  -29.7330   20.1414 C   0  0  0  0  0  0
  -25.4141  -36.2933   24.0289 C   0  0  1  0  0  0
  -20.5962  -28.3767   23.1162 C   0  0  2  0  0  0
  -20.6804  -26.9438   22.5402 C   0  0  0  0  0  0
  -19.5778  -26.6372   21.5215 C   0  0  0  0  0  0
  -18.1960  -26.7943   22.1622 C   0  0  0  0  0  0
  -19.1595  -28.8912   23.2797 C   0  0  0  0  0  0
  -18.9503  -30.1498   23.8835 C   0  0  0  0  0  0
  -17.6494  -30.6600   24.0552 C   0  0  0  0  0  0
  -25.9113  -34.9320   23.4981 C   0  0  0  0  0  0
  -16.5385  -29.9083   23.6347 C   0  0  0  0  0  0
  -16.7312  -28.6506   23.0362 C   0  0  0  0  0  0
  -26.4577  -31.6521   25.0702 C   0  0  0  0  0  0
  -25.3671  -31.3808   26.1335 C   0  0  0  0  0  0
  -27.0496  -30.2870   24.6531 C   0  0  0  0  0  0
  -27.6044  -32.4358   25.7511 C   0  0  0  0  0  0
  -27.5568  -37.1750   24.8466 C   0  0  0  0  0  0
  -21.4374  -29.3037   22.3495 N   0  0  0  0  0  0
  -26.4277  -37.3681   23.9406 N   0  0  0  0  0  0
  -24.7659  -30.9689   22.0830 N   0  0  0  0  0  0
  -23.4218  -28.7961   23.3020 O   0  0  0  0  0  0
  -28.1690  -25.6385   20.3363 O   0  0  0  0  0  0
  -26.5737  -34.8873   22.4588 O   0  0  0  0  0  0
  -23.5767  -32.1155   23.6656 O   0  0  0  0  0  0
  -28.8651  -22.4427   21.9324 C   0  0  0  0  0  0
  -28.6558  -22.5852   20.5441 C   0  0  0  0  0  0
  -29.1975  -19.9600   20.5883 C   0  0  0  0  0  0
  -29.1668  -18.3014   18.5186 C   0  0  0  0  0  0
  -29.6963  -18.3513   19.9595 C   0  0  2  0  0  0
  -27.9626  -24.1487   19.9686 C   0  0  0  0  0  0
  -29.1807  -21.2578   22.5529 N   0  0  0  0  0  0
  -28.8597  -21.2325   19.9096 N   0  0  0  0  0  0
  -29.3388  -20.0673   21.9210 N   0  0  0  0  0  0
  -29.6234  -16.7130   20.4707 N   0  0  0  0  0  0
  -26.6605  -23.8689   20.2263 F   0  0  0  0  0  0
  -28.1061  -24.0600   18.6224 F   0  0  0  0  0  0
  -31.4507  -13.1182   19.2254 H   0  0  0  0  0  0
  -30.5202  -12.0196   20.1872 H   0  0  0  0  0  0
  -29.9580  -11.7832   17.7409 H   0  0  0  0  0  0
  -29.5574  -13.4818   17.6549 H   0  0  0  0  0  0
  -28.0844  -11.2890   19.1348 H   0  0  0  0  0  0
  -27.4381  -12.3135   17.8765 H   0  0  0  0  0  0
  -27.5053  -14.2430   19.3041 H   0  0  0  0  0  0
  -28.8246  -12.6094   21.5237 H   0  0  0  0  0  0
  -28.2368  -14.2478   21.6802 H   0  0  0  0  0  0
  -25.2786   -9.5684   22.4763 H   0  0  0  0  0  0
  -24.0012   -7.4640   22.7477 H   0  0  0  0  0  0
  -21.0861   -8.8790   19.8955 H   0  0  0  0  0  0
  -22.3729  -10.9678   19.6165 H   0  0  0  0  0  0
  -21.2019   -7.6154   23.9720 H   0  0  0  0  0  0
  -21.1481   -6.0524   25.9077 H   0  0  0  0  0  0
  -22.0596   -2.7614   23.2838 H   0  0  0  0  0  0
  -22.4036  -11.9844   22.4863 H   0  0  0  0  0  0
  -21.1011  -13.1176   22.2657 H   0  0  0  0  0  0
  -24.6232  -15.8475   20.5268 H   0  0  0  0  0  0
  -26.2332  -15.6413   20.0593 H   0  0  0  0  0  0
  -26.7434  -32.5037   23.0839 H   0  0  0  0  0  0
  -25.0066  -33.9414   25.0122 H   0  0  0  0  0  0
  -22.8114  -31.2563   21.3360 H   0  0  0  0  0  0
  -23.3770  -35.9503   23.3273 H   0  0  0  0  0  0
  -24.3569  -36.8876   22.2071 H   0  0  0  0  0  0
  -23.7246  -37.6354   23.6739 H   0  0  0  0  0  0
  -26.2623  -31.3173   20.6321 H   0  0  0  0  0  0
  -26.9218  -30.6418   22.0765 H   0  0  0  0  0  0
  -28.1340  -28.4707   21.3454 H   0  0  0  0  0  0
  -25.8662  -25.7226   18.9321 H   0  0  0  0  0  0
  -24.0338  -27.2771   18.8934 H   0  0  0  0  0  0
  -23.9026  -30.5005   19.3838 H   0  0  0  0  0  0
  -22.8476  -29.1928   19.8198 H   0  0  0  0  0  0
  -25.1346  -36.1713   25.0780 H   0  0  0  0  0  0
  -21.0050  -28.3384   24.1286 H   0  0  0  0  0  0
  -20.5676  -26.2390   23.3653 H   0  0  0  0  0  0
  -21.6666  -26.7396   22.1214 H   0  0  0  0  0  0
  -19.6935  -25.6266   21.1285 H   0  0  0  0  0  0
  -19.6715  -27.3148   20.6717 H   0  0  0  0  0  0
  -17.4229  -26.6683   21.4026 H   0  0  0  0  0  0
  -18.0353  -26.0099   22.9032 H   0  0  0  0  0  0
  -19.7978  -30.7334   24.2175 H   0  0  0  0  0  0
  -17.5044  -31.6272   24.5168 H   0  0  0  0  0  0
  -15.5381  -30.2965   23.7704 H   0  0  0  0  0  0
  -15.8714  -28.0804   22.7108 H   0  0  0  0  0  0
  -24.5871  -30.7139   25.7641 H   0  0  0  0  0  0
  -24.8841  -32.3021   26.4599 H   0  0  0  0  0  0
  -25.7871  -30.9078   27.0220 H   0  0  0  0  0  0
  -26.3193  -29.6505   24.1523 H   0  0  0  0  0  0
  -27.3958  -29.7287   25.5239 H   0  0  0  0  0  0
  -27.9163  -30.4017   24.0019 H   0  0  0  0  0  0
  -27.2594  -33.3715   26.1925 H   0  0  0  0  0  0
  -28.3939  -32.6831   25.0402 H   0  0  0  0  0  0
  -28.0620  -31.8598   26.5564 H   0  0  0  0  0  0
  -28.2562  -38.0067   24.7511 H   0  0  0  0  0  0
  -28.1085  -36.2591   24.6297 H   0  0  0  0  0  0
  -27.2282  -37.1395   25.8868 H   0  0  0  0  0  0
  -20.9648  -29.8719   21.6602 H   0  0  0  0  0  0
  -26.0114  -38.2736   24.1408 H   0  0  0  0  0  0
  -28.7179  -23.2915   22.5845 H   0  0  0  0  0  0
  -29.4749  -19.1865   17.9613 H   0  0  0  0  0  0
  -28.0774  -18.2683   18.5061 H   0  0  0  0  0  0
  -29.5402  -17.4323   17.9774 H   0  0  0  0  0  0
  -30.7741  -18.4933   19.8760 H   0  0  0  0  0  0
  -28.6992  -16.5256   20.8297 H   0  0  0  0  0  0
  1 25  1  0  0  0
  1 30  2  0  0  0
  1 80  1  0  0  0
  2  3  1  0  0  0
  2 25  1  0  0  0
  2 83  1  0  0  0
  2 84  1  0  0  0
  3  4  1  0  0  0
  3 85  1  0  0  0
  3 86  1  0  0  0
  4  5  1  0  0  0
  4 87  1  0  0  0
  4 88  1  0  0  0
  5  6  1  0  0  0
  5 26  1  0  0  0
  5 89  1  0  0  0
  6 25  1  0  0  0
  6 90  1  0  0  0
  6 91  1  0  0  0
  7  8  2  0  0  0
  7 26  1  0  0  0
  7 29  1  0  0  0
  8  9  1  0  0  0
  8 22  1  0  0  0
  9 10  1  0  0  0
  9 27  2  0  0  0
 10 11  2  0  0  0
 10 15  1  0  0  0
 11 12  1  0  0  0
 11 92  1  0  0  0
 12 13  2  0  0  0
 12 93  1  0  0  0
 13 14  1  0  0  0
 13 31  1  0  0  0
 14 15  2  0  0  0
 14 94  1  0  0  0
 15 95  1  0  0  0
 16 17  2  0  0  0
 16 21  1  0  0  0
 16 31  1  0  0  0
 17 18  1  0  0  0
 17 96  1  0  0  0
 18 19  2  0  0  0
 18 97  1  0  0  0
 19 20  1  0  0  0
 19 24  1  0  0  0
 20 21  2  0  0  0
 20 98  1  0  0  0
 21 23  1  0  0  0
 22 28  1  0  0  0
 22 32  2  0  0  0
 26 27  1  0  0  0
 28 99  1  0  0  0
 28100  1  0  0  0
 29101  1  0  0  0
 29102  1  0  0  0
 33 34  1  0  0  0
 33 66  1  0  0  0
 33 70  2  0  0  0
 34 36  1  0  0  0
 34 59  1  0  0  0
 34103  1  0  0  0
 35 44  2  0  0  0
 35 45  1  0  0  0
 35 68  1  0  0  0
 36 56  1  0  0  0
 36104  1  0  0  0
 37 39  1  0  0  0
 37 47  1  0  0  0
 37 66  1  0  0  0
 37105  1  0  0  0
 38 43  2  0  0  0
 38 46  1  0  0  0
 38 47  1  0  0  0
 39 64  1  0  0  0
 39 67  2  0  0  0
 40 52  1  0  0  0
 40 53  2  0  0  0
 40 58  1  0  0  0
 41106  1  0  0  0
 41107  1  0  0  0
 41108  1  0  0  0
 41 48  1  0  0  0
 42 43  1  0  0  0
 42 66  1  0  0  0
 42109  1  0  0  0
 42110  1  0  0  0
 43 44  1  0  0  0
 44111  1  0  0  0
 45 46  2  0  0  0
 45112  1  0  0  0
 46113  1  0  0  0
 47114  1  0  0  0
 47115  1  0  0  0
 48 56  1  0  0  0
 48 65  1  0  0  0
 48116  1  0  0  0
 49 50  1  0  0  0
 49 53  1  0  0  0
 49 64  1  0  0  0
 49117  1  0  0  0
 50 51  1  0  0  0
 50118  1  0  0  0
 50119  1  0  0  0
 51 52  1  0  0  0
 51120  1  0  0  0
 51121  1  0  0  0
 52122  1  0  0  0
 52123  1  0  0  0
 53 54  1  0  0  0
 54 55  2  0  0  0
 54124  1  0  0  0
 55 57  1  0  0  0
 55125  1  0  0  0
 56 69  2  0  0  0
 57 58  2  0  0  0
 57126  1  0  0  0
 58127  1  0  0  0
 59 60  1  0  0  0
 59 61  1  0  0  0
 59 62  1  0  0  0
 60128  1  0  0  0
 60129  1  0  0  0
 60130  1  0  0  0
 61131  1  0  0  0
 61132  1  0  0  0
 61133  1  0  0  0
 62134  1  0  0  0
 62135  1  0  0  0
 62136  1  0  0  0
 63 65  1  0  0  0
 63137  1  0  0  0
 63138  1  0  0  0
 63139  1  0  0  0
 64140  1  0  0  0
 65141  1  0  0  0
 68 76  1  0  0  0
 71 72  2  0  0  0
 71 77  1  0  0  0
 71142  1  0  0  0
 72 76  1  0  0  0
 72 78  1  0  0  0
 73 75  1  0  0  0
 73 78  2  0  0  0
 73 79  1  0  0  0
 74143  1  0  0  0
 74144  1  0  0  0
 74145  1  0  0  0
 74 75  1  0  0  0
 75 80  1  0  0  0
 75146  1  0  0  0
 76 81  1  0  0  0
 76 82  1  0  0  0
 77 79  2  0  0  0
 80147  1  0  0  0
M  ISO  4   1 100  68 101  76 101  80 100
M  END
> <chiral flag>
0

> <version>
0

> <s_m_source_file>
/data/baiqing/PycharmProjects/Reinvent-master-3.2/result/LINK_invent/BTK/process_docking_weight1_custom_sum_contain_oxygen_bond_distance_aromatic_linkinvent_7_9_3/rearranged_h_0057.sdf

> <i_m_source_file_index>
20

> <r_mmod_Potential_Energy-OPLS-2005>
1566.767578125

> <r_mmod_Stretch_Energy-OPLS-2005>
734.374328613281

> <r_mmod_Bend_Energy-OPLS-2005>
505.564453125

> <r_mmod_Torsional_Energy-OPLS-2005>
213.089385986328

> <r_mmod_Improper_Torsional_Energy-OPLS-2005>
6.81420278549194

> <r_mmod_Van_der_Waal_Energy-OPLS-2005>
128.550216674805

> <r_mmod_Electrostatic_Energy-OPLS-2005>
-417.121185302734

> <r_mmod_Solvation_Energy-OPLS-2005>
-239.301696777344

> <b_mmod_Minimization_Converged-OPLS-2005>
0

> <r_mmod_RMS_Derivative-OPLS-2005>
0.456196010112762

$$$$
20
                    3D
 Structure written by MMmdl.
161169  0  0  1  0            999 V2000
  -30.7158  -14.5592   20.6093 C   0  0  0  0  0  0
  -30.4012  -12.3724   19.4572 C   0  0  0  0  0  0
  -29.4875  -12.5321   18.2251 C   0  0  0  0  0  0
  -28.0149  -12.3587   18.6350 C   0  0  0  0  0  0
  -27.6468  -13.2196   19.8705 C   0  0  2  0  0  0
  -28.6871  -13.0622   21.0029 C   0  0  0  0  0  0
  -25.2481  -13.8129   20.5677 C   0  0  0  0  0  0
  -24.1771  -13.0393   20.9183 C   0  0  0  0  0  0
  -24.6364  -11.6876   20.8759 C   0  0  0  0  0  0
  -23.9045  -10.4260   21.0420 C   0  0  0  0  0  0
  -24.3593   -9.4179   21.9207 C   0  0  0  0  0  0
  -23.6268   -8.2215   22.0763 C   0  0  0  0  0  0
  -22.4259   -8.0253   21.3536 C   0  0  0  0  0  0
  -21.9894   -9.0229   20.4644 C   0  0  0  0  0  0
  -22.7221  -10.2112   20.3061 C   0  0  0  0  0  0
  -21.6842   -6.0728   22.5271 C   0  0  0  0  0  0
  -21.4009   -6.5646   23.8204 C   0  0  0  0  0  0
  -21.3662   -5.6797   24.9167 C   0  0  0  0  0  0
  -21.6041   -4.3059   24.7225 C   0  0  0  0  0  0
  -21.8813   -3.8148   23.4344 C   0  0  0  0  0  0
  -21.9184   -4.6962   22.3399 C   0  0  0  0  0  0
  -22.7810  -13.5192   21.1876 C   0  0  0  0  0  0
  -22.1655   -4.2149   21.0979 F   0  0  0  0  0  0
  -21.5629   -3.4545   25.7741 F   0  0  0  0  0  0
  -30.0129  -13.3866   20.4638 N   0  0  0  0  0  0
  -26.2933  -12.9342   20.3365 N   0  0  0  0  0  0
  -25.9298  -11.6489   20.5795 N   0  0  0  0  0  0
  -22.0470  -12.8175   22.0438 N   0  0  0  0  0  0
  -25.4152  -15.1830   20.4087 N   0  0  0  0  0  0
  -31.7854  -14.7125   20.0083 O   0  0  0  0  0  0
  -21.6617   -6.8863   21.4231 O   0  0  0  0  0  0
  -22.3492  -14.5507   20.6749 O   0  0  0  0  0  0
  -24.6190  -31.8639   23.2065 C   0  0  0  0  0  0
  -25.9048  -32.4815   23.8374 C   0  0  1  0  0  0
  -27.2250  -27.3731   20.1179 C   0  0  0  0  0  0
  -25.5881  -33.8617   24.2298 N   0  0  0  0  0  0
  -23.4100  -30.4857   21.5497 C   0  0  2  0  0  0
  -24.8563  -28.9439   20.1158 C   0  0  0  0  0  0
  -22.7436  -29.4632   22.4995 C   0  0  0  0  0  0
  -18.0276  -28.1380   22.8505 C   0  0  0  0  0  0
  -24.1485  -36.7287   23.2645 C   0  0  0  0  0  0
  -25.9458  -30.8107   21.3691 C   0  0  0  0  0  0
  -26.0203  -29.4413   20.7151 C   0  0  0  0  0  0
  -27.2107  -28.6663   20.7064 C   0  0  0  0  0  0
  -26.0436  -26.9035   19.5078 C   0  0  0  0  0  0
  -24.8655  -27.6782   19.5051 C   0  0  0  0  0  0
  -23.6205  -29.8171   20.1655 C   0  0  0  0  0  0
  -25.4105  -36.3099   24.0343 C   0  0  1  0  0  0
  -20.5874  -28.3658   23.1343 C   0  0  2  0  0  0
  -20.6781  -26.9387   22.5451 C   0  0  0  0  0  0
  -19.5755  -26.6374   21.5262 C   0  0  0  0  0  0
  -18.1917  -26.7917   22.1638 C   0  0  0  0  0  0
  -19.1525  -28.8831   23.2920 C   0  0  0  0  0  0
  -18.9456  -30.1449   23.8925 C   0  0  0  0  0  0
  -17.6465  -30.6589   24.0565 C   0  0  0  0  0  0
  -25.9038  -34.9473   23.5117 C   0  0  0  0  0  0
  -16.5347  -29.9086   23.6338 C   0  0  0  0  0  0
  -16.7265  -28.6501   23.0371 C   0  0  0  0  0  0
  -26.4447  -31.6627   25.0734 C   0  0  0  0  0  0
  -25.3672  -31.3767   26.1457 C   0  0  0  0  0  0
  -27.0276  -30.3054   24.6134 C   0  0  0  0  0  0
  -27.6017  -32.4351   25.7489 C   0  0  0  0  0  0
  -27.5576  -37.1788   24.8465 C   0  0  0  0  0  0
  -21.4159  -29.3013   22.3732 N   0  0  0  0  0  0
  -26.4286  -37.3803   23.9420 N   0  0  0  0  0  0
  -24.6771  -31.0685   22.0999 N   0  0  0  0  0  0
  -23.4190  -28.8185   23.3064 O   0  0  0  0  0  0
  -28.3658  -26.5779   20.1083 O   0  0  0  0  0  0
  -26.5633  -34.8936   22.4704 O   0  0  0  0  0  0
  -23.5361  -32.1417   23.7415 O   0  0  0  0  0  0
  -28.8508  -18.8570   20.3286 C   0  0  0  0  0  0
  -29.5747  -17.9602   21.0886 C   0  0  0  0  0  0
  -27.1255  -17.3149   22.7836 C   0  0  0  0  0  0
  -31.4446  -15.8652   22.4733 C   0  0  0  0  0  0
  -28.3865  -16.4360   22.7575 C   0  0  0  0  0  0
  -28.9394  -22.6666   20.6693 C   0  0  0  0  0  0
  -28.7256  -24.0203   19.8805 C   0  0  0  0  0  0
  -29.1925  -21.3891   19.7832 C   0  0  0  0  0  0
  -28.2630  -25.2603   20.7310 C   0  0  0  0  0  0
  -29.2368  -16.4827   21.4513 C   0  0  2  0  0  0
  -30.6192  -18.7040   21.6533 N   0  0  0  0  0  0
  -30.5675  -19.9508   21.2616 N   0  0  0  0  0  0
  -29.4784  -20.0964   20.4665 N   0  0  0  0  0  0
  -30.3508  -15.4695   21.5704 N   0  0  0  0  0  0
  -31.4506  -12.4389   19.1673 H   0  0  0  0  0  0
  -30.2818  -11.3734   19.8798 H   0  0  0  0  0  0
  -29.7505  -11.8031   17.4566 H   0  0  0  0  0  0
  -29.6303  -13.5175   17.7782 H   0  0  0  0  0  0
  -27.8529  -11.3040   18.8587 H   0  0  0  0  0  0
  -27.3552  -12.5942   17.7985 H   0  0  0  0  0  0
  -27.6651  -14.2565   19.5358 H   0  0  0  0  0  0
  -28.6843  -12.0408   21.3858 H   0  0  0  0  0  0
  -28.4282  -13.6844   21.8518 H   0  0  0  0  0  0
  -25.2732   -9.5671   22.4793 H   0  0  0  0  0  0
  -23.9969   -7.4616   22.7502 H   0  0  0  0  0  0
  -21.0813   -8.8742   19.8967 H   0  0  0  0  0  0
  -22.3662  -10.9652   19.6170 H   0  0  0  0  0  0
  -21.1998   -7.6153   23.9703 H   0  0  0  0  0  0
  -21.1500   -6.0539   25.9072 H   0  0  0  0  0  0
  -22.0593   -2.7609   23.2841 H   0  0  0  0  0  0
  -22.4068  -11.9798   22.4763 H   0  0  0  0  0  0
  -21.1128  -13.1263   22.2735 H   0  0  0  0  0  0
  -24.6549  -15.8371   20.5579 H   0  0  0  0  0  0
  -26.2905  -15.6353   20.1834 H   0  0  0  0  0  0
  -26.7111  -32.5494   23.1128 H   0  0  0  0  0  0
  -25.0009  -33.9793   25.0417 H   0  0  0  0  0  0
  -22.7012  -31.3046   21.4076 H   0  0  0  0  0  0
  -23.3786  -35.9591   23.3316 H   0  0  0  0  0  0
  -24.3591  -36.8902   22.2062 H   0  0  0  0  0  0
  -23.7207  -37.6472   23.6666 H   0  0  0  0  0  0
  -26.0705  -31.5751   20.6007 H   0  0  0  0  0  0
  -26.8298  -30.8607   21.9938 H   0  0  0  0  0  0
  -28.1086  -29.0463   21.1739 H   0  0  0  0  0  0
  -26.0299  -25.9306   19.0387 H   0  0  0  0  0  0
  -23.9721  -27.2893   19.0396 H   0  0  0  0  0  0
  -23.7294  -30.5922   19.4059 H   0  0  0  0  0  0
  -22.7417  -29.2405   19.8681 H   0  0  0  0  0  0
  -25.1294  -36.1963   25.0844 H   0  0  0  0  0  0
  -20.9960  -28.3213   24.1469 H   0  0  0  0  0  0
  -20.5750  -26.2232   23.3630 H   0  0  0  0  0  0
  -21.6628  -26.7466   22.1183 H   0  0  0  0  0  0
  -19.6915  -25.6299   21.1256 H   0  0  0  0  0  0
  -19.6699  -27.3218   20.6831 H   0  0  0  0  0  0
  -17.4196  -26.6729   21.4018 H   0  0  0  0  0  0
  -18.0247  -26.0063   22.9030 H   0  0  0  0  0  0
  -19.7955  -30.7253   24.2281 H   0  0  0  0  0  0
  -17.5033  -31.6281   24.5143 H   0  0  0  0  0  0
  -15.5351  -30.3006   23.7666 H   0  0  0  0  0  0
  -15.8668  -28.0834   22.7098 H   0  0  0  0  0  0
  -24.5873  -30.7078   25.7806 H   0  0  0  0  0  0
  -24.8822  -32.2930   26.4822 H   0  0  0  0  0  0
  -25.7982  -30.9003   27.0269 H   0  0  0  0  0  0
  -26.2818  -29.6842   24.1137 H   0  0  0  0  0  0
  -27.3997  -29.7271   25.4615 H   0  0  0  0  0  0
  -27.8694  -30.4402   23.9327 H   0  0  0  0  0  0
  -27.2638  -33.3682   26.2003 H   0  0  0  0  0  0
  -28.3828  -32.6844   25.0299 H   0  0  0  0  0  0
  -28.0650  -31.8501   26.5442 H   0  0  0  0  0  0
  -28.2583  -38.0093   24.7533 H   0  0  0  0  0  0
  -28.1067  -36.2621   24.6254 H   0  0  0  0  0  0
  -27.2285  -37.1393   25.8866 H   0  0  0  0  0  0
  -20.9305  -29.8701   21.6929 H   0  0  0  0  0  0
  -26.0169  -38.2879   24.1467 H   0  0  0  0  0  0
  -27.9517  -18.7300   19.7381 H   0  0  0  0  0  0
  -26.5798  -17.1619   23.7166 H   0  0  0  0  0  0
  -26.4455  -17.0770   21.9687 H   0  0  0  0  0  0
  -27.3682  -18.3772   22.7224 H   0  0  0  0  0  0
  -31.8992  -14.9876   22.9371 H   0  0  0  0  0  0
  -31.1199  -16.5162   23.2823 H   0  0  0  0  0  0
  -32.2259  -16.3995   21.9284 H   0  0  0  0  0  0
  -28.0938  -15.4160   22.9951 H   0  0  0  0  0  0
  -28.9945  -16.7563   23.6024 H   0  0  0  0  0  0
  -28.0675  -22.4855   21.2981 H   0  0  0  0  0  0
  -29.7787  -22.7976   21.3529 H   0  0  0  0  0  0
  -27.9895  -23.8552   19.0917 H   0  0  0  0  0  0
  -29.6534  -24.2769   19.3668 H   0  0  0  0  0  0
  -30.0281  -21.5883   19.1095 H   0  0  0  0  0  0
  -28.3241  -21.2332   19.1408 H   0  0  0  0  0  0
  -28.8776  -25.3019   21.6293 H   0  0  0  0  0  0
  -27.2512  -25.0758   21.0939 H   0  0  0  0  0  0
  -28.5892  -16.1141   20.6560 H   0  0  0  0  0  0
  1 25  1  0  0  0
  1 30  2  0  0  0
  1 84  1  0  0  0
  2  3  1  0  0  0
  2 25  1  0  0  0
  2 85  1  0  0  0
  2 86  1  0  0  0
  3  4  1  0  0  0
  3 87  1  0  0  0
  3 88  1  0  0  0
  4  5  1  0  0  0
  4 89  1  0  0  0
  4 90  1  0  0  0
  5  6  1  0  0  0
  5 26  1  0  0  0
  5 91  1  0  0  0
  6 25  1  0  0  0
  6 92  1  0  0  0
  6 93  1  0  0  0
  7  8  2  0  0  0
  7 26  1  0  0  0
  7 29  1  0  0  0
  8  9  1  0  0  0
  8 22  1  0  0  0
  9 10  1  0  0  0
  9 27  2  0  0  0
 10 11  2  0  0  0
 10 15  1  0  0  0
 11 12  1  0  0  0
 11 94  1  0  0  0
 12 13  2  0  0  0
 12 95  1  0  0  0
 13 14  1  0  0  0
 13 31  1  0  0  0
 14 15  2  0  0  0
 14 96  1  0  0  0
 15 97  1  0  0  0
 16 17  2  0  0  0
 16 21  1  0  0  0
 16 31  1  0  0  0
 17 18  1  0  0  0
 17 98  1  0  0  0
 18 19  2  0  0  0
 18 99  1  0  0  0
 19 20  1  0  0  0
 19 24  1  0  0  0
 20 21  2  0  0  0
 20100  1  0  0  0
 21 23  1  0  0  0
 22 28  1  0  0  0
 22 32  2  0  0  0
 26 27  1  0  0  0
 28101  1  0  0  0
 28102  1  0  0  0
 29103  1  0  0  0
 29104  1  0  0  0
 33 34  1  0  0  0
 33 66  1  0  0  0
 33 70  2  0  0  0
 34 36  1  0  0  0
 34 59  1  0  0  0
 34105  1  0  0  0
 35 44  2  0  0  0
 35 45  1  0  0  0
 35 68  1  0  0  0
 36 56  1  0  0  0
 36106  1  0  0  0
 37 39  1  0  0  0
 37 47  1  0  0  0
 37 66  1  0  0  0
 37107  1  0  0  0
 38 43  2  0  0  0
 38 46  1  0  0  0
 38 47  1  0  0  0
 39 64  1  0  0  0
 39 67  2  0  0  0
 40 52  1  0  0  0
 40 53  2  0  0  0
 40 58  1  0  0  0
 41108  1  0  0  0
 41109  1  0  0  0
 41110  1  0  0  0
 41 48  1  0  0  0
 42 43  1  0  0  0
 42 66  1  0  0  0
 42111  1  0  0  0
 42112  1  0  0  0
 43 44  1  0  0  0
 44113  1  0  0  0
 45 46  2  0  0  0
 45114  1  0  0  0
 46115  1  0  0  0
 47116  1  0  0  0
 47117  1  0  0  0
 48 56  1  0  0  0
 48 65  1  0  0  0
 48118  1  0  0  0
 49 50  1  0  0  0
 49 53  1  0  0  0
 49 64  1  0  0  0
 49119  1  0  0  0
 50 51  1  0  0  0
 50120  1  0  0  0
 50121  1  0  0  0
 51 52  1  0  0  0
 51122  1  0  0  0
 51123  1  0  0  0
 52124  1  0  0  0
 52125  1  0  0  0
 53 54  1  0  0  0
 54 55  2  0  0  0
 54126  1  0  0  0
 55 57  1  0  0  0
 55127  1  0  0  0
 56 69  2  0  0  0
 57 58  2  0  0  0
 57128  1  0  0  0
 58129  1  0  0  0
 59 60  1  0  0  0
 59 61  1  0  0  0
 59 62  1  0  0  0
 60130  1  0  0  0
 60131  1  0  0  0
 60132  1  0  0  0
 61133  1  0  0  0
 61134  1  0  0  0
 61135  1  0  0  0
 62136  1  0  0  0
 62137  1  0  0  0
 62138  1  0  0  0
 63 65  1  0  0  0
 63139  1  0  0  0
 63140  1  0  0  0
 63141  1  0  0  0
 64142  1  0  0  0
 65143  1  0  0  0
 68 79  1  0  0  0
 71 72  2  0  0  0
 71 83  1  0  0  0
 71144  1  0  0  0
 72 80  1  0  0  0
 72 81  1  0  0  0
 73 75  1  0  0  0
 73145  1  0  0  0
 73146  1  0  0  0
 73147  1  0  0  0
 74 84  1  0  0  0
 74148  1  0  0  0
 74149  1  0  0  0
 74150  1  0  0  0
 75151  1  0  0  0
 75152  1  0  0  0
 75 80  1  0  0  0
 76 77  1  0  0  0
 76 78  1  0  0  0
 76153  1  0  0  0
 76154  1  0  0  0
 77 79  1  0  0  0
 77155  1  0  0  0
 77156  1  0  0  0
 78 83  1  0  0  0
 78157  1  0  0  0
 78158  1  0  0  0
 79159  1  0  0  0
 79160  1  0  0  0
 80 84  1  0  0  0
 80161  1  0  0  0
 81 82  2  0  0  0
 82 83  1  0  0  0
M  ISO  4   1 100  68 101  79 101  84 100
M  END
> <chiral flag>
0

> <version>
0

> <s_m_source_file>
/data/baiqing/PycharmProjects/Reinvent-master-3.2/result/LINK_invent/BTK/process_docking_weight1_custom_sum_contain_oxygen_bond_distance_aromatic_linkinvent_7_9_3/rearranged_h_0057.sdf

> <i_m_source_file_index>
21

> <r_mmod_Potential_Energy-OPLS-2005>
105.03443145752

> <r_mmod_Stretch_Energy-OPLS-2005>
64.8471527099609

> <r_mmod_Bend_Energy-OPLS-2005>
131.388427734375

> <r_mmod_Torsional_Energy-OPLS-2005>
294.775390625

> <r_mmod_Improper_Torsional_Energy-OPLS-2005>
7.13489484786987

> <r_mmod_Van_der_Waal_Energy-OPLS-2005>
119.833236694336

> <r_mmod_Electrostatic_Energy-OPLS-2005>
-330.699890136719

> <r_mmod_Solvation_Energy-OPLS-2005>
-208.298461914062

> <b_mmod_Minimization_Converged-OPLS-2005>
0

> <r_mmod_RMS_Derivative-OPLS-2005>
3.06933498382568

$$$$
21
                    3D
 Structure written by MMmdl.
162170  0  0  1  0            999 V2000
  -30.6973  -14.7305   20.4296 C   0  0  0  0  0  0
  -30.4127  -12.4428   19.4734 C   0  0  0  0  0  0
  -29.5033  -12.4799   18.2302 C   0  0  0  0  0  0
  -28.0334  -12.3150   18.6511 C   0  0  0  0  0  0
  -27.6336  -13.2430   19.8299 C   0  0  2  0  0  0
  -28.6847  -13.2413   20.9603 C   0  0  0  0  0  0
  -25.2507  -13.8248   20.5742 C   0  0  0  0  0  0
  -24.1807  -13.0475   20.9245 C   0  0  0  0  0  0
  -24.6410  -11.6944   20.8744 C   0  0  0  0  0  0
  -23.9078  -10.4320   21.0404 C   0  0  0  0  0  0
  -24.3639   -9.4234   21.9165 C   0  0  0  0  0  0
  -23.6324   -8.2262   22.0742 C   0  0  0  0  0  0
  -22.4297   -8.0295   21.3554 C   0  0  0  0  0  0
  -21.9928   -9.0263   20.4643 C   0  0  0  0  0  0
  -22.7244  -10.2148   20.3055 C   0  0  0  0  0  0
  -21.6865   -6.0750   22.5281 C   0  0  0  0  0  0
  -21.4013   -6.5650   23.8215 C   0  0  0  0  0  0
  -21.3671   -5.6795   24.9174 C   0  0  0  0  0  0
  -21.6053   -4.3056   24.7223 C   0  0  0  0  0  0
  -21.8827   -3.8157   23.4334 C   0  0  0  0  0  0
  -21.9201   -4.6978   22.3393 C   0  0  0  0  0  0
  -22.7819  -13.5234   21.1869 C   0  0  0  0  0  0
  -22.1674   -4.2173   21.0967 F   0  0  0  0  0  0
  -21.5631   -3.4530   25.7729 F   0  0  0  0  0  0
  -29.9772  -13.5598   20.3452 N   0  0  0  0  0  0
  -26.2922  -12.9474   20.3243 N   0  0  0  0  0  0
  -25.9329  -11.6601   20.5720 N   0  0  0  0  0  0
  -22.0456  -12.8224   22.0423 N   0  0  0  0  0  0
  -25.4175  -15.1980   20.4229 N   0  0  0  0  0  0
  -31.9175  -14.6548   20.2713 O   0  0  0  0  0  0
  -21.6660   -6.8883   21.4243 O   0  0  0  0  0  0
  -22.3478  -14.5518   20.6664 O   0  0  0  0  0  0
  -24.6373  -31.8565   23.1985 C   0  0  0  0  0  0
  -25.9178  -32.4763   23.8336 C   0  0  1  0  0  0
  -27.2116  -27.2519   20.1288 C   0  0  0  0  0  0
  -25.5974  -33.8560   24.2266 N   0  0  0  0  0  0
  -23.4337  -30.4870   21.5387 C   0  0  2  0  0  0
  -24.8782  -28.9389   20.1039 C   0  0  0  0  0  0
  -22.7531  -29.4635   22.4814 C   0  0  0  0  0  0
  -18.0342  -28.1420   22.8515 C   0  0  0  0  0  0
  -24.1492  -36.7304   23.2634 C   0  0  0  0  0  0
  -25.9836  -30.7690   21.3785 C   0  0  0  0  0  0
  -26.0540  -29.3930   20.7163 C   0  0  0  0  0  0
  -27.2230  -28.5637   20.7182 C   0  0  0  0  0  0
  -26.0113  -26.8737   19.4797 C   0  0  0  0  0  0
  -24.8634  -27.6857   19.4807 C   0  0  0  0  0  0
  -23.6548  -29.8335   20.1519 C   0  0  0  0  0  0
  -25.4115  -36.3079   24.0337 C   0  0  1  0  0  0
  -20.5955  -28.3742   23.1261 C   0  0  2  0  0  0
  -20.6853  -26.9443   22.5400 C   0  0  0  0  0  0
  -19.5772  -26.6401   21.5258 C   0  0  0  0  0  0
  -18.1965  -26.7969   22.1663 C   0  0  0  0  0  0
  -19.1606  -28.8895   23.2893 C   0  0  0  0  0  0
  -18.9505  -30.1500   23.8895 C   0  0  0  0  0  0
  -17.6501  -30.6601   24.0598 C   0  0  0  0  0  0
  -25.9062  -34.9442   23.5088 C   0  0  0  0  0  0
  -16.5405  -29.9105   23.6336 C   0  0  0  0  0  0
  -16.7327  -28.6542   23.0333 C   0  0  0  0  0  0
  -26.4538  -31.6596   25.0716 C   0  0  0  0  0  0
  -25.3732  -31.3754   26.1423 C   0  0  0  0  0  0
  -27.0372  -30.3023   24.6190 C   0  0  0  0  0  0
  -27.6113  -32.4355   25.7446 C   0  0  0  0  0  0
  -27.5582  -37.1795   24.8462 C   0  0  0  0  0  0
  -21.4236  -29.3080   22.3588 N   0  0  0  0  0  0
  -26.4285  -37.3775   23.9408 N   0  0  0  0  0  0
  -24.7043  -31.0543   22.0957 N   0  0  0  0  0  0
  -23.4216  -28.8147   23.2888 O   0  0  0  0  0  0
  -28.2882  -26.3318   20.2141 O   0  0  0  0  0  0
  -26.5579  -34.8913   22.4635 O   0  0  0  0  0  0
  -23.5532  -32.1356   23.7319 O   0  0  0  0  0  0
  -29.2919  -19.5032   19.9608 C   0  0  0  0  0  0
  -28.8608  -20.7655   20.5675 C   0  0  0  0  0  0
  -29.1735  -18.4681   20.9001 C   0  0  0  0  0  0
  -32.2152  -18.2279   17.7423 C   0  0  0  0  0  0
  -28.2954  -18.6428   23.3059 C   0  0  0  0  0  0
  -28.4280  -22.1624   19.9451 C   0  0  0  0  0  0
  -29.2643  -16.8649   20.9775 C   0  0  0  0  0  0
  -31.8713  -17.4143   18.9976 C   0  0  0  0  0  0
  -28.9268  -23.6209   20.4446 C   0  0  0  0  0  0
  -30.5626  -16.5987   18.8439 C   0  0  0  0  0  0
  -27.9962  -24.8701   19.9964 C   0  0  0  0  0  0
  -28.5492  -20.5111   21.8248 N   0  0  0  0  0  0
  -28.7147  -19.1699   22.0178 N   0  0  0  0  0  0
  -30.0936  -15.9490   20.0855 N   0  0  0  0  0  0
  -31.4592  -12.5122   19.1731 H   0  0  0  0  0  0
  -30.3212  -11.4901   19.9976 H   0  0  0  0  0  0
  -29.7860  -11.6941   17.5295 H   0  0  0  0  0  0
  -29.6389  -13.4280   17.7056 H   0  0  0  0  0  0
  -27.8992  -11.2713   18.9401 H   0  0  0  0  0  0
  -27.3770  -12.4813   17.7989 H   0  0  0  0  0  0
  -27.6077  -14.2480   19.4093 H   0  0  0  0  0  0
  -28.7199  -12.2691   21.4566 H   0  0  0  0  0  0
  -28.4284  -13.9757   21.7235 H   0  0  0  0  0  0
  -25.2797   -9.5718   22.4720 H   0  0  0  0  0  0
  -24.0066   -7.4655   22.7451 H   0  0  0  0  0  0
  -21.0867   -8.8750   19.8939 H   0  0  0  0  0  0
  -22.3689  -10.9675   19.6165 H   0  0  0  0  0  0
  -21.1989   -7.6153   23.9722 H   0  0  0  0  0  0
  -21.1488   -6.0516   25.9077 H   0  0  0  0  0  0
  -22.0589   -2.7618   23.2814 H   0  0  0  0  0  0
  -22.4118  -11.9958   22.4898 H   0  0  0  0  0  0
  -21.1029  -13.1173   22.2547 H   0  0  0  0  0  0
  -24.6476  -15.8445   20.5577 H   0  0  0  0  0  0
  -26.2572  -15.6449   20.0780 H   0  0  0  0  0  0
  -26.7226  -32.5427   23.1048 H   0  0  0  0  0  0
  -25.0191  -33.9730   25.0471 H   0  0  0  0  0  0
  -22.7333  -31.3127   21.3978 H   0  0  0  0  0  0
  -23.3769  -35.9620   23.3297 H   0  0  0  0  0  0
  -24.3580  -36.8914   22.2038 H   0  0  0  0  0  0
  -23.7228  -37.6509   23.6656 H   0  0  0  0  0  0
  -26.1258  -31.5323   20.6137 H   0  0  0  0  0  0
  -26.8625  -30.8143   22.0091 H   0  0  0  0  0  0
  -28.1201  -28.9047   21.2156 H   0  0  0  0  0  0
  -25.9053  -25.9171   18.9888 H   0  0  0  0  0  0
  -23.9664  -27.3266   18.9960 H   0  0  0  0  0  0
  -23.7924  -30.6212   19.4097 H   0  0  0  0  0  0
  -22.7685  -29.2852   19.8326 H   0  0  0  0  0  0
  -25.1284  -36.1930   25.0827 H   0  0  0  0  0  0
  -21.0137  -28.3365   24.1351 H   0  0  0  0  0  0
  -20.5890  -26.2319   23.3611 H   0  0  0  0  0  0
  -21.6692  -26.7513   22.1087 H   0  0  0  0  0  0
  -19.6932  -25.6320   21.1272 H   0  0  0  0  0  0
  -19.6735  -27.3238   20.6819 H   0  0  0  0  0  0
  -17.4255  -26.6805   21.4040 H   0  0  0  0  0  0
  -18.0299  -26.0098   22.9033 H   0  0  0  0  0  0
  -19.7963  -30.7359   24.2223 H   0  0  0  0  0  0
  -17.5030  -31.6278   24.5204 H   0  0  0  0  0  0
  -15.5389  -30.3002   23.7651 H   0  0  0  0  0  0
  -15.8738  -28.0890   22.6962 H   0  0  0  0  0  0
  -24.5888  -30.7138   25.7725 H   0  0  0  0  0  0
  -24.8948  -32.2915   26.4884 H   0  0  0  0  0  0
  -25.8007  -30.8873   27.0174 H   0  0  0  0  0  0
  -26.2923  -29.6761   24.1260 H   0  0  0  0  0  0
  -27.4105  -29.7318   25.4702 H   0  0  0  0  0  0
  -27.8781  -30.4323   23.9373 H   0  0  0  0  0  0
  -27.2745  -33.3672   26.2009 H   0  0  0  0  0  0
  -28.3879  -32.6897   25.0210 H   0  0  0  0  0  0
  -28.0810  -31.8475   26.5335 H   0  0  0  0  0  0
  -28.2590  -38.0104   24.7546 H   0  0  0  0  0  0
  -28.1087  -36.2645   24.6257 H   0  0  0  0  0  0
  -27.2304  -37.1402   25.8861 H   0  0  0  0  0  0
  -20.9399  -29.8750   21.6780 H   0  0  0  0  0  0
  -26.0195  -38.2840   24.1460 H   0  0  0  0  0  0
  -29.5514  -19.3747   18.9220 H   0  0  0  0  0  0
  -33.1153  -18.8244   17.8939 H   0  0  0  0  0  0
  -31.4070  -18.9136   17.4907 H   0  0  0  0  0  0
  -32.3907  -17.5892   16.8751 H   0  0  0  0  0  0
  -29.0361  -17.9514   23.7028 H   0  0  0  0  0  0
  -27.3379  -18.1323   23.1941 H   0  0  0  0  0  0
  -28.1593  -19.4464   24.0293 H   0  0  0  0  0  0
  -27.3403  -22.1968   20.0270 H   0  0  0  0  0  0
  -28.5926  -22.1201   18.8695 H   0  0  0  0  0  0
  -28.2445  -16.4886   20.8910 H   0  0  0  0  0  0
  -29.5612  -16.5976   21.9902 H   0  0  0  0  0  0
  -31.7955  -18.0931   19.8466 H   0  0  0  0  0  0
  -32.7164  -16.7607   19.2158 H   0  0  0  0  0  0
  -29.9497  -23.7819   20.0990 H   0  0  0  0  0  0
  -28.9783  -23.6107   21.5355 H   0  0  0  0  0  0
  -30.7150  -15.8329   18.0817 H   0  0  0  0  0  0
  -29.7702  -17.2258   18.4362 H   0  0  0  0  0  0
  -27.0320  -24.6649   20.4617 H   0  0  0  0  0  0
  -27.8288  -24.7564   18.9242 H   0  0  0  0  0  0
  1 25  1  0  0  0
  1 30  2  0  0  0
  1 84  1  0  0  0
  2  3  1  0  0  0
  2 25  1  0  0  0
  2 85  1  0  0  0
  2 86  1  0  0  0
  3  4  1  0  0  0
  3 87  1  0  0  0
  3 88  1  0  0  0
  4  5  1  0  0  0
  4 89  1  0  0  0
  4 90  1  0  0  0
  5  6  1  0  0  0
  5 26  1  0  0  0
  5 91  1  0  0  0
  6 25  1  0  0  0
  6 92  1  0  0  0
  6 93  1  0  0  0
  7  8  2  0  0  0
  7 26  1  0  0  0
  7 29  1  0  0  0
  8  9  1  0  0  0
  8 22  1  0  0  0
  9 10  1  0  0  0
  9 27  2  0  0  0
 10 11  2  0  0  0
 10 15  1  0  0  0
 11 12  1  0  0  0
 11 94  1  0  0  0
 12 13  2  0  0  0
 12 95  1  0  0  0
 13 14  1  0  0  0
 13 31  1  0  0  0
 14 15  2  0  0  0
 14 96  1  0  0  0
 15 97  1  0  0  0
 16 17  2  0  0  0
 16 21  1  0  0  0
 16 31  1  0  0  0
 17 18  1  0  0  0
 17 98  1  0  0  0
 18 19  2  0  0  0
 18 99  1  0  0  0
 19 20  1  0  0  0
 19 24  1  0  0  0
 20 21  2  0  0  0
 20100  1  0  0  0
 21 23  1  0  0  0
 22 28  1  0  0  0
 22 32  2  0  0  0
 26 27  1  0  0  0
 28101  1  0  0  0
 28102  1  0  0  0
 29103  1  0  0  0
 29104  1  0  0  0
 33 34  1  0  0  0
 33 66  1  0  0  0
 33 70  2  0  0  0
 34 36  1  0  0  0
 34 59  1  0  0  0
 34105  1  0  0  0
 35 44  2  0  0  0
 35 45  1  0  0  0
 35 68  1  0  0  0
 36 56  1  0  0  0
 36106  1  0  0  0
 37 39  1  0  0  0
 37 47  1  0  0  0
 37 66  1  0  0  0
 37107  1  0  0  0
 38 43  2  0  0  0
 38 46  1  0  0  0
 38 47  1  0  0  0
 39 64  1  0  0  0
 39 67  2  0  0  0
 40 52  1  0  0  0
 40 53  2  0  0  0
 40 58  1  0  0  0
 41108  1  0  0  0
 41109  1  0  0  0
 41110  1  0  0  0
 41 48  1  0  0  0
 42 43  1  0  0  0
 42 66  1  0  0  0
 42111  1  0  0  0
 42112  1  0  0  0
 43 44  1  0  0  0
 44113  1  0  0  0
 45 46  2  0  0  0
 45114  1  0  0  0
 46115  1  0  0  0
 47116  1  0  0  0
 47117  1  0  0  0
 48 56  1  0  0  0
 48 65  1  0  0  0
 48118  1  0  0  0
 49 50  1  0  0  0
 49 53  1  0  0  0
 49 64  1  0  0  0
 49119  1  0  0  0
 50 51  1  0  0  0
 50120  1  0  0  0
 50121  1  0  0  0
 51 52  1  0  0  0
 51122  1  0  0  0
 51123  1  0  0  0
 52124  1  0  0  0
 52125  1  0  0  0
 53 54  1  0  0  0
 54 55  2  0  0  0
 54126  1  0  0  0
 55 57  1  0  0  0
 55127  1  0  0  0
 56 69  2  0  0  0
 57 58  2  0  0  0
 57128  1  0  0  0
 58129  1  0  0  0
 59 60  1  0  0  0
 59 61  1  0  0  0
 59 62  1  0  0  0
 60130  1  0  0  0
 60131  1  0  0  0
 60132  1  0  0  0
 61133  1  0  0  0
 61134  1  0  0  0
 61135  1  0  0  0
 62136  1  0  0  0
 62137  1  0  0  0
 62138  1  0  0  0
 63 65  1  0  0  0
 63139  1  0  0  0
 63140  1  0  0  0
 63141  1  0  0  0
 64142  1  0  0  0
 65143  1  0  0  0
 68 81  1  0  0  0
 71 72  1  0  0  0
 71 73  2  0  0  0
 71144  1  0  0  0
 72 76  1  0  0  0
 72 82  2  0  0  0
 73 77  1  0  0  0
 73 83  1  0  0  0
 74 78  1  0  0  0
 74145  1  0  0  0
 74146  1  0  0  0
 74147  1  0  0  0
 75 83  1  0  0  0
 75148  1  0  0  0
 75149  1  0  0  0
 75150  1  0  0  0
 76 79  1  0  0  0
 76151  1  0  0  0
 76152  1  0  0  0
 77 84  1  0  0  0
 77153  1  0  0  0
 77154  1  0  0  0
 78 80  1  0  0  0
 78155  1  0  0  0
 78156  1  0  0  0
 79 81  1  0  0  0
 79157  1  0  0  0
 79158  1  0  0  0
 80 84  1  0  0  0
 80159  1  0  0  0
 80160  1  0  0  0
 81161  1  0  0  0
 81162  1  0  0  0
 82 83  1  0  0  0
M  ISO  4   1 100  68 101  81 101  84 100
M  END
> <chiral flag>
0

> <version>
0

> <s_m_source_file>
/data/baiqing/PycharmProjects/Reinvent-master-3.2/result/LINK_invent/BTK/process_docking_weight1_custom_sum_contain_oxygen_bond_distance_aromatic_linkinvent_7_9_3/rearranged_h_0057.sdf

> <i_m_source_file_index>
22

> <r_mmod_Potential_Energy-OPLS-2005>
298.061889648438

> <r_mmod_Stretch_Energy-OPLS-2005>
129.600814819336

> <r_mmod_Bend_Energy-OPLS-2005>
204.929077148438

> <r_mmod_Torsional_Energy-OPLS-2005>
282.247375488281

> <r_mmod_Improper_Torsional_Energy-OPLS-2005>
24.5397548675537

> <r_mmod_Van_der_Waal_Energy-OPLS-2005>
120.924507141113

> <r_mmod_Electrostatic_Energy-OPLS-2005>
-353.581451416016

> <r_mmod_Solvation_Energy-OPLS-2005>
-211.37532043457

> <b_mmod_Minimization_Converged-OPLS-2005>
0

> <r_mmod_RMS_Derivative-OPLS-2005>
4.39218902587891

$$$$
22
                    3D
 Structure written by MMmdl.
160168  0  0  1  0            999 V2000
  -30.5535  -14.8717   20.4587 C   0  0  0  0  0  0
  -30.4472  -12.5358   19.4619 C   0  0  0  0  0  0
  -29.5107  -12.5192   18.2306 C   0  0  0  0  0  0
  -28.0389  -12.3194   18.6515 C   0  0  0  0  0  0
  -27.6433  -13.2172   19.8543 C   0  0  2  0  0  0
  -28.7020  -13.1084   20.9697 C   0  0  0  0  0  0
  -25.2518  -13.8117   20.5665 C   0  0  0  0  0  0
  -24.1816  -13.0378   20.9207 C   0  0  0  0  0  0
  -24.6402  -11.6869   20.8773 C   0  0  0  0  0  0
  -23.9059  -10.4257   21.0422 C   0  0  0  0  0  0
  -24.3611   -9.4171   21.9194 C   0  0  0  0  0  0
  -23.6290   -8.2215   22.0748 C   0  0  0  0  0  0
  -22.4272   -8.0266   21.3546 C   0  0  0  0  0  0
  -21.9903   -9.0228   20.4640 C   0  0  0  0  0  0
  -22.7238  -10.2107   20.3056 C   0  0  0  0  0  0
  -21.6845   -6.0740   22.5291 C   0  0  0  0  0  0
  -21.4004   -6.5650   23.8223 C   0  0  0  0  0  0
  -21.3638   -5.6807   24.9180 C   0  0  0  0  0  0
  -21.6035   -4.3064   24.7237 C   0  0  0  0  0  0
  -21.8815   -3.8159   23.4358 C   0  0  0  0  0  0
  -21.9195   -4.6976   22.3413 C   0  0  0  0  0  0
  -22.7842  -13.5185   21.1847 C   0  0  0  0  0  0
  -22.1666   -4.2159   21.0992 F   0  0  0  0  0  0
  -21.5613   -3.4545   25.7745 F   0  0  0  0  0  0
  -29.9614  -13.6032   20.3901 N   0  0  0  0  0  0
  -26.2948  -12.9307   20.3339 N   0  0  0  0  0  0
  -25.9346  -11.6452   20.5805 N   0  0  0  0  0  0
  -22.0485  -12.8182   22.0413 N   0  0  0  0  0  0
  -25.4108  -15.1830   20.3952 N   0  0  0  0  0  0
  -31.7381  -14.9319   20.1009 O   0  0  0  0  0  0
  -21.6628   -6.8867   21.4247 O   0  0  0  0  0  0
  -22.3514  -14.5479   20.6686 O   0  0  0  0  0  0
  -24.6406  -31.8421   23.1861 C   0  0  0  0  0  0
  -25.9176  -32.4695   23.8273 C   0  0  1  0  0  0
  -27.2197  -27.1557   20.1482 C   0  0  0  0  0  0
  -25.5939  -33.8503   24.2165 N   0  0  0  0  0  0
  -23.4443  -30.4584   21.5347 C   0  0  2  0  0  0
  -24.8912  -28.8812   20.1182 C   0  0  0  0  0  0
  -22.7553  -29.4518   22.4887 C   0  0  0  0  0  0
  -18.0278  -28.1395   22.8435 C   0  0  0  0  0  0
  -24.1472  -36.7210   23.2661 C   0  0  0  0  0  0
  -26.0019  -30.7214   21.3821 C   0  0  0  0  0  0
  -26.0714  -29.3344   20.7234 C   0  0  0  0  0  0
  -27.2407  -28.4911   20.7106 C   0  0  0  0  0  0
  -26.0136  -26.7853   19.5214 C   0  0  0  0  0  0
  -24.8733  -27.6168   19.5055 C   0  0  0  0  0  0
  -23.6690  -29.7819   20.1561 C   0  0  0  0  0  0
  -25.4103  -36.3010   24.0334 C   0  0  1  0  0  0
  -20.5897  -28.3695   23.1233 C   0  0  2  0  0  0
  -20.6775  -26.9403   22.5388 C   0  0  0  0  0  0
  -19.5769  -26.6350   21.5197 C   0  0  0  0  0  0
  -18.1933  -26.7914   22.1591 C   0  0  0  0  0  0
  -19.1532  -28.8865   23.2828 C   0  0  0  0  0  0
  -18.9465  -30.1461   23.8849 C   0  0  0  0  0  0
  -17.6480  -30.6582   24.0562 C   0  0  0  0  0  0
  -25.9068  -34.9411   23.5047 C   0  0  0  0  0  0
  -16.5366  -29.9070   23.6356 C   0  0  0  0  0  0
  -16.7261  -28.6517   23.0329 C   0  0  0  0  0  0
  -26.4510  -31.6582   25.0726 C   0  0  0  0  0  0
  -25.3685  -31.3777   26.1415 C   0  0  0  0  0  0
  -27.0406  -30.2989   24.6307 C   0  0  0  0  0  0
  -27.6028  -32.4390   25.7487 C   0  0  0  0  0  0
  -27.5550  -37.1739   24.8474 C   0  0  0  0  0  0
  -21.4257  -29.3031   22.3635 N   0  0  0  0  0  0
  -26.4257  -37.3733   23.9449 N   0  0  0  0  0  0
  -24.7166  -31.0290   22.0893 N   0  0  0  0  0  0
  -23.4220  -28.8068   23.3033 O   0  0  0  0  0  0
  -28.3023  -26.2172   20.1496 O   0  0  0  0  0  0
  -26.5654  -34.8933   22.4630 O   0  0  0  0  0  0
  -23.5507  -32.1301   23.7064 O   0  0  0  0  0  0
  -28.1145  -20.7984   20.0985 C   0  0  0  0  0  0
  -29.0556  -21.8820   20.0724 C   0  0  0  0  0  0
  -30.3689  -21.3224   20.1991 C   0  0  0  0  0  0
  -29.7015  -19.0125   20.2607 C   0  0  0  0  0  0
  -32.0086  -22.2816   18.5362 C   0  0  0  0  0  0
  -27.9135  -23.4130   18.3245 C   0  0  0  0  0  0
  -28.7472  -16.1991   21.6065 C   0  0  0  0  0  0
  -31.6150  -22.1780   20.0195 C   0  0  0  0  0  0
  -30.1970  -17.4659   19.9623 C   0  0  0  0  0  0
  -28.1379  -24.7200   20.5156 C   0  0  0  0  0  0
  -28.7413  -23.4506   19.6178 C   0  0  1  0  0  0
  -28.4258  -19.4397   20.1523 N   0  0  0  0  0  0
  -30.6490  -19.9710   20.2981 N   0  0  0  0  0  0
  -29.8111  -16.0836   20.6074 N   0  0  0  0  0  0
  -31.4831  -12.6851   19.1505 H   0  0  0  0  0  0
  -30.4440  -11.5543   19.9404 H   0  0  0  0  0  0
  -29.8091  -11.7297   17.5378 H   0  0  0  0  0  0
  -29.6077  -13.4603   17.6858 H   0  0  0  0  0  0
  -27.9161  -11.2695   18.9217 H   0  0  0  0  0  0
  -27.3674  -12.4924   17.8094 H   0  0  0  0  0  0
  -27.6466  -14.2441   19.4905 H   0  0  0  0  0  0
  -28.7899  -12.0578   21.2583 H   0  0  0  0  0  0
  -28.4379  -13.6146   21.8935 H   0  0  0  0  0  0
  -25.2753   -9.5657   22.4769 H   0  0  0  0  0  0
  -24.0008   -7.4592   22.7453 H   0  0  0  0  0  0
  -21.0835   -8.8733   19.8940 H   0  0  0  0  0  0
  -22.3689  -10.9644   19.6160 H   0  0  0  0  0  0
  -21.1994   -7.6155   23.9730 H   0  0  0  0  0  0
  -21.1449   -6.0531   25.9081 H   0  0  0  0  0  0
  -22.0613   -2.7621   23.2857 H   0  0  0  0  0  0
  -22.4123  -11.9870   22.4840 H   0  0  0  0  0  0
  -21.1077  -13.1150   22.2559 H   0  0  0  0  0  0
  -24.6321  -15.8227   20.4974 H   0  0  0  0  0  0
  -26.2460  -15.6282   20.0374 H   0  0  0  0  0  0
  -26.7249  -32.5281   23.1008 H   0  0  0  0  0  0
  -25.0120  -33.9673   25.0337 H   0  0  0  0  0  0
  -22.7480  -31.2858   21.3748 H   0  0  0  0  0  0
  -23.3785  -35.9504   23.3296 H   0  0  0  0  0  0
  -24.3514  -36.8825   22.2067 H   0  0  0  0  0  0
  -23.7178  -37.6390   23.6694 H   0  0  0  0  0  0
  -26.1575  -31.4751   20.6091 H   0  0  0  0  0  0
  -26.8760  -30.7666   22.0215 H   0  0  0  0  0  0
  -28.1501  -28.8356   21.1796 H   0  0  0  0  0  0
  -25.9443  -25.8155   19.0509 H   0  0  0  0  0  0
  -23.9696  -27.2561   19.0348 H   0  0  0  0  0  0
  -23.8083  -30.5575   19.4028 H   0  0  0  0  0  0
  -22.7860  -29.2209   19.8404 H   0  0  0  0  0  0
  -25.1274  -36.1821   25.0823 H   0  0  0  0  0  0
  -20.9965  -28.3249   24.1363 H   0  0  0  0  0  0
  -20.5632  -26.2320   23.3604 H   0  0  0  0  0  0
  -21.6629  -26.7366   22.1214 H   0  0  0  0  0  0
  -19.6951  -25.6243   21.1251 H   0  0  0  0  0  0
  -19.6731  -27.3158   20.6733 H   0  0  0  0  0  0
  -17.4194  -26.6633   21.3995 H   0  0  0  0  0  0
  -18.0334  -26.0070   22.8987 H   0  0  0  0  0  0
  -19.7954  -30.7283   24.2192 H   0  0  0  0  0  0
  -17.5036  -31.6259   24.5155 H   0  0  0  0  0  0
  -15.5377  -30.2987   23.7727 H   0  0  0  0  0  0
  -15.8638  -28.0867   22.7053 H   0  0  0  0  0  0
  -24.5873  -30.7115   25.7699 H   0  0  0  0  0  0
  -24.8908  -32.2985   26.4773 H   0  0  0  0  0  0
  -25.7945  -30.8957   27.0226 H   0  0  0  0  0  0
  -26.3030  -29.6696   24.1310 H   0  0  0  0  0  0
  -27.4032  -29.7273   25.4870 H   0  0  0  0  0  0
  -27.8915  -30.4246   23.9617 H   0  0  0  0  0  0
  -27.2598  -33.3732   26.1955 H   0  0  0  0  0  0
  -28.3865  -32.6881   25.0310 H   0  0  0  0  0  0
  -28.0703  -31.8621   26.5470 H   0  0  0  0  0  0
  -28.2530  -38.0080   24.7527 H   0  0  0  0  0  0
  -28.1071  -36.2574   24.6251 H   0  0  0  0  0  0
  -27.2283  -37.1307   25.8897 H   0  0  0  0  0  0
  -20.9487  -29.8758   21.6822 H   0  0  0  0  0  0
  -26.0095  -38.2781   24.1538 H   0  0  0  0  0  0
  -27.0635  -21.0162   19.9697 H   0  0  0  0  0  0
  -32.9101  -22.8803   18.4006 H   0  0  0  0  0  0
  -31.2119  -22.7314   17.9425 H   0  0  0  0  0  0
  -32.2011  -21.2903   18.1228 H   0  0  0  0  0  0
  -28.3741  -22.7808   17.5659 H   0  0  0  0  0  0
  -27.8104  -24.4123   17.9001 H   0  0  0  0  0  0
  -26.9078  -23.0340   18.5103 H   0  0  0  0  0  0
  -27.8644  -15.6366   21.3207 H   0  0  0  0  0  0
  -28.4126  -17.2259   21.7396 H   0  0  0  0  0  0
  -29.0784  -15.8400   22.5805 H   0  0  0  0  0  0
  -32.4395  -21.7370   20.5785 H   0  0  0  0  0  0
  -31.4694  -23.1649   20.4566 H   0  0  0  0  0  0
  -31.2870  -17.5045   20.0126 H   0  0  0  0  0  0
  -29.9939  -17.3284   18.9001 H   0  0  0  0  0  0
  -28.6016  -24.6419   21.4989 H   0  0  0  0  0  0
  -27.0830  -24.5241   20.7042 H   0  0  0  0  0  0
  -29.7089  -23.8339   19.3078 H   0  0  0  0  0  0
  1 25  1  0  0  0
  1 30  2  0  0  0
  1 84  1  0  0  0
  2  3  1  0  0  0
  2 25  1  0  0  0
  2 85  1  0  0  0
  2 86  1  0  0  0
  3  4  1  0  0  0
  3 87  1  0  0  0
  3 88  1  0  0  0
  4  5  1  0  0  0
  4 89  1  0  0  0
  4 90  1  0  0  0
  5  6  1  0  0  0
  5 26  1  0  0  0
  5 91  1  0  0  0
  6 25  1  0  0  0
  6 92  1  0  0  0
  6 93  1  0  0  0
  7  8  2  0  0  0
  7 26  1  0  0  0
  7 29  1  0  0  0
  8  9  1  0  0  0
  8 22  1  0  0  0
  9 10  1  0  0  0
  9 27  2  0  0  0
 10 11  2  0  0  0
 10 15  1  0  0  0
 11 12  1  0  0  0
 11 94  1  0  0  0
 12 13  2  0  0  0
 12 95  1  0  0  0
 13 14  1  0  0  0
 13 31  1  0  0  0
 14 15  2  0  0  0
 14 96  1  0  0  0
 15 97  1  0  0  0
 16 17  2  0  0  0
 16 21  1  0  0  0
 16 31  1  0  0  0
 17 18  1  0  0  0
 17 98  1  0  0  0
 18 19  2  0  0  0
 18 99  1  0  0  0
 19 20  1  0  0  0
 19 24  1  0  0  0
 20 21  2  0  0  0
 20100  1  0  0  0
 21 23  1  0  0  0
 22 28  1  0  0  0
 22 32  2  0  0  0
 26 27  1  0  0  0
 28101  1  0  0  0
 28102  1  0  0  0
 29103  1  0  0  0
 29104  1  0  0  0
 33 34  1  0  0  0
 33 66  1  0  0  0
 33 70  2  0  0  0
 34 36  1  0  0  0
 34 59  1  0  0  0
 34105  1  0  0  0
 35 44  2  0  0  0
 35 45  1  0  0  0
 35 68  1  0  0  0
 36 56  1  0  0  0
 36106  1  0  0  0
 37 39  1  0  0  0
 37 47  1  0  0  0
 37 66  1  0  0  0
 37107  1  0  0  0
 38 43  2  0  0  0
 38 46  1  0  0  0
 38 47  1  0  0  0
 39 64  1  0  0  0
 39 67  2  0  0  0
 40 52  1  0  0  0
 40 53  2  0  0  0
 40 58  1  0  0  0
 41108  1  0  0  0
 41109  1  0  0  0
 41110  1  0  0  0
 41 48  1  0  0  0
 42 43  1  0  0  0
 42 66  1  0  0  0
 42111  1  0  0  0
 42112  1  0  0  0
 43 44  1  0  0  0
 44113  1  0  0  0
 45 46  2  0  0  0
 45114  1  0  0  0
 46115  1  0  0  0
 47116  1  0  0  0
 47117  1  0  0  0
 48 56  1  0  0  0
 48 65  1  0  0  0
 48118  1  0  0  0
 49 50  1  0  0  0
 49 53  1  0  0  0
 49 64  1  0  0  0
 49119  1  0  0  0
 50 51  1  0  0  0
 50120  1  0  0  0
 50121  1  0  0  0
 51 52  1  0  0  0
 51122  1  0  0  0
 51123  1  0  0  0
 52124  1  0  0  0
 52125  1  0  0  0
 53 54  1  0  0  0
 54 55  2  0  0  0
 54126  1  0  0  0
 55 57  1  0  0  0
 55127  1  0  0  0
 56 69  2  0  0  0
 57 58  2  0  0  0
 57128  1  0  0  0
 58129  1  0  0  0
 59 60  1  0  0  0
 59 61  1  0  0  0
 59 62  1  0  0  0
 60130  1  0  0  0
 60131  1  0  0  0
 60132  1  0  0  0
 61133  1  0  0  0
 61134  1  0  0  0
 61135  1  0  0  0
 62136  1  0  0  0
 62137  1  0  0  0
 62138  1  0  0  0
 63 65  1  0  0  0
 63139  1  0  0  0
 63140  1  0  0  0
 63141  1  0  0  0
 64142  1  0  0  0
 65143  1  0  0  0
 68 80  1  0  0  0
 71 72  2  0  0  0
 71 82  1  0  0  0
 71144  1  0  0  0
 72 73  1  0  0  0
 72 81  1  0  0  0
 73 78  1  0  0  0
 73 83  2  0  0  0
 74 79  1  0  0  0
 74 82  2  0  0  0
 74 83  1  0  0  0
 75 78  1  0  0  0
 75145  1  0  0  0
 75146  1  0  0  0
 75147  1  0  0  0
 76148  1  0  0  0
 76149  1  0  0  0
 76150  1  0  0  0
 76 81  1  0  0  0
 77 84  1  0  0  0
 77151  1  0  0  0
 77152  1  0  0  0
 77153  1  0  0  0
 78154  1  0  0  0
 78155  1  0  0  0
 79 84  1  0  0  0
 79156  1  0  0  0
 79157  1  0  0  0
 80 81  1  0  0  0
 80158  1  0  0  0
 80159  1  0  0  0
 81160  1  0  0  0
M  ISO  4   1 100  68 101  80 101  84 100
M  END
> <chiral flag>
0

> <version>
0

> <s_m_source_file>
/data/baiqing/PycharmProjects/Reinvent-master-3.2/result/LINK_invent/BTK/process_docking_weight1_custom_sum_contain_oxygen_bond_distance_aromatic_linkinvent_7_9_3/rearranged_h_0057.sdf

> <i_m_source_file_index>
23

> <r_mmod_Potential_Energy-OPLS-2005>
69.4891510009766

> <r_mmod_Stretch_Energy-OPLS-2005>
223.786575317383

> <r_mmod_Bend_Energy-OPLS-2005>
284.178558349609

> <r_mmod_Torsional_Energy-OPLS-2005>
268.001129150391

> <r_mmod_Improper_Torsional_Energy-OPLS-2005>
13.77818775177

> <r_mmod_Van_der_Waal_Energy-OPLS-2005>
142.936340332031

> <r_mmod_Electrostatic_Energy-OPLS-2005>
-787.359497070312

> <r_mmod_Solvation_Energy-OPLS-2005>
-218.625778198242

> <b_mmod_Minimization_Converged-OPLS-2005>
0

> <r_mmod_RMS_Derivative-OPLS-2005>
4.81105852127075

$$$$
23
                    3D
 Structure written by MMmdl.
158166  0  0  1  0            999 V2000
  -30.6571  -14.7626   20.4829 C   0  0  0  0  0  0
  -30.4270  -12.4776   19.4749 C   0  0  0  0  0  0
  -29.5073  -12.5149   18.2356 C   0  0  0  0  0  0
  -28.0335  -12.3374   18.6495 C   0  0  0  0  0  0
  -27.6414  -13.2344   19.8543 C   0  0  2  0  0  0
  -28.6898  -13.1523   20.9831 C   0  0  0  0  0  0
  -25.2490  -13.8197   20.5694 C   0  0  0  0  0  0
  -24.1788  -13.0431   20.9204 C   0  0  0  0  0  0
  -24.6387  -11.6918   20.8749 C   0  0  0  0  0  0
  -23.9070  -10.4291   21.0410 C   0  0  0  0  0  0
  -24.3619   -9.4207   21.9188 C   0  0  0  0  0  0
  -23.6294   -8.2244   22.0755 C   0  0  0  0  0  0
  -22.4278   -8.0278   21.3544 C   0  0  0  0  0  0
  -21.9917   -9.0251   20.4647 C   0  0  0  0  0  0
  -22.7244  -10.2132   20.3061 C   0  0  0  0  0  0
  -21.6849   -6.0738   22.5276 C   0  0  0  0  0  0
  -21.4017   -6.5642   23.8210 C   0  0  0  0  0  0
  -21.3662   -5.6794   24.9169 C   0  0  0  0  0  0
  -21.6044   -4.3056   24.7220 C   0  0  0  0  0  0
  -21.8820   -3.8149   23.4341 C   0  0  0  0  0  0
  -21.9196   -4.6969   22.3400 C   0  0  0  0  0  0
  -22.7810  -13.5210   21.1858 C   0  0  0  0  0  0
  -22.1658   -4.2149   21.0978 F   0  0  0  0  0  0
  -21.5632   -3.4544   25.7737 F   0  0  0  0  0  0
  -29.9777  -13.5546   20.3986 N   0  0  0  0  0  0
  -26.2934  -12.9419   20.3309 N   0  0  0  0  0  0
  -25.9326  -11.6556   20.5771 N   0  0  0  0  0  0
  -22.0461  -12.8194   22.0418 N   0  0  0  0  0  0
  -25.4142  -15.1914   20.4086 N   0  0  0  0  0  0
  -31.8394  -14.7683   20.1238 O   0  0  0  0  0  0
  -21.6633   -6.8883   21.4241 O   0  0  0  0  0  0
  -22.3488  -14.5512   20.6699 O   0  0  0  0  0  0
  -24.6332  -31.8544   23.1991 C   0  0  0  0  0  0
  -25.9156  -32.4744   23.8327 C   0  0  1  0  0  0
  -27.2123  -27.2491   20.1235 C   0  0  0  0  0  0
  -25.5944  -33.8551   24.2245 N   0  0  0  0  0  0
  -23.4293  -30.4809   21.5434 C   0  0  2  0  0  0
  -24.8736  -28.9304   20.1088 C   0  0  0  0  0  0
  -22.7505  -29.4612   22.4902 C   0  0  0  0  0  0
  -18.0299  -28.1381   22.8483 C   0  0  0  0  0  0
  -24.1490  -36.7276   23.2640 C   0  0  0  0  0  0
  -25.9784  -30.7630   21.3826 C   0  0  0  0  0  0
  -26.0489  -29.3873   20.7187 C   0  0  0  0  0  0
  -27.2217  -28.5612   20.7132 C   0  0  0  0  0  0
  -26.0112  -26.8700   19.4797 C   0  0  0  0  0  0
  -24.8612  -27.6800   19.4774 C   0  0  0  0  0  0
  -23.6458  -29.8192   20.1587 C   0  0  0  0  0  0
  -25.4118  -36.3063   24.0322 C   0  0  1  0  0  0
  -20.5906  -28.3699   23.1256 C   0  0  2  0  0  0
  -20.6785  -26.9414   22.5401 C   0  0  0  0  0  0
  -19.5757  -26.6379   21.5208 C   0  0  0  0  0  0
  -18.1940  -26.7924   22.1621 C   0  0  0  0  0  0
  -19.1551  -28.8854   23.2865 C   0  0  0  0  0  0
  -18.9471  -30.1455   23.8883 C   0  0  0  0  0  0
  -17.6468  -30.6585   24.0559 C   0  0  0  0  0  0
  -25.9058  -34.9435   23.5084 C   0  0  0  0  0  0
  -16.5359  -29.9079   23.6332 C   0  0  0  0  0  0
  -16.7285  -28.6494   23.0359 C   0  0  0  0  0  0
  -26.4519  -31.6576   25.0721 C   0  0  0  0  0  0
  -25.3732  -31.3739   26.1432 C   0  0  0  0  0  0
  -27.0375  -30.2981   24.6239 C   0  0  0  0  0  0
  -27.6053  -32.4341   25.7499 C   0  0  0  0  0  0
  -27.5582  -37.1792   24.8465 C   0  0  0  0  0  0
  -21.4213  -29.3042   22.3632 N   0  0  0  0  0  0
  -26.4292  -37.3761   23.9409 N   0  0  0  0  0  0
  -24.6994  -31.0507   22.0972 N   0  0  0  0  0  0
  -23.4193  -28.8145   23.3004 O   0  0  0  0  0  0
  -28.2919  -26.3280   20.1872 O   0  0  0  0  0  0
  -26.5629  -34.8908   22.4655 O   0  0  0  0  0  0
  -23.5477  -32.1382   23.7277 O   0  0  0  0  0  0
  -29.4397  -20.8484   20.2188 C   0  0  0  0  0  0
  -30.2479  -18.8070   20.1541 C   0  0  0  0  0  0
  -33.5557  -19.9224   20.7055 C   0  0  0  0  0  0
  -28.9979  -16.2562   21.6514 C   0  0  0  0  0  0
  -28.4898  -22.1046   20.1393 C   0  0  0  0  0  0
  -30.6263  -17.2589   19.9811 C   0  0  0  0  0  0
  -29.0153  -23.6353   20.3393 C   0  0  0  0  0  0
  -32.6259  -19.5774   19.5351 C   0  0  0  0  0  0
  -27.9910  -24.8554   20.0252 C   0  0  0  0  0  0
  -29.0781  -19.4908   20.3496 N   0  0  0  0  0  0
  -30.7270  -20.9958   19.9433 N   0  0  0  0  0  0
  -31.2204  -19.7228   19.9004 N   0  0  0  0  0  0
  -29.9991  -16.0036   20.6144 N   0  0  0  0  0  0
  -31.4673  -12.5855   19.1639 H   0  0  0  0  0  0
  -30.3768  -11.5032   19.9641 H   0  0  0  0  0  0
  -29.7941  -11.7359   17.5283 H   0  0  0  0  0  0
  -29.6315  -13.4660   17.7149 H   0  0  0  0  0  0
  -27.8925  -11.2877   18.9106 H   0  0  0  0  0  0
  -27.3755  -12.5319   17.8019 H   0  0  0  0  0  0
  -27.6383  -14.2596   19.4827 H   0  0  0  0  0  0
  -28.7466  -12.1348   21.3740 H   0  0  0  0  0  0
  -28.4049  -13.7625   21.8348 H   0  0  0  0  0  0
  -25.2765   -9.5684   22.4754 H   0  0  0  0  0  0
  -24.0005   -7.4639   22.7470 H   0  0  0  0  0  0
  -21.0853   -8.8777   19.8944 H   0  0  0  0  0  0
  -22.3709  -10.9673   19.6168 H   0  0  0  0  0  0
  -21.2005   -7.6146   23.9716 H   0  0  0  0  0  0
  -21.1484   -6.0518   25.9071 H   0  0  0  0  0  0
  -22.0597   -2.7610   23.2837 H   0  0  0  0  0  0
  -22.4087  -11.9861   22.4812 H   0  0  0  0  0  0
  -21.1075  -13.1216   22.2621 H   0  0  0  0  0  0
  -24.6467  -15.8444   20.5232 H   0  0  0  0  0  0
  -26.2631  -15.6342   20.0819 H   0  0  0  0  0  0
  -26.7220  -32.5376   23.1060 H   0  0  0  0  0  0
  -25.0092  -33.9692   25.0389 H   0  0  0  0  0  0
  -22.7266  -31.3047   21.4001 H   0  0  0  0  0  0
  -23.3753  -35.9608   23.3302 H   0  0  0  0  0  0
  -24.3581  -36.8902   22.2055 H   0  0  0  0  0  0
  -23.7243  -37.6474   23.6670 H   0  0  0  0  0  0
  -26.1268  -31.5270   20.6187 H   0  0  0  0  0  0
  -26.8530  -30.8028   22.0202 H   0  0  0  0  0  0
  -28.1192  -28.9065   21.2068 H   0  0  0  0  0  0
  -25.9180  -25.9190   18.9793 H   0  0  0  0  0  0
  -23.9628  -27.3242   18.9918 H   0  0  0  0  0  0
  -23.7694  -30.5986   19.4058 H   0  0  0  0  0  0
  -22.7619  -29.2565   19.8525 H   0  0  0  0  0  0
  -25.1301  -36.1910   25.0813 H   0  0  0  0  0  0
  -20.9995  -28.3284   24.1379 H   0  0  0  0  0  0
  -20.5685  -26.2309   23.3608 H   0  0  0  0  0  0
  -21.6653  -26.7437   22.1192 H   0  0  0  0  0  0
  -19.6918  -25.6287   21.1245 H   0  0  0  0  0  0
  -19.6694  -27.3180   20.6729 H   0  0  0  0  0  0
  -17.4207  -26.6670   21.4026 H   0  0  0  0  0  0
  -18.0342  -26.0068   22.9018 H   0  0  0  0  0  0
  -19.7949  -30.7277   24.2238 H   0  0  0  0  0  0
  -17.5029  -31.6269   24.5158 H   0  0  0  0  0  0
  -15.5360  -30.2977   23.7671 H   0  0  0  0  0  0
  -15.8685  -28.0812   22.7082 H   0  0  0  0  0  0
  -24.5899  -30.7101   25.7757 H   0  0  0  0  0  0
  -24.8932  -32.2914   26.4843 H   0  0  0  0  0  0
  -25.8033  -30.8918   27.0219 H   0  0  0  0  0  0
  -26.2970  -29.6708   24.1256 H   0  0  0  0  0  0
  -27.4031  -29.7267   25.4784 H   0  0  0  0  0  0
  -27.8865  -30.4237   23.9514 H   0  0  0  0  0  0
  -27.2637  -33.3647   26.2049 H   0  0  0  0  0  0
  -28.3873  -32.6902   25.0339 H   0  0  0  0  0  0
  -28.0712  -31.8491   26.5439 H   0  0  0  0  0  0
  -28.2589  -38.0097   24.7518 H   0  0  0  0  0  0
  -28.1089  -36.2628   24.6291 H   0  0  0  0  0  0
  -27.2300  -37.1437   25.8866 H   0  0  0  0  0  0
  -20.9389  -29.8763   21.6842 H   0  0  0  0  0  0
  -26.0170  -38.2832   24.1410 H   0  0  0  0  0  0
  -34.6005  -19.8380   20.4082 H   0  0  0  0  0  0
  -33.3901  -19.2539   21.5504 H   0  0  0  0  0  0
  -33.3937  -20.9452   21.0480 H   0  0  0  0  0  0
  -29.2085  -15.6833   22.5555 H   0  0  0  0  0  0
  -28.0020  -15.9989   21.2946 H   0  0  0  0  0  0
  -28.9723  -17.2999   21.9583 H   0  0  0  0  0  0
  -27.6855  -21.9376   20.8559 H   0  0  0  0  0  0
  -28.0062  -22.0579   19.1636 H   0  0  0  0  0  0
  -31.6601  -17.2029   20.3197 H   0  0  0  0  0  0
  -30.6655  -17.0743   18.9069 H   0  0  0  0  0  0
  -29.8884  -23.7731   19.7015 H   0  0  0  0  0  0
  -29.3833  -23.7372   21.3606 H   0  0  0  0  0  0
  -32.8297  -18.5766   19.1586 H   0  0  0  0  0  0
  -32.8337  -20.2452   18.6968 H   0  0  0  0  0  0
  -27.1001  -24.6487   20.6205 H   0  0  0  0  0  0
  -27.6971  -24.7130   18.9852 H   0  0  0  0  0  0
  1 25  1  0  0  0
  1 30  2  0  0  0
  1 83  1  0  0  0
  2  3  1  0  0  0
  2 25  1  0  0  0
  2 84  1  0  0  0
  2 85  1  0  0  0
  3  4  1  0  0  0
  3 86  1  0  0  0
  3 87  1  0  0  0
  4  5  1  0  0  0
  4 88  1  0  0  0
  4 89  1  0  0  0
  5  6  1  0  0  0
  5 26  1  0  0  0
  5 90  1  0  0  0
  6 25  1  0  0  0
  6 91  1  0  0  0
  6 92  1  0  0  0
  7  8  2  0  0  0
  7 26  1  0  0  0
  7 29  1  0  0  0
  8  9  1  0  0  0
  8 22  1  0  0  0
  9 10  1  0  0  0
  9 27  2  0  0  0
 10 11  2  0  0  0
 10 15  1  0  0  0
 11 12  1  0  0  0
 11 93  1  0  0  0
 12 13  2  0  0  0
 12 94  1  0  0  0
 13 14  1  0  0  0
 13 31  1  0  0  0
 14 15  2  0  0  0
 14 95  1  0  0  0
 15 96  1  0  0  0
 16 17  2  0  0  0
 16 21  1  0  0  0
 16 31  1  0  0  0
 17 18  1  0  0  0
 17 97  1  0  0  0
 18 19  2  0  0  0
 18 98  1  0  0  0
 19 20  1  0  0  0
 19 24  1  0  0  0
 20 21  2  0  0  0
 20 99  1  0  0  0
 21 23  1  0  0  0
 22 28  1  0  0  0
 22 32  2  0  0  0
 26 27  1  0  0  0
 28100  1  0  0  0
 28101  1  0  0  0
 29102  1  0  0  0
 29103  1  0  0  0
 33 34  1  0  0  0
 33 66  1  0  0  0
 33 70  2  0  0  0
 34 36  1  0  0  0
 34 59  1  0  0  0
 34104  1  0  0  0
 35 44  2  0  0  0
 35 45  1  0  0  0
 35 68  1  0  0  0
 36 56  1  0  0  0
 36105  1  0  0  0
 37 39  1  0  0  0
 37 47  1  0  0  0
 37 66  1  0  0  0
 37106  1  0  0  0
 38 43  2  0  0  0
 38 46  1  0  0  0
 38 47  1  0  0  0
 39 64  1  0  0  0
 39 67  2  0  0  0
 40 52  1  0  0  0
 40 53  2  0  0  0
 40 58  1  0  0  0
 41107  1  0  0  0
 41108  1  0  0  0
 41109  1  0  0  0
 41 48  1  0  0  0
 42 43  1  0  0  0
 42 66  1  0  0  0
 42110  1  0  0  0
 42111  1  0  0  0
 43 44  1  0  0  0
 44112  1  0  0  0
 45 46  2  0  0  0
 45113  1  0  0  0
 46114  1  0  0  0
 47115  1  0  0  0
 47116  1  0  0  0
 48 56  1  0  0  0
 48 65  1  0  0  0
 48117  1  0  0  0
 49 50  1  0  0  0
 49 53  1  0  0  0
 49 64  1  0  0  0
 49118  1  0  0  0
 50 51  1  0  0  0
 50119  1  0  0  0
 50120  1  0  0  0
 51 52  1  0  0  0
 51121  1  0  0  0
 51122  1  0  0  0
 52123  1  0  0  0
 52124  1  0  0  0
 53 54  1  0  0  0
 54 55  2  0  0  0
 54125  1  0  0  0
 55 57  1  0  0  0
 55126  1  0  0  0
 56 69  2  0  0  0
 57 58  2  0  0  0
 57127  1  0  0  0
 58128  1  0  0  0
 59 60  1  0  0  0
 59 61  1  0  0  0
 59 62  1  0  0  0
 60129  1  0  0  0
 60130  1  0  0  0
 60131  1  0  0  0
 61132  1  0  0  0
 61133  1  0  0  0
 61134  1  0  0  0
 62135  1  0  0  0
 62136  1  0  0  0
 62137  1  0  0  0
 63 65  1  0  0  0
 63138  1  0  0  0
 63139  1  0  0  0
 63140  1  0  0  0
 64141  1  0  0  0
 65142  1  0  0  0
 68 79  1  0  0  0
 71 75  1  0  0  0
 71 80  1  0  0  0
 71 81  2  0  0  0
 72 76  1  0  0  0
 72 80  2  0  0  0
 72 82  1  0  0  0
 73 78  1  0  0  0
 73143  1  0  0  0
 73144  1  0  0  0
 73145  1  0  0  0
 74 83  1  0  0  0
 74146  1  0  0  0
 74147  1  0  0  0
 74148  1  0  0  0
 75 77  1  0  0  0
 75149  1  0  0  0
 75150  1  0  0  0
 76 83  1  0  0  0
 76151  1  0  0  0
 76152  1  0  0  0
 77 79  1  0  0  0
 77153  1  0  0  0
 77154  1  0  0  0
 78 82  1  0  0  0
 78155  1  0  0  0
 78156  1  0  0  0
 79157  1  0  0  0
 79158  1  0  0  0
 81 82  1  0  0  0
M  ISO  4   1 100  68 101  79 101  83 100
M  END
> <chiral flag>
0

> <version>
0

> <s_m_source_file>
/data/baiqing/PycharmProjects/Reinvent-master-3.2/result/LINK_invent/BTK/process_docking_weight1_custom_sum_contain_oxygen_bond_distance_aromatic_linkinvent_7_9_3/rearranged_h_0057.sdf

> <i_m_source_file_index>
24

> <r_mmod_Potential_Energy-OPLS-2005>
263.119720458984

> <r_mmod_Stretch_Energy-OPLS-2005>
141.751510620117

> <r_mmod_Bend_Energy-OPLS-2005>
237.887496948242

> <r_mmod_Torsional_Energy-OPLS-2005>
259.01611328125

> <r_mmod_Improper_Torsional_Energy-OPLS-2005>
11.4904842376709

> <r_mmod_Van_der_Waal_Energy-OPLS-2005>
132.915191650391

> <r_mmod_Electrostatic_Energy-OPLS-2005>
-395.605133056641

> <r_mmod_Solvation_Energy-OPLS-2005>
-215.300155639648

> <b_mmod_Minimization_Converged-OPLS-2005>
0

> <r_mmod_RMS_Derivative-OPLS-2005>
1.11605620384216

$$$$
24
                    3D
 Structure written by MMmdl.
149157  0  0  1  0            999 V2000
  -30.0351  -16.2710   20.2888 C   0  0  0  0  0  0
  -30.3763  -13.5457   19.5793 C   0  0  0  0  0  0
  -29.5825  -12.8582   18.4054 C   0  0  0  0  0  0
  -28.2062  -12.3591   18.8582 C   0  0  0  0  0  0
  -27.5841  -13.3874   19.8180 C   0  0  2  0  0  0
  -28.5484  -13.9477   20.9100 C   0  0  0  0  0  0
  -25.2225  -13.8393   20.5871 C   0  0  0  0  0  0
  -24.1695  -13.0437   20.9308 C   0  0  0  0  0  0
  -24.6510  -11.6987   20.8731 C   0  0  0  0  0  0
  -23.9218  -10.4302   21.0352 C   0  0  0  0  0  0
  -24.3716   -9.4217   21.9156 C   0  0  0  0  0  0
  -23.6352   -8.2267   22.0747 C   0  0  0  0  0  0
  -22.4328   -8.0307   21.3545 C   0  0  0  0  0  0
  -21.9996   -9.0284   20.4634 C   0  0  0  0  0  0
  -22.7362  -10.2145   20.3027 C   0  0  0  0  0  0
  -21.6869   -6.0759   22.5280 C   0  0  0  0  0  0
  -21.4024   -6.5655   23.8216 C   0  0  0  0  0  0
  -21.3669   -5.6803   24.9174 C   0  0  0  0  0  0
  -21.6046   -4.3064   24.7219 C   0  0  0  0  0  0
  -21.8815   -3.8162   23.4336 C   0  0  0  0  0  0
  -21.9198   -4.6984   22.3398 C   0  0  0  0  0  0
  -22.7689  -13.5102   21.1933 C   0  0  0  0  0  0
  -22.1666   -4.2173   21.0975 F   0  0  0  0  0  0
  -21.5629   -3.4543   25.7728 F   0  0  0  0  0  0
  -29.6390  -14.7709   20.2593 N   0  0  0  0  0  0
  -26.2788  -12.9896   20.3330 N   0  0  0  0  0  0
  -25.9496  -11.6873   20.5644 N   0  0  0  0  0  0
  -22.0378  -12.8058   22.0485 N   0  0  0  0  0  0
  -25.3663  -15.2145   20.4340 N   0  0  0  0  0  0
  -31.2663  -16.1118   20.0615 O   0  0  0  0  0  0
  -21.6667   -6.8914   21.4248 O   0  0  0  0  0  0
  -22.3332  -14.5393   20.6768 O   0  0  0  0  0  0
  -24.7233  -31.7469   23.1168 C   0  0  0  0  0  0
  -25.9600  -32.4209   23.7872 C   0  0  1  0  0  0
  -27.2573  -26.2660   20.2501 C   0  0  0  0  0  0
  -25.5998  -33.8065   24.1706 N   0  0  0  0  0  0
  -23.5716  -30.3270   21.4795 C   0  0  2  0  0  0
  -25.0375  -28.5759   20.1276 C   0  0  0  0  0  0
  -22.7946  -29.4028   22.4587 C   0  0  0  0  0  0
  -18.0361  -28.1435   22.8429 C   0  0  0  0  0  0
  -24.1512  -36.7063   23.2678 C   0  0  0  0  0  0
  -26.1661  -30.3324   21.4510 C   0  0  0  0  0  0
  -26.2281  -28.8487   20.8084 C   0  0  0  0  0  0
  -27.2932  -27.7348   20.8320 C   0  0  0  0  0  0
  -26.0355  -26.3191   19.4921 C   0  0  0  0  0  0
  -25.0071  -27.3411   19.4441 C   0  0  0  0  0  0
  -23.8515  -29.5812   20.1342 C   0  0  0  0  0  0
  -25.4193  -36.2761   24.0241 C   0  0  1  0  0  0
  -20.6015  -28.3820   23.1055 C   0  0  2  0  0  0
  -20.6804  -26.9434   22.5415 C   0  0  0  0  0  0
  -19.5792  -26.6348   21.5222 C   0  0  0  0  0  0
  -18.1973  -26.7951   22.1613 C   0  0  0  0  0  0
  -19.1635  -28.8962   23.2707 C   0  0  0  0  0  0
  -18.9532  -30.1530   23.8774 C   0  0  0  0  0  0
  -17.6518  -30.6607   24.0536 C   0  0  0  0  0  0
  -25.9167  -34.9144   23.4850 C   0  0  0  0  0  0
  -16.5406  -29.9079   23.6355 C   0  0  0  0  0  0
  -16.7336  -28.6504   23.0368 C   0  0  0  0  0  0
  -26.4660  -31.6430   25.0669 C   0  0  0  0  0  0
  -25.3618  -31.3856   26.1201 C   0  0  0  0  0  0
  -27.0689  -30.2729   24.6880 C   0  0  0  0  0  0
  -27.6014  -32.4405   25.7520 C   0  0  0  0  0  0
  -27.5522  -37.1760   24.8506 C   0  0  0  0  0  0
  -21.4554  -29.2975   22.3323 N   0  0  0  0  0  0
  -26.4316  -37.3529   23.9310 N   0  0  0  0  0  0
  -24.8491  -30.8467   22.0676 N   0  0  0  0  0  0
  -23.4175  -28.7699   23.3136 O   0  0  0  0  0  0
  -28.1748  -24.8584   20.3683 O   0  0  0  0  0  0
  -26.5875  -34.8792   22.4511 O   0  0  0  0  0  0
  -23.6160  -32.0745   23.5843 O   0  0  0  0  0  0
  -28.0257  -22.2767   18.9960 C   0  0  0  0  0  0
  -28.2817  -23.0959   20.1262 C   0  0  0  0  0  0
  -28.9263  -20.2680   20.2036 C   0  0  0  0  0  0
  -27.7946  -17.8052   20.9385 C   0  0  0  0  0  0
  -29.9745  -18.4217   22.0002 C   0  0  0  0  0  0
  -28.1018  -19.9316   17.9324 C   0  0  0  0  0  0
  -29.2525  -18.2064   20.6554 C   0  0  0  0  0  0
  -28.3643  -20.8294   19.0600 N   0  0  0  0  0  0
  -28.8594  -21.7244   20.8112 N   0  3  0  0  0  0
  -31.3282  -13.8760   19.1641 H   0  0  0  0  0  0
  -30.6674  -12.8021   20.3234 H   0  0  0  0  0  0
  -30.1623  -12.0379   17.9807 H   0  0  0  0  0  0
  -29.4517  -13.5867   17.6039 H   0  0  0  0  0  0
  -28.3375  -11.4099   19.3796 H   0  0  0  0  0  0
  -27.5563  -12.1659   18.0036 H   0  0  0  0  0  0
  -27.3765  -14.2377   19.1660 H   0  0  0  0  0  0
  -28.9303  -13.1528   21.5533 H   0  0  0  0  0  0
  -27.9957  -14.6017   21.5827 H   0  0  0  0  0  0
  -25.2846   -9.5687   22.4757 H   0  0  0  0  0  0
  -24.0042   -7.4665   22.7487 H   0  0  0  0  0  0
  -21.0920   -8.8822   19.8944 H   0  0  0  0  0  0
  -22.3812  -10.9688   19.6146 H   0  0  0  0  0  0
  -21.2017   -7.6163   23.9727 H   0  0  0  0  0  0
  -21.1497   -6.0529   25.9080 H   0  0  0  0  0  0
  -22.0584   -2.7625   23.2826 H   0  0  0  0  0  0
  -22.4042  -11.9752   22.4891 H   0  0  0  0  0  0
  -21.0977  -13.1027   22.2677 H   0  0  0  0  0  0
  -24.5871  -15.8511   20.5582 H   0  0  0  0  0  0
  -26.2053  -15.6721   20.1050 H   0  0  0  0  0  0
  -26.7717  -32.4588   23.0602 H   0  0  0  0  0  0
  -24.9966  -33.9038   24.9740 H   0  0  0  0  0  0
  -22.9235  -31.1753   21.2503 H   0  0  0  0  0  0
  -23.3727  -35.9455   23.3461 H   0  0  0  0  0  0
  -24.3494  -36.8626   22.2063 H   0  0  0  0  0  0
  -23.7380  -37.6315   23.6710 H   0  0  0  0  0  0
  -26.4124  -31.0270   20.6472 H   0  0  0  0  0  0
  -27.0023  -30.4162   22.1314 H   0  0  0  0  0  0
  -28.1735  -27.9642   21.4157 H   0  0  0  0  0  0
  -25.8025  -25.4179   18.9427 H   0  0  0  0  0  0
  -24.1238  -27.1164   18.8622 H   0  0  0  0  0  0
  -24.0586  -30.3224   19.3618 H   0  0  0  0  0  0
  -22.9489  -29.0657   19.8021 H   0  0  0  0  0  0
  -25.1461  -36.1517   25.0745 H   0  0  0  0  0  0
  -21.0073  -28.3480   24.1192 H   0  0  0  0  0  0
  -20.5624  -26.2457   23.3719 H   0  0  0  0  0  0
  -21.6663  -26.7305   22.1263 H   0  0  0  0  0  0
  -19.6952  -25.6230   21.1324 H   0  0  0  0  0  0
  -19.6753  -27.3095   20.6701 H   0  0  0  0  0  0
  -17.4247  -26.6678   21.4013 H   0  0  0  0  0  0
  -18.0352  -26.0123   22.9035 H   0  0  0  0  0  0
  -19.8007  -30.7368   24.2098 H   0  0  0  0  0  0
  -17.5067  -31.6275   24.5159 H   0  0  0  0  0  0
  -15.5400  -30.2943   23.7753 H   0  0  0  0  0  0
  -15.8734  -28.0785   22.7152 H   0  0  0  0  0  0
  -24.5852  -30.7167   25.7472 H   0  0  0  0  0  0
  -24.8772  -32.3116   26.4303 H   0  0  0  0  0  0
  -25.7699  -30.9224   27.0193 H   0  0  0  0  0  0
  -26.3501  -29.6177   24.1942 H   0  0  0  0  0  0
  -27.4025  -29.7366   25.5776 H   0  0  0  0  0  0
  -27.9507  -30.3779   24.0553 H   0  0  0  0  0  0
  -27.2475  -33.3811   26.1751 H   0  0  0  0  0  0
  -28.4000  -32.6790   25.0484 H   0  0  0  0  0  0
  -28.0479  -31.8778   26.5728 H   0  0  0  0  0  0
  -28.2693  -37.9883   24.7237 H   0  0  0  0  0  0
  -28.0862  -36.2399   24.6798 H   0  0  0  0  0  0
  -27.2155  -37.1943   25.8885 H   0  0  0  0  0  0
  -20.9961  -29.8564   21.6266 H   0  0  0  0  0  0
  -26.0136  -38.2620   24.1098 H   0  0  0  0  0  0
  -27.6094  -22.6494   18.0720 H   0  0  0  0  0  0
  -27.3229  -18.4854   21.6483 H   0  0  0  0  0  0
  -27.7077  -16.8057   21.3575 H   0  0  0  0  0  0
  -27.2058  -17.8357   20.0224 H   0  0  0  0  0  0
  -29.3888  -19.0440   22.6773 H   0  0  0  0  0  0
  -30.9280  -18.9251   21.8407 H   0  0  0  0  0  0
  -30.1817  -17.4908   22.5294 H   0  0  0  0  0  0
  -28.2017  -20.4829   16.9975 H   0  0  0  0  0  0
  -27.0891  -19.5374   18.0170 H   0  0  0  0  0  0
  -28.8179  -19.1092   17.9309 H   0  0  0  0  0  0
  -29.2042  -21.8281   21.7569 H   0  0  0  0  0  0
  1 25  1  0  0  0
  1 30  2  0  0  0
  1 77  1  0  0  0
  2  3  1  0  0  0
  2 25  1  0  0  0
  2 80  1  0  0  0
  2 81  1  0  0  0
  3  4  1  0  0  0
  3 82  1  0  0  0
  3 83  1  0  0  0
  4  5  1  0  0  0
  4 84  1  0  0  0
  4 85  1  0  0  0
  5  6  1  0  0  0
  5 26  1  0  0  0
  5 86  1  0  0  0
  6 25  1  0  0  0
  6 87  1  0  0  0
  6 88  1  0  0  0
  7  8  2  0  0  0
  7 26  1  0  0  0
  7 29  1  0  0  0
  8  9  1  0  0  0
  8 22  1  0  0  0
  9 10  1  0  0  0
  9 27  2  0  0  0
 10 11  2  0  0  0
 10 15  1  0  0  0
 11 12  1  0  0  0
 11 89  1  0  0  0
 12 13  2  0  0  0
 12 90  1  0  0  0
 13 14  1  0  0  0
 13 31  1  0  0  0
 14 15  2  0  0  0
 14 91  1  0  0  0
 15 92  1  0  0  0
 16 17  2  0  0  0
 16 21  1  0  0  0
 16 31  1  0  0  0
 17 18  1  0  0  0
 17 93  1  0  0  0
 18 19  2  0  0  0
 18 94  1  0  0  0
 19 20  1  0  0  0
 19 24  1  0  0  0
 20 21  2  0  0  0
 20 95  1  0  0  0
 21 23  1  0  0  0
 22 28  1  0  0  0
 22 32  2  0  0  0
 26 27  1  0  0  0
 28 96  1  0  0  0
 28 97  1  0  0  0
 29 98  1  0  0  0
 29 99  1  0  0  0
 33 34  1  0  0  0
 33 66  1  0  0  0
 33 70  2  0  0  0
 34 36  1  0  0  0
 34 59  1  0  0  0
 34100  1  0  0  0
 35 44  2  0  0  0
 35 45  1  0  0  0
 35 68  1  0  0  0
 36 56  1  0  0  0
 36101  1  0  0  0
 37 39  1  0  0  0
 37 47  1  0  0  0
 37 66  1  0  0  0
 37102  1  0  0  0
 38 43  2  0  0  0
 38 46  1  0  0  0
 38 47  1  0  0  0
 39 64  1  0  0  0
 39 67  2  0  0  0
 40 52  1  0  0  0
 40 53  2  0  0  0
 40 58  1  0  0  0
 41103  1  0  0  0
 41104  1  0  0  0
 41105  1  0  0  0
 41 48  1  0  0  0
 42 43  1  0  0  0
 42 66  1  0  0  0
 42106  1  0  0  0
 42107  1  0  0  0
 43 44  1  0  0  0
 44108  1  0  0  0
 45 46  2  0  0  0
 45109  1  0  0  0
 46110  1  0  0  0
 47111  1  0  0  0
 47112  1  0  0  0
 48 56  1  0  0  0
 48 65  1  0  0  0
 48113  1  0  0  0
 49 50  1  0  0  0
 49 53  1  0  0  0
 49 64  1  0  0  0
 49114  1  0  0  0
 50 51  1  0  0  0
 50115  1  0  0  0
 50116  1  0  0  0
 51 52  1  0  0  0
 51117  1  0  0  0
 51118  1  0  0  0
 52119  1  0  0  0
 52120  1  0  0  0
 53 54  1  0  0  0
 54 55  2  0  0  0
 54121  1  0  0  0
 55 57  1  0  0  0
 55122  1  0  0  0
 56 69  2  0  0  0
 57 58  2  0  0  0
 57123  1  0  0  0
 58124  1  0  0  0
 59 60  1  0  0  0
 59 61  1  0  0  0
 59 62  1  0  0  0
 60125  1  0  0  0
 60126  1  0  0  0
 60127  1  0  0  0
 61128  1  0  0  0
 61129  1  0  0  0
 61130  1  0  0  0
 62131  1  0  0  0
 62132  1  0  0  0
 62133  1  0  0  0
 63 65  1  0  0  0
 63134  1  0  0  0
 63135  1  0  0  0
 63136  1  0  0  0
 64137  1  0  0  0
 65138  1  0  0  0
 68 72  1  0  0  0
 71 72  2  0  0  0
 71 78  1  0  0  0
 71139  1  0  0  0
 72 79  1  0  0  0
 73 77  1  0  0  0
 73 78  1  0  0  0
 73 79  2  0  0  0
 74140  1  0  0  0
 74141  1  0  0  0
 74142  1  0  0  0
 74 77  1  0  0  0
 75 77  1  0  0  0
 75143  1  0  0  0
 75144  1  0  0  0
 75145  1  0  0  0
 76 78  1  0  0  0
 76146  1  0  0  0
 76147  1  0  0  0
 76148  1  0  0  0
 79149  1  0  0  0
M  CHG  1  79   1
M  ISO  4   1 100  68 101  72 101  77 100
M  END
> <chiral flag>
0

> <version>
0

> <s_m_source_file>
/data/baiqing/PycharmProjects/Reinvent-master-3.2/result/LINK_invent/BTK/process_docking_weight1_custom_sum_contain_oxygen_bond_distance_aromatic_linkinvent_7_9_3/rearranged_h_0057.sdf

> <i_m_source_file_index>
25

> <r_mmod_Potential_Energy-OPLS-2005>
4948.67919921875

> <r_mmod_Stretch_Energy-OPLS-2005>
2115.87890625

> <r_mmod_Bend_Energy-OPLS-2005>
1034.81396484375

> <r_mmod_Torsional_Energy-OPLS-2005>
219.565475463867

> <r_mmod_Improper_Torsional_Energy-OPLS-2005>
4.68755960464478

> <r_mmod_Van_der_Waal_Energy-OPLS-2005>
111.09375

> <r_mmod_Electrostatic_Energy-OPLS-2005>
-210.972946166992

> <r_mmod_Solvation_Energy-OPLS-2005>
-408.428680419922

> <b_mmod_Minimization_Converged-OPLS-2005>
0

> <r_mmod_RMS_Derivative-OPLS-2005>
1.30262112617493

$$$$
25
                    3D
 Structure written by MMmdl.
154162  0  0  1  0            999 V2000
  -30.4518  -15.3128   20.3355 C   0  0  0  0  0  0
  -30.4394  -12.8479   19.4972 C   0  0  0  0  0  0
  -29.5338  -12.5357   18.2800 C   0  0  0  0  0  0
  -28.1069  -12.1872   18.7434 C   0  0  0  0  0  0
  -27.5928  -13.2012   19.7832 C   0  0  2  0  0  0
  -28.6311  -13.4998   20.8993 C   0  0  0  0  0  0
  -25.2392  -13.7934   20.5775 C   0  0  0  0  0  0
  -24.1681  -13.0249   20.9303 C   0  0  0  0  0  0
  -24.6287  -11.6750   20.8795 C   0  0  0  0  0  0
  -23.8966  -10.4189   21.0420 C   0  0  0  0  0  0
  -24.3549   -9.4139   21.9196 C   0  0  0  0  0  0
  -23.6240   -8.2176   22.0754 C   0  0  0  0  0  0
  -22.4222   -8.0219   21.3537 C   0  0  0  0  0  0
  -21.9839   -9.0185   20.4639 C   0  0  0  0  0  0
  -22.7155  -10.2066   20.3049 C   0  0  0  0  0  0
  -21.6828   -6.0700   22.5286 C   0  0  0  0  0  0
  -21.3983   -6.5607   23.8214 C   0  0  0  0  0  0
  -21.3662   -5.6769   24.9182 C   0  0  0  0  0  0
  -21.6060   -4.3030   24.7232 C   0  0  0  0  0  0
  -21.8817   -3.8120   23.4346 C   0  0  0  0  0  0
  -21.9183   -4.6936   22.3405 C   0  0  0  0  0  0
  -22.7736  -13.5143   21.1939 C   0  0  0  0  0  0
  -22.1651   -4.2125   21.0975 F   0  0  0  0  0  0
  -21.5650   -3.4514   25.7739 F   0  0  0  0  0  0
  -29.8550  -14.0156   20.2517 N   0  0  0  0  0  0
  -26.2723  -12.9085   20.3117 N   0  0  0  0  0  0
  -25.9188  -11.6279   20.5701 N   0  0  0  0  0  0
  -22.0329  -12.8183   22.0485 N   0  0  0  0  0  0
  -25.3983  -15.1624   20.4318 N   0  0  0  0  0  0
  -31.6899  -15.2547   20.2841 O   0  0  0  0  0  0
  -21.6593   -6.8821   21.4236 O   0  0  0  0  0  0
  -22.3486  -14.5476   20.6772 O   0  0  0  0  0  0
  -24.6587  -31.8294   23.1743 C   0  0  0  0  0  0
  -25.9283  -32.4611   23.8190 C   0  0  1  0  0  0
  -27.2339  -26.9762   20.1737 C   0  0  0  0  0  0
  -25.5979  -33.8424   24.2097 N   0  0  0  0  0  0
  -23.4721  -30.4414   21.5206 C   0  0  2  0  0  0
  -24.9314  -28.8388   20.1125 C   0  0  0  0  0  0
  -22.7660  -29.4467   22.4778 C   0  0  0  0  0  0
  -18.0324  -28.1425   22.8460 C   0  0  0  0  0  0
  -24.1492  -36.7221   23.2642 C   0  0  0  0  0  0
  -26.0402  -30.6494   21.4003 C   0  0  0  0  0  0
  -26.1131  -29.2443   20.7444 C   0  0  0  0  0  0
  -27.2599  -28.3341   20.7522 C   0  0  0  0  0  0
  -26.0205  -26.7165   19.4944 C   0  0  0  0  0  0
  -24.9077  -27.5927   19.4687 C   0  0  0  0  0  0
  -23.7135  -29.7590   20.1467 C   0  0  0  0  0  0
  -25.4134  -36.2979   24.0291 C   0  0  1  0  0  0
  -20.5948  -28.3758   23.1190 C   0  0  2  0  0  0
  -20.6797  -26.9439   22.5395 C   0  0  0  0  0  0
  -19.5772  -26.6384   21.5213 C   0  0  0  0  0  0
  -18.1957  -26.7954   22.1622 C   0  0  0  0  0  0
  -19.1586  -28.8914   23.2811 C   0  0  0  0  0  0
  -18.9495  -30.1501   23.8853 C   0  0  0  0  0  0
  -17.6489  -30.6607   24.0554 C   0  0  0  0  0  0
  -25.9093  -34.9361   23.5008 C   0  0  0  0  0  0
  -16.5379  -29.9097   23.6343 C   0  0  0  0  0  0
  -16.7306  -28.6521   23.0356 C   0  0  0  0  0  0
  -26.4559  -31.6541   25.0699 C   0  0  0  0  0  0
  -25.3691  -31.3788   26.1356 C   0  0  0  0  0  0
  -27.0451  -30.2912   24.6401 C   0  0  0  0  0  0
  -27.6052  -32.4352   25.7500 C   0  0  0  0  0  0
  -27.5565  -37.1772   24.8465 C   0  0  0  0  0  0
  -21.4332  -29.3064   22.3547 N   0  0  0  0  0  0
  -26.4283  -37.3710   23.9398 N   0  0  0  0  0  0
  -24.7437  -30.9997   22.0852 N   0  0  0  0  0  0
  -23.4232  -28.8018   23.2985 O   0  0  0  0  0  0
  -28.2401  -25.8832   20.2502 O   0  0  0  0  0  0
  -26.5693  -34.8889   22.4596 O   0  0  0  0  0  0
  -23.5670  -32.1230   23.6872 O   0  0  0  0  0  0
  -29.3864  -21.9931   19.2588 C   0  0  0  0  0  0
  -28.5057  -21.8146   21.3285 C   0  0  0  0  0  0
  -28.6953  -22.7808   20.2628 C   0  0  0  0  0  0
  -29.5574  -19.7892   20.3764 C   0  0  0  0  0  0
  -27.3914  -17.6877   20.0440 C   0  0  0  0  0  0
  -28.6883  -16.8063   18.0285 C   0  0  0  0  0  0
  -27.8816  -24.3051   20.0755 C   0  0  0  0  0  0
  -30.2429  -18.1921   20.5337 C   0  0  0  0  0  0
  -28.4622  -16.6964   19.5466 C   0  0  0  0  0  0
  -29.7951  -20.6326   19.3252 N   0  0  0  0  0  0
  -28.9205  -20.4583   21.3866 N   0  0  0  0  0  0
  -29.7409  -16.6377   20.2843 N   0  0  0  0  0  0
  -31.4495  -13.0665   19.1470 H   0  0  0  0  0  0
  -30.5319  -11.9793   20.1507 H   0  0  0  0  0  0
  -29.9543  -11.7124   17.6993 H   0  0  0  0  0  0
  -29.5048  -13.3978   17.6126 H   0  0  0  0  0  0
  -28.1335  -11.1928   19.1893 H   0  0  0  0  0  0
  -27.4290  -12.1256   17.8907 H   0  0  0  0  0  0
  -27.4263  -14.0456   19.1291 H   0  0  0  0  0  0
  -28.8353  -12.6080   21.4925 H   0  0  0  0  0  0
  -28.2389  -14.2463   21.5923 H   0  0  0  0  0  0
  -25.2685   -9.5636   22.4774 H   0  0  0  0  0  0
  -23.9957   -7.4556   22.7457 H   0  0  0  0  0  0
  -21.0771   -8.8687   19.8943 H   0  0  0  0  0  0
  -22.3605  -10.9602   19.6164 H   0  0  0  0  0  0
  -21.1940   -7.6110   23.9702 H   0  0  0  0  0  0
  -21.1502   -6.0496   25.9087 H   0  0  0  0  0  0
  -22.0592   -2.7581   23.2846 H   0  0  0  0  0  0
  -22.3900  -11.9892   22.4980 H   0  0  0  0  0  0
  -21.0945  -13.1248   22.2614 H   0  0  0  0  0  0
  -24.6266  -15.8035   20.5704 H   0  0  0  0  0  0
  -26.2509  -15.6196   20.1419 H   0  0  0  0  0  0
  -26.7337  -32.5178   23.0893 H   0  0  0  0  0  0
  -25.0092  -33.9507   25.0225 H   0  0  0  0  0  0
  -22.7796  -31.2689   21.3511 H   0  0  0  0  0  0
  -23.3753  -35.9553   23.3295 H   0  0  0  0  0  0
  -24.3562  -36.8880   22.2057 H   0  0  0  0  0  0
  -23.7247  -37.6406   23.6707 H   0  0  0  0  0  0
  -26.2135  -31.3932   20.6222 H   0  0  0  0  0  0
  -26.9024  -30.7105   22.0519 H   0  0  0  0  0  0
  -28.1535  -28.6435   21.2756 H   0  0  0  0  0  0
  -25.8897  -25.7698   18.9934 H   0  0  0  0  0  0
  -24.0106  -27.2768   18.9559 H   0  0  0  0  0  0
  -23.8670  -30.5284   19.3905 H   0  0  0  0  0  0
  -22.8263  -29.2086   19.8275 H   0  0  0  0  0  0
  -25.1329  -36.1774   25.0780 H   0  0  0  0  0  0
  -21.0032  -28.3373   24.1316 H   0  0  0  0  0  0
  -20.5687  -26.2380   23.3637 H   0  0  0  0  0  0
  -21.6657  -26.7424   22.1195 H   0  0  0  0  0  0
  -19.6920  -25.6286   21.1278 H   0  0  0  0  0  0
  -19.6710  -27.3160   20.6719 H   0  0  0  0  0  0
  -17.4215  -26.6693   21.4032 H   0  0  0  0  0  0
  -18.0352  -26.0124   22.9049 H   0  0  0  0  0  0
  -19.7971  -30.7323   24.2208 H   0  0  0  0  0  0
  -17.5044  -31.6280   24.5167 H   0  0  0  0  0  0
  -15.5379  -30.2977   23.7702 H   0  0  0  0  0  0
  -15.8711  -28.0821   22.7093 H   0  0  0  0  0  0
  -24.5881  -30.7131   25.7653 H   0  0  0  0  0  0
  -24.8883  -32.3006   26.4653 H   0  0  0  0  0  0
  -25.7935  -30.9029   27.0208 H   0  0  0  0  0  0
  -26.3115  -29.6592   24.1391 H   0  0  0  0  0  0
  -27.3973  -29.7254   25.5033 H   0  0  0  0  0  0
  -27.9056  -30.4078   23.9811 H   0  0  0  0  0  0
  -27.2608  -33.3685   26.1962 H   0  0  0  0  0  0
  -28.3937  -32.6872   25.0394 H   0  0  0  0  0  0
  -28.0647  -31.8564   26.5520 H   0  0  0  0  0  0
  -28.2574  -38.0075   24.7500 H   0  0  0  0  0  0
  -28.1076  -36.2602   24.6319 H   0  0  0  0  0  0
  -27.2285  -37.1441   25.8870 H   0  0  0  0  0  0
  -20.9580  -29.8768   21.6691 H   0  0  0  0  0  0
  -26.0132  -38.2765   24.1421 H   0  0  0  0  0  0
  -29.5912  -22.4613   18.3080 H   0  0  0  0  0  0
  -27.9256  -22.1259   22.1868 H   0  0  0  0  0  0
  -26.4124  -17.3891   19.6724 H   0  0  0  0  0  0
  -27.5022  -18.6875   19.6371 H   0  0  0  0  0  0
  -27.3285  -17.7344   21.1328 H   0  0  0  0  0  0
  -29.1912  -17.7396   17.7690 H   0  0  0  0  0  0
  -27.7422  -16.7835   17.4881 H   0  0  0  0  0  0
  -29.2948  -15.9871   17.6387 H   0  0  0  0  0  0
  -27.0085  -24.1798   20.7178 H   0  0  0  0  0  0
  -27.4821  -24.2314   19.0633 H   0  0  0  0  0  0
  -31.1721  -18.2515   19.9659 H   0  0  0  0  0  0
  -30.5807  -18.1685   21.5680 H   0  0  0  0  0  0
  -27.9779  -15.7747   19.7648 H   0  0  0  0  0  0
  1 25  1  0  0  0
  1 30  2  0  0  0
  1 82  1  0  0  0
  2  3  1  0  0  0
  2 25  1  0  0  0
  2 83  1  0  0  0
  2 84  1  0  0  0
  3  4  1  0  0  0
  3 85  1  0  0  0
  3 86  1  0  0  0
  4  5  1  0  0  0
  4 87  1  0  0  0
  4 88  1  0  0  0
  5  6  1  0  0  0
  5 26  1  0  0  0
  5 89  1  0  0  0
  6 25  1  0  0  0
  6 90  1  0  0  0
  6 91  1  0  0  0
  7  8  2  0  0  0
  7 26  1  0  0  0
  7 29  1  0  0  0
  8  9  1  0  0  0
  8 22  1  0  0  0
  9 10  1  0  0  0
  9 27  2  0  0  0
 10 11  2  0  0  0
 10 15  1  0  0  0
 11 12  1  0  0  0
 11 92  1  0  0  0
 12 13  2  0  0  0
 12 93  1  0  0  0
 13 14  1  0  0  0
 13 31  1  0  0  0
 14 15  2  0  0  0
 14 94  1  0  0  0
 15 95  1  0  0  0
 16 17  2  0  0  0
 16 21  1  0  0  0
 16 31  1  0  0  0
 17 18  1  0  0  0
 17 96  1  0  0  0
 18 19  2  0  0  0
 18 97  1  0  0  0
 19 20  1  0  0  0
 19 24  1  0  0  0
 20 21  2  0  0  0
 20 98  1  0  0  0
 21 23  1  0  0  0
 22 28  1  0  0  0
 22 32  2  0  0  0
 26 27  1  0  0  0
 28 99  1  0  0  0
 28100  1  0  0  0
 29101  1  0  0  0
 29102  1  0  0  0
 33 34  1  0  0  0
 33 66  1  0  0  0
 33 70  2  0  0  0
 34 36  1  0  0  0
 34 59  1  0  0  0
 34103  1  0  0  0
 35 44  2  0  0  0
 35 45  1  0  0  0
 35 68  1  0  0  0
 36 56  1  0  0  0
 36104  1  0  0  0
 37 39  1  0  0  0
 37 47  1  0  0  0
 37 66  1  0  0  0
 37105  1  0  0  0
 38 43  2  0  0  0
 38 46  1  0  0  0
 38 47  1  0  0  0
 39 64  1  0  0  0
 39 67  2  0  0  0
 40 52  1  0  0  0
 40 53  2  0  0  0
 40 58  1  0  0  0
 41106  1  0  0  0
 41107  1  0  0  0
 41108  1  0  0  0
 41 48  1  0  0  0
 42 43  1  0  0  0
 42 66  1  0  0  0
 42109  1  0  0  0
 42110  1  0  0  0
 43 44  1  0  0  0
 44111  1  0  0  0
 45 46  2  0  0  0
 45112  1  0  0  0
 46113  1  0  0  0
 47114  1  0  0  0
 47115  1  0  0  0
 48 56  1  0  0  0
 48 65  1  0  0  0
 48116  1  0  0  0
 49 50  1  0  0  0
 49 53  1  0  0  0
 49 64  1  0  0  0
 49117  1  0  0  0
 50 51  1  0  0  0
 50118  1  0  0  0
 50119  1  0  0  0
 51 52  1  0  0  0
 51120  1  0  0  0
 51121  1  0  0  0
 52122  1  0  0  0
 52123  1  0  0  0
 53 54  1  0  0  0
 54 55  2  0  0  0
 54124  1  0  0  0
 55 57  1  0  0  0
 55125  1  0  0  0
 56 69  2  0  0  0
 57 58  2  0  0  0
 57126  1  0  0  0
 58127  1  0  0  0
 59 60  1  0  0  0
 59 61  1  0  0  0
 59 62  1  0  0  0
 60128  1  0  0  0
 60129  1  0  0  0
 60130  1  0  0  0
 61131  1  0  0  0
 61132  1  0  0  0
 61133  1  0  0  0
 62134  1  0  0  0
 62135  1  0  0  0
 62136  1  0  0  0
 63 65  1  0  0  0
 63137  1  0  0  0
 63138  1  0  0  0
 63139  1  0  0  0
 64140  1  0  0  0
 65141  1  0  0  0
 68 77  1  0  0  0
 71 73  2  0  0  0
 71 80  1  0  0  0
 71142  1  0  0  0
 72 73  1  0  0  0
 72 81  2  0  0  0
 72143  1  0  0  0
 73 77  1  0  0  0
 74 78  1  0  0  0
 74 80  2  0  0  0
 74 81  1  0  0  0
 75144  1  0  0  0
 75145  1  0  0  0
 75146  1  0  0  0
 75 79  1  0  0  0
 76 79  1  0  0  0
 76147  1  0  0  0
 76148  1  0  0  0
 76149  1  0  0  0
 77150  1  0  0  0
 77151  1  0  0  0
 78 82  1  0  0  0
 78152  1  0  0  0
 78153  1  0  0  0
 79 82  1  0  0  0
 79154  1  0  0  0
M  ISO  4   1 100  68 101  77 101  82 100
M  END
> <chiral flag>
0

> <version>
0

> <s_m_source_file>
/data/baiqing/PycharmProjects/Reinvent-master-3.2/result/LINK_invent/BTK/process_docking_weight1_custom_sum_contain_oxygen_bond_distance_aromatic_linkinvent_7_9_3/rearranged_h_0057.sdf

> <i_m_source_file_index>
26

> <r_mmod_Potential_Energy-OPLS-2005>
882.329040527344

> <r_mmod_Stretch_Energy-OPLS-2005>
477.83203125

> <r_mmod_Bend_Energy-OPLS-2005>
440.156158447266

> <r_mmod_Torsional_Energy-OPLS-2005>
301.153137207031

> <r_mmod_Improper_Torsional_Energy-OPLS-2005>
10.044939994812

> <r_mmod_Van_der_Waal_Energy-OPLS-2005>
151.379547119141

> <r_mmod_Electrostatic_Energy-OPLS-2005>
-745.977966308594

> <r_mmod_Solvation_Energy-OPLS-2005>
-223.447509765625

> <b_mmod_Minimization_Converged-OPLS-2005>
0

> <r_mmod_RMS_Derivative-OPLS-2005>
2.64313268661499

$$$$
26
                    3D
 Structure written by MMmdl.
148156  0  0  1  0            999 V2000
  -30.4759  -15.2597   20.3955 C   0  0  0  0  0  0
  -30.4464  -12.8144   19.5170 C   0  0  0  0  0  0
  -29.5299  -12.5711   18.2902 C   0  0  0  0  0  0
  -28.0827  -12.2855   18.7275 C   0  0  0  0  0  0
  -27.6154  -13.2597   19.8332 C   0  0  2  0  0  0
  -28.6645  -13.4109   20.9615 C   0  0  0  0  0  0
  -25.2324  -13.8178   20.5702 C   0  0  0  0  0  0
  -24.1714  -13.0384   20.9291 C   0  0  0  0  0  0
  -24.6395  -11.6899   20.8830 C   0  0  0  0  0  0
  -23.9090  -10.4271   21.0444 C   0  0  0  0  0  0
  -24.3633   -9.4178   21.9209 C   0  0  0  0  0  0
  -23.6298   -8.2218   22.0756 C   0  0  0  0  0  0
  -22.4278   -8.0278   21.3542 C   0  0  0  0  0  0
  -21.9933   -9.0258   20.4642 C   0  0  0  0  0  0
  -22.7274  -10.2128   20.3068 C   0  0  0  0  0  0
  -21.6853   -6.0735   22.5284 C   0  0  0  0  0  0
  -21.4012   -6.5636   23.8219 C   0  0  0  0  0  0
  -21.3650   -5.6786   24.9177 C   0  0  0  0  0  0
  -21.6040   -4.3050   24.7227 C   0  0  0  0  0  0
  -21.8822   -3.8144   23.4346 C   0  0  0  0  0  0
  -21.9197   -4.6964   22.3403 C   0  0  0  0  0  0
  -22.7736  -13.5153   21.1918 C   0  0  0  0  0  0
  -22.1664   -4.2152   21.0980 F   0  0  0  0  0  0
  -21.5624   -3.4533   25.7736 F   0  0  0  0  0  0
  -29.8859  -13.9559   20.3329 N   0  0  0  0  0  0
  -26.2822  -12.9472   20.3307 N   0  0  0  0  0  0
  -25.9341  -11.6592   20.5850 N   0  0  0  0  0  0
  -22.0399  -12.8146   22.0478 N   0  0  0  0  0  0
  -25.3725  -15.1891   20.3928 N   0  0  0  0  0  0
  -31.6906  -15.2301   20.1502 O   0  0  0  0  0  0
  -21.6632   -6.8878   21.4241 O   0  0  0  0  0  0
  -22.3422  -14.5473   20.6774 O   0  0  0  0  0  0
  -24.6622  -31.8254   23.1706 C   0  0  0  0  0  0
  -25.9304  -32.4593   23.8175 C   0  0  1  0  0  0
  -27.2308  -26.9637   20.1697 C   0  0  0  0  0  0
  -25.5977  -33.8408   24.2074 N   0  0  0  0  0  0
  -23.4758  -30.4368   21.5206 C   0  0  2  0  0  0
  -24.9311  -28.8336   20.1116 C   0  0  0  0  0  0
  -22.7675  -29.4443   22.4783 C   0  0  0  0  0  0
  -18.0321  -28.1411   22.8456 C   0  0  0  0  0  0
  -24.1492  -36.7219   23.2650 C   0  0  0  0  0  0
  -26.0442  -30.6438   21.3967 C   0  0  0  0  0  0
  -26.1153  -29.2376   20.7399 C   0  0  0  0  0  0
  -27.2614  -28.3249   20.7446 C   0  0  0  0  0  0
  -26.0113  -26.7043   19.5009 C   0  0  0  0  0  0
  -24.9024  -27.5854   19.4723 C   0  0  0  0  0  0
  -23.7144  -29.7554   20.1461 C   0  0  0  0  0  0
  -25.4123  -36.2967   24.0303 C   0  0  1  0  0  0
  -20.5944  -28.3749   23.1186 C   0  0  2  0  0  0
  -20.6796  -26.9430   22.5399 C   0  0  0  0  0  0
  -19.5772  -26.6372   21.5217 C   0  0  0  0  0  0
  -18.1954  -26.7935   22.1621 C   0  0  0  0  0  0
  -19.1584  -28.8908   23.2801 C   0  0  0  0  0  0
  -18.9503  -30.1499   23.8832 C   0  0  0  0  0  0
  -17.6494  -30.6599   24.0559 C   0  0  0  0  0  0
  -25.9094  -34.9350   23.5007 C   0  0  0  0  0  0
  -16.5383  -29.9085   23.6345 C   0  0  0  0  0  0
  -16.7305  -28.6515   23.0345 C   0  0  0  0  0  0
  -26.4552  -31.6536   25.0708 C   0  0  0  0  0  0
  -25.3670  -31.3802   26.1368 C   0  0  0  0  0  0
  -27.0445  -30.2895   24.6441 C   0  0  0  0  0  0
  -27.6040  -32.4361   25.7504 C   0  0  0  0  0  0
  -27.5562  -37.1765   24.8465 C   0  0  0  0  0  0
  -21.4343  -29.3044   22.3551 N   0  0  0  0  0  0
  -26.4263  -37.3704   23.9422 N   0  0  0  0  0  0
  -24.7488  -30.9947   22.0832 N   0  0  0  0  0  0
  -23.4237  -28.8002   23.3010 O   0  0  0  0  0  0
  -28.2346  -25.8666   20.2397 O   0  0  0  0  0  0
  -26.5711  -34.8891   22.4604 O   0  0  0  0  0  0
  -23.5696  -32.1212   23.6807 O   0  0  0  0  0  0
  -29.2636  -20.5704   19.0710 C   0  0  0  0  0  0
  -28.9083  -21.8967   21.3390 C   0  0  0  0  0  0
  -29.4834  -19.7173   20.2352 C   0  0  0  0  0  0
  -28.6878  -22.7484   20.1689 C   0  0  0  0  0  0
  -28.4388  -16.6249   21.0792 C   0  0  0  0  0  0
  -30.2320  -18.1399   20.2324 C   0  0  0  0  0  0
  -27.8704  -24.2858   20.0516 C   0  0  0  0  0  0
  -29.2990  -20.5171   21.3701 N   0  0  0  0  0  0
  -28.8823  -21.9434   19.0406 N   0  0  0  0  0  0
  -29.7648  -16.5732   20.4814 N   0  0  0  0  0  0
  -31.4567  -13.0274   19.1652 H   0  0  0  0  0  0
  -30.5410  -11.9119   20.1233 H   0  0  0  0  0  0
  -29.9107  -11.7433   17.6911 H   0  0  0  0  0  0
  -29.5475  -13.4518   17.6472 H   0  0  0  0  0  0
  -28.0445  -11.2641   19.1086 H   0  0  0  0  0  0
  -27.4066  -12.3197   17.8729 H   0  0  0  0  0  0
  -27.5316  -14.2167   19.3223 H   0  0  0  0  0  0
  -28.8512  -12.4536   21.4506 H   0  0  0  0  0  0
  -28.3061  -14.0680   21.7517 H   0  0  0  0  0  0
  -25.2776   -9.5653   22.4785 H   0  0  0  0  0  0
  -24.0009   -7.4598   22.7471 H   0  0  0  0  0  0
  -21.0866   -8.8801   19.8928 H   0  0  0  0  0  0
  -22.3766  -10.9682   19.6178 H   0  0  0  0  0  0
  -21.2002   -7.6147   23.9729 H   0  0  0  0  0  0
  -21.1463   -6.0509   25.9082 H   0  0  0  0  0  0
  -22.0608   -2.7612   23.2853 H   0  0  0  0  0  0
  -22.4035  -11.9821   22.4871 H   0  0  0  0  0  0
  -21.1018  -13.1164   22.2684 H   0  0  0  0  0  0
  -24.5856  -15.8227   20.4800 H   0  0  0  0  0  0
  -26.1929  -15.6297   20.0000 H   0  0  0  0  0  0
  -26.7379  -32.5141   23.0903 H   0  0  0  0  0  0
  -25.0073  -33.9490   25.0191 H   0  0  0  0  0  0
  -22.7882  -31.2678   21.3503 H   0  0  0  0  0  0
  -23.3765  -35.9546   23.3276 H   0  0  0  0  0  0
  -24.3557  -36.8893   22.2071 H   0  0  0  0  0  0
  -23.7243  -37.6398   23.6722 H   0  0  0  0  0  0
  -26.2193  -31.3858   20.6165 H   0  0  0  0  0  0
  -26.9066  -30.6984   22.0488 H   0  0  0  0  0  0
  -28.1589  -28.6323   21.2636 H   0  0  0  0  0  0
  -25.8695  -25.7539   19.0112 H   0  0  0  0  0  0
  -24.0022  -27.2670   18.9647 H   0  0  0  0  0  0
  -23.8680  -30.5257   19.3892 H   0  0  0  0  0  0
  -22.8265  -29.2072   19.8267 H   0  0  0  0  0  0
  -25.1313  -36.1761   25.0791 H   0  0  0  0  0  0
  -21.0028  -28.3356   24.1312 H   0  0  0  0  0  0
  -20.5693  -26.2370   23.3637 H   0  0  0  0  0  0
  -21.6653  -26.7406   22.1198 H   0  0  0  0  0  0
  -19.6934  -25.6277   21.1275 H   0  0  0  0  0  0
  -19.6708  -27.3164   20.6734 H   0  0  0  0  0  0
  -17.4214  -26.6680   21.4030 H   0  0  0  0  0  0
  -18.0343  -26.0092   22.9034 H   0  0  0  0  0  0
  -19.7985  -30.7330   24.2168 H   0  0  0  0  0  0
  -17.5049  -31.6268   24.5182 H   0  0  0  0  0  0
  -15.5383  -30.2974   23.7707 H   0  0  0  0  0  0
  -15.8697  -28.0827   22.7076 H   0  0  0  0  0  0
  -24.5861  -30.7134   25.7687 H   0  0  0  0  0  0
  -24.8861  -32.3017   26.4662 H   0  0  0  0  0  0
  -25.7894  -30.9061   27.0232 H   0  0  0  0  0  0
  -26.3109  -29.6577   24.1426 H   0  0  0  0  0  0
  -27.3943  -29.7252   25.5097 H   0  0  0  0  0  0
  -27.9051  -30.4069   23.9854 H   0  0  0  0  0  0
  -27.2597  -33.3723   26.1904 H   0  0  0  0  0  0
  -28.3923  -32.6824   25.0380 H   0  0  0  0  0  0
  -28.0612  -31.8612   26.5565 H   0  0  0  0  0  0
  -28.2551  -38.0086   24.7505 H   0  0  0  0  0  0
  -28.1082  -36.2613   24.6283 H   0  0  0  0  0  0
  -27.2285  -37.1378   25.8868 H   0  0  0  0  0  0
  -20.9614  -29.8755   21.6683 H   0  0  0  0  0  0
  -26.0118  -38.2760   24.1442 H   0  0  0  0  0  0
  -29.4370  -20.1430   18.0931 H   0  0  0  0  0  0
  -28.7218  -22.3213   22.3148 H   0  0  0  0  0  0
  -27.7755  -15.9510   20.5617 H   0  0  0  0  0  0
  -27.9722  -17.6075   21.0066 H   0  0  0  0  0  0
  -28.4806  -16.3541   22.1344 H   0  0  0  0  0  0
  -31.0692  -18.2629   20.9195 H   0  0  0  0  0  0
  -30.7144  -18.0975   19.2550 H   0  0  0  0  0  0
  -26.9846  -24.1465   20.6712 H   0  0  0  0  0  0
  -27.4911  -24.2511   19.0308 H   0  0  0  0  0  0
  1 25  1  0  0  0
  1 30  2  0  0  0
  1 80  1  0  0  0
  2  3  1  0  0  0
  2 25  1  0  0  0
  2 81  1  0  0  0
  2 82  1  0  0  0
  3  4  1  0  0  0
  3 83  1  0  0  0
  3 84  1  0  0  0
  4  5  1  0  0  0
  4 85  1  0  0  0
  4 86  1  0  0  0
  5  6  1  0  0  0
  5 26  1  0  0  0
  5 87  1  0  0  0
  6 25  1  0  0  0
  6 88  1  0  0  0
  6 89  1  0  0  0
  7  8  2  0  0  0
  7 26  1  0  0  0
  7 29  1  0  0  0
  8  9  1  0  0  0
  8 22  1  0  0  0
  9 10  1  0  0  0
  9 27  2  0  0  0
 10 11  2  0  0  0
 10 15  1  0  0  0
 11 12  1  0  0  0
 11 90  1  0  0  0
 12 13  2  0  0  0
 12 91  1  0  0  0
 13 14  1  0  0  0
 13 31  1  0  0  0
 14 15  2  0  0  0
 14 92  1  0  0  0
 15 93  1  0  0  0
 16 17  2  0  0  0
 16 21  1  0  0  0
 16 31  1  0  0  0
 17 18  1  0  0  0
 17 94  1  0  0  0
 18 19  2  0  0  0
 18 95  1  0  0  0
 19 20  1  0  0  0
 19 24  1  0  0  0
 20 21  2  0  0  0
 20 96  1  0  0  0
 21 23  1  0  0  0
 22 28  1  0  0  0
 22 32  2  0  0  0
 26 27  1  0  0  0
 28 97  1  0  0  0
 28 98  1  0  0  0
 29 99  1  0  0  0
 29100  1  0  0  0
 33 34  1  0  0  0
 33 66  1  0  0  0
 33 70  2  0  0  0
 34 36  1  0  0  0
 34 59  1  0  0  0
 34101  1  0  0  0
 35 44  2  0  0  0
 35 45  1  0  0  0
 35 68  1  0  0  0
 36 56  1  0  0  0
 36102  1  0  0  0
 37 39  1  0  0  0
 37 47  1  0  0  0
 37 66  1  0  0  0
 37103  1  0  0  0
 38 43  2  0  0  0
 38 46  1  0  0  0
 38 47  1  0  0  0
 39 64  1  0  0  0
 39 67  2  0  0  0
 40 52  1  0  0  0
 40 53  2  0  0  0
 40 58  1  0  0  0
 41104  1  0  0  0
 41105  1  0  0  0
 41106  1  0  0  0
 41 48  1  0  0  0
 42 43  1  0  0  0
 42 66  1  0  0  0
 42107  1  0  0  0
 42108  1  0  0  0
 43 44  1  0  0  0
 44109  1  0  0  0
 45 46  2  0  0  0
 45110  1  0  0  0
 46111  1  0  0  0
 47112  1  0  0  0
 47113  1  0  0  0
 48 56  1  0  0  0
 48 65  1  0  0  0
 48114  1  0  0  0
 49 50  1  0  0  0
 49 53  1  0  0  0
 49 64  1  0  0  0
 49115  1  0  0  0
 50 51  1  0  0  0
 50116  1  0  0  0
 50117  1  0  0  0
 51 52  1  0  0  0
 51118  1  0  0  0
 51119  1  0  0  0
 52120  1  0  0  0
 52121  1  0  0  0
 53 54  1  0  0  0
 54 55  2  0  0  0
 54122  1  0  0  0
 55 57  1  0  0  0
 55123  1  0  0  0
 56 69  2  0  0  0
 57 58  2  0  0  0
 57124  1  0  0  0
 58125  1  0  0  0
 59 60  1  0  0  0
 59 61  1  0  0  0
 59 62  1  0  0  0
 60126  1  0  0  0
 60127  1  0  0  0
 60128  1  0  0  0
 61129  1  0  0  0
 61130  1  0  0  0
 61131  1  0  0  0
 62132  1  0  0  0
 62133  1  0  0  0
 62134  1  0  0  0
 63 65  1  0  0  0
 63135  1  0  0  0
 63136  1  0  0  0
 63137  1  0  0  0
 64138  1  0  0  0
 65139  1  0  0  0
 68 77  1  0  0  0
 71 73  2  0  0  0
 71 79  1  0  0  0
 71140  1  0  0  0
 72 74  1  0  0  0
 72 78  2  0  0  0
 72141  1  0  0  0
 73 76  1  0  0  0
 73 78  1  0  0  0
 74 77  1  0  0  0
 74 79  2  0  0  0
 75 80  1  0  0  0
 75142  1  0  0  0
 75143  1  0  0  0
 75144  1  0  0  0
 76 80  1  0  0  0
 76145  1  0  0  0
 76146  1  0  0  0
 77147  1  0  0  0
 77148  1  0  0  0
M  ISO  4   1 100  68 101  77 101  80 100
M  END
> <chiral flag>
0

> <version>
0

> <s_m_source_file>
/data/baiqing/PycharmProjects/Reinvent-master-3.2/result/LINK_invent/BTK/process_docking_weight1_custom_sum_contain_oxygen_bond_distance_aromatic_linkinvent_7_9_3/rearranged_h_0057.sdf

> <i_m_source_file_index>
27

> <r_mmod_Potential_Energy-OPLS-2005>
1307.60070800781

> <r_mmod_Stretch_Energy-OPLS-2005>
499.997161865234

> <r_mmod_Bend_Energy-OPLS-2005>
429.736389160156

> <r_mmod_Torsional_Energy-OPLS-2005>
258.079956054688

> <r_mmod_Improper_Torsional_Energy-OPLS-2005>
10.5004959106445

> <r_mmod_Van_der_Waal_Energy-OPLS-2005>
142.201171875

> <r_mmod_Electrostatic_Energy-OPLS-2005>
-229.592208862305

> <r_mmod_Solvation_Energy-OPLS-2005>
-227.890609741211

> <b_mmod_Minimization_Converged-OPLS-2005>
0

> <r_mmod_RMS_Derivative-OPLS-2005>
1.98256230354309

$$$$
27
                    3D
 Structure written by MMmdl.
144152  0  0  1  0            999 V2000
  -30.2937  -15.6001   20.3072 C   0  0  0  0  0  0
  -30.4338  -13.0406   19.5514 C   0  0  0  0  0  0
  -29.5590  -12.6474   18.3253 C   0  0  0  0  0  0
  -28.1235  -12.3020   18.7542 C   0  0  0  0  0  0
  -27.5962  -13.3067   19.8035 C   0  0  2  0  0  0
  -28.6087  -13.6213   20.9256 C   0  0  0  0  0  0
  -25.2336  -13.8286   20.5767 C   0  0  0  0  0  0
  -24.1723  -13.0437   20.9269 C   0  0  0  0  0  0
  -24.6421  -11.6945   20.8741 C   0  0  0  0  0  0
  -23.9123  -10.4294   21.0387 C   0  0  0  0  0  0
  -24.3660   -9.4210   21.9172 C   0  0  0  0  0  0
  -23.6319   -8.2252   22.0751 C   0  0  0  0  0  0
  -22.4298   -8.0290   21.3544 C   0  0  0  0  0  0
  -21.9941   -9.0263   20.4642 C   0  0  0  0  0  0
  -22.7285  -10.2134   20.3042 C   0  0  0  0  0  0
  -21.6862   -6.0743   22.5279 C   0  0  0  0  0  0
  -21.4022   -6.5644   23.8214 C   0  0  0  0  0  0
  -21.3664   -5.6794   24.9173 C   0  0  0  0  0  0
  -21.6045   -4.3057   24.7222 C   0  0  0  0  0  0
  -21.8818   -3.8150   23.4343 C   0  0  0  0  0  0
  -21.9195   -4.6969   22.3400 C   0  0  0  0  0  0
  -22.7736  -13.5167   21.1918 C   0  0  0  0  0  0
  -22.1660   -4.2154   21.0978 F   0  0  0  0  0  0
  -21.5629   -3.4539   25.7734 F   0  0  0  0  0  0
  -29.8050  -14.2216   20.2938 N   0  0  0  0  0  0
  -26.2770  -12.9612   20.3153 N   0  0  0  0  0  0
  -25.9361  -11.6687   20.5648 N   0  0  0  0  0  0
  -22.0408  -12.8143   22.0477 N   0  0  0  0  0  0
  -25.3949  -15.2029   20.4253 N   0  0  0  0  0  0
  -31.5356  -15.5312   20.2020 O   0  0  0  0  0  0
  -21.6653   -6.8890   21.4243 O   0  0  0  0  0  0
  -22.3405  -14.5464   20.6754 O   0  0  0  0  0  0
  -24.6832  -31.8019   23.1523 C   0  0  0  0  0  0
  -25.9417  -32.4477   23.8067 C   0  0  1  0  0  0
  -27.2244  -26.7132   20.2231 C   0  0  0  0  0  0
  -25.6003  -33.8300   24.1961 N   0  0  0  0  0  0
  -23.5079  -30.4039   21.5073 C   0  0  2  0  0  0
  -24.9631  -28.7424   20.1268 C   0  0  0  0  0  0
  -22.7759  -29.4331   22.4729 C   0  0  0  0  0  0
  -18.0338  -28.1418   22.8456 C   0  0  0  0  0  0
  -24.1500  -36.7159   23.2652 C   0  0  0  0  0  0
  -26.0882  -30.5395   21.4133 C   0  0  0  0  0  0
  -26.1542  -29.1035   20.7680 C   0  0  0  0  0  0
  -27.2739  -28.1192   20.7763 C   0  0  0  0  0  0
  -25.9962  -26.5540   19.5338 C   0  0  0  0  0  0
  -24.9218  -27.4924   19.4859 C   0  0  0  0  0  0
  -23.7611  -29.6988   20.1442 C   0  0  0  0  0  0
  -25.4149  -36.2901   24.0283 C   0  0  1  0  0  0
  -20.5973  -28.3781   23.1146 C   0  0  2  0  0  0
  -20.6807  -26.9444   22.5401 C   0  0  0  0  0  0
  -19.5781  -26.6371   21.5217 C   0  0  0  0  0  0
  -18.1965  -26.7945   22.1623 C   0  0  0  0  0  0
  -19.1603  -28.8925   23.2780 C   0  0  0  0  0  0
  -18.9507  -30.1508   23.8826 C   0  0  0  0  0  0
  -17.6497  -30.6601   24.0550 C   0  0  0  0  0  0
  -25.9127  -34.9290   23.4957 C   0  0  0  0  0  0
  -16.5388  -29.9083   23.6347 C   0  0  0  0  0  0
  -16.7317  -28.6505   23.0366 C   0  0  0  0  0  0
  -26.4595  -31.6501   25.0682 C   0  0  0  0  0  0
  -25.3665  -31.3815   26.1301 C   0  0  0  0  0  0
  -27.0521  -30.2841   24.6566 C   0  0  0  0  0  0
  -27.6051  -32.4353   25.7498 C   0  0  0  0  0  0
  -27.5565  -37.1739   24.8465 C   0  0  0  0  0  0
  -21.4409  -29.3036   22.3475 N   0  0  0  0  0  0
  -26.4275  -37.3660   23.9404 N   0  0  0  0  0  0
  -24.7833  -30.9475   22.0771 N   0  0  0  0  0  0
  -23.4209  -28.7934   23.3070 O   0  0  0  0  0  0
  -28.2190  -25.5248   20.2106 O   0  0  0  0  0  0
  -26.5761  -34.8866   22.4570 O   0  0  0  0  0  0
  -23.5853  -32.1087   23.6484 O   0  0  0  0  0  0
  -29.7038  -20.8462   21.9403 C   0  0  0  0  0  0
  -29.5484  -18.9578   20.8084 C   0  0  0  0  0  0
  -29.4577  -17.2664   20.0938 C   0  0  0  0  0  0
  -28.7117  -22.0387   19.9557 C   0  0  0  0  0  0
  -28.1247  -23.7976   20.5297 C   0  0  0  0  0  0
  -30.2167  -19.8967   22.7103 N   0  0  0  0  0  0
  -30.1197  -18.7358   22.0058 N   0  0  0  0  0  0
  -29.2292  -20.5251   20.7250 N   0  0  0  0  0  0
  -31.4347  -13.2919   19.1989 H   0  0  0  0  0  0
  -30.5726  -12.1866   20.2164 H   0  0  0  0  0  0
  -30.0057  -11.8082   17.7902 H   0  0  0  0  0  0
  -29.5354  -13.4822   17.6234 H   0  0  0  0  0  0
  -28.1359  -11.2994   19.1835 H   0  0  0  0  0  0
  -27.4614  -12.2596   17.8883 H   0  0  0  0  0  0
  -27.4652  -14.2338   19.2439 H   0  0  0  0  0  0
  -28.8470  -12.7334   21.5131 H   0  0  0  0  0  0
  -28.1816  -14.3435   21.6230 H   0  0  0  0  0  0
  -25.2802   -9.5685   22.4753 H   0  0  0  0  0  0
  -24.0021   -7.4646   22.7476 H   0  0  0  0  0  0
  -21.0869   -8.8787   19.8951 H   0  0  0  0  0  0
  -22.3739  -10.9673   19.6154 H   0  0  0  0  0  0
  -21.2016   -7.6152   23.9719 H   0  0  0  0  0  0
  -21.1489   -6.0523   25.9077 H   0  0  0  0  0  0
  -22.0592   -2.7611   23.2841 H   0  0  0  0  0  0
  -22.4056  -11.9825   22.4875 H   0  0  0  0  0  0
  -21.1011  -13.1130   22.2670 H   0  0  0  0  0  0
  -24.6261  -15.8525   20.5515 H   0  0  0  0  0  0
  -26.2413  -15.6504   20.0991 H   0  0  0  0  0  0
  -26.7501  -32.4956   23.0782 H   0  0  0  0  0  0
  -25.0071  -33.9343   25.0061 H   0  0  0  0  0  0
  -22.8329  -31.2410   21.3167 H   0  0  0  0  0  0
  -23.3777  -35.9472   23.3265 H   0  0  0  0  0  0
  -24.3571  -36.8867   22.2076 H   0  0  0  0  0  0
  -23.7245  -37.6321   23.6757 H   0  0  0  0  0  0
  -26.2880  -31.2636   20.6223 H   0  0  0  0  0  0
  -26.9405  -30.6096   22.0768 H   0  0  0  0  0  0
  -28.1801  -28.4101   21.2890 H   0  0  0  0  0  0
  -25.8364  -25.6100   19.0323 H   0  0  0  0  0  0
  -24.0228  -27.2071   18.9567 H   0  0  0  0  0  0
  -23.9391  -30.4570   19.3808 H   0  0  0  0  0  0
  -22.8656  -29.1663   19.8193 H   0  0  0  0  0  0
  -25.1359  -36.1666   25.0773 H   0  0  0  0  0  0
  -21.0052  -28.3402   24.1273 H   0  0  0  0  0  0
  -20.5679  -26.2405   23.3661 H   0  0  0  0  0  0
  -21.6667  -26.7396   22.1214 H   0  0  0  0  0  0
  -19.6940  -25.6263   21.1294 H   0  0  0  0  0  0
  -19.6718  -27.3140   20.6714 H   0  0  0  0  0  0
  -17.4233  -26.6682   21.4029 H   0  0  0  0  0  0
  -18.0361  -26.0104   22.9037 H   0  0  0  0  0  0
  -19.7981  -30.7341   24.2167 H   0  0  0  0  0  0
  -17.5046  -31.6275   24.5164 H   0  0  0  0  0  0
  -15.5384  -30.2961   23.7710 H   0  0  0  0  0  0
  -15.8719  -28.0797   22.7123 H   0  0  0  0  0  0
  -24.5850  -30.7175   25.7587 H   0  0  0  0  0  0
  -24.8860  -32.3040   26.4568 H   0  0  0  0  0  0
  -25.7839  -30.9062   27.0186 H   0  0  0  0  0  0
  -26.3231  -29.6461   24.1562 H   0  0  0  0  0  0
  -27.3959  -29.7283   25.5298 H   0  0  0  0  0  0
  -27.9208  -30.3969   24.0078 H   0  0  0  0  0  0
  -27.2597  -33.3718   26.1889 H   0  0  0  0  0  0
  -28.3956  -32.6813   25.0396 H   0  0  0  0  0  0
  -28.0615  -31.8607   26.5567 H   0  0  0  0  0  0
  -28.2553  -38.0063   24.7512 H   0  0  0  0  0  0
  -28.1093  -36.2585   24.6295 H   0  0  0  0  0  0
  -27.2280  -37.1377   25.8868 H   0  0  0  0  0  0
  -20.9715  -29.8691   21.6539 H   0  0  0  0  0  0
  -26.0104  -38.2710   24.1408 H   0  0  0  0  0  0
  -29.6910  -21.8676   22.2939 H   0  0  0  0  0  0
  -29.5589  -17.4372   19.0231 H   0  0  0  0  0  0
  -28.4064  -17.0040   20.2043 H   0  0  0  0  0  0
  -29.5737  -22.2817   19.3345 H   0  0  0  0  0  0
  -27.9690  -21.7281   19.2211 H   0  0  0  0  0  0
  -28.4736  -23.8058   21.5618 H   0  0  0  0  0  0
  -27.0493  -23.6612   20.6434 H   0  0  0  0  0  0
  1 25  1  0  0  0
  1 30  2  0  0  0
  1 73  1  0  0  0
  2  3  1  0  0  0
  2 25  1  0  0  0
  2 79  1  0  0  0
  2 80  1  0  0  0
  3  4  1  0  0  0
  3 81  1  0  0  0
  3 82  1  0  0  0
  4  5  1  0  0  0
  4 83  1  0  0  0
  4 84  1  0  0  0
  5  6  1  0  0  0
  5 26  1  0  0  0
  5 85  1  0  0  0
  6 25  1  0  0  0
  6 86  1  0  0  0
  6 87  1  0  0  0
  7  8  2  0  0  0
  7 26  1  0  0  0
  7 29  1  0  0  0
  8  9  1  0  0  0
  8 22  1  0  0  0
  9 10  1  0  0  0
  9 27  2  0  0  0
 10 11  2  0  0  0
 10 15  1  0  0  0
 11 12  1  0  0  0
 11 88  1  0  0  0
 12 13  2  0  0  0
 12 89  1  0  0  0
 13 14  1  0  0  0
 13 31  1  0  0  0
 14 15  2  0  0  0
 14 90  1  0  0  0
 15 91  1  0  0  0
 16 17  2  0  0  0
 16 21  1  0  0  0
 16 31  1  0  0  0
 17 18  1  0  0  0
 17 92  1  0  0  0
 18 19  2  0  0  0
 18 93  1  0  0  0
 19 20  1  0  0  0
 19 24  1  0  0  0
 20 21  2  0  0  0
 20 94  1  0  0  0
 21 23  1  0  0  0
 22 28  1  0  0  0
 22 32  2  0  0  0
 26 27  1  0  0  0
 28 95  1  0  0  0
 28 96  1  0  0  0
 29 97  1  0  0  0
 29 98  1  0  0  0
 33 34  1  0  0  0
 33 66  1  0  0  0
 33 70  2  0  0  0
 34 36  1  0  0  0
 34 59  1  0  0  0
 34 99  1  0  0  0
 35 44  2  0  0  0
 35 45  1  0  0  0
 35 68  1  0  0  0
 36 56  1  0  0  0
 36100  1  0  0  0
 37 39  1  0  0  0
 37 47  1  0  0  0
 37 66  1  0  0  0
 37101  1  0  0  0
 38 43  2  0  0  0
 38 46  1  0  0  0
 38 47  1  0  0  0
 39 64  1  0  0  0
 39 67  2  0  0  0
 40 52  1  0  0  0
 40 53  2  0  0  0
 40 58  1  0  0  0
 41102  1  0  0  0
 41103  1  0  0  0
 41104  1  0  0  0
 41 48  1  0  0  0
 42 43  1  0  0  0
 42 66  1  0  0  0
 42105  1  0  0  0
 42106  1  0  0  0
 43 44  1  0  0  0
 44107  1  0  0  0
 45 46  2  0  0  0
 45108  1  0  0  0
 46109  1  0  0  0
 47110  1  0  0  0
 47111  1  0  0  0
 48 56  1  0  0  0
 48 65  1  0  0  0
 48112  1  0  0  0
 49 50  1  0  0  0
 49 53  1  0  0  0
 49 64  1  0  0  0
 49113  1  0  0  0
 50 51  1  0  0  0
 50114  1  0  0  0
 50115  1  0  0  0
 51 52  1  0  0  0
 51116  1  0  0  0
 51117  1  0  0  0
 52118  1  0  0  0
 52119  1  0  0  0
 53 54  1  0  0  0
 54 55  2  0  0  0
 54120  1  0  0  0
 55 57  1  0  0  0
 55121  1  0  0  0
 56 69  2  0  0  0
 57 58  2  0  0  0
 57122  1  0  0  0
 58123  1  0  0  0
 59 60  1  0  0  0
 59 61  1  0  0  0
 59 62  1  0  0  0
 60124  1  0  0  0
 60125  1  0  0  0
 60126  1  0  0  0
 61127  1  0  0  0
 61128  1  0  0  0
 61129  1  0  0  0
 62130  1  0  0  0
 62131  1  0  0  0
 62132  1  0  0  0
 63 65  1  0  0  0
 63133  1  0  0  0
 63134  1  0  0  0
 63135  1  0  0  0
 64136  1  0  0  0
 65137  1  0  0  0
 68 75  1  0  0  0
 71 76  2  0  0  0
 71 78  1  0  0  0
 71138  1  0  0  0
 72 73  1  0  0  0
 72 77  2  0  0  0
 72 78  1  0  0  0
 73139  1  0  0  0
 73140  1  0  0  0
 74 75  1  0  0  0
 74 78  1  0  0  0
 74141  1  0  0  0
 74142  1  0  0  0
 75143  1  0  0  0
 75144  1  0  0  0
 76 77  1  0  0  0
M  ISO  4   1 100  68 101  73 100  75 101
M  END
> <chiral flag>
0

> <version>
0

> <s_m_source_file>
/data/baiqing/PycharmProjects/Reinvent-master-3.2/result/LINK_invent/BTK/process_docking_weight1_custom_sum_contain_oxygen_bond_distance_aromatic_linkinvent_7_9_3/rearranged_h_0057.sdf

> <i_m_source_file_index>
28

> <r_mmod_Potential_Energy-OPLS-2005>
2543.76586914062

> <r_mmod_Stretch_Energy-OPLS-2005>
1147.59936523438

> <r_mmod_Bend_Energy-OPLS-2005>
762.506408691406

> <r_mmod_Torsional_Energy-OPLS-2005>
225.482864379883

> <r_mmod_Improper_Torsional_Energy-OPLS-2005>
8.91601181030273

> <r_mmod_Van_der_Waal_Energy-OPLS-2005>
105.765281677246

> <r_mmod_Electrostatic_Energy-OPLS-2005>
-310.314636230469

> <r_mmod_Solvation_Energy-OPLS-2005>
-245.214050292969

> <b_mmod_Minimization_Converged-OPLS-2005>
0

> <r_mmod_RMS_Derivative-OPLS-2005>
0.446855843067169

$$$$
28
                    3D
 Structure written by MMmdl.
167175  0  0  1  0            999 V2000
  -30.4209  -14.6905   20.4031 C   0  0  0  0  0  0
  -30.4365  -12.4385   19.4506 C   0  0  0  0  0  0
  -29.4944  -12.4152   18.2168 C   0  0  0  0  0  0
  -28.0265  -12.1570   18.6240 C   0  0  0  0  0  0
  -27.5801  -13.1017   19.7513 C   0  0  2  0  0  0
  -28.5972  -13.0926   20.9209 C   0  0  0  0  0  0
  -25.2227  -13.7698   20.4985 C   0  0  0  0  0  0
  -24.1575  -13.0255   20.9227 C   0  0  0  0  0  0
  -24.6081  -11.6738   20.8900 C   0  0  0  0  0  0
  -23.8734  -10.4164   21.0594 C   0  0  0  0  0  0
  -24.3452   -9.4152   21.9317 C   0  0  0  0  0  0
  -23.6250   -8.2129   22.0762 C   0  0  0  0  0  0
  -22.4222   -8.0155   21.3511 C   0  0  0  0  0  0
  -21.9745   -9.0085   20.4594 C   0  0  0  0  0  0
  -22.6959  -10.2014   20.3145 C   0  0  0  0  0  0
  -21.6875   -6.0591   22.5231 C   0  0  0  0  0  0
  -21.3989   -6.5544   23.8159 C   0  0  0  0  0  0
  -21.3670   -5.6749   24.9138 C   0  0  0  0  0  0
  -21.6066   -4.3018   24.7212 C   0  0  0  0  0  0
  -21.8847   -3.8069   23.4330 C   0  0  0  0  0  0
  -21.9225   -4.6827   22.3378 C   0  0  0  0  0  0
  -22.7800  -13.5283   21.1976 C   0  0  0  0  0  0
  -22.1713   -4.2042   21.0983 F   0  0  0  0  0  0
  -21.5660   -3.4516   25.7768 F   0  0  0  0  0  0
  -29.9272  -13.4240   20.4126 N   0  0  0  0  0  0
  -26.2440  -12.8601   20.2527 N   0  0  0  0  0  0
  -25.8906  -11.5966   20.5612 N   0  0  0  0  0  0
  -22.0440  -12.8267   22.0581 N   0  0  0  0  0  0
  -25.3572  -15.1165   20.2344 N   0  0  0  0  0  0
  -31.6297  -14.9022   20.2462 O   0  0  0  0  0  0
  -21.6597   -6.8741   21.4187 O   0  0  0  0  0  0
  -22.3638  -14.5633   20.6934 O   0  0  0  0  0  0
  -24.6205  -31.8650   23.2062 C   0  0  0  0  0  0
  -25.9068  -32.4781   23.8376 C   0  0  1  0  0  0
  -27.2099  -27.4028   20.1044 C   0  0  0  0  0  0
  -25.5882  -33.8601   24.2292 N   0  0  0  0  0  0
  -23.4097  -30.4912   21.5523 C   0  0  2  0  0  0
  -24.8494  -28.9619   20.1052 C   0  0  0  0  0  0
  -22.7451  -29.4636   22.4963 C   0  0  0  0  0  0
  -18.0274  -28.1375   22.8478 C   0  0  0  0  0  0
  -24.1462  -36.7317   23.2637 C   0  0  0  0  0  0
  -25.9425  -30.8270   21.3604 C   0  0  0  0  0  0
  -26.0149  -29.4622   20.6997 C   0  0  0  0  0  0
  -27.2060  -28.6950   20.6852 C   0  0  0  0  0  0
  -26.0324  -26.9461   19.4698 C   0  0  0  0  0  0
  -24.8545  -27.7095   19.4794 C   0  0  0  0  0  0
  -23.6183  -29.8283   20.1619 C   0  0  0  0  0  0
  -25.4083  -36.3114   24.0330 C   0  0  1  0  0  0
  -20.5885  -28.3680   23.1280 C   0  0  2  0  0  0
  -20.6725  -26.9386   22.5393 C   0  0  0  0  0  0
  -19.5700  -26.6370   21.5181 C   0  0  0  0  0  0
  -18.1906  -26.7916   22.1607 C   0  0  0  0  0  0
  -19.1530  -28.8850   23.2883 C   0  0  0  0  0  0
  -18.9457  -30.1460   23.8899 C   0  0  0  0  0  0
  -17.6456  -30.6588   24.0569 C   0  0  0  0  0  0
  -25.9039  -34.9480   23.5119 C   0  0  0  0  0  0
  -16.5352  -29.9095   23.6328 C   0  0  0  0  0  0
  -16.7260  -28.6504   23.0361 C   0  0  0  0  0  0
  -26.4469  -31.6625   25.0733 C   0  0  0  0  0  0
  -25.3733  -31.3749   26.1502 C   0  0  0  0  0  0
  -27.0259  -30.3047   24.6144 C   0  0  0  0  0  0
  -27.6044  -32.4344   25.7498 C   0  0  0  0  0  0
  -27.5570  -37.1795   24.8464 C   0  0  0  0  0  0
  -21.4188  -29.3038   22.3698 N   0  0  0  0  0  0
  -26.4265  -37.3790   23.9430 N   0  0  0  0  0  0
  -24.6759  -31.0753   22.0973 N   0  0  0  0  0  0
  -23.4213  -28.8186   23.2997 O   0  0  0  0  0  0
  -28.3110  -26.5704   20.2138 O   0  0  0  0  0  0
  -26.5632  -34.8926   22.4702 O   0  0  0  0  0  0
  -23.5387  -32.1399   23.7433 O   0  0  0  0  0  0
  -27.9960  -16.7196   22.1010 C   0  0  0  0  0  0
  -27.9670  -17.8603   22.8636 C   0  0  0  0  0  0
  -29.5271  -18.1206   21.2610 C   0  0  0  0  0  0
  -29.5318  -16.3863   18.6297 C   0  0  0  0  0  0
  -30.8567  -24.3909   19.6638 C   0  0  0  0  0  0
  -30.4276  -18.7988   20.2309 C   0  0  0  0  0  0
  -31.4275  -19.9153   20.6032 C   0  0  0  0  0  0
  -31.1745  -21.3571   20.0508 C   0  0  0  0  0  0
  -30.4043  -22.3148   20.9946 C   0  0  0  0  0  0
  -29.0230  -24.3647   21.2951 C   0  0  0  0  0  0
  -27.9331  -25.2311   20.6229 C   0  0  0  0  0  0
  -29.3818  -15.8633   20.0935 C   0  0  2  0  0  0
  -29.0152  -16.8688   21.1558 N   0  0  0  0  0  0
  -28.9236  -18.6861   22.3282 N   0  3  0  0  0  0
  -29.8443  -23.5484   20.3479 N   0  3  1  0  0  0
  -31.4399  -12.7051   19.1138 H   0  0  0  0  0  0
  -30.5224  -11.4680   19.9327 H   0  0  0  0  0  0
  -29.8242  -11.6394   17.5189 H   0  0  0  0  0  0
  -29.5509  -13.3533   17.6628 H   0  0  0  0  0  0
  -27.9478  -11.1149   18.9531 H   0  0  0  0  0  0
  -27.3767  -12.2521   17.7466 H   0  0  0  0  0  0
  -27.4965  -14.0092   19.1843 H   0  0  0  0  0  0
  -28.6367  -12.1152   21.3964 H   0  0  0  0  0  0
  -28.2787  -13.7802   21.7044 H   0  0  0  0  0  0
  -25.2619   -9.5711   22.4804 H   0  0  0  0  0  0
  -24.0033   -7.4503   22.7404 H   0  0  0  0  0  0
  -21.0721   -8.8507   19.8831 H   0  0  0  0  0  0
  -22.3465  -10.9552   19.6272 H   0  0  0  0  0  0
  -21.1955   -7.6059   23.9632 H   0  0  0  0  0  0
  -21.1542   -6.0453   25.9011 H   0  0  0  0  0  0
  -22.0628   -2.7520   23.2870 H   0  0  0  0  0  0
  -22.4172  -11.9779   22.4679 H   0  0  0  0  0  0
  -21.0998  -13.1172   22.2809 H   0  0  0  0  0  0
  -24.4090  -15.4904   20.2330 H   0  0  0  0  0  0
  -25.7029  -15.1718   19.2757 H   0  0  0  0  0  0
  -26.7162  -32.5494   23.1161 H   0  0  0  0  0  0
  -24.9931  -33.9748   25.0374 H   0  0  0  0  0  0
  -22.6998  -31.3072   21.4059 H   0  0  0  0  0  0
  -23.3710  -35.9669   23.3329 H   0  0  0  0  0  0
  -24.3545  -36.8916   22.2048 H   0  0  0  0  0  0
  -23.7230  -37.6532   23.6648 H   0  0  0  0  0  0
  -26.0618  -31.5885   20.5905 H   0  0  0  0  0  0
  -26.8332  -30.8763   21.9812 H   0  0  0  0  0  0
  -28.1065  -29.0655   21.1578 H   0  0  0  0  0  0
  -25.9855  -25.9827   18.9832 H   0  0  0  0  0  0
  -23.9591  -27.3250   19.0077 H   0  0  0  0  0  0
  -23.7325  -30.6033   19.4012 H   0  0  0  0  0  0
  -22.7415  -29.2496   19.8618 H   0  0  0  0  0  0
  -25.1255  -36.1955   25.0824 H   0  0  0  0  0  0
  -20.9953  -28.3219   24.1423 H   0  0  0  0  0  0
  -20.5554  -26.2302   23.3614 H   0  0  0  0  0  0
  -21.6612  -26.7361   22.1252 H   0  0  0  0  0  0
  -19.6861  -25.6288   21.1234 H   0  0  0  0  0  0
  -19.6648  -27.3180   20.6717 H   0  0  0  0  0  0
  -17.4163  -26.6678   21.4042 H   0  0  0  0  0  0
  -18.0315  -26.0062   22.9013 H   0  0  0  0  0  0
  -19.7954  -30.7252   24.2275 H   0  0  0  0  0  0
  -17.5036  -31.6258   24.5164 H   0  0  0  0  0  0
  -15.5376  -30.2997   23.7643 H   0  0  0  0  0  0
  -15.8662  -28.0814   22.7092 H   0  0  0  0  0  0
  -24.5892  -30.7101   25.7867 H   0  0  0  0  0  0
  -24.8934  -32.2917   26.4952 H   0  0  0  0  0  0
  -25.8088  -30.8937   27.0269 H   0  0  0  0  0  0
  -26.2794  -29.6836   24.1175 H   0  0  0  0  0  0
  -27.3989  -29.7253   25.4604 H   0  0  0  0  0  0
  -27.8666  -30.4334   23.9301 H   0  0  0  0  0  0
  -27.2661  -33.3633   26.2092 H   0  0  0  0  0  0
  -28.3836  -32.6930   25.0319 H   0  0  0  0  0  0
  -28.0737  -31.8470   26.5398 H   0  0  0  0  0  0
  -28.2595  -38.0082   24.7515 H   0  0  0  0  0  0
  -28.1054  -36.2630   24.6274 H   0  0  0  0  0  0
  -27.2314  -37.1434   25.8870 H   0  0  0  0  0  0
  -20.9376  -29.8818   21.6979 H   0  0  0  0  0  0
  -26.0158  -38.2866   24.1460 H   0  0  0  0  0  0
  -27.3390  -15.8629   22.1741 H   0  0  0  0  0  0
  -27.3167  -18.1482   23.6905 H   0  0  0  0  0  0
  -29.3467  -17.4384   18.4841 H   0  0  0  0  0  0
  -28.7985  -15.9542   17.9560 H   0  0  0  0  0  0
  -30.5151  -16.1675   18.2165 H   0  0  0  0  0  0
  -31.4799  -23.8164   18.9790 H   0  0  0  0  0  0
  -31.5077  -24.8855   20.3916 H   0  0  0  0  0  0
  -30.3700  -25.1645   19.0613 H   0  0  0  0  0  0
  -29.7738  -19.1881   19.4466 H   0  0  0  0  0  0
  -31.0171  -17.9907   19.7988 H   0  0  0  0  0  0
  -32.3250  -19.6045   20.0641 H   0  0  0  0  0  0
  -31.7255  -19.8833   21.6492 H   0  0  0  0  0  0
  -30.7006  -21.3158   19.0658 H   0  0  0  0  0  0
  -32.1543  -21.7978   19.8486 H   0  0  0  0  0  0
  -31.0103  -22.5953   21.8566 H   0  0  0  0  0  0
  -29.5687  -21.7365   21.3832 H   0  0  0  0  0  0
  -28.4879  -23.6594   21.9369 H   0  0  0  0  0  0
  -29.6342  -24.9588   21.9675 H   0  0  0  0  0  0
  -27.1401  -25.3259   21.3712 H   0  0  0  0  0  0
  -27.4888  -24.6716   19.8026 H   0  0  0  0  0  0
  -28.4001  -15.4590   20.0159 H   0  0  0  0  0  0
  -29.1102  -19.6136   22.6745 H   0  0  0  0  0  0
  -29.2183  -23.2090   19.6255 H   0  0  0  0  0  0
  1 25  1  0  0  0
  1 30  2  0  0  0
  1 82  1  0  0  0
  2  3  1  0  0  0
  2 25  1  0  0  0
  2 86  1  0  0  0
  2 87  1  0  0  0
  3  4  1  0  0  0
  3 88  1  0  0  0
  3 89  1  0  0  0
  4  5  1  0  0  0
  4 90  1  0  0  0
  4 91  1  0  0  0
  5  6  1  0  0  0
  5 26  1  0  0  0
  5 92  1  0  0  0
  6 25  1  0  0  0
  6 93  1  0  0  0
  6 94  1  0  0  0
  7  8  2  0  0  0
  7 26  1  0  0  0
  7 29  1  0  0  0
  8  9  1  0  0  0
  8 22  1  0  0  0
  9 10  1  0  0  0
  9 27  2  0  0  0
 10 11  2  0  0  0
 10 15  1  0  0  0
 11 12  1  0  0  0
 11 95  1  0  0  0
 12 13  2  0  0  0
 12 96  1  0  0  0
 13 14  1  0  0  0
 13 31  1  0  0  0
 14 15  2  0  0  0
 14 97  1  0  0  0
 15 98  1  0  0  0
 16 17  2  0  0  0
 16 21  1  0  0  0
 16 31  1  0  0  0
 17 18  1  0  0  0
 17 99  1  0  0  0
 18 19  2  0  0  0
 18100  1  0  0  0
 19 20  1  0  0  0
 19 24  1  0  0  0
 20 21  2  0  0  0
 20101  1  0  0  0
 21 23  1  0  0  0
 22 28  1  0  0  0
 22 32  2  0  0  0
 26 27  1  0  0  0
 28102  1  0  0  0
 28103  1  0  0  0
 29104  1  0  0  0
 29105  1  0  0  0
 33 34  1  0  0  0
 33 66  1  0  0  0
 33 70  2  0  0  0
 34 36  1  0  0  0
 34 59  1  0  0  0
 34106  1  0  0  0
 35 44  2  0  0  0
 35 45  1  0  0  0
 35 68  1  0  0  0
 36 56  1  0  0  0
 36107  1  0  0  0
 37 39  1  0  0  0
 37 47  1  0  0  0
 37 66  1  0  0  0
 37108  1  0  0  0
 38 43  2  0  0  0
 38 46  1  0  0  0
 38 47  1  0  0  0
 39 64  1  0  0  0
 39 67  2  0  0  0
 40 52  1  0  0  0
 40 53  2  0  0  0
 40 58  1  0  0  0
 41109  1  0  0  0
 41110  1  0  0  0
 41111  1  0  0  0
 41 48  1  0  0  0
 42 43  1  0  0  0
 42 66  1  0  0  0
 42112  1  0  0  0
 42113  1  0  0  0
 43 44  1  0  0  0
 44114  1  0  0  0
 45 46  2  0  0  0
 45115  1  0  0  0
 46116  1  0  0  0
 47117  1  0  0  0
 47118  1  0  0  0
 48 56  1  0  0  0
 48 65  1  0  0  0
 48119  1  0  0  0
 49 50  1  0  0  0
 49 53  1  0  0  0
 49 64  1  0  0  0
 49120  1  0  0  0
 50 51  1  0  0  0
 50121  1  0  0  0
 50122  1  0  0  0
 51 52  1  0  0  0
 51123  1  0  0  0
 51124  1  0  0  0
 52125  1  0  0  0
 52126  1  0  0  0
 53 54  1  0  0  0
 54 55  2  0  0  0
 54127  1  0  0  0
 55 57  1  0  0  0
 55128  1  0  0  0
 56 69  2  0  0  0
 57 58  2  0  0  0
 57129  1  0  0  0
 58130  1  0  0  0
 59 60  1  0  0  0
 59 61  1  0  0  0
 59 62  1  0  0  0
 60131  1  0  0  0
 60132  1  0  0  0
 60133  1  0  0  0
 61134  1  0  0  0
 61135  1  0  0  0
 61136  1  0  0  0
 62137  1  0  0  0
 62138  1  0  0  0
 62139  1  0  0  0
 63 65  1  0  0  0
 63140  1  0  0  0
 63141  1  0  0  0
 63142  1  0  0  0
 64143  1  0  0  0
 65144  1  0  0  0
 68 81  1  0  0  0
 71 72  2  0  0  0
 71 83  1  0  0  0
 71145  1  0  0  0
 72 84  1  0  0  0
 72146  1  0  0  0
 73 76  1  0  0  0
 73 83  1  0  0  0
 73 84  2  0  0  0
 74147  1  0  0  0
 74148  1  0  0  0
 74149  1  0  0  0
 74 82  1  0  0  0
 75150  1  0  0  0
 75151  1  0  0  0
 75152  1  0  0  0
 75 85  1  0  0  0
 76 77  1  0  0  0
 76153  1  0  0  0
 76154  1  0  0  0
 77 78  1  0  0  0
 77155  1  0  0  0
 77156  1  0  0  0
 78 79  1  0  0  0
 78157  1  0  0  0
 78158  1  0  0  0
 79 85  1  0  0  0
 79159  1  0  0  0
 79160  1  0  0  0
 80 81  1  0  0  0
 80 85  1  0  0  0
 80161  1  0  0  0
 80162  1  0  0  0
 81163  1  0  0  0
 81164  1  0  0  0
 82 83  1  0  0  0
 82165  1  0  0  0
 84166  1  0  0  0
 85167  1  0  0  0
M  CHG  2  84   1  85   1
M  ISO  4   1 100  68 101  81 101  82 100
M  END
> <chiral flag>
0

> <version>
0

> <s_m_source_file>
/data/baiqing/PycharmProjects/Reinvent-master-3.2/result/LINK_invent/BTK/process_docking_weight1_custom_sum_contain_oxygen_bond_distance_aromatic_linkinvent_7_9_3/rearranged_h_0057.sdf

> <i_m_source_file_index>
29

> <r_mmod_Potential_Energy-OPLS-2005>
111.011978149414

> <r_mmod_Stretch_Energy-OPLS-2005>
55.3663063049316

> <r_mmod_Bend_Energy-OPLS-2005>
159.929718017578

> <r_mmod_Torsional_Energy-OPLS-2005>
300.752807617188

> <r_mmod_Improper_Torsional_Energy-OPLS-2005>
22.5111999511719

> <r_mmod_Van_der_Waal_Energy-OPLS-2005>
154.467330932617

> <r_mmod_Electrostatic_Energy-OPLS-2005>
151.967437744141

> <r_mmod_Solvation_Energy-OPLS-2005>
-824.574279785156

> <b_mmod_Minimization_Converged-OPLS-2005>
0

> <r_mmod_RMS_Derivative-OPLS-2005>
15.7522983551025

$$$$
29
                    3D
 Structure written by MMmdl.
149157  0  0  1  0            999 V2000
  -30.4968  -15.0848   20.4242 C   0  0  0  0  0  0
  -30.4513  -12.7014   19.4738 C   0  0  0  0  0  0
  -29.5152  -12.5640   18.2476 C   0  0  0  0  0  0
  -28.0541  -12.3193   18.6765 C   0  0  0  0  0  0
  -27.6272  -13.2396   19.8487 C   0  0  2  0  0  0
  -28.6928  -13.2385   20.9665 C   0  0  0  0  0  0
  -25.2402  -13.8132   20.5725 C   0  0  0  0  0  0
  -24.1737  -13.0366   20.9247 C   0  0  0  0  0  0
  -24.6378  -11.6866   20.8786 C   0  0  0  0  0  0
  -23.9066  -10.4253   21.0422 C   0  0  0  0  0  0
  -24.3615   -9.4173   21.9196 C   0  0  0  0  0  0
  -23.6287   -8.2213   22.0757 C   0  0  0  0  0  0
  -22.4269   -8.0265   21.3544 C   0  0  0  0  0  0
  -21.9909   -9.0236   20.4644 C   0  0  0  0  0  0
  -22.7243  -10.2110   20.3060 C   0  0  0  0  0  0
  -21.6843   -6.0732   22.5282 C   0  0  0  0  0  0
  -21.4007   -6.5636   23.8215 C   0  0  0  0  0  0
  -21.3659   -5.6790   24.9177 C   0  0  0  0  0  0
  -21.6044   -4.3053   24.7226 C   0  0  0  0  0  0
  -21.8819   -3.8146   23.4347 C   0  0  0  0  0  0
  -21.9189   -4.6961   22.3404 C   0  0  0  0  0  0
  -22.7761  -13.5154   21.1887 C   0  0  0  0  0  0
  -22.1658   -4.2149   21.0981 F   0  0  0  0  0  0
  -21.5631   -3.4536   25.7739 F   0  0  0  0  0  0
  -29.9154  -13.7944   20.3537 N   0  0  0  0  0  0
  -26.2876  -12.9379   20.3352 N   0  0  0  0  0  0
  -25.9322  -11.6514   20.5815 N   0  0  0  0  0  0
  -22.0411  -12.8160   22.0454 N   0  0  0  0  0  0
  -25.3910  -15.1849   20.4078 N   0  0  0  0  0  0
  -31.7111  -15.0978   20.1767 O   0  0  0  0  0  0
  -21.6625   -6.8870   21.4243 O   0  0  0  0  0  0
  -22.3454  -14.5462   20.6727 O   0  0  0  0  0  0
  -24.6493  -31.8369   23.1814 C   0  0  0  0  0  0
  -25.9236  -32.4656   23.8230 C   0  0  1  0  0  0
  -27.2296  -27.0774   20.1588 C   0  0  0  0  0  0
  -25.5958  -33.8463   24.2144 N   0  0  0  0  0  0
  -23.4568  -30.4522   21.5277 C   0  0  2  0  0  0
  -24.9098  -28.8640   20.1114 C   0  0  0  0  0  0
  -22.7598  -29.4508   22.4835 C   0  0  0  0  0  0
  -18.0311  -28.1398   22.8473 C   0  0  0  0  0  0
  -24.1493  -36.7241   23.2645 C   0  0  0  0  0  0
  -26.0162  -30.6918   21.3889 C   0  0  0  0  0  0
  -26.0888  -29.2963   20.7315 C   0  0  0  0  0  0
  -27.2468  -28.4211   20.7338 C   0  0  0  0  0  0
  -26.0212  -26.7569   19.5023 C   0  0  0  0  0  0
  -24.8923  -27.6098   19.4802 C   0  0  0  0  0  0
  -23.6879  -29.7731   20.1504 C   0  0  0  0  0  0
  -25.4128  -36.3009   24.0311 C   0  0  1  0  0  0
  -20.5926  -28.3730   23.1222 C   0  0  2  0  0  0
  -20.6793  -26.9427   22.5404 C   0  0  0  0  0  0
  -19.5766  -26.6379   21.5214 C   0  0  0  0  0  0
  -18.1949  -26.7936   22.1624 C   0  0  0  0  0  0
  -19.1569  -28.8884   23.2838 C   0  0  0  0  0  0
  -18.9484  -30.1480   23.8864 C   0  0  0  0  0  0
  -17.6479  -30.6593   24.0558 C   0  0  0  0  0  0
  -25.9081  -34.9387   23.5042 C   0  0  0  0  0  0
  -16.5369  -29.9083   23.6339 C   0  0  0  0  0  0
  -16.7294  -28.6503   23.0357 C   0  0  0  0  0  0
  -26.4536  -31.6551   25.0702 C   0  0  0  0  0  0
  -25.3701  -31.3761   26.1387 C   0  0  0  0  0  0
  -27.0417  -30.2939   24.6336 C   0  0  0  0  0  0
  -27.6045  -32.4338   25.7496 C   0  0  0  0  0  0
  -27.5574  -37.1778   24.8466 C   0  0  0  0  0  0
  -21.4282  -29.3045   22.3585 N   0  0  0  0  0  0
  -26.4284  -37.3730   23.9408 N   0  0  0  0  0  0
  -24.7275  -31.0165   22.0876 N   0  0  0  0  0  0
  -23.4210  -28.8072   23.3023 O   0  0  0  0  0  0
  -28.2819  -26.0707   20.2275 O   0  0  0  0  0  0
  -26.5676  -34.8899   22.4627 O   0  0  0  0  0  0
  -23.5597  -32.1273   23.6996 O   0  0  0  0  0  0
  -28.1133  -19.6716   19.9041 C   0  0  0  0  0  0
  -29.4707  -19.3484   20.2614 C   0  0  0  0  0  0
  -28.3647  -16.4516   20.9043 C   0  0  0  0  0  0
  -30.2922  -17.8685   20.3233 C   0  0  0  0  0  0
  -29.1597  -23.2197   20.3875 C   0  0  0  0  0  0
  -28.0588  -24.5041   20.0678 C   0  0  0  0  0  0
  -27.8279  -20.9805   19.8993 N   0  0  0  0  0  0
  -29.9853  -20.6018   20.4659 N   0  0  0  0  0  0
  -28.9850  -21.6184   20.2397 N   0  0  0  0  0  0
  -29.7700  -16.3567   20.5146 N   0  0  0  0  0  0
  -31.4626  -12.9158   19.1252 H   0  0  0  0  0  0
  -30.5320  -11.7556   20.0123 H   0  0  0  0  0  0
  -29.8560  -11.7576   17.5969 H   0  0  0  0  0  0
  -29.5670  -13.4778   17.6535 H   0  0  0  0  0  0
  -27.9694  -11.2758   18.9826 H   0  0  0  0  0  0
  -27.3813  -12.4436   17.8270 H   0  0  0  0  0  0
  -27.5835  -14.2400   19.4228 H   0  0  0  0  0  0
  -28.8517  -12.2179   21.3187 H   0  0  0  0  0  0
  -28.3911  -13.7607   21.8679 H   0  0  0  0  0  0
  -25.2754   -9.5649   22.4780 H   0  0  0  0  0  0
  -23.9992   -7.4600   22.7472 H   0  0  0  0  0  0
  -21.0843   -8.8756   19.8946 H   0  0  0  0  0  0
  -22.3705  -10.9655   19.6173 H   0  0  0  0  0  0
  -21.1995   -7.6143   23.9718 H   0  0  0  0  0  0
  -21.1484   -6.0520   25.9081 H   0  0  0  0  0  0
  -22.0601   -2.7608   23.2843 H   0  0  0  0  0  0
  -22.4028  -11.9828   22.4852 H   0  0  0  0  0  0
  -21.1031  -13.1192   22.2658 H   0  0  0  0  0  0
  -24.6149  -15.8281   20.5195 H   0  0  0  0  0  0
  -26.2380  -15.6340   20.0897 H   0  0  0  0  0  0
  -26.7303  -32.5242   23.0953 H   0  0  0  0  0  0
  -25.0069  -33.9560   25.0270 H   0  0  0  0  0  0
  -22.7630  -31.2798   21.3659 H   0  0  0  0  0  0
  -23.3760  -35.9568   23.3289 H   0  0  0  0  0  0
  -24.3576  -36.8897   22.2064 H   0  0  0  0  0  0
  -23.7245  -37.6428   23.6700 H   0  0  0  0  0  0
  -26.1789  -31.4432   20.6152 H   0  0  0  0  0  0
  -26.8833  -30.7439   22.0359 H   0  0  0  0  0  0
  -28.1441  -28.7496   21.2392 H   0  0  0  0  0  0
  -25.9211  -25.7963   19.0189 H   0  0  0  0  0  0
  -23.9931  -27.2726   18.9829 H   0  0  0  0  0  0
  -23.8291  -30.5438   19.3918 H   0  0  0  0  0  0
  -22.8019  -29.2169   19.8391 H   0  0  0  0  0  0
  -25.1321  -36.1823   25.0803 H   0  0  0  0  0  0
  -21.0016  -28.3327   24.1344 H   0  0  0  0  0  0
  -20.5685  -26.2346   23.3630 H   0  0  0  0  0  0
  -21.6658  -26.7426   22.1203 H   0  0  0  0  0  0
  -19.6927  -25.6281   21.1264 H   0  0  0  0  0  0
  -19.6703  -27.3171   20.6730 H   0  0  0  0  0  0
  -17.4218  -26.6678   21.4029 H   0  0  0  0  0  0
  -18.0348  -26.0083   22.9027 H   0  0  0  0  0  0
  -19.7959  -30.7305   24.2216 H   0  0  0  0  0  0
  -17.5031  -31.6270   24.5165 H   0  0  0  0  0  0
  -15.5368  -30.2974   23.7681 H   0  0  0  0  0  0
  -15.8696  -28.0811   22.7088 H   0  0  0  0  0  0
  -24.5880  -30.7114   25.7704 H   0  0  0  0  0  0
  -24.8895  -32.2952   26.4748 H   0  0  0  0  0  0
  -25.7969  -30.8969   27.0207 H   0  0  0  0  0  0
  -26.3055  -29.6638   24.1333 H   0  0  0  0  0  0
  -27.3996  -29.7267   25.4940 H   0  0  0  0  0  0
  -27.8974  -30.4159   23.9692 H   0  0  0  0  0  0
  -27.2619  -33.3659   26.2000 H   0  0  0  0  0  0
  -28.3895  -32.6867   25.0356 H   0  0  0  0  0  0
  -28.0672  -31.8515   26.5476 H   0  0  0  0  0  0
  -28.2580  -38.0084   24.7510 H   0  0  0  0  0  0
  -28.1080  -36.2612   24.6296 H   0  0  0  0  0  0
  -27.2290  -37.1428   25.8868 H   0  0  0  0  0  0
  -20.9510  -29.8740   21.6737 H   0  0  0  0  0  0
  -26.0144  -38.2795   24.1406 H   0  0  0  0  0  0
  -27.3405  -18.9648   19.6338 H   0  0  0  0  0  0
  -28.1572  -17.3794   21.4346 H   0  0  0  0  0  0
  -28.0316  -15.7009   21.6040 H   0  0  0  0  0  0
  -27.7404  -16.4384   20.0134 H   0  0  0  0  0  0
  -31.0503  -17.9718   21.1001 H   0  0  0  0  0  0
  -30.8827  -17.8143   19.4082 H   0  0  0  0  0  0
  -29.4781  -23.3647   21.4192 H   0  0  0  0  0  0
  -30.0496  -23.4519   19.8038 H   0  0  0  0  0  0
  -27.1679  -24.2808   20.6550 H   0  0  0  0  0  0
  -27.7485  -24.3671   19.0322 H   0  0  0  0  0  0
  1 25  1  0  0  0
  1 30  2  0  0  0
  1 80  1  0  0  0
  2  3  1  0  0  0
  2 25  1  0  0  0
  2 81  1  0  0  0
  2 82  1  0  0  0
  3  4  1  0  0  0
  3 83  1  0  0  0
  3 84  1  0  0  0
  4  5  1  0  0  0
  4 85  1  0  0  0
  4 86  1  0  0  0
  5  6  1  0  0  0
  5 26  1  0  0  0
  5 87  1  0  0  0
  6 25  1  0  0  0
  6 88  1  0  0  0
  6 89  1  0  0  0
  7  8  2  0  0  0
  7 26  1  0  0  0
  7 29  1  0  0  0
  8  9  1  0  0  0
  8 22  1  0  0  0
  9 10  1  0  0  0
  9 27  2  0  0  0
 10 11  2  0  0  0
 10 15  1  0  0  0
 11 12  1  0  0  0
 11 90  1  0  0  0
 12 13  2  0  0  0
 12 91  1  0  0  0
 13 14  1  0  0  0
 13 31  1  0  0  0
 14 15  2  0  0  0
 14 92  1  0  0  0
 15 93  1  0  0  0
 16 17  2  0  0  0
 16 21  1  0  0  0
 16 31  1  0  0  0
 17 18  1  0  0  0
 17 94  1  0  0  0
 18 19  2  0  0  0
 18 95  1  0  0  0
 19 20  1  0  0  0
 19 24  1  0  0  0
 20 21  2  0  0  0
 20 96  1  0  0  0
 21 23  1  0  0  0
 22 28  1  0  0  0
 22 32  2  0  0  0
 26 27  1  0  0  0
 28 97  1  0  0  0
 28 98  1  0  0  0
 29 99  1  0  0  0
 29100  1  0  0  0
 33 34  1  0  0  0
 33 66  1  0  0  0
 33 70  2  0  0  0
 34 36  1  0  0  0
 34 59  1  0  0  0
 34101  1  0  0  0
 35 44  2  0  0  0
 35 45  1  0  0  0
 35 68  1  0  0  0
 36 56  1  0  0  0
 36102  1  0  0  0
 37 39  1  0  0  0
 37 47  1  0  0  0
 37 66  1  0  0  0
 37103  1  0  0  0
 38 43  2  0  0  0
 38 46  1  0  0  0
 38 47  1  0  0  0
 39 64  1  0  0  0
 39 67  2  0  0  0
 40 52  1  0  0  0
 40 53  2  0  0  0
 40 58  1  0  0  0
 41104  1  0  0  0
 41105  1  0  0  0
 41106  1  0  0  0
 41 48  1  0  0  0
 42 43  1  0  0  0
 42 66  1  0  0  0
 42107  1  0  0  0
 42108  1  0  0  0
 43 44  1  0  0  0
 44109  1  0  0  0
 45 46  2  0  0  0
 45110  1  0  0  0
 46111  1  0  0  0
 47112  1  0  0  0
 47113  1  0  0  0
 48 56  1  0  0  0
 48 65  1  0  0  0
 48114  1  0  0  0
 49 50  1  0  0  0
 49 53  1  0  0  0
 49 64  1  0  0  0
 49115  1  0  0  0
 50 51  1  0  0  0
 50116  1  0  0  0
 50117  1  0  0  0
 51 52  1  0  0  0
 51118  1  0  0  0
 51119  1  0  0  0
 52120  1  0  0  0
 52121  1  0  0  0
 53 54  1  0  0  0
 54 55  2  0  0  0
 54122  1  0  0  0
 55 57  1  0  0  0
 55123  1  0  0  0
 56 69  2  0  0  0
 57 58  2  0  0  0
 57124  1  0  0  0
 58125  1  0  0  0
 59 60  1  0  0  0
 59 61  1  0  0  0
 59 62  1  0  0  0
 60126  1  0  0  0
 60127  1  0  0  0
 60128  1  0  0  0
 61129  1  0  0  0
 61130  1  0  0  0
 61131  1  0  0  0
 62132  1  0  0  0
 62133  1  0  0  0
 62134  1  0  0  0
 63 65  1  0  0  0
 63135  1  0  0  0
 63136  1  0  0  0
 63137  1  0  0  0
 64138  1  0  0  0
 65139  1  0  0  0
 68 76  1  0  0  0
 71 72  1  0  0  0
 71 77  2  0  0  0
 71140  1  0  0  0
 72 74  1  0  0  0
 72 78  2  0  0  0
 73 80  1  0  0  0
 73141  1  0  0  0
 73142  1  0  0  0
 73143  1  0  0  0
 74 80  1  0  0  0
 74144  1  0  0  0
 74145  1  0  0  0
 75 76  1  0  0  0
 75 79  1  0  0  0
 75146  1  0  0  0
 75147  1  0  0  0
 76148  1  0  0  0
 76149  1  0  0  0
 77 79  1  0  0  0
 78 79  1  0  0  0
M  ISO  4   1 100  68 101  76 101  80 100
M  END
> <chiral flag>
0

> <version>
0

> <s_m_source_file>
/data/baiqing/PycharmProjects/Reinvent-master-3.2/result/LINK_invent/BTK/process_docking_weight1_custom_sum_contain_oxygen_bond_distance_aromatic_linkinvent_7_9_3/rearranged_h_0057.sdf

> <i_m_source_file_index>
30

> <r_mmod_Potential_Energy-OPLS-2005>
776.208862304688

> <r_mmod_Stretch_Energy-OPLS-2005>
354.853271484375

> <r_mmod_Bend_Energy-OPLS-2005>
333.241729736328

> <r_mmod_Torsional_Energy-OPLS-2005>
245.841445922852

> <r_mmod_Improper_Torsional_Energy-OPLS-2005>
5.49417352676392

> <r_mmod_Van_der_Waal_Energy-OPLS-2005>
121.025169372559

> <r_mmod_Electrostatic_Energy-OPLS-2005>
-319.566925048828

> <r_mmod_Solvation_Energy-OPLS-2005>
-227.937423706055

> <b_mmod_Minimization_Converged-OPLS-2005>
0

> <r_mmod_RMS_Derivative-OPLS-2005>
0.408351093530655

$$$$
30
                    3D
 Structure written by MMmdl.
154162  0  0  1  0            999 V2000
  -30.5781  -14.8876   20.5013 C   0  0  0  0  0  0
  -30.4508  -12.5611   19.5011 C   0  0  0  0  0  0
  -29.5245  -12.5273   18.2615 C   0  0  0  0  0  0
  -28.0598  -12.3035   18.6784 C   0  0  0  0  0  0
  -27.6420  -13.2264   19.8490 C   0  0  2  0  0  0
  -28.6797  -13.1795   20.9863 C   0  0  0  0  0  0
  -25.2549  -13.8178   20.5705 C   0  0  0  0  0  0
  -24.1817  -13.0437   20.9185 C   0  0  0  0  0  0
  -24.6397  -11.6908   20.8725 C   0  0  0  0  0  0
  -23.9073  -10.4287   21.0397 C   0  0  0  0  0  0
  -24.3620   -9.4194   21.9171 C   0  0  0  0  0  0
  -23.6289   -8.2234   22.0750 C   0  0  0  0  0  0
  -22.4273   -8.0276   21.3542 C   0  0  0  0  0  0
  -21.9913   -9.0249   20.4642 C   0  0  0  0  0  0
  -22.7245  -10.2124   20.3050 C   0  0  0  0  0  0
  -21.6847   -6.0731   22.5282 C   0  0  0  0  0  0
  -21.4007   -6.5643   23.8210 C   0  0  0  0  0  0
  -21.3661   -5.6799   24.9172 C   0  0  0  0  0  0
  -21.6042   -4.3063   24.7225 C   0  0  0  0  0  0
  -21.8820   -3.8153   23.4351 C   0  0  0  0  0  0
  -21.9187   -4.6962   22.3407 C   0  0  0  0  0  0
  -22.7852  -13.5231   21.1870 C   0  0  0  0  0  0
  -22.1657   -4.2150   21.0984 F   0  0  0  0  0  0
  -21.5626   -3.4551   25.7738 F   0  0  0  0  0  0
  -29.9671  -13.6324   20.4250 N   0  0  0  0  0  0
  -26.2945  -12.9354   20.3250 N   0  0  0  0  0  0
  -25.9320  -11.6503   20.5712 N   0  0  0  0  0  0
  -22.0521  -12.8199   22.0424 N   0  0  0  0  0  0
  -25.4354  -15.1900   20.4185 N   0  0  0  0  0  0
  -31.7256  -14.9786   20.0491 O   0  0  0  0  0  0
  -21.6636   -6.8875   21.4244 O   0  0  0  0  0  0
  -22.3525  -14.5539   20.6725 O   0  0  0  0  0  0
  -24.6394  -31.8465   23.1903 C   0  0  0  0  0  0
  -25.9183  -32.4710   23.8286 C   0  0  1  0  0  0
  -27.2191  -27.1713   20.1543 C   0  0  0  0  0  0
  -25.5938  -33.8513   24.2196 N   0  0  0  0  0  0
  -23.4428  -30.4664   21.5361 C   0  0  2  0  0  0
  -24.8949  -28.8995   20.1120 C   0  0  0  0  0  0
  -22.7542  -29.4561   22.4878 C   0  0  0  0  0  0
  -18.0294  -28.1395   22.8466 C   0  0  0  0  0  0
  -24.1494  -36.7263   23.2642 C   0  0  0  0  0  0
  -25.9970  -30.7321   21.3865 C   0  0  0  0  0  0
  -26.0716  -29.3460   20.7290 C   0  0  0  0  0  0
  -27.2393  -28.4981   20.7340 C   0  0  0  0  0  0
  -26.0227  -26.8209   19.4936 C   0  0  0  0  0  0
  -24.8816  -27.6485   19.4778 C   0  0  0  0  0  0
  -23.6672  -29.7946   20.1559 C   0  0  0  0  0  0
  -25.4123  -36.3040   24.0315 C   0  0  1  0  0  0
  -20.5905  -28.3721   23.1234 C   0  0  2  0  0  0
  -20.6790  -26.9425   22.5406 C   0  0  0  0  0  0
  -19.5768  -26.6381   21.5212 C   0  0  0  0  0  0
  -18.1950  -26.7928   22.1625 C   0  0  0  0  0  0
  -19.1550  -28.8874   23.2839 C   0  0  0  0  0  0
  -18.9470  -30.1471   23.8864 C   0  0  0  0  0  0
  -17.6471  -30.6598   24.0544 C   0  0  0  0  0  0
  -25.9064  -34.9412   23.5060 C   0  0  0  0  0  0
  -16.5358  -29.9083   23.6342 C   0  0  0  0  0  0
  -16.7276  -28.6502   23.0354 C   0  0  0  0  0  0
  -26.4514  -31.6578   25.0721 C   0  0  0  0  0  0
  -25.3707  -31.3768   26.1424 C   0  0  0  0  0  0
  -27.0389  -30.2976   24.6303 C   0  0  0  0  0  0
  -27.6046  -32.4343   25.7500 C   0  0  0  0  0  0
  -27.5574  -37.1788   24.8463 C   0  0  0  0  0  0
  -21.4237  -29.3046   22.3612 N   0  0  0  0  0  0
  -26.4288  -37.3748   23.9400 N   0  0  0  0  0  0
  -24.7124  -31.0337   22.0935 N   0  0  0  0  0  0
  -23.4194  -28.8101   23.3017 O   0  0  0  0  0  0
  -28.2584  -26.1815   20.1797 O   0  0  0  0  0  0
  -26.5653  -34.8903   22.4639 O   0  0  0  0  0  0
  -23.5522  -32.1329   23.7142 O   0  0  0  0  0  0
  -29.6888  -22.7312   21.0404 C   0  0  0  0  0  0
  -28.5195  -23.3094   20.4562 C   0  0  0  0  0  0
  -27.7540  -22.2614   19.8513 C   0  0  0  0  0  0
  -29.1729  -20.4505   20.5214 C   0  0  0  0  0  0
  -26.4128  -22.5607   19.2123 C   0  0  0  0  0  0
  -29.2318  -16.0875   22.1797 C   0  0  0  0  0  0
  -27.9311  -24.8114   20.7953 C   0  0  0  0  0  0
  -29.2440  -18.8714   20.9778 C   0  0  0  0  0  0
  -30.0019  -17.5435   20.2847 C   0  0  0  0  0  0
  -29.9885  -21.3729   21.0749 N   0  0  0  0  0  0
  -28.0786  -20.9125   19.8847 N   0  0  0  0  0  0
  -29.8599  -16.0713   20.8533 N   0  0  0  0  0  0
  -31.4815  -12.7222   19.1834 H   0  0  0  0  0  0
  -30.4547  -11.5930   20.0060 H   0  0  0  0  0  0
  -29.8394  -11.7397   17.5759 H   0  0  0  0  0  0
  -29.6086  -13.4666   17.7120 H   0  0  0  0  0  0
  -27.9703  -11.2616   18.9914 H   0  0  0  0  0  0
  -27.3894  -12.4265   17.8273 H   0  0  0  0  0  0
  -27.6295  -14.2411   19.4497 H   0  0  0  0  0  0
  -28.7693  -12.1693   21.3879 H   0  0  0  0  0  0
  -28.3332  -13.7761   21.8206 H   0  0  0  0  0  0
  -25.2763   -9.5671   22.4734 H   0  0  0  0  0  0
  -23.9987   -7.4648   22.7493 H   0  0  0  0  0  0
  -21.0830   -8.8779   19.8962 H   0  0  0  0  0  0
  -22.3709  -10.9655   19.6159 H   0  0  0  0  0  0
  -21.1996   -7.6158   23.9708 H   0  0  0  0  0  0
  -21.1482   -6.0534   25.9075 H   0  0  0  0  0  0
  -22.0599   -2.7613   23.2853 H   0  0  0  0  0  0
  -22.4145  -11.9802   22.4684 H   0  0  0  0  0  0
  -21.1160  -13.1225   22.2722 H   0  0  0  0  0  0
  -24.6849  -15.8589   20.5498 H   0  0  0  0  0  0
  -26.3065  -15.6180   20.1305 H   0  0  0  0  0  0
  -26.7241  -32.5326   23.1018 H   0  0  0  0  0  0
  -25.0064  -33.9635   25.0326 H   0  0  0  0  0  0
  -22.7445  -31.2918   21.3822 H   0  0  0  0  0  0
  -23.3756  -35.9597   23.3299 H   0  0  0  0  0  0
  -24.3586  -36.8895   22.2058 H   0  0  0  0  0  0
  -23.7253  -37.6461   23.6675 H   0  0  0  0  0  0
  -26.1496  -31.4899   20.6168 H   0  0  0  0  0  0
  -26.8671  -30.7801   22.0292 H   0  0  0  0  0  0
  -28.1370  -28.8360   21.2329 H   0  0  0  0  0  0
  -25.9547  -25.8615   19.0011 H   0  0  0  0  0  0
  -23.9848  -27.3039   18.9796 H   0  0  0  0  0  0
  -23.7956  -30.5682   19.3978 H   0  0  0  0  0  0
  -22.7837  -29.2317   19.8500 H   0  0  0  0  0  0
  -25.1316  -36.1876   25.0810 H   0  0  0  0  0  0
  -20.9985  -28.3319   24.1353 H   0  0  0  0  0  0
  -20.5684  -26.2337   23.3623 H   0  0  0  0  0  0
  -21.6662  -26.7434   22.1209 H   0  0  0  0  0  0
  -19.6935  -25.6285   21.1260 H   0  0  0  0  0  0
  -19.6712  -27.3171   20.6724 H   0  0  0  0  0  0
  -17.4211  -26.6631   21.4037 H   0  0  0  0  0  0
  -18.0360  -26.0089   22.9046 H   0  0  0  0  0  0
  -19.7949  -30.7289   24.2226 H   0  0  0  0  0  0
  -17.5026  -31.6281   24.5142 H   0  0  0  0  0  0
  -15.5355  -30.2973   23.7700 H   0  0  0  0  0  0
  -15.8672  -28.0813   22.7092 H   0  0  0  0  0  0
  -24.5863  -30.7145   25.7738 H   0  0  0  0  0  0
  -24.8933  -32.2962   26.4822 H   0  0  0  0  0  0
  -25.7994  -30.8945   27.0217 H   0  0  0  0  0  0
  -26.3016  -29.6691   24.1297 H   0  0  0  0  0  0
  -27.3985  -29.7283   25.4886 H   0  0  0  0  0  0
  -27.8921  -30.4211   23.9632 H   0  0  0  0  0  0
  -27.2625  -33.3633   26.2068 H   0  0  0  0  0  0
  -28.3858  -32.6927   25.0338 H   0  0  0  0  0  0
  -28.0718  -31.8490   26.5428 H   0  0  0  0  0  0
  -28.2596  -38.0081   24.7501 H   0  0  0  0  0  0
  -28.1066  -36.2612   24.6304 H   0  0  0  0  0  0
  -27.2286  -37.1446   25.8866 H   0  0  0  0  0  0
  -20.9442  -29.8728   21.6769 H   0  0  0  0  0  0
  -26.0160  -38.2816   24.1408 H   0  0  0  0  0  0
  -30.3615  -23.3594   21.6048 H   0  0  0  0  0  0
  -25.6407  -22.6497   19.9773 H   0  0  0  0  0  0
  -26.4504  -23.4911   18.6489 H   0  0  0  0  0  0
  -26.1165  -21.7671   18.5260 H   0  0  0  0  0  0
  -29.5320  -15.2399   22.7986 H   0  0  0  0  0  0
  -28.1451  -16.0850   22.0900 H   0  0  0  0  0  0
  -29.5239  -16.9536   22.7700 H   0  0  0  0  0  0
  -28.1863  -24.9495   21.8458 H   0  0  0  0  0  0
  -26.8481  -24.7039   20.8268 H   0  0  0  0  0  0
  -28.1994  -18.5851   21.1004 H   0  0  0  0  0  0
  -29.6244  -18.9434   21.9960 H   0  0  0  0  0  0
  -29.6788  -17.4916   19.2445 H   0  0  0  0  0  0
  -31.0683  -17.7646   20.2389 H   0  0  0  0  0  0
  1 25  1  0  0  0
  1 30  2  0  0  0
  1 82  1  0  0  0
  2  3  1  0  0  0
  2 25  1  0  0  0
  2 83  1  0  0  0
  2 84  1  0  0  0
  3  4  1  0  0  0
  3 85  1  0  0  0
  3 86  1  0  0  0
  4  5  1  0  0  0
  4 87  1  0  0  0
  4 88  1  0  0  0
  5  6  1  0  0  0
  5 26  1  0  0  0
  5 89  1  0  0  0
  6 25  1  0  0  0
  6 90  1  0  0  0
  6 91  1  0  0  0
  7  8  2  0  0  0
  7 26  1  0  0  0
  7 29  1  0  0  0
  8  9  1  0  0  0
  8 22  1  0  0  0
  9 10  1  0  0  0
  9 27  2  0  0  0
 10 11  2  0  0  0
 10 15  1  0  0  0
 11 12  1  0  0  0
 11 92  1  0  0  0
 12 13  2  0  0  0
 12 93  1  0  0  0
 13 14  1  0  0  0
 13 31  1  0  0  0
 14 15  2  0  0  0
 14 94  1  0  0  0
 15 95  1  0  0  0
 16 17  2  0  0  0
 16 21  1  0  0  0
 16 31  1  0  0  0
 17 18  1  0  0  0
 17 96  1  0  0  0
 18 19  2  0  0  0
 18 97  1  0  0  0
 19 20  1  0  0  0
 19 24  1  0  0  0
 20 21  2  0  0  0
 20 98  1  0  0  0
 21 23  1  0  0  0
 22 28  1  0  0  0
 22 32  2  0  0  0
 26 27  1  0  0  0
 28 99  1  0  0  0
 28100  1  0  0  0
 29101  1  0  0  0
 29102  1  0  0  0
 33 34  1  0  0  0
 33 66  1  0  0  0
 33 70  2  0  0  0
 34 36  1  0  0  0
 34 59  1  0  0  0
 34103  1  0  0  0
 35 44  2  0  0  0
 35 45  1  0  0  0
 35 68  1  0  0  0
 36 56  1  0  0  0
 36104  1  0  0  0
 37 39  1  0  0  0
 37 47  1  0  0  0
 37 66  1  0  0  0
 37105  1  0  0  0
 38 43  2  0  0  0
 38 46  1  0  0  0
 38 47  1  0  0  0
 39 64  1  0  0  0
 39 67  2  0  0  0
 40 52  1  0  0  0
 40 53  2  0  0  0
 40 58  1  0  0  0
 41106  1  0  0  0
 41107  1  0  0  0
 41108  1  0  0  0
 41 48  1  0  0  0
 42 43  1  0  0  0
 42 66  1  0  0  0
 42109  1  0  0  0
 42110  1  0  0  0
 43 44  1  0  0  0
 44111  1  0  0  0
 45 46  2  0  0  0
 45112  1  0  0  0
 46113  1  0  0  0
 47114  1  0  0  0
 47115  1  0  0  0
 48 56  1  0  0  0
 48 65  1  0  0  0
 48116  1  0  0  0
 49 50  1  0  0  0
 49 53  1  0  0  0
 49 64  1  0  0  0
 49117  1  0  0  0
 50 51  1  0  0  0
 50118  1  0  0  0
 50119  1  0  0  0
 51 52  1  0  0  0
 51120  1  0  0  0
 51121  1  0  0  0
 52122  1  0  0  0
 52123  1  0  0  0
 53 54  1  0  0  0
 54 55  2  0  0  0
 54124  1  0  0  0
 55 57  1  0  0  0
 55125  1  0  0  0
 56 69  2  0  0  0
 57 58  2  0  0  0
 57126  1  0  0  0
 58127  1  0  0  0
 59 60  1  0  0  0
 59 61  1  0  0  0
 59 62  1  0  0  0
 60128  1  0  0  0
 60129  1  0  0  0
 60130  1  0  0  0
 61131  1  0  0  0
 61132  1  0  0  0
 61133  1  0  0  0
 62134  1  0  0  0
 62135  1  0  0  0
 62136  1  0  0  0
 63 65  1  0  0  0
 63137  1  0  0  0
 63138  1  0  0  0
 63139  1  0  0  0
 64140  1  0  0  0
 65141  1  0  0  0
 68 77  1  0  0  0
 71 72  2  0  0  0
 71 80  1  0  0  0
 71142  1  0  0  0
 72 73  1  0  0  0
 72 77  1  0  0  0
 73 75  1  0  0  0
 73 81  2  0  0  0
 74 78  1  0  0  0
 74 80  2  0  0  0
 74 81  1  0  0  0
 75143  1  0  0  0
 75144  1  0  0  0
 75145  1  0  0  0
 76 82  1  0  0  0
 76146  1  0  0  0
 76147  1  0  0  0
 76148  1  0  0  0
 77149  1  0  0  0
 77150  1  0  0  0
 78 79  1  0  0  0
 78151  1  0  0  0
 78152  1  0  0  0
 79 82  1  0  0  0
 79153  1  0  0  0
 79154  1  0  0  0
M  ISO  4   1 100  68 101  77 101  82 100
M  END
> <chiral flag>
0

> <version>
0

> <s_m_source_file>
/data/baiqing/PycharmProjects/Reinvent-master-3.2/result/LINK_invent/BTK/process_docking_weight1_custom_sum_contain_oxygen_bond_distance_aromatic_linkinvent_7_9_3/rearranged_h_0057.sdf

> <i_m_source_file_index>
31

> <r_mmod_Potential_Energy-OPLS-2005>
208.51106262207

> <r_mmod_Stretch_Energy-OPLS-2005>
216.33235168457

> <r_mmod_Bend_Energy-OPLS-2005>
262.902679443359

> <r_mmod_Torsional_Energy-OPLS-2005>
302.977508544922

> <r_mmod_Improper_Torsional_Energy-OPLS-2005>
13.1537914276123

> <r_mmod_Van_der_Waal_Energy-OPLS-2005>
149.67643737793

> <r_mmod_Electrostatic_Energy-OPLS-2005>
-660.742065429688

> <r_mmod_Solvation_Energy-OPLS-2005>
-229.539047241211

> <b_mmod_Minimization_Converged-OPLS-2005>
0

> <r_mmod_RMS_Derivative-OPLS-2005>
2.51501727104187

$$$$
31
                    3D
 Structure written by MMmdl.
169177  0  0  1  0            999 V2000
  -30.7347  -14.5488   20.3472 C   0  0  0  0  0  0
  -30.4380  -12.3069   19.4282 C   0  0  0  0  0  0
  -29.4813  -12.3382   18.2142 C   0  0  0  0  0  0
  -28.0037  -12.2891   18.6513 C   0  0  0  0  0  0
  -27.6454  -13.2107   19.8497 C   0  0  2  0  0  0
  -28.7205  -13.1462   20.9566 C   0  0  0  0  0  0
  -25.2595  -13.8213   20.5862 C   0  0  0  0  0  0
  -24.1848  -13.0484   20.9346 C   0  0  0  0  0  0
  -24.6379  -11.6928   20.8816 C   0  0  0  0  0  0
  -23.9005  -10.4332   21.0466 C   0  0  0  0  0  0
  -24.3576   -9.4266   21.9222 C   0  0  0  0  0  0
  -23.6255   -8.2297   22.0746 C   0  0  0  0  0  0
  -22.4231   -8.0314   21.3543 C   0  0  0  0  0  0
  -21.9864   -9.0286   20.4629 C   0  0  0  0  0  0
  -22.7186  -10.2179   20.3083 C   0  0  0  0  0  0
  -21.6875   -6.0724   22.5247 C   0  0  0  0  0  0
  -21.4052   -6.5629   23.8191 C   0  0  0  0  0  0
  -21.3689   -5.6764   24.9155 C   0  0  0  0  0  0
  -21.6063   -4.3014   24.7192 C   0  0  0  0  0  0
  -21.8840   -3.8114   23.4292 C   0  0  0  0  0  0
  -21.9251   -4.6949   22.3368 C   0  0  0  0  0  0
  -22.7858  -13.5280   21.1905 C   0  0  0  0  0  0
  -22.1702   -4.2132   21.0938 F   0  0  0  0  0  0
  -21.5620   -3.4509   25.7735 F   0  0  0  0  0  0
  -30.0330  -13.3850   20.3375 N   0  0  0  0  0  0
  -26.3017  -12.9349   20.3486 N   0  0  0  0  0  0
  -25.9335  -11.6498   20.5906 N   0  0  0  0  0  0
  -22.0468  -12.8279   22.0449 N   0  0  0  0  0  0
  -25.4262  -15.1923   20.4207 N   0  0  0  0  0  0
  -31.9619  -14.5686   20.2330 O   0  0  0  0  0  0
  -21.6628   -6.8884   21.4219 O   0  0  0  0  0  0
  -22.3557  -14.5529   20.6639 O   0  0  0  0  0  0
  -24.6052  -31.8781   23.2150 C   0  0  0  0  0  0
  -25.9041  -32.4839   23.8391 C   0  0  1  0  0  0
  -27.2289  -27.5099   20.0977 C   0  0  0  0  0  0
  -25.6014  -33.8657   24.2305 N   0  0  0  0  0  0
  -23.3820  -30.5065   21.5474 C   0  0  2  0  0  0
  -24.8329  -28.9873   20.0950 C   0  0  0  0  0  0
  -22.7332  -29.4739   22.4971 C   0  0  0  0  0  0
  -18.0288  -28.1327   22.8454 C   0  0  0  0  0  0
  -24.1522  -36.7317   23.2610 C   0  0  0  0  0  0
  -25.8975  -30.8792   21.3405 C   0  0  0  0  0  0
  -25.9832  -29.5189   20.6867 C   0  0  0  0  0  0
  -27.1837  -28.7926   20.6817 C   0  0  0  0  0  0
  -26.0728  -26.9820   19.4878 C   0  0  0  0  0  0
  -24.8694  -27.7171   19.4909 C   0  0  0  0  0  0
  -23.5823  -29.8351   20.1614 C   0  0  0  0  0  0
  -25.4130  -36.3069   24.0270 C   0  0  1  0  0  0
  -20.5872  -28.3651   23.1305 C   0  0  2  0  0  0
  -20.6753  -26.9380   22.5415 C   0  0  0  0  0  0
  -19.5739  -26.6356   21.5192 C   0  0  0  0  0  0
  -18.1926  -26.7900   22.1598 C   0  0  0  0  0  0
  -19.1528  -28.8806   23.2901 C   0  0  0  0  0  0
  -18.9463  -30.1408   23.8893 C   0  0  0  0  0  0
  -17.6469  -30.6554   24.0585 C   0  0  0  0  0  0
  -25.9060  -34.9452   23.5048 C   0  0  0  0  0  0
  -16.5372  -29.9045   23.6312 C   0  0  0  0  0  0
  -16.7290  -28.6477   23.0326 C   0  0  0  0  0  0
  -26.4499  -31.6575   25.0692 C   0  0  0  0  0  0
  -25.3774  -31.3677   26.1440 C   0  0  0  0  0  0
  -27.0311  -30.3001   24.5995 C   0  0  0  0  0  0
  -27.6069  -32.4271   25.7493 C   0  0  0  0  0  0
  -27.5550  -37.1783   24.8456 C   0  0  0  0  0  0
  -21.4097  -29.3064   22.3737 N   0  0  0  0  0  0
  -26.4281  -37.3747   23.9383 N   0  0  0  0  0  0
  -24.6443  -31.1016   22.0929 N   0  0  0  0  0  0
  -23.4199  -28.8269   23.2955 O   0  0  0  0  0  0
  -28.3649  -26.7484   20.1595 O   0  0  0  0  0  0
  -26.5589  -34.8913   22.4566 O   0  0  0  0  0  0
  -23.5280  -32.1518   23.7603 O   0  0  0  0  0  0
  -31.1077  -17.1947   21.5899 C   0  0  0  0  0  0
  -30.8819  -19.4826   21.3757 C   0  0  0  0  0  0
  -29.8969  -19.2757   20.3861 C   0  0  0  0  0  0
  -30.2089  -16.9563   20.5068 C   0  0  0  0  0  0
  -31.3379  -20.8812   21.7800 C   0  0  0  0  0  0
  -29.8242  -15.6743   18.4345 C   0  0  0  0  0  0
  -25.9087  -22.5507   22.3898 C   0  0  0  0  0  0
  -29.0959  -20.4296   19.8017 C   0  0  0  0  0  0
  -28.0277  -20.9016   20.8090 C   0  0  0  0  0  0
  -28.7899  -25.0634   21.8538 C   0  0  0  0  0  0
  -27.6575  -22.3882   20.6526 C   0  0  0  0  0  0
  -27.3373  -24.5067   21.8844 C   0  0  0  0  0  0
  -28.8352  -26.5556   21.5000 C   0  0  0  0  0  0
  -31.4564  -18.4373   22.0142 N   0  0  0  0  0  0
  -29.5531  -18.0308   19.9766 N   0  0  0  0  0  0
  -30.0586  -15.6494   19.9064 N   0  0  0  0  0  0
  -27.2427  -23.0225   21.9340 N   0  3  1  0  0  0
  -31.4669  -12.4273   19.0760 H   0  0  0  0  0  0
  -30.4102  -11.3462   19.9491 H   0  0  0  0  0  0
  -29.6906  -11.4734   17.5860 H   0  0  0  0  0  0
  -29.6523  -13.1899   17.5654 H   0  0  0  0  0  0
  -27.8232  -11.2561   18.9409 H   0  0  0  0  0  0
  -27.3492  -12.4906   17.8003 H   0  0  0  0  0  0
  -27.6082  -14.2272   19.4705 H   0  0  0  0  0  0
  -28.7213  -12.1737   21.4537 H   0  0  0  0  0  0
  -28.5295  -13.9012   21.7211 H   0  0  0  0  0  0
  -25.2721   -9.5764   22.4815 H   0  0  0  0  0  0
  -24.0000   -7.4684   22.7409 H   0  0  0  0  0  0
  -21.0821   -8.8755   19.8877 H   0  0  0  0  0  0
  -22.3602  -10.9727   19.6188 H   0  0  0  0  0  0
  -21.2002   -7.6138   23.9687 H   0  0  0  0  0  0
  -21.1514   -6.0478   25.9060 H   0  0  0  0  0  0
  -22.0578   -2.7562   23.2763 H   0  0  0  0  0  0
  -22.3947  -11.9890   22.4894 H   0  0  0  0  0  0
  -21.1087  -13.1337   22.2600 H   0  0  0  0  0  0
  -24.6569  -15.8412   20.5419 H   0  0  0  0  0  0
  -26.2821  -15.6262   20.0998 H   0  0  0  0  0  0
  -26.7119  -32.5612   23.1175 H   0  0  0  0  0  0
  -25.0315  -33.9899   25.0545 H   0  0  0  0  0  0
  -22.6571  -31.3126   21.4063 H   0  0  0  0  0  0
  -23.3773  -35.9685   23.3313 H   0  0  0  0  0  0
  -24.3614  -36.8944   22.2021 H   0  0  0  0  0  0
  -23.7349  -37.6532   23.6676 H   0  0  0  0  0  0
  -25.9902  -31.6419   20.5643 H   0  0  0  0  0  0
  -26.7892  -30.9423   21.9536 H   0  0  0  0  0  0
  -28.0703  -29.2100   21.1382 H   0  0  0  0  0  0
  -26.0980  -25.9941   19.0472 H   0  0  0  0  0  0
  -23.9832  -27.2919   19.0406 H   0  0  0  0  0  0
  -23.6607  -30.6078   19.3970 H   0  0  0  0  0  0
  -22.7064  -29.2414   19.8884 H   0  0  0  0  0  0
  -25.1297  -36.1829   25.0758 H   0  0  0  0  0  0
  -21.0001  -28.3214   24.1423 H   0  0  0  0  0  0
  -20.5594  -26.2277   23.3626 H   0  0  0  0  0  0
  -21.6612  -26.7406   22.1192 H   0  0  0  0  0  0
  -19.6957  -25.6264   21.1216 H   0  0  0  0  0  0
  -19.6680  -27.3158   20.6704 H   0  0  0  0  0  0
  -17.4194  -26.6691   21.4011 H   0  0  0  0  0  0
  -18.0296  -26.0019   22.8937 H   0  0  0  0  0  0
  -19.7951  -30.7217   24.2260 H   0  0  0  0  0  0
  -17.5050  -31.6219   24.5179 H   0  0  0  0  0  0
  -15.5373  -30.2978   23.7615 H   0  0  0  0  0  0
  -15.8697  -28.0836   22.7014 H   0  0  0  0  0  0
  -24.5961  -30.7004   25.7787 H   0  0  0  0  0  0
  -24.8986  -32.2858   26.4840 H   0  0  0  0  0  0
  -25.8114  -30.8870   27.0215 H   0  0  0  0  0  0
  -26.2773  -29.6708   24.1225 H   0  0  0  0  0  0
  -27.4306  -29.7249   25.4368 H   0  0  0  0  0  0
  -27.8524  -30.4323   23.8946 H   0  0  0  0  0  0
  -27.2663  -33.3539   26.2111 H   0  0  0  0  0  0
  -28.3896  -32.6871   25.0365 H   0  0  0  0  0  0
  -28.0730  -31.8381   26.5403 H   0  0  0  0  0  0
  -28.2508  -38.0109   24.7434 H   0  0  0  0  0  0
  -28.1057  -36.2606   24.6301 H   0  0  0  0  0  0
  -27.2277  -37.1438   25.8864 H   0  0  0  0  0  0
  -20.9181  -29.8923   21.7109 H   0  0  0  0  0  0
  -26.0135  -38.2815   24.1416 H   0  0  0  0  0  0
  -31.6066  -16.3944   22.1118 H   0  0  0  0  0  0
  -30.5338  -21.4373   22.2637 H   0  0  0  0  0  0
  -31.6581  -21.4476   20.9029 H   0  0  0  0  0  0
  -32.1848  -20.8512   22.4609 H   0  0  0  0  0  0
  -28.8542  -15.2762   18.1620 H   0  0  0  0  0  0
  -30.5705  -15.0956   17.8883 H   0  0  0  0  0  0
  -29.8622  -16.6594   17.9726 H   0  0  0  0  0  0
  -25.8741  -21.4642   22.4719 H   0  0  0  0  0  0
  -25.1175  -22.8456   21.6979 H   0  0  0  0  0  0
  -25.6584  -22.9456   23.3745 H   0  0  0  0  0  0
  -28.6277  -20.1104   18.8707 H   0  0  0  0  0  0
  -29.7880  -21.2278   19.5374 H   0  0  0  0  0  0
  -28.4136  -20.7635   21.8234 H   0  0  0  0  0  0
  -27.1508  -20.2604   20.7442 H   0  0  0  0  0  0
  -29.4461  -24.5601   21.1495 H   0  0  0  0  0  0
  -29.2466  -24.9201   22.8300 H   0  0  0  0  0  0
  -26.8738  -22.5119   19.8997 H   0  0  0  0  0  0
  -28.5200  -22.9165   20.2560 H   0  0  0  0  0  0
  -26.7860  -24.8514   21.0129 H   0  0  0  0  0  0
  -26.8257  -24.9357   22.7483 H   0  0  0  0  0  0
  -29.8518  -26.9412   21.5644 H   0  0  0  0  0  0
  -28.2566  -27.0923   22.2577 H   0  0  0  0  0  0
  -27.8961  -22.7240   22.6462 H   0  0  0  0  0  0
  1 25  1  0  0  0
  1 30  2  0  0  0
  1 86  1  0  0  0
  2  3  1  0  0  0
  2 25  1  0  0  0
  2 88  1  0  0  0
  2 89  1  0  0  0
  3  4  1  0  0  0
  3 90  1  0  0  0
  3 91  1  0  0  0
  4  5  1  0  0  0
  4 92  1  0  0  0
  4 93  1  0  0  0
  5  6  1  0  0  0
  5 26  1  0  0  0
  5 94  1  0  0  0
  6 25  1  0  0  0
  6 95  1  0  0  0
  6 96  1  0  0  0
  7  8  2  0  0  0
  7 26  1  0  0  0
  7 29  1  0  0  0
  8  9  1  0  0  0
  8 22  1  0  0  0
  9 10  1  0  0  0
  9 27  2  0  0  0
 10 11  2  0  0  0
 10 15  1  0  0  0
 11 12  1  0  0  0
 11 97  1  0  0  0
 12 13  2  0  0  0
 12 98  1  0  0  0
 13 14  1  0  0  0
 13 31  1  0  0  0
 14 15  2  0  0  0
 14 99  1  0  0  0
 15100  1  0  0  0
 16 17  2  0  0  0
 16 21  1  0  0  0
 16 31  1  0  0  0
 17 18  1  0  0  0
 17101  1  0  0  0
 18 19  2  0  0  0
 18102  1  0  0  0
 19 20  1  0  0  0
 19 24  1  0  0  0
 20 21  2  0  0  0
 20103  1  0  0  0
 21 23  1  0  0  0
 22 28  1  0  0  0
 22 32  2  0  0  0
 26 27  1  0  0  0
 28104  1  0  0  0
 28105  1  0  0  0
 29106  1  0  0  0
 29107  1  0  0  0
 33 34  1  0  0  0
 33 66  1  0  0  0
 33 70  2  0  0  0
 34 36  1  0  0  0
 34 59  1  0  0  0
 34108  1  0  0  0
 35 44  2  0  0  0
 35 45  1  0  0  0
 35 68  1  0  0  0
 36 56  1  0  0  0
 36109  1  0  0  0
 37 39  1  0  0  0
 37 47  1  0  0  0
 37 66  1  0  0  0
 37110  1  0  0  0
 38 43  2  0  0  0
 38 46  1  0  0  0
 38 47  1  0  0  0
 39 64  1  0  0  0
 39 67  2  0  0  0
 40 52  1  0  0  0
 40 53  2  0  0  0
 40 58  1  0  0  0
 41111  1  0  0  0
 41112  1  0  0  0
 41113  1  0  0  0
 41 48  1  0  0  0
 42 43  1  0  0  0
 42 66  1  0  0  0
 42114  1  0  0  0
 42115  1  0  0  0
 43 44  1  0  0  0
 44116  1  0  0  0
 45 46  2  0  0  0
 45117  1  0  0  0
 46118  1  0  0  0
 47119  1  0  0  0
 47120  1  0  0  0
 48 56  1  0  0  0
 48 65  1  0  0  0
 48121  1  0  0  0
 49 50  1  0  0  0
 49 53  1  0  0  0
 49 64  1  0  0  0
 49122  1  0  0  0
 50 51  1  0  0  0
 50123  1  0  0  0
 50124  1  0  0  0
 51 52  1  0  0  0
 51125  1  0  0  0
 51126  1  0  0  0
 52127  1  0  0  0
 52128  1  0  0  0
 53 54  1  0  0  0
 54 55  2  0  0  0
 54129  1  0  0  0
 55 57  1  0  0  0
 55130  1  0  0  0
 56 69  2  0  0  0
 57 58  2  0  0  0
 57131  1  0  0  0
 58132  1  0  0  0
 59 60  1  0  0  0
 59 61  1  0  0  0
 59 62  1  0  0  0
 60133  1  0  0  0
 60134  1  0  0  0
 60135  1  0  0  0
 61136  1  0  0  0
 61137  1  0  0  0
 61138  1  0  0  0
 62139  1  0  0  0
 62140  1  0  0  0
 62141  1  0  0  0
 63 65  1  0  0  0
 63142  1  0  0  0
 63143  1  0  0  0
 63144  1  0  0  0
 64145  1  0  0  0
 65146  1  0  0  0
 68 83  1  0  0  0
 71 74  2  0  0  0
 71 84  1  0  0  0
 71147  1  0  0  0
 72 73  1  0  0  0
 72 75  1  0  0  0
 72 84  2  0  0  0
 73 78  1  0  0  0
 73 85  2  0  0  0
 74 85  1  0  0  0
 74 86  1  0  0  0
 75148  1  0  0  0
 75149  1  0  0  0
 75150  1  0  0  0
 76 86  1  0  0  0
 76151  1  0  0  0
 76152  1  0  0  0
 76153  1  0  0  0
 77154  1  0  0  0
 77155  1  0  0  0
 77156  1  0  0  0
 77 87  1  0  0  0
 78 79  1  0  0  0
 78157  1  0  0  0
 78158  1  0  0  0
 79 81  1  0  0  0
 79159  1  0  0  0
 79160  1  0  0  0
 80 82  1  0  0  0
 80 83  1  0  0  0
 80161  1  0  0  0
 80162  1  0  0  0
 81 87  1  0  0  0
 81163  1  0  0  0
 81164  1  0  0  0
 82 87  1  0  0  0
 82165  1  0  0  0
 82166  1  0  0  0
 83167  1  0  0  0
 83168  1  0  0  0
 87169  1  0  0  0
M  CHG  1  87   1
M  ISO  4   1 100  68 101  83 101  86 100
M  END
> <chiral flag>
0

> <version>
0

> <s_m_source_file>
/data/baiqing/PycharmProjects/Reinvent-master-3.2/result/LINK_invent/BTK/process_docking_weight1_custom_sum_contain_oxygen_bond_distance_aromatic_linkinvent_7_9_3/rearranged_h_0057.sdf

> <i_m_source_file_index>
32

> <r_mmod_Potential_Energy-OPLS-2005>
106.604469299316

> <r_mmod_Stretch_Energy-OPLS-2005>
44.2811279296875

> <r_mmod_Bend_Energy-OPLS-2005>
111.381088256836

> <r_mmod_Torsional_Energy-OPLS-2005>
329.781494140625

> <r_mmod_Improper_Torsional_Energy-OPLS-2005>
22.1632766723633

> <r_mmod_Van_der_Waal_Energy-OPLS-2005>
180.015579223633

> <r_mmod_Electrostatic_Energy-OPLS-2005>
-187.684814453125

> <r_mmod_Solvation_Energy-OPLS-2005>
-437.724334716797

> <b_mmod_Minimization_Converged-OPLS-2005>
0

> <r_mmod_RMS_Derivative-OPLS-2005>
9.07859134674072

$$$$
32
                    3D
 Structure written by MMmdl.
149157  0  0  1  0            999 V2000
  -30.3791  -15.4186   20.3428 C   0  0  0  0  0  0
  -30.4325  -12.9136   19.5642 C   0  0  0  0  0  0
  -29.5489  -12.6282   18.3218 C   0  0  0  0  0  0
  -28.1067  -12.3082   18.7470 C   0  0  0  0  0  0
  -27.6058  -13.2923   19.8335 C   0  0  2  0  0  0
  -28.6259  -13.5333   20.9683 C   0  0  0  0  0  0
  -25.2349  -13.8271   20.5824 C   0  0  0  0  0  0
  -24.1710  -13.0444   20.9302 C   0  0  0  0  0  0
  -24.6381  -11.6948   20.8775 C   0  0  0  0  0  0
  -23.9073  -10.4318   21.0413 C   0  0  0  0  0  0
  -24.3614   -9.4242   21.9204 C   0  0  0  0  0  0
  -23.6295   -8.2258   22.0761 C   0  0  0  0  0  0
  -22.4278   -8.0298   21.3541 C   0  0  0  0  0  0
  -21.9918   -9.0274   20.4637 C   0  0  0  0  0  0
  -22.7237  -10.2167   20.3064 C   0  0  0  0  0  0
  -21.6872   -6.0740   22.5262 C   0  0  0  0  0  0
  -21.4021   -6.5629   23.8204 C   0  0  0  0  0  0
  -21.3673   -5.6782   24.9161 C   0  0  0  0  0  0
  -21.6049   -4.3041   24.7214 C   0  0  0  0  0  0
  -21.8818   -3.8137   23.4325 C   0  0  0  0  0  0
  -21.9197   -4.6957   22.3390 C   0  0  0  0  0  0
  -22.7728  -13.5195   21.1945 C   0  0  0  0  0  0
  -22.1666   -4.2138   21.0974 F   0  0  0  0  0  0
  -21.5628   -3.4536   25.7731 F   0  0  0  0  0  0
  -29.8401  -14.0820   20.3350 N   0  0  0  0  0  0
  -26.2790  -12.9572   20.3279 N   0  0  0  0  0  0
  -25.9329  -11.6659   20.5723 N   0  0  0  0  0  0
  -22.0353  -12.8205   22.0482 N   0  0  0  0  0  0
  -25.3971  -15.2009   20.4272 N   0  0  0  0  0  0
  -31.5990  -15.3895   20.1115 O   0  0  0  0  0  0
  -21.6651   -6.8886   21.4232 O   0  0  0  0  0  0
  -22.3405  -14.5482   20.6751 O   0  0  0  0  0  0
  -24.6692  -31.8130   23.1612 C   0  0  0  0  0  0
  -25.9342  -32.4541   23.8079 C   0  0  1  0  0  0
  -27.2073  -26.8162   20.1850 C   0  0  0  0  0  0
  -25.5973  -33.8364   24.2008 N   0  0  0  0  0  0
  -23.4916  -30.4196   21.5131 C   0  0  2  0  0  0
  -24.9493  -28.7955   20.1056 C   0  0  0  0  0  0
  -22.7696  -29.4381   22.4737 C   0  0  0  0  0  0
  -18.0334  -28.1421   22.8478 C   0  0  0  0  0  0
  -24.1507  -36.7194   23.2644 C   0  0  0  0  0  0
  -26.0662  -30.5835   21.4116 C   0  0  0  0  0  0
  -26.1327  -29.1623   20.7568 C   0  0  0  0  0  0
  -27.2493  -28.1915   20.7792 C   0  0  0  0  0  0
  -25.9994  -26.6435   19.4679 C   0  0  0  0  0  0
  -24.9137  -27.5597   19.4427 C   0  0  0  0  0  0
  -23.7379  -29.7305   20.1422 C   0  0  0  0  0  0
  -25.4161  -36.2952   24.0277 C   0  0  1  0  0  0
  -20.5951  -28.3768   23.1189 C   0  0  2  0  0  0
  -20.6800  -26.9440   22.5423 C   0  0  0  0  0  0
  -19.5781  -26.6381   21.5230 C   0  0  0  0  0  0
  -18.1957  -26.7958   22.1623 C   0  0  0  0  0  0
  -19.1584  -28.8927   23.2816 C   0  0  0  0  0  0
  -18.9494  -30.1511   23.8854 C   0  0  0  0  0  0
  -17.6477  -30.6616   24.0551 C   0  0  0  0  0  0
  -25.9119  -34.9330   23.4973 C   0  0  0  0  0  0
  -16.5376  -29.9092   23.6334 C   0  0  0  0  0  0
  -16.7308  -28.6512   23.0365 C   0  0  0  0  0  0
  -26.4571  -31.6509   25.0625 C   0  0  0  0  0  0
  -25.3639  -31.3797   26.1222 C   0  0  0  0  0  0
  -27.0468  -30.2861   24.6422 C   0  0  0  0  0  0
  -27.6066  -32.4314   25.7435 C   0  0  0  0  0  0
  -27.5584  -37.1756   24.8466 C   0  0  0  0  0  0
  -21.4359  -29.3021   22.3491 N   0  0  0  0  0  0
  -26.4309  -37.3686   23.9384 N   0  0  0  0  0  0
  -24.7640  -30.9686   22.0815 N   0  0  0  0  0  0
  -23.4206  -28.7953   23.3013 O   0  0  0  0  0  0
  -28.1435  -25.6219   20.3223 O   0  0  0  0  0  0
  -26.5746  -34.8881   22.4582 O   0  0  0  0  0  0
  -23.5739  -32.1141   23.6644 O   0  0  0  0  0  0
  -29.0747  -19.9793   20.3016 C   0  0  0  0  0  0
  -28.4461  -22.3641   20.2475 C   0  0  0  0  0  0
  -30.0445  -18.3635   18.4981 C   0  0  0  0  0  0
  -26.1669  -21.8673   21.2319 C   0  0  0  0  0  0
  -28.0089  -24.0438   19.7130 C   0  0  0  0  0  0
  -29.8718  -18.3884   20.0266 C   0  0  2  0  0  0
  -29.4446  -21.3678   19.9069 N   0  0  0  0  0  0
  -27.8698  -20.1430   20.8655 N   0  0  0  0  0  0
  -27.5127  -21.5230   20.8059 N   0  0  0  0  0  0
  -29.6262  -16.7326   20.4065 N   0  0  0  0  0  0
  -31.4536  -13.1217   19.2413 H   0  0  0  0  0  0
  -30.5182  -12.0254   20.1899 H   0  0  0  0  0  0
  -29.9641  -11.8080   17.7334 H   0  0  0  0  0  0
  -29.5493  -13.5099   17.6787 H   0  0  0  0  0  0
  -28.0906  -11.2901   19.1368 H   0  0  0  0  0  0
  -27.4407  -12.3185   17.8865 H   0  0  0  0  0  0
  -27.5015  -14.2453   19.3132 H   0  0  0  0  0  0
  -28.8244  -12.6213   21.5322 H   0  0  0  0  0  0
  -28.2357  -14.2602   21.6845 H   0  0  0  0  0  0
  -25.2750   -9.5720   22.4795 H   0  0  0  0  0  0
  -24.0011   -7.4628   22.7472 H   0  0  0  0  0  0
  -21.0855   -8.8777   19.8938 H   0  0  0  0  0  0
  -22.3678  -10.9702   19.6175 H   0  0  0  0  0  0
  -21.2035   -7.6141   23.9697 H   0  0  0  0  0  0
  -21.1492   -6.0516   25.9059 H   0  0  0  0  0  0
  -22.0597   -2.7599   23.2830 H   0  0  0  0  0  0
  -22.3916  -11.9873   22.4922 H   0  0  0  0  0  0
  -21.0954  -13.1214   22.2634 H   0  0  0  0  0  0
  -24.6290  -15.8504   20.5576 H   0  0  0  0  0  0
  -26.2294  -15.6464   20.0647 H   0  0  0  0  0  0
  -26.7391  -32.5047   23.0759 H   0  0  0  0  0  0
  -24.9998  -33.9432   25.0071 H   0  0  0  0  0  0
  -22.8069  -31.2504   21.3336 H   0  0  0  0  0  0
  -23.3777  -35.9513   23.3296 H   0  0  0  0  0  0
  -24.3579  -36.8845   22.2058 H   0  0  0  0  0  0
  -23.7257  -37.6375   23.6714 H   0  0  0  0  0  0
  -26.2527  -31.3165   20.6241 H   0  0  0  0  0  0
  -26.9254  -30.6523   22.0671 H   0  0  0  0  0  0
  -28.1344  -28.4664   21.3362 H   0  0  0  0  0  0
  -25.8257  -25.7101   18.9566 H   0  0  0  0  0  0
  -24.0143  -27.2736   18.9134 H   0  0  0  0  0  0
  -23.8919  -30.4917   19.3772 H   0  0  0  0  0  0
  -22.8490  -29.1801   19.8318 H   0  0  0  0  0  0
  -25.1368  -36.1742   25.0766 H   0  0  0  0  0  0
  -21.0047  -28.3393   24.1305 H   0  0  0  0  0  0
  -20.5703  -26.2358   23.3656 H   0  0  0  0  0  0
  -21.6652  -26.7392   22.1212 H   0  0  0  0  0  0
  -19.6919  -25.6281   21.1289 H   0  0  0  0  0  0
  -19.6753  -27.3155   20.6737 H   0  0  0  0  0  0
  -17.4227  -26.6701   21.4030 H   0  0  0  0  0  0
  -18.0352  -26.0126   22.9052 H   0  0  0  0  0  0
  -19.7965  -30.7340   24.2214 H   0  0  0  0  0  0
  -17.5030  -31.6293   24.5148 H   0  0  0  0  0  0
  -15.5373  -30.2981   23.7706 H   0  0  0  0  0  0
  -15.8704  -28.0820   22.7117 H   0  0  0  0  0  0
  -24.5888  -30.7101   25.7473 H   0  0  0  0  0  0
  -24.8742  -32.3006   26.4400 H   0  0  0  0  0  0
  -25.7778  -30.9093   27.0139 H   0  0  0  0  0  0
  -26.3135  -29.6517   24.1428 H   0  0  0  0  0  0
  -27.3955  -29.7261   25.5102 H   0  0  0  0  0  0
  -27.9092  -30.4006   23.9858 H   0  0  0  0  0  0
  -27.2659  -33.3675   26.1865 H   0  0  0  0  0  0
  -28.3948  -32.6770   25.0304 H   0  0  0  0  0  0
  -28.0646  -31.8512   26.5447 H   0  0  0  0  0  0
  -28.2586  -38.0073   24.7508 H   0  0  0  0  0  0
  -28.1102  -36.2587   24.6319 H   0  0  0  0  0  0
  -27.2278  -37.1406   25.8867 H   0  0  0  0  0  0
  -20.9619  -29.8687   21.6594 H   0  0  0  0  0  0
  -26.0154  -38.2736   24.1396 H   0  0  0  0  0  0
  -30.7213  -17.5748   18.1698 H   0  0  0  0  0  0
  -30.4499  -19.3090   18.1320 H   0  0  0  0  0  0
  -29.0870  -18.2090   18.0016 H   0  0  0  0  0  0
  -25.7171  -21.0493   21.7975 H   0  0  0  0  0  0
  -25.5438  -22.0543   20.3562 H   0  0  0  0  0  0
  -26.1836  -22.7594   21.8587 H   0  0  0  0  0  0
  -26.9567  -23.9449   19.4506 H   0  0  0  0  0  0
  -28.4938  -24.1361   18.7421 H   0  0  0  0  0  0
  -30.8711  -18.5395   20.4361 H   0  0  0  0  0  0
  -28.6583  -16.5793   20.6503 H   0  0  0  0  0  0
  1 25  1  0  0  0
  1 30  2  0  0  0
  1 80  1  0  0  0
  2  3  1  0  0  0
  2 25  1  0  0  0
  2 81  1  0  0  0
  2 82  1  0  0  0
  3  4  1  0  0  0
  3 83  1  0  0  0
  3 84  1  0  0  0
  4  5  1  0  0  0
  4 85  1  0  0  0
  4 86  1  0  0  0
  5  6  1  0  0  0
  5 26  1  0  0  0
  5 87  1  0  0  0
  6 25  1  0  0  0
  6 88  1  0  0  0
  6 89  1  0  0  0
  7  8  2  0  0  0
  7 26  1  0  0  0
  7 29  1  0  0  0
  8  9  1  0  0  0
  8 22  1  0  0  0
  9 10  1  0  0  0
  9 27  2  0  0  0
 10 11  2  0  0  0
 10 15  1  0  0  0
 11 12  1  0  0  0
 11 90  1  0  0  0
 12 13  2  0  0  0
 12 91  1  0  0  0
 13 14  1  0  0  0
 13 31  1  0  0  0
 14 15  2  0  0  0
 14 92  1  0  0  0
 15 93  1  0  0  0
 16 17  2  0  0  0
 16 21  1  0  0  0
 16 31  1  0  0  0
 17 18  1  0  0  0
 17 94  1  0  0  0
 18 19  2  0  0  0
 18 95  1  0  0  0
 19 20  1  0  0  0
 19 24  1  0  0  0
 20 21  2  0  0  0
 20 96  1  0  0  0
 21 23  1  0  0  0
 22 28  1  0  0  0
 22 32  2  0  0  0
 26 27  1  0  0  0
 28 97  1  0  0  0
 28 98  1  0  0  0
 29 99  1  0  0  0
 29100  1  0  0  0
 33 34  1  0  0  0
 33 66  1  0  0  0
 33 70  2  0  0  0
 34 36  1  0  0  0
 34 59  1  0  0  0
 34101  1  0  0  0
 35 44  2  0  0  0
 35 45  1  0  0  0
 35 68  1  0  0  0
 36 56  1  0  0  0
 36102  1  0  0  0
 37 39  1  0  0  0
 37 47  1  0  0  0
 37 66  1  0  0  0
 37103  1  0  0  0
 38 43  2  0  0  0
 38 46  1  0  0  0
 38 47  1  0  0  0
 39 64  1  0  0  0
 39 67  2  0  0  0
 40 52  1  0  0  0
 40 53  2  0  0  0
 40 58  1  0  0  0
 41104  1  0  0  0
 41105  1  0  0  0
 41106  1  0  0  0
 41 48  1  0  0  0
 42 43  1  0  0  0
 42 66  1  0  0  0
 42107  1  0  0  0
 42108  1  0  0  0
 43 44  1  0  0  0
 44109  1  0  0  0
 45 46  2  0  0  0
 45110  1  0  0  0
 46111  1  0  0  0
 47112  1  0  0  0
 47113  1  0  0  0
 48 56  1  0  0  0
 48 65  1  0  0  0
 48114  1  0  0  0
 49 50  1  0  0  0
 49 53  1  0  0  0
 49 64  1  0  0  0
 49115  1  0  0  0
 50 51  1  0  0  0
 50116  1  0  0  0
 50117  1  0  0  0
 51 52  1  0  0  0
 51118  1  0  0  0
 51119  1  0  0  0
 52120  1  0  0  0
 52121  1  0  0  0
 53 54  1  0  0  0
 54 55  2  0  0  0
 54122  1  0  0  0
 55 57  1  0  0  0
 55123  1  0  0  0
 56 69  2  0  0  0
 57 58  2  0  0  0
 57124  1  0  0  0
 58125  1  0  0  0
 59 60  1  0  0  0
 59 61  1  0  0  0
 59 62  1  0  0  0
 60126  1  0  0  0
 60127  1  0  0  0
 60128  1  0  0  0
 61129  1  0  0  0
 61130  1  0  0  0
 61131  1  0  0  0
 62132  1  0  0  0
 62133  1  0  0  0
 62134  1  0  0  0
 63 65  1  0  0  0
 63135  1  0  0  0
 63136  1  0  0  0
 63137  1  0  0  0
 64138  1  0  0  0
 65139  1  0  0  0
 68 75  1  0  0  0
 71 76  1  0  0  0
 71 77  1  0  0  0
 71 78  2  0  0  0
 72 75  1  0  0  0
 72 77  2  0  0  0
 72 79  1  0  0  0
 73140  1  0  0  0
 73141  1  0  0  0
 73142  1  0  0  0
 73 76  1  0  0  0
 74 79  1  0  0  0
 74143  1  0  0  0
 74144  1  0  0  0
 74145  1  0  0  0
 75146  1  0  0  0
 75147  1  0  0  0
 76 80  1  0  0  0
 76148  1  0  0  0
 78 79  1  0  0  0
 80149  1  0  0  0
M  ISO  4   1 100  68 101  75 101  80 100
M  END
> <chiral flag>
0

> <version>
0

> <s_m_source_file>
/data/baiqing/PycharmProjects/Reinvent-master-3.2/result/LINK_invent/BTK/process_docking_weight1_custom_sum_contain_oxygen_bond_distance_aromatic_linkinvent_7_9_3/rearranged_h_0057.sdf

> <i_m_source_file_index>
33

> <r_mmod_Potential_Energy-OPLS-2005>
1614.1064453125

> <r_mmod_Stretch_Energy-OPLS-2005>
757.576721191406

> <r_mmod_Bend_Energy-OPLS-2005>
562.798889160156

> <r_mmod_Torsional_Energy-OPLS-2005>
206.041595458984

> <r_mmod_Improper_Torsional_Energy-OPLS-2005>
7.90253686904907

> <r_mmod_Van_der_Waal_Energy-OPLS-2005>
108.091758728027

> <r_mmod_Electrostatic_Energy-OPLS-2005>
-435.090240478516

> <r_mmod_Solvation_Energy-OPLS-2005>
-240.216659545898

> <b_mmod_Minimization_Converged-OPLS-2005>
0

> <r_mmod_RMS_Derivative-OPLS-2005>
3.98602223396301

$$$$
33
                    3D
 Structure written by MMmdl.
159167  0  0  1  0            999 V2000
  -30.7218  -14.5887   20.5333 C   0  0  0  0  0  0
  -30.4138  -12.3833   19.4699 C   0  0  0  0  0  0
  -29.4948  -12.4959   18.2398 C   0  0  0  0  0  0
  -28.0247  -12.3261   18.6615 C   0  0  0  0  0  0
  -27.6462  -13.2227   19.8703 C   0  0  2  0  0  0
  -28.6913  -13.1156   21.0017 C   0  0  0  0  0  0
  -25.2521  -13.8192   20.5726 C   0  0  0  0  0  0
  -24.1789  -13.0428   20.9222 C   0  0  0  0  0  0
  -24.6397  -11.6913   20.8790 C   0  0  0  0  0  0
  -23.9064  -10.4272   21.0425 C   0  0  0  0  0  0
  -24.3617   -9.4193   21.9193 C   0  0  0  0  0  0
  -23.6289   -8.2239   22.0775 C   0  0  0  0  0  0
  -22.4272   -8.0295   21.3556 C   0  0  0  0  0  0
  -21.9904   -9.0258   20.4647 C   0  0  0  0  0  0
  -22.7245  -10.2128   20.3066 C   0  0  0  0  0  0
  -21.6853   -6.0737   22.5259 C   0  0  0  0  0  0
  -21.4027   -6.5637   23.8192 C   0  0  0  0  0  0
  -21.3640   -5.6787   24.9139 C   0  0  0  0  0  0
  -21.6046   -4.3057   24.7191 C   0  0  0  0  0  0
  -21.8837   -3.8152   23.4314 C   0  0  0  0  0  0
  -21.9192   -4.6965   22.3369 C   0  0  0  0  0  0
  -22.7806  -13.5227   21.1803 C   0  0  0  0  0  0
  -22.1674   -4.2155   21.0953 F   0  0  0  0  0  0
  -21.5600   -3.4545   25.7701 F   0  0  0  0  0  0
  -29.9892  -13.4421   20.4095 N   0  0  0  0  0  0
  -26.2945  -12.9399   20.3398 N   0  0  0  0  0  0
  -25.9327  -11.6538   20.5861 N   0  0  0  0  0  0
  -22.0434  -12.8211   22.0370 N   0  0  0  0  0  0
  -25.4162  -15.1895   20.4092 N   0  0  0  0  0  0
  -31.9118  -14.6054   20.2362 O   0  0  0  0  0  0
  -21.6659   -6.8887   21.4231 O   0  0  0  0  0  0
  -22.3475  -14.5468   20.6574 O   0  0  0  0  0  0
  -24.6311  -31.8564   23.2026 C   0  0  0  0  0  0
  -25.9118  -32.4794   23.8367 C   0  0  1  0  0  0
  -27.2077  -27.3190   20.1295 C   0  0  0  0  0  0
  -25.5887  -33.8601   24.2253 N   0  0  0  0  0  0
  -23.4255  -30.4834   21.5414 C   0  0  2  0  0  0
  -24.8641  -28.9320   20.1143 C   0  0  0  0  0  0
  -22.7515  -29.4605   22.4850 C   0  0  0  0  0  0
  -18.0330  -28.1473   22.8470 C   0  0  0  0  0  0
  -24.1441  -36.7344   23.2633 C   0  0  0  0  0  0
  -25.9642  -30.7912   21.3636 C   0  0  0  0  0  0
  -26.0338  -29.4134   20.7154 C   0  0  0  0  0  0
  -27.2171  -28.6272   20.6963 C   0  0  0  0  0  0
  -26.0215  -26.8697   19.5189 C   0  0  0  0  0  0
  -24.8578  -27.6667   19.5015 C   0  0  0  0  0  0
  -23.6441  -29.8293   20.1517 C   0  0  0  0  0  0
  -25.4072  -36.3091   24.0298 C   0  0  1  0  0  0
  -20.5933  -28.3772   23.1256 C   0  0  2  0  0  0
  -20.6845  -26.9483   22.5408 C   0  0  0  0  0  0
  -19.5812  -26.6401   21.5255 C   0  0  0  0  0  0
  -18.1989  -26.8006   22.1634 C   0  0  0  0  0  0
  -19.1586  -28.8928   23.2860 C   0  0  0  0  0  0
  -18.9492  -30.1524   23.8880 C   0  0  0  0  0  0
  -17.6489  -30.6637   24.0605 C   0  0  0  0  0  0
  -25.9009  -34.9467   23.5066 C   0  0  0  0  0  0
  -16.5378  -29.9164   23.6326 C   0  0  0  0  0  0
  -16.7308  -28.6610   23.0284 C   0  0  0  0  0  0
  -26.4485  -31.6669   25.0767 C   0  0  0  0  0  0
  -25.3711  -31.3829   26.1495 C   0  0  0  0  0  0
  -27.0374  -30.3122   24.6221 C   0  0  0  0  0  0
  -27.5983  -32.4472   25.7557 C   0  0  0  0  0  0
  -27.5553  -37.1820   24.8445 C   0  0  0  0  0  0
  -21.4225  -29.3090   22.3614 N   0  0  0  0  0  0
  -26.4243  -37.3788   23.9403 N   0  0  0  0  0  0
  -24.6944  -31.0576   22.0962 N   0  0  0  0  0  0
  -23.4222  -28.8101   23.2923 O   0  0  0  0  0  0
  -28.3362  -26.5105   20.0884 O   0  0  0  0  0  0
  -26.5600  -34.8907   22.4652 O   0  0  0  0  0  0
  -23.5460  -32.1364   23.7320 O   0  0  0  0  0  0
  -27.5706  -20.9460   22.1079 C   0  0  0  0  0  0
  -29.0011  -20.0075   20.7599 C   0  0  0  0  0  0
  -28.4243  -21.2494   20.9979 C   0  0  0  0  0  0
  -30.7334  -17.9882   22.2783 C   0  0  0  0  0  0
  -28.6747  -17.2009   23.4350 C   0  0  0  0  0  0
  -28.7580  -22.5776   20.2316 C   0  0  0  0  0  0
  -27.8267  -23.8760   20.2367 C   0  0  0  0  0  0
  -28.9448  -16.5429   21.0326 C   0  0  0  0  0  0
  -28.3746  -25.2447   20.8429 C   0  0  0  0  0  0
  -29.2177  -17.7220   22.0745 C   0  0  0  0  0  0
  -27.6836  -19.6770   22.5259 N   0  0  0  0  0  0
  -28.6159  -19.0756   21.7310 N   0  0  0  0  0  0
  -30.1501  -15.8274   20.5394 N   0  0  0  0  0  0
  -31.4586  -12.4702   19.1631 H   0  0  0  0  0  0
  -30.3298  -11.4027   19.9447 H   0  0  0  0  0  0
  -29.7670  -11.7456   17.4960 H   0  0  0  0  0  0
  -29.6291  -13.4685   17.7655 H   0  0  0  0  0  0
  -27.8824  -11.2758   18.9311 H   0  0  0  0  0  0
  -27.3624  -12.5209   17.8186 H   0  0  0  0  0  0
  -27.6597  -14.2497   19.5067 H   0  0  0  0  0  0
  -28.7103  -12.1108   21.4235 H   0  0  0  0  0  0
  -28.4612  -13.7738   21.8391 H   0  0  0  0  0  0
  -25.2758   -9.5650   22.4760 H   0  0  0  0  0  0
  -23.9967   -7.4639   22.7505 H   0  0  0  0  0  0
  -21.0834   -8.8773   19.8959 H   0  0  0  0  0  0
  -22.3712  -10.9658   19.6174 H   0  0  0  0  0  0
  -21.2083   -7.6156   23.9676 H   0  0  0  0  0  0
  -21.1423   -6.0532   25.9028 H   0  0  0  0  0  0
  -22.0646   -2.7623   23.2808 H   0  0  0  0  0  0
  -22.4059  -11.9895   22.4761 H   0  0  0  0  0  0
  -21.1032  -13.1204   22.2468 H   0  0  0  0  0  0
  -24.6509  -15.8431   20.5336 H   0  0  0  0  0  0
  -26.2373  -15.6173   20.0029 H   0  0  0  0  0  0
  -26.7195  -32.5425   23.1123 H   0  0  0  0  0  0
  -25.0102  -33.9786   25.0437 H   0  0  0  0  0  0
  -22.7225  -31.3074   21.4035 H   0  0  0  0  0  0
  -23.3676  -35.9701   23.3312 H   0  0  0  0  0  0
  -24.3511  -36.8994   22.2046 H   0  0  0  0  0  0
  -23.7241  -37.6545   23.6702 H   0  0  0  0  0  0
  -26.0797  -31.5390   20.5775 H   0  0  0  0  0  0
  -26.8565  -30.8570   21.9766 H   0  0  0  0  0  0
  -28.1344  -29.0054   21.1279 H   0  0  0  0  0  0
  -25.9914  -25.9003   19.0423 H   0  0  0  0  0  0
  -23.9660  -27.3000   19.0100 H   0  0  0  0  0  0
  -23.7933  -30.6203   19.4146 H   0  0  0  0  0  0
  -22.7584  -29.2828   19.8244 H   0  0  0  0  0  0
  -25.1255  -36.1925   25.0785 H   0  0  0  0  0  0
  -21.0043  -28.3407   24.1373 H   0  0  0  0  0  0
  -20.5888  -26.2382   23.3641 H   0  0  0  0  0  0
  -21.6713  -26.7598   22.1132 H   0  0  0  0  0  0
  -19.6985  -25.6291   21.1380 H   0  0  0  0  0  0
  -19.6783  -27.3138   20.6748 H   0  0  0  0  0  0
  -17.4268  -26.6737   21.4012 H   0  0  0  0  0  0
  -18.0345  -26.0166   22.9047 H   0  0  0  0  0  0
  -19.7945  -30.7365   24.2230 H   0  0  0  0  0  0
  -17.5045  -31.6319   24.5240 H   0  0  0  0  0  0
  -15.5398  -30.3092   23.7662 H   0  0  0  0  0  0
  -15.8702  -28.1006   22.6908 H   0  0  0  0  0  0
  -24.5796  -30.7258   25.7876 H   0  0  0  0  0  0
  -24.8986  -32.3009   26.4995 H   0  0  0  0  0  0
  -25.7990  -30.8976   27.0274 H   0  0  0  0  0  0
  -26.2971  -29.6850   24.1223 H   0  0  0  0  0  0
  -27.4119  -29.7385   25.4717 H   0  0  0  0  0  0
  -27.8801  -30.4505   23.9435 H   0  0  0  0  0  0
  -27.2529  -33.3769   26.2104 H   0  0  0  0  0  0
  -28.3803  -32.7083   25.0413 H   0  0  0  0  0  0
  -28.0651  -31.8674   26.5529 H   0  0  0  0  0  0
  -28.2533  -38.0155   24.7517 H   0  0  0  0  0  0
  -28.1077  -36.2678   24.6226 H   0  0  0  0  0  0
  -27.2285  -37.1451   25.8850 H   0  0  0  0  0  0
  -20.9407  -29.8838   21.6834 H   0  0  0  0  0  0
  -26.0114  -38.2832   24.1464 H   0  0  0  0  0  0
  -26.9063  -21.5980   22.6658 H   0  0  0  0  0  0
  -29.7383  -19.7285   20.0211 H   0  0  0  0  0  0
  -31.2958  -17.0985   22.5643 H   0  0  0  0  0  0
  -30.8872  -18.7206   23.0755 H   0  0  0  0  0  0
  -31.2006  -18.3942   21.3798 H   0  0  0  0  0  0
  -29.0802  -16.2176   23.6808 H   0  0  0  0  0  0
  -27.5884  -17.0970   23.4312 H   0  0  0  0  0  0
  -28.9418  -17.8643   24.2605 H   0  0  0  0  0  0
  -28.8398  -22.2998   19.1764 H   0  0  0  0  0  0
  -29.7793  -22.8806   20.4739 H   0  0  0  0  0  0
  -26.8248  -23.6501   20.6026 H   0  0  0  0  0  0
  -27.6632  -24.0961   19.1840 H   0  0  0  0  0  0
  -28.4554  -16.9639   20.1562 H   0  0  0  0  0  0
  -28.2205  -15.8353   21.4326 H   0  0  0  0  0  0
  -29.4397  -25.1107   21.0245 H   0  0  0  0  0  0
  -27.9507  -25.4037   21.8340 H   0  0  0  0  0  0
  -30.8700  -16.4902   20.2943 H   0  0  0  0  0  0
  1 25  1  0  0  0
  1 30  2  0  0  0
  1 83  1  0  0  0
  2  3  1  0  0  0
  2 25  1  0  0  0
  2 84  1  0  0  0
  2 85  1  0  0  0
  3  4  1  0  0  0
  3 86  1  0  0  0
  3 87  1  0  0  0
  4  5  1  0  0  0
  4 88  1  0  0  0
  4 89  1  0  0  0
  5  6  1  0  0  0
  5 26  1  0  0  0
  5 90  1  0  0  0
  6 25  1  0  0  0
  6 91  1  0  0  0
  6 92  1  0  0  0
  7  8  2  0  0  0
  7 26  1  0  0  0
  7 29  1  0  0  0
  8  9  1  0  0  0
  8 22  1  0  0  0
  9 10  1  0  0  0
  9 27  2  0  0  0
 10 11  2  0  0  0
 10 15  1  0  0  0
 11 12  1  0  0  0
 11 93  1  0  0  0
 12 13  2  0  0  0
 12 94  1  0  0  0
 13 14  1  0  0  0
 13 31  1  0  0  0
 14 15  2  0  0  0
 14 95  1  0  0  0
 15 96  1  0  0  0
 16 17  2  0  0  0
 16 21  1  0  0  0
 16 31  1  0  0  0
 17 18  1  0  0  0
 17 97  1  0  0  0
 18 19  2  0  0  0
 18 98  1  0  0  0
 19 20  1  0  0  0
 19 24  1  0  0  0
 20 21  2  0  0  0
 20 99  1  0  0  0
 21 23  1  0  0  0
 22 28  1  0  0  0
 22 32  2  0  0  0
 26 27  1  0  0  0
 28100  1  0  0  0
 28101  1  0  0  0
 29102  1  0  0  0
 29103  1  0  0  0
 33 34  1  0  0  0
 33 66  1  0  0  0
 33 70  2  0  0  0
 34 36  1  0  0  0
 34 59  1  0  0  0
 34104  1  0  0  0
 35 44  2  0  0  0
 35 45  1  0  0  0
 35 68  1  0  0  0
 36 56  1  0  0  0
 36105  1  0  0  0
 37 39  1  0  0  0
 37 47  1  0  0  0
 37 66  1  0  0  0
 37106  1  0  0  0
 38 43  2  0  0  0
 38 46  1  0  0  0
 38 47  1  0  0  0
 39 64  1  0  0  0
 39 67  2  0  0  0
 40 52  1  0  0  0
 40 53  2  0  0  0
 40 58  1  0  0  0
 41107  1  0  0  0
 41108  1  0  0  0
 41109  1  0  0  0
 41 48  1  0  0  0
 42 43  1  0  0  0
 42 66  1  0  0  0
 42110  1  0  0  0
 42111  1  0  0  0
 43 44  1  0  0  0
 44112  1  0  0  0
 45 46  2  0  0  0
 45113  1  0  0  0
 46114  1  0  0  0
 47115  1  0  0  0
 47116  1  0  0  0
 48 56  1  0  0  0
 48 65  1  0  0  0
 48117  1  0  0  0
 49 50  1  0  0  0
 49 53  1  0  0  0
 49 64  1  0  0  0
 49118  1  0  0  0
 50 51  1  0  0  0
 50119  1  0  0  0
 50120  1  0  0  0
 51 52  1  0  0  0
 51121  1  0  0  0
 51122  1  0  0  0
 52123  1  0  0  0
 52124  1  0  0  0
 53 54  1  0  0  0
 54 55  2  0  0  0
 54125  1  0  0  0
 55 57  1  0  0  0
 55126  1  0  0  0
 56 69  2  0  0  0
 57 58  2  0  0  0
 57127  1  0  0  0
 58128  1  0  0  0
 59 60  1  0  0  0
 59 61  1  0  0  0
 59 62  1  0  0  0
 60129  1  0  0  0
 60130  1  0  0  0
 60131  1  0  0  0
 61132  1  0  0  0
 61133  1  0  0  0
 61134  1  0  0  0
 62135  1  0  0  0
 62136  1  0  0  0
 62137  1  0  0  0
 63 65  1  0  0  0
 63138  1  0  0  0
 63139  1  0  0  0
 63140  1  0  0  0
 64141  1  0  0  0
 65142  1  0  0  0
 68 79  1  0  0  0
 71 73  1  0  0  0
 71 81  2  0  0  0
 71143  1  0  0  0
 72 73  2  0  0  0
 72 82  1  0  0  0
 72144  1  0  0  0
 73 76  1  0  0  0
 74145  1  0  0  0
 74146  1  0  0  0
 74147  1  0  0  0
 74 80  1  0  0  0
 75 80  1  0  0  0
 75148  1  0  0  0
 75149  1  0  0  0
 75150  1  0  0  0
 76 77  1  0  0  0
 76151  1  0  0  0
 76152  1  0  0  0
 77 79  1  0  0  0
 77153  1  0  0  0
 77154  1  0  0  0
 78 80  1  0  0  0
 78 83  1  0  0  0
 78155  1  0  0  0
 78156  1  0  0  0
 79157  1  0  0  0
 79158  1  0  0  0
 80 82  1  0  0  0
 81 82  1  0  0  0
 83159  1  0  0  0
M  ISO  4   1 100  68 101  79 101  83 100
M  END
> <chiral flag>
0

> <version>
0

> <s_m_source_file>
/data/baiqing/PycharmProjects/Reinvent-master-3.2/result/LINK_invent/BTK/process_docking_weight1_custom_sum_contain_oxygen_bond_distance_aromatic_linkinvent_7_9_3/rearranged_h_0057.sdf

> <i_m_source_file_index>
34

> <r_mmod_Potential_Energy-OPLS-2005>
170.013198852539

> <r_mmod_Stretch_Energy-OPLS-2005>
75.7245712280273

> <r_mmod_Bend_Energy-OPLS-2005>
212.477447509766

> <r_mmod_Torsional_Energy-OPLS-2005>
337.735900878906

> <r_mmod_Improper_Torsional_Energy-OPLS-2005>
14.9208211898804

> <r_mmod_Van_der_Waal_Energy-OPLS-2005>
118.075386047363

> <r_mmod_Electrostatic_Energy-OPLS-2005>
-427.296905517578

> <r_mmod_Solvation_Energy-OPLS-2005>
-209.167694091797

> <b_mmod_Minimization_Converged-OPLS-2005>
0

> <r_mmod_RMS_Derivative-OPLS-2005>
6.07114458084106

$$$$
34
                    3D
 Structure written by MMmdl.
159167  0  0  1  0            999 V2000
  -30.5084  -15.0247   20.4841 C   0  0  0  0  0  0
  -30.4447  -12.6588   19.5077 C   0  0  0  0  0  0
  -29.5266  -12.5650   18.2629 C   0  0  0  0  0  0
  -28.0603  -12.3262   18.6701 C   0  0  0  0  0  0
  -27.6299  -13.2442   19.8405 C   0  0  2  0  0  0
  -28.6642  -13.2417   20.9806 C   0  0  0  0  0  0
  -25.2468  -13.8187   20.5691 C   0  0  0  0  0  0
  -24.1772  -13.0425   20.9182 C   0  0  0  0  0  0
  -24.6380  -11.6904   20.8725 C   0  0  0  0  0  0
  -23.9066  -10.4285   21.0391 C   0  0  0  0  0  0
  -24.3616   -9.4207   21.9170 C   0  0  0  0  0  0
  -23.6283   -8.2251   22.0760 C   0  0  0  0  0  0
  -22.4268   -8.0284   21.3548 C   0  0  0  0  0  0
  -21.9905   -9.0257   20.4655 C   0  0  0  0  0  0
  -22.7240  -10.2124   20.3045 C   0  0  0  0  0  0
  -21.6868   -6.0725   22.5275 C   0  0  0  0  0  0
  -21.4022   -6.5622   23.8208 C   0  0  0  0  0  0
  -21.3660   -5.6771   24.9168 C   0  0  0  0  0  0
  -21.6056   -4.3037   24.7220 C   0  0  0  0  0  0
  -21.8821   -3.8129   23.4340 C   0  0  0  0  0  0
  -21.9197   -4.6950   22.3400 C   0  0  0  0  0  0
  -22.7805  -13.5222   21.1847 C   0  0  0  0  0  0
  -22.1664   -4.2133   21.0980 F   0  0  0  0  0  0
  -21.5644   -3.4527   25.7740 F   0  0  0  0  0  0
  -29.9289  -13.7410   20.4120 N   0  0  0  0  0  0
  -26.2870  -12.9403   20.3190 N   0  0  0  0  0  0
  -25.9312  -11.6533   20.5688 N   0  0  0  0  0  0
  -22.0455  -12.8234   22.0414 N   0  0  0  0  0  0
  -25.4164  -15.1922   20.4199 N   0  0  0  0  0  0
  -31.6703  -15.0959   20.0631 O   0  0  0  0  0  0
  -21.6647   -6.8868   21.4234 O   0  0  0  0  0  0
  -22.3509  -14.5537   20.6693 O   0  0  0  0  0  0
  -24.6467  -31.8405   23.1798 C   0  0  0  0  0  0
  -25.9234  -32.4667   23.8213 C   0  0  1  0  0  0
  -27.2204  -27.0781   20.1807 C   0  0  0  0  0  0
  -25.5960  -33.8470   24.2157 N   0  0  0  0  0  0
  -23.4549  -30.4514   21.5286 C   0  0  2  0  0  0
  -24.9072  -28.8581   20.1191 C   0  0  0  0  0  0
  -22.7603  -29.4519   22.4862 C   0  0  0  0  0  0
  -18.0326  -28.1392   22.8463 C   0  0  0  0  0  0
  -24.1486  -36.7249   23.2636 C   0  0  0  0  0  0
  -26.0118  -30.6933   21.3860 C   0  0  0  0  0  0
  -26.0852  -29.2950   20.7380 C   0  0  0  0  0  0
  -27.2446  -28.4239   20.7454 C   0  0  0  0  0  0
  -26.0168  -26.7495   19.5237 C   0  0  0  0  0  0
  -24.8860  -27.5995   19.4952 C   0  0  0  0  0  0
  -23.6875  -29.7693   20.1530 C   0  0  0  0  0  0
  -25.4117  -36.3019   24.0316 C   0  0  1  0  0  0
  -20.5939  -28.3707   23.1227 C   0  0  2  0  0  0
  -20.6807  -26.9438   22.5333 C   0  0  0  0  0  0
  -19.5786  -26.6447   21.5127 C   0  0  0  0  0  0
  -18.1962  -26.7962   22.1538 C   0  0  0  0  0  0
  -19.1578  -28.8856   23.2855 C   0  0  0  0  0  0
  -18.9498  -30.1443   23.8904 C   0  0  0  0  0  0
  -17.6488  -30.6554   24.0579 C   0  0  0  0  0  0
  -25.9080  -34.9394   23.5053 C   0  0  0  0  0  0
  -16.5378  -29.9063   23.6331 C   0  0  0  0  0  0
  -16.7302  -28.6485   23.0341 C   0  0  0  0  0  0
  -26.4537  -31.6544   25.0684 C   0  0  0  0  0  0
  -25.3718  -31.3771   26.1385 C   0  0  0  0  0  0
  -27.0400  -30.2923   24.6313 C   0  0  0  0  0  0
  -27.6055  -32.4310   25.7494 C   0  0  0  0  0  0
  -27.5580  -37.1785   24.8469 C   0  0  0  0  0  0
  -21.4287  -29.3068   22.3634 N   0  0  0  0  0  0
  -26.4279  -37.3738   23.9420 N   0  0  0  0  0  0
  -24.7249  -31.0180   22.0868 N   0  0  0  0  0  0
  -23.4214  -28.8079   23.3044 O   0  0  0  0  0  0
  -28.2778  -26.0818   20.1953 O   0  0  0  0  0  0
  -26.5658  -34.8909   22.4630 O   0  0  0  0  0  0
  -23.5575  -32.1317   23.6986 O   0  0  0  0  0  0
  -27.9988  -20.3030   22.2324 C   0  0  0  0  0  0
  -29.2325  -19.1954   20.6915 C   0  0  0  0  0  0
  -28.7716  -21.5973   20.5611 C   0  0  0  0  0  0
  -27.2157  -20.2200   23.5254 C   0  0  0  0  0  0
  -28.3497  -23.0729   18.4828 C   0  0  0  0  0  0
  -30.3712  -23.5162   19.9079 C   0  0  0  0  0  0
  -29.1842  -16.2346   22.1549 C   0  0  0  0  0  0
  -29.9355  -17.7313   20.2281 C   0  0  0  0  0  0
  -28.0762  -24.5493   20.5523 C   0  0  0  0  0  0
  -28.8758  -23.1558   19.9257 C   0  0  0  0  0  0
  -28.5093  -19.1497   21.8012 N   0  0  0  0  0  0
  -28.0853  -21.5184   21.6895 N   0  0  0  0  0  0
  -29.3806  -20.4354   20.0331 N   0  0  0  0  0  0
  -29.7733  -16.2291   20.8099 N   0  0  0  0  0  0
  -31.4705  -12.8429   19.1849 H   0  0  0  0  0  0
  -30.4791  -11.7033   20.0315 H   0  0  0  0  0  0
  -29.8643  -11.7676   17.6001 H   0  0  0  0  0  0
  -29.5980  -13.4877   17.6842 H   0  0  0  0  0  0
  -27.9664  -11.2822   18.9690 H   0  0  0  0  0  0
  -27.3949  -12.4575   17.8156 H   0  0  0  0  0  0
  -27.6040  -14.2546   19.4338 H   0  0  0  0  0  0
  -28.7847  -12.2391   21.3938 H   0  0  0  0  0  0
  -28.2936  -13.8448   21.8014 H   0  0  0  0  0  0
  -25.2754   -9.5706   22.4736 H   0  0  0  0  0  0
  -23.9998   -7.4652   22.7491 H   0  0  0  0  0  0
  -21.0829   -8.8772   19.8973 H   0  0  0  0  0  0
  -22.3681  -10.9659   19.6160 H   0  0  0  0  0  0
  -21.2012   -7.6129   23.9716 H   0  0  0  0  0  0
  -21.1479   -6.0493   25.9073 H   0  0  0  0  0  0
  -22.0594   -2.7589   23.2848 H   0  0  0  0  0  0
  -22.4066  -11.9904   22.4815 H   0  0  0  0  0  0
  -21.1092  -13.1295   22.2638 H   0  0  0  0  0  0
  -24.6524  -15.8441   20.5559 H   0  0  0  0  0  0
  -26.2758  -15.6409   20.1294 H   0  0  0  0  0  0
  -26.7307  -32.5278   23.0931 H   0  0  0  0  0  0
  -25.0111  -33.9538   25.0316 H   0  0  0  0  0  0
  -22.7604  -31.2792   21.3668 H   0  0  0  0  0  0
  -23.3756  -35.9574   23.3274 H   0  0  0  0  0  0
  -24.3574  -36.8901   22.2057 H   0  0  0  0  0  0
  -23.7235  -37.6438   23.6684 H   0  0  0  0  0  0
  -26.1628  -31.4367   20.6024 H   0  0  0  0  0  0
  -26.8809  -30.7563   22.0276 H   0  0  0  0  0  0
  -28.1469  -28.7577   21.2383 H   0  0  0  0  0  0
  -25.9385  -25.7892   19.0339 H   0  0  0  0  0  0
  -23.9866  -27.2547   19.0011 H   0  0  0  0  0  0
  -23.8365  -30.5376   19.3933 H   0  0  0  0  0  0
  -22.8016  -29.2159   19.8393 H   0  0  0  0  0  0
  -25.1304  -36.1833   25.0807 H   0  0  0  0  0  0
  -21.0020  -28.3200   24.1335 H   0  0  0  0  0  0
  -20.5675  -26.2327   23.3534 H   0  0  0  0  0  0
  -21.6683  -26.7446   22.1134 H   0  0  0  0  0  0
  -19.6979  -25.6388   21.1088 H   0  0  0  0  0  0
  -19.6723  -27.3326   20.6700 H   0  0  0  0  0  0
  -17.4241  -26.6811   21.3917 H   0  0  0  0  0  0
  -18.0305  -26.0045   22.8869 H   0  0  0  0  0  0
  -19.7983  -30.7244   24.2293 H   0  0  0  0  0  0
  -17.5048  -31.6216   24.5207 H   0  0  0  0  0  0
  -15.5376  -30.2959   23.7659 H   0  0  0  0  0  0
  -15.8720  -28.0803   22.7035 H   0  0  0  0  0  0
  -24.5907  -30.7090   25.7740 H   0  0  0  0  0  0
  -24.8889  -32.2963   26.4708 H   0  0  0  0  0  0
  -25.7985  -30.9037   27.0235 H   0  0  0  0  0  0
  -26.3026  -29.6640   24.1301 H   0  0  0  0  0  0
  -27.3965  -29.7230   25.4910 H   0  0  0  0  0  0
  -27.8949  -30.4129   23.9659 H   0  0  0  0  0  0
  -27.2641  -33.3631   26.1997 H   0  0  0  0  0  0
  -28.3912  -32.6826   25.0369 H   0  0  0  0  0  0
  -28.0670  -31.8491   26.5479 H   0  0  0  0  0  0
  -28.2588  -38.0093   24.7510 H   0  0  0  0  0  0
  -28.1077  -36.2616   24.6281 H   0  0  0  0  0  0
  -27.2297  -37.1430   25.8872 H   0  0  0  0  0  0
  -20.9502  -29.8809   21.6830 H   0  0  0  0  0  0
  -26.0143  -38.2807   24.1415 H   0  0  0  0  0  0
  -27.7726  -19.6623   24.2796 H   0  0  0  0  0  0
  -26.2693  -19.7064   23.3584 H   0  0  0  0  0  0
  -27.0058  -21.2097   23.9316 H   0  0  0  0  0  0
  -28.8798  -22.3149   17.9059 H   0  0  0  0  0  0
  -28.4608  -24.0270   17.9662 H   0  0  0  0  0  0
  -27.2901  -22.8142   18.4732 H   0  0  0  0  0  0
  -30.9277  -22.8340   19.2640 H   0  0  0  0  0  0
  -30.8025  -23.4549   20.9071 H   0  0  0  0  0  0
  -30.5383  -24.5266   19.5349 H   0  0  0  0  0  0
  -29.5795  -17.0599   22.7450 H   0  0  0  0  0  0
  -29.4200  -15.3534   22.7529 H   0  0  0  0  0  0
  -28.0992  -16.3301   22.0979 H   0  0  0  0  0  0
  -31.0066  -17.9243   20.2538 H   0  0  0  0  0  0
  -29.7041  -17.6369   19.1672 H   0  0  0  0  0  0
  -28.2868  -24.5328   21.6220 H   0  0  0  0  0  0
  -27.0085  -24.3343   20.5033 H   0  0  0  0  0  0
  1 25  1  0  0  0
  1 30  2  0  0  0
  1 84  1  0  0  0
  2  3  1  0  0  0
  2 25  1  0  0  0
  2 85  1  0  0  0
  2 86  1  0  0  0
  3  4  1  0  0  0
  3 87  1  0  0  0
  3 88  1  0  0  0
  4  5  1  0  0  0
  4 89  1  0  0  0
  4 90  1  0  0  0
  5  6  1  0  0  0
  5 26  1  0  0  0
  5 91  1  0  0  0
  6 25  1  0  0  0
  6 92  1  0  0  0
  6 93  1  0  0  0
  7  8  2  0  0  0
  7 26  1  0  0  0
  7 29  1  0  0  0
  8  9  1  0  0  0
  8 22  1  0  0  0
  9 10  1  0  0  0
  9 27  2  0  0  0
 10 11  2  0  0  0
 10 15  1  0  0  0
 11 12  1  0  0  0
 11 94  1  0  0  0
 12 13  2  0  0  0
 12 95  1  0  0  0
 13 14  1  0  0  0
 13 31  1  0  0  0
 14 15  2  0  0  0
 14 96  1  0  0  0
 15 97  1  0  0  0
 16 17  2  0  0  0
 16 21  1  0  0  0
 16 31  1  0  0  0
 17 18  1  0  0  0
 17 98  1  0  0  0
 18 19  2  0  0  0
 18 99  1  0  0  0
 19 20  1  0  0  0
 19 24  1  0  0  0
 20 21  2  0  0  0
 20100  1  0  0  0
 21 23  1  0  0  0
 22 28  1  0  0  0
 22 32  2  0  0  0
 26 27  1  0  0  0
 28101  1  0  0  0
 28102  1  0  0  0
 29103  1  0  0  0
 29104  1  0  0  0
 33 34  1  0  0  0
 33 66  1  0  0  0
 33 70  2  0  0  0
 34 36  1  0  0  0
 34 59  1  0  0  0
 34105  1  0  0  0
 35 44  2  0  0  0
 35 45  1  0  0  0
 35 68  1  0  0  0
 36 56  1  0  0  0
 36106  1  0  0  0
 37 39  1  0  0  0
 37 47  1  0  0  0
 37 66  1  0  0  0
 37107  1  0  0  0
 38 43  2  0  0  0
 38 46  1  0  0  0
 38 47  1  0  0  0
 39 64  1  0  0  0
 39 67  2  0  0  0
 40 52  1  0  0  0
 40 53  2  0  0  0
 40 58  1  0  0  0
 41108  1  0  0  0
 41109  1  0  0  0
 41110  1  0  0  0
 41 48  1  0  0  0
 42 43  1  0  0  0
 42 66  1  0  0  0
 42111  1  0  0  0
 42112  1  0  0  0
 43 44  1  0  0  0
 44113  1  0  0  0
 45 46  2  0  0  0
 45114  1  0  0  0
 46115  1  0  0  0
 47116  1  0  0  0
 47117  1  0  0  0
 48 56  1  0  0  0
 48 65  1  0  0  0
 48118  1  0  0  0
 49 50  1  0  0  0
 49 53  1  0  0  0
 49 64  1  0  0  0
 49119  1  0  0  0
 50 51  1  0  0  0
 50120  1  0  0  0
 50121  1  0  0  0
 51 52  1  0  0  0
 51122  1  0  0  0
 51123  1  0  0  0
 52124  1  0  0  0
 52125  1  0  0  0
 53 54  1  0  0  0
 54 55  2  0  0  0
 54126  1  0  0  0
 55 57  1  0  0  0
 55127  1  0  0  0
 56 69  2  0  0  0
 57 58  2  0  0  0
 57128  1  0  0  0
 58129  1  0  0  0
 59 60  1  0  0  0
 59 61  1  0  0  0
 59 62  1  0  0  0
 60130  1  0  0  0
 60131  1  0  0  0
 60132  1  0  0  0
 61133  1  0  0  0
 61134  1  0  0  0
 61135  1  0  0  0
 62136  1  0  0  0
 62137  1  0  0  0
 62138  1  0  0  0
 63 65  1  0  0  0
 63139  1  0  0  0
 63140  1  0  0  0
 63141  1  0  0  0
 64142  1  0  0  0
 65143  1  0  0  0
 68 79  1  0  0  0
 71 74  1  0  0  0
 71 81  2  0  0  0
 71 82  1  0  0  0
 72 78  1  0  0  0
 72 81  1  0  0  0
 72 83  2  0  0  0
 73 80  1  0  0  0
 73 82  2  0  0  0
 73 83  1  0  0  0
 74144  1  0  0  0
 74145  1  0  0  0
 74146  1  0  0  0
 75147  1  0  0  0
 75148  1  0  0  0
 75149  1  0  0  0
 75 80  1  0  0  0
 76 80  1  0  0  0
 76150  1  0  0  0
 76151  1  0  0  0
 76152  1  0  0  0
 77 84  1  0  0  0
 77153  1  0  0  0
 77154  1  0  0  0
 77155  1  0  0  0
 78 84  1  0  0  0
 78156  1  0  0  0
 78157  1  0  0  0
 79 80  1  0  0  0
 79158  1  0  0  0
 79159  1  0  0  0
M  ISO  4   1 100  68 101  79 101  84 100
M  END
> <chiral flag>
0

> <version>
0

> <s_m_source_file>
/data/baiqing/PycharmProjects/Reinvent-master-3.2/result/LINK_invent/BTK/process_docking_weight1_custom_sum_contain_oxygen_bond_distance_aromatic_linkinvent_7_9_3/rearranged_h_0057.sdf

> <i_m_source_file_index>
35

> <r_mmod_Potential_Energy-OPLS-2005>
47.2084922790527

> <r_mmod_Stretch_Energy-OPLS-2005>
344.115631103516

> <r_mmod_Bend_Energy-OPLS-2005>
306.46728515625

> <r_mmod_Torsional_Energy-OPLS-2005>
261.831573486328

> <r_mmod_Improper_Torsional_Energy-OPLS-2005>
5.93036031723022

> <r_mmod_Van_der_Waal_Energy-OPLS-2005>
149.010543823242

> <r_mmod_Electrostatic_Energy-OPLS-2005>
-1037.48254394531

> <r_mmod_Solvation_Energy-OPLS-2005>
-221.315505981445

> <b_mmod_Minimization_Converged-OPLS-2005>
0

> <r_mmod_RMS_Derivative-OPLS-2005>
2.88376307487488

$$$$
35
                    3D
 Structure written by MMmdl.
155163  0  0  1  0            999 V2000
  -30.5783  -14.9038   20.3736 C   0  0  0  0  0  0
  -30.4520  -12.5482   19.4825 C   0  0  0  0  0  0
  -29.5224  -12.4449   18.2524 C   0  0  0  0  0  0
  -28.0530  -12.2680   18.6853 C   0  0  0  0  0  0
  -27.6285  -13.2289   19.8290 C   0  0  2  0  0  0
  -28.6818  -13.2885   20.9545 C   0  0  0  0  0  0
  -25.2501  -13.8172   20.5738 C   0  0  0  0  0  0
  -24.1785  -13.0420   20.9218 C   0  0  0  0  0  0
  -24.6379  -11.6900   20.8764 C   0  0  0  0  0  0
  -23.9061  -10.4279   21.0404 C   0  0  0  0  0  0
  -24.3606   -9.4189   21.9185 C   0  0  0  0  0  0
  -23.6275   -8.2229   22.0749 C   0  0  0  0  0  0
  -22.4257   -8.0276   21.3538 C   0  0  0  0  0  0
  -21.9891   -9.0259   20.4649 C   0  0  0  0  0  0
  -22.7226  -10.2134   20.3057 C   0  0  0  0  0  0
  -21.6851   -6.0736   22.5289 C   0  0  0  0  0  0
  -21.4032   -6.5644   23.8226 C   0  0  0  0  0  0
  -21.3647   -5.6794   24.9181 C   0  0  0  0  0  0
  -21.6025   -4.3051   24.7231 C   0  0  0  0  0  0
  -21.8813   -3.8152   23.4355 C   0  0  0  0  0  0
  -21.9185   -4.6968   22.3410 C   0  0  0  0  0  0
  -22.7802  -13.5217   21.1853 C   0  0  0  0  0  0
  -22.1646   -4.2152   21.0985 F   0  0  0  0  0  0
  -21.5598   -3.4531   25.7739 F   0  0  0  0  0  0
  -29.9568  -13.6632   20.3281 N   0  0  0  0  0  0
  -26.2908  -12.9367   20.3278 N   0  0  0  0  0  0
  -25.9306  -11.6519   20.5782 N   0  0  0  0  0  0
  -22.0427  -12.8239   22.0406 N   0  0  0  0  0  0
  -25.4237  -15.1902   20.4188 N   0  0  0  0  0  0
  -31.8090  -14.9396   20.2733 O   0  0  0  0  0  0
  -21.6618   -6.8875   21.4248 O   0  0  0  0  0  0
  -22.3514  -14.5535   20.6688 O   0  0  0  0  0  0
  -24.6427  -31.8481   23.1934 C   0  0  0  0  0  0
  -25.9223  -32.4711   23.8289 C   0  0  1  0  0  0
  -27.2118  -27.1601   20.1317 C   0  0  0  0  0  0
  -25.5994  -33.8512   24.2213 N   0  0  0  0  0  0
  -23.4443  -30.4734   21.5395 C   0  0  2  0  0  0
  -24.8920  -28.9132   20.1102 C   0  0  0  0  0  0
  -22.7567  -29.4579   22.4870 C   0  0  0  0  0  0
  -18.0309  -28.1392   22.8482 C   0  0  0  0  0  0
  -24.1496  -36.7244   23.2640 C   0  0  0  0  0  0
  -26.0032  -30.7277   21.3934 C   0  0  0  0  0  0
  -26.0727  -29.3450   20.7280 C   0  0  0  0  0  0
  -27.2351  -28.4854   20.7230 C   0  0  0  0  0  0
  -26.0019  -26.8393   19.4687 C   0  0  0  0  0  0
  -24.8674  -27.6718   19.4671 C   0  0  0  0  0  0
  -23.6692  -29.8135   20.1558 C   0  0  0  0  0  0
  -25.4127  -36.3033   24.0318 C   0  0  1  0  0  0
  -20.5927  -28.3722   23.1227 C   0  0  2  0  0  0
  -20.6801  -26.9429   22.5385 C   0  0  0  0  0  0
  -19.5765  -26.6385   21.5205 C   0  0  0  0  0  0
  -18.1949  -26.7925   22.1626 C   0  0  0  0  0  0
  -19.1569  -28.8869   23.2847 C   0  0  0  0  0  0
  -18.9482  -30.1462   23.8881 C   0  0  0  0  0  0
  -17.6481  -30.6592   24.0551 C   0  0  0  0  0  0
  -25.9088  -34.9412   23.5067 C   0  0  0  0  0  0
  -16.5372  -29.9087   23.6336 C   0  0  0  0  0  0
  -16.7291  -28.6502   23.0362 C   0  0  0  0  0  0
  -26.4548  -31.6564   25.0719 C   0  0  0  0  0  0
  -25.3752  -31.3736   26.1426 C   0  0  0  0  0  0
  -27.0414  -30.2968   24.6276 C   0  0  0  0  0  0
  -27.6086  -32.4322   25.7502 C   0  0  0  0  0  0
  -27.5574  -37.1786   24.8476 C   0  0  0  0  0  0
  -21.4263  -29.3055   22.3601 N   0  0  0  0  0  0
  -26.4292  -37.3751   23.9412 N   0  0  0  0  0  0
  -24.7167  -31.0361   22.0964 N   0  0  0  0  0  0
  -23.4219  -28.8109   23.2998 O   0  0  0  0  0  0
  -28.2510  -26.1576   20.1949 O   0  0  0  0  0  0
  -26.5643  -34.8909   22.4623 O   0  0  0  0  0  0
  -23.5560  -32.1334   23.7175 O   0  0  0  0  0  0
  -29.8089  -21.3142   19.1410 C   0  0  0  0  0  0
  -28.5296  -22.3097   21.2928 C   0  0  0  0  0  0
  -29.3853  -22.6964   19.1329 C   0  0  0  0  0  0
  -28.6856  -23.2784   20.2373 C   0  0  0  0  0  0
  -29.5800  -20.4094   20.2236 C   0  0  0  0  0  0
  -29.6512  -23.5218   17.8878 C   0  0  0  0  0  0
  -29.4567  -16.2369   18.6796 C   0  0  0  0  0  0
  -27.8192  -24.6722   20.1641 C   0  0  0  0  0  0
  -30.2299  -18.9011   20.2025 C   0  0  0  0  0  0
  -29.6273  -17.4680   20.7908 C   0  0  0  0  0  0
  -28.9674  -20.9820   21.3083 N   0  0  0  0  0  0
  -29.8223  -16.0750   20.0930 N   0  0  0  0  0  0
  -31.4773  -12.7151   19.1487 H   0  0  0  0  0  0
  -30.4677  -11.6164   20.0507 H   0  0  0  0  0  0
  -29.8272  -11.6022   17.6294 H   0  0  0  0  0  0
  -29.6281  -13.3273   17.6233 H   0  0  0  0  0  0
  -27.9467  -11.2382   19.0282 H   0  0  0  0  0  0
  -27.3884  -12.3684   17.8274 H   0  0  0  0  0  0
  -27.5715  -14.2164   19.3819 H   0  0  0  0  0  0
  -28.7638  -12.3330   21.4733 H   0  0  0  0  0  0
  -28.3950  -14.0344   21.6986 H   0  0  0  0  0  0
  -25.2732   -9.5652   22.4786 H   0  0  0  0  0  0
  -23.9963   -7.4613   22.7473 H   0  0  0  0  0  0
  -21.0807   -8.8791   19.8974 H   0  0  0  0  0  0
  -22.3668  -10.9684   19.6187 H   0  0  0  0  0  0
  -21.2072   -7.6161   23.9726 H   0  0  0  0  0  0
  -21.1452   -6.0529   25.9076 H   0  0  0  0  0  0
  -22.0605   -2.7618   23.2854 H   0  0  0  0  0  0
  -22.4028  -11.9924   22.4856 H   0  0  0  0  0  0
  -21.1054  -13.1300   22.2609 H   0  0  0  0  0  0
  -24.6656  -15.8515   20.5438 H   0  0  0  0  0  0
  -26.2880  -15.6282   20.1271 H   0  0  0  0  0  0
  -26.7280  -32.5321   23.1010 H   0  0  0  0  0  0
  -25.0173  -33.9632   25.0379 H   0  0  0  0  0  0
  -22.7473  -31.3009   21.3925 H   0  0  0  0  0  0
  -23.3767  -35.9573   23.3306 H   0  0  0  0  0  0
  -24.3594  -36.8858   22.2058 H   0  0  0  0  0  0
  -23.7241  -37.6442   23.6660 H   0  0  0  0  0  0
  -26.1667  -31.4867   20.6272 H   0  0  0  0  0  0
  -26.8714  -30.7697   22.0382 H   0  0  0  0  0  0
  -28.1348  -28.8102   21.2247 H   0  0  0  0  0  0
  -25.8714  -25.9102   18.9411 H   0  0  0  0  0  0
  -23.9694  -27.3375   18.9663 H   0  0  0  0  0  0
  -23.8108  -30.5938   19.4067 H   0  0  0  0  0  0
  -22.7826  -29.2621   19.8397 H   0  0  0  0  0  0
  -25.1314  -36.1861   25.0813 H   0  0  0  0  0  0
  -21.0022  -28.3305   24.1349 H   0  0  0  0  0  0
  -20.5701  -26.2339   23.3600 H   0  0  0  0  0  0
  -21.6664  -26.7440   22.1176 H   0  0  0  0  0  0
  -19.6923  -25.6292   21.1245 H   0  0  0  0  0  0
  -19.6685  -27.3188   20.6723 H   0  0  0  0  0  0
  -17.4209  -26.6660   21.4033 H   0  0  0  0  0  0
  -18.0353  -26.0070   22.9024 H   0  0  0  0  0  0
  -19.7963  -30.7268   24.2257 H   0  0  0  0  0  0
  -17.5046  -31.6281   24.5135 H   0  0  0  0  0  0
  -15.5374  -30.2980   23.7679 H   0  0  0  0  0  0
  -15.8693  -28.0809   22.7100 H   0  0  0  0  0  0
  -24.5933  -30.7084   25.7746 H   0  0  0  0  0  0
  -24.8948  -32.2921   26.4822 H   0  0  0  0  0  0
  -25.8066  -30.8926   27.0218 H   0  0  0  0  0  0
  -26.3029  -29.6695   24.1281 H   0  0  0  0  0  0
  -27.4054  -29.7255   25.4824 H   0  0  0  0  0  0
  -27.8923  -30.4221   23.9572 H   0  0  0  0  0  0
  -27.2680  -33.3623   26.2056 H   0  0  0  0  0  0
  -28.3905  -32.6885   25.0342 H   0  0  0  0  0  0
  -28.0748  -31.8467   26.5433 H   0  0  0  0  0  0
  -28.2602  -38.0073   24.7518 H   0  0  0  0  0  0
  -28.1055  -36.2608   24.6308 H   0  0  0  0  0  0
  -27.2293  -37.1435   25.8881 H   0  0  0  0  0  0
  -20.9468  -29.8763   21.6783 H   0  0  0  0  0  0
  -26.0150  -38.2815   24.1427 H   0  0  0  0  0  0
  -30.3357  -20.9337   18.2759 H   0  0  0  0  0  0
  -27.9603  -22.5927   22.1659 H   0  0  0  0  0  0
  -29.8878  -24.5537   18.1447 H   0  0  0  0  0  0
  -28.7796  -23.5234   17.2323 H   0  0  0  0  0  0
  -30.5016  -23.1245   17.3310 H   0  0  0  0  0  0
  -30.3413  -16.4579   18.0831 H   0  0  0  0  0  0
  -29.0002  -15.3470   18.2565 H   0  0  0  0  0  0
  -28.7403  -17.0465   18.5258 H   0  0  0  0  0  0
  -27.0486  -24.5710   20.9307 H   0  0  0  0  0  0
  -27.3067  -24.5195   19.2174 H   0  0  0  0  0  0
  -31.2119  -19.0213   20.6629 H   0  0  0  0  0  0
  -30.4740  -18.7288   19.1551 H   0  0  0  0  0  0
  -28.5473  -17.5981   20.8674 H   0  0  0  0  0  0
  -29.9536  -17.3654   21.8254 H   0  0  0  0  0  0
  1 25  1  0  0  0
  1 30  2  0  0  0
  1 82  1  0  0  0
  2  3  1  0  0  0
  2 25  1  0  0  0
  2 83  1  0  0  0
  2 84  1  0  0  0
  3  4  1  0  0  0
  3 85  1  0  0  0
  3 86  1  0  0  0
  4  5  1  0  0  0
  4 87  1  0  0  0
  4 88  1  0  0  0
  5  6  1  0  0  0
  5 26  1  0  0  0
  5 89  1  0  0  0
  6 25  1  0  0  0
  6 90  1  0  0  0
  6 91  1  0  0  0
  7  8  2  0  0  0
  7 26  1  0  0  0
  7 29  1  0  0  0
  8  9  1  0  0  0
  8 22  1  0  0  0
  9 10  1  0  0  0
  9 27  2  0  0  0
 10 11  2  0  0  0
 10 15  1  0  0  0
 11 12  1  0  0  0
 11 92  1  0  0  0
 12 13  2  0  0  0
 12 93  1  0  0  0
 13 14  1  0  0  0
 13 31  1  0  0  0
 14 15  2  0  0  0
 14 94  1  0  0  0
 15 95  1  0  0  0
 16 17  2  0  0  0
 16 21  1  0  0  0
 16 31  1  0  0  0
 17 18  1  0  0  0
 17 96  1  0  0  0
 18 19  2  0  0  0
 18 97  1  0  0  0
 19 20  1  0  0  0
 19 24  1  0  0  0
 20 21  2  0  0  0
 20 98  1  0  0  0
 21 23  1  0  0  0
 22 28  1  0  0  0
 22 32  2  0  0  0
 26 27  1  0  0  0
 28 99  1  0  0  0
 28100  1  0  0  0
 29101  1  0  0  0
 29102  1  0  0  0
 33 34  1  0  0  0
 33 66  1  0  0  0
 33 70  2  0  0  0
 34 36  1  0  0  0
 34 59  1  0  0  0
 34103  1  0  0  0
 35 44  2  0  0  0
 35 45  1  0  0  0
 35 68  1  0  0  0
 36 56  1  0  0  0
 36104  1  0  0  0
 37 39  1  0  0  0
 37 47  1  0  0  0
 37 66  1  0  0  0
 37105  1  0  0  0
 38 43  2  0  0  0
 38 46  1  0  0  0
 38 47  1  0  0  0
 39 64  1  0  0  0
 39 67  2  0  0  0
 40 52  1  0  0  0
 40 53  2  0  0  0
 40 58  1  0  0  0
 41106  1  0  0  0
 41107  1  0  0  0
 41108  1  0  0  0
 41 48  1  0  0  0
 42 43  1  0  0  0
 42 66  1  0  0  0
 42109  1  0  0  0
 42110  1  0  0  0
 43 44  1  0  0  0
 44111  1  0  0  0
 45 46  2  0  0  0
 45112  1  0  0  0
 46113  1  0  0  0
 47114  1  0  0  0
 47115  1  0  0  0
 48 56  1  0  0  0
 48 65  1  0  0  0
 48116  1  0  0  0
 49 50  1  0  0  0
 49 53  1  0  0  0
 49 64  1  0  0  0
 49117  1  0  0  0
 50 51  1  0  0  0
 50118  1  0  0  0
 50119  1  0  0  0
 51 52  1  0  0  0
 51120  1  0  0  0
 51121  1  0  0  0
 52122  1  0  0  0
 52123  1  0  0  0
 53 54  1  0  0  0
 54 55  2  0  0  0
 54124  1  0  0  0
 55 57  1  0  0  0
 55125  1  0  0  0
 56 69  2  0  0  0
 57 58  2  0  0  0
 57126  1  0  0  0
 58127  1  0  0  0
 59 60  1  0  0  0
 59 61  1  0  0  0
 59 62  1  0  0  0
 60128  1  0  0  0
 60129  1  0  0  0
 60130  1  0  0  0
 61131  1  0  0  0
 61132  1  0  0  0
 61133  1  0  0  0
 62134  1  0  0  0
 62135  1  0  0  0
 62136  1  0  0  0
 63 65  1  0  0  0
 63137  1  0  0  0
 63138  1  0  0  0
 63139  1  0  0  0
 64140  1  0  0  0
 65141  1  0  0  0
 68 78  1  0  0  0
 71 73  2  0  0  0
 71 75  1  0  0  0
 71142  1  0  0  0
 72 74  2  0  0  0
 72 81  1  0  0  0
 72143  1  0  0  0
 73 74  1  0  0  0
 73 76  1  0  0  0
 74 78  1  0  0  0
 75 79  1  0  0  0
 75 81  2  0  0  0
 76144  1  0  0  0
 76145  1  0  0  0
 76146  1  0  0  0
 77 82  1  0  0  0
 77147  1  0  0  0
 77148  1  0  0  0
 77149  1  0  0  0
 78150  1  0  0  0
 78151  1  0  0  0
 79 80  1  0  0  0
 79152  1  0  0  0
 79153  1  0  0  0
 80 82  1  0  0  0
 80154  1  0  0  0
 80155  1  0  0  0
M  ISO  4   1 100  68 101  78 101  82 100
M  END
> <chiral flag>
0

> <version>
0

> <s_m_source_file>
/data/baiqing/PycharmProjects/Reinvent-master-3.2/result/LINK_invent/BTK/process_docking_weight1_custom_sum_contain_oxygen_bond_distance_aromatic_linkinvent_7_9_3/rearranged_h_0057.sdf

> <i_m_source_file_index>
36

> <r_mmod_Potential_Energy-OPLS-2005>
533.076354980469

> <r_mmod_Stretch_Energy-OPLS-2005>
207.985473632812

> <r_mmod_Bend_Energy-OPLS-2005>
263.555572509766

> <r_mmod_Torsional_Energy-OPLS-2005>
337.79443359375

> <r_mmod_Improper_Torsional_Energy-OPLS-2005>
17.8835182189941

> <r_mmod_Van_der_Waal_Energy-OPLS-2005>
141.594940185547

> <r_mmod_Electrostatic_Energy-OPLS-2005>
-402.091705322266

> <r_mmod_Solvation_Energy-OPLS-2005>
-213.514999389648

> <b_mmod_Minimization_Converged-OPLS-2005>
0

> <r_mmod_RMS_Derivative-OPLS-2005>
2.46737170219421

$$$$
36
                    3D
 Structure written by MMmdl.
151159  0  0  1  0            999 V2000
  -30.5118  -15.0741   20.4388 C   0  0  0  0  0  0
  -30.4422  -12.6837   19.5056 C   0  0  0  0  0  0
  -29.5248  -12.5632   18.2640 C   0  0  0  0  0  0
  -28.0611  -12.3239   18.6799 C   0  0  0  0  0  0
  -27.6257  -13.2545   19.8406 C   0  0  2  0  0  0
  -28.6703  -13.2827   20.9737 C   0  0  0  0  0  0
  -25.2417  -13.8204   20.5688 C   0  0  0  0  0  0
  -24.1756  -13.0419   20.9223 C   0  0  0  0  0  0
  -24.6395  -11.6912   20.8758 C   0  0  0  0  0  0
  -23.9082  -10.4281   21.0410 C   0  0  0  0  0  0
  -24.3627   -9.4195   21.9188 C   0  0  0  0  0  0
  -23.6295   -8.2235   22.0756 C   0  0  0  0  0  0
  -22.4277   -8.0277   21.3545 C   0  0  0  0  0  0
  -21.9917   -9.0251   20.4646 C   0  0  0  0  0  0
  -22.7252  -10.2126   20.3056 C   0  0  0  0  0  0
  -21.6853   -6.0732   22.5278 C   0  0  0  0  0  0
  -21.4015   -6.5638   23.8211 C   0  0  0  0  0  0
  -21.3660   -5.6791   24.9174 C   0  0  0  0  0  0
  -21.6043   -4.3054   24.7225 C   0  0  0  0  0  0
  -21.8818   -3.8145   23.4347 C   0  0  0  0  0  0
  -21.9192   -4.6961   22.3402 C   0  0  0  0  0  0
  -22.7776  -13.5185   21.1878 C   0  0  0  0  0  0
  -22.1660   -4.2145   21.0980 F   0  0  0  0  0  0
  -21.5627   -3.4538   25.7737 F   0  0  0  0  0  0
  -29.9192  -13.7910   20.3771 N   0  0  0  0  0  0
  -26.2863  -12.9456   20.3254 N   0  0  0  0  0  0
  -25.9333  -11.6578   20.5747 N   0  0  0  0  0  0
  -22.0437  -12.8178   22.0444 N   0  0  0  0  0  0
  -25.4020  -15.1929   20.4054 N   0  0  0  0  0  0
  -31.7069  -15.0897   20.1130 O   0  0  0  0  0  0
  -21.6639   -6.8876   21.4240 O   0  0  0  0  0  0
  -22.3452  -14.5486   20.6720 O   0  0  0  0  0  0
  -24.6505  -31.8361   23.1806 C   0  0  0  0  0  0
  -25.9241  -32.4654   23.8228 C   0  0  1  0  0  0
  -27.2211  -27.0598   20.1645 C   0  0  0  0  0  0
  -25.5959  -33.8463   24.2142 N   0  0  0  0  0  0
  -23.4588  -30.4515   21.5274 C   0  0  2  0  0  0
  -24.9103  -28.8615   20.1112 C   0  0  0  0  0  0
  -22.7605  -29.4504   22.4828 C   0  0  0  0  0  0
  -18.0312  -28.1398   22.8473 C   0  0  0  0  0  0
  -24.1493  -36.7236   23.2645 C   0  0  0  0  0  0
  -26.0195  -30.6856   21.3905 C   0  0  0  0  0  0
  -26.0902  -29.2887   20.7332 C   0  0  0  0  0  0
  -27.2445  -28.4062   20.7375 C   0  0  0  0  0  0
  -26.0133  -26.7496   19.5027 C   0  0  0  0  0  0
  -24.8892  -27.6084   19.4786 C   0  0  0  0  0  0
  -23.6902  -29.7730   20.1502 C   0  0  0  0  0  0
  -25.4129  -36.3008   24.0309 C   0  0  1  0  0  0
  -20.5929  -28.3731   23.1217 C   0  0  2  0  0  0
  -20.6792  -26.9425   22.5403 C   0  0  0  0  0  0
  -19.5766  -26.6378   21.5212 C   0  0  0  0  0  0
  -18.1949  -26.7935   22.1623 C   0  0  0  0  0  0
  -19.1570  -28.8884   23.2835 C   0  0  0  0  0  0
  -18.9484  -30.1478   23.8864 C   0  0  0  0  0  0
  -17.6479  -30.6592   24.0556 C   0  0  0  0  0  0
  -25.9084  -34.9385   23.5040 C   0  0  0  0  0  0
  -16.5370  -29.9081   23.6339 C   0  0  0  0  0  0
  -16.7295  -28.6500   23.0359 C   0  0  0  0  0  0
  -26.4537  -31.6553   25.0704 C   0  0  0  0  0  0
  -25.3700  -31.3762   26.1385 C   0  0  0  0  0  0
  -27.0419  -30.2940   24.6345 C   0  0  0  0  0  0
  -27.6050  -32.4340   25.7498 C   0  0  0  0  0  0
  -27.5574  -37.1775   24.8465 C   0  0  0  0  0  0
  -21.4288  -29.3044   22.3579 N   0  0  0  0  0  0
  -26.4286  -37.3729   23.9407 N   0  0  0  0  0  0
  -24.7298  -31.0145   22.0874 N   0  0  0  0  0  0
  -23.4212  -28.8063   23.3017 O   0  0  0  0  0  0
  -28.2618  -26.0378   20.2380 O   0  0  0  0  0  0
  -26.5681  -34.8897   22.4627 O   0  0  0  0  0  0
  -23.5606  -32.1270   23.6979 O   0  0  0  0  0  0
  -29.3712  -19.3123   20.3145 C   0  0  0  0  0  0
  -30.4481  -17.7513   18.5873 C   0  0  0  0  0  0
  -28.8147  -16.4086   21.6882 C   0  0  0  0  0  0
  -29.1104  -23.1626   20.4142 C   0  0  0  0  0  0
  -28.0203  -24.4651   20.0978 C   0  0  0  0  0  0
  -30.1496  -17.8331   20.0962 C   0  0  2  0  0  0
  -28.0100  -19.5478   20.2734 N   0  0  0  0  0  0
  -29.9709  -20.5605   20.3255 N   0  0  0  0  0  0
  -27.7574  -20.8631   20.3048 N   0  0  0  0  0  0
  -28.9344  -21.5518   20.2985 N   0  0  0  0  0  0
  -29.7803  -16.3331   20.5907 N   0  0  0  0  0  0
  -31.4673  -12.8636   19.1795 H   0  0  0  0  0  0
  -30.4798  -11.7396   20.0516 H   0  0  0  0  0  0
  -29.8678  -11.7572   17.6137 H   0  0  0  0  0  0
  -29.5897  -13.4797   17.6756 H   0  0  0  0  0  0
  -27.9738  -11.2828   18.9935 H   0  0  0  0  0  0
  -27.3963  -12.4420   17.8233 H   0  0  0  0  0  0
  -27.5840  -14.2578   19.4152 H   0  0  0  0  0  0
  -28.8056  -12.2857   21.3957 H   0  0  0  0  0  0
  -28.3272  -13.8897   21.8058 H   0  0  0  0  0  0
  -25.2769   -9.5667   22.4769 H   0  0  0  0  0  0
  -23.9996   -7.4625   22.7479 H   0  0  0  0  0  0
  -21.0846   -8.8774   19.8954 H   0  0  0  0  0  0
  -22.3712  -10.9667   19.6167 H   0  0  0  0  0  0
  -21.2011   -7.6148   23.9713 H   0  0  0  0  0  0
  -21.1482   -6.0524   25.9077 H   0  0  0  0  0  0
  -22.0599   -2.7607   23.2848 H   0  0  0  0  0  0
  -22.4065  -11.9847   22.4840 H   0  0  0  0  0  0
  -21.1053  -13.1197   22.2652 H   0  0  0  0  0  0
  -24.6285  -15.8400   20.5129 H   0  0  0  0  0  0
  -26.2432  -15.6367   20.0611 H   0  0  0  0  0  0
  -26.7308  -32.5234   23.0951 H   0  0  0  0  0  0
  -25.0071  -33.9564   25.0268 H   0  0  0  0  0  0
  -22.7654  -31.2793   21.3652 H   0  0  0  0  0  0
  -23.3764  -35.9558   23.3287 H   0  0  0  0  0  0
  -24.3574  -36.8895   22.2063 H   0  0  0  0  0  0
  -23.7241  -37.6420   23.6703 H   0  0  0  0  0  0
  -26.1850  -31.4357   20.6159 H   0  0  0  0  0  0
  -26.8855  -30.7378   22.0386 H   0  0  0  0  0  0
  -28.1421  -28.7300   21.2456 H   0  0  0  0  0  0
  -25.9079  -25.7900   19.0189 H   0  0  0  0  0  0
  -23.9892  -27.2757   18.9797 H   0  0  0  0  0  0
  -23.8335  -30.5436   19.3919 H   0  0  0  0  0  0
  -22.8034  -29.2184   19.8382 H   0  0  0  0  0  0
  -25.1323  -36.1823   25.0801 H   0  0  0  0  0  0
  -21.0021  -28.3328   24.1338 H   0  0  0  0  0  0
  -20.5677  -26.2347   23.3630 H   0  0  0  0  0  0
  -21.6657  -26.7416   22.1206 H   0  0  0  0  0  0
  -19.6926  -25.6280   21.1262 H   0  0  0  0  0  0
  -19.6704  -27.3170   20.6726 H   0  0  0  0  0  0
  -17.4216  -26.6678   21.4027 H   0  0  0  0  0  0
  -18.0347  -26.0083   22.9026 H   0  0  0  0  0  0
  -19.7959  -30.7303   24.2219 H   0  0  0  0  0  0
  -17.5030  -31.6268   24.5163 H   0  0  0  0  0  0
  -15.5368  -30.2971   23.7680 H   0  0  0  0  0  0
  -15.8697  -28.0806   22.7094 H   0  0  0  0  0  0
  -24.5889  -30.7105   25.7697 H   0  0  0  0  0  0
  -24.8880  -32.2950   26.4736 H   0  0  0  0  0  0
  -25.7963  -30.8979   27.0212 H   0  0  0  0  0  0
  -26.3056  -29.6641   24.1340 H   0  0  0  0  0  0
  -27.3990  -29.7269   25.4951 H   0  0  0  0  0  0
  -27.8980  -30.4158   23.9707 H   0  0  0  0  0  0
  -27.2631  -33.3668   26.1996 H   0  0  0  0  0  0
  -28.3903  -32.6859   25.0358 H   0  0  0  0  0  0
  -28.0674  -31.8521   26.5482 H   0  0  0  0  0  0
  -28.2579  -38.0083   24.7514 H   0  0  0  0  0  0
  -28.1084  -36.2611   24.6294 H   0  0  0  0  0  0
  -27.2290  -37.1419   25.8868 H   0  0  0  0  0  0
  -20.9516  -29.8745   21.6735 H   0  0  0  0  0  0
  -26.0145  -38.2793   24.1412 H   0  0  0  0  0  0
  -30.9415  -18.6607   18.2419 H   0  0  0  0  0  0
  -29.5258  -17.6434   18.0162 H   0  0  0  0  0  0
  -31.1028  -16.9213   18.3268 H   0  0  0  0  0  0
  -29.1266  -15.8022   22.5400 H   0  0  0  0  0  0
  -27.8322  -16.0777   21.3573 H   0  0  0  0  0  0
  -28.6986  -17.4186   22.0782 H   0  0  0  0  0  0
  -29.4480  -23.3208   21.4374 H   0  0  0  0  0  0
  -29.9910  -23.3805   19.8113 H   0  0  0  0  0  0
  -27.1354  -24.2597   20.7003 H   0  0  0  0  0  0
  -27.6923  -24.3205   19.0686 H   0  0  0  0  0  0
  -31.1158  -17.9854   20.5781 H   0  0  0  0  0  0
  1 25  1  0  0  0
  1 30  2  0  0  0
  1 81  1  0  0  0
  2  3  1  0  0  0
  2 25  1  0  0  0
  2 82  1  0  0  0
  2 83  1  0  0  0
  3  4  1  0  0  0
  3 84  1  0  0  0
  3 85  1  0  0  0
  4  5  1  0  0  0
  4 86  1  0  0  0
  4 87  1  0  0  0
  5  6  1  0  0  0
  5 26  1  0  0  0
  5 88  1  0  0  0
  6 25  1  0  0  0
  6 89  1  0  0  0
  6 90  1  0  0  0
  7  8  2  0  0  0
  7 26  1  0  0  0
  7 29  1  0  0  0
  8  9  1  0  0  0
  8 22  1  0  0  0
  9 10  1  0  0  0
  9 27  2  0  0  0
 10 11  2  0  0  0
 10 15  1  0  0  0
 11 12  1  0  0  0
 11 91  1  0  0  0
 12 13  2  0  0  0
 12 92  1  0  0  0
 13 14  1  0  0  0
 13 31  1  0  0  0
 14 15  2  0  0  0
 14 93  1  0  0  0
 15 94  1  0  0  0
 16 17  2  0  0  0
 16 21  1  0  0  0
 16 31  1  0  0  0
 17 18  1  0  0  0
 17 95  1  0  0  0
 18 19  2  0  0  0
 18 96  1  0  0  0
 19 20  1  0  0  0
 19 24  1  0  0  0
 20 21  2  0  0  0
 20 97  1  0  0  0
 21 23  1  0  0  0
 22 28  1  0  0  0
 22 32  2  0  0  0
 26 27  1  0  0  0
 28 98  1  0  0  0
 28 99  1  0  0  0
 29100  1  0  0  0
 29101  1  0  0  0
 33 34  1  0  0  0
 33 66  1  0  0  0
 33 70  2  0  0  0
 34 36  1  0  0  0
 34 59  1  0  0  0
 34102  1  0  0  0
 35 44  2  0  0  0
 35 45  1  0  0  0
 35 68  1  0  0  0
 36 56  1  0  0  0
 36103  1  0  0  0
 37 39  1  0  0  0
 37 47  1  0  0  0
 37 66  1  0  0  0
 37104  1  0  0  0
 38 43  2  0  0  0
 38 46  1  0  0  0
 38 47  1  0  0  0
 39 64  1  0  0  0
 39 67  2  0  0  0
 40 52  1  0  0  0
 40 53  2  0  0  0
 40 58  1  0  0  0
 41105  1  0  0  0
 41106  1  0  0  0
 41107  1  0  0  0
 41 48  1  0  0  0
 42 43  1  0  0  0
 42 66  1  0  0  0
 42108  1  0  0  0
 42109  1  0  0  0
 43 44  1  0  0  0
 44110  1  0  0  0
 45 46  2  0  0  0
 45111  1  0  0  0
 46112  1  0  0  0
 47113  1  0  0  0
 47114  1  0  0  0
 48 56  1  0  0  0
 48 65  1  0  0  0
 48115  1  0  0  0
 49 50  1  0  0  0
 49 53  1  0  0  0
 49 64  1  0  0  0
 49116  1  0  0  0
 50 51  1  0  0  0
 50117  1  0  0  0
 50118  1  0  0  0
 51 52  1  0  0  0
 51119  1  0  0  0
 51120  1  0  0  0
 52121  1  0  0  0
 52122  1  0  0  0
 53 54  1  0  0  0
 54 55  2  0  0  0
 54123  1  0  0  0
 55 57  1  0  0  0
 55124  1  0  0  0
 56 69  2  0  0  0
 57 58  2  0  0  0
 57125  1  0  0  0
 58126  1  0  0  0
 59 60  1  0  0  0
 59 61  1  0  0  0
 59 62  1  0  0  0
 60127  1  0  0  0
 60128  1  0  0  0
 60129  1  0  0  0
 61130  1  0  0  0
 61131  1  0  0  0
 61132  1  0  0  0
 62133  1  0  0  0
 62134  1  0  0  0
 62135  1  0  0  0
 63 65  1  0  0  0
 63136  1  0  0  0
 63137  1  0  0  0
 63138  1  0  0  0
 64139  1  0  0  0
 65140  1  0  0  0
 68 75  1  0  0  0
 71 76  1  0  0  0
 71 77  1  0  0  0
 71 78  2  0  0  0
 72141  1  0  0  0
 72142  1  0  0  0
 72143  1  0  0  0
 72 76  1  0  0  0
 73 81  1  0  0  0
 73144  1  0  0  0
 73145  1  0  0  0
 73146  1  0  0  0
 74 75  1  0  0  0
 74 80  1  0  0  0
 74147  1  0  0  0
 74148  1  0  0  0
 75149  1  0  0  0
 75150  1  0  0  0
 76 81  1  0  0  0
 76151  1  0  0  0
 77 79  2  0  0  0
 78 80  1  0  0  0
 79 80  1  0  0  0
M  ISO  4   1 100  68 101  75 101  81 100
M  END
> <chiral flag>
0

> <version>
0

> <s_m_source_file>
/data/baiqing/PycharmProjects/Reinvent-master-3.2/result/LINK_invent/BTK/process_docking_weight1_custom_sum_contain_oxygen_bond_distance_aromatic_linkinvent_7_9_3/rearranged_h_0057.sdf

> <i_m_source_file_index>
37

> <r_mmod_Potential_Energy-OPLS-2005>
767.920471191406

> <r_mmod_Stretch_Energy-OPLS-2005>
368.951629638672

> <r_mmod_Bend_Energy-OPLS-2005>
332.219635009766

> <r_mmod_Torsional_Energy-OPLS-2005>
242.852615356445

> <r_mmod_Improper_Torsional_Energy-OPLS-2005>
8.79709339141846

> <r_mmod_Van_der_Waal_Energy-OPLS-2005>
113.010284423828

> <r_mmod_Electrostatic_Energy-OPLS-2005>
-347.865447998047

> <r_mmod_Solvation_Energy-OPLS-2005>
-219.383209228516

> <b_mmod_Minimization_Converged-OPLS-2005>
0

> <r_mmod_RMS_Derivative-OPLS-2005>
0.370680540800095

$$$$
37
                    3D
 Structure written by MMmdl.
160168  0  0  1  0            999 V2000
  -30.6599  -14.6819   20.5412 C   0  0  0  0  0  0
  -30.4330  -12.4329   19.4617 C   0  0  0  0  0  0
  -29.5066  -12.5158   18.2275 C   0  0  0  0  0  0
  -28.0279  -12.3587   18.6326 C   0  0  0  0  0  0
  -27.6525  -13.2270   19.8608 C   0  0  2  0  0  0
  -28.6961  -13.0953   20.9901 C   0  0  0  0  0  0
  -25.2578  -13.8192   20.5701 C   0  0  0  0  0  0
  -24.1852  -13.0440   20.9214 C   0  0  0  0  0  0
  -24.6439  -11.6924   20.8753 C   0  0  0  0  0  0
  -23.9112  -10.4302   21.0420 C   0  0  0  0  0  0
  -24.3650   -9.4210   21.9192 C   0  0  0  0  0  0
  -23.6320   -8.2243   22.0746 C   0  0  0  0  0  0
  -22.4300   -8.0294   21.3541 C   0  0  0  0  0  0
  -21.9950   -9.0274   20.4642 C   0  0  0  0  0  0
  -22.7290  -10.2151   20.3064 C   0  0  0  0  0  0
  -21.6845   -6.0754   22.5280 C   0  0  0  0  0  0
  -21.4017   -6.5652   23.8217 C   0  0  0  0  0  0
  -21.3665   -5.6804   24.9175 C   0  0  0  0  0  0
  -21.6042   -4.3064   24.7226 C   0  0  0  0  0  0
  -21.8831   -3.8159   23.4349 C   0  0  0  0  0  0
  -21.9200   -4.6978   22.3406 C   0  0  0  0  0  0
  -22.7873  -13.5222   21.1886 C   0  0  0  0  0  0
  -22.1667   -4.2166   21.0983 F   0  0  0  0  0  0
  -21.5627   -3.4549   25.7738 F   0  0  0  0  0  0
  -30.0074  -13.4694   20.4357 N   0  0  0  0  0  0
  -26.3005  -12.9388   20.3311 N   0  0  0  0  0  0
  -25.9367  -11.6535   20.5753 N   0  0  0  0  0  0
  -22.0536  -12.8162   22.0424 N   0  0  0  0  0  0
  -25.4323  -15.1900   20.4128 N   0  0  0  0  0  0
  -31.7788  -14.8151   20.0338 O   0  0  0  0  0  0
  -21.6651   -6.8899   21.4242 O   0  0  0  0  0  0
  -22.3554  -14.5541   20.6771 O   0  0  0  0  0  0
  -24.6301  -31.8559   23.1986 C   0  0  0  0  0  0
  -25.9108  -32.4762   23.8341 C   0  0  1  0  0  0
  -27.2361  -27.2855   20.1266 C   0  0  0  0  0  0
  -25.5885  -33.8563   24.2245 N   0  0  0  0  0  0
  -23.4293  -30.4766   21.5425 C   0  0  2  0  0  0
  -24.8811  -28.9292   20.1114 C   0  0  0  0  0  0
  -22.7510  -29.4603   22.4935 C   0  0  0  0  0  0
  -18.0281  -28.1375   22.8493 C   0  0  0  0  0  0
  -24.1500  -36.7300   23.2642 C   0  0  0  0  0  0
  -25.9741  -30.7787   21.3771 C   0  0  0  0  0  0
  -26.0510  -29.4025   20.7178 C   0  0  0  0  0  0
  -27.2317  -28.5939   20.7125 C   0  0  0  0  0  0
  -26.0416  -26.8806   19.4857 C   0  0  0  0  0  0
  -24.8804  -27.6756   19.4842 C   0  0  0  0  0  0
  -23.6472  -29.8085   20.1598 C   0  0  0  0  0  0
  -25.4124  -36.3077   24.0324 C   0  0  1  0  0  0
  -20.5895  -28.3689   23.1274 C   0  0  2  0  0  0
  -20.6778  -26.9402   22.5426 C   0  0  0  0  0  0
  -19.5747  -26.6377   21.5227 C   0  0  0  0  0  0
  -18.1923  -26.7914   22.1638 C   0  0  0  0  0  0
  -19.1541  -28.8840   23.2871 C   0  0  0  0  0  0
  -18.9466  -30.1443   23.8894 C   0  0  0  0  0  0
  -17.6470  -30.6586   24.0550 C   0  0  0  0  0  0
  -25.9057  -34.9445   23.5099 C   0  0  0  0  0  0
  -16.5358  -29.9086   23.6328 C   0  0  0  0  0  0
  -16.7273  -28.6497   23.0362 C   0  0  0  0  0  0
  -26.4484  -31.6573   25.0720 C   0  0  0  0  0  0
  -25.3690  -31.3683   26.1422 C   0  0  0  0  0  0
  -27.0312  -30.2986   24.6175 C   0  0  0  0  0  0
  -27.6039  -32.4309   25.7488 C   0  0  0  0  0  0
  -27.5589  -37.1800   24.8452 C   0  0  0  0  0  0
  -21.4216  -29.3038   22.3670 N   0  0  0  0  0  0
  -26.4300  -37.3771   23.9396 N   0  0  0  0  0  0
  -24.6963  -31.0556   22.0943 N   0  0  0  0  0  0
  -23.4204  -28.8134   23.3026 O   0  0  0  0  0  0
  -28.3397  -26.4034   20.1985 O   0  0  0  0  0  0
  -26.5672  -34.8919   22.4699 O   0  0  0  0  0  0
  -23.5454  -32.1355   23.7290 O   0  0  0  0  0  0
  -29.0486  -19.6277   20.2991 C   0  0  0  0  0  0
  -29.4560  -20.9760   20.5862 C   0  0  0  0  0  0
  -29.9234  -18.5220   20.5856 C   0  0  0  0  0  0
  -31.4319  -20.0824   21.3664 C   0  0  0  0  0  0
  -32.8115  -20.3449   21.9254 C   0  0  0  0  0  0
  -31.2685  -15.9813   23.2102 C   0  0  0  0  0  0
  -28.5538  -22.2582   20.3490 C   0  0  0  0  0  0
  -29.6498  -17.0124   20.1758 C   0  0  0  0  0  0
  -29.1120  -23.7736   20.4422 C   0  0  0  0  0  0
  -29.9038  -16.0062   22.4927 C   0  0  0  0  0  0
  -28.0894  -24.9381   20.0112 C   0  0  0  0  0  0
  -30.6695  -21.1579   21.1410 N   0  0  0  0  0  0
  -31.1272  -18.8071   21.1144 N   0  0  0  0  0  0
  -29.9893  -15.7934   21.0325 N   0  0  0  0  0  0
  -31.4720  -12.5504   19.1520 H   0  0  0  0  0  0
  -30.3760  -11.4417   19.9149 H   0  0  0  0  0  0
  -29.7725  -11.7417   17.5057 H   0  0  0  0  0  0
  -29.6483  -13.4693   17.7153 H   0  0  0  0  0  0
  -27.8555  -11.3044   18.8529 H   0  0  0  0  0  0
  -27.3776  -12.6004   17.7898 H   0  0  0  0  0  0
  -27.6697  -14.2647   19.5237 H   0  0  0  0  0  0
  -28.7273  -12.0701   21.3651 H   0  0  0  0  0  0
  -28.4018  -13.7051   21.8386 H   0  0  0  0  0  0
  -25.2802   -9.5669   22.4758 H   0  0  0  0  0  0
  -24.0037   -7.4629   22.7453 H   0  0  0  0  0  0
  -21.0885   -8.8815   19.8936 H   0  0  0  0  0  0
  -22.3774  -10.9696   19.6167 H   0  0  0  0  0  0
  -21.2011   -7.6160   23.9721 H   0  0  0  0  0  0
  -21.1462   -6.0532   25.9080 H   0  0  0  0  0  0
  -22.0604   -2.7624   23.2839 H   0  0  0  0  0  0
  -22.4184  -11.9789   22.4710 H   0  0  0  0  0  0
  -21.1159  -13.1150   22.2688 H   0  0  0  0  0  0
  -24.6774  -15.8525   20.5498 H   0  0  0  0  0  0
  -26.2855  -15.6230   20.0842 H   0  0  0  0  0  0
  -26.7190  -32.5427   23.1106 H   0  0  0  0  0  0
  -24.9869  -33.9683   25.0277 H   0  0  0  0  0  0
  -22.7243  -31.2965   21.3943 H   0  0  0  0  0  0
  -23.3760  -35.9635   23.3299 H   0  0  0  0  0  0
  -24.3579  -36.8948   22.2058 H   0  0  0  0  0  0
  -23.7274  -37.6499   23.6694 H   0  0  0  0  0  0
  -26.1122  -31.5439   20.6117 H   0  0  0  0  0  0
  -26.8514  -30.8265   22.0115 H   0  0  0  0  0  0
  -28.1286  -28.9506   21.1990 H   0  0  0  0  0  0
  -25.9683  -25.9253   18.9886 H   0  0  0  0  0  0
  -23.9874  -27.3080   18.9979 H   0  0  0  0  0  0
  -23.7580  -30.5799   19.3968 H   0  0  0  0  0  0
  -22.7697  -29.2293   19.8656 H   0  0  0  0  0  0
  -25.1322  -36.1936   25.0823 H   0  0  0  0  0  0
  -20.9972  -28.3285   24.1397 H   0  0  0  0  0  0
  -20.5685  -26.2289   23.3637 H   0  0  0  0  0  0
  -21.6645  -26.7419   22.1216 H   0  0  0  0  0  0
  -19.6901  -25.6280   21.1267 H   0  0  0  0  0  0
  -19.6693  -27.3193   20.6759 H   0  0  0  0  0  0
  -17.4195  -26.6649   21.4049 H   0  0  0  0  0  0
  -18.0297  -26.0063   22.9036 H   0  0  0  0  0  0
  -19.7948  -30.7232   24.2290 H   0  0  0  0  0  0
  -17.5035  -31.6274   24.5143 H   0  0  0  0  0  0
  -15.5359  -30.2990   23.7659 H   0  0  0  0  0  0
  -15.8666  -28.0822   22.7087 H   0  0  0  0  0  0
  -24.5899  -30.7012   25.7718 H   0  0  0  0  0  0
  -24.8821  -32.2811   26.4857 H   0  0  0  0  0  0
  -25.7998  -30.8846   27.0197 H   0  0  0  0  0  0
  -26.2869  -29.6728   24.1226 H   0  0  0  0  0  0
  -27.4011  -29.7262   25.4693 H   0  0  0  0  0  0
  -27.8759  -30.4255   23.9396 H   0  0  0  0  0  0
  -27.2664  -33.3629   26.2043 H   0  0  0  0  0  0
  -28.3852  -32.6829   25.0299 H   0  0  0  0  0  0
  -28.0691  -31.8423   26.5406 H   0  0  0  0  0  0
  -28.2592  -38.0112   24.7519 H   0  0  0  0  0  0
  -28.1105  -36.2640   24.6279 H   0  0  0  0  0  0
  -27.2278  -37.1436   25.8842 H   0  0  0  0  0  0
  -20.9392  -29.8758   21.6881 H   0  0  0  0  0  0
  -26.0189  -38.2850   24.1390 H   0  0  0  0  0  0
  -28.0782  -19.4470   19.8535 H   0  0  0  0  0  0
  -32.7645  -21.0756   22.7312 H   0  0  0  0  0  0
  -33.4587  -20.7330   21.1396 H   0  0  0  0  0  0
  -33.2617  -19.4331   22.3188 H   0  0  0  0  0  0
  -31.1536  -16.2335   24.2637 H   0  0  0  0  0  0
  -31.9692  -16.6946   22.7725 H   0  0  0  0  0  0
  -31.7295  -14.9930   23.1780 H   0  0  0  0  0  0
  -27.7177  -22.1695   21.0442 H   0  0  0  0  0  0
  -28.1160  -22.1320   19.3579 H   0  0  0  0  0  0
  -30.1427  -16.8820   19.2109 H   0  0  0  0  0  0
  -28.5874  -16.9339   19.9495 H   0  0  0  0  0  0
  -30.0047  -23.8565   19.8233 H   0  0  0  0  0  0
  -29.4422  -23.9590   21.4657 H   0  0  0  0  0  0
  -29.4102  -16.9537   22.7080 H   0  0  0  0  0  0
  -29.2647  -15.2562   22.9531 H   0  0  0  0  0  0
  -27.1564  -24.6992   20.5226 H   0  0  0  0  0  0
  -27.9027  -24.7894   18.9476 H   0  0  0  0  0  0
  1 25  1  0  0  0
  1 30  2  0  0  0
  1 84  1  0  0  0
  2  3  1  0  0  0
  2 25  1  0  0  0
  2 85  1  0  0  0
  2 86  1  0  0  0
  3  4  1  0  0  0
  3 87  1  0  0  0
  3 88  1  0  0  0
  4  5  1  0  0  0
  4 89  1  0  0  0
  4 90  1  0  0  0
  5  6  1  0  0  0
  5 26  1  0  0  0
  5 91  1  0  0  0
  6 25  1  0  0  0
  6 92  1  0  0  0
  6 93  1  0  0  0
  7  8  2  0  0  0
  7 26  1  0  0  0
  7 29  1  0  0  0
  8  9  1  0  0  0
  8 22  1  0  0  0
  9 10  1  0  0  0
  9 27  2  0  0  0
 10 11  2  0  0  0
 10 15  1  0  0  0
 11 12  1  0  0  0
 11 94  1  0  0  0
 12 13  2  0  0  0
 12 95  1  0  0  0
 13 14  1  0  0  0
 13 31  1  0  0  0
 14 15  2  0  0  0
 14 96  1  0  0  0
 15 97  1  0  0  0
 16 17  2  0  0  0
 16 21  1  0  0  0
 16 31  1  0  0  0
 17 18  1  0  0  0
 17 98  1  0  0  0
 18 19  2  0  0  0
 18 99  1  0  0  0
 19 20  1  0  0  0
 19 24  1  0  0  0
 20 21  2  0  0  0
 20100  1  0  0  0
 21 23  1  0  0  0
 22 28  1  0  0  0
 22 32  2  0  0  0
 26 27  1  0  0  0
 28101  1  0  0  0
 28102  1  0  0  0
 29103  1  0  0  0
 29104  1  0  0  0
 33 34  1  0  0  0
 33 66  1  0  0  0
 33 70  2  0  0  0
 34 36  1  0  0  0
 34 59  1  0  0  0
 34105  1  0  0  0
 35 44  2  0  0  0
 35 45  1  0  0  0
 35 68  1  0  0  0
 36 56  1  0  0  0
 36106  1  0  0  0
 37 39  1  0  0  0
 37 47  1  0  0  0
 37 66  1  0  0  0
 37107  1  0  0  0
 38 43  2  0  0  0
 38 46  1  0  0  0
 38 47  1  0  0  0
 39 64  1  0  0  0
 39 67  2  0  0  0
 40 52  1  0  0  0
 40 53  2  0  0  0
 40 58  1  0  0  0
 41108  1  0  0  0
 41109  1  0  0  0
 41110  1  0  0  0
 41 48  1  0  0  0
 42 43  1  0  0  0
 42 66  1  0  0  0
 42111  1  0  0  0
 42112  1  0  0  0
 43 44  1  0  0  0
 44113  1  0  0  0
 45 46  2  0  0  0
 45114  1  0  0  0
 46115  1  0  0  0
 47116  1  0  0  0
 47117  1  0  0  0
 48 56  1  0  0  0
 48 65  1  0  0  0
 48118  1  0  0  0
 49 50  1  0  0  0
 49 53  1  0  0  0
 49 64  1  0  0  0
 49119  1  0  0  0
 50 51  1  0  0  0
 50120  1  0  0  0
 50121  1  0  0  0
 51 52  1  0  0  0
 51122  1  0  0  0
 51123  1  0  0  0
 52124  1  0  0  0
 52125  1  0  0  0
 53 54  1  0  0  0
 54 55  2  0  0  0
 54126  1  0  0  0
 55 57  1  0  0  0
 55127  1  0  0  0
 56 69  2  0  0  0
 57 58  2  0  0  0
 57128  1  0  0  0
 58129  1  0  0  0
 59 60  1  0  0  0
 59 61  1  0  0  0
 59 62  1  0  0  0
 60130  1  0  0  0
 60131  1  0  0  0
 60132  1  0  0  0
 61133  1  0  0  0
 61134  1  0  0  0
 61135  1  0  0  0
 62136  1  0  0  0
 62137  1  0  0  0
 62138  1  0  0  0
 63 65  1  0  0  0
 63139  1  0  0  0
 63140  1  0  0  0
 63141  1  0  0  0
 64142  1  0  0  0
 65143  1  0  0  0
 68 81  1  0  0  0
 71 72  2  0  0  0
 71 73  1  0  0  0
 71144  1  0  0  0
 72 77  1  0  0  0
 72 82  1  0  0  0
 73 78  1  0  0  0
 73 83  2  0  0  0
 74 75  1  0  0  0
 74 82  2  0  0  0
 74 83  1  0  0  0
 75145  1  0  0  0
 75146  1  0  0  0
 75147  1  0  0  0
 76 80  1  0  0  0
 76148  1  0  0  0
 76149  1  0  0  0
 76150  1  0  0  0
 77 79  1  0  0  0
 77151  1  0  0  0
 77152  1  0  0  0
 78 84  1  0  0  0
 78153  1  0  0  0
 78154  1  0  0  0
 79 81  1  0  0  0
 79155  1  0  0  0
 79156  1  0  0  0
 80 84  1  0  0  0
 80157  1  0  0  0
 80158  1  0  0  0
 81159  1  0  0  0
 81160  1  0  0  0
M  ISO  4   1 100  68 101  81 101  84 100
M  END
> <chiral flag>
0

> <version>
0

> <s_m_source_file>
/data/baiqing/PycharmProjects/Reinvent-master-3.2/result/LINK_invent/BTK/process_docking_weight1_custom_sum_contain_oxygen_bond_distance_aromatic_linkinvent_7_9_3/rearranged_h_0057.sdf

> <i_m_source_file_index>
38

> <r_mmod_Potential_Energy-OPLS-2005>
-251.364334106445

> <r_mmod_Stretch_Energy-OPLS-2005>
107.534126281738

> <r_mmod_Bend_Energy-OPLS-2005>
165.416946411133

> <r_mmod_Torsional_Energy-OPLS-2005>
283.970458984375

> <r_mmod_Improper_Torsional_Energy-OPLS-2005>
5.47062063217163

> <r_mmod_Van_der_Waal_Energy-OPLS-2005>
148.039672851562

> <r_mmod_Electrostatic_Energy-OPLS-2005>
-799.779907226562

> <r_mmod_Solvation_Energy-OPLS-2005>
-224.406448364258

> <b_mmod_Minimization_Converged-OPLS-2005>
0

> <r_mmod_RMS_Derivative-OPLS-2005>
2.73775911331177

$$$$
38
                    3D
 Structure written by MMmdl.
155163  0  0  1  0            999 V2000
  -30.6383  -14.6997   20.5412 C   0  0  0  0  0  0
  -30.4370  -12.4455   19.4673 C   0  0  0  0  0  0
  -29.5074  -12.5181   18.2361 C   0  0  0  0  0  0
  -28.0305  -12.3433   18.6436 C   0  0  0  0  0  0
  -27.6475  -13.2198   19.8647 C   0  0  2  0  0  0
  -28.6904  -13.0714   20.9884 C   0  0  0  0  0  0
  -25.2526  -13.8182   20.5733 C   0  0  0  0  0  0
  -24.1802  -13.0444   20.9203 C   0  0  0  0  0  0
  -24.6373  -11.6915   20.8749 C   0  0  0  0  0  0
  -23.9050  -10.4303   21.0415 C   0  0  0  0  0  0
  -24.3600   -9.4217   21.9191 C   0  0  0  0  0  0
  -23.6290   -8.2244   22.0750 C   0  0  0  0  0  0
  -22.4275   -8.0278   21.3535 C   0  0  0  0  0  0
  -21.9902   -9.0260   20.4644 C   0  0  0  0  0  0
  -22.7223  -10.2147   20.3062 C   0  0  0  0  0  0
  -21.6854   -6.0737   22.5286 C   0  0  0  0  0  0
  -21.4006   -6.5637   23.8217 C   0  0  0  0  0  0
  -21.3667   -5.6788   24.9176 C   0  0  0  0  0  0
  -21.6046   -4.3050   24.7225 C   0  0  0  0  0  0
  -21.8816   -3.8147   23.4342 C   0  0  0  0  0  0
  -21.9183   -4.6968   22.3400 C   0  0  0  0  0  0
  -22.7821  -13.5236   21.1856 C   0  0  0  0  0  0
  -22.1656   -4.2150   21.0977 F   0  0  0  0  0  0
  -21.5636   -3.4528   25.7735 F   0  0  0  0  0  0
  -29.9927  -13.4796   20.4351 N   0  0  0  0  0  0
  -26.2949  -12.9373   20.3344 N   0  0  0  0  0  0
  -25.9298  -11.6521   20.5767 N   0  0  0  0  0  0
  -22.0445  -12.8274   22.0427 N   0  0  0  0  0  0
  -25.4258  -15.1913   20.4172 N   0  0  0  0  0  0
  -31.7852  -14.8078   20.0919 O   0  0  0  0  0  0
  -21.6635   -6.8882   21.4245 O   0  0  0  0  0  0
  -22.3522  -14.5535   20.6674 O   0  0  0  0  0  0
  -24.6330  -31.8583   23.2041 C   0  0  0  0  0  0
  -25.9168  -32.4765   23.8361 C   0  0  1  0  0  0
  -27.2057  -27.2817   20.0865 C   0  0  0  0  0  0
  -25.5980  -33.8569   24.2274 N   0  0  0  0  0  0
  -23.4227  -30.4906   21.5491 C   0  0  2  0  0  0
  -24.8644  -28.9553   20.1022 C   0  0  0  0  0  0
  -22.7498  -29.4633   22.4922 C   0  0  0  0  0  0
  -18.0300  -28.1387   22.8496 C   0  0  0  0  0  0
  -24.1486  -36.7292   23.2631 C   0  0  0  0  0  0
  -25.9726  -30.7764   21.3815 C   0  0  0  0  0  0
  -26.0413  -29.4046   20.7145 C   0  0  0  0  0  0
  -27.2140  -28.5793   20.7033 C   0  0  0  0  0  0
  -26.0003  -26.9163   19.4349 C   0  0  0  0  0  0
  -24.8497  -27.7192   19.4517 C   0  0  0  0  0  0
  -23.6361  -29.8408   20.1586 C   0  0  0  0  0  0
  -25.4109  -36.3082   24.0316 C   0  0  1  0  0  0
  -20.5906  -28.3705   23.1266 C   0  0  2  0  0  0
  -20.6791  -26.9418   22.5401 C   0  0  0  0  0  0
  -19.5762  -26.6372   21.5221 C   0  0  0  0  0  0
  -18.1949  -26.7922   22.1633 C   0  0  0  0  0  0
  -19.1552  -28.8859   23.2882 C   0  0  0  0  0  0
  -18.9471  -30.1468   23.8889 C   0  0  0  0  0  0
  -17.6462  -30.6580   24.0572 C   0  0  0  0  0  0
  -25.9063  -34.9448   23.5086 C   0  0  0  0  0  0
  -16.5359  -29.9075   23.6337 C   0  0  0  0  0  0
  -16.7288  -28.6505   23.0343 C   0  0  0  0  0  0
  -26.4515  -31.6572   25.0735 C   0  0  0  0  0  0
  -25.3738  -31.3761   26.1458 C   0  0  0  0  0  0
  -27.0329  -30.2979   24.6199 C   0  0  0  0  0  0
  -27.6055  -32.4297   25.7528 C   0  0  0  0  0  0
  -27.5569  -37.1809   24.8456 C   0  0  0  0  0  0
  -21.4204  -29.3070   22.3662 N   0  0  0  0  0  0
  -26.4262  -37.3789   23.9426 N   0  0  0  0  0  0
  -24.6953  -31.0572   22.1008 N   0  0  0  0  0  0
  -23.4236  -28.8154   23.2972 O   0  0  0  0  0  0
  -28.2857  -26.3601   20.1279 O   0  0  0  0  0  0
  -26.5616  -34.8922   22.4639 O   0  0  0  0  0  0
  -23.5482  -32.1408   23.7349 O   0  0  0  0  0  0
  -26.4163  -21.1505   18.8902 C   0  0  0  0  0  0
  -28.0425  -22.2540   19.6553 C   0  0  0  0  0  0
  -29.3188  -15.9251   22.2316 C   0  0  0  0  0  0
  -28.8100  -23.5699   20.0400 C   0  0  0  0  0  0
  -29.1570  -18.3727   20.2495 C   0  0  0  0  0  0
  -29.4553  -19.9772   20.2475 C   0  0  0  0  0  0
  -30.3138  -17.2714   20.4589 C   0  0  0  0  0  0
  -27.9640  -24.9316   19.7833 C   0  0  0  0  0  0
  -26.8483  -22.4222   19.0730 N   0  0  0  0  0  0
  -27.2542  -20.2112   19.2958 N   0  0  0  0  0  0
  -28.3330  -20.8882   19.7804 N   0  0  0  0  0  0
  -29.9295  -15.8535   20.8950 N   0  0  0  0  0  0
  -31.4730  -12.5826   19.1539 H   0  0  0  0  0  0
  -30.4027  -11.4546   19.9217 H   0  0  0  0  0  0
  -29.7850  -11.7536   17.5088 H   0  0  0  0  0  0
  -29.6336  -13.4816   17.7388 H   0  0  0  0  0  0
  -27.8796  -11.2924   18.8898 H   0  0  0  0  0  0
  -27.3726  -12.5511   17.7978 H   0  0  0  0  0  0
  -27.6664  -14.2562   19.5285 H   0  0  0  0  0  0
  -28.7296  -12.0326   21.3226 H   0  0  0  0  0  0
  -28.3938  -13.6266   21.8702 H   0  0  0  0  0  0
  -25.2721   -9.5711   22.4797 H   0  0  0  0  0  0
  -23.9996   -7.4636   22.7468 H   0  0  0  0  0  0
  -21.0828   -8.8780   19.8956 H   0  0  0  0  0  0
  -22.3655  -10.9701   19.6200 H   0  0  0  0  0  0
  -21.2001   -7.6144   23.9719 H   0  0  0  0  0  0
  -21.1495   -6.0516   25.9082 H   0  0  0  0  0  0
  -22.0588   -2.7607   23.2838 H   0  0  0  0  0  0
  -22.4015  -11.9947   22.4890 H   0  0  0  0  0  0
  -21.1073  -13.1357   22.2599 H   0  0  0  0  0  0
  -24.6636  -15.8498   20.5339 H   0  0  0  0  0  0
  -26.2864  -15.6308   20.1148 H   0  0  0  0  0  0
  -26.7241  -32.5420   23.1118 H   0  0  0  0  0  0
  -25.0172  -33.9704   25.0450 H   0  0  0  0  0  0
  -22.7216  -31.3181   21.4153 H   0  0  0  0  0  0
  -23.3748  -35.9628   23.3287 H   0  0  0  0  0  0
  -24.3601  -36.8916   22.2051 H   0  0  0  0  0  0
  -23.7220  -37.6481   23.6657 H   0  0  0  0  0  0
  -26.1060  -31.5422   20.6154 H   0  0  0  0  0  0
  -26.8540  -30.8232   22.0095 H   0  0  0  0  0  0
  -28.1083  -28.9189   21.2061 H   0  0  0  0  0  0
  -25.8884  -25.9862   18.9009 H   0  0  0  0  0  0
  -23.9535  -27.3767   18.9525 H   0  0  0  0  0  0
  -23.7602  -30.6288   19.4149 H   0  0  0  0  0  0
  -22.7533  -29.2810   19.8457 H   0  0  0  0  0  0
  -25.1288  -36.1930   25.0802 H   0  0  0  0  0  0
  -21.0024  -28.3287   24.1378 H   0  0  0  0  0  0
  -20.5707  -26.2318   23.3613 H   0  0  0  0  0  0
  -21.6662  -26.7436   22.1199 H   0  0  0  0  0  0
  -19.6913  -25.6285   21.1252 H   0  0  0  0  0  0
  -19.6681  -27.3184   20.6764 H   0  0  0  0  0  0
  -17.4211  -26.6695   21.4035 H   0  0  0  0  0  0
  -18.0338  -26.0056   22.9027 H   0  0  0  0  0  0
  -19.7947  -30.7301   24.2239 H   0  0  0  0  0  0
  -17.5012  -31.6264   24.5180 H   0  0  0  0  0  0
  -15.5358  -30.2972   23.7640 H   0  0  0  0  0  0
  -15.8706  -28.0819   22.7029 H   0  0  0  0  0  0
  -24.5912  -30.7093   25.7831 H   0  0  0  0  0  0
  -24.8933  -32.2941   26.4839 H   0  0  0  0  0  0
  -25.8051  -30.8993   27.0266 H   0  0  0  0  0  0
  -26.2906  -29.6775   24.1157 H   0  0  0  0  0  0
  -27.3937  -29.7194   25.4716 H   0  0  0  0  0  0
  -27.8833  -30.4251   23.9497 H   0  0  0  0  0  0
  -27.2654  -33.3593   26.2113 H   0  0  0  0  0  0
  -28.3889  -32.6852   25.0383 H   0  0  0  0  0  0
  -28.0702  -31.8414   26.5451 H   0  0  0  0  0  0
  -28.2569  -38.0121   24.7531 H   0  0  0  0  0  0
  -28.1077  -36.2653   24.6247 H   0  0  0  0  0  0
  -27.2313  -37.1426   25.8863 H   0  0  0  0  0  0
  -20.9363  -29.8868   21.6943 H   0  0  0  0  0  0
  -26.0141  -38.2855   24.1452 H   0  0  0  0  0  0
  -25.4630  -20.9084   18.4381 H   0  0  0  0  0  0
  -29.6847  -15.1426   22.8976 H   0  0  0  0  0  0
  -29.5420  -16.8653   22.7393 H   0  0  0  0  0  0
  -28.2335  -15.8491   22.1694 H   0  0  0  0  0  0
  -29.7382  -23.6009   19.4684 H   0  0  0  0  0  0
  -29.0895  -23.5041   21.0902 H   0  0  0  0  0  0
  -28.6983  -18.1135   19.2944 H   0  0  0  0  0  0
  -28.3749  -18.1998   20.9867 H   0  0  0  0  0  0
  -30.3203  -20.1774   19.6167 H   0  0  0  0  0  0
  -29.7357  -20.2897   21.2529 H   0  0  0  0  0  0
  -30.8652  -17.2005   19.5196 H   0  0  0  0  0  0
  -31.0378  -17.6546   21.1779 H   0  0  0  0  0  0
  -27.0226  -24.7277   20.2932 H   0  0  0  0  0  0
  -27.7569  -24.9368   18.7118 H   0  0  0  0  0  0
  1 25  1  0  0  0
  1 30  2  0  0  0
  1 82  1  0  0  0
  2  3  1  0  0  0
  2 25  1  0  0  0
  2 83  1  0  0  0
  2 84  1  0  0  0
  3  4  1  0  0  0
  3 85  1  0  0  0
  3 86  1  0  0  0
  4  5  1  0  0  0
  4 87  1  0  0  0
  4 88  1  0  0  0
  5  6  1  0  0  0
  5 26  1  0  0  0
  5 89  1  0  0  0
  6 25  1  0  0  0
  6 90  1  0  0  0
  6 91  1  0  0  0
  7  8  2  0  0  0
  7 26  1  0  0  0
  7 29  1  0  0  0
  8  9  1  0  0  0
  8 22  1  0  0  0
  9 10  1  0  0  0
  9 27  2  0  0  0
 10 11  2  0  0  0
 10 15  1  0  0  0
 11 12  1  0  0  0
 11 92  1  0  0  0
 12 13  2  0  0  0
 12 93  1  0  0  0
 13 14  1  0  0  0
 13 31  1  0  0  0
 14 15  2  0  0  0
 14 94  1  0  0  0
 15 95  1  0  0  0
 16 17  2  0  0  0
 16 21  1  0  0  0
 16 31  1  0  0  0
 17 18  1  0  0  0
 17 96  1  0  0  0
 18 19  2  0  0  0
 18 97  1  0  0  0
 19 20  1  0  0  0
 19 24  1  0  0  0
 20 21  2  0  0  0
 20 98  1  0  0  0
 21 23  1  0  0  0
 22 28  1  0  0  0
 22 32  2  0  0  0
 26 27  1  0  0  0
 28 99  1  0  0  0
 28100  1  0  0  0
 29101  1  0  0  0
 29102  1  0  0  0
 33 34  1  0  0  0
 33 66  1  0  0  0
 33 70  2  0  0  0
 34 36  1  0  0  0
 34 59  1  0  0  0
 34103  1  0  0  0
 35 44  2  0  0  0
 35 45  1  0  0  0
 35 68  1  0  0  0
 36 56  1  0  0  0
 36104  1  0  0  0
 37 39  1  0  0  0
 37 47  1  0  0  0
 37 66  1  0  0  0
 37105  1  0  0  0
 38 43  2  0  0  0
 38 46  1  0  0  0
 38 47  1  0  0  0
 39 64  1  0  0  0
 39 67  2  0  0  0
 40 52  1  0  0  0
 40 53  2  0  0  0
 40 58  1  0  0  0
 41106  1  0  0  0
 41107  1  0  0  0
 41108  1  0  0  0
 41 48  1  0  0  0
 42 43  1  0  0  0
 42 66  1  0  0  0
 42109  1  0  0  0
 42110  1  0  0  0
 43 44  1  0  0  0
 44111  1  0  0  0
 45 46  2  0  0  0
 45112  1  0  0  0
 46113  1  0  0  0
 47114  1  0  0  0
 47115  1  0  0  0
 48 56  1  0  0  0
 48 65  1  0  0  0
 48116  1  0  0  0
 49 50  1  0  0  0
 49 53  1  0  0  0
 49 64  1  0  0  0
 49117  1  0  0  0
 50 51  1  0  0  0
 50118  1  0  0  0
 50119  1  0  0  0
 51 52  1  0  0  0
 51120  1  0  0  0
 51121  1  0  0  0
 52122  1  0  0  0
 52123  1  0  0  0
 53 54  1  0  0  0
 54 55  2  0  0  0
 54124  1  0  0  0
 55 57  1  0  0  0
 55125  1  0  0  0
 56 69  2  0  0  0
 57 58  2  0  0  0
 57126  1  0  0  0
 58127  1  0  0  0
 59 60  1  0  0  0
 59 61  1  0  0  0
 59 62  1  0  0  0
 60128  1  0  0  0
 60129  1  0  0  0
 60130  1  0  0  0
 61131  1  0  0  0
 61132  1  0  0  0
 61133  1  0  0  0
 62134  1  0  0  0
 62135  1  0  0  0
 62136  1  0  0  0
 63 65  1  0  0  0
 63137  1  0  0  0
 63138  1  0  0  0
 63139  1  0  0  0
 64140  1  0  0  0
 65141  1  0  0  0
 68 78  1  0  0  0
 71 79  1  0  0  0
 71 80  2  0  0  0
 71142  1  0  0  0
 72 74  1  0  0  0
 72 79  2  0  0  0
 72 81  1  0  0  0
 73 82  1  0  0  0
 73143  1  0  0  0
 73144  1  0  0  0
 73145  1  0  0  0
 74 78  1  0  0  0
 74146  1  0  0  0
 74147  1  0  0  0
 75 76  1  0  0  0
 75 77  1  0  0  0
 75148  1  0  0  0
 75149  1  0  0  0
 76 81  1  0  0  0
 76150  1  0  0  0
 76151  1  0  0  0
 77 82  1  0  0  0
 77152  1  0  0  0
 77153  1  0  0  0
 78154  1  0  0  0
 78155  1  0  0  0
 80 81  1  0  0  0
M  ISO  4   1 100  68 101  78 101  82 100
M  END
> <chiral flag>
0

> <version>
0

> <s_m_source_file>
/data/baiqing/PycharmProjects/Reinvent-master-3.2/result/LINK_invent/BTK/process_docking_weight1_custom_sum_contain_oxygen_bond_distance_aromatic_linkinvent_7_9_3/rearranged_h_0057.sdf

> <i_m_source_file_index>
39

> <r_mmod_Potential_Energy-OPLS-2005>
334.011932373047

> <r_mmod_Stretch_Energy-OPLS-2005>
129.69905090332

> <r_mmod_Bend_Energy-OPLS-2005>
211.456329345703

> <r_mmod_Torsional_Energy-OPLS-2005>
275.040893554688

> <r_mmod_Improper_Torsional_Energy-OPLS-2005>
8.85753917694092

> <r_mmod_Van_der_Waal_Energy-OPLS-2005>
147.797653198242

> <r_mmod_Electrostatic_Energy-OPLS-2005>
-293.857360839844

> <r_mmod_Solvation_Energy-OPLS-2005>
-213.854705810547

> <b_mmod_Minimization_Converged-OPLS-2005>
0

> <r_mmod_RMS_Derivative-OPLS-2005>
3.43897342681885

$$$$
39
                    3D
 Structure written by MMmdl.
157165  0  0  1  0            999 V2000
  -30.4353  -15.2378   20.3945 C   0  0  0  0  0  0
  -30.4443  -12.8027   19.4984 C   0  0  0  0  0  0
  -29.5233  -12.6066   18.2661 C   0  0  0  0  0  0
  -28.0696  -12.3273   18.6922 C   0  0  0  0  0  0
  -27.6206  -13.2657   19.8410 C   0  0  2  0  0  0
  -28.6749  -13.3297   20.9672 C   0  0  0  0  0  0
  -25.2437  -13.8229   20.5744 C   0  0  0  0  0  0
  -24.1766  -13.0433   20.9219 C   0  0  0  0  0  0
  -24.6411  -11.6918   20.8745 C   0  0  0  0  0  0
  -23.9100  -10.4289   21.0396 C   0  0  0  0  0  0
  -24.3648   -9.4206   21.9162 C   0  0  0  0  0  0
  -23.6303   -8.2241   22.0747 C   0  0  0  0  0  0
  -22.4283   -8.0291   21.3549 C   0  0  0  0  0  0
  -21.9928   -9.0265   20.4642 C   0  0  0  0  0  0
  -22.7271  -10.2127   20.3046 C   0  0  0  0  0  0
  -21.6854   -6.0744   22.5291 C   0  0  0  0  0  0
  -21.4006   -6.5643   23.8229 C   0  0  0  0  0  0
  -21.3652   -5.6790   24.9184 C   0  0  0  0  0  0
  -21.6043   -4.3049   24.7230 C   0  0  0  0  0  0
  -21.8819   -3.8146   23.4350 C   0  0  0  0  0  0
  -21.9189   -4.6969   22.3404 C   0  0  0  0  0  0
  -22.7783  -13.5189   21.1886 C   0  0  0  0  0  0
  -22.1657   -4.2153   21.0974 F   0  0  0  0  0  0
  -21.5635   -3.4528   25.7740 F   0  0  0  0  0  0
  -29.8845  -13.9172   20.3549 N   0  0  0  0  0  0
  -26.2860  -12.9486   20.3291 N   0  0  0  0  0  0
  -25.9344  -11.6595   20.5729 N   0  0  0  0  0  0
  -22.0450  -12.8160   22.0446 N   0  0  0  0  0  0
  -25.4116  -15.1950   20.4182 N   0  0  0  0  0  0
  -31.6345  -15.2427   20.0686 O   0  0  0  0  0  0
  -21.6655   -6.8891   21.4250 O   0  0  0  0  0  0
  -22.3454  -14.5485   20.6729 O   0  0  0  0  0  0
  -24.6590  -31.8277   23.1732 C   0  0  0  0  0  0
  -25.9281  -32.4617   23.8197 C   0  0  1  0  0  0
  -27.2100  -26.9502   20.1642 C   0  0  0  0  0  0
  -25.5994  -33.8438   24.2104 N   0  0  0  0  0  0
  -23.4726  -30.4401   21.5220 C   0  0  2  0  0  0
  -24.9255  -28.8396   20.1084 C   0  0  0  0  0  0
  -22.7664  -29.4449   22.4794 C   0  0  0  0  0  0
  -18.0318  -28.1424   22.8466 C   0  0  0  0  0  0
  -24.1487  -36.7191   23.2638 C   0  0  0  0  0  0
  -26.0428  -30.6389   21.4046 C   0  0  0  0  0  0
  -26.1089  -29.2322   20.7457 C   0  0  0  0  0  0
  -27.2452  -28.3066   20.7553 C   0  0  0  0  0  0
  -25.9976  -26.7123   19.4784 C   0  0  0  0  0  0
  -24.8930  -27.5992   19.4577 C   0  0  0  0  0  0
  -23.7100  -29.7635   20.1450 C   0  0  0  0  0  0
  -25.4128  -36.2964   24.0284 C   0  0  1  0  0  0
  -20.5945  -28.3738   23.1215 C   0  0  2  0  0  0
  -20.6804  -26.9426   22.5425 C   0  0  0  0  0  0
  -19.5788  -26.6374   21.5230 C   0  0  0  0  0  0
  -18.1956  -26.7970   22.1599 C   0  0  0  0  0  0
  -19.1588  -28.8904   23.2822 C   0  0  0  0  0  0
  -18.9497  -30.1496   23.8852 C   0  0  0  0  0  0
  -17.6488  -30.6602   24.0556 C   0  0  0  0  0  0
  -25.9102  -34.9352   23.4992 C   0  0  0  0  0  0
  -16.5379  -29.9101   23.6351 C   0  0  0  0  0  0
  -16.7302  -28.6515   23.0355 C   0  0  0  0  0  0
  -26.4548  -31.6567   25.0721 C   0  0  0  0  0  0
  -25.3672  -31.3866   26.1379 C   0  0  0  0  0  0
  -27.0433  -30.2926   24.6473 C   0  0  0  0  0  0
  -27.6072  -32.4361   25.7504 C   0  0  0  0  0  0
  -27.5579  -37.1734   24.8437 C   0  0  0  0  0  0
  -21.4332  -29.3028   22.3566 N   0  0  0  0  0  0
  -26.4261  -37.3710   23.9432 N   0  0  0  0  0  0
  -24.7451  -30.9962   22.0862 N   0  0  0  0  0  0
  -23.4245  -28.8003   23.2994 O   0  0  0  0  0  0
  -28.1871  -25.8266   20.2513 O   0  0  0  0  0  0
  -26.5689  -34.8879   22.4586 O   0  0  0  0  0  0
  -23.5658  -32.1252   23.6825 O   0  0  0  0  0  0
  -27.6950  -21.4620   20.2674 C   0  0  0  0  0  0
  -29.8382  -22.1218   20.0725 C   0  0  0  0  0  0
  -28.5015  -22.6733   20.1568 C   0  0  0  0  0  0
  -29.3845  -19.6675   20.2421 C   0  0  0  0  0  0
  -30.5065  -16.0506   23.4831 C   0  0  0  0  0  0
  -29.8004  -17.8836   18.3817 C   0  0  0  0  0  0
  -27.8298  -24.2697   19.9014 C   0  0  0  0  0  0
  -29.4293  -17.0344   22.9926 C   0  0  0  0  0  0
  -28.7473  -16.6945   21.6440 C   0  0  0  0  0  0
  -29.9397  -18.0432   19.9051 C   0  0  2  0  0  0
  -28.0893  -20.0966   20.2887 N   0  0  0  0  0  0
  -30.2242  -20.7499   20.1113 N   0  0  0  0  0  0
  -29.6980  -16.5306   20.5366 N   0  0  0  0  0  0
  -31.4525  -13.0237   19.1470 H   0  0  0  0  0  0
  -30.5462  -11.8737   20.0613 H   0  0  0  0  0  0
  -29.8992  -11.8044   17.6298 H   0  0  0  0  0  0
  -29.5453  -13.5120   17.6575 H   0  0  0  0  0  0
  -28.0100  -11.2885   19.0234 H   0  0  0  0  0  0
  -27.3980  -12.4186   17.8360 H   0  0  0  0  0  0
  -27.5573  -14.2609   19.3949 H   0  0  0  0  0  0
  -28.8678  -12.3299   21.3570 H   0  0  0  0  0  0
  -28.3319  -13.8731   21.8386 H   0  0  0  0  0  0
  -25.2808   -9.5679   22.4716 H   0  0  0  0  0  0
  -24.0037   -7.4630   22.7445 H   0  0  0  0  0  0
  -21.0865   -8.8773   19.8927 H   0  0  0  0  0  0
  -22.3739  -10.9666   19.6140 H   0  0  0  0  0  0
  -21.1994   -7.6154   23.9734 H   0  0  0  0  0  0
  -21.1464   -6.0516   25.9091 H   0  0  0  0  0  0
  -22.0600   -2.7613   23.2844 H   0  0  0  0  0  0
  -22.4077  -11.9833   22.4838 H   0  0  0  0  0  0
  -21.1052  -13.1151   22.2634 H   0  0  0  0  0  0
  -24.6460  -15.8521   20.5273 H   0  0  0  0  0  0
  -26.2675  -15.6342   20.1050 H   0  0  0  0  0  0
  -26.7356  -32.5160   23.0915 H   0  0  0  0  0  0
  -25.0125  -33.9569   25.0244 H   0  0  0  0  0  0
  -22.7813  -31.2681   21.3574 H   0  0  0  0  0  0
  -23.3797  -35.9473   23.3191 H   0  0  0  0  0  0
  -24.3595  -36.8958   22.2083 H   0  0  0  0  0  0
  -23.7178  -37.6311   23.6780 H   0  0  0  0  0  0
  -26.2265  -31.3824   20.6274 H   0  0  0  0  0  0
  -26.9007  -30.6929   22.0638 H   0  0  0  0  0  0
  -28.1346  -28.6005   21.2926 H   0  0  0  0  0  0
  -25.8541  -25.7691   18.9745 H   0  0  0  0  0  0
  -23.9931  -27.2937   18.9423 H   0  0  0  0  0  0
  -23.8614  -30.5356   19.3904 H   0  0  0  0  0  0
  -22.8209  -29.2159   19.8260 H   0  0  0  0  0  0
  -25.1326  -36.1720   25.0772 H   0  0  0  0  0  0
  -21.0024  -28.3328   24.1335 H   0  0  0  0  0  0
  -20.5691  -26.2357   23.3659 H   0  0  0  0  0  0
  -21.6664  -26.7419   22.1226 H   0  0  0  0  0  0
  -19.6945  -25.6276   21.1284 H   0  0  0  0  0  0
  -19.6748  -27.3163   20.6750 H   0  0  0  0  0  0
  -17.4247  -26.6730   21.3965 H   0  0  0  0  0  0
  -18.0301  -26.0149   22.9008 H   0  0  0  0  0  0
  -19.7976  -30.7324   24.2195 H   0  0  0  0  0  0
  -17.5047  -31.6272   24.5175 H   0  0  0  0  0  0
  -15.5377  -30.2975   23.7731 H   0  0  0  0  0  0
  -15.8691  -28.0818   22.7096 H   0  0  0  0  0  0
  -24.5851  -30.7213   25.7701 H   0  0  0  0  0  0
  -24.8848  -32.3093   26.4631 H   0  0  0  0  0  0
  -25.7870  -30.9148   27.0266 H   0  0  0  0  0  0
  -26.3100  -29.6626   24.1436 H   0  0  0  0  0  0
  -27.3911  -29.7277   25.5128 H   0  0  0  0  0  0
  -27.9066  -30.4109   23.9926 H   0  0  0  0  0  0
  -27.2685  -33.3739   26.1928 H   0  0  0  0  0  0
  -28.3963  -32.6804   25.0376 H   0  0  0  0  0  0
  -28.0657  -31.8582   26.5537 H   0  0  0  0  0  0
  -28.2489  -38.0132   24.7599 H   0  0  0  0  0  0
  -28.1168  -36.2665   24.6085 H   0  0  0  0  0  0
  -27.2331  -37.1152   25.8841 H   0  0  0  0  0  0
  -20.9580  -29.8739   21.6716 H   0  0  0  0  0  0
  -26.0065  -38.2728   24.1568 H   0  0  0  0  0  0
  -26.6225  -21.5827   20.2796 H   0  0  0  0  0  0
  -30.6602  -22.8036   19.9078 H   0  0  0  0  0  0
  -30.8104  -16.2942   24.5020 H   0  0  0  0  0  0
  -31.4068  -16.0939   22.8690 H   0  0  0  0  0  0
  -30.1494  -15.0201   23.4880 H   0  0  0  0  0  0
  -30.2725  -18.7181   17.8619 H   0  0  0  0  0  0
  -28.7489  -17.8711   18.0920 H   0  0  0  0  0  0
  -30.2624  -16.9695   18.0114 H   0  0  0  0  0  0
  -26.8167  -24.1526   20.2860 H   0  0  0  0  0  0
  -27.7019  -24.2933   18.8184 H   0  0  0  0  0  0
  -29.8769  -18.0277   22.9342 H   0  0  0  0  0  0
  -28.6553  -17.1130   23.7593 H   0  0  0  0  0  0
  -28.0517  -17.4954   21.3932 H   0  0  0  0  0  0
  -28.0798  -15.8508   21.7449 H   0  0  0  0  0  0
  -31.0088  -18.1515   20.0867 H   0  0  0  0  0  0
  1 25  1  0  0  0
  1 30  2  0  0  0
  1 83  1  0  0  0
  2  3  1  0  0  0
  2 25  1  0  0  0
  2 84  1  0  0  0
  2 85  1  0  0  0
  3  4  1  0  0  0
  3 86  1  0  0  0
  3 87  1  0  0  0
  4  5  1  0  0  0
  4 88  1  0  0  0
  4 89  1  0  0  0
  5  6  1  0  0  0
  5 26  1  0  0  0
  5 90  1  0  0  0
  6 25  1  0  0  0
  6 91  1  0  0  0
  6 92  1  0  0  0
  7  8  2  0  0  0
  7 26  1  0  0  0
  7 29  1  0  0  0
  8  9  1  0  0  0
  8 22  1  0  0  0
  9 10  1  0  0  0
  9 27  2  0  0  0
 10 11  2  0  0  0
 10 15  1  0  0  0
 11 12  1  0  0  0
 11 93  1  0  0  0
 12 13  2  0  0  0
 12 94  1  0  0  0
 13 14  1  0  0  0
 13 31  1  0  0  0
 14 15  2  0  0  0
 14 95  1  0  0  0
 15 96  1  0  0  0
 16 17  2  0  0  0
 16 21  1  0  0  0
 16 31  1  0  0  0
 17 18  1  0  0  0
 17 97  1  0  0  0
 18 19  2  0  0  0
 18 98  1  0  0  0
 19 20  1  0  0  0
 19 24  1  0  0  0
 20 21  2  0  0  0
 20 99  1  0  0  0
 21 23  1  0  0  0
 22 28  1  0  0  0
 22 32  2  0  0  0
 26 27  1  0  0  0
 28100  1  0  0  0
 28101  1  0  0  0
 29102  1  0  0  0
 29103  1  0  0  0
 33 34  1  0  0  0
 33 66  1  0  0  0
 33 70  2  0  0  0
 34 36  1  0  0  0
 34 59  1  0  0  0
 34104  1  0  0  0
 35 44  2  0  0  0
 35 45  1  0  0  0
 35 68  1  0  0  0
 36 56  1  0  0  0
 36105  1  0  0  0
 37 39  1  0  0  0
 37 47  1  0  0  0
 37 66  1  0  0  0
 37106  1  0  0  0
 38 43  2  0  0  0
 38 46  1  0  0  0
 38 47  1  0  0  0
 39 64  1  0  0  0
 39 67  2  0  0  0
 40 52  1  0  0  0
 40 53  2  0  0  0
 40 58  1  0  0  0
 41107  1  0  0  0
 41108  1  0  0  0
 41109  1  0  0  0
 41 48  1  0  0  0
 42 43  1  0  0  0
 42 66  1  0  0  0
 42110  1  0  0  0
 42111  1  0  0  0
 43 44  1  0  0  0
 44112  1  0  0  0
 45 46  2  0  0  0
 45113  1  0  0  0
 46114  1  0  0  0
 47115  1  0  0  0
 47116  1  0  0  0
 48 56  1  0  0  0
 48 65  1  0  0  0
 48117  1  0  0  0
 49 50  1  0  0  0
 49 53  1  0  0  0
 49 64  1  0  0  0
 49118  1  0  0  0
 50 51  1  0  0  0
 50119  1  0  0  0
 50120  1  0  0  0
 51 52  1  0  0  0
 51121  1  0  0  0
 51122  1  0  0  0
 52123  1  0  0  0
 52124  1  0  0  0
 53 54  1  0  0  0
 54 55  2  0  0  0
 54125  1  0  0  0
 55 57  1  0  0  0
 55126  1  0  0  0
 56 69  2  0  0  0
 57 58  2  0  0  0
 57127  1  0  0  0
 58128  1  0  0  0
 59 60  1  0  0  0
 59 61  1  0  0  0
 59 62  1  0  0  0
 60129  1  0  0  0
 60130  1  0  0  0
 60131  1  0  0  0
 61132  1  0  0  0
 61133  1  0  0  0
 61134  1  0  0  0
 62135  1  0  0  0
 62136  1  0  0  0
 62137  1  0  0  0
 63 65  1  0  0  0
 63138  1  0  0  0
 63139  1  0  0  0
 63140  1  0  0  0
 64141  1  0  0  0
 65142  1  0  0  0
 68 77  1  0  0  0
 71 73  2  0  0  0
 71 81  1  0  0  0
 71143  1  0  0  0
 72 73  1  0  0  0
 72 82  2  0  0  0
 72144  1  0  0  0
 73 77  1  0  0  0
 74 80  1  0  0  0
 74 81  2  0  0  0
 74 82  1  0  0  0
 75 78  1  0  0  0
 75145  1  0  0  0
 75146  1  0  0  0
 75147  1  0  0  0
 76148  1  0  0  0
 76149  1  0  0  0
 76150  1  0  0  0
 76 80  1  0  0  0
 77151  1  0  0  0
 77152  1  0  0  0
 78 79  1  0  0  0
 78153  1  0  0  0
 78154  1  0  0  0
 79 83  1  0  0  0
 79155  1  0  0  0
 79156  1  0  0  0
 80 83  1  0  0  0
 80157  1  0  0  0
M  ISO  4   1 100  68 101  77 101  83 100
M  END
> <chiral flag>
0

> <version>
0

> <s_m_source_file>
/data/baiqing/PycharmProjects/Reinvent-master-3.2/result/LINK_invent/BTK/process_docking_weight1_custom_sum_contain_oxygen_bond_distance_aromatic_linkinvent_7_9_3/rearranged_h_0057.sdf

> <i_m_source_file_index>
40

> <r_mmod_Potential_Energy-OPLS-2005>
843.420532226562

> <r_mmod_Stretch_Energy-OPLS-2005>
498.023864746094

> <r_mmod_Bend_Energy-OPLS-2005>
473.5185546875

> <r_mmod_Torsional_Energy-OPLS-2005>
267.235687255859

> <r_mmod_Improper_Torsional_Energy-OPLS-2005>
10.6014099121094

> <r_mmod_Van_der_Waal_Energy-OPLS-2005>
138.349502563477

> <r_mmod_Electrostatic_Energy-OPLS-2005>
-754.993591308594

> <r_mmod_Solvation_Energy-OPLS-2005>
-209.693634033203

> <b_mmod_Minimization_Converged-OPLS-2005>
0

> <r_mmod_RMS_Derivative-OPLS-2005>
3.00119543075562

$$$$
40
                    3D
 Structure written by MMmdl.
155163  0  0  1  0            999 V2000
  -30.6579  -14.5981   20.4542 C   0  0  0  0  0  0
  -30.4244  -12.3536   19.4483 C   0  0  0  0  0  0
  -29.4966  -12.4551   18.2183 C   0  0  0  0  0  0
  -28.0170  -12.3304   18.6324 C   0  0  0  0  0  0
  -27.6459  -13.2176   19.8513 C   0  0  2  0  0  0
  -28.6937  -13.1029   20.9810 C   0  0  0  0  0  0
  -25.2540  -13.8189   20.5700 C   0  0  0  0  0  0
  -24.1804  -13.0455   20.9201 C   0  0  0  0  0  0
  -24.6371  -11.6921   20.8754 C   0  0  0  0  0  0
  -23.9050  -10.4301   21.0413 C   0  0  0  0  0  0
  -24.3604   -9.4213   21.9191 C   0  0  0  0  0  0
  -23.6285   -8.2244   22.0758 C   0  0  0  0  0  0
  -22.4270   -8.0276   21.3546 C   0  0  0  0  0  0
  -21.9901   -9.0250   20.4648 C   0  0  0  0  0  0
  -22.7225  -10.2136   20.3059 C   0  0  0  0  0  0
  -21.6855   -6.0727   22.5278 C   0  0  0  0  0  0
  -21.4012   -6.5638   23.8206 C   0  0  0  0  0  0
  -21.3653   -5.6794   24.9175 C   0  0  0  0  0  0
  -21.6041   -4.3052   24.7230 C   0  0  0  0  0  0
  -21.8823   -3.8145   23.4350 C   0  0  0  0  0  0
  -21.9192   -4.6957   22.3408 C   0  0  0  0  0  0
  -22.7822  -13.5248   21.1850 C   0  0  0  0  0  0
  -22.1663   -4.2138   21.0983 F   0  0  0  0  0  0
  -21.5628   -3.4540   25.7744 F   0  0  0  0  0  0
  -30.0069  -13.3995   20.3978 N   0  0  0  0  0  0
  -26.2950  -12.9368   20.3304 N   0  0  0  0  0  0
  -25.9301  -11.6525   20.5776 N   0  0  0  0  0  0
  -22.0458  -12.8240   22.0403 N   0  0  0  0  0  0
  -25.4272  -15.1906   20.4119 N   0  0  0  0  0  0
  -31.8617  -14.6839   20.1935 O   0  0  0  0  0  0
  -21.6638   -6.8869   21.4236 O   0  0  0  0  0  0
  -22.3506  -14.5540   20.6680 O   0  0  0  0  0  0
  -24.6221  -31.8634   23.2032 C   0  0  0  0  0  0
  -25.9097  -32.4797   23.8340 C   0  0  1  0  0  0
  -27.2301  -27.3670   20.1029 C   0  0  0  0  0  0
  -25.5957  -33.8595   24.2304 N   0  0  0  0  0  0
  -23.4101  -30.4842   21.5474 C   0  0  2  0  0  0
  -24.8542  -28.9423   20.1102 C   0  0  0  0  0  0
  -22.7440  -29.4630   22.4976 C   0  0  0  0  0  0
  -18.0278  -28.1387   22.8493 C   0  0  0  0  0  0
  -24.1489  -36.7274   23.2626 C   0  0  0  0  0  0
  -25.9438  -30.8086   21.3646 C   0  0  0  0  0  0
  -26.0168  -29.4377   20.7113 C   0  0  0  0  0  0
  -27.2032  -28.6581   20.7020 C   0  0  0  0  0  0
  -26.0394  -26.8991   19.5011 C   0  0  0  0  0  0
  -24.8642  -27.6763   19.5013 C   0  0  0  0  0  0
  -23.6193  -29.8154   20.1628 C   0  0  0  0  0  0
  -25.4111  -36.3084   24.0330 C   0  0  1  0  0  0
  -20.5869  -28.3675   23.1307 C   0  0  2  0  0  0
  -20.6767  -26.9404   22.5413 C   0  0  0  0  0  0
  -19.5737  -26.6380   21.5216 C   0  0  0  0  0  0
  -18.1919  -26.7928   22.1626 C   0  0  0  0  0  0
  -19.1531  -28.8844   23.2895 C   0  0  0  0  0  0
  -18.9453  -30.1455   23.8899 C   0  0  0  0  0  0
  -17.6456  -30.6589   24.0561 C   0  0  0  0  0  0
  -25.9048  -34.9464   23.5103 C   0  0  0  0  0  0
  -16.5344  -29.9092   23.6328 C   0  0  0  0  0  0
  -16.7271  -28.6507   23.0348 C   0  0  0  0  0  0
  -26.4507  -31.6586   25.0692 C   0  0  0  0  0  0
  -25.3760  -31.3751   26.1440 C   0  0  0  0  0  0
  -27.0322  -30.3015   24.6100 C   0  0  0  0  0  0
  -27.6059  -32.4315   25.7485 C   0  0  0  0  0  0
  -27.5579  -37.1790   24.8468 C   0  0  0  0  0  0
  -21.4162  -29.3024   22.3709 N   0  0  0  0  0  0
  -26.4288  -37.3779   23.9427 N   0  0  0  0  0  0
  -24.6770  -31.0682   22.0965 N   0  0  0  0  0  0
  -23.4191  -28.8191   23.3047 O   0  0  0  0  0  0
  -28.4017  -26.6136   20.1520 O   0  0  0  0  0  0
  -26.5579  -34.8919   22.4653 O   0  0  0  0  0  0
  -23.5398  -32.1431   23.7403 O   0  0  0  0  0  0
  -29.9222  -20.4631   20.4027 C   0  0  0  0  0  0
  -28.8716  -21.3337   20.2148 C   0  0  0  0  0  0
  -29.9295  -16.3094   18.8818 C   0  0  0  0  0  0
  -28.8384  -22.7116   19.5284 C   0  0  0  0  0  0
  -28.4549  -24.0052   20.3404 C   0  0  0  0  0  0
  -30.0585  -18.0404   21.3464 C   0  0  0  0  0  0
  -29.3259  -16.6427   21.2247 C   0  0  0  0  0  0
  -28.5434  -25.3248   19.4818 C   0  0  0  0  0  0
  -27.7195  -20.6467   20.6103 N   0  0  0  0  0  0
  -28.0270  -19.4465   21.0317 N   0  0  0  0  0  0
  -29.3654  -19.2763   20.8828 N   0  0  0  0  0  0
  -29.8684  -15.6940   20.2127 N   0  0  0  0  0  0
  -31.4668  -12.4607   19.1415 H   0  0  0  0  0  0
  -30.3471  -11.3701   19.9138 H   0  0  0  0  0  0
  -29.7457  -11.6743   17.4981 H   0  0  0  0  0  0
  -29.6562  -13.3994   17.6999 H   0  0  0  0  0  0
  -27.8337  -11.2822   18.8694 H   0  0  0  0  0  0
  -27.3690  -12.5648   17.7868 H   0  0  0  0  0  0
  -27.6529  -14.2457   19.4902 H   0  0  0  0  0  0
  -28.6900  -12.1022   21.4146 H   0  0  0  0  0  0
  -28.4620  -13.7950   21.7924 H   0  0  0  0  0  0
  -25.2750   -9.5689   22.4763 H   0  0  0  0  0  0
  -23.9995   -7.4634   22.7477 H   0  0  0  0  0  0
  -21.0835   -8.8764   19.8956 H   0  0  0  0  0  0
  -22.3682  -10.9668   19.6161 H   0  0  0  0  0  0
  -21.2006   -7.6145   23.9704 H   0  0  0  0  0  0
  -21.1468   -6.0528   25.9071 H   0  0  0  0  0  0
  -22.0606   -2.7606   23.2860 H   0  0  0  0  0  0
  -22.4077  -11.9913   22.4806 H   0  0  0  0  0  0
  -21.1061  -13.1249   22.2582 H   0  0  0  0  0  0
  -24.6665  -15.8515   20.5238 H   0  0  0  0  0  0
  -26.2871  -15.6235   20.1000 H   0  0  0  0  0  0
  -26.7160  -32.5493   23.1078 H   0  0  0  0  0  0
  -25.0209  -33.9750   25.0519 H   0  0  0  0  0  0
  -22.7001  -31.3021   21.4059 H   0  0  0  0  0  0
  -23.3766  -35.9594   23.3305 H   0  0  0  0  0  0
  -24.3568  -36.8871   22.2034 H   0  0  0  0  0  0
  -23.7215  -37.6471   23.6633 H   0  0  0  0  0  0
  -26.0598  -31.5718   20.5932 H   0  0  0  0  0  0
  -26.8304  -30.8623   21.9850 H   0  0  0  0  0  0
  -28.1000  -29.0364   21.1725 H   0  0  0  0  0  0
  -25.9820  -25.9215   19.0484 H   0  0  0  0  0  0
  -23.9661  -27.2874   19.0407 H   0  0  0  0  0  0
  -23.7281  -30.5899   19.4024 H   0  0  0  0  0  0
  -22.7398  -29.2382   19.8689 H   0  0  0  0  0  0
  -25.1282  -36.1921   25.0816 H   0  0  0  0  0  0
  -20.9952  -28.3248   24.1432 H   0  0  0  0  0  0
  -20.5672  -26.2282   23.3613 H   0  0  0  0  0  0
  -21.6639  -26.7442   22.1200 H   0  0  0  0  0  0
  -19.6888  -25.6294   21.1237 H   0  0  0  0  0  0
  -19.6674  -27.3201   20.6761 H   0  0  0  0  0  0
  -17.4190  -26.6687   21.4029 H   0  0  0  0  0  0
  -18.0310  -26.0077   22.9028 H   0  0  0  0  0  0
  -19.7933  -30.7274   24.2258 H   0  0  0  0  0  0
  -17.5016  -31.6272   24.5170 H   0  0  0  0  0  0
  -15.5346  -30.2997   23.7652 H   0  0  0  0  0  0
  -15.8673  -28.0835   22.7055 H   0  0  0  0  0  0
  -24.5940  -30.7070   25.7822 H   0  0  0  0  0  0
  -24.8948  -32.2941   26.4804 H   0  0  0  0  0  0
  -25.8104  -30.9001   27.0247 H   0  0  0  0  0  0
  -26.2879  -29.6800   24.1106 H   0  0  0  0  0  0
  -27.4024  -29.7223   25.4570 H   0  0  0  0  0  0
  -27.8756  -30.4316   23.9307 H   0  0  0  0  0  0
  -27.2649  -33.3615   26.2054 H   0  0  0  0  0  0
  -28.3895  -32.6876   25.0340 H   0  0  0  0  0  0
  -28.0706  -31.8445   26.5416 H   0  0  0  0  0  0
  -28.2594  -38.0090   24.7529 H   0  0  0  0  0  0
  -28.1068  -36.2617   24.6280 H   0  0  0  0  0  0
  -27.2296  -37.1429   25.8869 H   0  0  0  0  0  0
  -20.9332  -29.8745   21.6928 H   0  0  0  0  0  0
  -26.0166  -38.2850   24.1449 H   0  0  0  0  0  0
  -30.9845  -20.5724   20.2170 H   0  0  0  0  0  0
  -29.0167  -16.8657   18.6637 H   0  0  0  0  0  0
  -30.0515  -15.5680   18.0928 H   0  0  0  0  0  0
  -30.7722  -16.9964   18.8072 H   0  0  0  0  0  0
  -28.1608  -22.6495   18.6771 H   0  0  0  0  0  0
  -29.8169  -22.8881   19.0802 H   0  0  0  0  0  0
  -29.1222  -24.0940   21.1983 H   0  0  0  0  0  0
  -27.4481  -23.8973   20.7429 H   0  0  0  0  0  0
  -31.0413  -17.9996   20.8763 H   0  0  0  0  0  0
  -30.2713  -18.2056   22.4033 H   0  0  0  0  0  0
  -28.2602  -16.7768   21.0415 H   0  0  0  0  0  0
  -29.3785  -16.1502   22.1966 H   0  0  0  0  0  0
  -27.9140  -25.2464   18.5979 H   0  0  0  0  0  0
  -29.5508  -25.3561   19.0676 H   0  0  0  0  0  0
  1 25  1  0  0  0
  1 30  2  0  0  0
  1 82  1  0  0  0
  2  3  1  0  0  0
  2 25  1  0  0  0
  2 83  1  0  0  0
  2 84  1  0  0  0
  3  4  1  0  0  0
  3 85  1  0  0  0
  3 86  1  0  0  0
  4  5  1  0  0  0
  4 87  1  0  0  0
  4 88  1  0  0  0
  5  6  1  0  0  0
  5 26  1  0  0  0
  5 89  1  0  0  0
  6 25  1  0  0  0
  6 90  1  0  0  0
  6 91  1  0  0  0
  7  8  2  0  0  0
  7 26  1  0  0  0
  7 29  1  0  0  0
  8  9  1  0  0  0
  8 22  1  0  0  0
  9 10  1  0  0  0
  9 27  2  0  0  0
 10 11  2  0  0  0
 10 15  1  0  0  0
 11 12  1  0  0  0
 11 92  1  0  0  0
 12 13  2  0  0  0
 12 93  1  0  0  0
 13 14  1  0  0  0
 13 31  1  0  0  0
 14 15  2  0  0  0
 14 94  1  0  0  0
 15 95  1  0  0  0
 16 17  2  0  0  0
 16 21  1  0  0  0
 16 31  1  0  0  0
 17 18  1  0  0  0
 17 96  1  0  0  0
 18 19  2  0  0  0
 18 97  1  0  0  0
 19 20  1  0  0  0
 19 24  1  0  0  0
 20 21  2  0  0  0
 20 98  1  0  0  0
 21 23  1  0  0  0
 22 28  1  0  0  0
 22 32  2  0  0  0
 26 27  1  0  0  0
 28 99  1  0  0  0
 28100  1  0  0  0
 29101  1  0  0  0
 29102  1  0  0  0
 33 34  1  0  0  0
 33 66  1  0  0  0
 33 70  2  0  0  0
 34 36  1  0  0  0
 34 59  1  0  0  0
 34103  1  0  0  0
 35 44  2  0  0  0
 35 45  1  0  0  0
 35 68  1  0  0  0
 36 56  1  0  0  0
 36104  1  0  0  0
 37 39  1  0  0  0
 37 47  1  0  0  0
 37 66  1  0  0  0
 37105  1  0  0  0
 38 43  2  0  0  0
 38 46  1  0  0  0
 38 47  1  0  0  0
 39 64  1  0  0  0
 39 67  2  0  0  0
 40 52  1  0  0  0
 40 53  2  0  0  0
 40 58  1  0  0  0
 41106  1  0  0  0
 41107  1  0  0  0
 41108  1  0  0  0
 41 48  1  0  0  0
 42 43  1  0  0  0
 42 66  1  0  0  0
 42109  1  0  0  0
 42110  1  0  0  0
 43 44  1  0  0  0
 44111  1  0  0  0
 45 46  2  0  0  0
 45112  1  0  0  0
 46113  1  0  0  0
 47114  1  0  0  0
 47115  1  0  0  0
 48 56  1  0  0  0
 48 65  1  0  0  0
 48116  1  0  0  0
 49 50  1  0  0  0
 49 53  1  0  0  0
 49 64  1  0  0  0
 49117  1  0  0  0
 50 51  1  0  0  0
 50118  1  0  0  0
 50119  1  0  0  0
 51 52  1  0  0  0
 51120  1  0  0  0
 51121  1  0  0  0
 52122  1  0  0  0
 52123  1  0  0  0
 53 54  1  0  0  0
 54 55  2  0  0  0
 54124  1  0  0  0
 55 57  1  0  0  0
 55125  1  0  0  0
 56 69  2  0  0  0
 57 58  2  0  0  0
 57126  1  0  0  0
 58127  1  0  0  0
 59 60  1  0  0  0
 59 61  1  0  0  0
 59 62  1  0  0  0
 60128  1  0  0  0
 60129  1  0  0  0
 60130  1  0  0  0
 61131  1  0  0  0
 61132  1  0  0  0
 61133  1  0  0  0
 62134  1  0  0  0
 62135  1  0  0  0
 62136  1  0  0  0
 63 65  1  0  0  0
 63137  1  0  0  0
 63138  1  0  0  0
 63139  1  0  0  0
 64140  1  0  0  0
 65141  1  0  0  0
 68 78  1  0  0  0
 71 72  2  0  0  0
 71 81  1  0  0  0
 71142  1  0  0  0
 72 74  1  0  0  0
 72 79  1  0  0  0
 73 82  1  0  0  0
 73143  1  0  0  0
 73144  1  0  0  0
 73145  1  0  0  0
 74 75  1  0  0  0
 74146  1  0  0  0
 74147  1  0  0  0
 75 78  1  0  0  0
 75148  1  0  0  0
 75149  1  0  0  0
 76 77  1  0  0  0
 76 81  1  0  0  0
 76150  1  0  0  0
 76151  1  0  0  0
 77 82  1  0  0  0
 77152  1  0  0  0
 77153  1  0  0  0
 78154  1  0  0  0
 78155  1  0  0  0
 79 80  2  0  0  0
 80 81  1  0  0  0
M  ISO  4   1 100  68 101  78 101  82 100
M  END
> <chiral flag>
0

> <version>
0

> <s_m_source_file>
/data/baiqing/PycharmProjects/Reinvent-master-3.2/result/LINK_invent/BTK/process_docking_weight1_custom_sum_contain_oxygen_bond_distance_aromatic_linkinvent_7_9_3/rearranged_h_0057.sdf

> <i_m_source_file_index>
41

> <r_mmod_Potential_Energy-OPLS-2005>
129.921142578125

> <r_mmod_Stretch_Energy-OPLS-2005>
56.8531303405762

> <r_mmod_Bend_Energy-OPLS-2005>
135.211029052734

> <r_mmod_Torsional_Energy-OPLS-2005>
301.359375

> <r_mmod_Improper_Torsional_Energy-OPLS-2005>
22.476692199707

> <r_mmod_Van_der_Waal_Energy-OPLS-2005>
116.216400146484

> <r_mmod_Electrostatic_Energy-OPLS-2005>
-325.192413330078

> <r_mmod_Solvation_Energy-OPLS-2005>
-214.646667480469

> <b_mmod_Minimization_Converged-OPLS-2005>
0

> <r_mmod_RMS_Derivative-OPLS-2005>
1.95126008987427

$$$$
41
                    3D
 Structure written by MMmdl.
173181  0  0  1  0            999 V2000
  -30.7095  -14.6371   20.3727 C   0  0  0  0  0  0
  -30.4305  -12.3727   19.4294 C   0  0  0  0  0  0
  -29.4830  -12.4116   18.2142 C   0  0  0  0  0  0
  -28.0012  -12.3248   18.6442 C   0  0  0  0  0  0
  -27.6289  -13.1945   19.8793 C   0  0  2  0  0  0
  -28.7206  -13.1532   20.9732 C   0  0  0  0  0  0
  -25.2477  -13.8060   20.5905 C   0  0  0  0  0  0
  -24.1714  -13.0320   20.9271 C   0  0  0  0  0  0
  -24.6300  -11.6807   20.8896 C   0  0  0  0  0  0
  -23.8991  -10.4211   21.0498 C   0  0  0  0  0  0
  -24.3536   -9.4113   21.9246 C   0  0  0  0  0  0
  -23.6214   -8.2149   22.0785 C   0  0  0  0  0  0
  -22.4207   -8.0223   21.3540 C   0  0  0  0  0  0
  -21.9850   -9.0203   20.4658 C   0  0  0  0  0  0
  -22.7187  -10.2085   20.3098 C   0  0  0  0  0  0
  -21.6808   -6.0690   22.5265 C   0  0  0  0  0  0
  -21.3983   -6.5607   23.8194 C   0  0  0  0  0  0
  -21.3645   -5.6772   24.9161 C   0  0  0  0  0  0
  -21.6045   -4.3031   24.7229 C   0  0  0  0  0  0
  -21.8830   -3.8113   23.4352 C   0  0  0  0  0  0
  -21.9178   -4.6922   22.3400 C   0  0  0  0  0  0
  -22.7726  -13.5192   21.1779 C   0  0  0  0  0  0
  -22.1654   -4.2095   21.0976 F   0  0  0  0  0  0
  -21.5636   -3.4541   25.7753 F   0  0  0  0  0  0
  -30.0146  -13.4542   20.3354 N   0  0  0  0  0  0
  -26.2900  -12.9160   20.3679 N   0  0  0  0  0  0
  -25.9240  -11.6345   20.6058 N   0  0  0  0  0  0
  -22.0297  -12.8266   22.0352 N   0  0  0  0  0  0
  -25.4149  -15.1806   20.4381 N   0  0  0  0  0  0
  -31.9381  -14.6589   20.2696 O   0  0  0  0  0  0
  -21.6575   -6.8819   21.4231 O   0  0  0  0  0  0
  -22.3487  -14.5457   20.6550 O   0  0  0  0  0  0
  -24.6153  -31.8710   23.2009 C   0  0  0  0  0  0
  -25.9034  -32.4844   23.8324 C   0  0  1  0  0  0
  -27.2173  -27.3987   20.1035 C   0  0  0  0  0  0
  -25.5815  -33.8633   24.2215 N   0  0  0  0  0  0
  -23.4017  -30.4866   21.5513 C   0  0  2  0  0  0
  -24.8389  -28.9518   20.1096 C   0  0  0  0  0  0
  -22.7475  -29.4608   22.5034 C   0  0  0  0  0  0
  -18.0251  -28.1385   22.8442 C   0  0  0  0  0  0
  -24.1516  -36.7357   23.2636 C   0  0  0  0  0  0
  -25.9287  -30.8286   21.3518 C   0  0  0  0  0  0
  -26.0022  -29.4575   20.7037 C   0  0  0  0  0  0
  -27.1906  -28.6866   20.6948 C   0  0  0  0  0  0
  -26.0330  -26.9252   19.4869 C   0  0  0  0  0  0
  -24.8491  -27.6877   19.4970 C   0  0  0  0  0  0
  -23.6068  -29.8256   20.1636 C   0  0  0  0  0  0
  -25.4132  -36.3083   24.0293 C   0  0  1  0  0  0
  -20.5851  -28.3668   23.1325 C   0  0  2  0  0  0
  -20.6786  -26.9412   22.5434 C   0  0  0  0  0  0
  -19.5714  -26.6373   21.5269 C   0  0  0  0  0  0
  -18.1891  -26.7905   22.1657 C   0  0  0  0  0  0
  -19.1510  -28.8879   23.2836 C   0  0  0  0  0  0
  -18.9462  -30.1498   23.8823 C   0  0  0  0  0  0
  -17.6460  -30.6595   24.0574 C   0  0  0  0  0  0
  -25.9061  -34.9474   23.5065 C   0  0  0  0  0  0
  -16.5345  -29.9093   23.6321 C   0  0  0  0  0  0
  -16.7242  -28.6538   23.0260 C   0  0  0  0  0  0
  -26.4407  -31.6624   25.0661 C   0  0  0  0  0  0
  -25.3610  -31.3798   26.1359 C   0  0  0  0  0  0
  -27.0217  -30.3030   24.6045 C   0  0  0  0  0  0
  -27.5914  -32.4404   25.7450 C   0  0  0  0  0  0
  -27.5601  -37.1809   24.8448 C   0  0  0  0  0  0
  -21.4195  -29.3009   22.3790 N   0  0  0  0  0  0
  -26.4319  -37.3769   23.9380 N   0  0  0  0  0  0
  -24.6675  -31.0822   22.0903 N   0  0  0  0  0  0
  -23.4312  -28.8191   23.3057 O   0  0  0  0  0  0
  -28.3910  -26.6639   20.1656 O   0  0  0  0  0  0
  -26.5745  -34.8931   22.4701 O   0  0  0  0  0  0
  -23.5351  -32.1430   23.7462 O   0  0  0  0  0  0
  -30.2395  -18.4651   20.5259 C   0  0  0  0  0  0
  -30.3593  -20.1757   19.2938 C   0  0  0  0  0  0
  -29.4372  -20.9901   17.0284 C   0  0  0  0  0  0
  -28.0417  -16.9007   19.0354 C   0  0  0  0  0  0
  -30.2180  -16.3222   17.6804 C   0  0  0  0  0  0
  -26.7987  -24.2970   21.5039 C   0  0  0  0  0  0
  -29.1731  -24.6121   22.1463 C   0  0  0  0  0  0
  -30.3639  -17.0238   21.0522 C   0  0  0  0  0  0
  -30.5615  -21.0694   18.0932 C   0  0  0  0  0  0
  -28.5107  -22.7320   20.4801 C   0  0  0  0  0  0
  -29.7528  -21.9603   21.0359 C   0  0  0  0  0  0
  -28.4379  -25.2567   19.8146 C   0  0  0  0  0  0
  -29.3224  -16.0462   18.9119 C   0  0  0  0  0  0
  -28.2456  -24.2183   20.9775 C   0  0  0  0  0  0
  -30.6166  -18.8707   19.2760 N   0  0  0  0  0  0
  -29.8597  -19.4843   21.3146 N   0  0  0  0  0  0
  -29.9499  -20.5920   20.5052 N   0  0  0  0  0  0
  -30.0145  -15.8138   20.2139 N   0  0  0  0  0  0
  -31.4619  -12.4919   19.0913 H   0  0  0  0  0  0
  -30.3844  -11.4053   19.9321 H   0  0  0  0  0  0
  -29.7136  -11.5803   17.5471 H   0  0  0  0  0  0
  -29.6581  -13.3064   17.6206 H   0  0  0  0  0  0
  -27.7998  -11.2760   18.8671 H   0  0  0  0  0  0
  -27.3521  -12.5773   17.8055 H   0  0  0  0  0  0
  -27.5355  -14.2108   19.5437 H   0  0  0  0  0  0
  -28.7560  -12.1730   21.4527 H   0  0  0  0  0  0
  -28.5040  -13.8790   21.7581 H   0  0  0  0  0  0
  -25.2675   -9.5569   22.4823 H   0  0  0  0  0  0
  -23.9906   -7.4538   22.7506 H   0  0  0  0  0  0
  -21.0788   -8.8730   19.8964 H   0  0  0  0  0  0
  -22.3670  -10.9628   19.6202 H   0  0  0  0  0  0
  -21.1966   -7.6114   23.9688 H   0  0  0  0  0  0
  -21.1463   -6.0498   25.9064 H   0  0  0  0  0  0
  -22.0634   -2.7576   23.2870 H   0  0  0  0  0  0
  -22.3844  -11.9990   22.4895 H   0  0  0  0  0  0
  -21.0899  -13.1346   22.2380 H   0  0  0  0  0  0
  -24.6524  -15.8348   20.5643 H   0  0  0  0  0  0
  -26.2837  -15.6346   20.1901 H   0  0  0  0  0  0
  -26.7119  -32.5555   23.1111 H   0  0  0  0  0  0
  -24.9688  -33.9816   25.0151 H   0  0  0  0  0  0
  -22.6748  -31.2901   21.4196 H   0  0  0  0  0  0
  -23.3740  -35.9745   23.3306 H   0  0  0  0  0  0
  -24.3539  -36.9044   22.2041 H   0  0  0  0  0  0
  -23.7354  -37.6570   23.6712 H   0  0  0  0  0  0
  -26.0387  -31.5942   20.5838 H   0  0  0  0  0  0
  -26.8199  -30.8846   21.9636 H   0  0  0  0  0  0
  -28.0873  -29.0784   21.1567 H   0  0  0  0  0  0
  -25.9874  -25.9720   18.9865 H   0  0  0  0  0  0
  -23.9496  -27.3012   19.0325 H   0  0  0  0  0  0
  -23.7195  -30.6043   19.4094 H   0  0  0  0  0  0
  -22.7294  -29.2504   19.8656 H   0  0  0  0  0  0
  -25.1332  -36.1870   25.0783 H   0  0  0  0  0  0
  -20.9871  -28.3264   24.1457 H   0  0  0  0  0  0
  -20.5840  -26.2270   23.3628 H   0  0  0  0  0  0
  -21.6627  -26.7560   22.1115 H   0  0  0  0  0  0
  -19.6913  -25.6295   21.1247 H   0  0  0  0  0  0
  -19.6626  -27.3254   20.6840 H   0  0  0  0  0  0
  -17.4181  -26.6636   21.4044 H   0  0  0  0  0  0
  -18.0236  -26.0117   22.9097 H   0  0  0  0  0  0
  -19.7962  -30.7313   24.2135 H   0  0  0  0  0  0
  -17.5024  -31.6229   24.5244 H   0  0  0  0  0  0
  -15.5347  -30.2987   23.7726 H   0  0  0  0  0  0
  -15.8612  -28.0948   22.6898 H   0  0  0  0  0  0
  -24.5771  -30.7150   25.7684 H   0  0  0  0  0  0
  -24.8793  -32.3008   26.4647 H   0  0  0  0  0  0
  -25.7863  -30.9035   27.0198 H   0  0  0  0  0  0
  -26.2737  -29.6787   24.1121 H   0  0  0  0  0  0
  -27.3948  -29.7218   25.4485 H   0  0  0  0  0  0
  -27.8583  -30.4270   23.9168 H   0  0  0  0  0  0
  -27.2425  -33.3723   26.1912 H   0  0  0  0  0  0
  -28.3739  -32.6999   25.0301 H   0  0  0  0  0  0
  -28.0513  -31.8613   26.5455 H   0  0  0  0  0  0
  -28.2569  -38.0156   24.7517 H   0  0  0  0  0  0
  -28.1144  -36.2671   24.6236 H   0  0  0  0  0  0
  -27.2307  -37.1422   25.8854 H   0  0  0  0  0  0
  -20.9441  -29.8636   21.6873 H   0  0  0  0  0  0
  -26.0192  -38.2850   24.1340 H   0  0  0  0  0  0
  -29.6247  -21.6903   16.2108 H   0  0  0  0  0  0
  -28.4614  -21.2470   17.4446 H   0  0  0  0  0  0
  -29.3534  -20.0013   16.5713 H   0  0  0  0  0  0
  -27.2418  -16.4784   18.4231 H   0  0  0  0  0  0
  -28.1874  -17.9244   18.6901 H   0  0  0  0  0  0
  -27.6849  -16.9442   20.0681 H   0  0  0  0  0  0
  -29.6116  -16.7022   16.8556 H   0  0  0  0  0  0
  -30.6989  -15.4091   17.3335 H   0  0  0  0  0  0
  -31.0300  -17.0243   17.8340 H   0  0  0  0  0  0
  -26.6442  -23.6500   22.3683 H   0  0  0  0  0  0
  -26.0742  -23.9994   20.7460 H   0  0  0  0  0  0
  -26.5516  -25.3099   21.8184 H   0  0  0  0  0  0
  -29.1236  -23.8862   22.9566 H   0  0  0  0  0  0
  -28.8940  -25.5717   22.5894 H   0  0  0  0  0  0
  -30.2117  -24.6931   21.8246 H   0  0  0  0  0  0
  -29.7449  -16.9519   21.9485 H   0  0  0  0  0  0
  -31.3856  -16.9299   21.4249 H   0  0  0  0  0  0
  -31.5065  -20.7934   17.6204 H   0  0  0  0  0  0
  -30.7043  -22.0984   18.4205 H   0  0  0  0  0  0
  -27.6456  -22.1153   20.7191 H   0  0  0  0  0  0
  -28.5477  -22.7087   19.3903 H   0  0  0  0  0  0
  -29.7052  -21.9009   22.1263 H   0  0  0  0  0  0
  -30.6537  -22.5294   20.8058 H   0  0  0  0  0  0
  -27.7971  -25.0156   18.9722 H   0  0  0  0  0  0
  -29.4429  -25.1152   19.4181 H   0  0  0  0  0  0
  -28.9520  -15.0959   18.5739 H   0  0  0  0  0  0
  1 25  1  0  0  0
  1 30  2  0  0  0
  1 88  1  0  0  0
  2  3  1  0  0  0
  2 25  1  0  0  0
  2 89  1  0  0  0
  2 90  1  0  0  0
  3  4  1  0  0  0
  3 91  1  0  0  0
  3 92  1  0  0  0
  4  5  1  0  0  0
  4 93  1  0  0  0
  4 94  1  0  0  0
  5  6  1  0  0  0
  5 26  1  0  0  0
  5 95  1  0  0  0
  6 25  1  0  0  0
  6 96  1  0  0  0
  6 97  1  0  0  0
  7  8  2  0  0  0
  7 26  1  0  0  0
  7 29  1  0  0  0
  8  9  1  0  0  0
  8 22  1  0  0  0
  9 10  1  0  0  0
  9 27  2  0  0  0
 10 11  2  0  0  0
 10 15  1  0  0  0
 11 12  1  0  0  0
 11 98  1  0  0  0
 12 13  2  0  0  0
 12 99  1  0  0  0
 13 14  1  0  0  0
 13 31  1  0  0  0
 14 15  2  0  0  0
 14100  1  0  0  0
 15101  1  0  0  0
 16 17  2  0  0  0
 16 21  1  0  0  0
 16 31  1  0  0  0
 17 18  1  0  0  0
 17102  1  0  0  0
 18 19  2  0  0  0
 18103  1  0  0  0
 19 20  1  0  0  0
 19 24  1  0  0  0
 20 21  2  0  0  0
 20104  1  0  0  0
 21 23  1  0  0  0
 22 28  1  0  0  0
 22 32  2  0  0  0
 26 27  1  0  0  0
 28105  1  0  0  0
 28106  1  0  0  0
 29107  1  0  0  0
 29108  1  0  0  0
 33 34  1  0  0  0
 33 66  1  0  0  0
 33 70  2  0  0  0
 34 36  1  0  0  0
 34 59  1  0  0  0
 34109  1  0  0  0
 35 44  2  0  0  0
 35 45  1  0  0  0
 35 68  1  0  0  0
 36 56  1  0  0  0
 36110  1  0  0  0
 37 39  1  0  0  0
 37 47  1  0  0  0
 37 66  1  0  0  0
 37111  1  0  0  0
 38 43  2  0  0  0
 38 46  1  0  0  0
 38 47  1  0  0  0
 39 64  1  0  0  0
 39 67  2  0  0  0
 40 52  1  0  0  0
 40 53  2  0  0  0
 40 58  1  0  0  0
 41112  1  0  0  0
 41113  1  0  0  0
 41114  1  0  0  0
 41 48  1  0  0  0
 42 43  1  0  0  0
 42 66  1  0  0  0
 42115  1  0  0  0
 42116  1  0  0  0
 43 44  1  0  0  0
 44117  1  0  0  0
 45 46  2  0  0  0
 45118  1  0  0  0
 46119  1  0  0  0
 47120  1  0  0  0
 47121  1  0  0  0
 48 56  1  0  0  0
 48 65  1  0  0  0
 48122  1  0  0  0
 49 50  1  0  0  0
 49 53  1  0  0  0
 49 64  1  0  0  0
 49123  1  0  0  0
 50 51  1  0  0  0
 50124  1  0  0  0
 50125  1  0  0  0
 51 52  1  0  0  0
 51126  1  0  0  0
 51127  1  0  0  0
 52128  1  0  0  0
 52129  1  0  0  0
 53 54  1  0  0  0
 54 55  2  0  0  0
 54130  1  0  0  0
 55 57  1  0  0  0
 55131  1  0  0  0
 56 69  2  0  0  0
 57 58  2  0  0  0
 57132  1  0  0  0
 58133  1  0  0  0
 59 60  1  0  0  0
 59 61  1  0  0  0
 59 62  1  0  0  0
 60134  1  0  0  0
 60135  1  0  0  0
 60136  1  0  0  0
 61137  1  0  0  0
 61138  1  0  0  0
 61139  1  0  0  0
 62140  1  0  0  0
 62141  1  0  0  0
 62142  1  0  0  0
 63 65  1  0  0  0
 63143  1  0  0  0
 63144  1  0  0  0
 63145  1  0  0  0
 64146  1  0  0  0
 65147  1  0  0  0
 68 82  1  0  0  0
 71 78  1  0  0  0
 71 85  1  0  0  0
 71 86  2  0  0  0
 72 79  1  0  0  0
 72 85  2  0  0  0
 72 87  1  0  0  0
 73 79  1  0  0  0
 73148  1  0  0  0
 73149  1  0  0  0
 73150  1  0  0  0
 74151  1  0  0  0
 74152  1  0  0  0
 74153  1  0  0  0
 74 83  1  0  0  0
 75 83  1  0  0  0
 75154  1  0  0  0
 75155  1  0  0  0
 75156  1  0  0  0
 76157  1  0  0  0
 76158  1  0  0  0
 76159  1  0  0  0
 76 84  1  0  0  0
 77 84  1  0  0  0
 77160  1  0  0  0
 77161  1  0  0  0
 77162  1  0  0  0
 78 88  1  0  0  0
 78163  1  0  0  0
 78164  1  0  0  0
 79165  1  0  0  0
 79166  1  0  0  0
 80 81  1  0  0  0
 80 84  1  0  0  0
 80167  1  0  0  0
 80168  1  0  0  0
 81 87  1  0  0  0
 81169  1  0  0  0
 81170  1  0  0  0
 82 84  1  0  0  0
 82171  1  0  0  0
 82172  1  0  0  0
 83 88  1  0  0  0
 83173  1  0  0  0
 86 87  1  0  0  0
M  ISO  4   1 100  68 101  82 101  88 100
M  END
> <chiral flag>
0

> <version>
0

> <s_m_source_file>
/data/baiqing/PycharmProjects/Reinvent-master-3.2/result/LINK_invent/BTK/process_docking_weight1_custom_sum_contain_oxygen_bond_distance_aromatic_linkinvent_7_9_3/rearranged_h_0057.sdf

> <i_m_source_file_index>
42

> <r_mmod_Potential_Energy-OPLS-2005>
213.583587646484

> <r_mmod_Stretch_Energy-OPLS-2005>
64.1265258789062

> <r_mmod_Bend_Energy-OPLS-2005>
169.320846557617

> <r_mmod_Torsional_Energy-OPLS-2005>
347.864898681641

> <r_mmod_Improper_Torsional_Energy-OPLS-2005>
9.03919696807861

> <r_mmod_Van_der_Waal_Energy-OPLS-2005>
141.395782470703

> <r_mmod_Electrostatic_Energy-OPLS-2005>
-371.923950195312

> <r_mmod_Solvation_Energy-OPLS-2005>
-198.468414306641

> <b_mmod_Minimization_Converged-OPLS-2005>
0

> <r_mmod_RMS_Derivative-OPLS-2005>
6.22357749938965

$$$$
42
                    3D
 Structure written by MMmdl.
157165  0  0  1  0            999 V2000
  -30.5594  -14.8747   20.5103 C   0  0  0  0  0  0
  -30.4611  -12.5602   19.4657 C   0  0  0  0  0  0
  -29.5281  -12.5535   18.2310 C   0  0  0  0  0  0
  -28.0516  -12.3486   18.6341 C   0  0  0  0  0  0
  -27.6485  -13.2198   19.8516 C   0  0  2  0  0  0
  -28.7017  -13.0829   20.9676 C   0  0  0  0  0  0
  -25.2557  -13.8163   20.5613 C   0  0  0  0  0  0
  -24.1824  -13.0431   20.9154 C   0  0  0  0  0  0
  -24.6395  -11.6904   20.8686 C   0  0  0  0  0  0
  -23.9057  -10.4300   21.0388 C   0  0  0  0  0  0
  -24.3603   -9.4229   21.9178 C   0  0  0  0  0  0
  -23.6276   -8.2268   22.0765 C   0  0  0  0  0  0
  -22.4252   -8.0308   21.3573 C   0  0  0  0  0  0
  -21.9891   -9.0267   20.4661 C   0  0  0  0  0  0
  -22.7221  -10.2147   20.3051 C   0  0  0  0  0  0
  -21.6843   -6.0742   22.5288 C   0  0  0  0  0  0
  -21.4008   -6.5641   23.8223 C   0  0  0  0  0  0
  -21.3661   -5.6795   24.9185 C   0  0  0  0  0  0
  -21.6040   -4.3056   24.7235 C   0  0  0  0  0  0
  -21.8816   -3.8153   23.4351 C   0  0  0  0  0  0
  -21.9193   -4.6973   22.3409 C   0  0  0  0  0  0
  -22.7863  -13.5257   21.1834 C   0  0  0  0  0  0
  -22.1652   -4.2152   21.0987 F   0  0  0  0  0  0
  -21.5629   -3.4544   25.7748 F   0  0  0  0  0  0
  -29.9691  -13.6033   20.4186 N   0  0  0  0  0  0
  -26.2970  -12.9322   20.3219 N   0  0  0  0  0  0
  -25.9306  -11.6475   20.5609 N   0  0  0  0  0  0
  -22.0503  -12.8234   22.0389 N   0  0  0  0  0  0
  -25.4242  -15.1870   20.4004 N   0  0  0  0  0  0
  -31.7170  -14.9675   20.0832 O   0  0  0  0  0  0
  -21.6634   -6.8888   21.4249 O   0  0  0  0  0  0
  -22.3543  -14.5569   20.6713 O   0  0  0  0  0  0
  -24.6401  -31.8478   23.1913 C   0  0  0  0  0  0
  -25.9179  -32.4712   23.8300 C   0  0  1  0  0  0
  -27.2259  -27.1992   20.1230 C   0  0  0  0  0  0
  -25.5933  -33.8511   24.2222 N   0  0  0  0  0  0
  -23.4430  -30.4649   21.5391 C   0  0  2  0  0  0
  -24.8888  -28.9007   20.1117 C   0  0  0  0  0  0
  -22.7570  -29.4535   22.4921 C   0  0  0  0  0  0
  -18.0300  -28.1383   22.8475 C   0  0  0  0  0  0
  -24.1488  -36.7269   23.2646 C   0  0  0  0  0  0
  -25.9939  -30.7421   21.3769 C   0  0  0  0  0  0
  -26.0662  -29.3588   20.7168 C   0  0  0  0  0  0
  -27.2384  -28.5233   20.7024 C   0  0  0  0  0  0
  -26.0208  -26.8253   19.4903 C   0  0  0  0  0  0
  -24.8744  -27.6447   19.4885 C   0  0  0  0  0  0
  -23.6619  -29.7925   20.1591 C   0  0  0  0  0  0
  -25.4115  -36.3046   24.0322 C   0  0  1  0  0  0
  -20.5913  -28.3690   23.1262 C   0  0  2  0  0  0
  -20.6778  -26.9398   22.5410 C   0  0  0  0  0  0
  -19.5751  -26.6374   21.5214 C   0  0  0  0  0  0
  -18.1934  -26.7916   22.1629 C   0  0  0  0  0  0
  -19.1556  -28.8858   23.2851 C   0  0  0  0  0  0
  -18.9465  -30.1463   23.8856 C   0  0  0  0  0  0
  -17.6455  -30.6569   24.0549 C   0  0  0  0  0  0
  -25.9056  -34.9416   23.5082 C   0  0  0  0  0  0
  -16.5352  -29.9056   23.6330 C   0  0  0  0  0  0
  -16.7281  -28.6488   23.0334 C   0  0  0  0  0  0
  -26.4505  -31.6560   25.0722 C   0  0  0  0  0  0
  -25.3688  -31.3728   26.1416 C   0  0  0  0  0  0
  -27.0361  -30.2966   24.6258 C   0  0  0  0  0  0
  -27.6060  -32.4305   25.7490 C   0  0  0  0  0  0
  -27.5565  -37.1798   24.8470 C   0  0  0  0  0  0
  -21.4272  -29.3017   22.3653 N   0  0  0  0  0  0
  -26.4293  -37.3745   23.9386 N   0  0  0  0  0  0
  -24.7129  -31.0365   22.0930 N   0  0  0  0  0  0
  -23.4211  -28.8089   23.3073 O   0  0  0  0  0  0
  -28.3083  -26.2679   20.1813 O   0  0  0  0  0  0
  -26.5645  -34.8905   22.4661 O   0  0  0  0  0  0
  -23.5530  -32.1327   23.7159 O   0  0  0  0  0  0
  -29.6092  -19.9469   21.5191 C   0  0  0  0  0  0
  -29.6657  -19.1106   20.3623 C   0  0  0  0  0  0
  -29.3901  -19.9359   19.2085 C   0  0  0  0  0  0
  -29.1078  -21.9938   20.4038 C   0  0  0  0  0  0
  -28.4413  -17.2093   22.7265 C   0  0  0  0  0  0
  -30.1771  -17.5260   20.2944 C   0  0  0  0  0  0
  -29.2090  -23.6267   20.4469 C   0  0  0  0  0  0
  -28.8358  -15.9664   21.9242 C   0  0  0  0  0  0
  -28.0877  -24.7555   20.0045 C   0  0  0  0  0  0
  -29.3807  -19.3527   17.7864 C   0  0  0  0  0  0
  -29.3389  -21.2984   21.5314 N   0  0  0  0  0  0
  -29.1281  -21.3044   19.2552 N   0  0  0  0  0  0
  -29.8282  -16.0722   20.8251 N   0  0  0  0  0  0
  -28.1272  -19.0369   17.4540 F   0  0  0  0  0  0
  -29.8316  -20.2539   16.9091 F   0  0  0  0  0  0
  -30.1396  -18.2631   17.6627 F   0  0  0  0  0  0
  -31.4873  -12.7394   19.1410 H   0  0  0  0  0  0
  -30.4826  -11.5720   19.9278 H   0  0  0  0  0  0
  -29.8348  -11.7766   17.5292 H   0  0  0  0  0  0
  -29.6355  -13.5002   17.6993 H   0  0  0  0  0  0
  -27.9187  -11.2913   18.8672 H   0  0  0  0  0  0
  -27.3979  -12.5574   17.7881 H   0  0  0  0  0  0
  -27.6519  -14.2500   19.4954 H   0  0  0  0  0  0
  -28.7991  -12.0282   21.2239 H   0  0  0  0  0  0
  -28.3889  -13.5202   21.9075 H   0  0  0  0  0  0
  -25.2766   -9.5681   22.4727 H   0  0  0  0  0  0
  -24.0012   -7.4639   22.7452 H   0  0  0  0  0  0
  -21.0846   -8.8767   19.8933 H   0  0  0  0  0  0
  -22.3696  -10.9673   19.6140 H   0  0  0  0  0  0
  -21.1988   -7.6146   23.9733 H   0  0  0  0  0  0
  -21.1480   -6.0521   25.9091 H   0  0  0  0  0  0
  -22.0587   -2.7615   23.2852 H   0  0  0  0  0  0
  -22.4098  -11.9890   22.4771 H   0  0  0  0  0  0
  -21.1119  -13.1260   22.2567 H   0  0  0  0  0  0
  -24.6574  -15.8426   20.5093 H   0  0  0  0  0  0
  -26.2790  -15.6249   20.0813 H   0  0  0  0  0  0
  -26.7253  -32.5324   23.1047 H   0  0  0  0  0  0
  -25.0020  -33.9622   25.0329 H   0  0  0  0  0  0
  -22.7440  -31.2891   21.3864 H   0  0  0  0  0  0
  -23.3743  -35.9614   23.3336 H   0  0  0  0  0  0
  -24.3577  -36.8869   22.2059 H   0  0  0  0  0  0
  -23.7260  -37.6482   23.6663 H   0  0  0  0  0  0
  -26.1315  -31.5003   20.6043 H   0  0  0  0  0  0
  -26.8723  -30.7965   22.0097 H   0  0  0  0  0  0
  -28.1482  -28.8683   21.1728 H   0  0  0  0  0  0
  -25.9340  -25.8654   19.0029 H   0  0  0  0  0  0
  -23.9708  -27.2875   19.0135 H   0  0  0  0  0  0
  -23.7829  -30.5625   19.3954 H   0  0  0  0  0  0
  -22.7823  -29.2197   19.8610 H   0  0  0  0  0  0
  -25.1312  -36.1904   25.0820 H   0  0  0  0  0  0
  -20.9978  -28.3256   24.1397 H   0  0  0  0  0  0
  -20.5670  -26.2291   23.3618 H   0  0  0  0  0  0
  -21.6642  -26.7397   22.1213 H   0  0  0  0  0  0
  -19.6902  -25.6288   21.1232 H   0  0  0  0  0  0
  -19.6691  -27.3200   20.6759 H   0  0  0  0  0  0
  -17.4207  -26.6663   21.4032 H   0  0  0  0  0  0
  -18.0329  -26.0064   22.9034 H   0  0  0  0  0  0
  -19.7933  -30.7302   24.2202 H   0  0  0  0  0  0
  -17.4992  -31.6241   24.5165 H   0  0  0  0  0  0
  -15.5341  -30.2927   23.7677 H   0  0  0  0  0  0
  -15.8692  -28.0793   22.7041 H   0  0  0  0  0  0
  -24.5906  -30.7029   25.7736 H   0  0  0  0  0  0
  -24.8807  -32.2889   26.4760 H   0  0  0  0  0  0
  -25.7964  -30.8967   27.0248 H   0  0  0  0  0  0
  -26.2968  -29.6699   24.1252 H   0  0  0  0  0  0
  -27.3997  -29.7249   25.4809 H   0  0  0  0  0  0
  -27.8867  -30.4236   23.9551 H   0  0  0  0  0  0
  -27.2695  -33.3649   26.1999 H   0  0  0  0  0  0
  -28.3893  -32.6783   25.0310 H   0  0  0  0  0  0
  -28.0697  -31.8451   26.5447 H   0  0  0  0  0  0
  -28.2616  -38.0059   24.7451 H   0  0  0  0  0  0
  -28.1025  -36.2582   24.6388 H   0  0  0  0  0  0
  -27.2262  -37.1552   25.8870 H   0  0  0  0  0  0
  -20.9508  -29.8694   21.6793 H   0  0  0  0  0  0
  -26.0175  -38.2832   24.1340 H   0  0  0  0  0  0
  -29.8568  -19.5517   22.4909 H   0  0  0  0  0  0
  -29.2962  -17.6266   23.2571 H   0  0  0  0  0  0
  -27.7109  -16.9291   23.4872 H   0  0  0  0  0  0
  -27.9549  -17.9661   22.1132 H   0  0  0  0  0  0
  -29.1221  -17.4405   20.0276 H   0  0  0  0  0  0
  -30.6160  -17.6892   21.2790 H   0  0  0  0  0  0
  -30.1242  -23.8658   19.9090 H   0  0  0  0  0  0
  -29.4551  -23.8656   21.4814 H   0  0  0  0  0  0
  -29.2242  -15.2700   22.6688 H   0  0  0  0  0  0
  -27.9169  -15.5611   21.5081 H   0  0  0  0  0  0
  -27.8972  -24.6001   18.9415 H   0  0  0  0  0  0
  -27.1562  -24.5033   20.5115 H   0  0  0  0  0  0
  1 25  1  0  0  0
  1 30  2  0  0  0
  1 83  1  0  0  0
  2  3  1  0  0  0
  2 25  1  0  0  0
  2 87  1  0  0  0
  2 88  1  0  0  0
  3  4  1  0  0  0
  3 89  1  0  0  0
  3 90  1  0  0  0
  4  5  1  0  0  0
  4 91  1  0  0  0
  4 92  1  0  0  0
  5  6  1  0  0  0
  5 26  1  0  0  0
  5 93  1  0  0  0
  6 25  1  0  0  0
  6 94  1  0  0  0
  6 95  1  0  0  0
  7  8  2  0  0  0
  7 26  1  0  0  0
  7 29  1  0  0  0
  8  9  1  0  0  0
  8 22  1  0  0  0
  9 10  1  0  0  0
  9 27  2  0  0  0
 10 11  2  0  0  0
 10 15  1  0  0  0
 11 12  1  0  0  0
 11 96  1  0  0  0
 12 13  2  0  0  0
 12 97  1  0  0  0
 13 14  1  0  0  0
 13 31  1  0  0  0
 14 15  2  0  0  0
 14 98  1  0  0  0
 15 99  1  0  0  0
 16 17  2  0  0  0
 16 21  1  0  0  0
 16 31  1  0  0  0
 17 18  1  0  0  0
 17100  1  0  0  0
 18 19  2  0  0  0
 18101  1  0  0  0
 19 20  1  0  0  0
 19 24  1  0  0  0
 20 21  2  0  0  0
 20102  1  0  0  0
 21 23  1  0  0  0
 22 28  1  0  0  0
 22 32  2  0  0  0
 26 27  1  0  0  0
 28103  1  0  0  0
 28104  1  0  0  0
 29105  1  0  0  0
 29106  1  0  0  0
 33 34  1  0  0  0
 33 66  1  0  0  0
 33 70  2  0  0  0
 34 36  1  0  0  0
 34 59  1  0  0  0
 34107  1  0  0  0
 35 44  2  0  0  0
 35 45  1  0  0  0
 35 68  1  0  0  0
 36 56  1  0  0  0
 36108  1  0  0  0
 37 39  1  0  0  0
 37 47  1  0  0  0
 37 66  1  0  0  0
 37109  1  0  0  0
 38 43  2  0  0  0
 38 46  1  0  0  0
 38 47  1  0  0  0
 39 64  1  0  0  0
 39 67  2  0  0  0
 40 52  1  0  0  0
 40 53  2  0  0  0
 40 58  1  0  0  0
 41110  1  0  0  0
 41111  1  0  0  0
 41112  1  0  0  0
 41 48  1  0  0  0
 42 43  1  0  0  0
 42 66  1  0  0  0
 42113  1  0  0  0
 42114  1  0  0  0
 43 44  1  0  0  0
 44115  1  0  0  0
 45 46  2  0  0  0
 45116  1  0  0  0
 46117  1  0  0  0
 47118  1  0  0  0
 47119  1  0  0  0
 48 56  1  0  0  0
 48 65  1  0  0  0
 48120  1  0  0  0
 49 50  1  0  0  0
 49 53  1  0  0  0
 49 64  1  0  0  0
 49121  1  0  0  0
 50 51  1  0  0  0
 50122  1  0  0  0
 50123  1  0  0  0
 51 52  1  0  0  0
 51124  1  0  0  0
 51125  1  0  0  0
 52126  1  0  0  0
 52127  1  0  0  0
 53 54  1  0  0  0
 54 55  2  0  0  0
 54128  1  0  0  0
 55 57  1  0  0  0
 55129  1  0  0  0
 56 69  2  0  0  0
 57 58  2  0  0  0
 57130  1  0  0  0
 58131  1  0  0  0
 59 60  1  0  0  0
 59 61  1  0  0  0
 59 62  1  0  0  0
 60132  1  0  0  0
 60133  1  0  0  0
 60134  1  0  0  0
 61135  1  0  0  0
 61136  1  0  0  0
 61137  1  0  0  0
 62138  1  0  0  0
 62139  1  0  0  0
 62140  1  0  0  0
 63 65  1  0  0  0
 63141  1  0  0  0
 63142  1  0  0  0
 63143  1  0  0  0
 64144  1  0  0  0
 65145  1  0  0  0
 68 79  1  0  0  0
 71 72  2  0  0  0
 71 81  1  0  0  0
 71146  1  0  0  0
 72 73  1  0  0  0
 72 76  1  0  0  0
 73 80  1  0  0  0
 73 82  2  0  0  0
 74 77  1  0  0  0
 74 81  2  0  0  0
 74 82  1  0  0  0
 75 78  1  0  0  0
 75147  1  0  0  0
 75148  1  0  0  0
 75149  1  0  0  0
 76 83  1  0  0  0
 76150  1  0  0  0
 76151  1  0  0  0
 77 79  1  0  0  0
 77152  1  0  0  0
 77153  1  0  0  0
 78 83  1  0  0  0
 78154  1  0  0  0
 78155  1  0  0  0
 79156  1  0  0  0
 79157  1  0  0  0
 80 84  1  0  0  0
 80 85  1  0  0  0
 80 86  1  0  0  0
M  ISO  4   1 100  68 101  79 101  83 100
M  END
> <chiral flag>
0

> <version>
0

> <s_m_source_file>
/data/baiqing/PycharmProjects/Reinvent-master-3.2/result/LINK_invent/BTK/process_docking_weight1_custom_sum_contain_oxygen_bond_distance_aromatic_linkinvent_7_9_3/rearranged_h_0057.sdf

> <i_m_source_file_index>
43

> <r_mmod_Potential_Energy-OPLS-2005>
537.153747558594

> <r_mmod_Stretch_Energy-OPLS-2005>
218.415084838867

> <r_mmod_Bend_Energy-OPLS-2005>
473.065338134766

> <r_mmod_Torsional_Energy-OPLS-2005>
263.610046386719

> <r_mmod_Improper_Torsional_Energy-OPLS-2005>
9.61007976531982

> <r_mmod_Van_der_Waal_Energy-OPLS-2005>
171.248275756836

> <r_mmod_Electrostatic_Energy-OPLS-2005>
-519.754577636719

> <r_mmod_Solvation_Energy-OPLS-2005>
-209.367141723633

> <b_mmod_Minimization_Converged-OPLS-2005>
0

> <r_mmod_RMS_Derivative-OPLS-2005>
3.59018611907959

$$$$
43
                    3D
 Structure written by MMmdl.
149157  0  0  1  0            999 V2000
  -30.4777  -15.2094   20.3713 C   0  0  0  0  0  0
  -30.4398  -12.7743   19.5062 C   0  0  0  0  0  0
  -29.5250  -12.5463   18.2781 C   0  0  0  0  0  0
  -28.0767  -12.2822   18.7217 C   0  0  0  0  0  0
  -27.6149  -13.2658   19.8245 C   0  0  2  0  0  0
  -28.6559  -13.4338   20.9510 C   0  0  0  0  0  0
  -25.2414  -13.8236   20.5754 C   0  0  0  0  0  0
  -24.1761  -13.0430   20.9266 C   0  0  0  0  0  0
  -24.6408  -11.6920   20.8789 C   0  0  0  0  0  0
  -23.9095  -10.4283   21.0432 C   0  0  0  0  0  0
  -24.3636   -9.4194   21.9207 C   0  0  0  0  0  0
  -23.6309   -8.2230   22.0763 C   0  0  0  0  0  0
  -22.4292   -8.0283   21.3552 C   0  0  0  0  0  0
  -21.9932   -9.0259   20.4653 C   0  0  0  0  0  0
  -22.7265  -10.2137   20.3076 C   0  0  0  0  0  0
  -21.6860   -6.0745   22.5281 C   0  0  0  0  0  0
  -21.4010   -6.5646   23.8210 C   0  0  0  0  0  0
  -21.3652   -5.6804   24.9171 C   0  0  0  0  0  0
  -21.6051   -4.3068   24.7232 C   0  0  0  0  0  0
  -21.8814   -3.8154   23.4351 C   0  0  0  0  0  0
  -21.9195   -4.6972   22.3403 C   0  0  0  0  0  0
  -22.7778  -13.5190   21.1909 C   0  0  0  0  0  0
  -22.1667   -4.2156   21.0985 F   0  0  0  0  0  0
  -21.5628   -3.4546   25.7740 F   0  0  0  0  0  0
  -29.8902  -13.9196   20.3146 N   0  0  0  0  0  0
  -26.2847  -12.9498   20.3258 N   0  0  0  0  0  0
  -25.9343  -11.6614   20.5762 N   0  0  0  0  0  0
  -22.0451  -12.8156   22.0463 N   0  0  0  0  0  0
  -25.4045  -15.1967   20.4170 N   0  0  0  0  0  0
  -31.7016  -15.1989   20.1867 O   0  0  0  0  0  0
  -21.6646   -6.8891   21.4246 O   0  0  0  0  0  0
  -22.3449  -14.5495   20.6756 O   0  0  0  0  0  0
  -24.6599  -31.8261   23.1743 C   0  0  0  0  0  0
  -25.9307  -32.4598   23.8164 C   0  0  1  0  0  0
  -27.2102  -26.9612   20.1636 C   0  0  0  0  0  0
  -25.6000  -33.8416   24.2092 N   0  0  0  0  0  0
  -23.4709  -30.4421   21.5204 C   0  0  2  0  0  0
  -24.9226  -28.8393   20.1055 C   0  0  0  0  0  0
  -22.7630  -29.4468   22.4765 C   0  0  0  0  0  0
  -18.0323  -28.1415   22.8485 C   0  0  0  0  0  0
  -24.1485  -36.7193   23.2642 C   0  0  0  0  0  0
  -26.0373  -30.6449   21.3963 C   0  0  0  0  0  0
  -26.1057  -29.2381   20.7406 C   0  0  0  0  0  0
  -27.2453  -28.3161   20.7531 C   0  0  0  0  0  0
  -26.0052  -26.7218   19.4643 C   0  0  0  0  0  0
  -24.8958  -27.6025   19.4468 C   0  0  0  0  0  0
  -23.7087  -29.7640   20.1435 C   0  0  0  0  0  0
  -25.4112  -36.2960   24.0308 C   0  0  1  0  0  0
  -20.5941  -28.3754   23.1208 C   0  0  2  0  0  0
  -20.6796  -26.9449   22.5406 C   0  0  0  0  0  0
  -19.5770  -26.6410   21.5207 C   0  0  0  0  0  0
  -18.1956  -26.7954   22.1627 C   0  0  0  0  0  0
  -19.1584  -28.8898   23.2838 C   0  0  0  0  0  0
  -18.9494  -30.1480   23.8882 C   0  0  0  0  0  0
  -17.6496  -30.6616   24.0563 C   0  0  0  0  0  0
  -25.9091  -34.9353   23.5014 C   0  0  0  0  0  0
  -16.5385  -29.9111   23.6345 C   0  0  0  0  0  0
  -16.7309  -28.6516   23.0394 C   0  0  0  0  0  0
  -26.4571  -31.6521   25.0665 C   0  0  0  0  0  0
  -25.3741  -31.3761   26.1352 C   0  0  0  0  0  0
  -27.0432  -30.2894   24.6340 C   0  0  0  0  0  0
  -27.6074  -32.4300   25.7474 C   0  0  0  0  0  0
  -27.5555  -37.1738   24.8458 C   0  0  0  0  0  0
  -21.4303  -29.3050   22.3539 N   0  0  0  0  0  0
  -26.4237  -37.3716   23.9441 N   0  0  0  0  0  0
  -24.7436  -30.9967   22.0841 N   0  0  0  0  0  0
  -23.4200  -28.8038   23.2990 O   0  0  0  0  0  0
  -28.1915  -25.8454   20.2610 O   0  0  0  0  0  0
  -26.5677  -34.8900   22.4595 O   0  0  0  0  0  0
  -23.5688  -32.1210   23.6880 O   0  0  0  0  0  0
  -28.2060  -20.1606   20.8410 C   0  0  0  0  0  0
  -29.7254  -22.0871   19.7039 C   0  0  0  0  0  0
  -27.7638  -21.5787   20.7911 C   0  0  0  0  0  0
  -28.5114  -22.7055   20.2170 C   0  0  0  0  0  0
  -29.4388  -19.6410   20.3022 C   0  0  0  0  0  0
  -26.3800  -21.8624   21.3543 C   0  0  0  0  0  0
  -27.8510  -24.2930   19.8969 C   0  0  0  0  0  0
  -30.1811  -18.0709   20.4292 C   0  0  0  0  0  0
  -30.1418  -20.7235   19.7582 N   0  0  0  0  0  0
  -29.7414  -16.4832   20.4270 N   0  0  0  0  0  0
  -31.4528  -12.9802   19.1587 H   0  0  0  0  0  0
  -30.5149  -11.8711   20.1140 H   0  0  0  0  0  0
  -29.8918  -11.7096   17.6814 H   0  0  0  0  0  0
  -29.5521  -13.4223   17.6296 H   0  0  0  0  0  0
  -28.0365  -11.2634   19.1091 H   0  0  0  0  0  0
  -27.3981  -12.3136   17.8677 H   0  0  0  0  0  0
  -27.5342  -14.2302   19.3232 H   0  0  0  0  0  0
  -28.8173  -12.5019   21.4947 H   0  0  0  0  0  0
  -28.3080  -14.1656   21.6813 H   0  0  0  0  0  0
  -25.2782   -9.5671   22.4779 H   0  0  0  0  0  0
  -24.0025   -7.4618   22.7470 H   0  0  0  0  0  0
  -21.0870   -8.8784   19.8949 H   0  0  0  0  0  0
  -22.3736  -10.9683   19.6184 H   0  0  0  0  0  0
  -21.1996   -7.6153   23.9711 H   0  0  0  0  0  0
  -21.1478   -6.0536   25.9076 H   0  0  0  0  0  0
  -22.0600   -2.7620   23.2848 H   0  0  0  0  0  0
  -22.4104  -11.9809   22.4800 H   0  0  0  0  0  0
  -21.1074  -13.1148   22.2698 H   0  0  0  0  0  0
  -24.6339  -15.8460   20.5353 H   0  0  0  0  0  0
  -26.2430  -15.6387   20.0646 H   0  0  0  0  0  0
  -26.7360  -32.5154   23.0863 H   0  0  0  0  0  0
  -25.0158  -33.9476   25.0253 H   0  0  0  0  0  0
  -22.7825  -31.2728   21.3527 H   0  0  0  0  0  0
  -23.3763  -35.9505   23.3258 H   0  0  0  0  0  0
  -24.3579  -36.8876   22.2068 H   0  0  0  0  0  0
  -23.7225  -37.6370   23.6701 H   0  0  0  0  0  0
  -26.2056  -31.3913   20.6184 H   0  0  0  0  0  0
  -26.9031  -30.7053   22.0434 H   0  0  0  0  0  0
  -28.1349  -28.6142   21.2898 H   0  0  0  0  0  0
  -25.8727  -25.7876   18.9398 H   0  0  0  0  0  0
  -24.0004  -27.2971   18.9211 H   0  0  0  0  0  0
  -23.8633  -30.5344   19.3864 H   0  0  0  0  0  0
  -22.8182  -29.2195   19.8243 H   0  0  0  0  0  0
  -25.1315  -36.1726   25.0795 H   0  0  0  0  0  0
  -21.0034  -28.3353   24.1327 H   0  0  0  0  0  0
  -20.5669  -26.2378   23.3642 H   0  0  0  0  0  0
  -21.6665  -26.7443   22.1212 H   0  0  0  0  0  0
  -19.6934  -25.6312   21.1264 H   0  0  0  0  0  0
  -19.6702  -27.3191   20.6709 H   0  0  0  0  0  0
  -17.4224  -26.6706   21.4033 H   0  0  0  0  0  0
  -18.0352  -26.0103   22.9031 H   0  0  0  0  0  0
  -19.7972  -30.7290   24.2265 H   0  0  0  0  0  0
  -17.5064  -31.6298   24.5162 H   0  0  0  0  0  0
  -15.5387  -30.3025   23.7673 H   0  0  0  0  0  0
  -15.8701  -28.0815   22.7165 H   0  0  0  0  0  0
  -24.5961  -30.7040   25.7704 H   0  0  0  0  0  0
  -24.8894  -32.2961   26.4626 H   0  0  0  0  0  0
  -25.8055  -30.9074   27.0211 H   0  0  0  0  0  0
  -26.3071  -29.6603   24.1320 H   0  0  0  0  0  0
  -27.3958  -29.7208   25.4950 H   0  0  0  0  0  0
  -27.9027  -30.4068   23.9738 H   0  0  0  0  0  0
  -27.2659  -33.3674   26.1867 H   0  0  0  0  0  0
  -28.4005  -32.6723   25.0387 H   0  0  0  0  0  0
  -28.0586  -31.8528   26.5547 H   0  0  0  0  0  0
  -28.2526  -38.0081   24.7579 H   0  0  0  0  0  0
  -28.1113  -36.2628   24.6194 H   0  0  0  0  0  0
  -27.2313  -37.1279   25.8870 H   0  0  0  0  0  0
  -20.9528  -29.8757   21.6702 H   0  0  0  0  0  0
  -26.0079  -38.2759   24.1516 H   0  0  0  0  0  0
  -27.5586  -19.4381   21.3205 H   0  0  0  0  0  0
  -30.4107  -22.7196   19.1567 H   0  0  0  0  0  0
  -25.9789  -21.0116   21.9071 H   0  0  0  0  0  0
  -25.6819  -22.0861   20.5470 H   0  0  0  0  0  0
  -26.4062  -22.7134   22.0361 H   0  0  0  0  0  0
  -26.8103  -24.1973   20.1973 H   0  0  0  0  0  0
  -27.8030  -24.3065   18.8076 H   0  0  0  0  0  0
  -30.7141  -18.1535   21.3762 H   0  0  0  0  0  0
  -30.9824  -18.1098   19.6902 H   0  0  0  0  0  0
  -28.7429  -16.3609   20.4885 H   0  0  0  0  0  0
  1 25  1  0  0  0
  1 30  2  0  0  0
  1 80  1  0  0  0
  2  3  1  0  0  0
  2 25  1  0  0  0
  2 81  1  0  0  0
  2 82  1  0  0  0
  3  4  1  0  0  0
  3 83  1  0  0  0
  3 84  1  0  0  0
  4  5  1  0  0  0
  4 85  1  0  0  0
  4 86  1  0  0  0
  5  6  1  0  0  0
  5 26  1  0  0  0
  5 87  1  0  0  0
  6 25  1  0  0  0
  6 88  1  0  0  0
  6 89  1  0  0  0
  7  8  2  0  0  0
  7 26  1  0  0  0
  7 29  1  0  0  0
  8  9  1  0  0  0
  8 22  1  0  0  0
  9 10  1  0  0  0
  9 27  2  0  0  0
 10 11  2  0  0  0
 10 15  1  0  0  0
 11 12  1  0  0  0
 11 90  1  0  0  0
 12 13  2  0  0  0
 12 91  1  0  0  0
 13 14  1  0  0  0
 13 31  1  0  0  0
 14 15  2  0  0  0
 14 92  1  0  0  0
 15 93  1  0  0  0
 16 17  2  0  0  0
 16 21  1  0  0  0
 16 31  1  0  0  0
 17 18  1  0  0  0
 17 94  1  0  0  0
 18 19  2  0  0  0
 18 95  1  0  0  0
 19 20  1  0  0  0
 19 24  1  0  0  0
 20 21  2  0  0  0
 20 96  1  0  0  0
 21 23  1  0  0  0
 22 28  1  0  0  0
 22 32  2  0  0  0
 26 27  1  0  0  0
 28 97  1  0  0  0
 28 98  1  0  0  0
 29 99  1  0  0  0
 29100  1  0  0  0
 33 34  1  0  0  0
 33 66  1  0  0  0
 33 70  2  0  0  0
 34 36  1  0  0  0
 34 59  1  0  0  0
 34101  1  0  0  0
 35 44  2  0  0  0
 35 45  1  0  0  0
 35 68  1  0  0  0
 36 56  1  0  0  0
 36102  1  0  0  0
 37 39  1  0  0  0
 37 47  1  0  0  0
 37 66  1  0  0  0
 37103  1  0  0  0
 38 43  2  0  0  0
 38 46  1  0  0  0
 38 47  1  0  0  0
 39 64  1  0  0  0
 39 67  2  0  0  0
 40 52  1  0  0  0
 40 53  2  0  0  0
 40 58  1  0  0  0
 41104  1  0  0  0
 41105  1  0  0  0
 41106  1  0  0  0
 41 48  1  0  0  0
 42 43  1  0  0  0
 42 66  1  0  0  0
 42107  1  0  0  0
 42108  1  0  0  0
 43 44  1  0  0  0
 44109  1  0  0  0
 45 46  2  0  0  0
 45110  1  0  0  0
 46111  1  0  0  0
 47112  1  0  0  0
 47113  1  0  0  0
 48 56  1  0  0  0
 48 65  1  0  0  0
 48114  1  0  0  0
 49 50  1  0  0  0
 49 53  1  0  0  0
 49 64  1  0  0  0
 49115  1  0  0  0
 50 51  1  0  0  0
 50116  1  0  0  0
 50117  1  0  0  0
 51 52  1  0  0  0
 51118  1  0  0  0
 51119  1  0  0  0
 52120  1  0  0  0
 52121  1  0  0  0
 53 54  1  0  0  0
 54 55  2  0  0  0
 54122  1  0  0  0
 55 57  1  0  0  0
 55123  1  0  0  0
 56 69  2  0  0  0
 57 58  2  0  0  0
 57124  1  0  0  0
 58125  1  0  0  0
 59 60  1  0  0  0
 59 61  1  0  0  0
 59 62  1  0  0  0
 60126  1  0  0  0
 60127  1  0  0  0
 60128  1  0  0  0
 61129  1  0  0  0
 61130  1  0  0  0
 61131  1  0  0  0
 62132  1  0  0  0
 62133  1  0  0  0
 62134  1  0  0  0
 63 65  1  0  0  0
 63135  1  0  0  0
 63136  1  0  0  0
 63137  1  0  0  0
 64138  1  0  0  0
 65139  1  0  0  0
 68 77  1  0  0  0
 71 73  2  0  0  0
 71 75  1  0  0  0
 71140  1  0  0  0
 72 74  2  0  0  0
 72 79  1  0  0  0
 72141  1  0  0  0
 73 74  1  0  0  0
 73 76  1  0  0  0
 74 77  1  0  0  0
 75 78  1  0  0  0
 75 79  2  0  0  0
 76142  1  0  0  0
 76143  1  0  0  0
 76144  1  0  0  0
 77145  1  0  0  0
 77146  1  0  0  0
 78 80  1  0  0  0
 78147  1  0  0  0
 78148  1  0  0  0
 80149  1  0  0  0
M  ISO  4   1 100  68 101  77 101  80 100
M  END
> <chiral flag>
0

> <version>
0

> <s_m_source_file>
/data/baiqing/PycharmProjects/Reinvent-master-3.2/result/LINK_invent/BTK/process_docking_weight1_custom_sum_contain_oxygen_bond_distance_aromatic_linkinvent_7_9_3/rearranged_h_0057.sdf

> <i_m_source_file_index>
44

> <r_mmod_Potential_Energy-OPLS-2005>
868.729370117188

> <r_mmod_Stretch_Energy-OPLS-2005>
466.375549316406

> <r_mmod_Bend_Energy-OPLS-2005>
426.753051757812

> <r_mmod_Torsional_Energy-OPLS-2005>
217.448989868164

> <r_mmod_Improper_Torsional_Energy-OPLS-2005>
7.81876039505005

> <r_mmod_Van_der_Waal_Energy-OPLS-2005>
135.299011230469

> <r_mmod_Electrostatic_Energy-OPLS-2005>
-560.408508300781

> <r_mmod_Solvation_Energy-OPLS-2005>
-235.861312866211

> <b_mmod_Minimization_Converged-OPLS-2005>
0

> <r_mmod_RMS_Derivative-OPLS-2005>
2.48655223846436

$$$$
44
                    3D
 Structure written by MMmdl.
151159  0  0  1  0            999 V2000
  -30.5385  -14.9058   20.4374 C   0  0  0  0  0  0
  -30.4414  -12.5644   19.4941 C   0  0  0  0  0  0
  -29.5151  -12.4922   18.2584 C   0  0  0  0  0  0
  -28.0538  -12.2789   18.6899 C   0  0  0  0  0  0
  -27.6282  -13.2300   19.8374 C   0  0  2  0  0  0
  -28.6667  -13.2488   20.9772 C   0  0  0  0  0  0
  -25.2440  -13.8144   20.5709 C   0  0  0  0  0  0
  -24.1756  -13.0402   20.9232 C   0  0  0  0  0  0
  -24.6364  -11.6887   20.8757 C   0  0  0  0  0  0
  -23.9046  -10.4272   21.0420 C   0  0  0  0  0  0
  -24.3610   -9.4200   21.9190 C   0  0  0  0  0  0
  -23.6292   -8.2226   22.0748 C   0  0  0  0  0  0
  -22.4268   -8.0269   21.3541 C   0  0  0  0  0  0
  -21.9914   -9.0242   20.4632 C   0  0  0  0  0  0
  -22.7232  -10.2118   20.3058 C   0  0  0  0  0  0
  -21.6858   -6.0722   22.5275 C   0  0  0  0  0  0
  -21.4004   -6.5635   23.8203 C   0  0  0  0  0  0
  -21.3639   -5.6792   24.9172 C   0  0  0  0  0  0
  -21.6046   -4.3053   24.7230 C   0  0  0  0  0  0
  -21.8824   -3.8145   23.4355 C   0  0  0  0  0  0
  -21.9193   -4.6952   22.3409 C   0  0  0  0  0  0
  -22.7799  -13.5196   21.1910 C   0  0  0  0  0  0
  -22.1672   -4.2137   21.0983 F   0  0  0  0  0  0
  -21.5620   -3.4545   25.7746 F   0  0  0  0  0  0
  -29.9495  -13.6491   20.3866 N   0  0  0  0  0  0
  -26.2863  -12.9355   20.3231 N   0  0  0  0  0  0
  -25.9276  -11.6504   20.5735 N   0  0  0  0  0  0
  -22.0461  -12.8155   22.0452 N   0  0  0  0  0  0
  -25.4142  -15.1852   20.4108 N   0  0  0  0  0  0
  -31.7348  -14.9986   20.1434 O   0  0  0  0  0  0
  -21.6634   -6.8870   21.4240 O   0  0  0  0  0  0
  -22.3480  -14.5521   20.6784 O   0  0  0  0  0  0
  -24.6402  -31.8525   23.1962 C   0  0  0  0  0  0
  -25.9209  -32.4746   23.8310 C   0  0  1  0  0  0
  -27.1754  -27.1623   20.1479 C   0  0  0  0  0  0
  -25.6021  -33.8550   24.2226 N   0  0  0  0  0  0
  -23.4380  -30.4812   21.5404 C   0  0  2  0  0  0
  -24.8807  -28.9314   20.1006 C   0  0  0  0  0  0
  -22.7562  -29.4608   22.4863 C   0  0  0  0  0  0
  -18.0296  -28.1408   22.8481 C   0  0  0  0  0  0
  -24.1489  -36.7261   23.2628 C   0  0  0  0  0  0
  -25.9936  -30.7399   21.3886 C   0  0  0  0  0  0
  -26.0584  -29.3565   20.7281 C   0  0  0  0  0  0
  -27.2088  -28.4836   20.7433 C   0  0  0  0  0  0
  -25.9768  -26.8563   19.4595 C   0  0  0  0  0  0
  -24.8536  -27.6970   19.4505 C   0  0  0  0  0  0
  -23.6594  -29.8308   20.1520 C   0  0  0  0  0  0
  -25.4126  -36.3049   24.0296 C   0  0  1  0  0  0
  -20.5914  -28.3718   23.1257 C   0  0  2  0  0  0
  -20.6808  -26.9422   22.5410 C   0  0  0  0  0  0
  -19.5765  -26.6398   21.5242 C   0  0  0  0  0  0
  -18.1942  -26.7958   22.1631 C   0  0  0  0  0  0
  -19.1563  -28.8873   23.2863 C   0  0  0  0  0  0
  -18.9492  -30.1488   23.8866 C   0  0  0  0  0  0
  -17.6491  -30.6604   24.0560 C   0  0  0  0  0  0
  -25.9093  -34.9436   23.5048 C   0  0  0  0  0  0
  -16.5379  -29.9088   23.6356 C   0  0  0  0  0  0
  -16.7283  -28.6510   23.0360 C   0  0  0  0  0  0
  -26.4542  -31.6601   25.0738 C   0  0  0  0  0  0
  -25.3710  -31.3840   26.1436 C   0  0  0  0  0  0
  -27.0364  -30.2980   24.6287 C   0  0  0  0  0  0
  -27.6101  -32.4352   25.7479 C   0  0  0  0  0  0
  -27.5555  -37.1797   24.8466 C   0  0  0  0  0  0
  -21.4251  -29.3075   22.3646 N   0  0  0  0  0  0
  -26.4278  -37.3765   23.9406 N   0  0  0  0  0  0
  -24.7107  -31.0451   22.0976 N   0  0  0  0  0  0
  -23.4264  -28.8123   23.2941 O   0  0  0  0  0  0
  -28.1801  -26.1368   20.2514 O   0  0  0  0  0  0
  -26.5629  -34.8934   22.4598 O   0  0  0  0  0  0
  -23.5538  -32.1375   23.7242 O   0  0  0  0  0  0
  -28.6097  -21.2576   21.6429 C   0  0  0  0  0  0
  -29.0564  -21.1280   19.3768 C   0  0  0  0  0  0
  -28.9185  -20.3638   20.5705 C   0  0  0  0  0  0
  -28.4904  -23.2494   20.3365 C   0  0  0  0  0  0
  -27.5825  -18.2669   19.8989 C   0  0  0  0  0  0
  -27.7151  -24.6736   20.0665 C   0  0  0  0  0  0
  -30.0194  -17.5969   20.4407 C   0  0  0  0  0  0
  -28.8213  -18.7243   20.6879 C   0  0  1  0  0  0
  -28.3869  -22.6184   21.5255 N   0  0  0  0  0  0
  -28.8446  -22.4907   19.2751 N   0  0  0  0  0  0
  -29.7411  -16.0594   20.6122 N   0  0  0  0  0  0
  -31.4699  -12.7337   19.1734 H   0  0  0  0  0  0
  -30.4500  -11.6134   20.0292 H   0  0  0  0  0  0
  -29.8306  -11.6757   17.6070 H   0  0  0  0  0  0
  -29.5965  -13.4048   17.6662 H   0  0  0  0  0  0
  -27.9734  -11.2458   19.0318 H   0  0  0  0  0  0
  -27.3791  -12.3677   17.8376 H   0  0  0  0  0  0
  -27.5991  -14.2274   19.3973 H   0  0  0  0  0  0
  -28.7461  -12.2713   21.4518 H   0  0  0  0  0  0
  -28.3642  -13.9485   21.7582 H   0  0  0  0  0  0
  -25.2758   -9.5675   22.4766 H   0  0  0  0  0  0
  -24.0010   -7.4613   22.7459 H   0  0  0  0  0  0
  -21.0849   -8.8735   19.8938 H   0  0  0  0  0  0
  -22.3685  -10.9653   19.6156 H   0  0  0  0  0  0
  -21.1991   -7.6141   23.9704 H   0  0  0  0  0  0
  -21.1446   -6.0521   25.9064 H   0  0  0  0  0  0
  -22.0622   -2.7609   23.2862 H   0  0  0  0  0  0
  -22.4120  -11.9797   22.4794 H   0  0  0  0  0  0
  -21.1068  -13.1112   22.2676 H   0  0  0  0  0  0
  -24.6468  -15.8381   20.5227 H   0  0  0  0  0  0
  -26.2442  -15.6161   20.0307 H   0  0  0  0  0  0
  -26.7247  -32.5361   23.1004 H   0  0  0  0  0  0
  -25.0269  -33.9667   25.0445 H   0  0  0  0  0  0
  -22.7387  -31.3077   21.3968 H   0  0  0  0  0  0
  -23.3752  -35.9598   23.3308 H   0  0  0  0  0  0
  -24.3553  -36.8893   22.2043 H   0  0  0  0  0  0
  -23.7272  -37.6471   23.6650 H   0  0  0  0  0  0
  -26.1468  -31.5040   20.6247 H   0  0  0  0  0  0
  -26.8711  -30.7835   22.0227 H   0  0  0  0  0  0
  -28.0975  -28.7934   21.2733 H   0  0  0  0  0  0
  -25.8351  -25.9236   18.9396 H   0  0  0  0  0  0
  -23.9550  -27.3749   18.9455 H   0  0  0  0  0  0
  -23.7900  -30.6162   19.4071 H   0  0  0  0  0  0
  -22.7721  -29.2781   19.8376 H   0  0  0  0  0  0
  -25.1314  -36.1848   25.0780 H   0  0  0  0  0  0
  -20.9992  -28.3282   24.1384 H   0  0  0  0  0  0
  -20.5785  -26.2296   23.3608 H   0  0  0  0  0  0
  -21.6657  -26.7506   22.1138 H   0  0  0  0  0  0
  -19.6940  -25.6329   21.1252 H   0  0  0  0  0  0
  -19.6710  -27.3226   20.6791 H   0  0  0  0  0  0
  -17.4227  -26.6742   21.4009 H   0  0  0  0  0  0
  -18.0268  -26.0112   22.9013 H   0  0  0  0  0  0
  -19.7986  -30.7321   24.2198 H   0  0  0  0  0  0
  -17.5050  -31.6275   24.5189 H   0  0  0  0  0  0
  -15.5381  -30.2969   23.7733 H   0  0  0  0  0  0
  -15.8686  -28.0834   22.7075 H   0  0  0  0  0  0
  -24.5888  -30.7164   25.7787 H   0  0  0  0  0  0
  -24.8895  -32.3047   26.4748 H   0  0  0  0  0  0
  -25.7988  -30.9114   27.0274 H   0  0  0  0  0  0
  -26.2951  -29.6730   24.1291 H   0  0  0  0  0  0
  -27.3944  -29.7275   25.4862 H   0  0  0  0  0  0
  -27.8870  -30.4213   23.9578 H   0  0  0  0  0  0
  -27.2757  -33.3747   26.1870 H   0  0  0  0  0  0
  -28.3976  -32.6762   25.0333 H   0  0  0  0  0  0
  -28.0618  -31.8563   26.5536 H   0  0  0  0  0  0
  -28.2613  -38.0055   24.7482 H   0  0  0  0  0  0
  -28.1017  -36.2595   24.6324 H   0  0  0  0  0  0
  -27.2256  -37.1480   25.8865 H   0  0  0  0  0  0
  -20.9420  -29.8810   21.6874 H   0  0  0  0  0  0
  -26.0133  -38.2812   24.1467 H   0  0  0  0  0  0
  -28.4406  -20.8579   22.6325 H   0  0  0  0  0  0
  -29.2519  -20.6192   18.4444 H   0  0  0  0  0  0
  -26.6901  -18.8187   20.1953 H   0  0  0  0  0  0
  -27.3690  -17.2156   20.0788 H   0  0  0  0  0  0
  -27.7106  -18.3941   18.8216 H   0  0  0  0  0  0
  -26.7720  -24.5665   20.6106 H   0  0  0  0  0  0
  -27.4449  -24.5998   19.0140 H   0  0  0  0  0  0
  -30.8615  -17.8498   21.0856 H   0  0  0  0  0  0
  -30.3880  -17.7302   19.4225 H   0  0  0  0  0  0
  -28.5495  -18.5751   21.7340 H   0  0  0  0  0  0
  -28.7795  -15.8413   20.8224 H   0  0  0  0  0  0
  1 25  1  0  0  0
  1 30  2  0  0  0
  1 81  1  0  0  0
  2  3  1  0  0  0
  2 25  1  0  0  0
  2 82  1  0  0  0
  2 83  1  0  0  0
  3  4  1  0  0  0
  3 84  1  0  0  0
  3 85  1  0  0  0
  4  5  1  0  0  0
  4 86  1  0  0  0
  4 87  1  0  0  0
  5  6  1  0  0  0
  5 26  1  0  0  0
  5 88  1  0  0  0
  6 25  1  0  0  0
  6 89  1  0  0  0
  6 90  1  0  0  0
  7  8  2  0  0  0
  7 26  1  0  0  0
  7 29  1  0  0  0
  8  9  1  0  0  0
  8 22  1  0  0  0
  9 10  1  0  0  0
  9 27  2  0  0  0
 10 11  2  0  0  0
 10 15  1  0  0  0
 11 12  1  0  0  0
 11 91  1  0  0  0
 12 13  2  0  0  0
 12 92  1  0  0  0
 13 14  1  0  0  0
 13 31  1  0  0  0
 14 15  2  0  0  0
 14 93  1  0  0  0
 15 94  1  0  0  0
 16 17  2  0  0  0
 16 21  1  0  0  0
 16 31  1  0  0  0
 17 18  1  0  0  0
 17 95  1  0  0  0
 18 19  2  0  0  0
 18 96  1  0  0  0
 19 20  1  0  0  0
 19 24  1  0  0  0
 20 21  2  0  0  0
 20 97  1  0  0  0
 21 23  1  0  0  0
 22 28  1  0  0  0
 22 32  2  0  0  0
 26 27  1  0  0  0
 28 98  1  0  0  0
 28 99  1  0  0  0
 29100  1  0  0  0
 29101  1  0  0  0
 33 34  1  0  0  0
 33 66  1  0  0  0
 33 70  2  0  0  0
 34 36  1  0  0  0
 34 59  1  0  0  0
 34102  1  0  0  0
 35 44  2  0  0  0
 35 45  1  0  0  0
 35 68  1  0  0  0
 36 56  1  0  0  0
 36103  1  0  0  0
 37 39  1  0  0  0
 37 47  1  0  0  0
 37 66  1  0  0  0
 37104  1  0  0  0
 38 43  2  0  0  0
 38 46  1  0  0  0
 38 47  1  0  0  0
 39 64  1  0  0  0
 39 67  2  0  0  0
 40 52  1  0  0  0
 40 53  2  0  0  0
 40 58  1  0  0  0
 41105  1  0  0  0
 41106  1  0  0  0
 41107  1  0  0  0
 41 48  1  0  0  0
 42 43  1  0  0  0
 42 66  1  0  0  0
 42108  1  0  0  0
 42109  1  0  0  0
 43 44  1  0  0  0
 44110  1  0  0  0
 45 46  2  0  0  0
 45111  1  0  0  0
 46112  1  0  0  0
 47113  1  0  0  0
 47114  1  0  0  0
 48 56  1  0  0  0
 48 65  1  0  0  0
 48115  1  0  0  0
 49 50  1  0  0  0
 49 53  1  0  0  0
 49 64  1  0  0  0
 49116  1  0  0  0
 50 51  1  0  0  0
 50117  1  0  0  0
 50118  1  0  0  0
 51 52  1  0  0  0
 51119  1  0  0  0
 51120  1  0  0  0
 52121  1  0  0  0
 52122  1  0  0  0
 53 54  1  0  0  0
 54 55  2  0  0  0
 54123  1  0  0  0
 55 57  1  0  0  0
 55124  1  0  0  0
 56 69  2  0  0  0
 57 58  2  0  0  0
 57125  1  0  0  0
 58126  1  0  0  0
 59 60  1  0  0  0
 59 61  1  0  0  0
 59 62  1  0  0  0
 60127  1  0  0  0
 60128  1  0  0  0
 60129  1  0  0  0
 61130  1  0  0  0
 61131  1  0  0  0
 61132  1  0  0  0
 62133  1  0  0  0
 62134  1  0  0  0
 62135  1  0  0  0
 63 65  1  0  0  0
 63136  1  0  0  0
 63137  1  0  0  0
 63138  1  0  0  0
 64139  1  0  0  0
 65140  1  0  0  0
 68 76  1  0  0  0
 71 73  2  0  0  0
 71 79  1  0  0  0
 71141  1  0  0  0
 72 73  1  0  0  0
 72 80  2  0  0  0
 72142  1  0  0  0
 73 78  1  0  0  0
 74 76  1  0  0  0
 74 79  2  0  0  0
 74 80  1  0  0  0
 75143  1  0  0  0
 75144  1  0  0  0
 75145  1  0  0  0
 75 78  1  0  0  0
 76146  1  0  0  0
 76147  1  0  0  0
 77 78  1  0  0  0
 77 81  1  0  0  0
 77148  1  0  0  0
 77149  1  0  0  0
 78150  1  0  0  0
 81151  1  0  0  0
M  ISO  4   1 100  68 101  76 101  81 100
M  END
> <chiral flag>
0

> <version>
0

> <s_m_source_file>
/data/baiqing/PycharmProjects/Reinvent-master-3.2/result/LINK_invent/BTK/process_docking_weight1_custom_sum_contain_oxygen_bond_distance_aromatic_linkinvent_7_9_3/rearranged_h_0057.sdf

> <i_m_source_file_index>
45

> <r_mmod_Potential_Energy-OPLS-2005>
10.3431177139282

> <r_mmod_Stretch_Energy-OPLS-2005>
197.883514404297

> <r_mmod_Bend_Energy-OPLS-2005>
241.503219604492

> <r_mmod_Torsional_Energy-OPLS-2005>
225.225662231445

> <r_mmod_Improper_Torsional_Energy-OPLS-2005>
11.0203247070312

> <r_mmod_Van_der_Waal_Energy-OPLS-2005>
145.954391479492

> <r_mmod_Electrostatic_Energy-OPLS-2005>
-754.868835449219

> <r_mmod_Solvation_Energy-OPLS-2005>
-236.575637817383

> <b_mmod_Minimization_Converged-OPLS-2005>
0

> <r_mmod_RMS_Derivative-OPLS-2005>
4.65809392929077

$$$$
45
                    3D
 Structure written by MMmdl.
147155  0  0  1  0            999 V2000
  -30.3888  -15.3971   20.3463 C   0  0  0  0  0  0
  -30.4339  -12.8978   19.5484 C   0  0  0  0  0  0
  -29.5443  -12.6073   18.3101 C   0  0  0  0  0  0
  -28.0993  -12.3033   18.7369 C   0  0  0  0  0  0
  -27.6072  -13.2885   19.8244 C   0  0  2  0  0  0
  -28.6316  -13.5173   20.9593 C   0  0  0  0  0  0
  -25.2361  -13.8265   20.5763 C   0  0  0  0  0  0
  -24.1728  -13.0437   20.9267 C   0  0  0  0  0  0
  -24.6402  -11.6940   20.8762 C   0  0  0  0  0  0
  -23.9101  -10.4293   21.0402 C   0  0  0  0  0  0
  -24.3643   -9.4207   21.9182 C   0  0  0  0  0  0
  -23.6308   -8.2246   22.0753 C   0  0  0  0  0  0
  -22.4289   -8.0285   21.3544 C   0  0  0  0  0  0
  -21.9932   -9.0260   20.4644 C   0  0  0  0  0  0
  -22.7270  -10.2134   20.3052 C   0  0  0  0  0  0
  -21.6857   -6.0739   22.5279 C   0  0  0  0  0  0
  -21.4018   -6.5642   23.8212 C   0  0  0  0  0  0
  -21.3660   -5.6794   24.9174 C   0  0  0  0  0  0
  -21.6044   -4.3056   24.7224 C   0  0  0  0  0  0
  -21.8818   -3.8149   23.4345 C   0  0  0  0  0  0
  -21.9194   -4.6966   22.3402 C   0  0  0  0  0  0
  -22.7743  -13.5180   21.1910 C   0  0  0  0  0  0
  -22.1662   -4.2151   21.0979 F   0  0  0  0  0  0
  -21.5628   -3.4539   25.7737 F   0  0  0  0  0  0
  -29.8510  -14.0617   20.3334 N   0  0  0  0  0  0
  -26.2798  -12.9563   20.3232 N   0  0  0  0  0  0
  -25.9344  -11.6654   20.5718 N   0  0  0  0  0  0
  -22.0406  -12.8158   22.0463 N   0  0  0  0  0  0
  -25.3979  -15.2003   20.4198 N   0  0  0  0  0  0
  -31.6026  -15.3823   20.0859 O   0  0  0  0  0  0
  -21.6647   -6.8885   21.4242 O   0  0  0  0  0  0
  -22.3420  -14.5480   20.6749 O   0  0  0  0  0  0
  -24.6705  -31.8140   23.1629 C   0  0  0  0  0  0
  -25.9349  -32.4537   23.8125 C   0  0  1  0  0  0
  -27.2230  -26.8400   20.1931 C   0  0  0  0  0  0
  -25.5982  -33.8357   24.2022 N   0  0  0  0  0  0
  -23.4904  -30.4212   21.5130 C   0  0  2  0  0  0
  -24.9475  -28.7926   20.1087 C   0  0  0  0  0  0
  -22.7706  -29.4385   22.4745 C   0  0  0  0  0  0
  -18.0329  -28.1414   22.8462 C   0  0  0  0  0  0
  -24.1495  -36.7185   23.2650 C   0  0  0  0  0  0
  -26.0637  -30.5903   21.4089 C   0  0  0  0  0  0
  -26.1304  -29.1712   20.7543 C   0  0  0  0  0  0
  -27.2557  -28.2160   20.7745 C   0  0  0  0  0  0
  -26.0157  -26.6424   19.4814 C   0  0  0  0  0  0
  -24.9213  -27.5515   19.4506 C   0  0  0  0  0  0
  -23.7361  -29.7298   20.1419 C   0  0  0  0  0  0
  -25.4140  -36.2937   24.0292 C   0  0  1  0  0  0
  -20.5958  -28.3764   23.1168 C   0  0  2  0  0  0
  -20.6800  -26.9436   22.5403 C   0  0  0  0  0  0
  -19.5775  -26.6374   21.5215 C   0  0  0  0  0  0
  -18.1958  -26.7945   22.1621 C   0  0  0  0  0  0
  -19.1592  -28.8912   23.2799 C   0  0  0  0  0  0
  -18.9501  -30.1498   23.8839 C   0  0  0  0  0  0
  -17.6492  -30.6600   24.0553 C   0  0  0  0  0  0
  -25.9110  -34.9323   23.4985 C   0  0  0  0  0  0
  -16.5383  -29.9085   23.6346 C   0  0  0  0  0  0
  -16.7310  -28.6506   23.0364 C   0  0  0  0  0  0
  -26.4572  -31.6521   25.0694 C   0  0  0  0  0  0
  -25.3673  -31.3800   26.1333 C   0  0  0  0  0  0
  -27.0487  -30.2875   24.6504 C   0  0  0  0  0  0
  -27.6043  -32.4356   25.7503 C   0  0  0  0  0  0
  -27.5568  -37.1750   24.8466 C   0  0  0  0  0  0
  -21.4366  -29.3035   22.3502 N   0  0  0  0  0  0
  -26.4277  -37.3684   23.9407 N   0  0  0  0  0  0
  -24.7634  -30.9715   22.0813 N   0  0  0  0  0  0
  -23.4213  -28.7969   23.3029 O   0  0  0  0  0  0
  -28.1937  -25.6818   20.3269 O   0  0  0  0  0  0
  -26.5735  -34.8875   22.4591 O   0  0  0  0  0  0
  -23.5755  -32.1154   23.6666 O   0  0  0  0  0  0
  -28.8567  -21.2182   22.4300 C   0  0  0  0  0  0
  -29.1890  -19.9327   20.5717 C   0  0  0  0  0  0
  -28.6301  -22.4698   20.5224 C   0  0  0  0  0  0
  -28.8130  -21.2279   23.9442 C   0  0  0  0  0  0
  -29.7658  -18.3386   20.0055 C   0  0  0  0  0  0
  -28.0642  -24.0518   19.8808 C   0  0  0  0  0  0
  -29.1159  -20.0122   21.8956 N   0  0  0  0  0  0
  -28.6290  -22.4113   21.8533 N   0  0  0  0  0  0
  -28.9281  -21.1901   19.8619 N   0  0  0  0  0  0
  -29.6269  -16.6949   20.4519 N   0  0  0  0  0  0
  -31.4491  -13.1114   19.2121 H   0  0  0  0  0  0
  -30.5228  -12.0099   20.1766 H   0  0  0  0  0  0
  -29.9503  -11.7749   17.7338 H   0  0  0  0  0  0
  -29.5539  -13.4742   17.6477 H   0  0  0  0  0  0
  -28.0778  -11.2860   19.1296 H   0  0  0  0  0  0
  -27.4324  -12.3142   17.8739 H   0  0  0  0  0  0
  -27.5058  -14.2414   19.3034 H   0  0  0  0  0  0
  -28.8262  -12.6000   21.5171 H   0  0  0  0  0  0
  -28.2429  -14.2401   21.6782 H   0  0  0  0  0  0
  -25.2783   -9.5682   22.4764 H   0  0  0  0  0  0
  -24.0011   -7.4638   22.7477 H   0  0  0  0  0  0
  -21.0862   -8.8784   19.8951 H   0  0  0  0  0  0
  -22.3727  -10.9675   19.6164 H   0  0  0  0  0  0
  -21.2012   -7.6150   23.9717 H   0  0  0  0  0  0
  -21.1482   -6.0524   25.9077 H   0  0  0  0  0  0
  -22.0596   -2.7611   23.2844 H   0  0  0  0  0  0
  -22.4045  -11.9831   22.4855 H   0  0  0  0  0  0
  -21.1015  -13.1158   22.2666 H   0  0  0  0  0  0
  -24.6244  -15.8474   20.5283 H   0  0  0  0  0  0
  -26.2339  -15.6406   20.0592 H   0  0  0  0  0  0
  -26.7421  -32.5047   23.0837 H   0  0  0  0  0  0
  -25.0059  -33.9420   25.0126 H   0  0  0  0  0  0
  -22.8082  -31.2551   21.3348 H   0  0  0  0  0  0
  -23.3771  -35.9501   23.3272 H   0  0  0  0  0  0
  -24.3567  -36.8878   22.2072 H   0  0  0  0  0  0
  -23.7239  -37.6353   23.6740 H   0  0  0  0  0  0
  -26.2549  -31.3256   20.6262 H   0  0  0  0  0  0
  -26.9193  -30.6502   22.0694 H   0  0  0  0  0  0
  -28.1422  -28.5009   21.3235 H   0  0  0  0  0  0
  -25.8707  -25.6996   18.9752 H   0  0  0  0  0  0
  -24.0261  -27.2570   18.9201 H   0  0  0  0  0  0
  -23.8973  -30.4957   19.3823 H   0  0  0  0  0  0
  -22.8444  -29.1877   19.8224 H   0  0  0  0  0  0
  -25.1343  -36.1719   25.0782 H   0  0  0  0  0  0
  -21.0045  -28.3381   24.1292 H   0  0  0  0  0  0
  -20.5672  -26.2386   23.3654 H   0  0  0  0  0  0
  -21.6663  -26.7396   22.1216 H   0  0  0  0  0  0
  -19.6933  -25.6269   21.1283 H   0  0  0  0  0  0
  -19.6717  -27.3152   20.6719 H   0  0  0  0  0  0
  -17.4227  -26.6687   21.4024 H   0  0  0  0  0  0
  -18.0350  -26.0101   22.9031 H   0  0  0  0  0  0
  -19.7976  -30.7330   24.2183 H   0  0  0  0  0  0
  -17.5043  -31.6274   24.5166 H   0  0  0  0  0  0
  -15.5380  -30.2968   23.7704 H   0  0  0  0  0  0
  -15.8711  -28.0805   22.7112 H   0  0  0  0  0  0
  -24.5876  -30.7128   25.7639 H   0  0  0  0  0  0
  -24.8839  -32.3010   26.4602 H   0  0  0  0  0  0
  -25.7882  -30.9070   27.0214 H   0  0  0  0  0  0
  -26.3178  -29.6520   24.1493 H   0  0  0  0  0  0
  -27.3960  -29.7280   25.5200 H   0  0  0  0  0  0
  -27.9142  -30.4031   23.9977 H   0  0  0  0  0  0
  -27.2597  -33.3713   26.1919 H   0  0  0  0  0  0
  -28.3937  -32.6830   25.0393 H   0  0  0  0  0  0
  -28.0621  -31.8594   26.5554 H   0  0  0  0  0  0
  -28.2560  -38.0068   24.7514 H   0  0  0  0  0  0
  -28.1089  -36.2592   24.6293 H   0  0  0  0  0  0
  -27.2282  -37.1389   25.8868 H   0  0  0  0  0  0
  -20.9640  -29.8710   21.6604 H   0  0  0  0  0  0
  -26.0116  -38.2737   24.1417 H   0  0  0  0  0  0
  -29.7627  -20.8845   24.3544 H   0  0  0  0  0  0
  -28.0258  -20.5663   24.3053 H   0  0  0  0  0  0
  -28.6194  -22.2253   24.3398 H   0  0  0  0  0  0
  -30.8443  -18.4839   19.9464 H   0  0  0  0  0  0
  -29.4542  -18.3323   18.9614 H   0  0  0  0  0  0
  -26.9897  -23.8920   19.8039 H   0  0  0  0  0  0
  -28.4031  -24.0434   18.8452 H   0  0  0  0  0  0
  -28.6805  -16.5176   20.7523 H   0  0  0  0  0  0
  1 25  1  0  0  0
  1 30  2  0  0  0
  1 80  1  0  0  0
  2  3  1  0  0  0
  2 25  1  0  0  0
  2 81  1  0  0  0
  2 82  1  0  0  0
  3  4  1  0  0  0
  3 83  1  0  0  0
  3 84  1  0  0  0
  4  5  1  0  0  0
  4 85  1  0  0  0
  4 86  1  0  0  0
  5  6  1  0  0  0
  5 26  1  0  0  0
  5 87  1  0  0  0
  6 25  1  0  0  0
  6 88  1  0  0  0
  6 89  1  0  0  0
  7  8  2  0  0  0
  7 26  1  0  0  0
  7 29  1  0  0  0
  8  9  1  0  0  0
  8 22  1  0  0  0
  9 10  1  0  0  0
  9 27  2  0  0  0
 10 11  2  0  0  0
 10 15  1  0  0  0
 11 12  1  0  0  0
 11 90  1  0  0  0
 12 13  2  0  0  0
 12 91  1  0  0  0
 13 14  1  0  0  0
 13 31  1  0  0  0
 14 15  2  0  0  0
 14 92  1  0  0  0
 15 93  1  0  0  0
 16 17  2  0  0  0
 16 21  1  0  0  0
 16 31  1  0  0  0
 17 18  1  0  0  0
 17 94  1  0  0  0
 18 19  2  0  0  0
 18 95  1  0  0  0
 19 20  1  0  0  0
 19 24  1  0  0  0
 20 21  2  0  0  0
 20 96  1  0  0  0
 21 23  1  0  0  0
 22 28  1  0  0  0
 22 32  2  0  0  0
 26 27  1  0  0  0
 28 97  1  0  0  0
 28 98  1  0  0  0
 29 99  1  0  0  0
 29100  1  0  0  0
 33 34  1  0  0  0
 33 66  1  0  0  0
 33 70  2  0  0  0
 34 36  1  0  0  0
 34 59  1  0  0  0
 34101  1  0  0  0
 35 44  2  0  0  0
 35 45  1  0  0  0
 35 68  1  0  0  0
 36 56  1  0  0  0
 36102  1  0  0  0
 37 39  1  0  0  0
 37 47  1  0  0  0
 37 66  1  0  0  0
 37103  1  0  0  0
 38 43  2  0  0  0
 38 46  1  0  0  0
 38 47  1  0  0  0
 39 64  1  0  0  0
 39 67  2  0  0  0
 40 52  1  0  0  0
 40 53  2  0  0  0
 40 58  1  0  0  0
 41104  1  0  0  0
 41105  1  0  0  0
 41106  1  0  0  0
 41 48  1  0  0  0
 42 43  1  0  0  0
 42 66  1  0  0  0
 42107  1  0  0  0
 42108  1  0  0  0
 43 44  1  0  0  0
 44109  1  0  0  0
 45 46  2  0  0  0
 45110  1  0  0  0
 46111  1  0  0  0
 47112  1  0  0  0
 47113  1  0  0  0
 48 56  1  0  0  0
 48 65  1  0  0  0
 48114  1  0  0  0
 49 50  1  0  0  0
 49 53  1  0  0  0
 49 64  1  0  0  0
 49115  1  0  0  0
 50 51  1  0  0  0
 50116  1  0  0  0
 50117  1  0  0  0
 51 52  1  0  0  0
 51118  1  0  0  0
 51119  1  0  0  0
 52120  1  0  0  0
 52121  1  0  0  0
 53 54  1  0  0  0
 54 55  2  0  0  0
 54122  1  0  0  0
 55 57  1  0  0  0
 55123  1  0  0  0
 56 69  2  0  0  0
 57 58  2  0  0  0
 57124  1  0  0  0
 58125  1  0  0  0
 59 60  1  0  0  0
 59 61  1  0  0  0
 59 62  1  0  0  0
 60126  1  0  0  0
 60127  1  0  0  0
 60128  1  0  0  0
 61129  1  0  0  0
 61130  1  0  0  0
 61131  1  0  0  0
 62132  1  0  0  0
 62133  1  0  0  0
 62134  1  0  0  0
 63 65  1  0  0  0
 63135  1  0  0  0
 63136  1  0  0  0
 63137  1  0  0  0
 64138  1  0  0  0
 65139  1  0  0  0
 68 76  1  0  0  0
 71 74  1  0  0  0
 71 77  2  0  0  0
 71 78  1  0  0  0
 72 75  1  0  0  0
 72 77  1  0  0  0
 72 79  2  0  0  0
 73 76  1  0  0  0
 73 78  2  0  0  0
 73 79  1  0  0  0
 74140  1  0  0  0
 74141  1  0  0  0
 74142  1  0  0  0
 75 80  1  0  0  0
 75143  1  0  0  0
 75144  1  0  0  0
 76145  1  0  0  0
 76146  1  0  0  0
 80147  1  0  0  0
M  ISO  4   1 100  68 101  76 101  80 100
M  END
> <chiral flag>
0

> <version>
0

> <s_m_source_file>
/data/baiqing/PycharmProjects/Reinvent-master-3.2/result/LINK_invent/BTK/process_docking_weight1_custom_sum_contain_oxygen_bond_distance_aromatic_linkinvent_7_9_3/rearranged_h_0057.sdf

> <i_m_source_file_index>
46

> <r_mmod_Potential_Energy-OPLS-2005>
810.680297851562

> <r_mmod_Stretch_Energy-OPLS-2005>
710.588806152344

> <r_mmod_Bend_Energy-OPLS-2005>
493.785705566406

> <r_mmod_Torsional_Energy-OPLS-2005>
209.61360168457

> <r_mmod_Improper_Torsional_Energy-OPLS-2005>
5.84282064437866

> <r_mmod_Van_der_Waal_Energy-OPLS-2005>
140.205902099609

> <r_mmod_Electrostatic_Energy-OPLS-2005>
-1093.82531738281

> <r_mmod_Solvation_Energy-OPLS-2005>
-263.81640625

> <b_mmod_Minimization_Converged-OPLS-2005>
1

> <r_mmod_RMS_Derivative-OPLS-2005>
0.0396409891545773

$$$$
46
                    3D
 Structure written by MMmdl.
153161  0  0  1  0            999 V2000
  -30.6054  -14.7759   20.3659 C   0  0  0  0  0  0
  -30.4450  -12.4451   19.4721 C   0  0  0  0  0  0
  -29.5159  -12.3812   18.2387 C   0  0  0  0  0  0
  -28.0302  -12.2811   18.6541 C   0  0  0  0  0  0
  -27.6314  -13.2073   19.8371 C   0  0  2  0  0  0
  -28.6909  -13.2060   20.9578 C   0  0  0  0  0  0
  -25.2527  -13.8127   20.5742 C   0  0  0  0  0  0
  -24.1785  -13.0411   20.9230 C   0  0  0  0  0  0
  -24.6347  -11.6881   20.8790 C   0  0  0  0  0  0
  -23.9025  -10.4275   21.0436 C   0  0  0  0  0  0
  -24.3593   -9.4191   21.9203 C   0  0  0  0  0  0
  -23.6276   -8.2226   22.0757 C   0  0  0  0  0  0
  -22.4260   -8.0268   21.3542 C   0  0  0  0  0  0
  -21.9889   -9.0242   20.4647 C   0  0  0  0  0  0
  -22.7210  -10.2124   20.3066 C   0  0  0  0  0  0
  -21.6846   -6.0724   22.5278 C   0  0  0  0  0  0
  -21.4014   -6.5633   23.8210 C   0  0  0  0  0  0
  -21.3659   -5.6785   24.9171 C   0  0  0  0  0  0
  -21.6047   -4.3049   24.7224 C   0  0  0  0  0  0
  -21.8819   -3.8141   23.4344 C   0  0  0  0  0  0
  -21.9191   -4.6954   22.3400 C   0  0  0  0  0  0
  -22.7817  -13.5227   21.1868 C   0  0  0  0  0  0
  -22.1661   -4.2143   21.0976 F   0  0  0  0  0  0
  -21.5628   -3.4531   25.7735 F   0  0  0  0  0  0
  -29.9783  -13.5472   20.3398 N   0  0  0  0  0  0
  -26.2906  -12.9261   20.3325 N   0  0  0  0  0  0
  -25.9270  -11.6443   20.5834 N   0  0  0  0  0  0
  -22.0447  -12.8230   22.0424 N   0  0  0  0  0  0
  -25.4279  -15.1850   20.4179 N   0  0  0  0  0  0
  -31.8343  -14.8384   20.2692 O   0  0  0  0  0  0
  -21.6631   -6.8862   21.4236 O   0  0  0  0  0  0
  -22.3520  -14.5532   20.6702 O   0  0  0  0  0  0
  -24.6286  -31.8573   23.1993 C   0  0  0  0  0  0
  -25.9115  -32.4770   23.8342 C   0  0  1  0  0  0
  -27.2252  -27.2855   20.1373 C   0  0  0  0  0  0
  -25.5914  -33.8573   24.2267 N   0  0  0  0  0  0
  -23.4250  -30.4788   21.5421 C   0  0  2  0  0  0
  -24.8735  -28.9251   20.1148 C   0  0  0  0  0  0
  -22.7491  -29.4612   22.4924 C   0  0  0  0  0  0
  -18.0287  -28.1386   22.8486 C   0  0  0  0  0  0
  -24.1486  -36.7296   23.2642 C   0  0  0  0  0  0
  -25.9680  -30.7787   21.3747 C   0  0  0  0  0  0
  -26.0429  -29.4013   20.7214 C   0  0  0  0  0  0
  -27.2232  -28.5950   20.7180 C   0  0  0  0  0  0
  -26.0365  -26.8713   19.4975 C   0  0  0  0  0  0
  -24.8740  -27.6672   19.4914 C   0  0  0  0  0  0
  -23.6433  -29.8101   20.1591 C   0  0  0  0  0  0
  -25.4110  -36.3085   24.0331 C   0  0  1  0  0  0
  -20.5891  -28.3695   23.1273 C   0  0  2  0  0  0
  -20.6776  -26.9415   22.5408 C   0  0  0  0  0  0
  -19.5751  -26.6382   21.5212 C   0  0  0  0  0  0
  -18.1932  -26.7928   22.1626 C   0  0  0  0  0  0
  -19.1542  -28.8854   23.2877 C   0  0  0  0  0  0
  -18.9465  -30.1455   23.8898 C   0  0  0  0  0  0
  -17.6466  -30.6587   24.0563 C   0  0  0  0  0  0
  -25.9047  -34.9452   23.5104 C   0  0  0  0  0  0
  -16.5356  -29.9088   23.6328 C   0  0  0  0  0  0
  -16.7277  -28.6503   23.0353 C   0  0  0  0  0  0
  -26.4487  -31.6587   25.0724 C   0  0  0  0  0  0
  -25.3708  -31.3737   26.1444 C   0  0  0  0  0  0
  -27.0329  -30.3007   24.6192 C   0  0  0  0  0  0
  -27.6041  -32.4326   25.7500 C   0  0  0  0  0  0
  -27.5581  -37.1803   24.8464 C   0  0  0  0  0  0
  -21.4199  -29.3046   22.3663 N   0  0  0  0  0  0
  -26.4291  -37.3778   23.9409 N   0  0  0  0  0  0
  -24.6928  -31.0558   22.0956 N   0  0  0  0  0  0
  -23.4200  -28.8155   23.3020 O   0  0  0  0  0  0
  -28.3388  -26.4233   20.1570 O   0  0  0  0  0  0
  -26.5628  -34.8923   22.4680 O   0  0  0  0  0  0
  -23.5439  -32.1383   23.7296 O   0  0  0  0  0  0
  -29.1948  -21.8099   21.7289 C   0  0  0  0  0  0
  -29.2418  -21.1949   19.6635 C   0  0  0  0  0  0
  -29.1654  -22.3679   20.4101 C   0  0  0  0  0  0
  -29.2466  -16.0318   18.8182 C   0  0  0  0  0  0
  -29.1633  -23.8871   19.9368 C   0  0  0  0  0  0
  -29.1998  -18.5811   20.0853 C   0  0  0  0  0  0
  -30.1009  -17.3577   20.6823 C   0  0  0  0  0  0
  -28.1546  -24.9841   20.5349 C   0  0  0  0  0  0
  -29.2714  -20.4655   21.7669 N   0  0  0  0  0  0
  -29.3234  -20.0448   20.4796 N   0  0  0  0  0  0
  -29.8312  -15.9280   20.1652 N   0  0  0  0  0  0
  -31.4790  -12.5869   19.1523 H   0  0  0  0  0  0
  -30.4246  -11.5021   20.0203 H   0  0  0  0  0  0
  -29.7761  -11.5079   17.6389 H   0  0  0  0  0  0
  -29.6876  -13.2238   17.5738 H   0  0  0  0  0  0
  -27.8591  -11.2427   18.9391 H   0  0  0  0  0  0
  -27.3833  -12.4639   17.7951 H   0  0  0  0  0  0
  -27.5761  -14.2077   19.4272 H   0  0  0  0  0  0
  -28.7425  -12.2336   21.4495 H   0  0  0  0  0  0
  -28.4327  -13.9348   21.7279 H   0  0  0  0  0  0
  -25.2735   -9.5669   22.4779 H   0  0  0  0  0  0
  -23.9986   -7.4611   22.7469 H   0  0  0  0  0  0
  -21.0824   -8.8759   19.8950 H   0  0  0  0  0  0
  -22.3674  -10.9668   19.6178 H   0  0  0  0  0  0
  -21.2012   -7.6142   23.9710 H   0  0  0  0  0  0
  -21.1482   -6.0518   25.9073 H   0  0  0  0  0  0
  -22.0602   -2.7604   23.2845 H   0  0  0  0  0  0
  -22.4051  -11.9891   22.4819 H   0  0  0  0  0  0
  -21.1067  -13.1271   22.2620 H   0  0  0  0  0  0
  -24.6704  -15.8478   20.5407 H   0  0  0  0  0  0
  -26.2980  -15.6232   20.1439 H   0  0  0  0  0  0
  -26.7188  -32.5433   23.1094 H   0  0  0  0  0  0
  -25.0038  -33.9710   25.0397 H   0  0  0  0  0  0
  -22.7207  -31.3003   21.3952 H   0  0  0  0  0  0
  -23.3749  -35.9627   23.3301 H   0  0  0  0  0  0
  -24.3578  -36.8921   22.2057 H   0  0  0  0  0  0
  -23.7236  -37.6496   23.6665 H   0  0  0  0  0  0
  -26.1001  -31.5371   20.6018 H   0  0  0  0  0  0
  -26.8483  -30.8322   22.0037 H   0  0  0  0  0  0
  -28.1223  -28.9577   21.1963 H   0  0  0  0  0  0
  -25.9943  -25.9158   18.9955 H   0  0  0  0  0  0
  -23.9810  -27.2999   19.0041 H   0  0  0  0  0  0
  -23.7682  -30.5850   19.4021 H   0  0  0  0  0  0
  -22.7624  -29.2425   19.8542 H   0  0  0  0  0  0
  -25.1290  -36.1941   25.0825 H   0  0  0  0  0  0
  -20.9988  -28.3274   24.1393 H   0  0  0  0  0  0
  -20.5672  -26.2309   23.3614 H   0  0  0  0  0  0
  -21.6644  -26.7437   22.1204 H   0  0  0  0  0  0
  -19.6911  -25.6291   21.1246 H   0  0  0  0  0  0
  -19.6684  -27.3188   20.6739 H   0  0  0  0  0  0
  -17.4200  -26.6675   21.4031 H   0  0  0  0  0  0
  -18.0333  -26.0070   22.9022 H   0  0  0  0  0  0
  -19.7940  -30.7268   24.2276 H   0  0  0  0  0  0
  -17.5019  -31.6267   24.5165 H   0  0  0  0  0  0
  -15.5356  -30.2992   23.7643 H   0  0  0  0  0  0
  -15.8678  -28.0819   22.7073 H   0  0  0  0  0  0
  -24.5865  -30.7112   25.7765 H   0  0  0  0  0  0
  -24.8918  -32.2910   26.4880 H   0  0  0  0  0  0
  -25.8012  -30.8895   27.0218 H   0  0  0  0  0  0
  -26.2906  -29.6762   24.1207 H   0  0  0  0  0  0
  -27.4010  -29.7264   25.4705 H   0  0  0  0  0  0
  -27.8785  -30.4293   23.9430 H   0  0  0  0  0  0
  -27.2642  -33.3618   26.2088 H   0  0  0  0  0  0
  -28.3843  -32.6903   25.0325 H   0  0  0  0  0  0
  -28.0719  -31.8448   26.5408 H   0  0  0  0  0  0
  -28.2596  -38.0102   24.7511 H   0  0  0  0  0  0
  -28.1077  -36.2632   24.6285 H   0  0  0  0  0  0
  -27.2301  -37.1450   25.8869 H   0  0  0  0  0  0
  -20.9384  -29.8771   21.6869 H   0  0  0  0  0  0
  -26.0175  -38.2856   24.1402 H   0  0  0  0  0  0
  -29.1725  -22.3447   22.6684 H   0  0  0  0  0  0
  -29.2377  -21.0797   18.5879 H   0  0  0  0  0  0
  -28.2320  -16.4271   18.8531 H   0  0  0  0  0  0
  -29.1865  -15.0959   18.2802 H   0  0  0  0  0  0
  -29.8587  -16.6682   18.1780 H   0  0  0  0  0  0
  -29.0328  -23.9148   18.8548 H   0  0  0  0  0  0
  -30.1659  -24.2873   20.0889 H   0  0  0  0  0  0
  -28.1536  -18.3227   20.2552 H   0  0  0  0  0  0
  -29.3143  -18.5995   19.0032 H   0  0  0  0  0  0
  -29.9863  -17.3384   21.7664 H   0  0  0  0  0  0
  -31.1523  -17.5850   20.5013 H   0  0  0  0  0  0
  -28.2391  -24.9529   21.6214 H   0  0  0  0  0  0
  -27.1413  -24.6458   20.3272 H   0  0  0  0  0  0
  1 25  1  0  0  0
  1 30  2  0  0  0
  1 81  1  0  0  0
  2  3  1  0  0  0
  2 25  1  0  0  0
  2 82  1  0  0  0
  2 83  1  0  0  0
  3  4  1  0  0  0
  3 84  1  0  0  0
  3 85  1  0  0  0
  4  5  1  0  0  0
  4 86  1  0  0  0
  4 87  1  0  0  0
  5  6  1  0  0  0
  5 26  1  0  0  0
  5 88  1  0  0  0
  6 25  1  0  0  0
  6 89  1  0  0  0
  6 90  1  0  0  0
  7  8  2  0  0  0
  7 26  1  0  0  0
  7 29  1  0  0  0
  8  9  1  0  0  0
  8 22  1  0  0  0
  9 10  1  0  0  0
  9 27  2  0  0  0
 10 11  2  0  0  0
 10 15  1  0  0  0
 11 12  1  0  0  0
 11 91  1  0  0  0
 12 13  2  0  0  0
 12 92  1  0  0  0
 13 14  1  0  0  0
 13 31  1  0  0  0
 14 15  2  0  0  0
 14 93  1  0  0  0
 15 94  1  0  0  0
 16 17  2  0  0  0
 16 21  1  0  0  0
 16 31  1  0  0  0
 17 18  1  0  0  0
 17 95  1  0  0  0
 18 19  2  0  0  0
 18 96  1  0  0  0
 19 20  1  0  0  0
 19 24  1  0  0  0
 20 21  2  0  0  0
 20 97  1  0  0  0
 21 23  1  0  0  0
 22 28  1  0  0  0
 22 32  2  0  0  0
 26 27  1  0  0  0
 28 98  1  0  0  0
 28 99  1  0  0  0
 29100  1  0  0  0
 29101  1  0  0  0
 33 34  1  0  0  0
 33 66  1  0  0  0
 33 70  2  0  0  0
 34 36  1  0  0  0
 34 59  1  0  0  0
 34102  1  0  0  0
 35 44  2  0  0  0
 35 45  1  0  0  0
 35 68  1  0  0  0
 36 56  1  0  0  0
 36103  1  0  0  0
 37 39  1  0  0  0
 37 47  1  0  0  0
 37 66  1  0  0  0
 37104  1  0  0  0
 38 43  2  0  0  0
 38 46  1  0  0  0
 38 47  1  0  0  0
 39 64  1  0  0  0
 39 67  2  0  0  0
 40 52  1  0  0  0
 40 53  2  0  0  0
 40 58  1  0  0  0
 41105  1  0  0  0
 41106  1  0  0  0
 41107  1  0  0  0
 41 48  1  0  0  0
 42 43  1  0  0  0
 42 66  1  0  0  0
 42108  1  0  0  0
 42109  1  0  0  0
 43 44  1  0  0  0
 44110  1  0  0  0
 45 46  2  0  0  0
 45111  1  0  0  0
 46112  1  0  0  0
 47113  1  0  0  0
 47114  1  0  0  0
 48 56  1  0  0  0
 48 65  1  0  0  0
 48115  1  0  0  0
 49 50  1  0  0  0
 49 53  1  0  0  0
 49 64  1  0  0  0
 49116  1  0  0  0
 50 51  1  0  0  0
 50117  1  0  0  0
 50118  1  0  0  0
 51 52  1  0  0  0
 51119  1  0  0  0
 51120  1  0  0  0
 52121  1  0  0  0
 52122  1  0  0  0
 53 54  1  0  0  0
 54 55  2  0  0  0
 54123  1  0  0  0
 55 57  1  0  0  0
 55124  1  0  0  0
 56 69  2  0  0  0
 57 58  2  0  0  0
 57125  1  0  0  0
 58126  1  0  0  0
 59 60  1  0  0  0
 59 61  1  0  0  0
 59 62  1  0  0  0
 60127  1  0  0  0
 60128  1  0  0  0
 60129  1  0  0  0
 61130  1  0  0  0
 61131  1  0  0  0
 61132  1  0  0  0
 62133  1  0  0  0
 62134  1  0  0  0
 62135  1  0  0  0
 63 65  1  0  0  0
 63136  1  0  0  0
 63137  1  0  0  0
 63138  1  0  0  0
 64139  1  0  0  0
 65140  1  0  0  0
 68 78  1  0  0  0
 71 73  1  0  0  0
 71 79  2  0  0  0
 71141  1  0  0  0
 72 73  2  0  0  0
 72 80  1  0  0  0
 72142  1  0  0  0
 73 75  1  0  0  0
 74 81  1  0  0  0
 74143  1  0  0  0
 74144  1  0  0  0
 74145  1  0  0  0
 75 78  1  0  0  0
 75146  1  0  0  0
 75147  1  0  0  0
 76 77  1  0  0  0
 76 80  1  0  0  0
 76148  1  0  0  0
 76149  1  0  0  0
 77 81  1  0  0  0
 77150  1  0  0  0
 77151  1  0  0  0
 78152  1  0  0  0
 78153  1  0  0  0
 79 80  1  0  0  0
M  ISO  4   1 100  68 101  78 101  81 100
M  END
> <chiral flag>
0

> <version>
0

> <s_m_source_file>
/data/baiqing/PycharmProjects/Reinvent-master-3.2/result/LINK_invent/BTK/process_docking_weight1_custom_sum_contain_oxygen_bond_distance_aromatic_linkinvent_7_9_3/rearranged_h_0057.sdf

> <i_m_source_file_index>
47

> <r_mmod_Potential_Energy-OPLS-2005>
333.145751953125

> <r_mmod_Stretch_Energy-OPLS-2005>
115.764739990234

> <r_mmod_Bend_Energy-OPLS-2005>
169.714416503906

> <r_mmod_Torsional_Energy-OPLS-2005>
321.049224853516

> <r_mmod_Improper_Torsional_Energy-OPLS-2005>
12.7063217163086

> <r_mmod_Van_der_Waal_Energy-OPLS-2005>
129.942108154297

> <r_mmod_Electrostatic_Energy-OPLS-2005>
-292.820434570312

> <r_mmod_Solvation_Energy-OPLS-2005>
-219.922332763672

> <b_mmod_Minimization_Converged-OPLS-2005>
0

> <r_mmod_RMS_Derivative-OPLS-2005>
0.762837707996368

$$$$
47
                    3D
 Structure written by MMmdl.
162170  0  0  1  0            999 V2000
  -30.6649  -14.5712   20.5379 C   0  0  0  0  0  0
  -30.4339  -12.3589   19.4473 C   0  0  0  0  0  0
  -29.5054  -12.4952   18.2200 C   0  0  0  0  0  0
  -28.0278  -12.3410   18.6339 C   0  0  0  0  0  0
  -27.6550  -13.2106   19.8636 C   0  0  2  0  0  0
  -28.6971  -13.0504   20.9942 C   0  0  0  0  0  0
  -25.2546  -13.8157   20.5627 C   0  0  0  0  0  0
  -24.1816  -13.0436   20.9182 C   0  0  0  0  0  0
  -24.6375  -11.6904   20.8750 C   0  0  0  0  0  0
  -23.9047  -10.4290   21.0428 C   0  0  0  0  0  0
  -24.3598   -9.4203   21.9197 C   0  0  0  0  0  0
  -23.6277   -8.2243   22.0758 C   0  0  0  0  0  0
  -22.4263   -8.0280   21.3548 C   0  0  0  0  0  0
  -21.9897   -9.0259   20.4658 C   0  0  0  0  0  0
  -22.7223  -10.2137   20.3068 C   0  0  0  0  0  0
  -21.6856   -6.0726   22.5275 C   0  0  0  0  0  0
  -21.4022   -6.5634   23.8208 C   0  0  0  0  0  0
  -21.3656   -5.6778   24.9170 C   0  0  0  0  0  0
  -21.6040   -4.3041   24.7222 C   0  0  0  0  0  0
  -21.8820   -3.8137   23.4339 C   0  0  0  0  0  0
  -21.9196   -4.6956   22.3396 C   0  0  0  0  0  0
  -22.7841  -13.5237   21.1845 C   0  0  0  0  0  0
  -22.1665   -4.2141   21.0970 F   0  0  0  0  0  0
  -21.5623   -3.4526   25.7734 F   0  0  0  0  0  0
  -30.0197  -13.3713   20.4338 N   0  0  0  0  0  0
  -26.2979  -12.9330   20.3298 N   0  0  0  0  0  0
  -25.9303  -11.6498   20.5765 N   0  0  0  0  0  0
  -22.0466  -12.8250   22.0406 N   0  0  0  0  0  0
  -25.4230  -15.1863   20.3909 N   0  0  0  0  0  0
  -31.8160  -14.7356   20.1274 O   0  0  0  0  0  0
  -21.6633   -6.8874   21.4239 O   0  0  0  0  0  0
  -22.3537  -14.5548   20.6686 O   0  0  0  0  0  0
  -24.6181  -31.8649   23.2073 C   0  0  0  0  0  0
  -25.9053  -32.4810   23.8382 C   0  0  1  0  0  0
  -27.2221  -27.3871   20.1173 C   0  0  0  0  0  0
  -25.5890  -33.8603   24.2318 N   0  0  0  0  0  0
  -23.4096  -30.4886   21.5477 C   0  0  2  0  0  0
  -24.8584  -28.9563   20.1103 C   0  0  0  0  0  0
  -22.7441  -29.4631   22.4951 C   0  0  0  0  0  0
  -18.0279  -28.1383   22.8482 C   0  0  0  0  0  0
  -24.1483  -36.7314   23.2636 C   0  0  0  0  0  0
  -25.9429  -30.8220   21.3643 C   0  0  0  0  0  0
  -26.0228  -29.4528   20.7121 C   0  0  0  0  0  0
  -27.2134  -28.6785   20.7074 C   0  0  0  0  0  0
  -26.0409  -26.9233   19.5019 C   0  0  0  0  0  0
  -24.8665  -27.6949   19.4947 C   0  0  0  0  0  0
  -23.6217  -29.8260   20.1611 C   0  0  0  0  0  0
  -25.4101  -36.3103   24.0339 C   0  0  1  0  0  0
  -20.5873  -28.3670   23.1306 C   0  0  2  0  0  0
  -20.6767  -26.9402   22.5416 C   0  0  0  0  0  0
  -19.5749  -26.6388   21.5208 C   0  0  0  0  0  0
  -18.1927  -26.7929   22.1620 C   0  0  0  0  0  0
  -19.1530  -28.8844   23.2890 C   0  0  0  0  0  0
  -18.9453  -30.1446   23.8906 C   0  0  0  0  0  0
  -17.6456  -30.6583   24.0568 C   0  0  0  0  0  0
  -25.9027  -34.9470   23.5129 C   0  0  0  0  0  0
  -16.5347  -29.9087   23.6325 C   0  0  0  0  0  0
  -16.7269  -28.6509   23.0339 C   0  0  0  0  0  0
  -26.4476  -31.6585   25.0709 C   0  0  0  0  0  0
  -25.3746  -31.3702   26.1463 C   0  0  0  0  0  0
  -27.0291  -30.3022   24.6081 C   0  0  0  0  0  0
  -27.6062  -32.4295   25.7466 C   0  0  0  0  0  0
  -27.5582  -37.1801   24.8461 C   0  0  0  0  0  0
  -21.4163  -29.3027   22.3702 N   0  0  0  0  0  0
  -26.4286  -37.3791   23.9416 N   0  0  0  0  0  0
  -24.6754  -31.0727   22.0983 N   0  0  0  0  0  0
  -23.4200  -28.8165   23.2995 O   0  0  0  0  0  0
  -28.3316  -26.5558   20.1410 O   0  0  0  0  0  0
  -26.5598  -34.8926   22.4695 O   0  0  0  0  0  0
  -23.5360  -32.1400   23.7444 O   0  0  0  0  0  0
  -28.9826  -22.8577   20.9473 C   0  0  0  0  0  0
  -29.2560  -21.9063   19.9049 C   0  0  0  0  0  0
  -28.6353  -24.0498   20.3338 C   0  0  0  0  0  0
  -27.9127  -17.7027   21.7275 C   0  0  0  0  0  0
  -28.4317  -24.6461   17.8420 C   0  0  0  0  0  0
  -30.3399  -19.8367   22.2273 C   0  0  0  0  0  0
  -29.7230  -20.4240   19.8924 C   0  0  0  0  0  0
  -28.1646  -25.3688   20.9716 C   0  0  0  0  0  0
  -30.3057  -17.0638   21.0544 C   0  0  0  0  0  0
  -29.1209  -18.1016   20.8588 C   0  0  2  0  0  0
  -29.0864  -22.5031   18.7289 N   0  0  0  0  0  0
  -28.7109  -23.7843   18.9757 N   0  0  0  0  0  0
  -29.9141  -15.6227   20.9534 N   0  0  0  0  0  0
  -29.4174  -19.5773   21.0955 N   0  3  1  0  0  0
  -31.4780  -12.4714   19.1472 H   0  0  0  0  0  0
  -30.3570  -11.3607   19.8818 H   0  0  0  0  0  0
  -29.7629  -11.7433   17.4723 H   0  0  0  0  0  0
  -29.6541  -13.4661   17.7444 H   0  0  0  0  0  0
  -27.8597  -11.2888   18.8669 H   0  0  0  0  0  0
  -27.3722  -12.5711   17.7938 H   0  0  0  0  0  0
  -27.6817  -14.2472   19.5284 H   0  0  0  0  0  0
  -28.6943  -12.0283   21.3749 H   0  0  0  0  0  0
  -28.4485  -13.6808   21.8477 H   0  0  0  0  0  0
  -25.2753   -9.5675   22.4759 H   0  0  0  0  0  0
  -23.9992   -7.4634   22.7459 H   0  0  0  0  0  0
  -21.0835   -8.8781   19.8959 H   0  0  0  0  0  0
  -22.3697  -10.9675   19.6166 H   0  0  0  0  0  0
  -21.2027   -7.6147   23.9704 H   0  0  0  0  0  0
  -21.1473   -6.0512   25.9062 H   0  0  0  0  0  0
  -22.0606   -2.7605   23.2831 H   0  0  0  0  0  0
  -22.4078  -11.9934   22.4835 H   0  0  0  0  0  0
  -21.1083  -13.1297   22.2602 H   0  0  0  0  0  0
  -24.6372  -15.8248   20.4545 H   0  0  0  0  0  0
  -26.2361  -15.6000   19.9546 H   0  0  0  0  0  0
  -26.7128  -32.5526   23.1150 H   0  0  0  0  0  0
  -25.0034  -33.9768   25.0459 H   0  0  0  0  0  0
  -22.6983  -31.3048   21.4088 H   0  0  0  0  0  0
  -23.3739  -35.9651   23.3297 H   0  0  0  0  0  0
  -24.3580  -36.8931   22.2051 H   0  0  0  0  0  0
  -23.7241  -37.6522   23.6652 H   0  0  0  0  0  0
  -26.0524  -31.5843   20.5915 H   0  0  0  0  0  0
  -26.8318  -30.8822   21.9805 H   0  0  0  0  0  0
  -28.1093  -29.0520   21.1836 H   0  0  0  0  0  0
  -26.0117  -25.9473   19.0451 H   0  0  0  0  0  0
  -23.9740  -27.3092   19.0213 H   0  0  0  0  0  0
  -23.7329  -30.6029   19.4040 H   0  0  0  0  0  0
  -22.7458  -29.2474   19.8620 H   0  0  0  0  0  0
  -25.1270  -36.1966   25.0830 H   0  0  0  0  0  0
  -20.9965  -28.3244   24.1427 H   0  0  0  0  0  0
  -20.5674  -26.2271   23.3601 H   0  0  0  0  0  0
  -21.6638  -26.7442   22.1209 H   0  0  0  0  0  0
  -19.6911  -25.6301   21.1226 H   0  0  0  0  0  0
  -19.6695  -27.3209   20.6746 H   0  0  0  0  0  0
  -17.4194  -26.6666   21.4025 H   0  0  0  0  0  0
  -18.0336  -26.0078   22.9028 H   0  0  0  0  0  0
  -19.7928  -30.7254   24.2286 H   0  0  0  0  0  0
  -17.5011  -31.6262   24.5171 H   0  0  0  0  0  0
  -15.5347  -30.2993   23.7642 H   0  0  0  0  0  0
  -15.8671  -28.0836   22.7040 H   0  0  0  0  0  0
  -24.5907  -30.7062   25.7808 H   0  0  0  0  0  0
  -24.8948  -32.2859   26.4924 H   0  0  0  0  0  0
  -25.8093  -30.8861   27.0215 H   0  0  0  0  0  0
  -26.2822  -29.6792   24.1148 H   0  0  0  0  0  0
  -27.4074  -29.7249   25.4526 H   0  0  0  0  0  0
  -27.8655  -30.4332   23.9214 H   0  0  0  0  0  0
  -27.2694  -33.3586   26.2077 H   0  0  0  0  0  0
  -28.3849  -32.6866   25.0273 H   0  0  0  0  0  0
  -28.0757  -31.8395   26.5348 H   0  0  0  0  0  0
  -28.2589  -38.0111   24.7517 H   0  0  0  0  0  0
  -28.1084  -36.2637   24.6253 H   0  0  0  0  0  0
  -27.2308  -37.1427   25.8868 H   0  0  0  0  0  0
  -20.9321  -29.8745   21.6924 H   0  0  0  0  0  0
  -26.0170  -38.2863   24.1433 H   0  0  0  0  0  0
  -29.0194  -22.6999   22.0151 H   0  0  0  0  0  0
  -27.5788  -16.6879   21.5167 H   0  0  0  0  0  0
  -27.0587  -18.3536   21.5391 H   0  0  0  0  0  0
  -28.1452  -17.7531   22.7915 H   0  0  0  0  0  0
  -28.9754  -25.5856   17.9363 H   0  0  0  0  0  0
  -27.3645  -24.8485   17.7883 H   0  0  0  0  0  0
  -28.7310  -24.1715   16.9074 H   0  0  0  0  0  0
  -30.3385  -20.8880   22.5114 H   0  0  0  0  0  0
  -31.3662  -19.5684   21.9725 H   0  0  0  0  0  0
  -30.0488  -19.2677   23.1103 H   0  0  0  0  0  0
  -30.7950  -20.3809   19.6986 H   0  0  0  0  0  0
  -29.2688  -19.9518   19.0211 H   0  0  0  0  0  0
  -28.7272  -25.5380   21.8902 H   0  0  0  0  0  0
  -27.1285  -25.2438   21.2937 H   0  0  0  0  0  0
  -30.7491  -17.1823   22.0431 H   0  0  0  0  0  0
  -31.1002  -17.2825   20.3389 H   0  0  0  0  0  0
  -28.7793  -17.9945   19.8284 H   0  0  0  0  0  0
  -28.9762  -15.3929   21.2463 H   0  0  0  0  0  0
  -28.5266  -19.9499   21.3850 H   0  0  0  0  0  0
  1 25  1  0  0  0
  1 30  2  0  0  0
  1 83  1  0  0  0
  2  3  1  0  0  0
  2 25  1  0  0  0
  2 85  1  0  0  0
  2 86  1  0  0  0
  3  4  1  0  0  0
  3 87  1  0  0  0
  3 88  1  0  0  0
  4  5  1  0  0  0
  4 89  1  0  0  0
  4 90  1  0  0  0
  5  6  1  0  0  0
  5 26  1  0  0  0
  5 91  1  0  0  0
  6 25  1  0  0  0
  6 92  1  0  0  0
  6 93  1  0  0  0
  7  8  2  0  0  0
  7 26  1  0  0  0
  7 29  1  0  0  0
  8  9  1  0  0  0
  8 22  1  0  0  0
  9 10  1  0  0  0
  9 27  2  0  0  0
 10 11  2  0  0  0
 10 15  1  0  0  0
 11 12  1  0  0  0
 11 94  1  0  0  0
 12 13  2  0  0  0
 12 95  1  0  0  0
 13 14  1  0  0  0
 13 31  1  0  0  0
 14 15  2  0  0  0
 14 96  1  0  0  0
 15 97  1  0  0  0
 16 17  2  0  0  0
 16 21  1  0  0  0
 16 31  1  0  0  0
 17 18  1  0  0  0
 17 98  1  0  0  0
 18 19  2  0  0  0
 18 99  1  0  0  0
 19 20  1  0  0  0
 19 24  1  0  0  0
 20 21  2  0  0  0
 20100  1  0  0  0
 21 23  1  0  0  0
 22 28  1  0  0  0
 22 32  2  0  0  0
 26 27  1  0  0  0
 28101  1  0  0  0
 28102  1  0  0  0
 29103  1  0  0  0
 29104  1  0  0  0
 33 34  1  0  0  0
 33 66  1  0  0  0
 33 70  2  0  0  0
 34 36  1  0  0  0
 34 59  1  0  0  0
 34105  1  0  0  0
 35 44  2  0  0  0
 35 45  1  0  0  0
 35 68  1  0  0  0
 36 56  1  0  0  0
 36106  1  0  0  0
 37 39  1  0  0  0
 37 47  1  0  0  0
 37 66  1  0  0  0
 37107  1  0  0  0
 38 43  2  0  0  0
 38 46  1  0  0  0
 38 47  1  0  0  0
 39 64  1  0  0  0
 39 67  2  0  0  0
 40 52  1  0  0  0
 40 53  2  0  0  0
 40 58  1  0  0  0
 41108  1  0  0  0
 41109  1  0  0  0
 41110  1  0  0  0
 41 48  1  0  0  0
 42 43  1  0  0  0
 42 66  1  0  0  0
 42111  1  0  0  0
 42112  1  0  0  0
 43 44  1  0  0  0
 44113  1  0  0  0
 45 46  2  0  0  0
 45114  1  0  0  0
 46115  1  0  0  0
 47116  1  0  0  0
 47117  1  0  0  0
 48 56  1  0  0  0
 48 65  1  0  0  0
 48118  1  0  0  0
 49 50  1  0  0  0
 49 53  1  0  0  0
 49 64  1  0  0  0
 49119  1  0  0  0
 50 51  1  0  0  0
 50120  1  0  0  0
 50121  1  0  0  0
 51 52  1  0  0  0
 51122  1  0  0  0
 51123  1  0  0  0
 52124  1  0  0  0
 52125  1  0  0  0
 53 54  1  0  0  0
 54 55  2  0  0  0
 54126  1  0  0  0
 55 57  1  0  0  0
 55127  1  0  0  0
 56 69  2  0  0  0
 57 58  2  0  0  0
 57128  1  0  0  0
 58129  1  0  0  0
 59 60  1  0  0  0
 59 61  1  0  0  0
 59 62  1  0  0  0
 60130  1  0  0  0
 60131  1  0  0  0
 60132  1  0  0  0
 61133  1  0  0  0
 61134  1  0  0  0
 61135  1  0  0  0
 62136  1  0  0  0
 62137  1  0  0  0
 62138  1  0  0  0
 63 65  1  0  0  0
 63139  1  0  0  0
 63140  1  0  0  0
 63141  1  0  0  0
 64142  1  0  0  0
 65143  1  0  0  0
 68 78  1  0  0  0
 71 72  1  0  0  0
 71 73  2  0  0  0
 71144  1  0  0  0
 72 77  1  0  0  0
 72 81  2  0  0  0
 73 78  1  0  0  0
 73 82  1  0  0  0
 74145  1  0  0  0
 74146  1  0  0  0
 74147  1  0  0  0
 74 80  1  0  0  0
 75 82  1  0  0  0
 75148  1  0  0  0
 75149  1  0  0  0
 75150  1  0  0  0
 76151  1  0  0  0
 76152  1  0  0  0
 76153  1  0  0  0
 76 84  1  0  0  0
 77 84  1  0  0  0
 77154  1  0  0  0
 77155  1  0  0  0
 78156  1  0  0  0
 78157  1  0  0  0
 79 80  1  0  0  0
 79 83  1  0  0  0
 79158  1  0  0  0
 79159  1  0  0  0
 80 84  1  0  0  0
 80160  1  0  0  0
 81 82  1  0  0  0
 83161  1  0  0  0
 84162  1  0  0  0
M  CHG  1  84   1
M  ISO  4   1 100  68 101  78 101  83 100
M  END
> <chiral flag>
0

> <version>
0

> <s_m_source_file>
/data/baiqing/PycharmProjects/Reinvent-master-3.2/result/LINK_invent/BTK/process_docking_weight1_custom_sum_contain_oxygen_bond_distance_aromatic_linkinvent_7_9_3/rearranged_h_0057.sdf

> <i_m_source_file_index>
48

> <r_mmod_Potential_Energy-OPLS-2005>
-221.842102050781

> <r_mmod_Stretch_Energy-OPLS-2005>
57.8580017089844

> <r_mmod_Bend_Energy-OPLS-2005>
126.664283752441

> <r_mmod_Torsional_Energy-OPLS-2005>
243.549468994141

> <r_mmod_Improper_Torsional_Energy-OPLS-2005>
4.62072134017944

> <r_mmod_Van_der_Waal_Energy-OPLS-2005>
122.994262695312

> <r_mmod_Electrostatic_Energy-OPLS-2005>
-341.483856201172

> <r_mmod_Solvation_Energy-OPLS-2005>
-464.943237304688

> <b_mmod_Minimization_Converged-OPLS-2005>
0

> <r_mmod_RMS_Derivative-OPLS-2005>
2.11656212806702

$$$$
48
                    3D
 Structure written by MMmdl.
173181  0  0  1  0            999 V2000
  -30.7402  -14.4254   20.6024 C   0  0  0  0  0  0
  -30.4085  -12.2825   19.4142 C   0  0  0  0  0  0
  -29.4837  -12.5030   18.2001 C   0  0  0  0  0  0
  -28.0036  -12.3772   18.6127 C   0  0  0  0  0  0
  -27.6648  -13.1994   19.8862 C   0  0  2  0  0  0
  -28.7106  -12.9385   20.9977 C   0  0  0  0  0  0
  -25.2601  -13.8134   20.5683 C   0  0  0  0  0  0
  -24.1842  -13.0432   20.9183 C   0  0  0  0  0  0
  -24.6392  -11.6896   20.8755 C   0  0  0  0  0  0
  -23.9055  -10.4282   21.0414 C   0  0  0  0  0  0
  -24.3610   -9.4197   21.9191 C   0  0  0  0  0  0
  -23.6286   -8.2233   22.0753 C   0  0  0  0  0  0
  -22.4269   -8.0276   21.3543 C   0  0  0  0  0  0
  -21.9907   -9.0247   20.4644 C   0  0  0  0  0  0
  -22.7233  -10.2131   20.3057 C   0  0  0  0  0  0
  -21.6847   -6.0730   22.5287 C   0  0  0  0  0  0
  -21.4007   -6.5634   23.8216 C   0  0  0  0  0  0
  -21.3660   -5.6792   24.9177 C   0  0  0  0  0  0
  -21.6046   -4.3055   24.7231 C   0  0  0  0  0  0
  -21.8817   -3.8148   23.4349 C   0  0  0  0  0  0
  -21.9188   -4.6961   22.3407 C   0  0  0  0  0  0
  -22.7865  -13.5236   21.1841 C   0  0  0  0  0  0
  -22.1656   -4.2141   21.0981 F   0  0  0  0  0  0
  -21.5641   -3.4544   25.7746 F   0  0  0  0  0  0
  -30.0349  -13.2646   20.4488 N   0  0  0  0  0  0
  -26.3050  -12.9303   20.3447 N   0  0  0  0  0  0
  -25.9321  -11.6467   20.5816 N   0  0  0  0  0  0
  -22.0497  -12.8228   22.0391 N   0  0  0  0  0  0
  -25.4351  -15.1843   20.4049 N   0  0  0  0  0  0
  -31.8401  -14.5361   20.0540 O   0  0  0  0  0  0
  -21.6633   -6.8877   21.4244 O   0  0  0  0  0  0
  -22.3555  -14.5549   20.6696 O   0  0  0  0  0  0
  -24.6098  -31.8682   23.2145 C   0  0  0  0  0  0
  -25.9010  -32.4821   23.8415 C   0  0  1  0  0  0
  -27.2286  -27.4609   20.0878 C   0  0  0  0  0  0
  -25.5890  -33.8622   24.2335 N   0  0  0  0  0  0
  -23.3959  -30.4947   21.5539 C   0  0  2  0  0  0
  -24.8384  -28.9620   20.1176 C   0  0  0  0  0  0
  -22.7383  -29.4641   22.4993 C   0  0  0  0  0  0
  -18.0253  -28.1362   22.8460 C   0  0  0  0  0  0
  -24.1483  -36.7316   23.2641 C   0  0  0  0  0  0
  -25.9221  -30.8442   21.3621 C   0  0  0  0  0  0
  -25.9967  -29.4808   20.7060 C   0  0  0  0  0  0
  -27.1951  -28.7377   20.6856 C   0  0  0  0  0  0
  -26.0502  -26.9446   19.4987 C   0  0  0  0  0  0
  -24.8564  -27.6916   19.5159 C   0  0  0  0  0  0
  -23.6018  -29.8266   20.1681 C   0  0  0  0  0  0
  -25.4112  -36.3102   24.0329 C   0  0  1  0  0  0
  -20.5835  -28.3619   23.1307 C   0  0  2  0  0  0
  -20.6728  -26.9354   22.5410 C   0  0  0  0  0  0
  -19.5730  -26.6369   21.5179 C   0  0  0  0  0  0
  -18.1898  -26.7910   22.1584 C   0  0  0  0  0  0
  -19.1507  -28.8817   23.2875 C   0  0  0  0  0  0
  -18.9461  -30.1434   23.8870 C   0  0  0  0  0  0
  -17.6462  -30.6560   24.0548 C   0  0  0  0  0  0
  -25.9036  -34.9474   23.5126 C   0  0  0  0  0  0
  -16.5342  -29.9067   23.6325 C   0  0  0  0  0  0
  -16.7243  -28.6499   23.0317 C   0  0  0  0  0  0
  -26.4466  -31.6625   25.0750 C   0  0  0  0  0  0
  -25.3753  -31.3720   26.1521 C   0  0  0  0  0  0
  -27.0326  -30.3079   24.6122 C   0  0  0  0  0  0
  -27.6028  -32.4371   25.7501 C   0  0  0  0  0  0
  -27.5584  -37.1805   24.8460 C   0  0  0  0  0  0
  -21.4117  -29.3005   22.3743 N   0  0  0  0  0  0
  -26.4302  -37.3786   23.9401 N   0  0  0  0  0  0
  -24.6606  -31.0824   22.1017 N   0  0  0  0  0  0
  -23.4181  -28.8157   23.2990 O   0  0  0  0  0  0
  -28.4270  -26.7858   20.0928 O   0  0  0  0  0  0
  -26.5598  -34.8914   22.4687 O   0  0  0  0  0  0
  -23.5313  -32.1418   23.7573 O   0  0  0  0  0  0
  -31.8838  -17.3553   20.3513 C   0  0  0  0  0  0
  -30.5648  -17.0153   20.7536 C   0  0  0  0  0  0
  -31.1484  -19.3734   19.5166 C   0  0  0  0  0  0
  -29.8385  -19.0860   19.9844 C   0  0  0  0  0  0
  -31.3702  -20.4753   17.2467 C   0  0  0  0  0  0
  -29.4465  -23.0085   25.4812 C   0  0  0  0  0  0
  -31.5026  -20.6471   18.7643 C   0  0  0  0  0  0
  -28.7036  -20.0966   19.9090 C   0  0  0  0  0  0
  -29.5282  -23.3315   23.9846 C   0  0  0  0  0  0
  -28.7791  -21.0929   21.0826 C   0  0  0  0  0  0
  -28.1825  -23.1759   23.2514 C   0  0  0  0  0  0
  -27.9081  -22.3576   20.9048 C   0  0  0  0  0  0
  -27.8161  -24.8080   21.4238 C   0  0  0  0  0  0
  -28.4193  -25.3601   20.1110 C   0  0  0  0  0  0
  -30.2090  -15.6595   21.4073 C   0  0  0  0  0  0
  -32.1712  -18.5101   19.7078 N   0  0  0  0  0  0
  -29.5503  -17.9128   20.5964 N   0  0  0  0  0  0
  -28.3462  -23.4670   21.8000 N   0  3  1  0  0  0
  -30.7288  -15.6211   22.6360 F   0  0  0  0  0  0
  -28.8798  -15.6214   21.5205 F   0  0  0  0  0  0
  -31.4532  -12.3506   19.1087 H   0  0  0  0  0  0
  -30.2923  -11.2679   19.7998 H   0  0  0  0  0  0
  -29.7130  -11.7824   17.4137 H   0  0  0  0  0  0
  -29.6648  -13.4912   17.7749 H   0  0  0  0  0  0
  -27.7968  -11.3211   18.7893 H   0  0  0  0  0  0
  -27.3575  -12.6773   17.7866 H   0  0  0  0  0  0
  -27.7201  -14.2515   19.6080 H   0  0  0  0  0  0
  -28.6880  -11.8845   21.2804 H   0  0  0  0  0  0
  -28.4833  -13.4601   21.9256 H   0  0  0  0  0  0
  -25.2756   -9.5665   22.4771 H   0  0  0  0  0  0
  -23.9990   -7.4611   22.7462 H   0  0  0  0  0  0
  -21.0842   -8.8761   19.8940 H   0  0  0  0  0  0
  -22.3690  -10.9672   19.6165 H   0  0  0  0  0  0
  -21.1992   -7.6144   23.9721 H   0  0  0  0  0  0
  -21.1489   -6.0519   25.9085 H   0  0  0  0  0  0
  -22.0596   -2.7609   23.2847 H   0  0  0  0  0  0
  -22.4114  -11.9891   22.4777 H   0  0  0  0  0  0
  -21.1119  -13.1265   22.2603 H   0  0  0  0  0  0
  -24.6743  -15.8452   20.5123 H   0  0  0  0  0  0
  -26.3050  -15.6222   20.1291 H   0  0  0  0  0  0
  -26.7074  -32.5548   23.1177 H   0  0  0  0  0  0
  -25.0049  -33.9782   25.0480 H   0  0  0  0  0  0
  -22.6822  -31.3093   21.4178 H   0  0  0  0  0  0
  -23.3733  -35.9658   23.3316 H   0  0  0  0  0  0
  -24.3563  -36.8938   22.2050 H   0  0  0  0  0  0
  -23.7252  -37.6529   23.6662 H   0  0  0  0  0  0
  -26.0374  -31.6169   20.5992 H   0  0  0  0  0  0
  -26.8076  -30.8908   21.9836 H   0  0  0  0  0  0
  -28.0949  -29.1384   21.1338 H   0  0  0  0  0  0
  -26.0313  -25.9798   19.0149 H   0  0  0  0  0  0
  -23.9629  -27.2840   19.0626 H   0  0  0  0  0  0
  -23.7073  -30.6009   19.4082 H   0  0  0  0  0  0
  -22.7242  -29.2468   19.8734 H   0  0  0  0  0  0
  -25.1282  -36.1971   25.0826 H   0  0  0  0  0  0
  -20.9925  -28.3205   24.1426 H   0  0  0  0  0  0
  -20.5605  -26.2217   23.3591 H   0  0  0  0  0  0
  -21.6605  -26.7384   22.1220 H   0  0  0  0  0  0
  -19.6891  -25.6292   21.1193 H   0  0  0  0  0  0
  -19.6705  -27.3183   20.6713 H   0  0  0  0  0  0
  -17.4167  -26.6628   21.3984 H   0  0  0  0  0  0
  -18.0310  -26.0069   22.9003 H   0  0  0  0  0  0
  -19.7956  -30.7232   24.2213 H   0  0  0  0  0  0
  -17.5031  -31.6237   24.5164 H   0  0  0  0  0  0
  -15.5342  -30.2942   23.7707 H   0  0  0  0  0  0
  -15.8645  -28.0833   22.7000 H   0  0  0  0  0  0
  -24.5903  -30.7077   25.7888 H   0  0  0  0  0  0
  -24.8971  -32.2877   26.5018 H   0  0  0  0  0  0
  -25.8148  -30.8881   27.0257 H   0  0  0  0  0  0
  -26.2879  -29.6785   24.1230 H   0  0  0  0  0  0
  -27.4150  -29.7365   25.4591 H   0  0  0  0  0  0
  -27.8679  -30.4399   23.9236 H   0  0  0  0  0  0
  -27.2616  -33.3660   26.2084 H   0  0  0  0  0  0
  -28.3827  -32.6962   25.0326 H   0  0  0  0  0  0
  -28.0697  -31.8509   26.5423 H   0  0  0  0  0  0
  -28.2590  -38.0118   24.7521 H   0  0  0  0  0  0
  -28.1097  -36.2641   24.6269 H   0  0  0  0  0  0
  -27.2294  -37.1436   25.8865 H   0  0  0  0  0  0
  -20.9268  -29.8800   21.7045 H   0  0  0  0  0  0
  -26.0189  -38.2860   24.1440 H   0  0  0  0  0  0
  -32.7271  -16.7035   20.5258 H   0  0  0  0  0  0
  -31.6264  -21.4011   16.7293 H   0  0  0  0  0  0
  -30.3486  -20.2126   16.9694 H   0  0  0  0  0  0
  -32.0285  -19.6891   16.8777 H   0  0  0  0  0  0
  -30.4140  -23.1618   25.9586 H   0  0  0  0  0  0
  -29.1614  -21.9689   25.6513 H   0  0  0  0  0  0
  -28.7255  -23.6510   25.9875 H   0  0  0  0  0  0
  -32.5252  -20.9345   19.0142 H   0  0  0  0  0  0
  -30.8828  -21.4782   19.0951 H   0  0  0  0  0  0
  -27.7453  -19.5758   19.9270 H   0  0  0  0  0  0
  -28.7449  -20.6031   18.9445 H   0  0  0  0  0  0
  -30.2746  -22.6766   23.5329 H   0  0  0  0  0  0
  -29.8950  -24.3519   23.8619 H   0  0  0  0  0  0
  -29.8188  -21.4025   21.1971 H   0  0  0  0  0  0
  -28.5244  -20.5664   22.0040 H   0  0  0  0  0  0
  -27.4364  -23.8358   23.6979 H   0  0  0  0  0  0
  -27.7927  -22.1710   23.4105 H   0  0  0  0  0  0
  -26.8513  -22.1313   21.0631 H   0  0  0  0  0  0
  -27.9929  -22.6859   19.8683 H   0  0  0  0  0  0
  -26.7261  -24.7949   21.3749 H   0  0  0  0  0  0
  -28.0745  -25.5061   22.2219 H   0  0  0  0  0  0
  -27.9363  -24.9420   19.2283 H   0  0  0  0  0  0
  -29.4674  -25.0672   20.0419 H   0  0  0  0  0  0
  -29.3448  -23.5382   21.6703 H   0  0  0  0  0  0
  1 25  1  0  0  0
  1 30  2  0  0  0
  1 85  1  0  0  0
  2  3  1  0  0  0
  2 25  1  0  0  0
  2 91  1  0  0  0
  2 92  1  0  0  0
  3  4  1  0  0  0
  3 93  1  0  0  0
  3 94  1  0  0  0
  4  5  1  0  0  0
  4 95  1  0  0  0
  4 96  1  0  0  0
  5  6  1  0  0  0
  5 26  1  0  0  0
  5 97  1  0  0  0
  6 25  1  0  0  0
  6 98  1  0  0  0
  6 99  1  0  0  0
  7  8  2  0  0  0
  7 26  1  0  0  0
  7 29  1  0  0  0
  8  9  1  0  0  0
  8 22  1  0  0  0
  9 10  1  0  0  0
  9 27  2  0  0  0
 10 11  2  0  0  0
 10 15  1  0  0  0
 11 12  1  0  0  0
 11100  1  0  0  0
 12 13  2  0  0  0
 12101  1  0  0  0
 13 14  1  0  0  0
 13 31  1  0  0  0
 14 15  2  0  0  0
 14102  1  0  0  0
 15103  1  0  0  0
 16 17  2  0  0  0
 16 21  1  0  0  0
 16 31  1  0  0  0
 17 18  1  0  0  0
 17104  1  0  0  0
 18 19  2  0  0  0
 18105  1  0  0  0
 19 20  1  0  0  0
 19 24  1  0  0  0
 20 21  2  0  0  0
 20106  1  0  0  0
 21 23  1  0  0  0
 22 28  1  0  0  0
 22 32  2  0  0  0
 26 27  1  0  0  0
 28107  1  0  0  0
 28108  1  0  0  0
 29109  1  0  0  0
 29110  1  0  0  0
 33 34  1  0  0  0
 33 66  1  0  0  0
 33 70  2  0  0  0
 34 36  1  0  0  0
 34 59  1  0  0  0
 34111  1  0  0  0
 35 44  2  0  0  0
 35 45  1  0  0  0
 35 68  1  0  0  0
 36 56  1  0  0  0
 36112  1  0  0  0
 37 39  1  0  0  0
 37 47  1  0  0  0
 37 66  1  0  0  0
 37113  1  0  0  0
 38 43  2  0  0  0
 38 46  1  0  0  0
 38 47  1  0  0  0
 39 64  1  0  0  0
 39 67  2  0  0  0
 40 52  1  0  0  0
 40 53  2  0  0  0
 40 58  1  0  0  0
 41114  1  0  0  0
 41115  1  0  0  0
 41116  1  0  0  0
 41 48  1  0  0  0
 42 43  1  0  0  0
 42 66  1  0  0  0
 42117  1  0  0  0
 42118  1  0  0  0
 43 44  1  0  0  0
 44119  1  0  0  0
 45 46  2  0  0  0
 45120  1  0  0  0
 46121  1  0  0  0
 47122  1  0  0  0
 47123  1  0  0  0
 48 56  1  0  0  0
 48 65  1  0  0  0
 48124  1  0  0  0
 49 50  1  0  0  0
 49 53  1  0  0  0
 49 64  1  0  0  0
 49125  1  0  0  0
 50 51  1  0  0  0
 50126  1  0  0  0
 50127  1  0  0  0
 51 52  1  0  0  0
 51128  1  0  0  0
 51129  1  0  0  0
 52130  1  0  0  0
 52131  1  0  0  0
 53 54  1  0  0  0
 54 55  2  0  0  0
 54132  1  0  0  0
 55 57  1  0  0  0
 55133  1  0  0  0
 56 69  2  0  0  0
 57 58  2  0  0  0
 57134  1  0  0  0
 58135  1  0  0  0
 59 60  1  0  0  0
 59 61  1  0  0  0
 59 62  1  0  0  0
 60136  1  0  0  0
 60137  1  0  0  0
 60138  1  0  0  0
 61139  1  0  0  0
 61140  1  0  0  0
 61141  1  0  0  0
 62142  1  0  0  0
 62143  1  0  0  0
 62144  1  0  0  0
 63 65  1  0  0  0
 63145  1  0  0  0
 63146  1  0  0  0
 63147  1  0  0  0
 64148  1  0  0  0
 65149  1  0  0  0
 68 84  1  0  0  0
 71 72  2  0  0  0
 71 86  1  0  0  0
 71150  1  0  0  0
 72 85  1  0  0  0
 72 87  1  0  0  0
 73 74  1  0  0  0
 73 77  1  0  0  0
 73 86  2  0  0  0
 74 78  1  0  0  0
 74 87  2  0  0  0
 75 77  1  0  0  0
 75151  1  0  0  0
 75152  1  0  0  0
 75153  1  0  0  0
 76 79  1  0  0  0
 76154  1  0  0  0
 76155  1  0  0  0
 76156  1  0  0  0
 77157  1  0  0  0
 77158  1  0  0  0
 78 80  1  0  0  0
 78159  1  0  0  0
 78160  1  0  0  0
 79 81  1  0  0  0
 79161  1  0  0  0
 79162  1  0  0  0
 80 82  1  0  0  0
 80163  1  0  0  0
 80164  1  0  0  0
 81165  1  0  0  0
 81166  1  0  0  0
 81 88  1  0  0  0
 82 88  1  0  0  0
 82167  1  0  0  0
 82168  1  0  0  0
 83 84  1  0  0  0
 83 88  1  0  0  0
 83169  1  0  0  0
 83170  1  0  0  0
 84171  1  0  0  0
 84172  1  0  0  0
 85 89  1  0  0  0
 85 90  1  0  0  0
 88173  1  0  0  0
M  CHG  1  88   1
M  ISO  4   1 100  68 101  84 101  85 100
M  END
> <chiral flag>
0

> <version>
0

> <s_m_source_file>
/data/baiqing/PycharmProjects/Reinvent-master-3.2/result/LINK_invent/BTK/process_docking_weight1_custom_sum_contain_oxygen_bond_distance_aromatic_linkinvent_7_9_3/rearranged_h_0057.sdf

> <i_m_source_file_index>
49

> <r_mmod_Potential_Energy-OPLS-2005>
74.5379791259766

> <r_mmod_Stretch_Energy-OPLS-2005>
41.5994071960449

> <r_mmod_Bend_Energy-OPLS-2005>
111.317153930664

> <r_mmod_Torsional_Energy-OPLS-2005>
183.553268432617

> <r_mmod_Improper_Torsional_Energy-OPLS-2005>
1.92923820018768

> <r_mmod_Van_der_Waal_Energy-OPLS-2005>
172.701705932617

> <r_mmod_Electrostatic_Energy-OPLS-2005>
-39.5639114379883

> <r_mmod_Solvation_Energy-OPLS-2005>
-408.229309082031

> <b_mmod_Minimization_Converged-OPLS-2005>
0

> <r_mmod_RMS_Derivative-OPLS-2005>
2.61672520637512

$$$$
49
                    3D
 Structure written by MMmdl.
162170  0  0  1  0            999 V2000
  -30.6163  -14.7216   20.5461 C   0  0  0  0  0  0
  -30.4367  -12.4552   19.4823 C   0  0  0  0  0  0
  -29.5170  -12.5222   18.2413 C   0  0  0  0  0  0
  -28.0401  -12.3377   18.6408 C   0  0  0  0  0  0
  -27.6447  -13.2213   19.8513 C   0  0  2  0  0  0
  -28.6751  -13.1022   20.9897 C   0  0  0  0  0  0
  -25.2531  -13.8179   20.5649 C   0  0  0  0  0  0
  -24.1807  -13.0436   20.9157 C   0  0  0  0  0  0
  -24.6378  -11.6912   20.8710 C   0  0  0  0  0  0
  -23.9056  -10.4293   21.0397 C   0  0  0  0  0  0
  -24.3610   -9.4212   21.9177 C   0  0  0  0  0  0
  -23.6289   -8.2247   22.0754 C   0  0  0  0  0  0
  -22.4275   -8.0282   21.3547 C   0  0  0  0  0  0
  -21.9903   -9.0252   20.4647 C   0  0  0  0  0  0
  -22.7229  -10.2130   20.3048 C   0  0  0  0  0  0
  -21.6850   -6.0738   22.5288 C   0  0  0  0  0  0
  -21.4014   -6.5637   23.8222 C   0  0  0  0  0  0
  -21.3658   -5.6787   24.9182 C   0  0  0  0  0  0
  -21.6041   -4.3053   24.7232 C   0  0  0  0  0  0
  -21.8821   -3.8148   23.4353 C   0  0  0  0  0  0
  -21.9192   -4.6965   22.3411 C   0  0  0  0  0  0
  -22.7842  -13.5244   21.1830 C   0  0  0  0  0  0
  -22.1660   -4.2152   21.0989 F   0  0  0  0  0  0
  -21.5628   -3.4536   25.7742 F   0  0  0  0  0  0
  -29.9871  -13.4932   20.4460 N   0  0  0  0  0  0
  -26.2927  -12.9353   20.3207 N   0  0  0  0  0  0
  -25.9293  -11.6505   20.5678 N   0  0  0  0  0  0
  -22.0483  -12.8249   22.0393 N   0  0  0  0  0  0
  -25.4268  -15.1898   20.4126 N   0  0  0  0  0  0
  -31.7433  -14.8601   20.0560 O   0  0  0  0  0  0
  -21.6634   -6.8883   21.4255 O   0  0  0  0  0  0
  -22.3523  -14.5545   20.6679 O   0  0  0  0  0  0
  -24.6313  -31.8547   23.1991 C   0  0  0  0  0  0
  -25.9135  -32.4755   23.8338 C   0  0  1  0  0  0
  -27.2202  -27.2638   20.1276 C   0  0  0  0  0  0
  -25.5932  -33.8558   24.2257 N   0  0  0  0  0  0
  -23.4282  -30.4770   21.5431 C   0  0  2  0  0  0
  -24.8751  -28.9248   20.1097 C   0  0  0  0  0  0
  -22.7503  -29.4595   22.4924 C   0  0  0  0  0  0
  -18.0286  -28.1384   22.8489 C   0  0  0  0  0  0
  -24.1482  -36.7279   23.2643 C   0  0  0  0  0  0
  -25.9740  -30.7677   21.3786 C   0  0  0  0  0  0
  -26.0464  -29.3913   20.7190 C   0  0  0  0  0  0
  -27.2215  -28.5734   20.7160 C   0  0  0  0  0  0
  -26.0266  -26.8656   19.4854 C   0  0  0  0  0  0
  -24.8703  -27.6700   19.4813 C   0  0  0  0  0  0
  -23.6461  -29.8118   20.1589 C   0  0  0  0  0  0
  -25.4114  -36.3074   24.0327 C   0  0  1  0  0  0
  -20.5892  -28.3693   23.1273 C   0  0  2  0  0  0
  -20.6776  -26.9409   22.5417 C   0  0  0  0  0  0
  -19.5754  -26.6379   21.5218 C   0  0  0  0  0  0
  -18.1929  -26.7927   22.1625 C   0  0  0  0  0  0
  -19.1541  -28.8857   23.2874 C   0  0  0  0  0  0
  -18.9463  -30.1456   23.8894 C   0  0  0  0  0  0
  -17.6465  -30.6589   24.0559 C   0  0  0  0  0  0
  -25.9058  -34.9441   23.5095 C   0  0  0  0  0  0
  -16.5354  -29.9087   23.6332 C   0  0  0  0  0  0
  -16.7272  -28.6502   23.0359 C   0  0  0  0  0  0
  -26.4501  -31.6593   25.0735 C   0  0  0  0  0  0
  -25.3723  -31.3733   26.1456 C   0  0  0  0  0  0
  -27.0363  -30.3015   24.6225 C   0  0  0  0  0  0
  -27.6052  -32.4343   25.7501 C   0  0  0  0  0  0
  -27.5572  -37.1798   24.8466 C   0  0  0  0  0  0
  -21.4212  -29.3035   22.3658 N   0  0  0  0  0  0
  -26.4286  -37.3775   23.9410 N   0  0  0  0  0  0
  -24.6968  -31.0512   22.0962 N   0  0  0  0  0  0
  -23.4194  -28.8134   23.3028 O   0  0  0  0  0  0
  -28.3184  -26.3766   20.1953 O   0  0  0  0  0  0
  -26.5633  -34.8914   22.4668 O   0  0  0  0  0  0
  -23.5461  -32.1372   23.7287 O   0  0  0  0  0  0
  -29.3883  -20.3736   19.2741 C   0  0  0  0  0  0
  -29.0988  -22.2753   20.3787 C   0  0  0  0  0  0
  -28.9487  -21.1546   21.2323 C   0  0  0  0  0  0
  -28.5919  -21.1278   22.6892 C   0  0  0  0  0  0
  -30.5787  -24.2948   20.0321 C   0  0  0  0  0  0
  -29.2827  -24.1658   22.1262 C   0  0  0  0  0  0
  -29.5823  -15.8836   22.4234 C   0  0  0  0  0  0
  -29.1648  -18.4869   21.0480 C   0  0  0  0  0  0
  -30.0037  -17.2587   20.3856 C   0  0  0  0  0  0
  -28.1135  -24.8911   20.0276 C   0  0  0  0  0  0
  -29.2187  -23.8644   20.6173 C   0  0  0  0  0  0
  -29.3358  -21.7084   19.1166 N   0  0  0  0  0  0
  -29.2093  -19.9298   20.5284 N   0  0  0  0  0  0
  -29.9041  -15.8415   20.9900 N   0  0  0  0  0  0
  -31.4775  -12.5874   19.1820 H   0  0  0  0  0  0
  -30.3907  -11.4658   19.9404 H   0  0  0  0  0  0
  -29.8071  -11.7629   17.5134 H   0  0  0  0  0  0
  -29.6443  -13.4857   17.7464 H   0  0  0  0  0  0
  -27.8950  -11.2863   18.8907 H   0  0  0  0  0  0
  -27.3877  -12.5390   17.7910 H   0  0  0  0  0  0
  -27.6585  -14.2537   19.4998 H   0  0  0  0  0  0
  -28.7072  -12.0795   21.3694 H   0  0  0  0  0  0
  -28.3532  -13.7128   21.8285 H   0  0  0  0  0  0
  -25.2757   -9.5692   22.4744 H   0  0  0  0  0  0
  -24.0002   -7.4639   22.7474 H   0  0  0  0  0  0
  -21.0828   -8.8772   19.8956 H   0  0  0  0  0  0
  -22.3688  -10.9667   19.6151 H   0  0  0  0  0  0
  -21.2011   -7.6144   23.9730 H   0  0  0  0  0  0
  -21.1468   -6.0514   25.9082 H   0  0  0  0  0  0
  -22.0599   -2.7613   23.2857 H   0  0  0  0  0  0
  -22.4099  -11.9925   22.4809 H   0  0  0  0  0  0
  -21.1098  -13.1286   22.2558 H   0  0  0  0  0  0
  -24.6696  -15.8514   20.5458 H   0  0  0  0  0  0
  -26.2914  -15.6310   20.1259 H   0  0  0  0  0  0
  -26.7199  -32.5404   23.1080 H   0  0  0  0  0  0
  -25.0066  -33.9693   25.0393 H   0  0  0  0  0  0
  -22.7258  -31.2998   21.3981 H   0  0  0  0  0  0
  -23.3752  -35.9603   23.3311 H   0  0  0  0  0  0
  -24.3569  -36.8903   22.2057 H   0  0  0  0  0  0
  -23.7225  -37.6476   23.6668 H   0  0  0  0  0  0
  -26.1150  -31.5293   20.6106 H   0  0  0  0  0  0
  -26.8498  -30.8150   22.0142 H   0  0  0  0  0  0
  -28.1180  -28.9241   21.2078 H   0  0  0  0  0  0
  -25.9610  -25.9077   18.9920 H   0  0  0  0  0  0
  -23.9739  -27.3082   18.9970 H   0  0  0  0  0  0
  -23.7741  -30.5895   19.4051 H   0  0  0  0  0  0
  -22.7634  -29.2482   19.8511 H   0  0  0  0  0  0
  -25.1295  -36.1923   25.0820 H   0  0  0  0  0  0
  -20.9981  -28.3271   24.1396 H   0  0  0  0  0  0
  -20.5680  -26.2298   23.3621 H   0  0  0  0  0  0
  -21.6640  -26.7437   22.1204 H   0  0  0  0  0  0
  -19.6913  -25.6287   21.1251 H   0  0  0  0  0  0
  -19.6691  -27.3187   20.6746 H   0  0  0  0  0  0
  -17.4199  -26.6676   21.4023 H   0  0  0  0  0  0
  -18.0322  -26.0065   22.9019 H   0  0  0  0  0  0
  -19.7939  -30.7270   24.2265 H   0  0  0  0  0  0
  -17.5019  -31.6272   24.5158 H   0  0  0  0  0  0
  -15.5354  -30.2989   23.7665 H   0  0  0  0  0  0
  -15.8669  -28.0821   22.7087 H   0  0  0  0  0  0
  -24.5892  -30.7093   25.7774 H   0  0  0  0  0  0
  -24.8920  -32.2899   26.4890 H   0  0  0  0  0  0
  -25.8036  -30.8897   27.0231 H   0  0  0  0  0  0
  -26.2954  -29.6755   24.1237 H   0  0  0  0  0  0
  -27.4041  -29.7285   25.4749 H   0  0  0  0  0  0
  -27.8830  -30.4304   23.9478 H   0  0  0  0  0  0
  -27.2659  -33.3649   26.2062 H   0  0  0  0  0  0
  -28.3862  -32.6900   25.0326 H   0  0  0  0  0  0
  -28.0726  -31.8488   26.5433 H   0  0  0  0  0  0
  -28.2597  -38.0086   24.7519 H   0  0  0  0  0  0
  -28.1062  -36.2624   24.6293 H   0  0  0  0  0  0
  -27.2293  -37.1446   25.8869 H   0  0  0  0  0  0
  -20.9400  -29.8761   21.6867 H   0  0  0  0  0  0
  -26.0167  -38.2846   24.1426 H   0  0  0  0  0  0
  -29.5559  -19.6973   18.4463 H   0  0  0  0  0  0
  -29.4541  -21.3586   23.3134 H   0  0  0  0  0  0
  -28.2027  -20.1591   23.0014 H   0  0  0  0  0  0
  -27.8029  -21.8462   22.9098 H   0  0  0  0  0  0
  -31.3954  -23.7121   20.4595 H   0  0  0  0  0  0
  -30.7883  -25.3471   20.2241 H   0  0  0  0  0  0
  -30.6033  -24.1508   18.9513 H   0  0  0  0  0  0
  -28.3312  -23.9561   22.6129 H   0  0  0  0  0  0
  -29.4991  -25.2183   22.3112 H   0  0  0  0  0  0
  -30.0638  -23.5888   22.6207 H   0  0  0  0  0  0
  -30.1990  -16.6229   22.9348 H   0  0  0  0  0  0
  -29.7762  -14.9420   22.9416 H   0  0  0  0  0  0
  -28.5336  -16.1403   22.5798 H   0  0  0  0  0  0
  -29.4621  -18.5483   22.0917 H   0  0  0  0  0  0
  -28.1124  -18.1992   21.0634 H   0  0  0  0  0  0
  -31.0594  -17.5338   20.3749 H   0  0  0  0  0  0
  -29.7154  -17.1742   19.3367 H   0  0  0  0  0  0
  -27.1593  -24.6213   20.4833 H   0  0  0  0  0  0
  -28.0034  -24.6967   18.9602 H   0  0  0  0  0  0
  1 25  1  0  0  0
  1 30  2  0  0  0
  1 84  1  0  0  0
  2  3  1  0  0  0
  2 25  1  0  0  0
  2 85  1  0  0  0
  2 86  1  0  0  0
  3  4  1  0  0  0
  3 87  1  0  0  0
  3 88  1  0  0  0
  4  5  1  0  0  0
  4 89  1  0  0  0
  4 90  1  0  0  0
  5  6  1  0  0  0
  5 26  1  0  0  0
  5 91  1  0  0  0
  6 25  1  0  0  0
  6 92  1  0  0  0
  6 93  1  0  0  0
  7  8  2  0  0  0
  7 26  1  0  0  0
  7 29  1  0  0  0
  8  9  1  0  0  0
  8 22  1  0  0  0
  9 10  1  0  0  0
  9 27  2  0  0  0
 10 11  2  0  0  0
 10 15  1  0  0  0
 11 12  1  0  0  0
 11 94  1  0  0  0
 12 13  2  0  0  0
 12 95  1  0  0  0
 13 14  1  0  0  0
 13 31  1  0  0  0
 14 15  2  0  0  0
 14 96  1  0  0  0
 15 97  1  0  0  0
 16 17  2  0  0  0
 16 21  1  0  0  0
 16 31  1  0  0  0
 17 18  1  0  0  0
 17 98  1  0  0  0
 18 19  2  0  0  0
 18 99  1  0  0  0
 19 20  1  0  0  0
 19 24  1  0  0  0
 20 21  2  0  0  0
 20100  1  0  0  0
 21 23  1  0  0  0
 22 28  1  0  0  0
 22 32  2  0  0  0
 26 27  1  0  0  0
 28101  1  0  0  0
 28102  1  0  0  0
 29103  1  0  0  0
 29104  1  0  0  0
 33 34  1  0  0  0
 33 66  1  0  0  0
 33 70  2  0  0  0
 34 36  1  0  0  0
 34 59  1  0  0  0
 34105  1  0  0  0
 35 44  2  0  0  0
 35 45  1  0  0  0
 35 68  1  0  0  0
 36 56  1  0  0  0
 36106  1  0  0  0
 37 39  1  0  0  0
 37 47  1  0  0  0
 37 66  1  0  0  0
 37107  1  0  0  0
 38 43  2  0  0  0
 38 46  1  0  0  0
 38 47  1  0  0  0
 39 64  1  0  0  0
 39 67  2  0  0  0
 40 52  1  0  0  0
 40 53  2  0  0  0
 40 58  1  0  0  0
 41108  1  0  0  0
 41109  1  0  0  0
 41110  1  0  0  0
 41 48  1  0  0  0
 42 43  1  0  0  0
 42 66  1  0  0  0
 42111  1  0  0  0
 42112  1  0  0  0
 43 44  1  0  0  0
 44113  1  0  0  0
 45 46  2  0  0  0
 45114  1  0  0  0
 46115  1  0  0  0
 47116  1  0  0  0
 47117  1  0  0  0
 48 56  1  0  0  0
 48 65  1  0  0  0
 48118  1  0  0  0
 49 50  1  0  0  0
 49 53  1  0  0  0
 49 64  1  0  0  0
 49119  1  0  0  0
 50 51  1  0  0  0
 50120  1  0  0  0
 50121  1  0  0  0
 51 52  1  0  0  0
 51122  1  0  0  0
 51123  1  0  0  0
 52124  1  0  0  0
 52125  1  0  0  0
 53 54  1  0  0  0
 54 55  2  0  0  0
 54126  1  0  0  0
 55 57  1  0  0  0
 55127  1  0  0  0
 56 69  2  0  0  0
 57 58  2  0  0  0
 57128  1  0  0  0
 58129  1  0  0  0
 59 60  1  0  0  0
 59 61  1  0  0  0
 59 62  1  0  0  0
 60130  1  0  0  0
 60131  1  0  0  0
 60132  1  0  0  0
 61133  1  0  0  0
 61134  1  0  0  0
 61135  1  0  0  0
 62136  1  0  0  0
 62137  1  0  0  0
 62138  1  0  0  0
 63 65  1  0  0  0
 63139  1  0  0  0
 63140  1  0  0  0
 63141  1  0  0  0
 64142  1  0  0  0
 65143  1  0  0  0
 68 80  1  0  0  0
 71 82  2  0  0  0
 71 83  1  0  0  0
 71144  1  0  0  0
 72 73  2  0  0  0
 72 81  1  0  0  0
 72 82  1  0  0  0
 73 74  1  0  0  0
 73 83  1  0  0  0
 74145  1  0  0  0
 74146  1  0  0  0
 74147  1  0  0  0
 75148  1  0  0  0
 75149  1  0  0  0
 75150  1  0  0  0
 75 81  1  0  0  0
 76 81  1  0  0  0
 76151  1  0  0  0
 76152  1  0  0  0
 76153  1  0  0  0
 77 84  1  0  0  0
 77154  1  0  0  0
 77155  1  0  0  0
 77156  1  0  0  0
 78 79  1  0  0  0
 78 83  1  0  0  0
 78157  1  0  0  0
 78158  1  0  0  0
 79 84  1  0  0  0
 79159  1  0  0  0
 79160  1  0  0  0
 80 81  1  0  0  0
 80161  1  0  0  0
 80162  1  0  0  0
M  ISO  4   1 100  68 101  80 101  84 100
M  END
> <chiral flag>
0

> <version>
0

> <s_m_source_file>
/data/baiqing/PycharmProjects/Reinvent-master-3.2/result/LINK_invent/BTK/process_docking_weight1_custom_sum_contain_oxygen_bond_distance_aromatic_linkinvent_7_9_3/rearranged_h_0057.sdf

> <i_m_source_file_index>
50

> <r_mmod_Potential_Energy-OPLS-2005>
294.366088867188

> <r_mmod_Stretch_Energy-OPLS-2005>
138.473815917969

> <r_mmod_Bend_Energy-OPLS-2005>
182.551864624023

> <r_mmod_Torsional_Energy-OPLS-2005>
280.598510742188

> <r_mmod_Improper_Torsional_Energy-OPLS-2005>
7.87877893447876

> <r_mmod_Van_der_Waal_Energy-OPLS-2005>
127.486785888672

> <r_mmod_Electrostatic_Energy-OPLS-2005>
-311.068817138672

> <r_mmod_Solvation_Energy-OPLS-2005>
-207.837188720703

> <b_mmod_Minimization_Converged-OPLS-2005>
0

> <r_mmod_RMS_Derivative-OPLS-2005>
1.46655440330505

$$$$
50
                    3D
 Structure written by MMmdl.
157165  0  0  1  0            999 V2000
  -30.5272  -14.9098   20.3115 C   0  0  0  0  0  0
  -30.4335  -12.5520   19.4386 C   0  0  0  0  0  0
  -29.4913  -12.4896   18.2152 C   0  0  0  0  0  0
  -28.0138  -12.3544   18.6428 C   0  0  0  0  0  0
  -27.6305  -13.2223   19.8758 C   0  0  2  0  0  0
  -28.7059  -13.2258   20.9712 C   0  0  0  0  0  0
  -25.2486  -13.8113   20.5846 C   0  0  0  0  0  0
  -24.1779  -13.0351   20.9249 C   0  0  0  0  0  0
  -24.6397  -11.6840   20.8815 C   0  0  0  0  0  0
  -23.9080  -10.4234   21.0416 C   0  0  0  0  0  0
  -24.3630   -9.4151   21.9178 C   0  0  0  0  0  0
  -23.6309   -8.2203   22.0744 C   0  0  0  0  0  0
  -22.4288   -8.0253   21.3540 C   0  0  0  0  0  0
  -21.9933   -9.0216   20.4639 C   0  0  0  0  0  0
  -22.7276  -10.2082   20.3043 C   0  0  0  0  0  0
  -21.6868   -6.0727   22.5261 C   0  0  0  0  0  0
  -21.4016   -6.5636   23.8193 C   0  0  0  0  0  0
  -21.3654   -5.6791   24.9153 C   0  0  0  0  0  0
  -21.6054   -4.3060   24.7205 C   0  0  0  0  0  0
  -21.8835   -3.8142   23.4340 C   0  0  0  0  0  0
  -21.9200   -4.6952   22.3390 C   0  0  0  0  0  0
  -22.7805  -13.5118   21.1889 C   0  0  0  0  0  0
  -22.1673   -4.2143   21.0972 F   0  0  0  0  0  0
  -21.5625   -3.4546   25.7727 F   0  0  0  0  0  0
  -29.9423  -13.6501   20.3056 N   0  0  0  0  0  0
  -26.2926  -12.9307   20.3593 N   0  0  0  0  0  0
  -25.9345  -11.6455   20.5957 N   0  0  0  0  0  0
  -22.0498  -12.8042   22.0428 N   0  0  0  0  0  0
  -25.4130  -15.1857   20.4289 N   0  0  0  0  0  0
  -31.7615  -14.9630   20.2549 O   0  0  0  0  0  0
  -21.6652   -6.8855   21.4226 O   0  0  0  0  0  0
  -22.3471  -14.5431   20.6770 O   0  0  0  0  0  0
  -24.6416  -31.8524   23.1952 C   0  0  0  0  0  0
  -25.9227  -32.4722   23.8308 C   0  0  1  0  0  0
  -27.1949  -27.1699   20.1192 C   0  0  0  0  0  0
  -25.6025  -33.8535   24.2239 N   0  0  0  0  0  0
  -23.4381  -30.4768   21.5461 C   0  0  2  0  0  0
  -24.8815  -28.9250   20.1066 C   0  0  0  0  0  0
  -22.7527  -29.4590   22.4915 C   0  0  0  0  0  0
  -18.0294  -28.1358   22.8462 C   0  0  0  0  0  0
  -24.1506  -36.7248   23.2629 C   0  0  0  0  0  0
  -25.9971  -30.7361   21.3899 C   0  0  0  0  0  0
  -26.0645  -29.3546   20.7228 C   0  0  0  0  0  0
  -27.2238  -28.4921   20.7193 C   0  0  0  0  0  0
  -25.9886  -26.8583   19.4452 C   0  0  0  0  0  0
  -24.8574  -27.6879   19.4556 C   0  0  0  0  0  0
  -23.6566  -29.8204   20.1609 C   0  0  0  0  0  0
  -25.4141  -36.3037   24.0305 C   0  0  1  0  0  0
  -20.5899  -28.3710   23.1248 C   0  0  2  0  0  0
  -20.6808  -26.9428   22.5403 C   0  0  0  0  0  0
  -19.5778  -26.6367   21.5207 C   0  0  0  0  0  0
  -18.1946  -26.7904   22.1604 C   0  0  0  0  0  0
  -19.1544  -28.8852   23.2834 C   0  0  0  0  0  0
  -18.9463  -30.1466   23.8824 C   0  0  0  0  0  0
  -17.6459  -30.6555   24.0555 C   0  0  0  0  0  0
  -25.9090  -34.9411   23.5060 C   0  0  0  0  0  0
  -16.5356  -29.9042   23.6338 C   0  0  0  0  0  0
  -16.7285  -28.6477   23.0335 C   0  0  0  0  0  0
  -26.4567  -31.6561   25.0714 C   0  0  0  0  0  0
  -25.3770  -31.3737   26.1411 C   0  0  0  0  0  0
  -27.0437  -30.2960   24.6282 C   0  0  0  0  0  0
  -27.6090  -32.4325   25.7509 C   0  0  0  0  0  0
  -27.5577  -37.1816   24.8461 C   0  0  0  0  0  0
  -21.4221  -29.3038   22.3625 N   0  0  0  0  0  0
  -26.4304  -37.3747   23.9376 N   0  0  0  0  0  0
  -24.7124  -31.0416   22.0967 N   0  0  0  0  0  0
  -23.4198  -28.8117   23.3042 O   0  0  0  0  0  0
  -28.2162  -26.1579   20.2042 O   0  0  0  0  0  0
  -26.5613  -34.8903   22.4602 O   0  0  0  0  0  0
  -23.5555  -32.1399   23.7208 O   0  0  0  0  0  0
  -28.3837  -21.1663   21.2873 C   0  0  0  0  0  0
  -29.2401  -22.5076   19.1353 C   0  0  0  0  0  0
  -29.0250  -20.3910   20.2613 C   0  0  0  0  0  0
  -28.5554  -23.2806   20.1377 C   0  0  0  0  0  0
  -27.9145  -16.9422   16.6508 C   0  0  0  0  0  0
  -28.8873  -18.7704   20.0960 C   0  0  0  0  0  0
  -27.8333  -24.7132   19.8190 C   0  0  0  0  0  0
  -28.1115  -16.2377   17.9995 C   0  0  0  0  0  0
  -29.9362  -17.5411   20.5196 C   0  0  0  0  0  0
  -29.5793  -16.2291   18.5032 C   0  0  0  0  0  0
  -29.4723  -21.1362   19.1935 N   0  0  0  0  0  0
  -28.1603  -22.5409   21.2312 N   0  0  0  0  0  0
  -29.7563  -16.0693   19.9773 N   0  0  0  0  0  0
  -31.4635  -12.7178   19.1159 H   0  0  0  0  0  0
  -30.4302  -11.6006   19.9732 H   0  0  0  0  0  0
  -29.7620  -11.6496   17.5754 H   0  0  0  0  0  0
  -29.6167  -13.3761   17.5959 H   0  0  0  0  0  0
  -27.8339  -11.3021   18.8685 H   0  0  0  0  0  0
  -27.3608  -12.5950   17.8034 H   0  0  0  0  0  0
  -27.5911  -14.2491   19.5591 H   0  0  0  0  0  0
  -28.8152  -12.2401   21.4277 H   0  0  0  0  0  0
  -28.4524  -13.9227   21.7705 H   0  0  0  0  0  0
  -25.2774   -9.5628   22.4762 H   0  0  0  0  0  0
  -24.0019   -7.4592   22.7472 H   0  0  0  0  0  0
  -21.0862   -8.8729   19.8960 H   0  0  0  0  0  0
  -22.3742  -10.9602   19.6145 H   0  0  0  0  0  0
  -21.2027   -7.6148   23.9668 H   0  0  0  0  0  0
  -21.1459   -6.0544   25.9047 H   0  0  0  0  0  0
  -22.0636   -2.7612   23.2837 H   0  0  0  0  0  0
  -22.4193  -11.9679   22.4691 H   0  0  0  0  0  0
  -21.1114  -13.0980   22.2714 H   0  0  0  0  0  0
  -24.6425  -15.8352   20.5415 H   0  0  0  0  0  0
  -26.2805  -15.6330   20.1635 H   0  0  0  0  0  0
  -26.7283  -32.5331   23.1028 H   0  0  0  0  0  0
  -25.0267  -33.9675   25.0449 H   0  0  0  0  0  0
  -22.7393  -31.3027   21.4043 H   0  0  0  0  0  0
  -23.3765  -35.9583   23.3283 H   0  0  0  0  0  0
  -24.3601  -36.8882   22.2048 H   0  0  0  0  0  0
  -23.7292  -37.6467   23.6651 H   0  0  0  0  0  0
  -26.1561  -31.5012   20.6265 H   0  0  0  0  0  0
  -26.8651  -30.7774   22.0348 H   0  0  0  0  0  0
  -28.1212  -28.8187   21.2246 H   0  0  0  0  0  0
  -25.8545  -25.9307   18.9123 H   0  0  0  0  0  0
  -23.9570  -27.3577   18.9560 H   0  0  0  0  0  0
  -22.7725  -29.2610   19.8526 H   0  0  0  0  0  0
  -23.7858  -30.6038   19.4129 H   0  0  0  0  0  0
  -25.1343  -36.1880   25.0806 H   0  0  0  0  0  0
  -20.9975  -28.3290   24.1380 H   0  0  0  0  0  0
  -20.5755  -26.2311   23.3607 H   0  0  0  0  0  0
  -21.6675  -26.7478   22.1176 H   0  0  0  0  0  0
  -19.6962  -25.6276   21.1240 H   0  0  0  0  0  0
  -19.6710  -27.3159   20.6721 H   0  0  0  0  0  0
  -17.4245  -26.6643   21.3988 H   0  0  0  0  0  0
  -18.0339  -26.0045   22.9004 H   0  0  0  0  0  0
  -19.7951  -30.7312   24.2126 H   0  0  0  0  0  0
  -17.5015  -31.6222   24.5176 H   0  0  0  0  0  0
  -15.5351  -30.2916   23.7701 H   0  0  0  0  0  0
  -15.8694  -28.0788   22.7044 H   0  0  0  0  0  0
  -24.5927  -30.7121   25.7720 H   0  0  0  0  0  0
  -24.8983  -32.2923   26.4821 H   0  0  0  0  0  0
  -25.8070  -30.8910   27.0195 H   0  0  0  0  0  0
  -26.3049  -29.6687   24.1281 H   0  0  0  0  0  0
  -27.4052  -29.7262   25.4860 H   0  0  0  0  0  0
  -27.8955  -30.4177   23.9586 H   0  0  0  0  0  0
  -27.2647  -33.3607   26.2077 H   0  0  0  0  0  0
  -28.3912  -32.6930   25.0366 H   0  0  0  0  0  0
  -28.0736  -31.8469   26.5459 H   0  0  0  0  0  0
  -28.2601  -38.0096   24.7463 H   0  0  0  0  0  0
  -28.1059  -36.2635   24.6329 H   0  0  0  0  0  0
  -27.2271  -37.1505   25.8855 H   0  0  0  0  0  0
  -20.9411  -29.8740   21.6804 H   0  0  0  0  0  0
  -26.0164  -38.2821   24.1342 H   0  0  0  0  0  0
  -27.9395  -20.6615   22.1348 H   0  0  0  0  0  0
  -29.5004  -22.9761   18.1959 H   0  0  0  0  0  0
  -28.5132  -16.4744   15.8669 H   0  0  0  0  0  0
  -28.1815  -17.9971   16.6979 H   0  0  0  0  0  0
  -26.8706  -16.8790   16.3398 H   0  0  0  0  0  0
  -28.6994  -18.6830   19.0292 H   0  0  0  0  0  0
  -27.9251  -18.5220   20.5454 H   0  0  0  0  0  0
  -26.8291  -24.5409   20.2109 H   0  0  0  0  0  0
  -27.7222  -24.7265   18.7330 H   0  0  0  0  0  0
  -27.7617  -15.2250   17.8254 H   0  0  0  0  0  0
  -27.4426  -16.6878   18.7348 H   0  0  0  0  0  0
  -29.9467  -17.4856   21.6090 H   0  0  0  0  0  0
  -30.9465  -17.8567   20.2521 H   0  0  0  0  0  0
  -30.0662  -17.1464   18.1746 H   0  0  0  0  0  0
  -30.1281  -15.4684   17.9449 H   0  0  0  0  0  0
  1 25  1  0  0  0
  1 30  2  0  0  0
  1 83  1  0  0  0
  2  3  1  0  0  0
  2 25  1  0  0  0
  2 84  1  0  0  0
  2 85  1  0  0  0
  3  4  1  0  0  0
  3 86  1  0  0  0
  3 87  1  0  0  0
  4  5  1  0  0  0
  4 88  1  0  0  0
  4 89  1  0  0  0
  5  6  1  0  0  0
  5 26  1  0  0  0
  5 90  1  0  0  0
  6 25  1  0  0  0
  6 91  1  0  0  0
  6 92  1  0  0  0
  7  8  2  0  0  0
  7 26  1  0  0  0
  7 29  1  0  0  0
  8  9  1  0  0  0
  8 22  1  0  0  0
  9 10  1  0  0  0
  9 27  2  0  0  0
 10 11  2  0  0  0
 10 15  1  0  0  0
 11 12  1  0  0  0
 11 93  1  0  0  0
 12 13  2  0  0  0
 12 94  1  0  0  0
 13 14  1  0  0  0
 13 31  1  0  0  0
 14 15  2  0  0  0
 14 95  1  0  0  0
 15 96  1  0  0  0
 16 17  2  0  0  0
 16 21  1  0  0  0
 16 31  1  0  0  0
 17 18  1  0  0  0
 17 97  1  0  0  0
 18 19  2  0  0  0
 18 98  1  0  0  0
 19 20  1  0  0  0
 19 24  1  0  0  0
 20 21  2  0  0  0
 20 99  1  0  0  0
 21 23  1  0  0  0
 22 28  1  0  0  0
 22 32  2  0  0  0
 26 27  1  0  0  0
 28100  1  0  0  0
 28101  1  0  0  0
 29102  1  0  0  0
 29103  1  0  0  0
 33 34  1  0  0  0
 33 66  1  0  0  0
 33 70  2  0  0  0
 34 36  1  0  0  0
 34 59  1  0  0  0
 34104  1  0  0  0
 35 44  2  0  0  0
 35 45  1  0  0  0
 35 68  1  0  0  0
 36 56  1  0  0  0
 36105  1  0  0  0
 37 39  1  0  0  0
 37 47  1  0  0  0
 37 66  1  0  0  0
 37106  1  0  0  0
 38 43  2  0  0  0
 38 46  1  0  0  0
 38 47  1  0  0  0
 39 64  1  0  0  0
 39 67  2  0  0  0
 40 52  1  0  0  0
 40 53  2  0  0  0
 40 58  1  0  0  0
 41107  1  0  0  0
 41108  1  0  0  0
 41109  1  0  0  0
 41 48  1  0  0  0
 42 43  1  0  0  0
 42 66  1  0  0  0
 42110  1  0  0  0
 42111  1  0  0  0
 43 44  1  0  0  0
 44112  1  0  0  0
 45 46  2  0  0  0
 45113  1  0  0  0
 46114  1  0  0  0
 47115  1  0  0  0
 47116  1  0  0  0
 48 56  1  0  0  0
 48 65  1  0  0  0
 48117  1  0  0  0
 49 50  1  0  0  0
 49 53  1  0  0  0
 49 64  1  0  0  0
 49118  1  0  0  0
 50 51  1  0  0  0
 50119  1  0  0  0
 50120  1  0  0  0
 51 52  1  0  0  0
 51121  1  0  0  0
 51122  1  0  0  0
 52123  1  0  0  0
 52124  1  0  0  0
 53 54  1  0  0  0
 54 55  2  0  0  0
 54125  1  0  0  0
 55 57  1  0  0  0
 55126  1  0  0  0
 56 69  2  0  0  0
 57 58  2  0  0  0
 57127  1  0  0  0
 58128  1  0  0  0
 59 60  1  0  0  0
 59 61  1  0  0  0
 59 62  1  0  0  0
 60129  1  0  0  0
 60130  1  0  0  0
 60131  1  0  0  0
 61132  1  0  0  0
 61133  1  0  0  0
 61134  1  0  0  0
 62135  1  0  0  0
 62136  1  0  0  0
 62137  1  0  0  0
 63 65  1  0  0  0
 63138  1  0  0  0
 63139  1  0  0  0
 63140  1  0  0  0
 64141  1  0  0  0
 65142  1  0  0  0
 68 77  1  0  0  0
 71 73  2  0  0  0
 71 82  1  0  0  0
 71143  1  0  0  0
 72 74  1  0  0  0
 72 81  2  0  0  0
 72144  1  0  0  0
 73 76  1  0  0  0
 73 81  1  0  0  0
 74 77  1  0  0  0
 74 82  2  0  0  0
 75 78  1  0  0  0
 75145  1  0  0  0
 75146  1  0  0  0
 75147  1  0  0  0
 76 79  1  0  0  0
 76148  1  0  0  0
 76149  1  0  0  0
 77150  1  0  0  0
 77151  1  0  0  0
 78 80  1  0  0  0
 78152  1  0  0  0
 78153  1  0  0  0
 79 83  1  0  0  0
 79154  1  0  0  0
 79155  1  0  0  0
 80 83  1  0  0  0
 80156  1  0  0  0
 80157  1  0  0  0
M  ISO  4   1 100  68 101  77 101  83 100
M  END
> <chiral flag>
0

> <version>
0

> <s_m_source_file>
/data/baiqing/PycharmProjects/Reinvent-master-3.2/result/LINK_invent/BTK/process_docking_weight1_custom_sum_contain_oxygen_bond_distance_aromatic_linkinvent_7_9_3/rearranged_h_0057.sdf

> <i_m_source_file_index>
51

> <r_mmod_Potential_Energy-OPLS-2005>
759.631042480469

> <r_mmod_Stretch_Energy-OPLS-2005>
214.798095703125

> <r_mmod_Bend_Energy-OPLS-2005>
260.486877441406

> <r_mmod_Torsional_Energy-OPLS-2005>
334.122039794922

> <r_mmod_Improper_Torsional_Energy-OPLS-2005>
22.630687713623

> <r_mmod_Van_der_Waal_Energy-OPLS-2005>
153.445114135742

> <r_mmod_Electrostatic_Energy-OPLS-2005>
-189.697769165039

> <r_mmod_Solvation_Energy-OPLS-2005>
-214.431243896484

> <b_mmod_Minimization_Converged-OPLS-2005>
0

> <r_mmod_RMS_Derivative-OPLS-2005>
4.44535303115845

$$$$
51
                    3D
 Structure written by MMmdl.
165173  0  0  1  0            999 V2000
  -30.5868  -14.7879   20.4664 C   0  0  0  0  0  0
  -30.4377  -12.4879   19.4703 C   0  0  0  0  0  0
  -29.5123  -12.5128   18.2332 C   0  0  0  0  0  0
  -28.0388  -12.3289   18.6477 C   0  0  0  0  0  0
  -27.6381  -13.2325   19.8446 C   0  0  2  0  0  0
  -28.6835  -13.1790   20.9787 C   0  0  0  0  0  0
  -25.2497  -13.8190   20.5689 C   0  0  0  0  0  0
  -24.1798  -13.0433   20.9218 C   0  0  0  0  0  0
  -24.6391  -11.6913   20.8748 C   0  0  0  0  0  0
  -23.9070  -10.4291   21.0406 C   0  0  0  0  0  0
  -24.3620   -9.4207   21.9184 C   0  0  0  0  0  0
  -23.6293   -8.2243   22.0755 C   0  0  0  0  0  0
  -22.4275   -8.0280   21.3544 C   0  0  0  0  0  0
  -21.9912   -9.0255   20.4647 C   0  0  0  0  0  0
  -22.7242  -10.2132   20.3055 C   0  0  0  0  0  0
  -21.6853   -6.0733   22.5282 C   0  0  0  0  0  0
  -21.4015   -6.5638   23.8215 C   0  0  0  0  0  0
  -21.3661   -5.6790   24.9178 C   0  0  0  0  0  0
  -21.6043   -4.3053   24.7227 C   0  0  0  0  0  0
  -21.8819   -3.8144   23.4350 C   0  0  0  0  0  0
  -21.9193   -4.6962   22.3405 C   0  0  0  0  0  0
  -22.7819  -13.5216   21.1875 C   0  0  0  0  0  0
  -22.1660   -4.2146   21.0983 F   0  0  0  0  0  0
  -21.5630   -3.4539   25.7741 F   0  0  0  0  0  0
  -29.9750  -13.5533   20.3912 N   0  0  0  0  0  0
  -26.2917  -12.9396   20.3244 N   0  0  0  0  0  0
  -25.9318  -11.6541   20.5731 N   0  0  0  0  0  0
  -22.0461  -12.8206   22.0427 N   0  0  0  0  0  0
  -25.4165  -15.1918   20.4095 N   0  0  0  0  0  0
  -31.7842  -14.8886   20.1863 O   0  0  0  0  0  0
  -21.6639   -6.8877   21.4242 O   0  0  0  0  0  0
  -22.3511  -14.5524   20.6723 O   0  0  0  0  0  0
  -24.6339  -31.8548   23.1957 C   0  0  0  0  0  0
  -25.9153  -32.4757   23.8318 C   0  0  1  0  0  0
  -27.2178  -27.2317   20.1483 C   0  0  0  0  0  0
  -25.5935  -33.8557   24.2243 N   0  0  0  0  0  0
  -23.4314  -30.4754   21.5397 C   0  0  2  0  0  0
  -24.8800  -28.9104   20.1184 C   0  0  0  0  0  0
  -22.7509  -29.4608   22.4905 C   0  0  0  0  0  0
  -18.0301  -28.1405   22.8492 C   0  0  0  0  0  0
  -24.1484  -36.7280   23.2639 C   0  0  0  0  0  0
  -25.9792  -30.7564   21.3813 C   0  0  0  0  0  0
  -26.0516  -29.3722   20.7331 C   0  0  0  0  0  0
  -27.2247  -28.5460   20.7371 C   0  0  0  0  0  0
  -26.0257  -26.8447   19.5000 C   0  0  0  0  0  0
  -24.8726  -27.6546   19.4916 C   0  0  0  0  0  0
  -23.6534  -29.8043   20.1586 C   0  0  0  0  0  0
  -25.4115  -36.3069   24.0324 C   0  0  1  0  0  0
  -20.5904  -28.3722   23.1269 C   0  0  2  0  0  0
  -20.6786  -26.9436   22.5413 C   0  0  0  0  0  0
  -19.5758  -26.6398   21.5220 C   0  0  0  0  0  0
  -18.1941  -26.7947   22.1636 C   0  0  0  0  0  0
  -19.1554  -28.8879   23.2877 C   0  0  0  0  0  0
  -18.9472  -30.1480   23.8895 C   0  0  0  0  0  0
  -17.6469  -30.6600   24.0574 C   0  0  0  0  0  0
  -25.9058  -34.9443   23.5088 C   0  0  0  0  0  0
  -16.5361  -29.9099   23.6340 C   0  0  0  0  0  0
  -16.7288  -28.6519   23.0360 C   0  0  0  0  0  0
  -26.4498  -31.6587   25.0721 C   0  0  0  0  0  0
  -25.3705  -31.3755   26.1431 C   0  0  0  0  0  0
  -27.0344  -30.2995   24.6230 C   0  0  0  0  0  0
  -27.6043  -32.4331   25.7503 C   0  0  0  0  0  0
  -27.5575  -37.1797   24.8465 C   0  0  0  0  0  0
  -21.4215  -29.3054   22.3637 N   0  0  0  0  0  0
  -26.4286  -37.3772   23.9409 N   0  0  0  0  0  0
  -24.7007  -31.0476   22.0953 N   0  0  0  0  0  0
  -23.4198  -28.8160   23.3022 O   0  0  0  0  0  0
  -28.3101  -26.3247   20.1068 O   0  0  0  0  0  0
  -26.5634  -34.8927   22.4664 O   0  0  0  0  0  0
  -23.5483  -32.1399   23.7233 O   0  0  0  0  0  0
  -28.5891  -22.7293   20.6402 C   0  0  0  0  0  0
  -27.7524  -23.7678   22.4467 C   0  0  0  0  0  0
  -28.1982  -25.0299   20.6529 C   0  0  0  0  0  0
  -32.9590  -21.2688   22.3692 C   0  0  0  0  0  0
  -31.2635  -19.6817   23.3429 C   0  0  0  0  0  0
  -28.9060  -21.3101   19.9515 C   0  0  0  0  0  0
  -30.1894  -17.4030   20.8972 C   0  0  0  0  0  0
  -29.3150  -18.6805   20.3158 C   0  0  0  0  0  0
  -31.0714  -20.4526   20.8777 C   0  0  0  0  0  0
  -27.3394  -23.6851   23.9271 C   0  0  0  0  0  0
  -31.4933  -20.8109   22.3255 C   0  0  0  0  0  0
  -28.1388  -22.6186   21.8774 N   0  0  0  0  0  0
  -28.6570  -23.9306   19.9757 N   0  0  0  0  0  0
  -27.7499  -24.9833   21.8929 N   0  0  0  0  0  0
  -29.8002  -15.9242   20.6674 N   0  0  0  0  0  0
  -29.6141  -20.1657   20.7310 N   0  3  1  0  0  0
  -28.4315  -23.5357   24.6806 F   0  0  0  0  0  0
  -26.6965  -24.7849   24.3307 F   0  0  0  0  0  0
  -26.5362  -22.6381   24.1353 F   0  0  0  0  0  0
  -30.7659  -21.8495   22.7269 F   0  0  0  0  0  0
  -31.4755  -12.6311   19.1646 H   0  0  0  0  0  0
  -30.4019  -11.5145   19.9623 H   0  0  0  0  0  0
  -29.8032  -11.7334   17.5274 H   0  0  0  0  0  0
  -29.6299  -13.4614   17.7067 H   0  0  0  0  0  0
  -27.9022  -11.2806   18.9152 H   0  0  0  0  0  0
  -27.3816  -12.5129   17.7973 H   0  0  0  0  0  0
  -27.6264  -14.2513   19.4571 H   0  0  0  0  0  0
  -28.7339  -12.1807   21.4163 H   0  0  0  0  0  0
  -28.4110  -13.8557   21.7901 H   0  0  0  0  0  0
  -25.2765   -9.5684   22.4760 H   0  0  0  0  0  0
  -24.0003   -7.4634   22.7476 H   0  0  0  0  0  0
  -21.0843   -8.8773   19.8953 H   0  0  0  0  0  0
  -22.3700  -10.9671   19.6165 H   0  0  0  0  0  0
  -21.2005   -7.6147   23.9718 H   0  0  0  0  0  0
  -21.1483   -6.0522   25.9080 H   0  0  0  0  0  0
  -22.0595   -2.7607   23.2852 H   0  0  0  0  0  0
  -22.4071  -11.9867   22.4820 H   0  0  0  0  0  0
  -21.1076  -13.1230   22.2622 H   0  0  0  0  0  0
  -24.6404  -15.8367   20.5128 H   0  0  0  0  0  0
  -26.2463  -15.6311   20.0337 H   0  0  0  0  0  0
  -26.7226  -32.5403   23.1063 H   0  0  0  0  0  0
  -25.0053  -33.9681   25.0368 H   0  0  0  0  0  0
  -22.7294  -31.2986   21.3901 H   0  0  0  0  0  0
  -23.3749  -35.9610   23.3304 H   0  0  0  0  0  0
  -24.3562  -36.8905   22.2052 H   0  0  0  0  0  0
  -23.7243  -37.6481   23.6670 H   0  0  0  0  0  0
  -26.1193  -31.5111   20.6060 H   0  0  0  0  0  0
  -26.8558  -30.8114   22.0149 H   0  0  0  0  0  0
  -28.1261  -28.8989   21.2181 H   0  0  0  0  0  0
  -25.9774  -25.8850   19.0051 H   0  0  0  0  0  0
  -23.9772  -27.2972   19.0014 H   0  0  0  0  0  0
  -23.7846  -30.5782   19.4014 H   0  0  0  0  0  0
  -22.7702  -29.2413   19.8510 H   0  0  0  0  0  0
  -25.1302  -36.1906   25.0817 H   0  0  0  0  0  0
  -21.0010  -28.3312   24.1387 H   0  0  0  0  0  0
  -20.5691  -26.2338   23.3627 H   0  0  0  0  0  0
  -21.6655  -26.7463   22.1206 H   0  0  0  0  0  0
  -19.6916  -25.6306   21.1264 H   0  0  0  0  0  0
  -19.6688  -27.3197   20.6739 H   0  0  0  0  0  0
  -17.4211  -26.6708   21.4039 H   0  0  0  0  0  0
  -18.0339  -26.0083   22.9025 H   0  0  0  0  0  0
  -19.7944  -30.7304   24.2256 H   0  0  0  0  0  0
  -17.5023  -31.6277   24.5181 H   0  0  0  0  0  0
  -15.5364  -30.3009   23.7652 H   0  0  0  0  0  0
  -15.8692  -28.0839   22.7077 H   0  0  0  0  0  0
  -24.5879  -30.7104   25.7756 H   0  0  0  0  0  0
  -24.8895  -32.2935   26.4823 H   0  0  0  0  0  0
  -25.8009  -30.8952   27.0226 H   0  0  0  0  0  0
  -26.2937  -29.6739   24.1236 H   0  0  0  0  0  0
  -27.3979  -29.7266   25.4771 H   0  0  0  0  0  0
  -27.8839  -30.4248   23.9513 H   0  0  0  0  0  0
  -27.2638  -33.3633   26.2065 H   0  0  0  0  0  0
  -28.3868  -32.6888   25.0345 H   0  0  0  0  0  0
  -28.0694  -31.8464   26.5434 H   0  0  0  0  0  0
  -28.2598  -38.0086   24.7507 H   0  0  0  0  0  0
  -28.1066  -36.2620   24.6300 H   0  0  0  0  0  0
  -27.2292  -37.1461   25.8866 H   0  0  0  0  0  0
  -20.9410  -29.8747   21.6811 H   0  0  0  0  0  0
  -26.0162  -38.2846   24.1402 H   0  0  0  0  0  0
  -33.6351  -20.4715   22.0580 H   0  0  0  0  0  0
  -33.2478  -21.5715   23.3761 H   0  0  0  0  0  0
  -33.1292  -22.1228   21.7130 H   0  0  0  0  0  0
  -31.8486  -18.7958   23.0962 H   0  0  0  0  0  0
  -30.2145  -19.3942   23.4074 H   0  0  0  0  0  0
  -31.5632  -19.9950   24.3434 H   0  0  0  0  0  0
  -29.4286  -21.4873   19.0112 H   0  0  0  0  0  0
  -27.9312  -20.9237   19.6549 H   0  0  0  0  0  0
  -30.2293  -17.4996   21.9805 H   0  0  0  0  0  0
  -31.2210  -17.5004   20.5594 H   0  0  0  0  0  0
  -28.2641  -18.5001   20.5436 H   0  0  0  0  0  0
  -29.3801  -18.6393   19.2277 H   0  0  0  0  0  0
  -31.6788  -19.6290   20.5088 H   0  0  0  0  0  0
  -31.3475  -21.2843   20.2277 H   0  0  0  0  0  0
  -28.8201  -15.7199   20.7936 H   0  0  0  0  0  0
  -29.2327  -20.2976   21.6584 H   0  0  0  0  0  0
  1 25  1  0  0  0
  1 30  2  0  0  0
  1 85  1  0  0  0
  2  3  1  0  0  0
  2 25  1  0  0  0
  2 91  1  0  0  0
  2 92  1  0  0  0
  3  4  1  0  0  0
  3 93  1  0  0  0
  3 94  1  0  0  0
  4  5  1  0  0  0
  4 95  1  0  0  0
  4 96  1  0  0  0
  5  6  1  0  0  0
  5 26  1  0  0  0
  5 97  1  0  0  0
  6 25  1  0  0  0
  6 98  1  0  0  0
  6 99  1  0  0  0
  7  8  2  0  0  0
  7 26  1  0  0  0
  7 29  1  0  0  0
  8  9  1  0  0  0
  8 22  1  0  0  0
  9 10  1  0  0  0
  9 27  2  0  0  0
 10 11  2  0  0  0
 10 15  1  0  0  0
 11 12  1  0  0  0
 11100  1  0  0  0
 12 13  2  0  0  0
 12101  1  0  0  0
 13 14  1  0  0  0
 13 31  1  0  0  0
 14 15  2  0  0  0
 14102  1  0  0  0
 15103  1  0  0  0
 16 17  2  0  0  0
 16 21  1  0  0  0
 16 31  1  0  0  0
 17 18  1  0  0  0
 17104  1  0  0  0
 18 19  2  0  0  0
 18105  1  0  0  0
 19 20  1  0  0  0
 19 24  1  0  0  0
 20 21  2  0  0  0
 20106  1  0  0  0
 21 23  1  0  0  0
 22 28  1  0  0  0
 22 32  2  0  0  0
 26 27  1  0  0  0
 28107  1  0  0  0
 28108  1  0  0  0
 29109  1  0  0  0
 29110  1  0  0  0
 33 34  1  0  0  0
 33 66  1  0  0  0
 33 70  2  0  0  0
 34 36  1  0  0  0
 34 59  1  0  0  0
 34111  1  0  0  0
 35 44  2  0  0  0
 35 45  1  0  0  0
 35 68  1  0  0  0
 36 56  1  0  0  0
 36112  1  0  0  0
 37 39  1  0  0  0
 37 47  1  0  0  0
 37 66  1  0  0  0
 37113  1  0  0  0
 38 43  2  0  0  0
 38 46  1  0  0  0
 38 47  1  0  0  0
 39 64  1  0  0  0
 39 67  2  0  0  0
 40 52  1  0  0  0
 40 53  2  0  0  0
 40 58  1  0  0  0
 41114  1  0  0  0
 41115  1  0  0  0
 41116  1  0  0  0
 41 48  1  0  0  0
 42 43  1  0  0  0
 42 66  1  0  0  0
 42117  1  0  0  0
 42118  1  0  0  0
 43 44  1  0  0  0
 44119  1  0  0  0
 45 46  2  0  0  0
 45120  1  0  0  0
 46121  1  0  0  0
 47122  1  0  0  0
 47123  1  0  0  0
 48 56  1  0  0  0
 48 65  1  0  0  0
 48124  1  0  0  0
 49 50  1  0  0  0
 49 53  1  0  0  0
 49 64  1  0  0  0
 49125  1  0  0  0
 50 51  1  0  0  0
 50126  1  0  0  0
 50127  1  0  0  0
 51 52  1  0  0  0
 51128  1  0  0  0
 51129  1  0  0  0
 52130  1  0  0  0
 52131  1  0  0  0
 53 54  1  0  0  0
 54 55  2  0  0  0
 54132  1  0  0  0
 55 57  1  0  0  0
 55133  1  0  0  0
 56 69  2  0  0  0
 57 58  2  0  0  0
 57134  1  0  0  0
 58135  1  0  0  0
 59 60  1  0  0  0
 59 61  1  0  0  0
 59 62  1  0  0  0
 60136  1  0  0  0
 60137  1  0  0  0
 60138  1  0  0  0
 61139  1  0  0  0
 61140  1  0  0  0
 61141  1  0  0  0
 62142  1  0  0  0
 62143  1  0  0  0
 62144  1  0  0  0
 63 65  1  0  0  0
 63145  1  0  0  0
 63146  1  0  0  0
 63147  1  0  0  0
 64148  1  0  0  0
 65149  1  0  0  0
 68 73  1  0  0  0
 71 76  1  0  0  0
 71 82  1  0  0  0
 71 83  2  0  0  0
 72 80  1  0  0  0
 72 82  2  0  0  0
 72 84  1  0  0  0
 73 83  1  0  0  0
 73 84  2  0  0  0
 74150  1  0  0  0
 74151  1  0  0  0
 74152  1  0  0  0
 74 81  1  0  0  0
 75 81  1  0  0  0
 75153  1  0  0  0
 75154  1  0  0  0
 75155  1  0  0  0
 76156  1  0  0  0
 76157  1  0  0  0
 76 86  1  0  0  0
 77 78  1  0  0  0
 77 85  1  0  0  0
 77158  1  0  0  0
 77159  1  0  0  0
 78 86  1  0  0  0
 78160  1  0  0  0
 78161  1  0  0  0
 79 81  1  0  0  0
 79 86  1  0  0  0
 79162  1  0  0  0
 79163  1  0  0  0
 80 87  1  0  0  0
 80 88  1  0  0  0
 80 89  1  0  0  0
 81 90  1  0  0  0
 85164  1  0  0  0
 86165  1  0  0  0
M  CHG  1  86   1
M  ISO  4   1 100  68 101  73 101  85 100
M  END
> <chiral flag>
0

> <version>
0

> <s_m_source_file>
/data/baiqing/PycharmProjects/Reinvent-master-3.2/result/LINK_invent/BTK/process_docking_weight1_custom_sum_contain_oxygen_bond_distance_aromatic_linkinvent_7_9_3/rearranged_h_0057.sdf

> <i_m_source_file_index>
52

> <r_mmod_Potential_Energy-OPLS-2005>
-587.991882324219

> <r_mmod_Stretch_Energy-OPLS-2005>
146.872634887695

> <r_mmod_Bend_Energy-OPLS-2005>
186.517883300781

> <r_mmod_Torsional_Energy-OPLS-2005>
251.674728393555

> <r_mmod_Improper_Torsional_Energy-OPLS-2005>
5.36817598342896

> <r_mmod_Van_der_Waal_Energy-OPLS-2005>
150.037384033203

> <r_mmod_Electrostatic_Energy-OPLS-2005>
-973.203002929688

> <r_mmod_Solvation_Energy-OPLS-2005>
-458.005493164062

> <b_mmod_Minimization_Converged-OPLS-2005>
0

> <r_mmod_RMS_Derivative-OPLS-2005>
0.937120914459229

$$$$
52
                    3D
 Structure written by MMmdl.
152160  0  0  1  0            999 V2000
  -30.6477  -14.7269   20.5145 C   0  0  0  0  0  0
  -30.4378  -12.4565   19.4760 C   0  0  0  0  0  0
  -29.5076  -12.5125   18.2428 C   0  0  0  0  0  0
  -28.0322  -12.3408   18.6551 C   0  0  0  0  0  0
  -27.6493  -13.2249   19.8712 C   0  0  2  0  0  0
  -28.6979  -13.1031   20.9961 C   0  0  0  0  0  0
  -25.2538  -13.8194   20.5738 C   0  0  0  0  0  0
  -24.1809  -13.0442   20.9217 C   0  0  0  0  0  0
  -24.6390  -11.6919   20.8773 C   0  0  0  0  0  0
  -23.9068  -10.4294   21.0425 C   0  0  0  0  0  0
  -24.3622   -9.4208   21.9195 C   0  0  0  0  0  0
  -23.6297   -8.2237   22.0755 C   0  0  0  0  0  0
  -22.4280   -8.0281   21.3551 C   0  0  0  0  0  0
  -21.9925   -9.0257   20.4649 C   0  0  0  0  0  0
  -22.7242  -10.2137   20.3069 C   0  0  0  0  0  0
  -21.6850   -6.0746   22.5286 C   0  0  0  0  0  0
  -21.4011   -6.5649   23.8219 C   0  0  0  0  0  0
  -21.3658   -5.6798   24.9182 C   0  0  0  0  0  0
  -21.6040   -4.3063   24.7228 C   0  0  0  0  0  0
  -21.8822   -3.8158   23.4349 C   0  0  0  0  0  0
  -21.9190   -4.6973   22.3409 C   0  0  0  0  0  0
  -22.7829  -13.5221   21.1869 C   0  0  0  0  0  0
  -22.1661   -4.2165   21.0983 F   0  0  0  0  0  0
  -21.5627   -3.4541   25.7737 F   0  0  0  0  0  0
  -29.9923  -13.5089   20.4259 N   0  0  0  0  0  0
  -26.2974  -12.9381   20.3407 N   0  0  0  0  0  0
  -25.9326  -11.6529   20.5827 N   0  0  0  0  0  0
  -22.0487  -12.8203   22.0431 N   0  0  0  0  0  0
  -25.4254  -15.1908   20.4141 N   0  0  0  0  0  0
  -31.8094  -14.7929   20.0981 O   0  0  0  0  0  0
  -21.6639   -6.8885   21.4247 O   0  0  0  0  0  0
  -22.3506  -14.5534   20.6727 O   0  0  0  0  0  0
  -24.6332  -31.8546   23.1989 C   0  0  0  0  0  0
  -25.9158  -32.4745   23.8321 C   0  0  1  0  0  0
  -27.2161  -27.2576   20.1160 C   0  0  0  0  0  0
  -25.5959  -33.8545   24.2246 N   0  0  0  0  0  0
  -23.4294  -30.4799   21.5426 C   0  0  2  0  0  0
  -24.8739  -28.9315   20.1070 C   0  0  0  0  0  0
  -22.7513  -29.4600   22.4899 C   0  0  0  0  0  0
  -18.0304  -28.1397   22.8474 C   0  0  0  0  0  0
  -24.1501  -36.7282   23.2637 C   0  0  0  0  0  0
  -25.9776  -30.7653   21.3802 C   0  0  0  0  0  0
  -26.0481  -29.3895   20.7189 C   0  0  0  0  0  0
  -27.2210  -28.5647   20.7138 C   0  0  0  0  0  0
  -26.0149  -26.8763   19.4719 C   0  0  0  0  0  0
  -24.8636  -27.6827   19.4742 C   0  0  0  0  0  0
  -23.6461  -29.8191   20.1571 C   0  0  0  0  0  0
  -25.4127  -36.3056   24.0314 C   0  0  1  0  0  0
  -20.5904  -28.3700   23.1268 C   0  0  2  0  0  0
  -20.6788  -26.9418   22.5411 C   0  0  0  0  0  0
  -19.5762  -26.6391   21.5217 C   0  0  0  0  0  0
  -18.1939  -26.7939   22.1622 C   0  0  0  0  0  0
  -19.1553  -28.8868   23.2866 C   0  0  0  0  0  0
  -18.9472  -30.1466   23.8891 C   0  0  0  0  0  0
  -17.6471  -30.6593   24.0560 C   0  0  0  0  0  0
  -25.9072  -34.9429   23.5081 C   0  0  0  0  0  0
  -16.5359  -29.9086   23.6338 C   0  0  0  0  0  0
  -16.7286  -28.6511   23.0351 C   0  0  0  0  0  0
  -26.4522  -31.6571   25.0719 C   0  0  0  0  0  0
  -25.3737  -31.3718   26.1432 C   0  0  0  0  0  0
  -27.0367  -30.2984   24.6212 C   0  0  0  0  0  0
  -27.6079  -32.4310   25.7486 C   0  0  0  0  0  0
  -27.5574  -37.1791   24.8463 C   0  0  0  0  0  0
  -21.4217  -29.3045   22.3652 N   0  0  0  0  0  0
  -26.4293  -37.3752   23.9401 N   0  0  0  0  0  0
  -24.6991  -31.0510   22.0966 N   0  0  0  0  0  0
  -23.4216  -28.8126   23.2983 O   0  0  0  0  0  0
  -28.3031  -26.3468   20.1752 O   0  0  0  0  0  0
  -26.5638  -34.8900   22.4651 O   0  0  0  0  0  0
  -23.5477  -32.1372   23.7281 O   0  0  0  0  0  0
  -29.0798  -19.6135   19.6309 C   0  0  0  0  0  0
  -29.8092  -18.6817   20.3625 C   0  0  0  0  0  0
  -29.1579  -16.1045   21.9643 C   0  0  0  0  0  0
  -30.2931  -17.2145   19.9986 C   0  0  0  0  0  0
  -29.0051  -23.6469   20.2912 C   0  0  0  0  0  0
  -28.4207  -22.1689   19.9826 C   0  0  0  0  0  0
  -28.0198  -24.8852   19.9426 C   0  0  0  0  0  0
  -30.2953  -19.4209   21.4542 N   0  0  0  0  0  0
  -29.8759  -20.6722   21.4224 N   0  0  0  0  0  0
  -29.1506  -20.8640   20.2891 N   0  0  0  0  0  0
  -29.9428  -15.9175   20.7398 N   0  0  0  0  0  0
  -31.4752  -12.5825   19.1610 H   0  0  0  0  0  0
  -30.4007  -11.4725   19.9477 H   0  0  0  0  0  0
  -29.7860  -11.7418   17.5230 H   0  0  0  0  0  0
  -29.6343  -13.4690   17.7344 H   0  0  0  0  0  0
  -27.8785  -11.2897   18.9028 H   0  0  0  0  0  0
  -27.3739  -12.5504   17.8121 H   0  0  0  0  0  0
  -27.6607  -14.2574   19.5223 H   0  0  0  0  0  0
  -28.7497  -12.0731   21.3532 H   0  0  0  0  0  0
  -28.4123  -13.6806   21.8698 H   0  0  0  0  0  0
  -25.2764   -9.5679   22.4776 H   0  0  0  0  0  0
  -24.0013   -7.4629   22.7469 H   0  0  0  0  0  0
  -21.0864   -8.8770   19.8949 H   0  0  0  0  0  0
  -22.3702  -10.9686   19.6189 H   0  0  0  0  0  0
  -21.2005   -7.6156   23.9731 H   0  0  0  0  0  0
  -21.1477   -6.0526   25.9084 H   0  0  0  0  0  0
  -22.0606   -2.7622   23.2845 H   0  0  0  0  0  0
  -22.4087  -11.9833   22.4775 H   0  0  0  0  0  0
  -21.1125  -13.1256   22.2695 H   0  0  0  0  0  0
  -24.6651  -15.8524   20.5307 H   0  0  0  0  0  0
  -26.2821  -15.6281   20.0992 H   0  0  0  0  0  0
  -26.7212  -32.5376   23.1043 H   0  0  0  0  0  0
  -25.0095  -33.9683   25.0380 H   0  0  0  0  0  0
  -22.7264  -31.3028   21.3983 H   0  0  0  0  0  0
  -23.3752  -35.9624   23.3307 H   0  0  0  0  0  0
  -24.3593  -36.8914   22.2052 H   0  0  0  0  0  0
  -23.7272  -37.6489   23.6670 H   0  0  0  0  0  0
  -26.1211  -31.5246   20.6105 H   0  0  0  0  0  0
  -26.8551  -30.8107   22.0136 H   0  0  0  0  0  0
  -28.1170  -28.9054   21.2130 H   0  0  0  0  0  0
  -25.9204  -25.9253   18.9708 H   0  0  0  0  0  0
  -23.9658  -27.3270   18.9874 H   0  0  0  0  0  0
  -23.7697  -30.5988   19.4046 H   0  0  0  0  0  0
  -22.7626  -29.2558   19.8506 H   0  0  0  0  0  0
  -25.1305  -36.1890   25.0802 H   0  0  0  0  0  0
  -20.9991  -28.3277   24.1388 H   0  0  0  0  0  0
  -20.5718  -26.2292   23.3608 H   0  0  0  0  0  0
  -21.6647  -26.7458   22.1177 H   0  0  0  0  0  0
  -19.6931  -25.6311   21.1240 H   0  0  0  0  0  0
  -19.6711  -27.3202   20.6753 H   0  0  0  0  0  0
  -17.4209  -26.6684   21.4026 H   0  0  0  0  0  0
  -18.0336  -26.0093   22.9034 H   0  0  0  0  0  0
  -19.7945  -30.7284   24.2246 H   0  0  0  0  0  0
  -17.5025  -31.6269   24.5162 H   0  0  0  0  0  0
  -15.5359  -30.2980   23.7683 H   0  0  0  0  0  0
  -15.8684  -28.0833   22.7057 H   0  0  0  0  0  0
  -24.5929  -30.7047   25.7757 H   0  0  0  0  0  0
  -24.8904  -32.2881   26.4828 H   0  0  0  0  0  0
  -25.8050  -30.8918   27.0225 H   0  0  0  0  0  0
  -26.2944  -29.6720   24.1251 H   0  0  0  0  0  0
  -27.4063  -29.7255   25.4728 H   0  0  0  0  0  0
  -27.8820  -30.4260   23.9444 H   0  0  0  0  0  0
  -27.2704  -33.3621   26.2037 H   0  0  0  0  0  0
  -28.3898  -32.6848   25.0320 H   0  0  0  0  0  0
  -28.0733  -31.8449   26.5420 H   0  0  0  0  0  0
  -28.2578  -38.0092   24.7503 H   0  0  0  0  0  0
  -28.1077  -36.2626   24.6296 H   0  0  0  0  0  0
  -27.2293  -37.1447   25.8862 H   0  0  0  0  0  0
  -20.9397  -29.8771   21.6862 H   0  0  0  0  0  0
  -26.0169  -38.2820   24.1413 H   0  0  0  0  0  0
  -28.5475  -19.4980   18.6953 H   0  0  0  0  0  0
  -28.0995  -15.9240   21.7755 H   0  0  0  0  0  0
  -29.2486  -17.1088   22.3740 H   0  0  0  0  0  0
  -29.4907  -15.4364   22.7602 H   0  0  0  0  0  0
  -31.3819  -17.2609   19.9583 H   0  0  0  0  0  0
  -30.0065  -17.0229   18.9637 H   0  0  0  0  0  0
  -29.9381  -23.7717   19.7408 H   0  0  0  0  0  0
  -29.2730  -23.7024   21.3458 H   0  0  0  0  0  0
  -28.1721  -22.1353   18.9218 H   0  0  0  0  0  0
  -27.4606  -22.0945   20.4937 H   0  0  0  0  0  0
  -27.0956  -24.6592   20.4759 H   0  0  0  0  0  0
  -27.7898  -24.7840   18.8808 H   0  0  0  0  0  0
  1 25  1  0  0  0
  1 30  2  0  0  0
  1 81  1  0  0  0
  2  3  1  0  0  0
  2 25  1  0  0  0
  2 82  1  0  0  0
  2 83  1  0  0  0
  3  4  1  0  0  0
  3 84  1  0  0  0
  3 85  1  0  0  0
  4  5  1  0  0  0
  4 86  1  0  0  0
  4 87  1  0  0  0
  5  6  1  0  0  0
  5 26  1  0  0  0
  5 88  1  0  0  0
  6 25  1  0  0  0
  6 89  1  0  0  0
  6 90  1  0  0  0
  7  8  2  0  0  0
  7 26  1  0  0  0
  7 29  1  0  0  0
  8  9  1  0  0  0
  8 22  1  0  0  0
  9 10  1  0  0  0
  9 27  2  0  0  0
 10 11  2  0  0  0
 10 15  1  0  0  0
 11 12  1  0  0  0
 11 91  1  0  0  0
 12 13  2  0  0  0
 12 92  1  0  0  0
 13 14  1  0  0  0
 13 31  1  0  0  0
 14 15  2  0  0  0
 14 93  1  0  0  0
 15 94  1  0  0  0
 16 17  2  0  0  0
 16 21  1  0  0  0
 16 31  1  0  0  0
 17 18  1  0  0  0
 17 95  1  0  0  0
 18 19  2  0  0  0
 18 96  1  0  0  0
 19 20  1  0  0  0
 19 24  1  0  0  0
 20 21  2  0  0  0
 20 97  1  0  0  0
 21 23  1  0  0  0
 22 28  1  0  0  0
 22 32  2  0  0  0
 26 27  1  0  0  0
 28 98  1  0  0  0
 28 99  1  0  0  0
 29100  1  0  0  0
 29101  1  0  0  0
 33 34  1  0  0  0
 33 66  1  0  0  0
 33 70  2  0  0  0
 34 36  1  0  0  0
 34 59  1  0  0  0
 34102  1  0  0  0
 35 44  2  0  0  0
 35 45  1  0  0  0
 35 68  1  0  0  0
 36 56  1  0  0  0
 36103  1  0  0  0
 37 39  1  0  0  0
 37 47  1  0  0  0
 37 66  1  0  0  0
 37104  1  0  0  0
 38 43  2  0  0  0
 38 46  1  0  0  0
 38 47  1  0  0  0
 39 64  1  0  0  0
 39 67  2  0  0  0
 40 52  1  0  0  0
 40 53  2  0  0  0
 40 58  1  0  0  0
 41105  1  0  0  0
 41106  1  0  0  0
 41107  1  0  0  0
 41 48  1  0  0  0
 42 43  1  0  0  0
 42 66  1  0  0  0
 42108  1  0  0  0
 42109  1  0  0  0
 43 44  1  0  0  0
 44110  1  0  0  0
 45 46  2  0  0  0
 45111  1  0  0  0
 46112  1  0  0  0
 47113  1  0  0  0
 47114  1  0  0  0
 48 56  1  0  0  0
 48 65  1  0  0  0
 48115  1  0  0  0
 49 50  1  0  0  0
 49 53  1  0  0  0
 49 64  1  0  0  0
 49116  1  0  0  0
 50 51  1  0  0  0
 50117  1  0  0  0
 50118  1  0  0  0
 51 52  1  0  0  0
 51119  1  0  0  0
 51120  1  0  0  0
 52121  1  0  0  0
 52122  1  0  0  0
 53 54  1  0  0  0
 54 55  2  0  0  0
 54123  1  0  0  0
 55 57  1  0  0  0
 55124  1  0  0  0
 56 69  2  0  0  0
 57 58  2  0  0  0
 57125  1  0  0  0
 58126  1  0  0  0
 59 60  1  0  0  0
 59 61  1  0  0  0
 59 62  1  0  0  0
 60127  1  0  0  0
 60128  1  0  0  0
 60129  1  0  0  0
 61130  1  0  0  0
 61131  1  0  0  0
 61132  1  0  0  0
 62133  1  0  0  0
 62134  1  0  0  0
 62135  1  0  0  0
 63 65  1  0  0  0
 63136  1  0  0  0
 63137  1  0  0  0
 63138  1  0  0  0
 64139  1  0  0  0
 65140  1  0  0  0
 68 77  1  0  0  0
 71 72  2  0  0  0
 71 80  1  0  0  0
 71141  1  0  0  0
 72 74  1  0  0  0
 72 78  1  0  0  0
 73 81  1  0  0  0
 73142  1  0  0  0
 73143  1  0  0  0
 73144  1  0  0  0
 74 81  1  0  0  0
 74145  1  0  0  0
 74146  1  0  0  0
 75 76  1  0  0  0
 75 77  1  0  0  0
 75147  1  0  0  0
 75148  1  0  0  0
 76 80  1  0  0  0
 76149  1  0  0  0
 76150  1  0  0  0
 77151  1  0  0  0
 77152  1  0  0  0
 78 79  2  0  0  0
 79 80  1  0  0  0
M  ISO  4   1 100  68 101  77 101  81 100
M  END
> <chiral flag>
0

> <version>
0

> <s_m_source_file>
/data/baiqing/PycharmProjects/Reinvent-master-3.2/result/LINK_invent/BTK/process_docking_weight1_custom_sum_contain_oxygen_bond_distance_aromatic_linkinvent_7_9_3/rearranged_h_0057.sdf

> <i_m_source_file_index>
53

> <r_mmod_Potential_Energy-OPLS-2005>
213.459823608398

> <r_mmod_Stretch_Energy-OPLS-2005>
121.979278564453

> <r_mmod_Bend_Energy-OPLS-2005>
190.375335693359

> <r_mmod_Torsional_Energy-OPLS-2005>
261.687713623047

> <r_mmod_Improper_Torsional_Energy-OPLS-2005>
11.171347618103

> <r_mmod_Van_der_Waal_Energy-OPLS-2005>
129.71028137207

> <r_mmod_Electrostatic_Energy-OPLS-2005>
-357.82568359375

> <r_mmod_Solvation_Energy-OPLS-2005>
-221.851272583008

> <b_mmod_Minimization_Converged-OPLS-2005>
0

> <r_mmod_RMS_Derivative-OPLS-2005>
1.65442407131195

$$$$
53
                    3D
 Structure written by MMmdl.
166174  0  0  1  0            999 V2000
  -30.6463  -14.5251   20.5522 C   0  0  0  0  0  0
  -30.4348  -12.3305   19.4431 C   0  0  0  0  0  0
  -29.5002  -12.5022   18.2242 C   0  0  0  0  0  0
  -28.0191  -12.3606   18.6310 C   0  0  0  0  0  0
  -27.6610  -13.1980   19.8857 C   0  0  2  0  0  0
  -28.7025  -12.9873   21.0097 C   0  0  0  0  0  0
  -25.2587  -13.8130   20.5674 C   0  0  0  0  0  0
  -24.1842  -13.0431   20.9177 C   0  0  0  0  0  0
  -24.6388  -11.6892   20.8744 C   0  0  0  0  0  0
  -23.9040  -10.4293   21.0408 C   0  0  0  0  0  0
  -24.3608   -9.4206   21.9173 C   0  0  0  0  0  0
  -23.6305   -8.2241   22.0747 C   0  0  0  0  0  0
  -22.4279   -8.0280   21.3539 C   0  0  0  0  0  0
  -21.9906   -9.0245   20.4623 C   0  0  0  0  0  0
  -22.7228  -10.2133   20.3041 C   0  0  0  0  0  0
  -21.6851   -6.0740   22.5279 C   0  0  0  0  0  0
  -21.4012   -6.5640   23.8213 C   0  0  0  0  0  0
  -21.3656   -5.6793   24.9167 C   0  0  0  0  0  0
  -21.6052   -4.3059   24.7222 C   0  0  0  0  0  0
  -21.8830   -3.8151   23.4338 C   0  0  0  0  0  0
  -21.9194   -4.6964   22.3388 C   0  0  0  0  0  0
  -22.7856  -13.5209   21.1852 C   0  0  0  0  0  0
  -22.1663   -4.2152   21.0959 F   0  0  0  0  0  0
  -21.5636   -3.4534   25.7730 F   0  0  0  0  0  0
  -30.0316  -13.3128   20.4651 N   0  0  0  0  0  0
  -26.3020  -12.9299   20.3412 N   0  0  0  0  0  0
  -25.9308  -11.6472   20.5817 N   0  0  0  0  0  0
  -22.0498  -12.8193   22.0397 N   0  0  0  0  0  0
  -25.4322  -15.1852   20.4003 N   0  0  0  0  0  0
  -31.7722  -14.7343   20.0867 O   0  0  0  0  0  0
  -21.6642   -6.8877   21.4251 O   0  0  0  0  0  0
  -22.3554  -14.5528   20.6721 O   0  0  0  0  0  0
  -24.6127  -31.8694   23.2112 C   0  0  0  0  0  0
  -25.9010  -32.4840   23.8415 C   0  0  1  0  0  0
  -27.2469  -27.4520   20.1041 C   0  0  0  0  0  0
  -25.5858  -33.8632   24.2347 N   0  0  0  0  0  0
  -23.4020  -30.4897   21.5516 C   0  0  2  0  0  0
  -24.8550  -28.9520   20.1208 C   0  0  0  0  0  0
  -22.7414  -29.4667   22.5032 C   0  0  0  0  0  0
  -18.0270  -28.1348   22.8533 C   0  0  0  0  0  0
  -24.1489  -36.7358   23.2631 C   0  0  0  0  0  0
  -25.9270  -30.8392   21.3652 C   0  0  0  0  0  0
  -26.0101  -29.4689   20.7230 C   0  0  0  0  0  0
  -27.2083  -28.7206   20.7246 C   0  0  0  0  0  0
  -26.0865  -26.9511   19.4838 C   0  0  0  0  0  0
  -24.8859  -27.6909   19.4998 C   0  0  0  0  0  0
  -23.6127  -29.8158   20.1691 C   0  0  0  0  0  0
  -25.4091  -36.3118   24.0340 C   0  0  1  0  0  0
  -20.5861  -28.3633   23.1338 C   0  0  2  0  0  0
  -20.6743  -26.9374   22.5437 C   0  0  0  0  0  0
  -19.5722  -26.6381   21.5217 C   0  0  0  0  0  0
  -18.1902  -26.7894   22.1647 C   0  0  0  0  0  0
  -19.1530  -28.8802   23.2922 C   0  0  0  0  0  0
  -18.9455  -30.1417   23.8904 C   0  0  0  0  0  0
  -17.6456  -30.6558   24.0560 C   0  0  0  0  0  0
  -25.9043  -34.9479   23.5157 C   0  0  0  0  0  0
  -16.5352  -29.9056   23.6330 C   0  0  0  0  0  0
  -16.7270  -28.6474   23.0362 C   0  0  0  0  0  0
  -26.4425  -31.6604   25.0736 C   0  0  0  0  0  0
  -25.3661  -31.3713   26.1484 C   0  0  0  0  0  0
  -27.0273  -30.3040   24.6115 C   0  0  0  0  0  0
  -27.6019  -32.4311   25.7489 C   0  0  0  0  0  0
  -27.5584  -37.1794   24.8442 C   0  0  0  0  0  0
  -21.4147  -29.3007   22.3763 N   0  0  0  0  0  0
  -26.4285  -37.3797   23.9403 N   0  0  0  0  0  0
  -24.6641  -31.0823   22.1010 N   0  0  0  0  0  0
  -23.4175  -28.8229   23.3093 O   0  0  0  0  0  0
  -28.3927  -26.6910   20.0771 O   0  0  0  0  0  0
  -26.5650  -34.8927   22.4748 O   0  0  0  0  0  0
  -23.5325  -32.1445   23.7525 O   0  0  0  0  0  0
  -30.1600  -17.8377   22.7665 C   0  0  0  0  0  0
  -30.1733  -18.9554   23.6103 C   0  0  0  0  0  0
  -29.7664  -18.0375   21.4365 C   0  0  0  0  0  0
  -29.4035  -20.2793   21.9041 C   0  0  0  0  0  0
  -30.6528  -18.8663   25.0414 C   0  0  0  0  0  0
  -28.6608  -16.9729   19.3924 C   0  0  0  0  0  0
  -27.1355  -22.0073   23.1721 C   0  0  0  0  0  0
  -28.9210  -21.6745   21.4697 C   0  0  0  0  0  0
  -29.0101  -24.6667   21.3245 C   0  0  0  0  0  0
  -28.5469  -23.9663   22.6327 C   0  0  0  0  0  0
  -28.8267  -26.2109   21.3535 C   0  0  0  0  0  0
  -29.8357  -16.9044   20.3917 C   0  0  2  0  0  0
  -29.7938  -20.1703   23.1741 N   0  0  0  0  0  0
  -29.3960  -19.2749   21.0200 N   0  0  0  0  0  0
  -29.8493  -15.5370   20.9565 N   0  0  0  0  0  0
  -28.4491  -22.4629   22.6486 N   0  3  1  0  0  0
  -31.4725  -12.4646   19.1340 H   0  0  0  0  0  0
  -30.3686  -11.3203   19.8488 H   0  0  0  0  0  0
  -29.7429  -11.7667   17.4566 H   0  0  0  0  0  0
  -29.6628  -13.4833   17.7751 H   0  0  0  0  0  0
  -27.8228  -11.3044   18.8236 H   0  0  0  0  0  0
  -27.3752  -12.6431   17.7971 H   0  0  0  0  0  0
  -27.6998  -14.2425   19.5859 H   0  0  0  0  0  0
  -28.6890  -11.9514   21.3519 H   0  0  0  0  0  0
  -28.4579  -13.5900   21.8856 H   0  0  0  0  0  0
  -25.2765   -9.5695   22.4735 H   0  0  0  0  0  0
  -24.0019   -7.4627   22.7463 H   0  0  0  0  0  0
  -21.0845   -8.8763   19.8907 H   0  0  0  0  0  0
  -22.3695  -10.9676   19.6150 H   0  0  0  0  0  0
  -21.1996   -7.6147   23.9710 H   0  0  0  0  0  0
  -21.1474   -6.0513   25.9064 H   0  0  0  0  0  0
  -22.0609   -2.7618   23.2834 H   0  0  0  0  0  0
  -22.4184  -11.9842   22.4752 H   0  0  0  0  0  0
  -21.1112  -13.1208   22.2598 H   0  0  0  0  0  0
  -24.6687  -15.8438   20.4969 H   0  0  0  0  0  0
  -26.2721  -15.6058   20.0303 H   0  0  0  0  0  0
  -26.7085  -32.5624   23.1203 H   0  0  0  0  0  0
  -24.9810  -33.9771   25.0350 H   0  0  0  0  0  0
  -22.6875  -31.3017   21.4084 H   0  0  0  0  0  0
  -23.3730  -35.9720   23.3291 H   0  0  0  0  0  0
  -24.3528  -36.9014   22.2041 H   0  0  0  0  0  0
  -23.7303  -37.6577   23.6680 H   0  0  0  0  0  0
  -26.0229  -31.5991   20.5888 H   0  0  0  0  0  0
  -26.8188  -30.9046   21.9777 H   0  0  0  0  0  0
  -28.1000  -29.1087   21.1957 H   0  0  0  0  0  0
  -26.1123  -25.9847   19.0003 H   0  0  0  0  0  0
  -24.0001  -27.2924   19.0251 H   0  0  0  0  0  0
  -23.7117  -30.5881   19.4055 H   0  0  0  0  0  0
  -22.7371  -29.2334   19.8832 H   0  0  0  0  0  0
  -25.1238  -36.1980   25.0832 H   0  0  0  0  0  0
  -20.9933  -28.3199   24.1466 H   0  0  0  0  0  0
  -20.5631  -26.2233   23.3624 H   0  0  0  0  0  0
  -21.6597  -26.7410   22.1206 H   0  0  0  0  0  0
  -19.6890  -25.6294   21.1231 H   0  0  0  0  0  0
  -19.6650  -27.3214   20.6747 H   0  0  0  0  0  0
  -17.4169  -26.6706   21.4060 H   0  0  0  0  0  0
  -18.0275  -26.0007   22.9003 H   0  0  0  0  0  0
  -19.7947  -30.7241   24.2277 H   0  0  0  0  0  0
  -17.5012  -31.6236   24.5161 H   0  0  0  0  0  0
  -15.5341  -30.2927   23.7636 H   0  0  0  0  0  0
  -15.8689  -28.0773   22.7030 H   0  0  0  0  0  0
  -24.5811  -30.7093   25.7804 H   0  0  0  0  0  0
  -24.8848  -32.2863   26.4954 H   0  0  0  0  0  0
  -25.7944  -30.8857   27.0262 H   0  0  0  0  0  0
  -26.2845  -29.6796   24.1135 H   0  0  0  0  0  0
  -27.3996  -29.7280   25.4601 H   0  0  0  0  0  0
  -27.8685  -30.4376   23.9299 H   0  0  0  0  0  0
  -27.2665  -33.3616   26.2101 H   0  0  0  0  0  0
  -28.3791  -32.6873   25.0262 H   0  0  0  0  0  0
  -28.0734  -31.8413   26.5383 H   0  0  0  0  0  0
  -28.2540  -38.0138   24.7475 H   0  0  0  0  0  0
  -28.1141  -36.2654   24.6261 H   0  0  0  0  0  0
  -27.2292  -37.1407   25.8840 H   0  0  0  0  0  0
  -20.9320  -29.8755   21.7018 H   0  0  0  0  0  0
  -26.0199  -38.2897   24.1388 H   0  0  0  0  0  0
  -30.4910  -16.8722   23.1242 H   0  0  0  0  0  0
  -31.7396  -18.9434   25.0668 H   0  0  0  0  0  0
  -30.3657  -17.9183   25.4969 H   0  0  0  0  0  0
  -30.2393  -19.6746   25.6466 H   0  0  0  0  0  0
  -28.6591  -17.9112   18.8405 H   0  0  0  0  0  0
  -27.6994  -16.8930   19.8999 H   0  0  0  0  0  0
  -28.7238  -16.1806   18.6468 H   0  0  0  0  0  0
  -27.1083  -20.9286   23.3359 H   0  0  0  0  0  0
  -26.3261  -22.2599   22.4830 H   0  0  0  0  0  0
  -26.9223  -22.4884   24.1310 H   0  0  0  0  0  0
  -28.1310  -21.5928   20.7186 H   0  0  0  0  0  0
  -29.7716  -22.1564   20.9908 H   0  0  0  0  0  0
  -28.4518  -24.2660   20.4782 H   0  0  0  0  0  0
  -30.0595  -24.4492   21.1266 H   0  0  0  0  0  0
  -27.5625  -24.3752   22.8699 H   0  0  0  0  0  0
  -29.1784  -24.2814   23.4639 H   0  0  0  0  0  0
  -29.7639  -26.7058   21.6102 H   0  0  0  0  0  0
  -28.1200  -26.4932   22.1350 H   0  0  0  0  0  0
  -30.7561  -17.0764   19.8316 H   0  0  0  0  0  0
  -29.0072  -15.2728   21.4462 H   0  0  0  0  0  0
  -29.1160  -22.1197   23.3321 H   0  0  0  0  0  0
  1 25  1  0  0  0
  1 30  2  0  0  0
  1 85  1  0  0  0
  2  3  1  0  0  0
  2 25  1  0  0  0
  2 87  1  0  0  0
  2 88  1  0  0  0
  3  4  1  0  0  0
  3 89  1  0  0  0
  3 90  1  0  0  0
  4  5  1  0  0  0
  4 91  1  0  0  0
  4 92  1  0  0  0
  5  6  1  0  0  0
  5 26  1  0  0  0
  5 93  1  0  0  0
  6 25  1  0  0  0
  6 94  1  0  0  0
  6 95  1  0  0  0
  7  8  2  0  0  0
  7 26  1  0  0  0
  7 29  1  0  0  0
  8  9  1  0  0  0
  8 22  1  0  0  0
  9 10  1  0  0  0
  9 27  2  0  0  0
 10 11  2  0  0  0
 10 15  1  0  0  0
 11 12  1  0  0  0
 11 96  1  0  0  0
 12 13  2  0  0  0
 12 97  1  0  0  0
 13 14  1  0  0  0
 13 31  1  0  0  0
 14 15  2  0  0  0
 14 98  1  0  0  0
 15 99  1  0  0  0
 16 17  2  0  0  0
 16 21  1  0  0  0
 16 31  1  0  0  0
 17 18  1  0  0  0
 17100  1  0  0  0
 18 19  2  0  0  0
 18101  1  0  0  0
 19 20  1  0  0  0
 19 24  1  0  0  0
 20 21  2  0  0  0
 20102  1  0  0  0
 21 23  1  0  0  0
 22 28  1  0  0  0
 22 32  2  0  0  0
 26 27  1  0  0  0
 28103  1  0  0  0
 28104  1  0  0  0
 29105  1  0  0  0
 29106  1  0  0  0
 33 34  1  0  0  0
 33 66  1  0  0  0
 33 70  2  0  0  0
 34 36  1  0  0  0
 34 59  1  0  0  0
 34107  1  0  0  0
 35 44  2  0  0  0
 35 45  1  0  0  0
 35 68  1  0  0  0
 36 56  1  0  0  0
 36108  1  0  0  0
 37 39  1  0  0  0
 37 47  1  0  0  0
 37 66  1  0  0  0
 37109  1  0  0  0
 38 43  2  0  0  0
 38 46  1  0  0  0
 38 47  1  0  0  0
 39 64  1  0  0  0
 39 67  2  0  0  0
 40 52  1  0  0  0
 40 53  2  0  0  0
 40 58  1  0  0  0
 41110  1  0  0  0
 41111  1  0  0  0
 41112  1  0  0  0
 41 48  1  0  0  0
 42 43  1  0  0  0
 42 66  1  0  0  0
 42113  1  0  0  0
 42114  1  0  0  0
 43 44  1  0  0  0
 44115  1  0  0  0
 45 46  2  0  0  0
 45116  1  0  0  0
 46117  1  0  0  0
 47118  1  0  0  0
 47119  1  0  0  0
 48 56  1  0  0  0
 48 65  1  0  0  0
 48120  1  0  0  0
 49 50  1  0  0  0
 49 53  1  0  0  0
 49 64  1  0  0  0
 49121  1  0  0  0
 50 51  1  0  0  0
 50122  1  0  0  0
 50123  1  0  0  0
 51 52  1  0  0  0
 51124  1  0  0  0
 51125  1  0  0  0
 52126  1  0  0  0
 52127  1  0  0  0
 53 54  1  0  0  0
 54 55  2  0  0  0
 54128  1  0  0  0
 55 57  1  0  0  0
 55129  1  0  0  0
 56 69  2  0  0  0
 57 58  2  0  0  0
 57130  1  0  0  0
 58131  1  0  0  0
 59 60  1  0  0  0
 59 61  1  0  0  0
 59 62  1  0  0  0
 60132  1  0  0  0
 60133  1  0  0  0
 60134  1  0  0  0
 61135  1  0  0  0
 61136  1  0  0  0
 61137  1  0  0  0
 62138  1  0  0  0
 62139  1  0  0  0
 62140  1  0  0  0
 63 65  1  0  0  0
 63141  1  0  0  0
 63142  1  0  0  0
 63143  1  0  0  0
 64144  1  0  0  0
 65145  1  0  0  0
 68 81  1  0  0  0
 71 72  2  0  0  0
 71 73  1  0  0  0
 71146  1  0  0  0
 72 75  1  0  0  0
 72 83  1  0  0  0
 73 82  1  0  0  0
 73 84  2  0  0  0
 74 78  1  0  0  0
 74 83  2  0  0  0
 74 84  1  0  0  0
 75147  1  0  0  0
 75148  1  0  0  0
 75149  1  0  0  0
 76150  1  0  0  0
 76151  1  0  0  0
 76152  1  0  0  0
 76 82  1  0  0  0
 77153  1  0  0  0
 77154  1  0  0  0
 77155  1  0  0  0
 77 86  1  0  0  0
 78 86  1  0  0  0
 78156  1  0  0  0
 78157  1  0  0  0
 79 80  1  0  0  0
 79 81  1  0  0  0
 79158  1  0  0  0
 79159  1  0  0  0
 80 86  1  0  0  0
 80160  1  0  0  0
 80161  1  0  0  0
 81162  1  0  0  0
 81163  1  0  0  0
 82 85  1  0  0  0
 82164  1  0  0  0
 85165  1  0  0  0
 86166  1  0  0  0
M  CHG  1  86   1
M  ISO  4   1 100  68 101  81 101  85 100
M  END
> <chiral flag>
0

> <version>
0

> <s_m_source_file>
/data/baiqing/PycharmProjects/Reinvent-master-3.2/result/LINK_invent/BTK/process_docking_weight1_custom_sum_contain_oxygen_bond_distance_aromatic_linkinvent_7_9_3/rearranged_h_0057.sdf

> <i_m_source_file_index>
54

> <r_mmod_Potential_Energy-OPLS-2005>
-816.601135253906

> <r_mmod_Stretch_Energy-OPLS-2005>
40.3376541137695

> <r_mmod_Bend_Energy-OPLS-2005>
110.900726318359

> <r_mmod_Torsional_Energy-OPLS-2005>
254.819519042969

> <r_mmod_Improper_Torsional_Energy-OPLS-2005>
7.38595199584961

> <r_mmod_Van_der_Waal_Energy-OPLS-2005>
165.998840332031

> <r_mmod_Electrostatic_Energy-OPLS-2005>
-978.152221679688

> <r_mmod_Solvation_Energy-OPLS-2005>
-433.278411865234

> <b_mmod_Minimization_Converged-OPLS-2005>
0

> <r_mmod_RMS_Derivative-OPLS-2005>
4.64724588394165

$$$$
54
                    3D
 Structure written by MMmdl.
160168  0  0  1  0            999 V2000
  -30.5618  -14.9937   20.4395 C   0  0  0  0  0  0
  -30.4379  -12.6161   19.5192 C   0  0  0  0  0  0
  -29.5240  -12.5486   18.2715 C   0  0  0  0  0  0
  -28.0537  -12.3509   18.6764 C   0  0  0  0  0  0
  -27.6319  -13.2682   19.8521 C   0  0  2  0  0  0
  -28.6742  -13.2941   20.9924 C   0  0  0  0  0  0
  -25.2442  -13.8246   20.5805 C   0  0  0  0  0  0
  -24.1761  -13.0436   20.9227 C   0  0  0  0  0  0
  -24.6415  -11.6926   20.8757 C   0  0  0  0  0  0
  -23.9117  -10.4301   21.0415 C   0  0  0  0  0  0
  -24.3648   -9.4198   21.9187 C   0  0  0  0  0  0
  -23.6322   -8.2226   22.0758 C   0  0  0  0  0  0
  -22.4299   -8.0292   21.3547 C   0  0  0  0  0  0
  -21.9943   -9.0276   20.4646 C   0  0  0  0  0  0
  -22.7295  -10.2142   20.3074 C   0  0  0  0  0  0
  -21.6859   -6.0755   22.5287 C   0  0  0  0  0  0
  -21.4028   -6.5651   23.8223 C   0  0  0  0  0  0
  -21.3664   -5.6807   24.9181 C   0  0  0  0  0  0
  -21.6033   -4.3062   24.7230 C   0  0  0  0  0  0
  -21.8812   -3.8155   23.4350 C   0  0  0  0  0  0
  -21.9180   -4.6969   22.3405 C   0  0  0  0  0  0
  -22.7756  -13.5140   21.1893 C   0  0  0  0  0  0
  -22.1651   -4.2150   21.0982 F   0  0  0  0  0  0
  -21.5639   -3.4546   25.7743 F   0  0  0  0  0  0
  -29.9568  -13.7253   20.4080 N   0  0  0  0  0  0
  -26.2917  -12.9530   20.3358 N   0  0  0  0  0  0
  -25.9367  -11.6616   20.5772 N   0  0  0  0  0  0
  -22.0455  -12.8095   22.0462 N   0  0  0  0  0  0
  -25.4065  -15.1985   20.4296 N   0  0  0  0  0  0
  -31.7042  -15.0605   19.9714 O   0  0  0  0  0  0
  -21.6628   -6.8916   21.4252 O   0  0  0  0  0  0
  -22.3388  -14.5436   20.6767 O   0  0  0  0  0  0
  -24.6480  -31.8388   23.1854 C   0  0  0  0  0  0
  -25.9234  -32.4664   23.8261 C   0  0  1  0  0  0
  -27.2183  -27.0869   20.1542 C   0  0  0  0  0  0
  -25.5967  -33.8470   24.2184 N   0  0  0  0  0  0
  -23.4561  -30.4573   21.5305 C   0  0  2  0  0  0
  -24.9093  -28.8805   20.1050 C   0  0  0  0  0  0
  -22.7600  -29.4522   22.4834 C   0  0  0  0  0  0
  -18.0308  -28.1397   22.8474 C   0  0  0  0  0  0
  -24.1496  -36.7233   23.2645 C   0  0  0  0  0  0
  -26.0152  -30.6952   21.3974 C   0  0  0  0  0  0
  -26.0849  -29.3031   20.7355 C   0  0  0  0  0  0
  -27.2358  -28.4206   20.7503 C   0  0  0  0  0  0
  -26.0269  -26.7980   19.4503 C   0  0  0  0  0  0
  -24.8975  -27.6450   19.4433 C   0  0  0  0  0  0
  -23.6874  -29.7876   20.1492 C   0  0  0  0  0  0
  -25.4132  -36.3016   24.0311 C   0  0  1  0  0  0
  -20.5922  -28.3732   23.1208 C   0  0  2  0  0  0
  -20.6791  -26.9430   22.5405 C   0  0  0  0  0  0
  -19.5771  -26.6385   21.5214 C   0  0  0  0  0  0
  -18.1946  -26.7936   22.1622 C   0  0  0  0  0  0
  -19.1562  -28.8879   23.2826 C   0  0  0  0  0  0
  -18.9475  -30.1471   23.8864 C   0  0  0  0  0  0
  -17.6469  -30.6590   24.0557 C   0  0  0  0  0  0
  -25.9080  -34.9388   23.5057 C   0  0  0  0  0  0
  -16.5362  -29.9091   23.6330 C   0  0  0  0  0  0
  -16.7293  -28.6504   23.0366 C   0  0  0  0  0  0
  -26.4546  -31.6546   25.0714 C   0  0  0  0  0  0
  -25.3721  -31.3733   26.1392 C   0  0  0  0  0  0
  -27.0436  -30.2928   24.6359 C   0  0  0  0  0  0
  -27.6071  -32.4325   25.7492 C   0  0  0  0  0  0
  -27.5596  -37.1761   24.8459 C   0  0  0  0  0  0
  -21.4282  -29.3053   22.3572 N   0  0  0  0  0  0
  -26.4292  -37.3732   23.9415 N   0  0  0  0  0  0
  -24.7263  -31.0208   22.0906 N   0  0  0  0  0  0
  -23.4224  -28.8065   23.2997 O   0  0  0  0  0  0
  -28.2416  -26.0568   20.2857 O   0  0  0  0  0  0
  -26.5679  -34.8889   22.4651 O   0  0  0  0  0  0
  -23.5585  -32.1287   23.7040 O   0  0  0  0  0  0
  -29.0514  -21.8501   19.9015 C   0  0  0  0  0  0
  -28.6169  -23.1338   20.5194 C   0  0  0  0  0  0
  -29.2560  -20.5867   20.6623 C   0  0  0  0  0  0
  -28.6247  -21.8936   22.4914 C   0  0  0  0  0  0
  -28.3738  -21.9027   23.9835 C   0  0  0  0  0  0
  -31.3535  -19.1082   20.9604 C   0  0  0  0  0  0
  -30.2887  -19.2059   18.7430 C   0  0  0  0  0  0
  -30.0695  -16.2048   22.4561 C   0  0  0  0  0  0
  -28.0839  -24.5554   19.8068 C   0  0  0  0  0  0
  -29.3045  -17.5683   20.4851 C   0  0  0  0  0  0
  -29.9850  -19.1224   20.2532 C   0  0  0  0  0  0
  -28.4324  -23.0565   21.8538 N   0  0  0  0  0  0
  -28.9996  -20.7170   21.9794 N   0  0  0  0  0  0
  -29.9484  -16.1754   20.9914 N   0  0  0  0  0  0
  -31.4753  -12.7588   19.2098 H   0  0  0  0  0  0
  -30.4251  -11.6661   20.0554 H   0  0  0  0  0  0
  -29.8383  -11.7401   17.6125 H   0  0  0  0  0  0
  -29.6203  -13.4686   17.6952 H   0  0  0  0  0  0
  -27.9280  -11.3045   18.9586 H   0  0  0  0  0  0
  -27.4015  -12.5177   17.8171 H   0  0  0  0  0  0
  -27.5937  -14.2774   19.4394 H   0  0  0  0  0  0
  -28.7556  -12.3161   21.4673 H   0  0  0  0  0  0
  -28.3535  -13.9800   21.7720 H   0  0  0  0  0  0
  -25.2793   -9.5638   22.4760 H   0  0  0  0  0  0
  -24.0024   -7.4591   22.7466 H   0  0  0  0  0  0
  -21.0895   -8.8791   19.8914 H   0  0  0  0  0  0
  -22.3788  -10.9679   19.6165 H   0  0  0  0  0  0
  -21.2048   -7.6155   23.9733 H   0  0  0  0  0  0
  -21.1505   -6.0539   25.9085 H   0  0  0  0  0  0
  -22.0594   -2.7615   23.2856 H   0  0  0  0  0  0
  -22.4139  -11.9748   22.4770 H   0  0  0  0  0  0
  -21.1078  -13.1096   22.2735 H   0  0  0  0  0  0
  -24.6395  -15.8518   20.5574 H   0  0  0  0  0  0
  -26.2646  -15.6479   20.1414 H   0  0  0  0  0  0
  -26.7307  -32.5248   23.0991 H   0  0  0  0  0  0
  -25.0084  -33.9575   25.0319 H   0  0  0  0  0  0
  -22.7612  -31.2838   21.3723 H   0  0  0  0  0  0
  -23.3774  -35.9545   23.3261 H   0  0  0  0  0  0
  -24.3574  -36.8921   22.2069 H   0  0  0  0  0  0
  -23.7239  -37.6402   23.6717 H   0  0  0  0  0  0
  -26.1889  -31.4511   20.6306 H   0  0  0  0  0  0
  -26.8779  -30.7375   22.0500 H   0  0  0  0  0  0
  -28.1234  -28.7351   21.2807 H   0  0  0  0  0  0
  -25.9203  -25.8727   18.9068 H   0  0  0  0  0  0
  -24.0068  -27.3246   18.9228 H   0  0  0  0  0  0
  -23.8342  -30.5640   19.3973 H   0  0  0  0  0  0
  -22.8013  -29.2370   19.8323 H   0  0  0  0  0  0
  -25.1323  -36.1832   25.0799 H   0  0  0  0  0  0
  -21.0005  -28.3331   24.1332 H   0  0  0  0  0  0
  -20.5682  -26.2343   23.3624 H   0  0  0  0  0  0
  -21.6644  -26.7417   22.1192 H   0  0  0  0  0  0
  -19.6921  -25.6287   21.1258 H   0  0  0  0  0  0
  -19.6706  -27.3171   20.6716 H   0  0  0  0  0  0
  -17.4208  -26.6672   21.4031 H   0  0  0  0  0  0
  -18.0336  -26.0077   22.9018 H   0  0  0  0  0  0
  -19.7945  -30.7299   24.2230 H   0  0  0  0  0  0
  -17.5021  -31.6266   24.5183 H   0  0  0  0  0  0
  -15.5364  -30.3000   23.7655 H   0  0  0  0  0  0
  -15.8685  -28.0820   22.7120 H   0  0  0  0  0  0
  -24.5895  -30.7107   25.7686 H   0  0  0  0  0  0
  -24.8915  -32.2911   26.4785 H   0  0  0  0  0  0
  -25.7976  -30.8906   27.0197 H   0  0  0  0  0  0
  -26.3079  -29.6612   24.1366 H   0  0  0  0  0  0
  -27.4019  -29.7280   25.4979 H   0  0  0  0  0  0
  -27.9002  -30.4150   23.9724 H   0  0  0  0  0  0
  -27.2675  -33.3675   26.1970 H   0  0  0  0  0  0
  -28.3914  -32.6811   25.0328 H   0  0  0  0  0  0
  -28.0695  -31.8510   26.5480 H   0  0  0  0  0  0
  -28.2540  -38.0124   24.7558 H   0  0  0  0  0  0
  -28.1164  -36.2644   24.6223 H   0  0  0  0  0  0
  -27.2295  -37.1323   25.8852 H   0  0  0  0  0  0
  -20.9508  -29.8804   21.6763 H   0  0  0  0  0  0
  -26.0150  -38.2786   24.1446 H   0  0  0  0  0  0
  -29.2242  -21.8479   18.8343 H   0  0  0  0  0  0
  -27.8086  -22.7833   24.2915 H   0  0  0  0  0  0
  -29.3211  -21.8983   24.5228 H   0  0  0  0  0  0
  -27.8077  -21.0195   24.2810 H   0  0  0  0  0  0
  -31.9501  -19.9788   20.6824 H   0  0  0  0  0  0
  -31.9270  -18.2198   20.7057 H   0  0  0  0  0  0
  -31.2439  -19.1290   22.0436 H   0  0  0  0  0  0
  -30.8452  -20.1118   18.4940 H   0  0  0  0  0  0
  -29.3675  -19.2263   18.1617 H   0  0  0  0  0  0
  -30.8811  -18.3572   18.3984 H   0  0  0  0  0  0
  -29.2464  -15.6707   22.9304 H   0  0  0  0  0  0
  -30.0743  -17.2174   22.8540 H   0  0  0  0  0  0
  -30.9951  -15.7381   22.8003 H   0  0  0  0  0  0
  -27.0168  -24.3535   19.7663 H   0  0  0  0  0  0
  -28.4185  -24.5311   18.7694 H   0  0  0  0  0  0
  -28.7448  -17.3203   19.5815 H   0  0  0  0  0  0
  -28.5097  -17.7607   21.2074 H   0  0  0  0  0  0
  1 25  1  0  0  0
  1 30  2  0  0  0
  1 84  1  0  0  0
  2  3  1  0  0  0
  2 25  1  0  0  0
  2 85  1  0  0  0
  2 86  1  0  0  0
  3  4  1  0  0  0
  3 87  1  0  0  0
  3 88  1  0  0  0
  4  5  1  0  0  0
  4 89  1  0  0  0
  4 90  1  0  0  0
  5  6  1  0  0  0
  5 26  1  0  0  0
  5 91  1  0  0  0
  6 25  1  0  0  0
  6 92  1  0  0  0
  6 93  1  0  0  0
  7  8  2  0  0  0
  7 26  1  0  0  0
  7 29  1  0  0  0
  8  9  1  0  0  0
  8 22  1  0  0  0
  9 10  1  0  0  0
  9 27  2  0  0  0
 10 11  2  0  0  0
 10 15  1  0  0  0
 11 12  1  0  0  0
 11 94  1  0  0  0
 12 13  2  0  0  0
 12 95  1  0  0  0
 13 14  1  0  0  0
 13 31  1  0  0  0
 14 15  2  0  0  0
 14 96  1  0  0  0
 15 97  1  0  0  0
 16 17  2  0  0  0
 16 21  1  0  0  0
 16 31  1  0  0  0
 17 18  1  0  0  0
 17 98  1  0  0  0
 18 19  2  0  0  0
 18 99  1  0  0  0
 19 20  1  0  0  0
 19 24  1  0  0  0
 20 21  2  0  0  0
 20100  1  0  0  0
 21 23  1  0  0  0
 22 28  1  0  0  0
 22 32  2  0  0  0
 26 27  1  0  0  0
 28101  1  0  0  0
 28102  1  0  0  0
 29103  1  0  0  0
 29104  1  0  0  0
 33 34  1  0  0  0
 33 66  1  0  0  0
 33 70  2  0  0  0
 34 36  1  0  0  0
 34 59  1  0  0  0
 34105  1  0  0  0
 35 44  2  0  0  0
 35 45  1  0  0  0
 35 68  1  0  0  0
 36 56  1  0  0  0
 36106  1  0  0  0
 37 39  1  0  0  0
 37 47  1  0  0  0
 37 66  1  0  0  0
 37107  1  0  0  0
 38 43  2  0  0  0
 38 46  1  0  0  0
 38 47  1  0  0  0
 39 64  1  0  0  0
 39 67  2  0  0  0
 40 52  1  0  0  0
 40 53  2  0  0  0
 40 58  1  0  0  0
 41108  1  0  0  0
 41109  1  0  0  0
 41110  1  0  0  0
 41 48  1  0  0  0
 42 43  1  0  0  0
 42 66  1  0  0  0
 42111  1  0  0  0
 42112  1  0  0  0
 43 44  1  0  0  0
 44113  1  0  0  0
 45 46  2  0  0  0
 45114  1  0  0  0
 46115  1  0  0  0
 47116  1  0  0  0
 47117  1  0  0  0
 48 56  1  0  0  0
 48 65  1  0  0  0
 48118  1  0  0  0
 49 50  1  0  0  0
 49 53  1  0  0  0
 49 64  1  0  0  0
 49119  1  0  0  0
 50 51  1  0  0  0
 50120  1  0  0  0
 50121  1  0  0  0
 51 52  1  0  0  0
 51122  1  0  0  0
 51123  1  0  0  0
 52124  1  0  0  0
 52125  1  0  0  0
 53 54  1  0  0  0
 54 55  2  0  0  0
 54126  1  0  0  0
 55 57  1  0  0  0
 55127  1  0  0  0
 56 69  2  0  0  0
 57 58  2  0  0  0
 57128  1  0  0  0
 58129  1  0  0  0
 59 60  1  0  0  0
 59 61  1  0  0  0
 59 62  1  0  0  0
 60130  1  0  0  0
 60131  1  0  0  0
 60132  1  0  0  0
 61133  1  0  0  0
 61134  1  0  0  0
 61135  1  0  0  0
 62136  1  0  0  0
 62137  1  0  0  0
 62138  1  0  0  0
 63 65  1  0  0  0
 63139  1  0  0  0
 63140  1  0  0  0
 63141  1  0  0  0
 64142  1  0  0  0
 65143  1  0  0  0
 68 79  1  0  0  0
 71 72  2  0  0  0
 71 73  1  0  0  0
 71144  1  0  0  0
 72 79  1  0  0  0
 72 82  1  0  0  0
 73 81  1  0  0  0
 73 83  2  0  0  0
 74 75  1  0  0  0
 74 82  2  0  0  0
 74 83  1  0  0  0
 75145  1  0  0  0
 75146  1  0  0  0
 75147  1  0  0  0
 76148  1  0  0  0
 76149  1  0  0  0
 76150  1  0  0  0
 76 81  1  0  0  0
 77 81  1  0  0  0
 77151  1  0  0  0
 77152  1  0  0  0
 77153  1  0  0  0
 78 84  1  0  0  0
 78154  1  0  0  0
 78155  1  0  0  0
 78156  1  0  0  0
 79157  1  0  0  0
 79158  1  0  0  0
 80 81  1  0  0  0
 80 84  1  0  0  0
 80159  1  0  0  0
 80160  1  0  0  0
M  ISO  4   1 100  68 101  79 101  84 100
M  END
> <chiral flag>
0

> <version>
0

> <s_m_source_file>
/data/baiqing/PycharmProjects/Reinvent-master-3.2/result/LINK_invent/BTK/process_docking_weight1_custom_sum_contain_oxygen_bond_distance_aromatic_linkinvent_7_9_3/rearranged_h_0057.sdf

> <i_m_source_file_index>
55

> <r_mmod_Potential_Energy-OPLS-2005>
394.427734375

> <r_mmod_Stretch_Energy-OPLS-2005>
326.985321044922

> <r_mmod_Bend_Energy-OPLS-2005>
337.388366699219

> <r_mmod_Torsional_Energy-OPLS-2005>
313.96435546875

> <r_mmod_Improper_Torsional_Energy-OPLS-2005>
3.81247854232788

> <r_mmod_Van_der_Waal_Energy-OPLS-2005>
141.20671081543

> <r_mmod_Electrostatic_Energy-OPLS-2005>
-742.487060546875

> <r_mmod_Solvation_Energy-OPLS-2005>
-220.521270751953

> <b_mmod_Minimization_Converged-OPLS-2005>
0

> <r_mmod_RMS_Derivative-OPLS-2005>
3.94126558303833

$$$$
55
                    3D
 Structure written by MMmdl.
151159  0  0  1  0            999 V2000
  -30.3941  -15.3652   20.3459 C   0  0  0  0  0  0
  -30.4349  -12.8740   19.5438 C   0  0  0  0  0  0
  -29.5410  -12.6020   18.3046 C   0  0  0  0  0  0
  -28.0924  -12.3088   18.7296 C   0  0  0  0  0  0
  -27.6086  -13.2870   19.8275 C   0  0  2  0  0  0
  -28.6366  -13.4945   20.9627 C   0  0  0  0  0  0
  -25.2363  -13.8267   20.5773 C   0  0  0  0  0  0
  -24.1728  -13.0438   20.9266 C   0  0  0  0  0  0
  -24.6400  -11.6939   20.8758 C   0  0  0  0  0  0
  -23.9099  -10.4294   21.0397 C   0  0  0  0  0  0
  -24.3640   -9.4210   21.9180 C   0  0  0  0  0  0
  -23.6306   -8.2246   22.0753 C   0  0  0  0  0  0
  -22.4289   -8.0282   21.3541 C   0  0  0  0  0  0
  -21.9930   -9.0258   20.4642 C   0  0  0  0  0  0
  -22.7266  -10.2134   20.3050 C   0  0  0  0  0  0
  -21.6858   -6.0737   22.5275 C   0  0  0  0  0  0
  -21.4019   -6.5641   23.8208 C   0  0  0  0  0  0
  -21.3660   -5.6793   24.9169 C   0  0  0  0  0  0
  -21.6044   -4.3054   24.7221 C   0  0  0  0  0  0
  -21.8820   -3.8147   23.4343 C   0  0  0  0  0  0
  -21.9195   -4.6963   22.3398 C   0  0  0  0  0  0
  -22.7745  -13.5180   21.1906 C   0  0  0  0  0  0
  -22.1662   -4.2147   21.0975 F   0  0  0  0  0  0
  -21.5627   -3.4537   25.7734 F   0  0  0  0  0  0
  -29.8586  -14.0322   20.3382 N   0  0  0  0  0  0
  -26.2802  -12.9566   20.3249 N   0  0  0  0  0  0
  -25.9342  -11.6657   20.5726 N   0  0  0  0  0  0
  -22.0415  -12.8151   22.0462 N   0  0  0  0  0  0
  -25.3993  -15.2008   20.4220 N   0  0  0  0  0  0
  -31.6059  -15.3585   20.0772 O   0  0  0  0  0  0
  -21.6648   -6.8883   21.4238 O   0  0  0  0  0  0
  -22.3417  -14.5479   20.6747 O   0  0  0  0  0  0
  -24.6685  -31.8158   23.1644 C   0  0  0  0  0  0
  -25.9334  -32.4550   23.8133 C   0  0  1  0  0  0
  -27.2200  -26.8544   20.1896 C   0  0  0  0  0  0
  -25.5983  -33.8371   24.2027 N   0  0  0  0  0  0
  -23.4878  -30.4244   21.5137 C   0  0  2  0  0  0
  -24.9443  -28.7998   20.1070 C   0  0  0  0  0  0
  -22.7694  -29.4397   22.4742 C   0  0  0  0  0  0
  -18.0328  -28.1418   22.8468 C   0  0  0  0  0  0
  -24.1488  -36.7187   23.2652 C   0  0  0  0  0  0
  -26.0607  -30.5970   21.4081 C   0  0  0  0  0  0
  -26.1266  -29.1795   20.7528 C   0  0  0  0  0  0
  -27.2524  -28.2267   20.7736 C   0  0  0  0  0  0
  -26.0145  -26.6533   19.4771 C   0  0  0  0  0  0
  -24.9182  -27.5595   19.4488 C   0  0  0  0  0  0
  -23.7325  -29.7354   20.1411 C   0  0  0  0  0  0
  -25.4133  -36.2946   24.0293 C   0  0  1  0  0  0
  -20.5958  -28.3762   23.1178 C   0  0  2  0  0  0
  -20.6804  -26.9435   22.5410 C   0  0  0  0  0  0
  -19.5778  -26.6377   21.5224 C   0  0  0  0  0  0
  -18.1955  -26.7955   22.1619 C   0  0  0  0  0  0
  -19.1593  -28.8911   23.2814 C   0  0  0  0  0  0
  -18.9503  -30.1499   23.8850 C   0  0  0  0  0  0
  -17.6493  -30.6607   24.0553 C   0  0  0  0  0  0
  -25.9104  -34.9334   23.4983 C   0  0  0  0  0  0
  -16.5386  -29.9092   23.6346 C   0  0  0  0  0  0
  -16.7310  -28.6509   23.0369 C   0  0  0  0  0  0
  -26.4567  -31.6533   25.0693 C   0  0  0  0  0  0
  -25.3664  -31.3828   26.1327 C   0  0  0  0  0  0
  -27.0470  -30.2886   24.6492 C   0  0  0  0  0  0
  -27.6049  -32.4356   25.7496 C   0  0  0  0  0  0
  -27.5559  -37.1754   24.8468 C   0  0  0  0  0  0
  -21.4355  -29.3043   22.3516 N   0  0  0  0  0  0
  -26.4268  -37.3694   23.9411 N   0  0  0  0  0  0
  -24.7608  -30.9748   22.0820 N   0  0  0  0  0  0
  -23.4214  -28.7974   23.3012 O   0  0  0  0  0  0
  -28.1925  -25.7022   20.3237 O   0  0  0  0  0  0
  -26.5725  -34.8886   22.4587 O   0  0  0  0  0  0
  -23.5736  -32.1163   23.6688 O   0  0  0  0  0  0
  -28.4991  -22.3673   21.9451 C   0  0  0  0  0  0
  -28.5897  -22.5112   20.5445 C   0  0  0  0  0  0
  -28.9977  -20.0154   21.9993 C   0  0  0  0  0  0
  -29.1518  -19.8671   20.5961 C   0  0  0  0  0  0
  -29.2018  -18.8365   22.9305 C   0  0  0  0  0  0
  -29.1872  -18.2398   18.5146 C   0  0  0  0  0  0
  -28.0686  -24.0823   19.8693 C   0  0  0  0  0  0
  -29.7001  -18.2870   19.9615 C   0  0  2  0  0  0
  -28.6906  -21.1946   22.6249 N   0  0  0  0  0  0
  -28.9344  -21.1894   19.9158 N   0  0  0  0  0  0
  -29.6206  -16.6539   20.4565 N   0  0  0  0  0  0
  -31.4506  -13.0858   19.2073 H   0  0  0  0  0  0
  -30.5194  -11.9793   20.1633 H   0  0  0  0  0  0
  -29.9374  -11.7698   17.7213 H   0  0  0  0  0  0
  -29.5581  -13.4741   17.6489 H   0  0  0  0  0  0
  -28.0587  -11.2867   19.1095 H   0  0  0  0  0  0
  -27.4254  -12.3373   17.8667 H   0  0  0  0  0  0
  -27.5134  -14.2464   19.3174 H   0  0  0  0  0  0
  -28.8253  -12.5678   21.5074 H   0  0  0  0  0  0
  -28.2574  -14.2113   21.6924 H   0  0  0  0  0  0
  -25.2782   -9.5684   22.4759 H   0  0  0  0  0  0
  -24.0007   -7.4642   22.7477 H   0  0  0  0  0  0
  -21.0859   -8.8780   19.8949 H   0  0  0  0  0  0
  -22.3722  -10.9671   19.6160 H   0  0  0  0  0  0
  -21.2017   -7.6149   23.9709 H   0  0  0  0  0  0
  -21.1480   -6.0524   25.9072 H   0  0  0  0  0  0
  -22.0599   -2.7606   23.2841 H   0  0  0  0  0  0
  -22.4055  -11.9818   22.4840 H   0  0  0  0  0  0
  -21.1023  -13.1142   22.2676 H   0  0  0  0  0  0
  -24.6284  -15.8494   20.5386 H   0  0  0  0  0  0
  -26.2353  -15.6414   20.0623 H   0  0  0  0  0  0
  -26.7396  -32.5063   23.0838 H   0  0  0  0  0  0
  -25.0086  -33.9449   25.0149 H   0  0  0  0  0  0
  -22.8048  -31.2584   21.3364 H   0  0  0  0  0  0
  -23.3770  -35.9499   23.3279 H   0  0  0  0  0  0
  -24.3557  -36.8868   22.2073 H   0  0  0  0  0  0
  -23.7221  -37.6354   23.6731 H   0  0  0  0  0  0
  -26.2502  -31.3338   20.6263 H   0  0  0  0  0  0
  -26.9179  -30.6561   22.0666 H   0  0  0  0  0  0
  -28.1376  -28.5120   21.3233 H   0  0  0  0  0  0
  -25.8721  -25.7120   18.9679 H   0  0  0  0  0  0
  -24.0227  -27.2649   18.9189 H   0  0  0  0  0  0
  -23.8944  -30.5025   19.3830 H   0  0  0  0  0  0
  -22.8404  -29.1946   19.8196 H   0  0  0  0  0  0
  -25.1337  -36.1727   25.0782 H   0  0  0  0  0  0
  -21.0050  -28.3375   24.1301 H   0  0  0  0  0  0
  -20.5680  -26.2383   23.3658 H   0  0  0  0  0  0
  -21.6664  -26.7405   22.1218 H   0  0  0  0  0  0
  -19.6937  -25.6272   21.1286 H   0  0  0  0  0  0
  -19.6723  -27.3161   20.6734 H   0  0  0  0  0  0
  -17.4232  -26.6710   21.4013 H   0  0  0  0  0  0
  -18.0331  -26.0114   22.9024 H   0  0  0  0  0  0
  -19.7980  -30.7332   24.2195 H   0  0  0  0  0  0
  -17.5049  -31.6282   24.5165 H   0  0  0  0  0  0
  -15.5385  -30.2981   23.7709 H   0  0  0  0  0  0
  -15.8707  -28.0814   22.7122 H   0  0  0  0  0  0
  -24.5871  -30.7145   25.7646 H   0  0  0  0  0  0
  -24.8828  -32.3048   26.4564 H   0  0  0  0  0  0
  -25.7872  -30.9123   27.0219 H   0  0  0  0  0  0
  -26.3151  -29.6544   24.1475 H   0  0  0  0  0  0
  -27.3948  -29.7278   25.5178 H   0  0  0  0  0  0
  -27.9116  -30.4055   23.9954 H   0  0  0  0  0  0
  -27.2632  -33.3750   26.1852 H   0  0  0  0  0  0
  -28.3984  -32.6749   25.0404 H   0  0  0  0  0  0
  -28.0564  -31.8607   26.5590 H   0  0  0  0  0  0
  -28.2562  -38.0062   24.7517 H   0  0  0  0  0  0
  -28.1066  -36.2589   24.6296 H   0  0  0  0  0  0
  -27.2276  -37.1395   25.8871 H   0  0  0  0  0  0
  -20.9620  -29.8723   21.6628 H   0  0  0  0  0  0
  -26.0103  -38.2743   24.1435 H   0  0  0  0  0  0
  -28.2167  -23.2181   22.5487 H   0  0  0  0  0  0
  -28.4056  -18.1045   22.7941 H   0  0  0  0  0  0
  -29.2014  -19.1448   23.9765 H   0  0  0  0  0  0
  -30.1570  -18.3494   22.7335 H   0  0  0  0  0  0
  -29.4700  -19.1406   17.9689 H   0  0  0  0  0  0
  -28.0999  -18.1670   18.4888 H   0  0  0  0  0  0
  -29.5946  -17.3895   17.9668 H   0  0  0  0  0  0
  -26.9991  -23.9283   19.7373 H   0  0  0  0  0  0
  -28.4638  -24.0704   18.8542 H   0  0  0  0  0  0
  -30.7781  -18.4418   19.8989 H   0  0  0  0  0  0
  -28.6847  -16.4412   20.7675 H   0  0  0  0  0  0
  1 25  1  0  0  0
  1 30  2  0  0  0
  1 81  1  0  0  0
  2  3  1  0  0  0
  2 25  1  0  0  0
  2 82  1  0  0  0
  2 83  1  0  0  0
  3  4  1  0  0  0
  3 84  1  0  0  0
  3 85  1  0  0  0
  4  5  1  0  0  0
  4 86  1  0  0  0
  4 87  1  0  0  0
  5  6  1  0  0  0
  5 26  1  0  0  0
  5 88  1  0  0  0
  6 25  1  0  0  0
  6 89  1  0  0  0
  6 90  1  0  0  0
  7  8  2  0  0  0
  7 26  1  0  0  0
  7 29  1  0  0  0
  8  9  1  0  0  0
  8 22  1  0  0  0
  9 10  1  0  0  0
  9 27  2  0  0  0
 10 11  2  0  0  0
 10 15  1  0  0  0
 11 12  1  0  0  0
 11 91  1  0  0  0
 12 13  2  0  0  0
 12 92  1  0  0  0
 13 14  1  0  0  0
 13 31  1  0  0  0
 14 15  2  0  0  0
 14 93  1  0  0  0
 15 94  1  0  0  0
 16 17  2  0  0  0
 16 21  1  0  0  0
 16 31  1  0  0  0
 17 18  1  0  0  0
 17 95  1  0  0  0
 18 19  2  0  0  0
 18 96  1  0  0  0
 19 20  1  0  0  0
 19 24  1  0  0  0
 20 21  2  0  0  0
 20 97  1  0  0  0
 21 23  1  0  0  0
 22 28  1  0  0  0
 22 32  2  0  0  0
 26 27  1  0  0  0
 28 98  1  0  0  0
 28 99  1  0  0  0
 29100  1  0  0  0
 29101  1  0  0  0
 33 34  1  0  0  0
 33 66  1  0  0  0
 33 70  2  0  0  0
 34 36  1  0  0  0
 34 59  1  0  0  0
 34102  1  0  0  0
 35 44  2  0  0  0
 35 45  1  0  0  0
 35 68  1  0  0  0
 36 56  1  0  0  0
 36103  1  0  0  0
 37 39  1  0  0  0
 37 47  1  0  0  0
 37 66  1  0  0  0
 37104  1  0  0  0
 38 43  2  0  0  0
 38 46  1  0  0  0
 38 47  1  0  0  0
 39 64  1  0  0  0
 39 67  2  0  0  0
 40 52  1  0  0  0
 40 53  2  0  0  0
 40 58  1  0  0  0
 41105  1  0  0  0
 41106  1  0  0  0
 41107  1  0  0  0
 41 48  1  0  0  0
 42 43  1  0  0  0
 42 66  1  0  0  0
 42108  1  0  0  0
 42109  1  0  0  0
 43 44  1  0  0  0
 44110  1  0  0  0
 45 46  2  0  0  0
 45111  1  0  0  0
 46112  1  0  0  0
 47113  1  0  0  0
 47114  1  0  0  0
 48 56  1  0  0  0
 48 65  1  0  0  0
 48115  1  0  0  0
 49 50  1  0  0  0
 49 53  1  0  0  0
 49 64  1  0  0  0
 49116  1  0  0  0
 50 51  1  0  0  0
 50117  1  0  0  0
 50118  1  0  0  0
 51 52  1  0  0  0
 51119  1  0  0  0
 51120  1  0  0  0
 52121  1  0  0  0
 52122  1  0  0  0
 53 54  1  0  0  0
 54 55  2  0  0  0
 54123  1  0  0  0
 55 57  1  0  0  0
 55124  1  0  0  0
 56 69  2  0  0  0
 57 58  2  0  0  0
 57125  1  0  0  0
 58126  1  0  0  0
 59 60  1  0  0  0
 59 61  1  0  0  0
 59 62  1  0  0  0
 60127  1  0  0  0
 60128  1  0  0  0
 60129  1  0  0  0
 61130  1  0  0  0
 61131  1  0  0  0
 61132  1  0  0  0
 62133  1  0  0  0
 62134  1  0  0  0
 62135  1  0  0  0
 63 65  1  0  0  0
 63136  1  0  0  0
 63137  1  0  0  0
 63138  1  0  0  0
 64139  1  0  0  0
 65140  1  0  0  0
 68 77  1  0  0  0
 71 72  2  0  0  0
 71 79  1  0  0  0
 71141  1  0  0  0
 72 77  1  0  0  0
 72 80  1  0  0  0
 73 74  1  0  0  0
 73 75  1  0  0  0
 73 79  2  0  0  0
 74 78  1  0  0  0
 74 80  2  0  0  0
 75142  1  0  0  0
 75143  1  0  0  0
 75144  1  0  0  0
 76145  1  0  0  0
 76146  1  0  0  0
 76147  1  0  0  0
 76 78  1  0  0  0
 77148  1  0  0  0
 77149  1  0  0  0
 78 81  1  0  0  0
 78150  1  0  0  0
 81151  1  0  0  0
M  ISO  4   1 100  68 101  77 101  81 100
M  END
> <chiral flag>
0

> <version>
0

> <s_m_source_file>
/data/baiqing/PycharmProjects/Reinvent-master-3.2/result/LINK_invent/BTK/process_docking_weight1_custom_sum_contain_oxygen_bond_distance_aromatic_linkinvent_7_9_3/rearranged_h_0057.sdf

> <i_m_source_file_index>
56

> <r_mmod_Potential_Energy-OPLS-2005>
1568.45178222656

> <r_mmod_Stretch_Energy-OPLS-2005>
714.434448242188

> <r_mmod_Bend_Energy-OPLS-2005>
481.485290527344

> <r_mmod_Torsional_Energy-OPLS-2005>
216.630859375

> <r_mmod_Improper_Torsional_Energy-OPLS-2005>
6.13383483886719

> <r_mmod_Van_der_Waal_Energy-OPLS-2005>
121.002670288086

> <r_mmod_Electrostatic_Energy-OPLS-2005>
-314.897338867188

> <r_mmod_Solvation_Energy-OPLS-2005>
-231.843719482422

> <b_mmod_Minimization_Converged-OPLS-2005>
0

> <r_mmod_RMS_Derivative-OPLS-2005>
1.12990474700928

$$$$
56
                    3D
 Structure written by MMmdl.
155163  0  0  1  0            999 V2000
  -30.5242  -14.8198   20.4570 C   0  0  0  0  0  0
  -30.4504  -12.4989   19.4880 C   0  0  0  0  0  0
  -29.5237  -12.5345   18.2491 C   0  0  0  0  0  0
  -28.0479  -12.3476   18.6542 C   0  0  0  0  0  0
  -27.6487  -13.2316   19.8649 C   0  0  2  0  0  0
  -28.6910  -13.1408   21.0027 C   0  0  0  0  0  0
  -25.2525  -13.8192   20.5689 C   0  0  0  0  0  0
  -24.1811  -13.0435   20.9191 C   0  0  0  0  0  0
  -24.6404  -11.6911   20.8739 C   0  0  0  0  0  0
  -23.9080  -10.4294   21.0401 C   0  0  0  0  0  0
  -24.3628   -9.4210   21.9177 C   0  0  0  0  0  0
  -23.6303   -8.2247   22.0754 C   0  0  0  0  0  0
  -22.4284   -8.0288   21.3545 C   0  0  0  0  0  0
  -21.9918   -9.0260   20.4650 C   0  0  0  0  0  0
  -22.7247  -10.2138   20.3053 C   0  0  0  0  0  0
  -21.6859   -6.0738   22.5275 C   0  0  0  0  0  0
  -21.4018   -6.5638   23.8209 C   0  0  0  0  0  0
  -21.3661   -5.6790   24.9172 C   0  0  0  0  0  0
  -21.6048   -4.3052   24.7219 C   0  0  0  0  0  0
  -21.8818   -3.8145   23.4340 C   0  0  0  0  0  0
  -21.9195   -4.6964   22.3398 C   0  0  0  0  0  0
  -22.7832  -13.5217   21.1851 C   0  0  0  0  0  0
  -22.1660   -4.2147   21.0977 F   0  0  0  0  0  0
  -21.5630   -3.4533   25.7732 F   0  0  0  0  0  0
  -29.9909  -13.5420   20.4410 N   0  0  0  0  0  0
  -26.2965  -12.9395   20.3318 N   0  0  0  0  0  0
  -25.9339  -11.6535   20.5757 N   0  0  0  0  0  0
  -22.0474  -12.8222   22.0415 N   0  0  0  0  0  0
  -25.4214  -15.1921   20.4117 N   0  0  0  0  0  0
  -31.6558  -15.0113   20.0019 O   0  0  0  0  0  0
  -21.6648   -6.8885   21.4240 O   0  0  0  0  0  0
  -22.3512  -14.5518   20.6695 O   0  0  0  0  0  0
  -24.6346  -31.8477   23.1900 C   0  0  0  0  0  0
  -25.9149  -32.4709   23.8277 C   0  0  1  0  0  0
  -27.2338  -27.2177   20.1411 C   0  0  0  0  0  0
  -25.5922  -33.8513   24.2204 N   0  0  0  0  0  0
  -23.4344  -30.4648   21.5323 C   0  0  2  0  0  0
  -24.8851  -28.8940   20.1054 C   0  0  0  0  0  0
  -22.7515  -29.4560   22.4875 C   0  0  0  0  0  0
  -18.0293  -28.1383   22.8480 C   0  0  0  0  0  0
  -24.1490  -36.7271   23.2644 C   0  0  0  0  0  0
  -25.9803  -30.7470   21.3733 C   0  0  0  0  0  0
  -26.0528  -29.3637   20.7173 C   0  0  0  0  0  0
  -27.2235  -28.5373   20.7211 C   0  0  0  0  0  0
  -26.0449  -26.8144   19.4996 C   0  0  0  0  0  0
  -24.8883  -27.6302   19.4850 C   0  0  0  0  0  0
  -23.6554  -29.7861   20.1515 C   0  0  0  0  0  0
  -25.4117  -36.3045   24.0324 C   0  0  1  0  0  0
  -20.5897  -28.3699   23.1257 C   0  0  2  0  0  0
  -20.6768  -26.9406   22.5413 C   0  0  0  0  0  0
  -19.5748  -26.6372   21.5210 C   0  0  0  0  0  0
  -18.1930  -26.7926   22.1621 C   0  0  0  0  0  0
  -19.1547  -28.8859   23.2863 C   0  0  0  0  0  0
  -18.9468  -30.1456   23.8886 C   0  0  0  0  0  0
  -17.6466  -30.6584   24.0560 C   0  0  0  0  0  0
  -25.9061  -34.9416   23.5077 C   0  0  0  0  0  0
  -16.5359  -29.9081   23.6327 C   0  0  0  0  0  0
  -16.7278  -28.6500   23.0353 C   0  0  0  0  0  0
  -26.4504  -31.6561   25.0696 C   0  0  0  0  0  0
  -25.3719  -31.3726   26.1416 C   0  0  0  0  0  0
  -27.0364  -30.2971   24.6223 C   0  0  0  0  0  0
  -27.6040  -32.4322   25.7478 C   0  0  0  0  0  0
  -27.5577  -37.1787   24.8463 C   0  0  0  0  0  0
  -21.4216  -29.3036   22.3635 N   0  0  0  0  0  0
  -26.4285  -37.3752   23.9412 N   0  0  0  0  0  0
  -24.7020  -31.0406   22.0883 N   0  0  0  0  0  0
  -23.4198  -28.8116   23.3004 O   0  0  0  0  0  0
  -28.3522  -26.3507   20.2586 O   0  0  0  0  0  0
  -26.5650  -34.8909   22.4657 O   0  0  0  0  0  0
  -23.5485  -32.1319   23.7175 O   0  0  0  0  0  0
  -28.2325  -21.5404   21.9087 C   0  0  0  0  0  0
  -29.2075  -20.0842   20.7293 C   0  0  0  0  0  0
  -31.1704  -18.6148   21.4538 C   0  0  0  0  0  0
  -30.6550  -18.8222   19.0380 C   0  0  0  0  0  0
  -27.8118  -23.5821   20.4283 C   0  0  0  0  0  0
  -29.2070  -17.2831   20.4510 C   0  0  0  0  0  0
  -28.5062  -24.9096   19.7825 C   0  0  0  0  0  0
  -30.0184  -18.7104   20.4370 C   0  0  0  0  0  0
  -28.6425  -20.2664   21.9632 N   0  0  0  0  0  0
  -29.1048  -21.2313   19.9592 N   0  0  0  0  0  0
  -28.4604  -22.2018   20.7658 N   0  0  0  0  0  0
  -29.6781  -15.8515   20.8655 N   0  0  0  0  0  0
  -31.4873  -12.6530   19.1859 H   0  0  0  0  0  0
  -30.4229  -11.5155   19.9594 H   0  0  0  0  0  0
  -29.8175  -11.7632   17.5358 H   0  0  0  0  0  0
  -29.6424  -13.4886   17.7332 H   0  0  0  0  0  0
  -27.9032  -11.2958   18.9016 H   0  0  0  0  0  0
  -27.3948  -12.5532   17.8050 H   0  0  0  0  0  0
  -27.6487  -14.2595   19.5016 H   0  0  0  0  0  0
  -28.7415  -12.1256   21.3984 H   0  0  0  0  0  0
  -28.4047  -13.7736   21.8435 H   0  0  0  0  0  0
  -25.2775   -9.5683   22.4748 H   0  0  0  0  0  0
  -24.0009   -7.4639   22.7471 H   0  0  0  0  0  0
  -21.0844   -8.8785   19.8964 H   0  0  0  0  0  0
  -22.3706  -10.9677   19.6163 H   0  0  0  0  0  0
  -21.2012   -7.6144   23.9710 H   0  0  0  0  0  0
  -21.1486   -6.0520   25.9074 H   0  0  0  0  0  0
  -22.0598   -2.7607   23.2838 H   0  0  0  0  0  0
  -22.4090  -11.9899   22.4835 H   0  0  0  0  0  0
  -21.1088  -13.1248   22.2603 H   0  0  0  0  0  0
  -24.6508  -15.8430   20.5178 H   0  0  0  0  0  0
  -26.2675  -15.6333   20.0747 H   0  0  0  0  0  0
  -26.7217  -32.5343   23.1012 H   0  0  0  0  0  0
  -25.0047  -33.9630   25.0337 H   0  0  0  0  0  0
  -22.7339  -31.2880   21.3779 H   0  0  0  0  0  0
  -23.3752  -35.9602   23.3291 H   0  0  0  0  0  0
  -24.3584  -36.8914   22.2062 H   0  0  0  0  0  0
  -23.7244  -37.6466   23.6686 H   0  0  0  0  0  0
  -26.1239  -31.5033   20.6006 H   0  0  0  0  0  0
  -26.8559  -30.7990   22.0090 H   0  0  0  0  0  0
  -28.1169  -28.8907   21.2172 H   0  0  0  0  0  0
  -25.9896  -25.8383   19.0401 H   0  0  0  0  0  0
  -23.9915  -27.2626   19.0052 H   0  0  0  0  0  0
  -23.7804  -30.5570   19.3903 H   0  0  0  0  0  0
  -22.7733  -29.2187   19.8501 H   0  0  0  0  0  0
  -25.1301  -36.1879   25.0817 H   0  0  0  0  0  0
  -20.9997  -28.3286   24.1374 H   0  0  0  0  0  0
  -20.5640  -26.2313   23.3627 H   0  0  0  0  0  0
  -21.6637  -26.7401   22.1223 H   0  0  0  0  0  0
  -19.6904  -25.6278   21.1251 H   0  0  0  0  0  0
  -19.6690  -27.3173   20.6735 H   0  0  0  0  0  0
  -17.4198  -26.6674   21.4025 H   0  0  0  0  0  0
  -18.0327  -26.0070   22.9018 H   0  0  0  0  0  0
  -19.7945  -30.7270   24.2255 H   0  0  0  0  0  0
  -17.5023  -31.6265   24.5159 H   0  0  0  0  0  0
  -15.5358  -30.2983   23.7651 H   0  0  0  0  0  0
  -15.8679  -28.0814   22.7072 H   0  0  0  0  0  0
  -24.5891  -30.7077   25.7751 H   0  0  0  0  0  0
  -24.8914  -32.2898   26.4829 H   0  0  0  0  0  0
  -25.8029  -30.8913   27.0202 H   0  0  0  0  0  0
  -26.2961  -29.6698   24.1244 H   0  0  0  0  0  0
  -27.4025  -29.7260   25.4765 H   0  0  0  0  0  0
  -27.8844  -30.4233   23.9488 H   0  0  0  0  0  0
  -27.2630  -33.3627   26.2028 H   0  0  0  0  0  0
  -28.3864  -32.6874   25.0320 H   0  0  0  0  0  0
  -28.0696  -31.8470   26.5419 H   0  0  0  0  0  0
  -28.2579  -38.0097   24.7511 H   0  0  0  0  0  0
  -28.1083  -36.2625   24.6279 H   0  0  0  0  0  0
  -27.2300  -37.1426   25.8867 H   0  0  0  0  0  0
  -20.9407  -29.8764   21.6839 H   0  0  0  0  0  0
  -26.0156  -38.2821   24.1415 H   0  0  0  0  0  0
  -27.6844  -21.9916   22.7250 H   0  0  0  0  0  0
  -31.8031  -19.5020   21.4204 H   0  0  0  0  0  0
  -31.8046  -17.7491   21.2618 H   0  0  0  0  0  0
  -30.7873  -18.5224   22.4706 H   0  0  0  0  0  0
  -31.3291  -19.6766   18.9713 H   0  0  0  0  0  0
  -29.8910  -18.9507   18.2703 H   0  0  0  0  0  0
  -31.2298  -17.9301   18.7879 H   0  0  0  0  0  0
  -26.9306  -23.3613   19.8257 H   0  0  0  0  0  0
  -27.3848  -23.9323   21.3681 H   0  0  0  0  0  0
  -28.6747  -17.1830   19.5043 H   0  0  0  0  0  0
  -28.4029  -17.4563   21.1672 H   0  0  0  0  0  0
  -28.3039  -24.9041   18.7113 H   0  0  0  0  0  0
  -29.5799  -24.7311   19.8453 H   0  0  0  0  0  0
  -28.9404  -15.4235   21.4052 H   0  0  0  0  0  0
  1 25  1  0  0  0
  1 30  2  0  0  0
  1 82  1  0  0  0
  2  3  1  0  0  0
  2 25  1  0  0  0
  2 83  1  0  0  0
  2 84  1  0  0  0
  3  4  1  0  0  0
  3 85  1  0  0  0
  3 86  1  0  0  0
  4  5  1  0  0  0
  4 87  1  0  0  0
  4 88  1  0  0  0
  5  6  1  0  0  0
  5 26  1  0  0  0
  5 89  1  0  0  0
  6 25  1  0  0  0
  6 90  1  0  0  0
  6 91  1  0  0  0
  7  8  2  0  0  0
  7 26  1  0  0  0
  7 29  1  0  0  0
  8  9  1  0  0  0
  8 22  1  0  0  0
  9 10  1  0  0  0
  9 27  2  0  0  0
 10 11  2  0  0  0
 10 15  1  0  0  0
 11 12  1  0  0  0
 11 92  1  0  0  0
 12 13  2  0  0  0
 12 93  1  0  0  0
 13 14  1  0  0  0
 13 31  1  0  0  0
 14 15  2  0  0  0
 14 94  1  0  0  0
 15 95  1  0  0  0
 16 17  2  0  0  0
 16 21  1  0  0  0
 16 31  1  0  0  0
 17 18  1  0  0  0
 17 96  1  0  0  0
 18 19  2  0  0  0
 18 97  1  0  0  0
 19 20  1  0  0  0
 19 24  1  0  0  0
 20 21  2  0  0  0
 20 98  1  0  0  0
 21 23  1  0  0  0
 22 28  1  0  0  0
 22 32  2  0  0  0
 26 27  1  0  0  0
 28 99  1  0  0  0
 28100  1  0  0  0
 29101  1  0  0  0
 29102  1  0  0  0
 33 34  1  0  0  0
 33 66  1  0  0  0
 33 70  2  0  0  0
 34 36  1  0  0  0
 34 59  1  0  0  0
 34103  1  0  0  0
 35 44  2  0  0  0
 35 45  1  0  0  0
 35 68  1  0  0  0
 36 56  1  0  0  0
 36104  1  0  0  0
 37 39  1  0  0  0
 37 47  1  0  0  0
 37 66  1  0  0  0
 37105  1  0  0  0
 38 43  2  0  0  0
 38 46  1  0  0  0
 38 47  1  0  0  0
 39 64  1  0  0  0
 39 67  2  0  0  0
 40 52  1  0  0  0
 40 53  2  0  0  0
 40 58  1  0  0  0
 41106  1  0  0  0
 41107  1  0  0  0
 41108  1  0  0  0
 41 48  1  0  0  0
 42 43  1  0  0  0
 42 66  1  0  0  0
 42109  1  0  0  0
 42110  1  0  0  0
 43 44  1  0  0  0
 44111  1  0  0  0
 45 46  2  0  0  0
 45112  1  0  0  0
 46113  1  0  0  0
 47114  1  0  0  0
 47115  1  0  0  0
 48 56  1  0  0  0
 48 65  1  0  0  0
 48116  1  0  0  0
 49 50  1  0  0  0
 49 53  1  0  0  0
 49 64  1  0  0  0
 49117  1  0  0  0
 50 51  1  0  0  0
 50118  1  0  0  0
 50119  1  0  0  0
 51 52  1  0  0  0
 51120  1  0  0  0
 51121  1  0  0  0
 52122  1  0  0  0
 52123  1  0  0  0
 53 54  1  0  0  0
 54 55  2  0  0  0
 54124  1  0  0  0
 55 57  1  0  0  0
 55125  1  0  0  0
 56 69  2  0  0  0
 57 58  2  0  0  0
 57126  1  0  0  0
 58127  1  0  0  0
 59 60  1  0  0  0
 59 61  1  0  0  0
 59 62  1  0  0  0
 60128  1  0  0  0
 60129  1  0  0  0
 60130  1  0  0  0
 61131  1  0  0  0
 61132  1  0  0  0
 61133  1  0  0  0
 62134  1  0  0  0
 62135  1  0  0  0
 62136  1  0  0  0
 63 65  1  0  0  0
 63137  1  0  0  0
 63138  1  0  0  0
 63139  1  0  0  0
 64140  1  0  0  0
 65141  1  0  0  0
 68 77  1  0  0  0
 71 79  2  0  0  0
 71 81  1  0  0  0
 71142  1  0  0  0
 72 78  1  0  0  0
 72 79  1  0  0  0
 72 80  2  0  0  0
 73143  1  0  0  0
 73144  1  0  0  0
 73145  1  0  0  0
 73 78  1  0  0  0
 74 78  1  0  0  0
 74146  1  0  0  0
 74147  1  0  0  0
 74148  1  0  0  0
 75 77  1  0  0  0
 75 81  1  0  0  0
 75149  1  0  0  0
 75150  1  0  0  0
 76 78  1  0  0  0
 76 82  1  0  0  0
 76151  1  0  0  0
 76152  1  0  0  0
 77153  1  0  0  0
 77154  1  0  0  0
 80 81  1  0  0  0
 82155  1  0  0  0
M  ISO  4   1 100  68 101  77 101  82 100
M  END
> <chiral flag>
0

> <version>
0

> <s_m_source_file>
/data/baiqing/PycharmProjects/Reinvent-master-3.2/result/LINK_invent/BTK/process_docking_weight1_custom_sum_contain_oxygen_bond_distance_aromatic_linkinvent_7_9_3/rearranged_h_0057.sdf

> <i_m_source_file_index>
57

> <r_mmod_Potential_Energy-OPLS-2005>
318.052703857422

> <r_mmod_Stretch_Energy-OPLS-2005>
177.050201416016

> <r_mmod_Bend_Energy-OPLS-2005>
308.052001953125

> <r_mmod_Torsional_Energy-OPLS-2005>
236.35285949707

> <r_mmod_Improper_Torsional_Energy-OPLS-2005>
7.97626876831055

> <r_mmod_Van_der_Waal_Energy-OPLS-2005>
106.590835571289

> <r_mmod_Electrostatic_Energy-OPLS-2005>
-403.880676269531

> <r_mmod_Solvation_Energy-OPLS-2005>
-233.167327880859

> <b_mmod_Minimization_Converged-OPLS-2005>
0

> <r_mmod_RMS_Derivative-OPLS-2005>
1.07706046104431

$$$$
57
                    3D
 Structure written by MMmdl.
153161  0  0  1  0            999 V2000
  -30.5126  -15.0035   20.5242 C   0  0  0  0  0  0
  -30.4423  -12.6307   19.5247 C   0  0  0  0  0  0
  -29.5367  -12.6082   18.2683 C   0  0  0  0  0  0
  -28.0678  -12.3688   18.6647 C   0  0  0  0  0  0
  -27.6369  -13.2616   19.8577 C   0  0  2  0  0  0
  -28.6772  -13.2650   21.0058 C   0  0  0  0  0  0
  -25.2481  -13.8227   20.5741 C   0  0  0  0  0  0
  -24.1813  -13.0452   20.9188 C   0  0  0  0  0  0
  -24.6435  -11.6943   20.8732 C   0  0  0  0  0  0
  -23.9082  -10.4301   21.0382 C   0  0  0  0  0  0
  -24.3642   -9.4235   21.9177 C   0  0  0  0  0  0
  -23.6333   -8.2258   22.0760 C   0  0  0  0  0  0
  -22.4316   -8.0257   21.3524 C   0  0  0  0  0  0
  -21.9913   -9.0232   20.4658 C   0  0  0  0  0  0
  -22.7224  -10.2126   20.3062 C   0  0  0  0  0  0
  -21.6868   -6.0720   22.5252 C   0  0  0  0  0  0
  -21.4019   -6.5628   23.8181 C   0  0  0  0  0  0
  -21.3699   -5.6788   24.9156 C   0  0  0  0  0  0
  -21.6056   -4.3044   24.7203 C   0  0  0  0  0  0
  -21.8845   -3.8132   23.4327 C   0  0  0  0  0  0
  -21.9209   -4.6946   22.3386 C   0  0  0  0  0  0
  -22.7839  -13.5197   21.1835 C   0  0  0  0  0  0
  -22.1688   -4.2146   21.0964 F   0  0  0  0  0  0
  -21.5652   -3.4541   25.7718 F   0  0  0  0  0  0
  -29.9545  -13.7157   20.4369 N   0  0  0  0  0  0
  -26.2945  -12.9507   20.3321 N   0  0  0  0  0  0
  -25.9384  -11.6604   20.5733 N   0  0  0  0  0  0
  -22.0479  -12.8194   22.0415 N   0  0  0  0  0  0
  -25.4142  -15.1988   20.4248 N   0  0  0  0  0  0
  -31.6641  -15.1070   20.0753 O   0  0  0  0  0  0
  -21.6670   -6.8866   21.4213 O   0  0  0  0  0  0
  -22.3516  -14.5495   20.6668 O   0  0  0  0  0  0
  -24.6438  -31.8418   23.1843 C   0  0  0  0  0  0
  -25.9216  -32.4668   23.8226 C   0  0  1  0  0  0
  -27.2018  -27.1135   20.1765 C   0  0  0  0  0  0
  -25.5966  -33.8484   24.2121 N   0  0  0  0  0  0
  -23.4454  -30.4671   21.5277 C   0  0  2  0  0  0
  -24.8886  -28.8836   20.1096 C   0  0  0  0  0  0
  -22.7558  -29.4553   22.4777 C   0  0  0  0  0  0
  -18.0326  -28.1370   22.8475 C   0  0  0  0  0  0
  -24.1475  -36.7273   23.2637 C   0  0  0  0  0  0
  -26.0011  -30.7114   21.3820 C   0  0  0  0  0  0
  -26.0681  -29.3205   20.7271 C   0  0  0  0  0  0
  -27.2288  -28.4546   20.7361 C   0  0  0  0  0  0
  -25.9923  -26.7727   19.5334 C   0  0  0  0  0  0
  -24.8616  -27.6218   19.5026 C   0  0  0  0  0  0
  -23.6698  -29.7975   20.1452 C   0  0  0  0  0  0
  -25.4129  -36.3013   24.0269 C   0  0  1  0  0  0
  -20.5961  -28.3720   23.1196 C   0  0  2  0  0  0
  -20.6791  -26.9405   22.5390 C   0  0  0  0  0  0
  -19.5749  -26.6351   21.5203 C   0  0  0  0  0  0
  -18.1947  -26.7913   22.1624 C   0  0  0  0  0  0
  -19.1594  -28.8873   23.2826 C   0  0  0  0  0  0
  -18.9494  -30.1476   23.8847 C   0  0  0  0  0  0
  -17.6494  -30.6577   24.0581 C   0  0  0  0  0  0
  -25.9077  -34.9395   23.5006 C   0  0  0  0  0  0
  -16.5393  -29.9074   23.6341 C   0  0  0  0  0  0
  -16.7324  -28.6496   23.0358 C   0  0  0  0  0  0
  -26.4545  -31.6593   25.0728 C   0  0  0  0  0  0
  -25.3712  -31.3857   26.1427 C   0  0  0  0  0  0
  -27.0414  -30.2977   24.6350 C   0  0  0  0  0  0
  -27.5987  -32.4463   25.7558 C   0  0  0  0  0  0
  -27.5569  -37.1773   24.8441 C   0  0  0  0  0  0
  -21.4238  -29.3062   22.3538 N   0  0  0  0  0  0
  -26.4274  -37.3742   23.9400 N   0  0  0  0  0  0
  -24.7164  -31.0298   22.0867 N   0  0  0  0  0  0
  -23.4226  -28.8093   23.2902 O   0  0  0  0  0  0
  -28.2510  -26.1193   20.2770 O   0  0  0  0  0  0
  -26.5666  -34.8909   22.4584 O   0  0  0  0  0  0
  -23.5564  -32.1303   23.7077 O   0  0  0  0  0  0
  -29.2609  -20.1951   20.5460 C   0  0  0  0  0  0
  -29.7642  -17.9452   20.7370 C   0  0  0  0  0  0
  -30.1906  -16.2823   22.7151 C   0  0  0  0  0  0
  -28.2728  -18.9711   22.5684 C   0  0  0  0  0  0
  -28.4281  -21.6360   20.5432 C   0  0  0  0  0  0
  -28.9541  -23.2507   20.5612 C   0  0  0  0  0  0
  -27.9580  -24.5810   20.2015 C   0  0  0  0  0  0
  -29.7738  -16.3468   21.2286 C   0  0  2  0  0  0
  -30.1089  -19.8400   19.5601 N   0  0  0  0  0  0
  -30.4283  -18.4619   19.6845 N   0  0  0  0  0  0
  -29.0645  -19.0358   21.3358 N   0  0  0  0  0  0
  -31.4875  -12.7759   19.2427 H   0  0  0  0  0  0
  -30.4005  -11.6577   20.0187 H   0  0  0  0  0  0
  -29.8797  -11.8560   17.5551 H   0  0  0  0  0  0
  -29.6239  -13.5696   17.7563 H   0  0  0  0  0  0
  -27.9584  -11.3148   18.9190 H   0  0  0  0  0  0
  -27.4160  -12.5523   17.8081 H   0  0  0  0  0  0
  -27.5975  -14.2775   19.4629 H   0  0  0  0  0  0
  -28.7799  -12.2734   21.4470 H   0  0  0  0  0  0
  -28.3665  -13.9178   21.8204 H   0  0  0  0  0  0
  -25.2811   -9.5770   22.4742 H   0  0  0  0  0  0
  -24.0108   -7.4657   22.7457 H   0  0  0  0  0  0
  -21.0863   -8.8710   19.8951 H   0  0  0  0  0  0
  -22.3653  -10.9664   19.6189 H   0  0  0  0  0  0
  -21.2005   -7.6139   23.9689 H   0  0  0  0  0  0
  -21.1517   -6.0506   25.9056 H   0  0  0  0  0  0
  -22.0604   -2.7591   23.2802 H   0  0  0  0  0  0
  -22.4073  -11.9891   22.4920 H   0  0  0  0  0  0
  -21.1068  -13.1196   22.2505 H   0  0  0  0  0  0
  -24.6392  -15.8393   20.5457 H   0  0  0  0  0  0
  -26.2650  -15.6587   20.1316 H   0  0  0  0  0  0
  -26.7291  -32.5260   23.0945 H   0  0  0  0  0  0
  -25.0153  -33.9578   25.0300 H   0  0  0  0  0  0
  -22.7508  -31.2961   21.3761 H   0  0  0  0  0  0
  -23.3725  -35.9603   23.3271 H   0  0  0  0  0  0
  -24.3542  -36.8967   22.2052 H   0  0  0  0  0  0
  -23.7232  -37.6447   23.6749 H   0  0  0  0  0  0
  -26.1595  -31.4635   20.6057 H   0  0  0  0  0  0
  -26.8683  -30.7625   22.0262 H   0  0  0  0  0  0
  -28.1274  -28.7842   21.2368 H   0  0  0  0  0  0
  -25.8777  -25.7965   19.0864 H   0  0  0  0  0  0
  -23.9491  -27.2692   19.0425 H   0  0  0  0  0  0
  -23.8167  -30.5760   19.3940 H   0  0  0  0  0  0
  -22.7782  -29.2509   19.8281 H   0  0  0  0  0  0
  -25.1305  -36.1815   25.0753 H   0  0  0  0  0  0
  -21.0083  -28.3337   24.1305 H   0  0  0  0  0  0
  -20.5650  -26.2339   23.3624 H   0  0  0  0  0  0
  -21.6649  -26.7338   22.1213 H   0  0  0  0  0  0
  -19.6885  -25.6241   21.1254 H   0  0  0  0  0  0
  -19.6694  -27.3154   20.6734 H   0  0  0  0  0  0
  -17.4208  -26.6707   21.4026 H   0  0  0  0  0  0
  -18.0330  -26.0041   22.9001 H   0  0  0  0  0  0
  -19.7993  -30.7311   24.2136 H   0  0  0  0  0  0
  -17.5069  -31.6229   24.5201 H   0  0  0  0  0  0
  -15.5401  -30.2971   23.7646 H   0  0  0  0  0  0
  -15.8730  -28.0797   22.7069 H   0  0  0  0  0  0
  -24.5789  -30.7325   25.7800 H   0  0  0  0  0  0
  -24.9049  -32.3095   26.4870 H   0  0  0  0  0  0
  -25.7968  -30.9010   27.0214 H   0  0  0  0  0  0
  -26.3058  -29.6706   24.1299 H   0  0  0  0  0  0
  -27.3947  -29.7299   25.4969 H   0  0  0  0  0  0
  -27.9003  -30.4207   23.9731 H   0  0  0  0  0  0
  -27.2423  -33.3744   26.2049 H   0  0  0  0  0  0
  -28.3837  -32.7086   25.0458 H   0  0  0  0  0  0
  -28.0601  -31.8689   26.5558 H   0  0  0  0  0  0
  -28.2527  -38.0126   24.7540 H   0  0  0  0  0  0
  -28.1099  -36.2646   24.6197 H   0  0  0  0  0  0
  -27.2277  -37.1350   25.8835 H   0  0  0  0  0  0
  -20.9414  -29.8859   21.6799 H   0  0  0  0  0  0
  -26.0110  -38.2767   24.1518 H   0  0  0  0  0  0
  -29.3825  -16.6018   23.3708 H   0  0  0  0  0  0
  -31.0619  -16.9042   22.9163 H   0  0  0  0  0  0
  -30.4358  -15.2718   23.0393 H   0  0  0  0  0  0
  -27.6961  -19.8806   22.7433 H   0  0  0  0  0  0
  -28.9306  -18.8514   23.4306 H   0  0  0  0  0  0
  -27.5732  -18.1365   22.5352 H   0  0  0  0  0  0
  -27.6563  -21.5698   21.3159 H   0  0  0  0  0  0
  -27.8488  -21.5786   19.6223 H   0  0  0  0  0  0
  -29.8159  -23.3208   19.8959 H   0  0  0  0  0  0
  -29.3701  -23.4266   21.5547 H   0  0  0  0  0  0
  -27.0613  -24.4328   20.8036 H   0  0  0  0  0  0
  -27.6340  -24.4127   19.1712 H   0  0  0  0  0  0
  -28.7200  -16.0804   21.1875 H   0  0  0  0  0  0
  1 25  1  0  0  0
  1 30  2  0  0  0
  1 78  1  0  0  0
  2  3  1  0  0  0
  2 25  1  0  0  0
  2 82  1  0  0  0
  2 83  1  0  0  0
  3  4  1  0  0  0
  3 84  1  0  0  0
  3 85  1  0  0  0
  4  5  1  0  0  0
  4 86  1  0  0  0
  4 87  1  0  0  0
  5  6  1  0  0  0
  5 26  1  0  0  0
  5 88  1  0  0  0
  6 25  1  0  0  0
  6 89  1  0  0  0
  6 90  1  0  0  0
  7  8  2  0  0  0
  7 26  1  0  0  0
  7 29  1  0  0  0
  8  9  1  0  0  0
  8 22  1  0  0  0
  9 10  1  0  0  0
  9 27  2  0  0  0
 10 11  2  0  0  0
 10 15  1  0  0  0
 11 12  1  0  0  0
 11 91  1  0  0  0
 12 13  2  0  0  0
 12 92  1  0  0  0
 13 14  1  0  0  0
 13 31  1  0  0  0
 14 15  2  0  0  0
 14 93  1  0  0  0
 15 94  1  0  0  0
 16 17  2  0  0  0
 16 21  1  0  0  0
 16 31  1  0  0  0
 17 18  1  0  0  0
 17 95  1  0  0  0
 18 19  2  0  0  0
 18 96  1  0  0  0
 19 20  1  0  0  0
 19 24  1  0  0  0
 20 21  2  0  0  0
 20 97  1  0  0  0
 21 23  1  0  0  0
 22 28  1  0  0  0
 22 32  2  0  0  0
 26 27  1  0  0  0
 28 98  1  0  0  0
 28 99  1  0  0  0
 29100  1  0  0  0
 29101  1  0  0  0
 33 34  1  0  0  0
 33 66  1  0  0  0
 33 70  2  0  0  0
 34 36  1  0  0  0
 34 59  1  0  0  0
 34102  1  0  0  0
 35 44  2  0  0  0
 35 45  1  0  0  0
 35 68  1  0  0  0
 36 56  1  0  0  0
 36103  1  0  0  0
 37 39  1  0  0  0
 37 47  1  0  0  0
 37 66  1  0  0  0
 37104  1  0  0  0
 38 43  2  0  0  0
 38 46  1  0  0  0
 38 47  1  0  0  0
 39 64  1  0  0  0
 39 67  2  0  0  0
 40 52  1  0  0  0
 40 53  2  0  0  0
 40 58  1  0  0  0
 41105  1  0  0  0
 41106  1  0  0  0
 41107  1  0  0  0
 41 48  1  0  0  0
 42 43  1  0  0  0
 42 66  1  0  0  0
 42108  1  0  0  0
 42109  1  0  0  0
 43 44  1  0  0  0
 44110  1  0  0  0
 45 46  2  0  0  0
 45111  1  0  0  0
 46112  1  0  0  0
 47113  1  0  0  0
 47114  1  0  0  0
 48 56  1  0  0  0
 48 65  1  0  0  0
 48115  1  0  0  0
 49 50  1  0  0  0
 49 53  1  0  0  0
 49 64  1  0  0  0
 49116  1  0  0  0
 50 51  1  0  0  0
 50117  1  0  0  0
 50118  1  0  0  0
 51 52  1  0  0  0
 51119  1  0  0  0
 51120  1  0  0  0
 52121  1  0  0  0
 52122  1  0  0  0
 53 54  1  0  0  0
 54 55  2  0  0  0
 54123  1  0  0  0
 55 57  1  0  0  0
 55124  1  0  0  0
 56 69  2  0  0  0
 57 58  2  0  0  0
 57125  1  0  0  0
 58126  1  0  0  0
 59 60  1  0  0  0
 59 61  1  0  0  0
 59 62  1  0  0  0
 60127  1  0  0  0
 60128  1  0  0  0
 60129  1  0  0  0
 61130  1  0  0  0
 61131  1  0  0  0
 61132  1  0  0  0
 62133  1  0  0  0
 62134  1  0  0  0
 62135  1  0  0  0
 63 65  1  0  0  0
 63136  1  0  0  0
 63137  1  0  0  0
 63138  1  0  0  0
 64139  1  0  0  0
 65140  1  0  0  0
 68 77  1  0  0  0
 71 75  1  0  0  0
 71 79  2  0  0  0
 71 81  1  0  0  0
 72 78  1  0  0  0
 72 80  2  0  0  0
 72 81  1  0  0  0
 73141  1  0  0  0
 73142  1  0  0  0
 73143  1  0  0  0
 73 78  1  0  0  0
 74 81  1  0  0  0
 74144  1  0  0  0
 74145  1  0  0  0
 74146  1  0  0  0
 75 76  1  0  0  0
 75147  1  0  0  0
 75148  1  0  0  0
 76 77  1  0  0  0
 76149  1  0  0  0
 76150  1  0  0  0
 77151  1  0  0  0
 77152  1  0  0  0
 78153  1  0  0  0
 79 80  1  0  0  0
M  ISO  4   1 100  68 101  77 101  78 100
M  END
> <chiral flag>
0

> <version>
0

> <s_m_source_file>
/data/baiqing/PycharmProjects/Reinvent-master-3.2/result/LINK_invent/BTK/process_docking_weight1_custom_sum_contain_oxygen_bond_distance_aromatic_linkinvent_7_9_3/rearranged_h_0057.sdf

> <i_m_source_file_index>
58

> <r_mmod_Potential_Energy-OPLS-2005>
594.869995117188

> <r_mmod_Stretch_Energy-OPLS-2005>
313.279144287109

> <r_mmod_Bend_Energy-OPLS-2005>
311.070556640625

> <r_mmod_Torsional_Energy-OPLS-2005>
183.261871337891

> <r_mmod_Improper_Torsional_Energy-OPLS-2005>
3.39852809906006

> <r_mmod_Van_der_Waal_Energy-OPLS-2005>
108.230812072754

> <r_mmod_Electrostatic_Energy-OPLS-2005>
-303.021148681641

> <r_mmod_Solvation_Energy-OPLS-2005>
-243.483169555664

> <b_mmod_Minimization_Converged-OPLS-2005>
0

> <r_mmod_RMS_Derivative-OPLS-2005>
6.71301317214966

$$$$
58
                    3D
 Structure written by MMmdl.
157165  0  0  1  0            999 V2000
  -30.5302  -14.9122   20.3684 C   0  0  0  0  0  0
  -30.4372  -12.5363   19.4879 C   0  0  0  0  0  0
  -29.5180  -12.4299   18.2465 C   0  0  0  0  0  0
  -28.0319  -12.3067   18.6505 C   0  0  0  0  0  0
  -27.6209  -13.2340   19.8271 C   0  0  2  0  0  0
  -28.6743  -13.2542   20.9547 C   0  0  0  0  0  0
  -25.2465  -13.8216   20.5720 C   0  0  0  0  0  0
  -24.1767  -13.0448   20.9200 C   0  0  0  0  0  0
  -24.6354  -11.6925   20.8770 C   0  0  0  0  0  0
  -23.9034  -10.4332   21.0436 C   0  0  0  0  0  0
  -24.3593   -9.4268   21.9232 C   0  0  0  0  0  0
  -23.6289   -8.2286   22.0780 C   0  0  0  0  0  0
  -22.4272   -8.0310   21.3552 C   0  0  0  0  0  0
  -21.9885   -9.0288   20.4663 C   0  0  0  0  0  0
  -22.7191  -10.2188   20.3094 C   0  0  0  0  0  0
  -21.6870   -6.0750   22.5259 C   0  0  0  0  0  0
  -21.4018   -6.5655   23.8186 C   0  0  0  0  0  0
  -21.3668   -5.6811   24.9148 C   0  0  0  0  0  0
  -21.6051   -4.3068   24.7213 C   0  0  0  0  0  0
  -21.8821   -3.8160   23.4328 C   0  0  0  0  0  0
  -21.9211   -4.6977   22.3382 C   0  0  0  0  0  0
  -22.7805  -13.5259   21.1868 C   0  0  0  0  0  0
  -22.1682   -4.2161   21.0950 F   0  0  0  0  0  0
  -21.5634   -3.4545   25.7735 F   0  0  0  0  0  0
  -29.9419  -13.6536   20.3338 N   0  0  0  0  0  0
  -26.2852  -12.9397   20.3249 N   0  0  0  0  0  0
  -25.9270  -11.6539   20.5761 N   0  0  0  0  0  0
  -22.0464  -12.8256   22.0433 N   0  0  0  0  0  0
  -25.4154  -15.1963   20.4197 N   0  0  0  0  0  0
  -31.7629  -14.9768   20.2673 O   0  0  0  0  0  0
  -21.6665   -6.8881   21.4212 O   0  0  0  0  0  0
  -22.3497  -14.5570   20.6700 O   0  0  0  0  0  0
  -24.6418  -31.8483   23.1903 C   0  0  0  0  0  0
  -25.9189  -32.4731   23.8313 C   0  0  1  0  0  0
  -27.2137  -27.1624   20.1658 C   0  0  0  0  0  0
  -25.5939  -33.8540   24.2222 N   0  0  0  0  0  0
  -23.4468  -30.4656   21.5339 C   0  0  2  0  0  0
  -24.8986  -28.9001   20.1100 C   0  0  0  0  0  0
  -22.7555  -29.4574   22.4862 C   0  0  0  0  0  0
  -18.0306  -28.1410   22.8484 C   0  0  0  0  0  0
  -24.1484  -36.7259   23.2635 C   0  0  0  0  0  0
  -26.0026  -30.7292   21.3911 C   0  0  0  0  0  0
  -26.0742  -29.3437   20.7321 C   0  0  0  0  0  0
  -27.2381  -28.4900   20.7408 C   0  0  0  0  0  0
  -26.0218  -26.8177   19.4959 C   0  0  0  0  0  0
  -24.8841  -27.6494   19.4765 C   0  0  0  0  0  0
  -23.6741  -29.7969   20.1528 C   0  0  0  0  0  0
  -25.4118  -36.3059   24.0314 C   0  0  1  0  0  0
  -20.5919  -28.3750   23.1224 C   0  0  2  0  0  0
  -20.6798  -26.9449   22.5410 C   0  0  0  0  0  0
  -19.5769  -26.6390   21.5226 C   0  0  0  0  0  0
  -18.1945  -26.7950   22.1631 C   0  0  0  0  0  0
  -19.1566  -28.8895   23.2850 C   0  0  0  0  0  0
  -18.9479  -30.1480   23.8885 C   0  0  0  0  0  0
  -17.6480  -30.6607   24.0563 C   0  0  0  0  0  0
  -25.9061  -34.9432   23.5084 C   0  0  0  0  0  0
  -16.5371  -29.9097   23.6347 C   0  0  0  0  0  0
  -16.7294  -28.6519   23.0370 C   0  0  0  0  0  0
  -26.4505  -31.6591   25.0754 C   0  0  0  0  0  0
  -25.3680  -31.3768   26.1442 C   0  0  0  0  0  0
  -27.0367  -30.2978   24.6358 C   0  0  0  0  0  0
  -27.6054  -32.4347   25.7534 C   0  0  0  0  0  0
  -27.5589  -37.1770   24.8442 C   0  0  0  0  0  0
  -21.4255  -29.3069   22.3592 N   0  0  0  0  0  0
  -26.4282  -37.3769   23.9416 N   0  0  0  0  0  0
  -24.7163  -31.0350   22.0938 N   0  0  0  0  0  0
  -23.4205  -28.8127   23.3007 O   0  0  0  0  0  0
  -28.2407  -26.1607   20.2120 O   0  0  0  0  0  0
  -26.5664  -34.8918   22.4668 O   0  0  0  0  0  0
  -23.5533  -32.1358   23.7108 O   0  0  0  0  0  0
  -29.0534  -22.4599   21.5688 C   0  0  0  0  0  0
  -28.5137  -23.2953   20.5346 C   0  0  0  0  0  0
  -28.3296  -22.5020   19.3659 C   0  0  0  0  0  0
  -29.1653  -20.4429   20.3045 C   0  0  0  0  0  0
  -27.6895  -23.1097   18.1322 C   0  0  0  0  0  0
  -31.3019  -19.1092   19.7478 C   0  0  0  0  0  0
  -29.3013  -16.1916   18.7068 C   0  0  0  0  0  0
  -27.8794  -24.7891   20.8160 C   0  0  0  0  0  0
  -29.5506  -17.4875   20.7813 C   0  0  0  0  0  0
  -29.7916  -18.9479   19.9819 C   0  0  1  0  0  0
  -29.3872  -21.1160   21.4491 N   0  0  0  0  0  0
  -28.6594  -21.1574   19.2710 N   0  0  0  0  0  0
  -29.7324  -16.0677   20.1061 N   0  0  0  0  0  0
  -31.4723  -12.6924   19.1792 H   0  0  0  0  0  0
  -30.4324  -11.5995   20.0515 H   0  0  0  0  0  0
  -29.7900  -11.5534   17.6562 H   0  0  0  0  0  0
  -29.6728  -13.2737   17.5780 H   0  0  0  0  0  0
  -27.8679  -11.2679   18.9352 H   0  0  0  0  0  0
  -27.3921  -12.4833   17.7859 H   0  0  0  0  0  0
  -27.5662  -14.2343   19.4075 H   0  0  0  0  0  0
  -28.7599  -12.2756   21.4291 H   0  0  0  0  0  0
  -28.3918  -13.9589   21.7393 H   0  0  0  0  0  0
  -25.2737   -9.5766   22.4802 H   0  0  0  0  0  0
  -24.0040   -7.4675   22.7478 H   0  0  0  0  0  0
  -21.0843   -8.8768   19.8933 H   0  0  0  0  0  0
  -22.3647  -10.9729   19.6202 H   0  0  0  0  0  0
  -21.1999   -7.6157   23.9664 H   0  0  0  0  0  0
  -21.1487   -6.0558   25.9038 H   0  0  0  0  0  0
  -22.0593   -2.7618   23.2817 H   0  0  0  0  0  0
  -22.4103  -11.9907   22.4798 H   0  0  0  0  0  0
  -21.1062  -13.1255   22.2592 H   0  0  0  0  0  0
  -24.6487  -15.8486   20.5410 H   0  0  0  0  0  0
  -26.2733  -15.6459   20.1275 H   0  0  0  0  0  0
  -26.7265  -32.5342   23.1061 H   0  0  0  0  0  0
  -25.0034  -33.9684   25.0333 H   0  0  0  0  0  0
  -22.7497  -31.2922   21.3773 H   0  0  0  0  0  0
  -23.3785  -35.9543   23.3235 H   0  0  0  0  0  0
  -24.3580  -36.8959   22.2059 H   0  0  0  0  0  0
  -23.7184  -37.6409   23.6719 H   0  0  0  0  0  0
  -26.1639  -31.4871   20.6241 H   0  0  0  0  0  0
  -26.8707  -30.7733   22.0382 H   0  0  0  0  0  0
  -28.1347  -28.8264   21.2422 H   0  0  0  0  0  0
  -25.9532  -25.8576   19.0046 H   0  0  0  0  0  0
  -23.9876  -27.3095   18.9778 H   0  0  0  0  0  0
  -23.8078  -30.5726   19.3977 H   0  0  0  0  0  0
  -22.7927  -29.2336   19.8420 H   0  0  0  0  0  0
  -25.1303  -36.1896   25.0803 H   0  0  0  0  0  0
  -21.0024  -28.3350   24.1342 H   0  0  0  0  0  0
  -20.5709  -26.2364   23.3633 H   0  0  0  0  0  0
  -21.6658  -26.7464   22.1198 H   0  0  0  0  0  0
  -19.6927  -25.6293   21.1272 H   0  0  0  0  0  0
  -19.6704  -27.3190   20.6737 H   0  0  0  0  0  0
  -17.4221  -26.6712   21.4023 H   0  0  0  0  0  0
  -18.0330  -26.0104   22.9034 H   0  0  0  0  0  0
  -19.7944  -30.7304   24.2256 H   0  0  0  0  0  0
  -17.5021  -31.6284   24.5167 H   0  0  0  0  0  0
  -15.5370  -30.2993   23.7664 H   0  0  0  0  0  0
  -15.8697  -28.0814   22.7118 H   0  0  0  0  0  0
  -24.5868  -30.7130   25.7727 H   0  0  0  0  0  0
  -24.8878  -32.2948   26.4836 H   0  0  0  0  0  0
  -25.7953  -30.8940   27.0242 H   0  0  0  0  0  0
  -26.2994  -29.6706   24.1346 H   0  0  0  0  0  0
  -27.3912  -29.7289   25.4962 H   0  0  0  0  0  0
  -27.8929  -30.4190   23.9728 H   0  0  0  0  0  0
  -27.2665  -33.3646   26.2108 H   0  0  0  0  0  0
  -28.3865  -32.6911   25.0367 H   0  0  0  0  0  0
  -28.0727  -31.8483   26.5452 H   0  0  0  0  0  0
  -28.2542  -38.0133   24.7610 H   0  0  0  0  0  0
  -28.1163  -36.2682   24.6133 H   0  0  0  0  0  0
  -27.2328  -37.1235   25.8842 H   0  0  0  0  0  0
  -20.9470  -29.8744   21.6744 H   0  0  0  0  0  0
  -26.0152  -38.2819   24.1499 H   0  0  0  0  0  0
  -29.1812  -22.8723   22.5607 H   0  0  0  0  0  0
  -28.1386  -24.0770   17.9095 H   0  0  0  0  0  0
  -26.6213  -23.2558   18.2874 H   0  0  0  0  0  0
  -27.8182  -22.4755   17.2560 H   0  0  0  0  0  0
  -31.5024  -19.8854   19.0088 H   0  0  0  0  0  0
  -31.7610  -18.1869   19.3918 H   0  0  0  0  0  0
  -31.8085  -19.3904   20.6720 H   0  0  0  0  0  0
  -28.3407  -16.7001   18.6367 H   0  0  0  0  0  0
  -29.1868  -15.2418   18.1931 H   0  0  0  0  0  0
  -30.0290  -16.7627   18.1265 H   0  0  0  0  0  0
  -28.0097  -24.9427   21.8890 H   0  0  0  0  0  0
  -26.8056  -24.6361   20.7157 H   0  0  0  0  0  0
  -28.5106  -17.4899   21.1148 H   0  0  0  0  0  0
  -30.1285  -17.4991   21.7060 H   0  0  0  0  0  0
  -29.3654  -18.7846   18.9927 H   0  0  0  0  0  0
  1 25  1  0  0  0
  1 30  2  0  0  0
  1 83  1  0  0  0
  2  3  1  0  0  0
  2 25  1  0  0  0
  2 84  1  0  0  0
  2 85  1  0  0  0
  3  4  1  0  0  0
  3 86  1  0  0  0
  3 87  1  0  0  0
  4  5  1  0  0  0
  4 88  1  0  0  0
  4 89  1  0  0  0
  5  6  1  0  0  0
  5 26  1  0  0  0
  5 90  1  0  0  0
  6 25  1  0  0  0
  6 91  1  0  0  0
  6 92  1  0  0  0
  7  8  2  0  0  0
  7 26  1  0  0  0
  7 29  1  0  0  0
  8  9  1  0  0  0
  8 22  1  0  0  0
  9 10  1  0  0  0
  9 27  2  0  0  0
 10 11  2  0  0  0
 10 15  1  0  0  0
 11 12  1  0  0  0
 11 93  1  0  0  0
 12 13  2  0  0  0
 12 94  1  0  0  0
 13 14  1  0  0  0
 13 31  1  0  0  0
 14 15  2  0  0  0
 14 95  1  0  0  0
 15 96  1  0  0  0
 16 17  2  0  0  0
 16 21  1  0  0  0
 16 31  1  0  0  0
 17 18  1  0  0  0
 17 97  1  0  0  0
 18 19  2  0  0  0
 18 98  1  0  0  0
 19 20  1  0  0  0
 19 24  1  0  0  0
 20 21  2  0  0  0
 20 99  1  0  0  0
 21 23  1  0  0  0
 22 28  1  0  0  0
 22 32  2  0  0  0
 26 27  1  0  0  0
 28100  1  0  0  0
 28101  1  0  0  0
 29102  1  0  0  0
 29103  1  0  0  0
 33 34  1  0  0  0
 33 66  1  0  0  0
 33 70  2  0  0  0
 34 36  1  0  0  0
 34 59  1  0  0  0
 34104  1  0  0  0
 35 44  2  0  0  0
 35 45  1  0  0  0
 35 68  1  0  0  0
 36 56  1  0  0  0
 36105  1  0  0  0
 37 39  1  0  0  0
 37 47  1  0  0  0
 37 66  1  0  0  0
 37106  1  0  0  0
 38 43  2  0  0  0
 38 46  1  0  0  0
 38 47  1  0  0  0
 39 64  1  0  0  0
 39 67  2  0  0  0
 40 52  1  0  0  0
 40 53  2  0  0  0
 40 58  1  0  0  0
 41107  1  0  0  0
 41108  1  0  0  0
 41109  1  0  0  0
 41 48  1  0  0  0
 42 43  1  0  0  0
 42 66  1  0  0  0
 42110  1  0  0  0
 42111  1  0  0  0
 43 44  1  0  0  0
 44112  1  0  0  0
 45 46  2  0  0  0
 45113  1  0  0  0
 46114  1  0  0  0
 47115  1  0  0  0
 47116  1  0  0  0
 48 56  1  0  0  0
 48 65  1  0  0  0
 48117  1  0  0  0
 49 50  1  0  0  0
 49 53  1  0  0  0
 49 64  1  0  0  0
 49118  1  0  0  0
 50 51  1  0  0  0
 50119  1  0  0  0
 50120  1  0  0  0
 51 52  1  0  0  0
 51121  1  0  0  0
 51122  1  0  0  0
 52123  1  0  0  0
 52124  1  0  0  0
 53 54  1  0  0  0
 54 55  2  0  0  0
 54125  1  0  0  0
 55 57  1  0  0  0
 55126  1  0  0  0
 56 69  2  0  0  0
 57 58  2  0  0  0
 57127  1  0  0  0
 58128  1  0  0  0
 59 60  1  0  0  0
 59 61  1  0  0  0
 59 62  1  0  0  0
 60129  1  0  0  0
 60130  1  0  0  0
 60131  1  0  0  0
 61132  1  0  0  0
 61133  1  0  0  0
 61134  1  0  0  0
 62135  1  0  0  0
 62136  1  0  0  0
 62137  1  0  0  0
 63 65  1  0  0  0
 63138  1  0  0  0
 63139  1  0  0  0
 63140  1  0  0  0
 64141  1  0  0  0
 65142  1  0  0  0
 68 78  1  0  0  0
 71 72  2  0  0  0
 71 81  1  0  0  0
 71143  1  0  0  0
 72 73  1  0  0  0
 72 78  1  0  0  0
 73 75  1  0  0  0
 73 82  2  0  0  0
 74 80  1  0  0  0
 74 81  2  0  0  0
 74 82  1  0  0  0
 75144  1  0  0  0
 75145  1  0  0  0
 75146  1  0  0  0
 76147  1  0  0  0
 76148  1  0  0  0
 76149  1  0  0  0
 76 80  1  0  0  0
 77 83  1  0  0  0
 77150  1  0  0  0
 77151  1  0  0  0
 77152  1  0  0  0
 78153  1  0  0  0
 78154  1  0  0  0
 79 80  1  0  0  0
 79 83  1  0  0  0
 79155  1  0  0  0
 79156  1  0  0  0
 80157  1  0  0  0
M  ISO  4   1 100  68 101  78 101  83 100
M  END
> <chiral flag>
0

> <version>
0

> <s_m_source_file>
/data/baiqing/PycharmProjects/Reinvent-master-3.2/result/LINK_invent/BTK/process_docking_weight1_custom_sum_contain_oxygen_bond_distance_aromatic_linkinvent_7_9_3/rearranged_h_0057.sdf

> <i_m_source_file_index>
59

> <r_mmod_Potential_Energy-OPLS-2005>
253.605377197266

> <r_mmod_Stretch_Energy-OPLS-2005>
217.609252929688

> <r_mmod_Bend_Energy-OPLS-2005>
269.122802734375

> <r_mmod_Torsional_Energy-OPLS-2005>
336.889892578125

> <r_mmod_Improper_Torsional_Energy-OPLS-2005>
17.3245010375977

> <r_mmod_Van_der_Waal_Energy-OPLS-2005>
136.6220703125

> <r_mmod_Electrostatic_Energy-OPLS-2005>
-684.915466308594

> <r_mmod_Solvation_Energy-OPLS-2005>
-220.553283691406

> <b_mmod_Minimization_Converged-OPLS-2005>
0

> <r_mmod_RMS_Derivative-OPLS-2005>
3.91787052154541

$$$$
59
                    3D
 Structure written by MMmdl.
166174  0  0  1  0            999 V2000
  -30.6874  -14.5715   20.5882 C   0  0  0  0  0  0
  -30.4305  -12.3870   19.4271 C   0  0  0  0  0  0
  -29.4974  -12.5225   18.2048 C   0  0  0  0  0  0
  -28.0161  -12.3707   18.6111 C   0  0  0  0  0  0
  -27.6547  -13.1997   19.8719 C   0  0  2  0  0  0
  -28.7025  -12.9582   20.9772 C   0  0  0  0  0  0
  -25.2551  -13.8132   20.5627 C   0  0  0  0  0  0
  -24.1816  -13.0422   20.9181 C   0  0  0  0  0  0
  -24.6370  -11.6887   20.8737 C   0  0  0  0  0  0
  -23.9042  -10.4278   21.0406 C   0  0  0  0  0  0
  -24.3604   -9.4195   21.9185 C   0  0  0  0  0  0
  -23.6283   -8.2232   22.0756 C   0  0  0  0  0  0
  -22.4268   -8.0268   21.3549 C   0  0  0  0  0  0
  -21.9895   -9.0235   20.4653 C   0  0  0  0  0  0
  -22.7215  -10.2118   20.3052 C   0  0  0  0  0  0
  -21.6847   -6.0724   22.5279 C   0  0  0  0  0  0
  -21.4012   -6.5631   23.8210 C   0  0  0  0  0  0
  -21.3660   -5.6786   24.9171 C   0  0  0  0  0  0
  -21.6047   -4.3048   24.7225 C   0  0  0  0  0  0
  -21.8825   -3.8139   23.4344 C   0  0  0  0  0  0
  -21.9197   -4.6955   22.3398 C   0  0  0  0  0  0
  -22.7842  -13.5235   21.1840 C   0  0  0  0  0  0
  -22.1657   -4.2137   21.0973 F   0  0  0  0  0  0
  -21.5636   -3.4534   25.7738 F   0  0  0  0  0  0
  -30.0044  -13.3839   20.4372 N   0  0  0  0  0  0
  -26.2977  -12.9282   20.3339 N   0  0  0  0  0  0
  -25.9289  -11.6458   20.5760 N   0  0  0  0  0  0
  -22.0468  -12.8246   22.0397 N   0  0  0  0  0  0
  -25.4245  -15.1845   20.3951 N   0  0  0  0  0  0
  -31.8308  -14.6629   20.1287 O   0  0  0  0  0  0
  -21.6640   -6.8860   21.4237 O   0  0  0  0  0  0
  -22.3535  -14.5537   20.6671 O   0  0  0  0  0  0
  -24.6196  -31.8642   23.2057 C   0  0  0  0  0  0
  -25.9073  -32.4806   23.8368 C   0  0  1  0  0  0
  -27.2331  -27.3878   20.1133 C   0  0  0  0  0  0
  -25.5924  -33.8612   24.2307 N   0  0  0  0  0  0
  -23.4099  -30.4852   21.5475 C   0  0  2  0  0  0
  -24.8554  -28.9365   20.1206 C   0  0  0  0  0  0
  -22.7428  -29.4647   22.4983 C   0  0  0  0  0  0
  -18.0277  -28.1378   22.8494 C   0  0  0  0  0  0
  -24.1486  -36.7306   23.2641 C   0  0  0  0  0  0
  -25.9418  -30.8152   21.3628 C   0  0  0  0  0  0
  -26.0177  -29.4427   20.7157 C   0  0  0  0  0  0
  -27.2111  -28.6787   20.7010 C   0  0  0  0  0  0
  -26.0538  -26.8988   19.5169 C   0  0  0  0  0  0
  -24.8698  -27.6658   19.5158 C   0  0  0  0  0  0
  -23.6209  -29.8115   20.1650 C   0  0  0  0  0  0
  -25.4108  -36.3105   24.0338 C   0  0  1  0  0  0
  -20.5870  -28.3670   23.1316 C   0  0  2  0  0  0
  -20.6770  -26.9404   22.5419 C   0  0  0  0  0  0
  -19.5749  -26.6384   21.5221 C   0  0  0  0  0  0
  -18.1925  -26.7926   22.1628 C   0  0  0  0  0  0
  -19.1528  -28.8840   23.2902 C   0  0  0  0  0  0
  -18.9455  -30.1450   23.8905 C   0  0  0  0  0  0
  -17.6455  -30.6585   24.0565 C   0  0  0  0  0  0
  -25.9043  -34.9476   23.5116 C   0  0  0  0  0  0
  -16.5346  -29.9086   23.6330 C   0  0  0  0  0  0
  -16.7268  -28.6503   23.0348 C   0  0  0  0  0  0
  -26.4473  -31.6603   25.0716 C   0  0  0  0  0  0
  -25.3732  -31.3723   26.1462 C   0  0  0  0  0  0
  -27.0305  -30.3047   24.6103 C   0  0  0  0  0  0
  -27.6044  -32.4324   25.7478 C   0  0  0  0  0  0
  -27.5577  -37.1806   24.8466 C   0  0  0  0  0  0
  -21.4155  -29.3038   22.3722 N   0  0  0  0  0  0
  -26.4288  -37.3799   23.9418 N   0  0  0  0  0  0
  -24.6761  -31.0699   22.0973 N   0  0  0  0  0  0
  -23.4180  -28.8193   23.3049 O   0  0  0  0  0  0
  -28.4016  -26.6480   20.0517 O   0  0  0  0  0  0
  -26.5597  -34.8938   22.4675 O   0  0  0  0  0  0
  -23.5376  -32.1406   23.7430 O   0  0  0  0  0  0
  -29.0642  -19.4965   18.6893 C   0  0  0  0  0  0
  -28.8702  -20.1384   19.8883 C   0  0  0  0  0  0
  -29.9643  -18.1782   20.2497 C   0  0  0  0  0  0
  -30.8139  -17.9836   16.6995 C   0  0  0  0  0  0
  -28.9151  -16.4860   17.4870 C   0  0  0  0  0  0
  -28.9234  -15.8074   21.9540 C   0  0  0  0  0  0
  -28.1009  -21.4287   20.1804 C   0  0  0  0  0  0
  -30.7463  -17.0592   20.9493 C   0  0  0  0  0  0
  -28.9090  -22.7684   20.2536 C   0  0  0  0  0  0
  -28.0918  -24.0789   19.9241 C   0  0  0  0  0  0
  -28.4632  -25.3675   20.7327 C   0  0  0  0  0  0
  -30.1294  -17.3256   17.9088 C   0  0  0  0  0  0
  -29.7400  -18.3206   18.9289 N   0  0  0  0  0  0
  -29.4463  -19.2908   20.8228 N   0  3  0  0  0  0
  -30.0569  -15.7270   21.0221 N   0  0  0  0  0  0
  -31.4677  -12.5106   19.1112 H   0  0  0  0  0  0
  -30.3773  -11.3766   19.8356 H   0  0  0  0  0  0
  -29.7546  -11.7778   17.4495 H   0  0  0  0  0  0
  -29.6518  -13.4945   17.7358 H   0  0  0  0  0  0
  -27.8315  -11.3126   18.7978 H   0  0  0  0  0  0
  -27.3674  -12.6462   17.7787 H   0  0  0  0  0  0
  -27.6948  -14.2479   19.5836 H   0  0  0  0  0  0
  -28.7319  -11.8924   21.2105 H   0  0  0  0  0  0
  -28.4297  -13.3969   21.9289 H   0  0  0  0  0  0
  -25.2747   -9.5680   22.4764 H   0  0  0  0  0  0
  -23.9992   -7.4630   22.7479 H   0  0  0  0  0  0
  -21.0827   -8.8751   19.8961 H   0  0  0  0  0  0
  -22.3668  -10.9657   19.6165 H   0  0  0  0  0  0
  -21.1988   -7.6138   23.9710 H   0  0  0  0  0  0
  -21.1482   -6.0513   25.9078 H   0  0  0  0  0  0
  -22.0606   -2.7600   23.2849 H   0  0  0  0  0  0
  -22.4056  -11.9903   22.4798 H   0  0  0  0  0  0
  -21.1084  -13.1294   22.2580 H   0  0  0  0  0  0
  -24.6575  -15.8388   20.5014 H   0  0  0  0  0  0
  -26.2706  -15.6201   20.0529 H   0  0  0  0  0  0
  -26.7142  -32.5482   23.1129 H   0  0  0  0  0  0
  -25.0116  -33.9779   25.0474 H   0  0  0  0  0  0
  -22.7023  -31.3042   21.4040 H   0  0  0  0  0  0
  -23.3758  -35.9631   23.3301 H   0  0  0  0  0  0
  -24.3577  -36.8914   22.2055 H   0  0  0  0  0  0
  -23.7228  -37.6508   23.6650 H   0  0  0  0  0  0
  -26.0564  -31.5752   20.5887 H   0  0  0  0  0  0
  -26.8309  -30.8721   21.9796 H   0  0  0  0  0  0
  -28.1126  -29.0741   21.1478 H   0  0  0  0  0  0
  -26.0517  -25.9310   19.0355 H   0  0  0  0  0  0
  -23.9795  -27.2690   19.0491 H   0  0  0  0  0  0
  -23.7365  -30.5848   19.4047 H   0  0  0  0  0  0
  -22.7436  -29.2347   19.8678 H   0  0  0  0  0  0
  -25.1284  -36.1966   25.0830 H   0  0  0  0  0  0
  -20.9958  -28.3228   24.1440 H   0  0  0  0  0  0
  -20.5686  -26.2274   23.3605 H   0  0  0  0  0  0
  -21.6635  -26.7454   22.1198 H   0  0  0  0  0  0
  -19.6906  -25.6300   21.1243 H   0  0  0  0  0  0
  -19.6688  -27.3203   20.6761 H   0  0  0  0  0  0
  -17.4198  -26.6688   21.4025 H   0  0  0  0  0  0
  -18.0309  -26.0063   22.9017 H   0  0  0  0  0  0
  -19.7934  -30.7269   24.2265 H   0  0  0  0  0  0
  -17.5015  -31.6269   24.5165 H   0  0  0  0  0  0
  -15.5350  -30.2993   23.7653 H   0  0  0  0  0  0
  -15.8665  -28.0836   22.7051 H   0  0  0  0  0  0
  -24.5919  -30.7048   25.7808 H   0  0  0  0  0  0
  -24.8909  -32.2880   26.4895 H   0  0  0  0  0  0
  -25.8083  -30.8913   27.0234 H   0  0  0  0  0  0
  -26.2849  -29.6817   24.1147 H   0  0  0  0  0  0
  -27.4067  -29.7277   25.4563 H   0  0  0  0  0  0
  -27.8687  -30.4372   23.9258 H   0  0  0  0  0  0
  -27.2665  -33.3629   26.2057 H   0  0  0  0  0  0
  -28.3848  -32.6875   25.0297 H   0  0  0  0  0  0
  -28.0717  -31.8446   26.5392 H   0  0  0  0  0  0
  -28.2596  -38.0105   24.7526 H   0  0  0  0  0  0
  -28.1068  -36.2638   24.6263 H   0  0  0  0  0  0
  -27.2300  -37.1417   25.8871 H   0  0  0  0  0  0
  -20.9313  -29.8747   21.6927 H   0  0  0  0  0  0
  -26.0173  -38.2876   24.1423 H   0  0  0  0  0  0
  -28.7570  -19.7865   17.6935 H   0  0  0  0  0  0
  -31.1822  -17.2262   16.0070 H   0  0  0  0  0  0
  -31.6703  -18.5848   17.0077 H   0  0  0  0  0  0
  -30.1333  -18.6278   16.1430 H   0  0  0  0  0  0
  -29.2006  -15.7141   16.7718 H   0  0  0  0  0  0
  -28.1436  -17.1008   17.0220 H   0  0  0  0  0  0
  -28.4661  -15.9896   18.3455 H   0  0  0  0  0  0
  -29.1032  -15.1946   22.8378 H   0  0  0  0  0  0
  -27.9901  -15.5162   21.4797 H   0  0  0  0  0  0
  -28.7504  -16.8156   22.3303 H   0  0  0  0  0  0
  -27.5344  -21.3005   21.1036 H   0  0  0  0  0  0
  -27.3465  -21.5257   19.3986 H   0  0  0  0  0  0
  -30.9632  -17.4096   21.9589 H   0  0  0  0  0  0
  -31.7177  -17.0270   20.4541 H   0  0  0  0  0  0
  -29.7398  -22.7171   19.5482 H   0  0  0  0  0  0
  -29.3695  -22.8385   21.2398 H   0  0  0  0  0  0
  -27.0272  -23.8916   20.0720 H   0  0  0  0  0  0
  -28.2025  -24.2851   18.8589 H   0  0  0  0  0  0
  -29.4988  -25.2727   21.0601 H   0  0  0  0  0  0
  -27.8765  -25.4066   21.6520 H   0  0  0  0  0  0
  -30.8645  -16.6556   18.3516 H   0  0  0  0  0  0
  -29.4723  -19.4749   21.8193 H   0  0  0  0  0  0
  1 25  1  0  0  0
  1 30  2  0  0  0
  1 85  1  0  0  0
  2  3  1  0  0  0
  2 25  1  0  0  0
  2 86  1  0  0  0
  2 87  1  0  0  0
  3  4  1  0  0  0
  3 88  1  0  0  0
  3 89  1  0  0  0
  4  5  1  0  0  0
  4 90  1  0  0  0
  4 91  1  0  0  0
  5  6  1  0  0  0
  5 26  1  0  0  0
  5 92  1  0  0  0
  6 25  1  0  0  0
  6 93  1  0  0  0
  6 94  1  0  0  0
  7  8  2  0  0  0
  7 26  1  0  0  0
  7 29  1  0  0  0
  8  9  1  0  0  0
  8 22  1  0  0  0
  9 10  1  0  0  0
  9 27  2  0  0  0
 10 11  2  0  0  0
 10 15  1  0  0  0
 11 12  1  0  0  0
 11 95  1  0  0  0
 12 13  2  0  0  0
 12 96  1  0  0  0
 13 14  1  0  0  0
 13 31  1  0  0  0
 14 15  2  0  0  0
 14 97  1  0  0  0
 15 98  1  0  0  0
 16 17  2  0  0  0
 16 21  1  0  0  0
 16 31  1  0  0  0
 17 18  1  0  0  0
 17 99  1  0  0  0
 18 19  2  0  0  0
 18100  1  0  0  0
 19 20  1  0  0  0
 19 24  1  0  0  0
 20 21  2  0  0  0
 20101  1  0  0  0
 21 23  1  0  0  0
 22 28  1  0  0  0
 22 32  2  0  0  0
 26 27  1  0  0  0
 28102  1  0  0  0
 28103  1  0  0  0
 29104  1  0  0  0
 29105  1  0  0  0
 33 34  1  0  0  0
 33 66  1  0  0  0
 33 70  2  0  0  0
 34 36  1  0  0  0
 34 59  1  0  0  0
 34106  1  0  0  0
 35 44  2  0  0  0
 35 45  1  0  0  0
 35 68  1  0  0  0
 36 56  1  0  0  0
 36107  1  0  0  0
 37 39  1  0  0  0
 37 47  1  0  0  0
 37 66  1  0  0  0
 37108  1  0  0  0
 38 43  2  0  0  0
 38 46  1  0  0  0
 38 47  1  0  0  0
 39 64  1  0  0  0
 39 67  2  0  0  0
 40 52  1  0  0  0
 40 53  2  0  0  0
 40 58  1  0  0  0
 41109  1  0  0  0
 41110  1  0  0  0
 41111  1  0  0  0
 41 48  1  0  0  0
 42 43  1  0  0  0
 42 66  1  0  0  0
 42112  1  0  0  0
 42113  1  0  0  0
 43 44  1  0  0  0
 44114  1  0  0  0
 45 46  2  0  0  0
 45115  1  0  0  0
 46116  1  0  0  0
 47117  1  0  0  0
 47118  1  0  0  0
 48 56  1  0  0  0
 48 65  1  0  0  0
 48119  1  0  0  0
 49 50  1  0  0  0
 49 53  1  0  0  0
 49 64  1  0  0  0
 49120  1  0  0  0
 50 51  1  0  0  0
 50121  1  0  0  0
 50122  1  0  0  0
 51 52  1  0  0  0
 51123  1  0  0  0
 51124  1  0  0  0
 52125  1  0  0  0
 52126  1  0  0  0
 53 54  1  0  0  0
 54 55  2  0  0  0
 54127  1  0  0  0
 55 57  1  0  0  0
 55128  1  0  0  0
 56 69  2  0  0  0
 57 58  2  0  0  0
 57129  1  0  0  0
 58130  1  0  0  0
 59 60  1  0  0  0
 59 61  1  0  0  0
 59 62  1  0  0  0
 60131  1  0  0  0
 60132  1  0  0  0
 60133  1  0  0  0
 61134  1  0  0  0
 61135  1  0  0  0
 61136  1  0  0  0
 62137  1  0  0  0
 62138  1  0  0  0
 62139  1  0  0  0
 63 65  1  0  0  0
 63140  1  0  0  0
 63141  1  0  0  0
 63142  1  0  0  0
 64143  1  0  0  0
 65144  1  0  0  0
 68 81  1  0  0  0
 71 72  2  0  0  0
 71 83  1  0  0  0
 71145  1  0  0  0
 72 77  1  0  0  0
 72 84  1  0  0  0
 73 78  1  0  0  0
 73 83  1  0  0  0
 73 84  2  0  0  0
 74146  1  0  0  0
 74147  1  0  0  0
 74148  1  0  0  0
 74 82  1  0  0  0
 75 82  1  0  0  0
 75149  1  0  0  0
 75150  1  0  0  0
 75151  1  0  0  0
 76 85  1  0  0  0
 76152  1  0  0  0
 76153  1  0  0  0
 76154  1  0  0  0
 77 79  1  0  0  0
 77155  1  0  0  0
 77156  1  0  0  0
 78 85  1  0  0  0
 78157  1  0  0  0
 78158  1  0  0  0
 79 80  1  0  0  0
 79159  1  0  0  0
 79160  1  0  0  0
 80 81  1  0  0  0
 80161  1  0  0  0
 80162  1  0  0  0
 81163  1  0  0  0
 81164  1  0  0  0
 82 83  1  0  0  0
 82165  1  0  0  0
 84166  1  0  0  0
M  CHG  1  84   1
M  ISO  4   1 100  68 101  81 101  85 100
M  END
> <chiral flag>
0

> <version>
0

> <s_m_source_file>
/data/baiqing/PycharmProjects/Reinvent-master-3.2/result/LINK_invent/BTK/process_docking_weight1_custom_sum_contain_oxygen_bond_distance_aromatic_linkinvent_7_9_3/rearranged_h_0057.sdf

> <i_m_source_file_index>
60

> <r_mmod_Potential_Energy-OPLS-2005>
86.0862579345703

> <r_mmod_Stretch_Energy-OPLS-2005>
59.3113059997559

> <r_mmod_Bend_Energy-OPLS-2005>
144.720764160156

> <r_mmod_Torsional_Energy-OPLS-2005>
297.938049316406

> <r_mmod_Improper_Torsional_Energy-OPLS-2005>
6.8288688659668

> <r_mmod_Van_der_Waal_Energy-OPLS-2005>
123.717819213867

> <r_mmod_Electrostatic_Energy-OPLS-2005>
-172.725051879883

> <r_mmod_Solvation_Energy-OPLS-2005>
-396.456146240234

> <b_mmod_Minimization_Converged-OPLS-2005>
0

> <r_mmod_RMS_Derivative-OPLS-2005>
1.57155704498291

$$$$
60
                    3D
 Structure written by MMmdl.
149157  0  0  1  0            999 V2000
  -30.5237  -15.0320   20.4153 C   0  0  0  0  0  0
  -30.4388  -12.6457   19.5149 C   0  0  0  0  0  0
  -29.5277  -12.5531   18.2681 C   0  0  0  0  0  0
  -28.0621  -12.3255   18.6796 C   0  0  0  0  0  0
  -27.6262  -13.2604   19.8375 C   0  0  2  0  0  0
  -28.6653  -13.3291   20.9776 C   0  0  0  0  0  0
  -25.2445  -13.8228   20.5711 C   0  0  0  0  0  0
  -24.1771  -13.0442   20.9235 C   0  0  0  0  0  0
  -24.6408  -11.6935   20.8763 C   0  0  0  0  0  0
  -23.9095  -10.4295   21.0415 C   0  0  0  0  0  0
  -24.3641   -9.4209   21.9195 C   0  0  0  0  0  0
  -23.6308   -8.2248   22.0760 C   0  0  0  0  0  0
  -22.4291   -8.0290   21.3550 C   0  0  0  0  0  0
  -21.9932   -9.0263   20.4654 C   0  0  0  0  0  0
  -22.7264  -10.2141   20.3069 C   0  0  0  0  0  0
  -21.6862   -6.0742   22.5277 C   0  0  0  0  0  0
  -21.4014   -6.5644   23.8212 C   0  0  0  0  0  0
  -21.3663   -5.6795   24.9173 C   0  0  0  0  0  0
  -21.6048   -4.3057   24.7222 C   0  0  0  0  0  0
  -21.8824   -3.8153   23.4342 C   0  0  0  0  0  0
  -21.9192   -4.6966   22.3401 C   0  0  0  0  0  0
  -22.7790  -13.5215   21.1872 C   0  0  0  0  0  0
  -22.1664   -4.2155   21.0976 F   0  0  0  0  0  0
  -21.5629   -3.4544   25.7734 F   0  0  0  0  0  0
  -29.9352  -13.7599   20.3775 N   0  0  0  0  0  0
  -26.2874  -12.9484   20.3237 N   0  0  0  0  0  0
  -25.9345  -11.6604   20.5739 N   0  0  0  0  0  0
  -22.0436  -12.8211   22.0435 N   0  0  0  0  0  0
  -25.4087  -15.1952   20.4117 N   0  0  0  0  0  0
  -31.7265  -15.0823   20.1337 O   0  0  0  0  0  0
  -21.6651   -6.8889   21.4246 O   0  0  0  0  0  0
  -22.3485  -14.5515   20.6704 O   0  0  0  0  0  0
  -24.6493  -31.8390   23.1862 C   0  0  0  0  0  0
  -25.9242  -32.4668   23.8261 C   0  0  1  0  0  0
  -27.2098  -27.0747   20.1519 C   0  0  0  0  0  0
  -25.5981  -33.8479   24.2173 N   0  0  0  0  0  0
  -23.4558  -30.4597   21.5324 C   0  0  2  0  0  0
  -24.9060  -28.8822   20.1092 C   0  0  0  0  0  0
  -22.7596  -29.4537   22.4842 C   0  0  0  0  0  0
  -18.0308  -28.1392   22.8478 C   0  0  0  0  0  0
  -24.1498  -36.7240   23.2643 C   0  0  0  0  0  0
  -26.0181  -30.6926   21.3964 C   0  0  0  0  0  0
  -26.0875  -29.2996   20.7351 C   0  0  0  0  0  0
  -27.2393  -28.4133   20.7402 C   0  0  0  0  0  0
  -26.0028  -26.7885   19.4713 C   0  0  0  0  0  0
  -24.8809  -27.6423   19.4601 C   0  0  0  0  0  0
  -23.6853  -29.7903   20.1525 C   0  0  0  0  0  0
  -25.4133  -36.3005   24.0305 C   0  0  1  0  0  0
  -20.5925  -28.3733   23.1226 C   0  0  2  0  0  0
  -20.6790  -26.9429   22.5407 C   0  0  0  0  0  0
  -19.5764  -26.6376   21.5219 C   0  0  0  0  0  0
  -18.1946  -26.7927   22.1626 C   0  0  0  0  0  0
  -19.1564  -28.8881   23.2837 C   0  0  0  0  0  0
  -18.9479  -30.1474   23.8866 C   0  0  0  0  0  0
  -17.6475  -30.6592   24.0553 C   0  0  0  0  0  0
  -25.9085  -34.9385   23.5043 C   0  0  0  0  0  0
  -16.5366  -29.9080   23.6340 C   0  0  0  0  0  0
  -16.7291  -28.6493   23.0370 C   0  0  0  0  0  0
  -26.4553  -31.6551   25.0723 C   0  0  0  0  0  0
  -25.3732  -31.3749   26.1415 C   0  0  0  0  0  0
  -27.0425  -30.2932   24.6352 C   0  0  0  0  0  0
  -27.6062  -32.4338   25.7520 C   0  0  0  0  0  0
  -27.5570  -37.1776   24.8463 C   0  0  0  0  0  0
  -21.4278  -29.3052   22.3589 N   0  0  0  0  0  0
  -26.4283  -37.3725   23.9402 N   0  0  0  0  0  0
  -24.7278  -31.0193   22.0925 N   0  0  0  0  0  0
  -23.4218  -28.8075   23.3005 O   0  0  0  0  0  0
  -28.2181  -26.0203   20.2366 O   0  0  0  0  0  0
  -26.5659  -34.8885   22.4617 O   0  0  0  0  0  0
  -23.5601  -32.1298   23.7047 O   0  0  0  0  0  0
  -28.0574  -21.7386   20.4892 C   0  0  0  0  0  0
  -28.5867  -23.0397   20.2687 C   0  0  0  0  0  0
  -27.6074  -18.6326   19.9562 C   0  0  0  0  0  0
  -27.7987  -24.5077   20.0460 C   0  0  0  0  0  0
  -30.0448  -17.8144   20.3787 C   0  0  0  0  0  0
  -28.9114  -19.0756   20.6378 C   0  0  2  0  0  0
  -29.9483  -22.7010   20.0727 N   0  0  0  0  0  0
  -30.1983  -21.3814   20.1911 N   0  0  0  0  0  0
  -29.0415  -20.6750   20.4099 N   0  0  0  0  0  0
  -29.7539  -16.2383   20.5667 N   0  0  0  0  0  0
  -31.4728  -12.8063   19.2074 H   0  0  0  0  0  0
  -30.4392  -11.7031   20.0637 H   0  0  0  0  0  0
  -29.8630  -11.7524   17.6072 H   0  0  0  0  0  0
  -29.6049  -13.4780   17.6942 H   0  0  0  0  0  0
  -27.9636  -11.2838   18.9843 H   0  0  0  0  0  0
  -27.4038  -12.4566   17.8196 H   0  0  0  0  0  0
  -27.5766  -14.2564   19.3952 H   0  0  0  0  0  0
  -28.7692  -12.3668   21.4814 H   0  0  0  0  0  0
  -28.3499  -14.0452   21.7382 H   0  0  0  0  0  0
  -25.2784   -9.5687   22.4777 H   0  0  0  0  0  0
  -24.0023   -7.4641   22.7479 H   0  0  0  0  0  0
  -21.0865   -8.8776   19.8957 H   0  0  0  0  0  0
  -22.3714  -10.9683   19.6184 H   0  0  0  0  0  0
  -21.2005   -7.6151   23.9720 H   0  0  0  0  0  0
  -21.1485   -6.0521   25.9077 H   0  0  0  0  0  0
  -22.0602   -2.7617   23.2834 H   0  0  0  0  0  0
  -22.4069  -11.9889   22.4830 H   0  0  0  0  0  0
  -21.1057  -13.1238   22.2643 H   0  0  0  0  0  0
  -24.6322  -15.8408   20.5026 H   0  0  0  0  0  0
  -26.2384  -15.6276   20.0288 H   0  0  0  0  0  0
  -26.7308  -32.5249   23.0979 H   0  0  0  0  0  0
  -25.0124  -33.9593   25.0316 H   0  0  0  0  0  0
  -22.7619  -31.2877   21.3756 H   0  0  0  0  0  0
  -23.3758  -35.9573   23.3288 H   0  0  0  0  0  0
  -24.3580  -36.8895   22.2060 H   0  0  0  0  0  0
  -23.7254  -37.6430   23.6702 H   0  0  0  0  0  0
  -26.1838  -31.4466   20.6262 H   0  0  0  0  0  0
  -26.8851  -30.7424   22.0434 H   0  0  0  0  0  0
  -28.1336  -28.7259   21.2603 H   0  0  0  0  0  0
  -25.8720  -25.8522   18.9528 H   0  0  0  0  0  0
  -23.9822  -27.3205   18.9515 H   0  0  0  0  0  0
  -23.8227  -30.5643   19.3971 H   0  0  0  0  0  0
  -22.7995  -29.2330   19.8419 H   0  0  0  0  0  0
  -25.1320  -36.1823   25.0793 H   0  0  0  0  0  0
  -21.0011  -28.3321   24.1348 H   0  0  0  0  0  0
  -20.5688  -26.2346   23.3635 H   0  0  0  0  0  0
  -21.6658  -26.7425   22.1198 H   0  0  0  0  0  0
  -19.6929  -25.6276   21.1274 H   0  0  0  0  0  0
  -19.6698  -27.3170   20.6734 H   0  0  0  0  0  0
  -17.4214  -26.6672   21.4025 H   0  0  0  0  0  0
  -18.0343  -26.0075   22.9029 H   0  0  0  0  0  0
  -19.7958  -30.7299   24.2222 H   0  0  0  0  0  0
  -17.5030  -31.6273   24.5145 H   0  0  0  0  0  0
  -15.5361  -30.2968   23.7683 H   0  0  0  0  0  0
  -15.8690  -28.0794   22.7118 H   0  0  0  0  0  0
  -24.5932  -30.7069   25.7742 H   0  0  0  0  0  0
  -24.8905  -32.2931   26.4772 H   0  0  0  0  0  0
  -25.8025  -30.8978   27.0234 H   0  0  0  0  0  0
  -26.3054  -29.6649   24.1342 H   0  0  0  0  0  0
  -27.3984  -29.7246   25.4955 H   0  0  0  0  0  0
  -27.8989  -30.4141   23.9718 H   0  0  0  0  0  0
  -27.2636  -33.3667   26.2013 H   0  0  0  0  0  0
  -28.3926  -32.6856   25.0391 H   0  0  0  0  0  0
  -28.0672  -31.8521   26.5516 H   0  0  0  0  0  0
  -28.2570  -38.0088   24.7501 H   0  0  0  0  0  0
  -28.1082  -36.2608   24.6303 H   0  0  0  0  0  0
  -27.2280  -37.1428   25.8865 H   0  0  0  0  0  0
  -20.9503  -29.8754   21.6743 H   0  0  0  0  0  0
  -26.0141  -38.2784   24.1417 H   0  0  0  0  0  0
  -27.0216  -21.4828   20.6705 H   0  0  0  0  0  0
  -27.3548  -17.6040   20.2076 H   0  0  0  0  0  0
  -27.6992  -18.7019   18.8724 H   0  0  0  0  0  0
  -26.7560  -19.2430   20.2573 H   0  0  0  0  0  0
  -26.8751  -24.4232   20.6205 H   0  0  0  0  0  0
  -27.4727  -24.4660   19.0080 H   0  0  0  0  0  0
  -30.4056  -17.9246   19.3562 H   0  0  0  0  0  0
  -30.9107  -18.0374   21.0029 H   0  0  0  0  0  0
  -28.7160  -19.0064   21.7092 H   0  0  0  0  0  0
  -28.7920  -16.0433   20.8008 H   0  0  0  0  0  0
  1 25  1  0  0  0
  1 30  2  0  0  0
  1 80  1  0  0  0
  2  3  1  0  0  0
  2 25  1  0  0  0
  2 81  1  0  0  0
  2 82  1  0  0  0
  3  4  1  0  0  0
  3 83  1  0  0  0
  3 84  1  0  0  0
  4  5  1  0  0  0
  4 85  1  0  0  0
  4 86  1  0  0  0
  5  6  1  0  0  0
  5 26  1  0  0  0
  5 87  1  0  0  0
  6 25  1  0  0  0
  6 88  1  0  0  0
  6 89  1  0  0  0
  7  8  2  0  0  0
  7 26  1  0  0  0
  7 29  1  0  0  0
  8  9  1  0  0  0
  8 22  1  0  0  0
  9 10  1  0  0  0
  9 27  2  0  0  0
 10 11  2  0  0  0
 10 15  1  0  0  0
 11 12  1  0  0  0
 11 90  1  0  0  0
 12 13  2  0  0  0
 12 91  1  0  0  0
 13 14  1  0  0  0
 13 31  1  0  0  0
 14 15  2  0  0  0
 14 92  1  0  0  0
 15 93  1  0  0  0
 16 17  2  0  0  0
 16 21  1  0  0  0
 16 31  1  0  0  0
 17 18  1  0  0  0
 17 94  1  0  0  0
 18 19  2  0  0  0
 18 95  1  0  0  0
 19 20  1  0  0  0
 19 24  1  0  0  0
 20 21  2  0  0  0
 20 96  1  0  0  0
 21 23  1  0  0  0
 22 28  1  0  0  0
 22 32  2  0  0  0
 26 27  1  0  0  0
 28 97  1  0  0  0
 28 98  1  0  0  0
 29 99  1  0  0  0
 29100  1  0  0  0
 33 34  1  0  0  0
 33 66  1  0  0  0
 33 70  2  0  0  0
 34 36  1  0  0  0
 34 59  1  0  0  0
 34101  1  0  0  0
 35 44  2  0  0  0
 35 45  1  0  0  0
 35 68  1  0  0  0
 36 56  1  0  0  0
 36102  1  0  0  0
 37 39  1  0  0  0
 37 47  1  0  0  0
 37 66  1  0  0  0
 37103  1  0  0  0
 38 43  2  0  0  0
 38 46  1  0  0  0
 38 47  1  0  0  0
 39 64  1  0  0  0
 39 67  2  0  0  0
 40 52  1  0  0  0
 40 53  2  0  0  0
 40 58  1  0  0  0
 41104  1  0  0  0
 41105  1  0  0  0
 41106  1  0  0  0
 41 48  1  0  0  0
 42 43  1  0  0  0
 42 66  1  0  0  0
 42107  1  0  0  0
 42108  1  0  0  0
 43 44  1  0  0  0
 44109  1  0  0  0
 45 46  2  0  0  0
 45110  1  0  0  0
 46111  1  0  0  0
 47112  1  0  0  0
 47113  1  0  0  0
 48 56  1  0  0  0
 48 65  1  0  0  0
 48114  1  0  0  0
 49 50  1  0  0  0
 49 53  1  0  0  0
 49 64  1  0  0  0
 49115  1  0  0  0
 50 51  1  0  0  0
 50116  1  0  0  0
 50117  1  0  0  0
 51 52  1  0  0  0
 51118  1  0  0  0
 51119  1  0  0  0
 52120  1  0  0  0
 52121  1  0  0  0
 53 54  1  0  0  0
 54 55  2  0  0  0
 54122  1  0  0  0
 55 57  1  0  0  0
 55123  1  0  0  0
 56 69  2  0  0  0
 57 58  2  0  0  0
 57124  1  0  0  0
 58125  1  0  0  0
 59 60  1  0  0  0
 59 61  1  0  0  0
 59 62  1  0  0  0
 60126  1  0  0  0
 60127  1  0  0  0
 60128  1  0  0  0
 61129  1  0  0  0
 61130  1  0  0  0
 61131  1  0  0  0
 62132  1  0  0  0
 62133  1  0  0  0
 62134  1  0  0  0
 63 65  1  0  0  0
 63135  1  0  0  0
 63136  1  0  0  0
 63137  1  0  0  0
 64138  1  0  0  0
 65139  1  0  0  0
 68 74  1  0  0  0
 71 72  2  0  0  0
 71 79  1  0  0  0
 71140  1  0  0  0
 72 74  1  0  0  0
 72 77  1  0  0  0
 73141  1  0  0  0
 73142  1  0  0  0
 73143  1  0  0  0
 73 76  1  0  0  0
 74144  1  0  0  0
 74145  1  0  0  0
 75 76  1  0  0  0
 75 80  1  0  0  0
 75146  1  0  0  0
 75147  1  0  0  0
 76 79  1  0  0  0
 76148  1  0  0  0
 77 78  2  0  0  0
 78 79  1  0  0  0
 80149  1  0  0  0
M  ISO  4   1 100  68 101  74 101  80 100
M  END
> <chiral flag>
0

> <version>
0

> <s_m_source_file>
/data/baiqing/PycharmProjects/Reinvent-master-3.2/result/LINK_invent/BTK/process_docking_weight1_custom_sum_contain_oxygen_bond_distance_aromatic_linkinvent_7_9_3/rearranged_h_0057.sdf

> <i_m_source_file_index>
61

> <r_mmod_Potential_Energy-OPLS-2005>
639.032409667969

> <r_mmod_Stretch_Energy-OPLS-2005>
321.468688964844

> <r_mmod_Bend_Energy-OPLS-2005>
319.923736572266

> <r_mmod_Torsional_Energy-OPLS-2005>
231.157409667969

> <r_mmod_Improper_Torsional_Energy-OPLS-2005>
5.50792694091797

> <r_mmod_Van_der_Waal_Energy-OPLS-2005>
112.28010559082

> <r_mmod_Electrostatic_Energy-OPLS-2005>
-365.843139648438

> <r_mmod_Solvation_Energy-OPLS-2005>
-243.892501831055

> <b_mmod_Minimization_Converged-OPLS-2005>
0

> <r_mmod_RMS_Derivative-OPLS-2005>
1.6250284910202

$$$$
61
                    3D
 Structure written by MMmdl.
151159  0  0  1  0            999 V2000
  -30.4599  -15.2277   20.3762 C   0  0  0  0  0  0
  -30.4374  -12.7852   19.5243 C   0  0  0  0  0  0
  -29.5353  -12.5685   18.2842 C   0  0  0  0  0  0
  -28.0814  -12.2982   18.7084 C   0  0  0  0  0  0
  -27.6126  -13.2710   19.8208 C   0  0  2  0  0  0
  -28.6446  -13.4382   20.9570 C   0  0  0  0  0  0
  -25.2408  -13.8245   20.5724 C   0  0  0  0  0  0
  -24.1754  -13.0443   20.9233 C   0  0  0  0  0  0
  -24.6396  -11.6930   20.8748 C   0  0  0  0  0  0
  -23.9100  -10.4298   21.0413 C   0  0  0  0  0  0
  -24.3650   -9.4211   21.9188 C   0  0  0  0  0  0
  -23.6319   -8.2250   22.0764 C   0  0  0  0  0  0
  -22.4297   -8.0294   21.3559 C   0  0  0  0  0  0
  -21.9935   -9.0260   20.4655 C   0  0  0  0  0  0
  -22.7273  -10.2135   20.3061 C   0  0  0  0  0  0
  -21.6855   -6.0753   22.5282 C   0  0  0  0  0  0
  -21.4009   -6.5649   23.8217 C   0  0  0  0  0  0
  -21.3658   -5.6799   24.9178 C   0  0  0  0  0  0
  -21.6047   -4.3062   24.7220 C   0  0  0  0  0  0
  -21.8820   -3.8159   23.4338 C   0  0  0  0  0  0
  -21.9185   -4.6982   22.3396 C   0  0  0  0  0  0
  -22.7776  -13.5208   21.1869 C   0  0  0  0  0  0
  -22.1660   -4.2166   21.0973 F   0  0  0  0  0  0
  -21.5627   -3.4545   25.7726 F   0  0  0  0  0  0
  -29.8827  -13.9305   20.3334 N   0  0  0  0  0  0
  -26.2827  -12.9497   20.3196 N   0  0  0  0  0  0
  -25.9329  -11.6616   20.5709 N   0  0  0  0  0  0
  -22.0425  -12.8204   22.0432 N   0  0  0  0  0  0
  -25.4060  -15.1974   20.4146 N   0  0  0  0  0  0
  -31.6813  -15.2131   20.1656 O   0  0  0  0  0  0
  -21.6650   -6.8897   21.4251 O   0  0  0  0  0  0
  -22.3454  -14.5503   20.6699 O   0  0  0  0  0  0
  -24.6612  -31.8271   23.1735 C   0  0  0  0  0  0
  -25.9311  -32.4608   23.8184 C   0  0  1  0  0  0
  -27.2043  -26.9517   20.1824 C   0  0  0  0  0  0
  -25.6004  -33.8422   24.2094 N   0  0  0  0  0  0
  -23.4733  -30.4437   21.5220 C   0  0  2  0  0  0
  -24.9250  -28.8412   20.1108 C   0  0  0  0  0  0
  -22.7663  -29.4474   22.4780 C   0  0  0  0  0  0
  -18.0322  -28.1421   22.8467 C   0  0  0  0  0  0
  -24.1482  -36.7200   23.2648 C   0  0  0  0  0  0
  -26.0425  -30.6437   21.4009 C   0  0  0  0  0  0
  -26.1087  -29.2364   20.7453 C   0  0  0  0  0  0
  -27.2450  -28.3109   20.7614 C   0  0  0  0  0  0
  -25.9939  -26.7114   19.4925 C   0  0  0  0  0  0
  -24.8918  -27.5986   19.4647 C   0  0  0  0  0  0
  -23.7124  -29.7675   20.1449 C   0  0  0  0  0  0
  -25.4119  -36.2969   24.0309 C   0  0  1  0  0  0
  -20.5948  -28.3759   23.1189 C   0  0  2  0  0  0
  -20.6808  -26.9451   22.5400 C   0  0  0  0  0  0
  -19.5777  -26.6383   21.5225 C   0  0  0  0  0  0
  -18.1954  -26.7962   22.1615 C   0  0  0  0  0  0
  -19.1589  -28.8908   23.2817 C   0  0  0  0  0  0
  -18.9511  -30.1502   23.8849 C   0  0  0  0  0  0
  -17.6503  -30.6609   24.0562 C   0  0  0  0  0  0
  -25.9091  -34.9357   23.5010 C   0  0  0  0  0  0
  -16.5386  -29.9096   23.6353 C   0  0  0  0  0  0
  -16.7305  -28.6519   23.0367 C   0  0  0  0  0  0
  -26.4563  -31.6555   25.0705 C   0  0  0  0  0  0
  -25.3689  -31.3848   26.1368 C   0  0  0  0  0  0
  -27.0448  -30.2911   24.6453 C   0  0  0  0  0  0
  -27.6074  -32.4353   25.7498 C   0  0  0  0  0  0
  -27.5555  -37.1747   24.8464 C   0  0  0  0  0  0
  -21.4332  -29.3062   22.3548 N   0  0  0  0  0  0
  -26.4246  -37.3717   23.9440 N   0  0  0  0  0  0
  -24.7469  -30.9971   22.0856 N   0  0  0  0  0  0
  -23.4237  -28.8042   23.3005 O   0  0  0  0  0  0
  -28.1805  -25.8303   20.2727 O   0  0  0  0  0  0
  -26.5675  -34.8899   22.4586 O   0  0  0  0  0  0
  -23.5680  -32.1221   23.6840 O   0  0  0  0  0  0
  -30.0627  -20.8888   20.8502 C   0  0  0  0  0  0
  -29.3691  -19.6769   20.3845 C   0  0  0  0  0  0
  -27.7386  -21.4475   19.7503 C   0  0  0  0  0  0
  -28.4427  -22.6598   20.2065 C   0  0  0  0  0  0
  -26.3694  -21.6059   19.1127 C   0  0  0  0  0  0
  -30.7422  -18.1630   18.7991 C   0  0  0  0  0  0
  -27.7604  -24.2665   20.0493 C   0  0  0  0  0  0
  -30.1174  -18.1062   20.2021 C   0  0  2  0  0  0
  -29.6463  -22.2568   20.7821 N   0  0  0  0  0  0
  -28.1699  -20.0870   19.8121 N   0  0  0  0  0  0
  -29.7207  -16.5105   20.4404 N   0  0  0  0  0  0
  -31.4574  -12.9826   19.1917 H   0  0  0  0  0  0
  -30.5002  -11.8776   20.1262 H   0  0  0  0  0  0
  -29.9131  -11.7422   17.6801 H   0  0  0  0  0  0
  -29.5702  -13.4569   17.6519 H   0  0  0  0  0  0
  -28.0293  -11.2714   19.0723 H   0  0  0  0  0  0
  -27.4151  -12.3512   17.8454 H   0  0  0  0  0  0
  -27.5303  -14.2397   19.3251 H   0  0  0  0  0  0
  -28.8024  -12.5030   21.4963 H   0  0  0  0  0  0
  -28.2850  -14.1640   21.6888 H   0  0  0  0  0  0
  -25.2795   -9.5679   22.4765 H   0  0  0  0  0  0
  -24.0021   -7.4640   22.7487 H   0  0  0  0  0  0
  -21.0864   -8.8783   19.8960 H   0  0  0  0  0  0
  -22.3744  -10.9670   19.6168 H   0  0  0  0  0  0
  -21.2009   -7.6158   23.9725 H   0  0  0  0  0  0
  -21.1479   -6.0528   25.9081 H   0  0  0  0  0  0
  -22.0600   -2.7621   23.2821 H   0  0  0  0  0  0
  -22.4062  -11.9867   22.4802 H   0  0  0  0  0  0
  -21.1048  -13.1227   22.2651 H   0  0  0  0  0  0
  -24.6336  -15.8466   20.5191 H   0  0  0  0  0  0
  -26.2501  -15.6366   20.0723 H   0  0  0  0  0  0
  -26.7389  -32.5140   23.0907 H   0  0  0  0  0  0
  -25.0207  -33.9526   25.0276 H   0  0  0  0  0  0
  -22.7863  -31.2754   21.3537 H   0  0  0  0  0  0
  -23.3765  -35.9507   23.3267 H   0  0  0  0  0  0
  -24.3582  -36.8873   22.2075 H   0  0  0  0  0  0
  -23.7208  -37.6368   23.6713 H   0  0  0  0  0  0
  -26.2216  -31.3881   20.6236 H   0  0  0  0  0  0
  -26.9038  -30.6967   22.0551 H   0  0  0  0  0  0
  -28.1348  -28.6082   21.2972 H   0  0  0  0  0  0
  -25.8448  -25.7688   18.9890 H   0  0  0  0  0  0
  -23.9928  -27.2910   18.9483 H   0  0  0  0  0  0
  -23.8708  -30.5379   19.3898 H   0  0  0  0  0  0
  -22.8228  -29.2242   19.8213 H   0  0  0  0  0  0
  -25.1308  -36.1745   25.0794 H   0  0  0  0  0  0
  -21.0030  -28.3360   24.1313 H   0  0  0  0  0  0
  -20.5705  -26.2392   23.3641 H   0  0  0  0  0  0
  -21.6670  -26.7445   22.1197 H   0  0  0  0  0  0
  -19.6946  -25.6279   21.1291 H   0  0  0  0  0  0
  -19.6715  -27.3163   20.6730 H   0  0  0  0  0  0
  -17.4234  -26.6724   21.4007 H   0  0  0  0  0  0
  -18.0329  -26.0114   22.9008 H   0  0  0  0  0  0
  -19.7995  -30.7333   24.2190 H   0  0  0  0  0  0
  -17.5064  -31.6291   24.5169 H   0  0  0  0  0  0
  -15.5388  -30.2990   23.7723 H   0  0  0  0  0  0
  -15.8707  -28.0826   22.7108 H   0  0  0  0  0  0
  -24.5889  -30.7169   25.7703 H   0  0  0  0  0  0
  -24.8857  -32.3068   26.4607 H   0  0  0  0  0  0
  -25.7906  -30.9153   27.0259 H   0  0  0  0  0  0
  -26.3108  -29.6607   24.1425 H   0  0  0  0  0  0
  -27.3944  -29.7269   25.5110 H   0  0  0  0  0  0
  -27.9071  -30.4106   23.9894 H   0  0  0  0  0  0
  -27.2672  -33.3730   26.1911 H   0  0  0  0  0  0
  -28.3969  -32.6789   25.0373 H   0  0  0  0  0  0
  -28.0649  -31.8577   26.5541 H   0  0  0  0  0  0
  -28.2533  -38.0080   24.7530 H   0  0  0  0  0  0
  -28.1072  -36.2604   24.6219 H   0  0  0  0  0  0
  -27.2296  -37.1308   25.8872 H   0  0  0  0  0  0
  -20.9575  -29.8771   21.6697 H   0  0  0  0  0  0
  -26.0076  -38.2756   24.1486 H   0  0  0  0  0  0
  -31.0543  -20.7641   21.2595 H   0  0  0  0  0  0
  -25.6858  -22.1245   19.7858 H   0  0  0  0  0  0
  -25.9229  -20.6412   18.8715 H   0  0  0  0  0  0
  -26.4392  -22.1782   18.1875 H   0  0  0  0  0  0
  -31.2889  -19.0960   18.6512 H   0  0  0  0  0  0
  -29.9696  -18.1104   18.0315 H   0  0  0  0  0  0
  -31.4508  -17.3546   18.6234 H   0  0  0  0  0  0
  -26.8332  -24.1787   20.6144 H   0  0  0  0  0  0
  -27.4503  -24.2622   19.0051 H   0  0  0  0  0  0
  -30.9534  -18.2039   20.8960 H   0  0  0  0  0  0
  -28.7330  -16.3790   20.5994 H   0  0  0  0  0  0
  1 25  1  0  0  0
  1 30  2  0  0  0
  1 81  1  0  0  0
  2  3  1  0  0  0
  2 25  1  0  0  0
  2 82  1  0  0  0
  2 83  1  0  0  0
  3  4  1  0  0  0
  3 84  1  0  0  0
  3 85  1  0  0  0
  4  5  1  0  0  0
  4 86  1  0  0  0
  4 87  1  0  0  0
  5  6  1  0  0  0
  5 26  1  0  0  0
  5 88  1  0  0  0
  6 25  1  0  0  0
  6 89  1  0  0  0
  6 90  1  0  0  0
  7  8  2  0  0  0
  7 26  1  0  0  0
  7 29  1  0  0  0
  8  9  1  0  0  0
  8 22  1  0  0  0
  9 10  1  0  0  0
  9 27  2  0  0  0
 10 11  2  0  0  0
 10 15  1  0  0  0
 11 12  1  0  0  0
 11 91  1  0  0  0
 12 13  2  0  0  0
 12 92  1  0  0  0
 13 14  1  0  0  0
 13 31  1  0  0  0
 14 15  2  0  0  0
 14 93  1  0  0  0
 15 94  1  0  0  0
 16 17  2  0  0  0
 16 21  1  0  0  0
 16 31  1  0  0  0
 17 18  1  0  0  0
 17 95  1  0  0  0
 18 19  2  0  0  0
 18 96  1  0  0  0
 19 20  1  0  0  0
 19 24  1  0  0  0
 20 21  2  0  0  0
 20 97  1  0  0  0
 21 23  1  0  0  0
 22 28  1  0  0  0
 22 32  2  0  0  0
 26 27  1  0  0  0
 28 98  1  0  0  0
 28 99  1  0  0  0
 29100  1  0  0  0
 29101  1  0  0  0
 33 34  1  0  0  0
 33 66  1  0  0  0
 33 70  2  0  0  0
 34 36  1  0  0  0
 34 59  1  0  0  0
 34102  1  0  0  0
 35 44  2  0  0  0
 35 45  1  0  0  0
 35 68  1  0  0  0
 36 56  1  0  0  0
 36103  1  0  0  0
 37 39  1  0  0  0
 37 47  1  0  0  0
 37 66  1  0  0  0
 37104  1  0  0  0
 38 43  2  0  0  0
 38 46  1  0  0  0
 38 47  1  0  0  0
 39 64  1  0  0  0
 39 67  2  0  0  0
 40 52  1  0  0  0
 40 53  2  0  0  0
 40 58  1  0  0  0
 41105  1  0  0  0
 41106  1  0  0  0
 41107  1  0  0  0
 41 48  1  0  0  0
 42 43  1  0  0  0
 42 66  1  0  0  0
 42108  1  0  0  0
 42109  1  0  0  0
 43 44  1  0  0  0
 44110  1  0  0  0
 45 46  2  0  0  0
 45111  1  0  0  0
 46112  1  0  0  0
 47113  1  0  0  0
 47114  1  0  0  0
 48 56  1  0  0  0
 48 65  1  0  0  0
 48115  1  0  0  0
 49 50  1  0  0  0
 49 53  1  0  0  0
 49 64  1  0  0  0
 49116  1  0  0  0
 50 51  1  0  0  0
 50117  1  0  0  0
 50118  1  0  0  0
 51 52  1  0  0  0
 51119  1  0  0  0
 51120  1  0  0  0
 52121  1  0  0  0
 52122  1  0  0  0
 53 54  1  0  0  0
 54 55  2  0  0  0
 54123  1  0  0  0
 55 57  1  0  0  0
 55124  1  0  0  0
 56 69  2  0  0  0
 57 58  2  0  0  0
 57125  1  0  0  0
 58126  1  0  0  0
 59 60  1  0  0  0
 59 61  1  0  0  0
 59 62  1  0  0  0
 60127  1  0  0  0
 60128  1  0  0  0
 60129  1  0  0  0
 61130  1  0  0  0
 61131  1  0  0  0
 61132  1  0  0  0
 62133  1  0  0  0
 62134  1  0  0  0
 62135  1  0  0  0
 63 65  1  0  0  0
 63136  1  0  0  0
 63137  1  0  0  0
 63138  1  0  0  0
 64139  1  0  0  0
 65140  1  0  0  0
 68 77  1  0  0  0
 71 72  2  0  0  0
 71 79  1  0  0  0
 71141  1  0  0  0
 72 78  1  0  0  0
 72 80  1  0  0  0
 73 74  1  0  0  0
 73 75  1  0  0  0
 73 80  2  0  0  0
 74 77  1  0  0  0
 74 79  2  0  0  0
 75142  1  0  0  0
 75143  1  0  0  0
 75144  1  0  0  0
 76145  1  0  0  0
 76146  1  0  0  0
 76147  1  0  0  0
 76 78  1  0  0  0
 77148  1  0  0  0
 77149  1  0  0  0
 78 81  1  0  0  0
 78150  1  0  0  0
 81151  1  0  0  0
M  ISO  4   1 100  68 101  77 101  81 100
M  END
> <chiral flag>
0

> <version>
0

> <s_m_source_file>
/data/baiqing/PycharmProjects/Reinvent-master-3.2/result/LINK_invent/BTK/process_docking_weight1_custom_sum_contain_oxygen_bond_distance_aromatic_linkinvent_7_9_3/rearranged_h_0057.sdf

> <i_m_source_file_index>
62

> <r_mmod_Potential_Energy-OPLS-2005>
1168.05126953125

> <r_mmod_Stretch_Energy-OPLS-2005>
500.412445068359

> <r_mmod_Bend_Energy-OPLS-2005>
448.407867431641

> <r_mmod_Torsional_Energy-OPLS-2005>
201.310913085938

> <r_mmod_Improper_Torsional_Energy-OPLS-2005>
6.76015138626099

> <r_mmod_Van_der_Waal_Energy-OPLS-2005>
134.805404663086

> <r_mmod_Electrostatic_Energy-OPLS-2005>
-318.452484130859

> <r_mmod_Solvation_Energy-OPLS-2005>
-231.8896484375

> <b_mmod_Minimization_Converged-OPLS-2005>
0

> <r_mmod_RMS_Derivative-OPLS-2005>
2.34545302391052

$$$$
62
                    3D
 Structure written by MMmdl.
162171  0  0  1  0            999 V2000
  -30.3817  -14.9543   20.3052 C   0  0  0  0  0  0
  -30.4718  -12.5440   19.5297 C   0  0  0  0  0  0
  -29.5253  -12.4784   18.2746 C   0  0  0  0  0  0
  -28.0121  -12.7624   18.5304 C   0  0  0  0  0  0
  -27.6984  -12.7141   20.0289 C   0  0  2  0  0  0
  -28.7827  -13.0383   21.1124 C   0  0  0  0  0  0
  -25.2305  -13.6751   20.4470 C   0  0  0  0  0  0
  -24.1357  -13.0022   20.8839 C   0  0  0  0  0  0
  -24.5343  -11.6510   20.9440 C   0  0  0  0  0  0
  -23.8139  -10.4275   21.1329 C   0  0  0  0  0  0
  -24.2981   -9.4166   21.9790 C   0  0  0  0  0  0
  -23.5947   -8.1935   22.0675 C   0  0  0  0  0  0
  -22.4054   -8.0000   21.3297 C   0  0  0  0  0  0
  -21.9846   -9.0007   20.4418 C   0  0  0  0  0  0
  -22.6806  -10.2174   20.3613 C   0  0  0  0  0  0
  -21.6699   -6.0503   22.5300 C   0  0  0  0  0  0
  -21.3967   -6.5506   23.8249 C   0  0  0  0  0  0
  -21.3841   -5.6696   24.9239 C   0  0  0  0  0  0
  -21.6111   -4.3019   24.7410 C   0  0  0  0  0  0
  -21.8776   -3.7983   23.4500 C   0  0  0  0  0  0
  -21.9039   -4.6742   22.3545 C   0  0  0  0  0  0
  -22.7462  -13.5363   21.1244 C   0  0  0  0  0  0
  -22.1495   -4.1896   21.1071 F   0  0  0  0  0  0
  -21.5724   -3.4437   25.7902 F   0  0  0  0  0  0
  -29.9547  -13.6126   20.4049 N   0  0  0  0  0  0
  -26.2879  -12.7519   20.4151 N   0  0  0  0  0  0
  -25.8163  -11.5351   20.7332 N   0  0  0  0  0  0
  -21.9788  -12.8862   21.9930 N   0  0  0  0  0  0
  -25.3655  -14.9833   20.0220 N   0  0  0  0  0  0
  -31.5551  -15.0897   19.9639 O   0  0  0  0  0  0
  -21.6321   -6.8543   21.4220 O   0  0  0  0  0  0
  -22.3615  -14.5891   20.6270 O   0  0  0  0  0  0
  -24.6382  -31.8487   23.1947 C   0  0  0  0  0  0
  -25.9144  -32.4776   23.8379 C   0  0  1  0  0  0
  -27.2218  -27.2394   20.1774 C   0  0  0  0  0  0
  -25.5917  -33.8585   24.2290 N   0  0  0  0  0  0
  -23.4424  -30.4625   21.5410 C   0  0  2  0  0  0
  -24.8889  -28.9048   20.1188 C   0  0  0  0  0  0
  -22.7560  -29.4512   22.4932 C   0  0  0  0  0  0
  -18.0273  -28.1385   22.8481 C   0  0  0  0  0  0
  -24.1458  -36.7364   23.2635 C   0  0  0  0  0  0
  -25.9805  -30.7661   21.3615 C   0  0  0  0  0  0
  -26.0574  -29.3769   20.7318 C   0  0  0  0  0  0
  -27.2325  -28.5571   20.7433 C   0  0  0  0  0  0
  -26.0343  -26.8260   19.5446 C   0  0  0  0  0  0
  -24.8834  -27.6388   19.5119 C   0  0  0  0  0  0
  -23.6602  -29.7928   20.1572 C   0  0  0  0  0  0
  -25.4069  -36.3130   24.0355 C   0  0  1  0  0  0
  -20.5880  -28.3679   23.1285 C   0  0  2  0  0  0
  -20.6772  -26.9406   22.5405 C   0  0  0  0  0  0
  -19.5746  -26.6376   21.5213 C   0  0  0  0  0  0
  -18.1919  -26.7919   22.1618 C   0  0  0  0  0  0
  -19.1531  -28.8853   23.2866 C   0  0  0  0  0  0
  -18.9447  -30.1445   23.8900 C   0  0  0  0  0  0
  -17.6446  -30.6589   24.0551 C   0  0  0  0  0  0
  -25.9005  -34.9478   23.5116 C   0  0  0  0  0  0
  -16.5334  -29.9092   23.6328 C   0  0  0  0  0  0
  -16.7254  -28.6505   23.0359 C   0  0  0  0  0  0
  -26.4482  -31.6655   25.0797 C   0  0  0  0  0  0
  -25.3735  -31.3827   26.1567 C   0  0  0  0  0  0
  -27.0324  -30.3104   24.6235 C   0  0  0  0  0  0
  -27.6021  -32.4400   25.7595 C   0  0  0  0  0  0
  -27.5572  -37.1842   24.8451 C   0  0  0  0  0  0
  -21.4243  -29.3029   22.3705 N   0  0  0  0  0  0
  -26.4258  -37.3819   23.9433 N   0  0  0  0  0  0
  -24.7088  -31.0444   22.0913 N   0  0  0  0  0  0
  -23.4213  -28.8024   23.3040 O   0  0  0  0  0  0
  -28.3271  -26.3646   20.1388 O   0  0  0  0  0  0
  -26.5555  -34.8953   22.4666 O   0  0  0  0  0  0
  -23.5503  -32.1275   23.7203 O   0  0  0  0  0  0
  -26.8723  -23.1302   20.7590 C   0  0  0  0  0  0
  -28.1348  -16.0054   20.9597 C   0  0  0  0  0  0
  -28.8930  -22.5286   20.2699 C   0  0  0  0  0  0
  -28.1608  -23.6924   20.6325 C   0  0  0  0  0  0
  -29.3999  -16.2562   20.4636 C   0  0  0  0  0  0
  -27.4957  -18.1553   21.3109 C   0  0  0  0  0  0
  -28.5438  -18.6255   20.4345 C   0  0  0  0  0  0
  -26.3972  -18.9463   21.9971 C   0  0  0  0  0  0
  -26.4461  -18.2494   18.2588 C   0  0  0  0  0  0
  -29.0519  -20.2254   18.2792 C   0  0  0  0  0  0
  -28.4458  -25.1943   21.0713 C   0  0  0  0  0  0
  -26.7388  -19.6308   18.8875 C   0  0  0  0  0  0
  -28.1668  -19.9662   19.5367 C   0  0  1  0  0  0
  -27.2738  -16.8661   21.5063 N   0  0  0  0  0  0
  -26.8059  -21.8514   20.4504 N   0  0  0  0  0  0
  -29.5515  -17.6561   20.1332 N   0  0  0  0  0  0
  -28.0423  -21.3866   20.1289 N   0  0  0  0  0  0
  -31.5258  -12.6321   19.2488 H   0  0  0  0  0  0
  -30.4829  -11.6020   20.1121 H   0  0  0  0  0  0
  -29.6741  -11.4734   17.8791 H   0  0  0  0  0  0
  -29.8046  -13.2043   17.5142 H   0  0  0  0  0  0
  -27.3761  -12.0552   17.9975 H   0  0  0  0  0  0
  -27.7413  -13.7350   18.0973 H   0  0  0  0  0  0
  -27.9041  -11.6297   20.0899 H   0  0  0  0  0  0
  -29.1129  -12.1259   21.6440 H   0  0  0  0  0  0
  -28.4186  -13.6189   21.9537 H   0  0  0  0  0  0
  -25.1835   -9.5594   22.5724 H   0  0  0  0  0  0
  -23.9603   -7.4148   22.7219 H   0  0  0  0  0  0
  -21.0946   -8.8635   19.8336 H   0  0  0  0  0  0
  -22.3266  -10.9907   19.7072 H   0  0  0  0  0  0
  -21.2078   -7.5963   23.9723 H   0  0  0  0  0  0
  -21.1768   -6.0432   25.9134 H   0  0  0  0  0  0
  -22.0423   -2.7384   23.3092 H   0  0  0  0  0  0
  -22.2994  -12.1152   22.5687 H   0  0  0  0  0  0
  -21.0481  -13.2237   22.2192 H   0  0  0  0  0  0
  -24.5497  -15.4937   19.6875 H   0  0  0  0  0  0
  -26.2283  -15.4182   19.7718 H   0  0  0  0  0  0
  -26.7235  -32.5430   23.1166 H   0  0  0  0  0  0
  -25.0247  -33.9728   25.0556 H   0  0  0  0  0  0
  -22.7451  -31.2870   21.3849 H   0  0  0  0  0  0
  -23.3721  -35.9694   23.3243 H   0  0  0  0  0  0
  -24.3565  -36.9021   22.2061 H   0  0  0  0  0  0
  -23.7190  -37.6561   23.6651 H   0  0  0  0  0  0
  -26.0776  -31.4890   20.5498 H   0  0  0  0  0  0
  -26.8751  -30.8600   21.9665 H   0  0  0  0  0  0
  -28.1479  -28.9051   21.2032 H   0  0  0  0  0  0
  -25.9982  -25.8508   19.0790 H   0  0  0  0  0  0
  -23.9966  -27.2648   19.0229 H   0  0  0  0  0  0
  -23.7860  -30.5618   19.3905 H   0  0  0  0  0  0
  -22.7788  -29.2197   19.8633 H   0  0  0  0  0  0
  -25.1216  -36.2041   25.0854 H   0  0  0  0  0  0
  -20.9944  -28.3234   24.1408 H   0  0  0  0  0  0
  -20.5687  -26.2273   23.3590 H   0  0  0  0  0  0
  -21.6644  -26.7446   22.1189 H   0  0  0  0  0  0
  -19.6903  -25.6281   21.1260 H   0  0  0  0  0  0
  -19.6699  -27.3176   20.6739 H   0  0  0  0  0  0
  -17.4195  -26.6656   21.4013 H   0  0  0  0  0  0
  -18.0293  -26.0058   22.9013 H   0  0  0  0  0  0
  -19.7921  -30.7244   24.2301 H   0  0  0  0  0  0
  -17.5003  -31.6277   24.5140 H   0  0  0  0  0  0
  -15.5342  -30.3001   23.7653 H   0  0  0  0  0  0
  -15.8634  -28.0833   22.7092 H   0  0  0  0  0  0
  -24.5818  -30.7239   25.7985 H   0  0  0  0  0  0
  -24.9037  -32.3004   26.5130 H   0  0  0  0  0  0
  -25.8095  -30.8966   27.0300 H   0  0  0  0  0  0
  -26.2904  -29.6901   24.1189 H   0  0  0  0  0  0
  -27.3942  -29.7345   25.4761 H   0  0  0  0  0  0
  -27.8799  -30.4452   23.9506 H   0  0  0  0  0  0
  -27.2604  -33.3673   26.2227 H   0  0  0  0  0  0
  -28.3854  -32.7014   25.0462 H   0  0  0  0  0  0
  -28.0672  -31.8514   26.5518 H   0  0  0  0  0  0
  -28.2553  -38.0176   24.7534 H   0  0  0  0  0  0
  -28.1099  -36.2707   24.6198 H   0  0  0  0  0  0
  -27.2310  -37.1427   25.8858 H   0  0  0  0  0  0
  -20.9419  -29.8869   21.7012 H   0  0  0  0  0  0
  -26.0165  -38.2902   24.1446 H   0  0  0  0  0  0
  -25.9525  -23.6149   21.0540 H   0  0  0  0  0  0
  -27.7166  -15.0438   20.8048 H   0  0  0  0  0  0
  -29.9575  -22.3873   20.1028 H   0  0  0  0  0  0
  -26.5623  -20.0015   21.9314 H   0  0  0  0  0  0
  -26.4329  -18.6477   23.0540 H   0  0  0  0  0  0
  -25.3860  -18.6988   21.6191 H   0  0  0  0  0  0
  -25.4541  -18.2929   17.8166 H   0  0  0  0  0  0
  -26.4543  -17.3814   18.9278 H   0  0  0  0  0  0
  -27.1068  -18.0460   17.4199 H   0  0  0  0  0  0
  -29.0806  -19.3934   17.5786 H   0  0  0  0  0  0
  -30.0800  -20.5069   18.5263 H   0  0  0  0  0  0
  -28.6090  -21.0547   17.7016 H   0  0  0  0  0  0
  -29.4409  -25.2370   21.5245 H   0  0  0  0  0  0
  -27.7629  -25.4068   21.9058 H   0  0  0  0  0  0
  -25.9559  -19.7339   19.6537 H   0  0  0  0  0  0
  -26.4778  -20.3695   18.1261 H   0  0  0  0  0  0
  1 25  1  0  0  0
  1 30  2  0  0  0
  1 75  1  0  0  0
  2  3  1  0  0  0
  2 25  1  0  0  0
  2 88  1  0  0  0
  2 89  1  0  0  0
  3  4  1  0  0  0
  3 90  1  0  0  0
  3 91  1  0  0  0
  4  5  1  0  0  0
  4 92  1  0  0  0
  4 93  1  0  0  0
  5  6  1  0  0  0
  5 26  1  0  0  0
  5 94  1  0  0  0
  6 25  1  0  0  0
  6 95  1  0  0  0
  6 96  1  0  0  0
  7  8  2  0  0  0
  7 26  1  0  0  0
  7 29  1  0  0  0
  8  9  1  0  0  0
  8 22  1  0  0  0
  9 10  1  0  0  0
  9 27  2  0  0  0
 10 11  2  0  0  0
 10 15  1  0  0  0
 11 12  1  0  0  0
 11 97  1  0  0  0
 12 13  2  0  0  0
 12 98  1  0  0  0
 13 14  1  0  0  0
 13 31  1  0  0  0
 14 15  2  0  0  0
 14 99  1  0  0  0
 15100  1  0  0  0
 16 17  2  0  0  0
 16 21  1  0  0  0
 16 31  1  0  0  0
 17 18  1  0  0  0
 17101  1  0  0  0
 18 19  2  0  0  0
 18102  1  0  0  0
 19 20  1  0  0  0
 19 24  1  0  0  0
 20 21  2  0  0  0
 20103  1  0  0  0
 21 23  1  0  0  0
 22 28  1  0  0  0
 22 32  2  0  0  0
 26 27  1  0  0  0
 28104  1  0  0  0
 28105  1  0  0  0
 29106  1  0  0  0
 29107  1  0  0  0
 33 34  1  0  0  0
 33 66  1  0  0  0
 33 70  2  0  0  0
 34 36  1  0  0  0
 34 59  1  0  0  0
 34108  1  0  0  0
 35 44  2  0  0  0
 35 45  1  0  0  0
 35 68  1  0  0  0
 36 56  1  0  0  0
 36109  1  0  0  0
 37 39  1  0  0  0
 37 47  1  0  0  0
 37 66  1  0  0  0
 37110  1  0  0  0
 38 43  2  0  0  0
 38 46  1  0  0  0
 38 47  1  0  0  0
 39 64  1  0  0  0
 39 67  2  0  0  0
 40 52  1  0  0  0
 40 53  2  0  0  0
 40 58  1  0  0  0
 41111  1  0  0  0
 41112  1  0  0  0
 41113  1  0  0  0
 41 48  1  0  0  0
 42 43  1  0  0  0
 42 66  1  0  0  0
 42114  1  0  0  0
 42115  1  0  0  0
 43 44  1  0  0  0
 44116  1  0  0  0
 45 46  2  0  0  0
 45117  1  0  0  0
 46118  1  0  0  0
 47119  1  0  0  0
 47120  1  0  0  0
 48 56  1  0  0  0
 48 65  1  0  0  0
 48121  1  0  0  0
 49 50  1  0  0  0
 49 53  1  0  0  0
 49 64  1  0  0  0
 49122  1  0  0  0
 50 51  1  0  0  0
 50123  1  0  0  0
 50124  1  0  0  0
 51 52  1  0  0  0
 51125  1  0  0  0
 51126  1  0  0  0
 52127  1  0  0  0
 52128  1  0  0  0
 53 54  1  0  0  0
 54 55  2  0  0  0
 54129  1  0  0  0
 55 57  1  0  0  0
 55130  1  0  0  0
 56 69  2  0  0  0
 57 58  2  0  0  0
 57131  1  0  0  0
 58132  1  0  0  0
 59 60  1  0  0  0
 59 61  1  0  0  0
 59 62  1  0  0  0
 60133  1  0  0  0
 60134  1  0  0  0
 60135  1  0  0  0
 61136  1  0  0  0
 61137  1  0  0  0
 61138  1  0  0  0
 62139  1  0  0  0
 62140  1  0  0  0
 62141  1  0  0  0
 63 65  1  0  0  0
 63142  1  0  0  0
 63143  1  0  0  0
 63144  1  0  0  0
 64145  1  0  0  0
 65146  1  0  0  0
 68 81  1  0  0  0
 71 74  1  0  0  0
 71 85  2  0  0  0
 71147  1  0  0  0
 72 75  2  0  0  0
 72 84  1  0  0  0
 72148  1  0  0  0
 73 74  2  0  0  0
 73 87  1  0  0  0
 73149  1  0  0  0
 74 81  1  0  0  0
 75 86  1  0  0  0
 76 77  1  0  0  0
 76 78  1  0  0  0
 76 84  2  0  0  0
 77 83  1  0  0  0
 77 86  2  0  0  0
 78150  1  0  0  0
 78151  1  0  0  0
 78152  1  0  0  0
 79 82  1  0  0  0
 79153  1  0  0  0
 79154  1  0  0  0
 79155  1  0  0  0
 80156  1  0  0  0
 80157  1  0  0  0
 80158  1  0  0  0
 80 83  1  0  0  0
 81159  1  0  0  0
 81160  1  0  0  0
 82 83  1  0  0  0
 82161  1  0  0  0
 82162  1  0  0  0
 83 87  1  0  0  0
 85 87  1  0  0  0
M  ISO  4   1 100  68 101  75 100  81 101
M  END
> <chiral flag>
0

> <version>
0

> <s_m_source_file>
/data/baiqing/PycharmProjects/Reinvent-master-3.2/result/LINK_invent/BTK/process_docking_weight1_custom_sum_contain_oxygen_bond_distance_aromatic_linkinvent_7_9_3/rearranged_h_0057.sdf

> <i_m_source_file_index>
63

> <r_mmod_Potential_Energy-OPLS-2005>
1072.25402832031

> <r_mmod_Stretch_Energy-OPLS-2005>
226.917831420898

> <r_mmod_Bend_Energy-OPLS-2005>
387.755401611328

> <r_mmod_Torsional_Energy-OPLS-2005>
369.011535644531

> <r_mmod_Improper_Torsional_Energy-OPLS-2005>
13.1555233001709

> <r_mmod_Van_der_Waal_Energy-OPLS-2005>
196.531799316406

> <r_mmod_Electrostatic_Energy-OPLS-2005>
-162.522827148438

> <r_mmod_Solvation_Energy-OPLS-2005>
-202.571578979492

> <b_mmod_Minimization_Converged-OPLS-2005>
0

> <r_mmod_RMS_Derivative-OPLS-2005>
33.679615020752

$$$$
63
                    3D
 Structure written by MMmdl.
159167  0  0  1  0            999 V2000
  -30.6458  -14.6133   20.5255 C   0  0  0  0  0  0
  -30.4341  -12.3782   19.4545 C   0  0  0  0  0  0
  -29.5078  -12.5077   18.2251 C   0  0  0  0  0  0
  -28.0290  -12.3522   18.6331 C   0  0  0  0  0  0
  -27.6548  -13.2192   19.8655 C   0  0  2  0  0  0
  -28.6990  -13.0666   20.9943 C   0  0  0  0  0  0
  -25.2562  -13.8176   20.5688 C   0  0  0  0  0  0
  -24.1831  -13.0435   20.9193 C   0  0  0  0  0  0
  -24.6401  -11.6910   20.8738 C   0  0  0  0  0  0
  -23.9070  -10.4293   21.0403 C   0  0  0  0  0  0
  -24.3619   -9.4207   21.9180 C   0  0  0  0  0  0
  -23.6294   -8.2243   22.0753 C   0  0  0  0  0  0
  -22.4275   -8.0282   21.3544 C   0  0  0  0  0  0
  -21.9910   -9.0256   20.4643 C   0  0  0  0  0  0
  -22.7242  -10.2134   20.3053 C   0  0  0  0  0  0
  -21.6851   -6.0738   22.5279 C   0  0  0  0  0  0
  -21.4011   -6.5639   23.8213 C   0  0  0  0  0  0
  -21.3660   -5.6790   24.9174 C   0  0  0  0  0  0
  -21.6045   -4.3055   24.7224 C   0  0  0  0  0  0
  -21.8819   -3.8149   23.4344 C   0  0  0  0  0  0
  -21.9191   -4.6965   22.3401 C   0  0  0  0  0  0
  -22.7850  -13.5226   21.1855 C   0  0  0  0  0  0
  -22.1660   -4.2152   21.0978 F   0  0  0  0  0  0
  -21.5630   -3.4539   25.7736 F   0  0  0  0  0  0
  -30.0164  -13.3989   20.4368 N   0  0  0  0  0  0
  -26.2995  -12.9366   20.3330 N   0  0  0  0  0  0
  -25.9332  -11.6516   20.5757 N   0  0  0  0  0  0
  -22.0489  -12.8220   22.0410 N   0  0  0  0  0  0
  -25.4269  -15.1900   20.4102 N   0  0  0  0  0  0
  -31.7938  -14.7468   20.0921 O   0  0  0  0  0  0
  -21.6637   -6.8882   21.4241 O   0  0  0  0  0  0
  -22.3533  -14.5533   20.6703 O   0  0  0  0  0  0
  -24.6238  -31.8607   23.2031 C   0  0  0  0  0  0
  -25.9089  -32.4786   23.8360 C   0  0  1  0  0  0
  -27.2302  -27.3492   20.1205 C   0  0  0  0  0  0
  -25.5916  -33.8584   24.2291 N   0  0  0  0  0  0
  -23.4180  -30.4816   21.5446 C   0  0  2  0  0  0
  -24.8683  -28.9384   20.1121 C   0  0  0  0  0  0
  -22.7469  -29.4616   22.4944 C   0  0  0  0  0  0
  -18.0283  -28.1375   22.8485 C   0  0  0  0  0  0
  -24.1489  -36.7300   23.2640 C   0  0  0  0  0  0
  -25.9550  -30.8008   21.3706 C   0  0  0  0  0  0
  -26.0345  -29.4294   20.7152 C   0  0  0  0  0  0
  -27.2231  -28.6444   20.7126 C   0  0  0  0  0  0
  -26.0487  -26.8976   19.4991 C   0  0  0  0  0  0
  -24.8748  -27.6757   19.4954 C   0  0  0  0  0  0
  -23.6329  -29.8134   20.1605 C   0  0  0  0  0  0
  -25.4114  -36.3090   24.0335 C   0  0  1  0  0  0
  -20.5878  -28.3676   23.1289 C   0  0  2  0  0  0
  -20.6770  -26.9401   22.5413 C   0  0  0  0  0  0
  -19.5751  -26.6377   21.5210 C   0  0  0  0  0  0
  -18.1927  -26.7918   22.1617 C   0  0  0  0  0  0
  -19.1534  -28.8844   23.2879 C   0  0  0  0  0  0
  -18.9458  -30.1448   23.8896 C   0  0  0  0  0  0
  -17.6460  -30.6581   24.0560 C   0  0  0  0  0  0
  -25.9046  -34.9455   23.5112 C   0  0  0  0  0  0
  -16.5351  -29.9079   23.6328 C   0  0  0  0  0  0
  -16.7270  -28.6493   23.0353 C   0  0  0  0  0  0
  -26.4486  -31.6590   25.0719 C   0  0  0  0  0  0
  -25.3729  -31.3717   26.1456 C   0  0  0  0  0  0
  -27.0329  -30.3019   24.6149 C   0  0  0  0  0  0
  -27.6051  -32.4320   25.7487 C   0  0  0  0  0  0
  -27.5581  -37.1803   24.8464 C   0  0  0  0  0  0
  -21.4183  -29.3032   22.3691 N   0  0  0  0  0  0
  -26.4296  -37.3781   23.9406 N   0  0  0  0  0  0
  -24.6837  -31.0635   22.0970 N   0  0  0  0  0  0
  -23.4200  -28.8148   23.3014 O   0  0  0  0  0  0
  -28.3197  -26.4785   20.1521 O   0  0  0  0  0  0
  -26.5614  -34.8922   22.4677 O   0  0  0  0  0  0
  -23.5407  -32.1392   23.7375 O   0  0  0  0  0  0
  -28.3015  -21.4759   21.2290 C   0  0  0  0  0  0
  -29.5237  -23.5177   19.8535 C   0  0  0  0  0  0
  -27.9288  -22.8222   21.5005 C   0  0  0  0  0  0
  -28.5315  -23.9018   20.7858 C   0  0  0  0  0  0
  -29.2992  -21.1885   20.2743 C   0  0  0  0  0  0
  -26.8866  -23.0716   22.5792 C   0  0  0  0  0  0
  -30.6174  -18.9534   22.0099 C   0  0  0  0  0  0
  -28.1911  -25.3991   21.1379 C   0  0  0  0  0  0
  -29.6907  -19.7281   19.8371 C   0  0  0  0  0  0
  -29.9188  -15.9135   21.0551 C   0  0  0  0  0  0
  -30.1775  -17.2572   20.2330 C   0  0  0  0  0  0
  -29.8895  -22.2212   19.6080 N   0  0  0  0  0  0
  -29.7700  -18.5951   20.8461 N   0  3  1  0  0  0
  -31.4770  -12.4885   19.1532 H   0  0  0  0  0  0
  -30.3576  -11.3806   19.8903 H   0  0  0  0  0  0
  -29.7693  -11.7591   17.4761 H   0  0  0  0  0  0
  -29.6593  -13.4794   17.7527 H   0  0  0  0  0  0
  -27.8583  -11.2988   18.8578 H   0  0  0  0  0  0
  -27.3780  -12.5918   17.7912 H   0  0  0  0  0  0
  -27.6768  -14.2563   19.5306 H   0  0  0  0  0  0
  -28.7027  -12.0425   21.3711 H   0  0  0  0  0  0
  -28.4514  -13.6934   21.8514 H   0  0  0  0  0  0
  -25.2761   -9.5679   22.4757 H   0  0  0  0  0  0
  -23.9998   -7.4634   22.7471 H   0  0  0  0  0  0
  -21.0842   -8.8777   19.8951 H   0  0  0  0  0  0
  -22.3700  -10.9673   19.6164 H   0  0  0  0  0  0
  -21.2004   -7.6148   23.9717 H   0  0  0  0  0  0
  -21.1482   -6.0520   25.9076 H   0  0  0  0  0  0
  -22.0599   -2.7611   23.2842 H   0  0  0  0  0  0
  -22.4090  -11.9875   22.4797 H   0  0  0  0  0  0
  -21.1105  -13.1249   22.2616 H   0  0  0  0  0  0
  -24.6580  -15.8433   20.5139 H   0  0  0  0  0  0
  -26.2743  -15.6268   20.0720 H   0  0  0  0  0  0
  -26.7164  -32.5472   23.1120 H   0  0  0  0  0  0
  -25.0066  -33.9723   25.0437 H   0  0  0  0  0  0
  -22.7114  -31.3008   21.4006 H   0  0  0  0  0  0
  -23.3747  -35.9634   23.3302 H   0  0  0  0  0  0
  -24.3582  -36.8918   22.2055 H   0  0  0  0  0  0
  -23.7241  -37.6502   23.6661 H   0  0  0  0  0  0
  -26.0797  -31.5650   20.6025 H   0  0  0  0  0  0
  -26.8376  -30.8534   21.9963 H   0  0  0  0  0  0
  -28.1186  -29.0114   21.1942 H   0  0  0  0  0  0
  -26.0315  -25.9203   19.0366 H   0  0  0  0  0  0
  -23.9803  -27.2917   19.0240 H   0  0  0  0  0  0
  -23.7472  -30.5882   19.4014 H   0  0  0  0  0  0
  -22.7548  -29.2385   19.8615 H   0  0  0  0  0  0
  -25.1290  -36.1951   25.0828 H   0  0  0  0  0  0
  -20.9970  -28.3248   24.1411 H   0  0  0  0  0  0
  -20.5672  -26.2283   23.3609 H   0  0  0  0  0  0
  -21.6639  -26.7433   22.1204 H   0  0  0  0  0  0
  -19.6921  -25.6288   21.1237 H   0  0  0  0  0  0
  -19.6694  -27.3193   20.6742 H   0  0  0  0  0  0
  -17.4199  -26.6666   21.4020 H   0  0  0  0  0  0
  -18.0321  -26.0062   22.9014 H   0  0  0  0  0  0
  -19.7939  -30.7252   24.2271 H   0  0  0  0  0  0
  -17.5019  -31.6267   24.5153 H   0  0  0  0  0  0
  -15.5352  -30.2981   23.7658 H   0  0  0  0  0  0
  -15.8664  -28.0815   22.7071 H   0  0  0  0  0  0
  -24.5908  -30.7059   25.7789 H   0  0  0  0  0  0
  -24.8914  -32.2877   26.4889 H   0  0  0  0  0  0
  -25.8064  -30.8896   27.0226 H   0  0  0  0  0  0
  -26.2890  -29.6771   24.1188 H   0  0  0  0  0  0
  -27.4055  -29.7279   25.4641 H   0  0  0  0  0  0
  -27.8749  -30.4314   23.9343 H   0  0  0  0  0  0
  -27.2667  -33.3632   26.2049 H   0  0  0  0  0  0
  -28.3869  -32.6861   25.0315 H   0  0  0  0  0  0
  -28.0707  -31.8450   26.5418 H   0  0  0  0  0  0
  -28.2594  -38.0104   24.7518 H   0  0  0  0  0  0
  -28.1081  -36.2635   24.6280 H   0  0  0  0  0  0
  -27.2297  -37.1443   25.8865 H   0  0  0  0  0  0
  -20.9360  -29.8760   21.6908 H   0  0  0  0  0  0
  -26.0182  -38.2857   24.1413 H   0  0  0  0  0  0
  -27.8138  -20.6662   21.7544 H   0  0  0  0  0  0
  -30.0586  -24.2714   19.2942 H   0  0  0  0  0  0
  -26.6182  -22.1509   23.0976 H   0  0  0  0  0  0
  -25.9762  -23.4848   22.1443 H   0  0  0  0  0  0
  -27.2640  -23.7682   23.3284 H   0  0  0  0  0  0
  -30.2482  -19.8444   22.5176 H   0  0  0  0  0  0
  -31.6459  -19.1471   21.7023 H   0  0  0  0  0  0
  -30.6365  -18.1573   22.7529 H   0  0  0  0  0  0
  -28.8372  -25.6699   21.9731 H   0  0  0  0  0  0
  -27.1836  -25.4239   21.5531 H   0  0  0  0  0  0
  -30.6566  -19.7864   19.3338 H   0  0  0  0  0  0
  -28.9781  -19.4389   19.0641 H   0  0  0  0  0  0
  -28.8436  -15.7532   21.1051 H   0  0  0  0  0  0
  -30.2490  -16.0356   22.0855 H   0  0  0  0  0  0
  -29.6495  -17.1498   19.2839 H   0  0  0  0  0  0
  -31.2331  -17.3223   19.9644 H   0  0  0  0  0  0
  -28.8284  -18.4917   21.1917 H   0  0  0  0  0  0
  1 25  1  0  0  0
  1 30  2  0  0  0
  1 80  1  0  0  0
  2  3  1  0  0  0
  2 25  1  0  0  0
  2 84  1  0  0  0
  2 85  1  0  0  0
  3  4  1  0  0  0
  3 86  1  0  0  0
  3 87  1  0  0  0
  4  5  1  0  0  0
  4 88  1  0  0  0
  4 89  1  0  0  0
  5  6  1  0  0  0
  5 26  1  0  0  0
  5 90  1  0  0  0
  6 25  1  0  0  0
  6 91  1  0  0  0
  6 92  1  0  0  0
  7  8  2  0  0  0
  7 26  1  0  0  0
  7 29  1  0  0  0
  8  9  1  0  0  0
  8 22  1  0  0  0
  9 10  1  0  0  0
  9 27  2  0  0  0
 10 11  2  0  0  0
 10 15  1  0  0  0
 11 12  1  0  0  0
 11 93  1  0  0  0
 12 13  2  0  0  0
 12 94  1  0  0  0
 13 14  1  0  0  0
 13 31  1  0  0  0
 14 15  2  0  0  0
 14 95  1  0  0  0
 15 96  1  0  0  0
 16 17  2  0  0  0
 16 21  1  0  0  0
 16 31  1  0  0  0
 17 18  1  0  0  0
 17 97  1  0  0  0
 18 19  2  0  0  0
 18 98  1  0  0  0
 19 20  1  0  0  0
 19 24  1  0  0  0
 20 21  2  0  0  0
 20 99  1  0  0  0
 21 23  1  0  0  0
 22 28  1  0  0  0
 22 32  2  0  0  0
 26 27  1  0  0  0
 28100  1  0  0  0
 28101  1  0  0  0
 29102  1  0  0  0
 29103  1  0  0  0
 33 34  1  0  0  0
 33 66  1  0  0  0
 33 70  2  0  0  0
 34 36  1  0  0  0
 34 59  1  0  0  0
 34104  1  0  0  0
 35 44  2  0  0  0
 35 45  1  0  0  0
 35 68  1  0  0  0
 36 56  1  0  0  0
 36105  1  0  0  0
 37 39  1  0  0  0
 37 47  1  0  0  0
 37 66  1  0  0  0
 37106  1  0  0  0
 38 43  2  0  0  0
 38 46  1  0  0  0
 38 47  1  0  0  0
 39 64  1  0  0  0
 39 67  2  0  0  0
 40 52  1  0  0  0
 40 53  2  0  0  0
 40 58  1  0  0  0
 41107  1  0  0  0
 41108  1  0  0  0
 41109  1  0  0  0
 41 48  1  0  0  0
 42 43  1  0  0  0
 42 66  1  0  0  0
 42110  1  0  0  0
 42111  1  0  0  0
 43 44  1  0  0  0
 44112  1  0  0  0
 45 46  2  0  0  0
 45113  1  0  0  0
 46114  1  0  0  0
 47115  1  0  0  0
 47116  1  0  0  0
 48 56  1  0  0  0
 48 65  1  0  0  0
 48117  1  0  0  0
 49 50  1  0  0  0
 49 53  1  0  0  0
 49 64  1  0  0  0
 49118  1  0  0  0
 50 51  1  0  0  0
 50119  1  0  0  0
 50120  1  0  0  0
 51 52  1  0  0  0
 51121  1  0  0  0
 51122  1  0  0  0
 52123  1  0  0  0
 52124  1  0  0  0
 53 54  1  0  0  0
 54 55  2  0  0  0
 54125  1  0  0  0
 55 57  1  0  0  0
 55126  1  0  0  0
 56 69  2  0  0  0
 57 58  2  0  0  0
 57127  1  0  0  0
 58128  1  0  0  0
 59 60  1  0  0  0
 59 61  1  0  0  0
 59 62  1  0  0  0
 60129  1  0  0  0
 60130  1  0  0  0
 60131  1  0  0  0
 61132  1  0  0  0
 61133  1  0  0  0
 61134  1  0  0  0
 62135  1  0  0  0
 62136  1  0  0  0
 62137  1  0  0  0
 63 65  1  0  0  0
 63138  1  0  0  0
 63139  1  0  0  0
 63140  1  0  0  0
 64141  1  0  0  0
 65142  1  0  0  0
 68 78  1  0  0  0
 71 73  2  0  0  0
 71 75  1  0  0  0
 71143  1  0  0  0
 72 74  2  0  0  0
 72 82  1  0  0  0
 72144  1  0  0  0
 73 74  1  0  0  0
 73 76  1  0  0  0
 74 78  1  0  0  0
 75 79  1  0  0  0
 75 82  2  0  0  0
 76145  1  0  0  0
 76146  1  0  0  0
 76147  1  0  0  0
 77148  1  0  0  0
 77149  1  0  0  0
 77150  1  0  0  0
 77 83  1  0  0  0
 78151  1  0  0  0
 78152  1  0  0  0
 79 83  1  0  0  0
 79153  1  0  0  0
 79154  1  0  0  0
 80 81  1  0  0  0
 80155  1  0  0  0
 80156  1  0  0  0
 81 83  1  0  0  0
 81157  1  0  0  0
 81158  1  0  0  0
 83159  1  0  0  0
M  CHG  1  83   1
M  ISO  4   1 100  68 101  78 101  80 100
M  END
> <chiral flag>
0

> <version>
0

> <s_m_source_file>
/data/baiqing/PycharmProjects/Reinvent-master-3.2/result/LINK_invent/BTK/process_docking_weight1_custom_sum_contain_oxygen_bond_distance_aromatic_linkinvent_7_9_3/rearranged_h_0057.sdf

> <i_m_source_file_index>
64

> <r_mmod_Potential_Energy-OPLS-2005>
-247.887481689453

> <r_mmod_Stretch_Energy-OPLS-2005>
75.1639785766602

> <r_mmod_Bend_Energy-OPLS-2005>
131.315734863281

> <r_mmod_Torsional_Energy-OPLS-2005>
210.703796386719

> <r_mmod_Improper_Torsional_Energy-OPLS-2005>
3.42520403862

> <r_mmod_Van_der_Waal_Energy-OPLS-2005>
143.093566894531

> <r_mmod_Electrostatic_Energy-OPLS-2005>
-394.844940185547

> <r_mmod_Solvation_Energy-OPLS-2005>
-456.702697753906

> <b_mmod_Minimization_Converged-OPLS-2005>
0

> <r_mmod_RMS_Derivative-OPLS-2005>
0.944988906383514

$$$$
64
                    3D
 Structure written by MMmdl.
167175  0  0  1  0            999 V2000
  -30.6727  -14.5148   20.6004 C   0  0  0  0  0  0
  -30.4427  -12.3466   19.4255 C   0  0  0  0  0  0
  -29.5018  -12.5477   18.2156 C   0  0  0  0  0  0
  -28.0223  -12.3970   18.6205 C   0  0  0  0  0  0
  -27.6753  -13.2030   19.8984 C   0  0  2  0  0  0
  -28.7193  -12.9562   21.0135 C   0  0  0  0  0  0
  -25.2661  -13.8130   20.5664 C   0  0  0  0  0  0
  -24.1917  -13.0419   20.9139 C   0  0  0  0  0  0
  -24.6487  -11.6884   20.8782 C   0  0  0  0  0  0
  -23.9150  -10.4267   21.0454 C   0  0  0  0  0  0
  -24.3684   -9.4170   21.9215 C   0  0  0  0  0  0
  -23.6334   -8.2225   22.0786 C   0  0  0  0  0  0
  -22.4300   -8.0321   21.3596 C   0  0  0  0  0  0
  -21.9965   -9.0284   20.4672 C   0  0  0  0  0  0
  -22.7330  -10.2147   20.3090 C   0  0  0  0  0  0
  -21.6861   -6.0759   22.5284 C   0  0  0  0  0  0
  -21.4028   -6.5667   23.8219 C   0  0  0  0  0  0
  -21.3645   -5.6821   24.9168 C   0  0  0  0  0  0
  -21.6031   -4.3078   24.7225 C   0  0  0  0  0  0
  -21.8812   -3.8181   23.4336 C   0  0  0  0  0  0
  -21.9200   -4.6986   22.3394 C   0  0  0  0  0  0
  -22.7946  -13.5215   21.1822 C   0  0  0  0  0  0
  -22.1671   -4.2178   21.0967 F   0  0  0  0  0  0
  -21.5614   -3.4567   25.7730 F   0  0  0  0  0  0
  -30.0526  -13.3042   20.4720 N   0  0  0  0  0  0
  -26.3128  -12.9293   20.3475 N   0  0  0  0  0  0
  -25.9418  -11.6451   20.5831 N   0  0  0  0  0  0
  -22.0611  -12.8199   22.0367 N   0  0  0  0  0  0
  -25.4431  -15.1857   20.4069 N   0  0  0  0  0  0
  -31.7381  -14.7949   20.0459 O   0  0  0  0  0  0
  -21.6673   -6.8929   21.4263 O   0  0  0  0  0  0
  -22.3650  -14.5570   20.6742 O   0  0  0  0  0  0
  -24.6261  -31.8659   23.2116 C   0  0  0  0  0  0
  -25.9142  -32.4796   23.8380 C   0  0  1  0  0  0
  -27.2360  -27.3970   20.0545 C   0  0  0  0  0  0
  -25.5966  -33.8586   24.2326 N   0  0  0  0  0  0
  -23.4120  -30.4971   21.5562 C   0  0  2  0  0  0
  -24.8523  -28.9713   20.1217 C   0  0  0  0  0  0
  -22.7461  -29.4661   22.4981 C   0  0  0  0  0  0
  -18.0268  -28.1384   22.8484 C   0  0  0  0  0  0
  -24.1510  -36.7293   23.2626 C   0  0  0  0  0  0
  -25.9546  -30.8236   21.3668 C   0  0  0  0  0  0
  -26.0279  -29.4637   20.6952 C   0  0  0  0  0  0
  -27.2200  -28.6900   20.6513 C   0  0  0  0  0  0
  -26.0103  -26.9359   19.5279 C   0  0  0  0  0  0
  -24.8374  -27.7006   19.5406 C   0  0  0  0  0  0
  -23.6219  -29.8446   20.1695 C   0  0  0  0  0  0
  -25.4125  -36.3087   24.0333 C   0  0  1  0  0  0
  -20.5862  -28.3699   23.1281 C   0  0  2  0  0  0
  -20.6743  -26.9423   22.5410 C   0  0  0  0  0  0
  -19.5735  -26.6383   21.5188 C   0  0  0  0  0  0
  -18.1912  -26.7933   22.1600 C   0  0  0  0  0  0
  -19.1520  -28.8854   23.2881 C   0  0  0  0  0  0
  -18.9451  -30.1425   23.8928 C   0  0  0  0  0  0
  -17.6456  -30.6591   24.0553 C   0  0  0  0  0  0
  -25.9050  -34.9461   23.5117 C   0  0  0  0  0  0
  -16.5344  -29.9089   23.6324 C   0  0  0  0  0  0
  -16.7249  -28.6499   23.0362 C   0  0  0  0  0  0
  -26.4534  -31.6553   25.0702 C   0  0  0  0  0  0
  -25.3807  -31.3651   26.1448 C   0  0  0  0  0  0
  -27.0295  -30.2967   24.6071 C   0  0  0  0  0  0
  -27.6094  -32.4244   25.7489 C   0  0  0  0  0  0
  -27.5583  -37.1827   24.8474 C   0  0  0  0  0  0
  -21.4184  -29.3060   22.3710 N   0  0  0  0  0  0
  -26.4288  -37.3786   23.9416 N   0  0  0  0  0  0
  -24.6825  -31.0756   22.1016 N   0  0  0  0  0  0
  -23.4218  -28.8156   23.3007 O   0  0  0  0  0  0
  -28.4072  -26.6303   20.0995 O   0  0  0  0  0  0
  -26.5580  -34.8921   22.4657 O   0  0  0  0  0  0
  -23.5449  -32.1381   23.7521 O   0  0  0  0  0  0
  -29.7368  -21.1045   19.6047 C   0  0  0  0  0  0
  -27.7429  -21.5179   19.2190 C   0  0  0  0  0  0
  -26.2839  -21.3059   18.9565 C   0  0  0  0  0  0
  -26.9067  -24.1827   18.0512 C   0  0  0  0  0  0
  -26.8796  -24.0912   20.6804 C   0  0  0  0  0  0
  -30.9857  -19.8202   22.2925 C   0  0  0  0  0  0
  -30.9537  -20.2444   19.8675 C   0  0  0  0  0  0
  -29.8134  -16.9044   21.2335 C   0  0  0  0  0  0
  -30.9799  -17.8323   20.7691 C   0  0  0  0  0  0
  -28.6980  -25.3552   19.4065 C   0  0  0  0  0  0
  -27.7297  -24.0897   19.3790 C   0  0  0  0  0  0
  -28.5512  -20.4779   19.3843 N   0  0  0  0  0  0
  -29.6798  -22.4487   19.6229 N   0  0  0  0  0  0
  -28.3584  -22.7204   19.3523 N   0  0  0  0  0  0
  -29.9476  -15.4255   21.2834 N   0  0  0  0  0  0
  -30.6163  -19.2839   20.9583 N   0  3  1  0  0  0
  -31.4847  -12.4700   19.1297 H   0  0  0  0  0  0
  -30.3594  -11.3268   19.8018 H   0  0  0  0  0  0
  -29.7450  -11.8348   17.4272 H   0  0  0  0  0  0
  -29.6618  -13.5398   17.7885 H   0  0  0  0  0  0
  -27.8268  -11.3366   18.7790 H   0  0  0  0  0  0
  -27.3744  -12.7111   17.8006 H   0  0  0  0  0  0
  -27.7313  -14.2593   19.6362 H   0  0  0  0  0  0
  -28.7077  -11.9101   21.3250 H   0  0  0  0  0  0
  -28.4590  -13.5182   21.9117 H   0  0  0  0  0  0
  -25.2826   -9.5629   22.4796 H   0  0  0  0  0  0
  -24.0022   -7.4628   22.7511 H   0  0  0  0  0  0
  -21.0895   -8.8857   19.8966 H   0  0  0  0  0  0
  -22.3835  -10.9728   19.6231 H   0  0  0  0  0  0
  -21.2066   -7.6193   23.9743 H   0  0  0  0  0  0
  -21.1459   -6.0552   25.9078 H   0  0  0  0  0  0
  -22.0613   -2.7649   23.2847 H   0  0  0  0  0  0
  -22.4183  -11.9757   22.4591 H   0  0  0  0  0  0
  -21.1296  -13.1317   22.2734 H   0  0  0  0  0  0
  -24.6861  -15.8504   20.5231 H   0  0  0  0  0  0
  -26.3077  -15.6193   20.1142 H   0  0  0  0  0  0
  -26.7217  -32.5510   23.1137 H   0  0  0  0  0  0
  -25.0198  -33.9710   25.0527 H   0  0  0  0  0  0
  -22.7024  -31.3175   21.4238 H   0  0  0  0  0  0
  -23.3754  -35.9635   23.3274 H   0  0  0  0  0  0
  -24.3639  -36.8912   22.2046 H   0  0  0  0  0  0
  -23.7282  -37.6509   23.6634 H   0  0  0  0  0  0
  -26.0854  -31.5979   20.6111 H   0  0  0  0  0  0
  -26.8374  -30.8608   21.9928 H   0  0  0  0  0  0
  -28.1323  -29.0765   21.0829 H   0  0  0  0  0  0
  -25.8730  -25.9495   19.1658 H   0  0  0  0  0  0
  -23.9195  -27.2884   19.1417 H   0  0  0  0  0  0
  -23.7511  -30.6271   19.4213 H   0  0  0  0  0  0
  -22.7425  -29.2796   19.8592 H   0  0  0  0  0  0
  -25.1314  -36.1909   25.0823 H   0  0  0  0  0  0
  -20.9949  -28.3269   24.1400 H   0  0  0  0  0  0
  -20.5621  -26.2315   23.3609 H   0  0  0  0  0  0
  -21.6618  -26.7440   22.1219 H   0  0  0  0  0  0
  -19.6902  -25.6291   21.1223 H   0  0  0  0  0  0
  -19.6665  -27.3177   20.6707 H   0  0  0  0  0  0
  -17.4177  -26.6661   21.4001 H   0  0  0  0  0  0
  -18.0332  -26.0061   22.8999 H   0  0  0  0  0  0
  -19.7919  -30.7200   24.2367 H   0  0  0  0  0  0
  -17.5019  -31.6291   24.5121 H   0  0  0  0  0  0
  -15.5352  -30.3008   23.7632 H   0  0  0  0  0  0
  -15.8636  -28.0810   22.7104 H   0  0  0  0  0  0
  -24.6035  -30.6906   25.7850 H   0  0  0  0  0  0
  -24.8917  -32.2776   26.4869 H   0  0  0  0  0  0
  -25.8194  -30.8902   27.0231 H   0  0  0  0  0  0
  -26.2799  -29.6794   24.1097 H   0  0  0  0  0  0
  -27.4009  -29.7154   25.4527 H   0  0  0  0  0  0
  -27.8699  -30.4247   23.9227 H   0  0  0  0  0  0
  -27.2709  -33.3553   26.2058 H   0  0  0  0  0  0
  -28.3930  -32.6787   25.0334 H   0  0  0  0  0  0
  -28.0715  -31.8346   26.5422 H   0  0  0  0  0  0
  -28.2608  -38.0117   24.7508 H   0  0  0  0  0  0
  -28.1061  -36.2654   24.6297 H   0  0  0  0  0  0
  -27.2302  -37.1498   25.8875 H   0  0  0  0  0  0
  -20.9357  -29.8864   21.6994 H   0  0  0  0  0  0
  -26.0146  -38.2842   24.1441 H   0  0  0  0  0  0
  -26.0502  -20.2427   18.9642 H   0  0  0  0  0  0
  -25.9977  -21.6864   17.9789 H   0  0  0  0  0  0
  -25.6783  -21.7811   19.7209 H   0  0  0  0  0  0
  -26.9452  -25.1675   17.5835 H   0  0  0  0  0  0
  -27.2845  -23.5123   17.2796 H   0  0  0  0  0  0
  -25.8542  -23.9389   18.1946 H   0  0  0  0  0  0
  -26.8799  -25.0402   21.2066 H   0  0  0  0  0  0
  -27.2660  -23.3713   21.4039 H   0  0  0  0  0  0
  -25.8379  -23.8375   20.4999 H   0  0  0  0  0  0
  -30.6240  -20.8423   22.4187 H   0  0  0  0  0  0
  -32.0692  -19.8472   22.4211 H   0  0  0  0  0  0
  -30.5617  -19.2241   23.1002 H   0  0  0  0  0  0
  -31.8345  -20.8450   20.1023 H   0  0  0  0  0  0
  -31.1700  -19.7066   18.9453 H   0  0  0  0  0  0
  -28.9539  -17.1118   20.5913 H   0  0  0  0  0  0
  -29.5005  -17.2105   22.2337 H   0  0  0  0  0  0
  -31.1900  -17.6241   19.7202 H   0  0  0  0  0  0
  -31.8957  -17.6024   21.3149 H   0  0  0  0  0  0
  -29.0354  -25.5790   18.3947 H   0  0  0  0  0  0
  -29.6134  -25.0455   19.9107 H   0  0  0  0  0  0
  -29.1932  -14.9839   21.7887 H   0  0  0  0  0  0
  -29.6056  -19.3224   20.8930 H   0  0  0  0  0  0
  1 25  1  0  0  0
  1 30  2  0  0  0
  1 85  1  0  0  0
  2  3  1  0  0  0
  2 25  1  0  0  0
  2 87  1  0  0  0
  2 88  1  0  0  0
  3  4  1  0  0  0
  3 89  1  0  0  0
  3 90  1  0  0  0
  4  5  1  0  0  0
  4 91  1  0  0  0
  4 92  1  0  0  0
  5  6  1  0  0  0
  5 26  1  0  0  0
  5 93  1  0  0  0
  6 25  1  0  0  0
  6 94  1  0  0  0
  6 95  1  0  0  0
  7  8  2  0  0  0
  7 26  1  0  0  0
  7 29  1  0  0  0
  8  9  1  0  0  0
  8 22  1  0  0  0
  9 10  1  0  0  0
  9 27  2  0  0  0
 10 11  2  0  0  0
 10 15  1  0  0  0
 11 12  1  0  0  0
 11 96  1  0  0  0
 12 13  2  0  0  0
 12 97  1  0  0  0
 13 14  1  0  0  0
 13 31  1  0  0  0
 14 15  2  0  0  0
 14 98  1  0  0  0
 15 99  1  0  0  0
 16 17  2  0  0  0
 16 21  1  0  0  0
 16 31  1  0  0  0
 17 18  1  0  0  0
 17100  1  0  0  0
 18 19  2  0  0  0
 18101  1  0  0  0
 19 20  1  0  0  0
 19 24  1  0  0  0
 20 21  2  0  0  0
 20102  1  0  0  0
 21 23  1  0  0  0
 22 28  1  0  0  0
 22 32  2  0  0  0
 26 27  1  0  0  0
 28103  1  0  0  0
 28104  1  0  0  0
 29105  1  0  0  0
 29106  1  0  0  0
 33 34  1  0  0  0
 33 66  1  0  0  0
 33 70  2  0  0  0
 34 36  1  0  0  0
 34 59  1  0  0  0
 34107  1  0  0  0
 35 44  2  0  0  0
 35 45  1  0  0  0
 35 68  1  0  0  0
 36 56  1  0  0  0
 36108  1  0  0  0
 37 39  1  0  0  0
 37 47  1  0  0  0
 37 66  1  0  0  0
 37109  1  0  0  0
 38 43  2  0  0  0
 38 46  1  0  0  0
 38 47  1  0  0  0
 39 64  1  0  0  0
 39 67  2  0  0  0
 40 52  1  0  0  0
 40 53  2  0  0  0
 40 58  1  0  0  0
 41110  1  0  0  0
 41111  1  0  0  0
 41112  1  0  0  0
 41 48  1  0  0  0
 42 43  1  0  0  0
 42 66  1  0  0  0
 42113  1  0  0  0
 42114  1  0  0  0
 43 44  1  0  0  0
 44115  1  0  0  0
 45 46  2  0  0  0
 45116  1  0  0  0
 46117  1  0  0  0
 47118  1  0  0  0
 47119  1  0  0  0
 48 56  1  0  0  0
 48 65  1  0  0  0
 48120  1  0  0  0
 49 50  1  0  0  0
 49 53  1  0  0  0
 49 64  1  0  0  0
 49121  1  0  0  0
 50 51  1  0  0  0
 50122  1  0  0  0
 50123  1  0  0  0
 51 52  1  0  0  0
 51124  1  0  0  0
 51125  1  0  0  0
 52126  1  0  0  0
 52127  1  0  0  0
 53 54  1  0  0  0
 54 55  2  0  0  0
 54128  1  0  0  0
 55 57  1  0  0  0
 55129  1  0  0  0
 56 69  2  0  0  0
 57 58  2  0  0  0
 57130  1  0  0  0
 58131  1  0  0  0
 59 60  1  0  0  0
 59 61  1  0  0  0
 59 62  1  0  0  0
 60132  1  0  0  0
 60133  1  0  0  0
 60134  1  0  0  0
 61135  1  0  0  0
 61136  1  0  0  0
 61137  1  0  0  0
 62138  1  0  0  0
 62139  1  0  0  0
 62140  1  0  0  0
 63 65  1  0  0  0
 63141  1  0  0  0
 63142  1  0  0  0
 63143  1  0  0  0
 64144  1  0  0  0
 65145  1  0  0  0
 68 80  1  0  0  0
 71 77  1  0  0  0
 71 82  1  0  0  0
 71 83  2  0  0  0
 72 73  1  0  0  0
 72 82  2  0  0  0
 72 84  1  0  0  0
 73146  1  0  0  0
 73147  1  0  0  0
 73148  1  0  0  0
 74149  1  0  0  0
 74150  1  0  0  0
 74151  1  0  0  0
 74 81  1  0  0  0
 75 81  1  0  0  0
 75152  1  0  0  0
 75153  1  0  0  0
 75154  1  0  0  0
 76155  1  0  0  0
 76156  1  0  0  0
 76157  1  0  0  0
 76 86  1  0  0  0
 77 86  1  0  0  0
 77158  1  0  0  0
 77159  1  0  0  0
 78 79  1  0  0  0
 78 85  1  0  0  0
 78160  1  0  0  0
 78161  1  0  0  0
 79 86  1  0  0  0
 79162  1  0  0  0
 79163  1  0  0  0
 80 81  1  0  0  0
 80164  1  0  0  0
 80165  1  0  0  0
 81 84  1  0  0  0
 83 84  1  0  0  0
 85166  1  0  0  0
 86167  1  0  0  0
M  CHG  1  86   1
M  ISO  4   1 100  68 101  80 101  85 100
M  END
> <chiral flag>
0

> <version>
0

> <s_m_source_file>
/data/baiqing/PycharmProjects/Reinvent-master-3.2/result/LINK_invent/BTK/process_docking_weight1_custom_sum_contain_oxygen_bond_distance_aromatic_linkinvent_7_9_3/rearranged_h_0057.sdf

> <i_m_source_file_index>
65

> <r_mmod_Potential_Energy-OPLS-2005>
-135.804901123047

> <r_mmod_Stretch_Energy-OPLS-2005>
64.6053009033203

> <r_mmod_Bend_Energy-OPLS-2005>
209.220947265625

> <r_mmod_Torsional_Energy-OPLS-2005>
263.919158935547

> <r_mmod_Improper_Torsional_Energy-OPLS-2005>
4.65775585174561

> <r_mmod_Van_der_Waal_Energy-OPLS-2005>
154.917633056641

> <r_mmod_Electrostatic_Energy-OPLS-2005>
-416.149322509766

> <r_mmod_Solvation_Energy-OPLS-2005>
-437.144927978516

> <b_mmod_Minimization_Converged-OPLS-2005>
0

> <r_mmod_RMS_Derivative-OPLS-2005>
4.94239139556885

$$$$
65
                    3D
 Structure written by MMmdl.
150158  0  0  1  0            999 V2000
  -30.5304  -15.0176   20.4751 C   0  0  0  0  0  0
  -30.4455  -12.6532   19.5007 C   0  0  0  0  0  0
  -29.5239  -12.5681   18.2583 C   0  0  0  0  0  0
  -28.0546  -12.3439   18.6633 C   0  0  0  0  0  0
  -27.6304  -13.2492   19.8465 C   0  0  2  0  0  0
  -28.6735  -13.2313   20.9784 C   0  0  0  0  0  0
  -25.2457  -13.8201   20.5710 C   0  0  0  0  0  0
  -24.1780  -13.0426   20.9232 C   0  0  0  0  0  0
  -24.6387  -11.6908   20.8739 C   0  0  0  0  0  0
  -23.9069  -10.4287   21.0384 C   0  0  0  0  0  0
  -24.3623   -9.4207   21.9160 C   0  0  0  0  0  0
  -23.6299   -8.2242   22.0732 C   0  0  0  0  0  0
  -22.4272   -8.0288   21.3541 C   0  0  0  0  0  0
  -21.9909   -9.0250   20.4635 C   0  0  0  0  0  0
  -22.7231  -10.2133   20.3040 C   0  0  0  0  0  0
  -21.6861   -6.0738   22.5281 C   0  0  0  0  0  0
  -21.4012   -6.5623   23.8225 C   0  0  0  0  0  0
  -21.3679   -5.6770   24.9179 C   0  0  0  0  0  0
  -21.6045   -4.3033   24.7215 C   0  0  0  0  0  0
  -21.8821   -3.8137   23.4326 C   0  0  0  0  0  0
  -21.9193   -4.6962   22.3396 C   0  0  0  0  0  0
  -22.7805  -13.5203   21.1912 C   0  0  0  0  0  0
  -22.1664   -4.2148   21.0974 F   0  0  0  0  0  0
  -21.5643   -3.4521   25.7732 F   0  0  0  0  0  0
  -29.9372  -13.7373   20.4053 N   0  0  0  0  0  0
  -26.2882  -12.9431   20.3252 N   0  0  0  0  0  0
  -25.9320  -11.6552   20.5719 N   0  0  0  0  0  0
  -22.0471  -12.8195   22.0480 N   0  0  0  0  0  0
  -25.4140  -15.1939   20.4132 N   0  0  0  0  0  0
  -31.6991  -15.0759   20.0702 O   0  0  0  0  0  0
  -21.6635   -6.8879   21.4250 O   0  0  0  0  0  0
  -22.3489  -14.5509   20.6767 O   0  0  0  0  0  0
  -24.6489  -31.8402   23.1871 C   0  0  0  0  0  0
  -25.9240  -32.4678   23.8271 C   0  0  1  0  0  0
  -27.2153  -27.0870   20.1597 C   0  0  0  0  0  0
  -25.5975  -33.8487   24.2185 N   0  0  0  0  0  0
  -23.4550  -30.4610   21.5338 C   0  0  2  0  0  0
  -24.9063  -28.8825   20.1129 C   0  0  0  0  0  0
  -22.7603  -29.4527   22.4841 C   0  0  0  0  0  0
  -18.0321  -28.1392   22.8489 C   0  0  0  0  0  0
  -24.1480  -36.7212   23.2642 C   0  0  0  0  0  0
  -26.0171  -30.6968   21.3968 C   0  0  0  0  0  0
  -26.0876  -29.3046   20.7385 C   0  0  0  0  0  0
  -27.2425  -28.4248   20.7450 C   0  0  0  0  0  0
  -26.0132  -26.7926   19.4754 C   0  0  0  0  0  0
  -24.8855  -27.6403   19.4655 C   0  0  0  0  0  0
  -23.6857  -29.7921   20.1538 C   0  0  0  0  0  0
  -25.4118  -36.3009   24.0315 C   0  0  1  0  0  0
  -20.5943  -28.3717   23.1219 C   0  0  2  0  0  0
  -20.6802  -26.9409   22.5405 C   0  0  0  0  0  0
  -19.5770  -26.6374   21.5220 C   0  0  0  0  0  0
  -18.1953  -26.7931   22.1636 C   0  0  0  0  0  0
  -19.1581  -28.8877   23.2847 C   0  0  0  0  0  0
  -18.9489  -30.1476   23.8867 C   0  0  0  0  0  0
  -17.6481  -30.6591   24.0562 C   0  0  0  0  0  0
  -25.9085  -34.9393   23.5056 C   0  0  0  0  0  0
  -16.5374  -29.9077   23.6347 C   0  0  0  0  0  0
  -16.7302  -28.6496   23.0368 C   0  0  0  0  0  0
  -26.4552  -31.6554   25.0721 C   0  0  0  0  0  0
  -25.3741  -31.3741   26.1414 C   0  0  0  0  0  0
  -27.0413  -30.2941   24.6327 C   0  0  0  0  0  0
  -27.6071  -32.4330   25.7506 C   0  0  0  0  0  0
  -27.5567  -37.1765   24.8477 C   0  0  0  0  0  0
  -21.4289  -29.3038   22.3583 N   0  0  0  0  0  0
  -26.4275  -37.3732   23.9424 N   0  0  0  0  0  0
  -24.7274  -31.0209   22.0941 N   0  0  0  0  0  0
  -23.4224  -28.8071   23.3009 O   0  0  0  0  0  0
  -28.2371  -26.0486   20.1993 O   0  0  0  0  0  0
  -26.5662  -34.8898   22.4631 O   0  0  0  0  0  0
  -23.5593  -32.1307   23.7062 O   0  0  0  0  0  0
  -29.7611  -22.6284   19.5281 C   0  0  0  0  0  0
  -28.3319  -21.8019   20.8488 C   0  0  0  0  0  0
  -28.6457  -23.0867   20.3203 C   0  0  0  0  0  0
  -29.0040  -16.2323   21.9941 C   0  0  0  0  0  0
  -27.8358  -24.5535   20.5100 C   0  0  0  0  0  0
  -29.0579  -19.1128   20.7495 C   0  0  0  0  0  0
  -30.0420  -17.7730   20.3052 C   0  0  0  0  0  0
  -30.0425  -21.2863   19.5815 N   0  0  0  0  0  0
  -29.1482  -20.6840   20.4152 N   0  0  0  0  0  0
  -29.8056  -16.2418   20.7660 N   0  0  0  0  0  0
  -31.4681  -12.8383   19.1709 H   0  0  0  0  0  0
  -30.4823  -11.6953   20.0217 H   0  0  0  0  0  0
  -29.8545  -11.7666   17.5958 H   0  0  0  0  0  0
  -29.6035  -13.4959   17.6894 H   0  0  0  0  0  0
  -27.9455  -11.2968   18.9478 H   0  0  0  0  0  0
  -27.3979  -12.5043   17.8070 H   0  0  0  0  0  0
  -27.6058  -14.2647   19.4537 H   0  0  0  0  0  0
  -28.3126  -13.8027   21.8260 H   0  0  0  0  0  0
  -28.7966  -12.2198   21.3674 H   0  0  0  0  0  0
  -25.2773   -9.5688   22.4720 H   0  0  0  0  0  0
  -24.0029   -7.4622   22.7419 H   0  0  0  0  0  0
  -21.0854   -8.8749   19.8925 H   0  0  0  0  0  0
  -22.3678  -10.9673   19.6148 H   0  0  0  0  0  0
  -21.1996   -7.6134   23.9737 H   0  0  0  0  0  0
  -21.1511   -6.0485   25.9091 H   0  0  0  0  0  0
  -22.0583   -2.7597   23.2817 H   0  0  0  0  0  0
  -22.4104  -11.9868   22.4893 H   0  0  0  0  0  0
  -21.1092  -13.1221   22.2696 H   0  0  0  0  0  0
  -24.6449  -15.8459   20.5185 H   0  0  0  0  0  0
  -26.2600  -15.6327   20.0730 H   0  0  0  0  0  0
  -26.7310  -32.5274   23.1001 H   0  0  0  0  0  0
  -25.0120  -33.9598   25.0331 H   0  0  0  0  0  0
  -22.7609  -31.2901   21.3786 H   0  0  0  0  0  0
  -23.3765  -35.9523   23.3295 H   0  0  0  0  0  0
  -24.3565  -36.8850   22.2062 H   0  0  0  0  0  0
  -23.7215  -37.6395   23.6682 H   0  0  0  0  0  0
  -26.1849  -31.4496   20.6252 H   0  0  0  0  0  0
  -26.8829  -30.7452   22.0444 H   0  0  0  0  0  0
  -28.1384  -28.7433   21.2590 H   0  0  0  0  0  0
  -25.9104  -25.8620   18.9377 H   0  0  0  0  0  0
  -23.9922  -27.3169   18.9498 H   0  0  0  0  0  0
  -23.8296  -30.5686   19.4016 H   0  0  0  0  0  0
  -22.7983  -29.2414   19.8383 H   0  0  0  0  0  0
  -25.1309  -36.1826   25.0809 H   0  0  0  0  0  0
  -21.0057  -28.3318   24.1331 H   0  0  0  0  0  0
  -20.5687  -26.2331   23.3634 H   0  0  0  0  0  0
  -21.6663  -26.7399   22.1204 H   0  0  0  0  0  0
  -19.6916  -25.6279   21.1259 H   0  0  0  0  0  0
  -19.6699  -27.3181   20.6747 H   0  0  0  0  0  0
  -17.4221  -26.6692   21.4037 H   0  0  0  0  0  0
  -18.0333  -26.0073   22.9030 H   0  0  0  0  0  0
  -19.7959  -30.7313   24.2210 H   0  0  0  0  0  0
  -17.5027  -31.6268   24.5163 H   0  0  0  0  0  0
  -15.5367  -30.2966   23.7674 H   0  0  0  0  0  0
  -15.8707  -28.0798   22.7094 H   0  0  0  0  0  0
  -24.5940  -30.7059   25.7746 H   0  0  0  0  0  0
  -24.8907  -32.2915   26.4782 H   0  0  0  0  0  0
  -25.8039  -30.8970   27.0231 H   0  0  0  0  0  0
  -26.3028  -29.6665   24.1323 H   0  0  0  0  0  0
  -27.3998  -29.7241   25.4909 H   0  0  0  0  0  0
  -27.8959  -30.4154   23.9664 H   0  0  0  0  0  0
  -27.2656  -33.3660   26.1999 H   0  0  0  0  0  0
  -28.3924  -32.6848   25.0366 H   0  0  0  0  0  0
  -28.0688  -31.8516   26.5497 H   0  0  0  0  0  0
  -28.2586  -38.0062   24.7525 H   0  0  0  0  0  0
  -28.1061  -36.2593   24.6301 H   0  0  0  0  0  0
  -27.2282  -37.1404   25.8879 H   0  0  0  0  0  0
  -20.9504  -29.8735   21.6744 H   0  0  0  0  0  0
  -26.0129  -38.2786   24.1465 H   0  0  0  0  0  0
  -30.3745  -23.2297   18.8722 H   0  0  0  0  0  0
  -27.5204  -21.5730   21.5260 H   0  0  0  0  0  0
  -27.9430  -16.1232   21.7643 H   0  0  0  0  0  0
  -29.1350  -17.1287   22.5939 H   0  0  0  0  0  0
  -29.3058  -15.4396   22.6782 H   0  0  0  0  0  0
  -27.5713  -24.6145   21.5661 H   0  0  0  0  0  0
  -26.8692  -24.3908   20.0434 H   0  0  0  0  0  0
  -29.0242  -19.1083   21.8359 H   0  0  0  0  0  0
  -28.0433  -18.8394   20.4565 H   0  0  0  0  0  0
  -31.0653  -18.0131   20.6003 H   0  0  0  0  0  0
  -30.0808  -17.7575   19.2156 H   0  0  0  0  0  0
  1 25  1  0  0  0
  1 30  2  0  0  0
  1 80  1  0  0  0
  2  3  1  0  0  0
  2 25  1  0  0  0
  2 81  1  0  0  0
  2 82  1  0  0  0
  3  4  1  0  0  0
  3 83  1  0  0  0
  3 84  1  0  0  0
  4  5  1  0  0  0
  4 85  1  0  0  0
  4 86  1  0  0  0
  5  6  1  0  0  0
  5 26  1  0  0  0
  5 87  1  0  0  0
  6 25  1  0  0  0
  6 88  1  0  0  0
  6 89  1  0  0  0
  7  8  2  0  0  0
  7 26  1  0  0  0
  7 29  1  0  0  0
  8  9  1  0  0  0
  8 22  1  0  0  0
  9 10  1  0  0  0
  9 27  2  0  0  0
 10 11  2  0  0  0
 10 15  1  0  0  0
 11 12  1  0  0  0
 11 90  1  0  0  0
 12 13  2  0  0  0
 12 91  1  0  0  0
 13 14  1  0  0  0
 13 31  1  0  0  0
 14 15  2  0  0  0
 14 92  1  0  0  0
 15 93  1  0  0  0
 16 17  2  0  0  0
 16 21  1  0  0  0
 16 31  1  0  0  0
 17 18  1  0  0  0
 17 94  1  0  0  0
 18 19  2  0  0  0
 18 95  1  0  0  0
 19 20  1  0  0  0
 19 24  1  0  0  0
 20 21  2  0  0  0
 20 96  1  0  0  0
 21 23  1  0  0  0
 22 28  1  0  0  0
 22 32  2  0  0  0
 26 27  1  0  0  0
 28 97  1  0  0  0
 28 98  1  0  0  0
 29 99  1  0  0  0
 29100  1  0  0  0
 33 34  1  0  0  0
 33 66  1  0  0  0
 33 70  2  0  0  0
 34 36  1  0  0  0
 34 59  1  0  0  0
 34101  1  0  0  0
 35 44  2  0  0  0
 35 45  1  0  0  0
 35 68  1  0  0  0
 36 56  1  0  0  0
 36102  1  0  0  0
 37 39  1  0  0  0
 37 47  1  0  0  0
 37 66  1  0  0  0
 37103  1  0  0  0
 38 43  2  0  0  0
 38 46  1  0  0  0
 38 47  1  0  0  0
 39 64  1  0  0  0
 39 67  2  0  0  0
 40 52  1  0  0  0
 40 53  2  0  0  0
 40 58  1  0  0  0
 41104  1  0  0  0
 41105  1  0  0  0
 41106  1  0  0  0
 41 48  1  0  0  0
 42 43  1  0  0  0
 42 66  1  0  0  0
 42107  1  0  0  0
 42108  1  0  0  0
 43 44  1  0  0  0
 44109  1  0  0  0
 45 46  2  0  0  0
 45110  1  0  0  0
 46111  1  0  0  0
 47112  1  0  0  0
 47113  1  0  0  0
 48 56  1  0  0  0
 48 65  1  0  0  0
 48114  1  0  0  0
 49 50  1  0  0  0
 49 53  1  0  0  0
 49 64  1  0  0  0
 49115  1  0  0  0
 50 51  1  0  0  0
 50116  1  0  0  0
 50117  1  0  0  0
 51 52  1  0  0  0
 51118  1  0  0  0
 51119  1  0  0  0
 52120  1  0  0  0
 52121  1  0  0  0
 53 54  1  0  0  0
 54 55  2  0  0  0
 54122  1  0  0  0
 55 57  1  0  0  0
 55123  1  0  0  0
 56 69  2  0  0  0
 57 58  2  0  0  0
 57124  1  0  0  0
 58125  1  0  0  0
 59 60  1  0  0  0
 59 61  1  0  0  0
 59 62  1  0  0  0
 60126  1  0  0  0
 60127  1  0  0  0
 60128  1  0  0  0
 61129  1  0  0  0
 61130  1  0  0  0
 61131  1  0  0  0
 62132  1  0  0  0
 62133  1  0  0  0
 62134  1  0  0  0
 63 65  1  0  0  0
 63135  1  0  0  0
 63136  1  0  0  0
 63137  1  0  0  0
 64138  1  0  0  0
 65139  1  0  0  0
 68 75  1  0  0  0
 71 73  1  0  0  0
 71 78  2  0  0  0
 71140  1  0  0  0
 72 73  2  0  0  0
 72 79  1  0  0  0
 72141  1  0  0  0
 73 75  1  0  0  0
 74 80  1  0  0  0
 74142  1  0  0  0
 74143  1  0  0  0
 74144  1  0  0  0
 75145  1  0  0  0
 75146  1  0  0  0
 76 77  1  0  0  0
 76 79  1  0  0  0
 76147  1  0  0  0
 76148  1  0  0  0
 77 80  1  0  0  0
 77149  1  0  0  0
 77150  1  0  0  0
 78 79  1  0  0  0
M  ISO  4   1 100  68 101  75 101  80 100
M  END
> <chiral flag>
0

> <version>
0

> <s_m_source_file>
/data/baiqing/PycharmProjects/Reinvent-master-3.2/result/LINK_invent/BTK/process_docking_weight1_custom_sum_contain_oxygen_bond_distance_aromatic_linkinvent_7_9_3/rearranged_h_0057.sdf

> <i_m_source_file_index>
66

> <r_mmod_Potential_Energy-OPLS-2005>
784.593933105469

> <r_mmod_Stretch_Energy-OPLS-2005>
324.811737060547

> <r_mmod_Bend_Energy-OPLS-2005>
320.694213867188

> <r_mmod_Torsional_Energy-OPLS-2005>
290.881958007812

> <r_mmod_Improper_Torsional_Energy-OPLS-2005>
6.56255960464478

> <r_mmod_Van_der_Waal_Energy-OPLS-2005>
123.893836975098

> <r_mmod_Electrostatic_Energy-OPLS-2005>
-288.959930419922

> <r_mmod_Solvation_Energy-OPLS-2005>
-227.531127929688

> <b_mmod_Minimization_Converged-OPLS-2005>
0

> <r_mmod_RMS_Derivative-OPLS-2005>
2.36066722869873

$$$$
66
                    3D
 Structure written by MMmdl.
154162  0  0  1  0            999 V2000
  -30.5616  -14.9944   20.3436 C   0  0  0  0  0  0
  -30.4519  -12.6015   19.5132 C   0  0  0  0  0  0
  -29.5498  -12.5231   18.2602 C   0  0  0  0  0  0
  -28.0746  -12.3201   18.6590 C   0  0  0  0  0  0
  -27.6351  -13.2545   19.8175 C   0  0  2  0  0  0
  -28.6802  -13.3440   20.9508 C   0  0  0  0  0  0
  -25.2577  -13.8181   20.5625 C   0  0  0  0  0  0
  -24.1895  -13.0440   20.9232 C   0  0  0  0  0  0
  -24.6516  -11.6916   20.8791 C   0  0  0  0  0  0
  -23.9169  -10.4289   21.0456 C   0  0  0  0  0  0
  -24.3705   -9.4179   21.9212 C   0  0  0  0  0  0
  -23.6370   -8.2204   22.0717 C   0  0  0  0  0  0
  -22.4373   -8.0249   21.3507 C   0  0  0  0  0  0
  -22.0050   -9.0252   20.4635 C   0  0  0  0  0  0
  -22.7359  -10.2131   20.3077 C   0  0  0  0  0  0
  -21.6868   -6.0743   22.5288 C   0  0  0  0  0  0
  -21.4011   -6.5658   23.8214 C   0  0  0  0  0  0
  -21.3665   -5.6814   24.9198 C   0  0  0  0  0  0
  -21.6056   -4.3063   24.7243 C   0  0  0  0  0  0
  -21.8828   -3.8155   23.4371 C   0  0  0  0  0  0
  -21.9186   -4.6973   22.3425 C   0  0  0  0  0  0
  -22.7922  -13.5208   21.1890 C   0  0  0  0  0  0
  -22.1672   -4.2126   21.0994 F   0  0  0  0  0  0
  -21.5629   -3.4565   25.7780 F   0  0  0  0  0  0
  -29.9580  -13.7340   20.3490 N   0  0  0  0  0  0
  -26.3009  -12.9405   20.3145 N   0  0  0  0  0  0
  -25.9426  -11.6548   20.5695 N   0  0  0  0  0  0
  -22.0570  -12.8137   22.0411 N   0  0  0  0  0  0
  -25.4336  -15.1867   20.3887 N   0  0  0  0  0  0
  -31.7980  -14.9652   20.2691 O   0  0  0  0  0  0
  -21.6678   -6.8882   21.4241 O   0  0  0  0  0  0
  -22.3572  -14.5524   20.6755 O   0  0  0  0  0  0
  -24.6458  -31.8411   23.1873 C   0  0  0  0  0  0
  -25.9231  -32.4648   23.8296 C   0  0  1  0  0  0
  -27.2437  -27.1062   20.1801 C   0  0  0  0  0  0
  -25.5954  -33.8456   24.2184 N   0  0  0  0  0  0
  -23.4502  -30.4581   21.5308 C   0  0  2  0  0  0
  -24.9029  -28.8644   20.1239 C   0  0  0  0  0  0
  -22.7548  -29.4548   22.4859 C   0  0  0  0  0  0
  -18.0295  -28.1380   22.8462 C   0  0  0  0  0  0
  -24.1477  -36.7235   23.2645 C   0  0  0  0  0  0
  -26.0057  -30.7084   21.3880 C   0  0  0  0  0  0
  -26.0808  -29.3107   20.7394 C   0  0  0  0  0  0
  -27.2473  -28.4520   20.7435 C   0  0  0  0  0  0
  -26.0357  -26.7609   19.5353 C   0  0  0  0  0  0
  -24.8933  -27.5986   19.5112 C   0  0  0  0  0  0
  -23.6792  -29.7730   20.1541 C   0  0  0  0  0  0
  -25.4101  -36.2987   24.0316 C   0  0  1  0  0  0
  -20.5908  -28.3715   23.1196 C   0  0  2  0  0  0
  -20.6752  -26.9412   22.5388 C   0  0  0  0  0  0
  -19.5731  -26.6355   21.5187 C   0  0  0  0  0  0
  -18.1918  -26.7903   22.1611 C   0  0  0  0  0  0
  -19.1555  -28.8862   23.2814 C   0  0  0  0  0  0
  -18.9482  -30.1457   23.8844 C   0  0  0  0  0  0
  -17.6484  -30.6576   24.0548 C   0  0  0  0  0  0
  -25.9084  -34.9377   23.5060 C   0  0  0  0  0  0
  -16.5374  -29.9071   23.6335 C   0  0  0  0  0  0
  -16.7290  -28.6487   23.0367 C   0  0  0  0  0  0
  -26.4563  -31.6544   25.0770 C   0  0  0  0  0  0
  -25.3771  -31.3747   26.1485 C   0  0  0  0  0  0
  -27.0438  -30.2912   24.6435 C   0  0  0  0  0  0
  -27.6032  -32.4366   25.7586 C   0  0  0  0  0  0
  -27.5570  -37.1753   24.8457 C   0  0  0  0  0  0
  -21.4243  -29.3053   22.3583 N   0  0  0  0  0  0
  -26.4248  -37.3719   23.9442 N   0  0  0  0  0  0
  -24.7209  -31.0256   22.0907 N   0  0  0  0  0  0
  -23.4156  -28.8134   23.3066 O   0  0  0  0  0  0
  -28.3505  -26.1690   20.1460 O   0  0  0  0  0  0
  -26.5704  -34.8893   22.4646 O   0  0  0  0  0  0
  -23.5568  -32.1295   23.7076 O   0  0  0  0  0  0
  -28.8166  -23.5911   19.6510 C   0  0  0  0  0  0
  -28.4354  -22.8258   21.5971 C   0  0  0  0  0  0
  -28.3775  -24.7325   20.4054 C   0  0  0  0  0  0
  -30.5605  -16.9858   18.6749 C   0  0  0  0  0  0
  -28.0913  -17.6714   21.5221 C   0  0  0  0  0  0
  -29.0443  -20.7909   19.9505 C   0  0  0  0  0  0
  -29.8447  -16.4759   19.9488 C   0  0  2  0  0  0
  -29.5164  -17.8294   20.9287 C   0  0  1  0  0  0
  -29.8377  -19.5178   20.7608 C   0  0  0  0  0  0
  -28.1620  -24.1594   21.6679 N   0  0  0  0  0  0
  -28.8305  -22.3244   20.4006 N   0  0  0  0  0  0
  -31.1204  -19.5873   20.4058 F   0  0  0  0  0  0
  -29.7998  -19.9456   22.0256 F   0  0  0  0  0  0
  -31.4908  -12.7438   19.2080 H   0  0  0  0  0  0
  -30.4285  -11.6602   20.0672 H   0  0  0  0  0  0
  -29.8831  -11.7226   17.6017 H   0  0  0  0  0  0
  -29.6519  -13.4404   17.6782 H   0  0  0  0  0  0
  -27.9572  -11.2813   18.9570 H   0  0  0  0  0  0
  -27.4298  -12.4624   17.7915 H   0  0  0  0  0  0
  -27.5774  -14.2474   19.3645 H   0  0  0  0  0  0
  -28.7800  -12.4009   21.4936 H   0  0  0  0  0  0
  -28.3848  -14.0986   21.6855 H   0  0  0  0  0  0
  -25.2826   -9.5606   22.4834 H   0  0  0  0  0  0
  -24.0026   -7.4606   22.7488 H   0  0  0  0  0  0
  -21.0932   -8.8866   19.8983 H   0  0  0  0  0  0
  -22.3851  -10.9718   19.6223 H   0  0  0  0  0  0
  -21.1992   -7.6177   23.9698 H   0  0  0  0  0  0
  -21.1491   -6.0566   25.9086 H   0  0  0  0  0  0
  -22.0596   -2.7615   23.2907 H   0  0  0  0  0  0
  -22.4252  -11.9866   22.4836 H   0  0  0  0  0  0
  -21.1179  -13.1082   22.2600 H   0  0  0  0  0  0
  -24.6764  -15.8598   20.4338 H   0  0  0  0  0  0
  -26.2743  -15.5747   19.9841 H   0  0  0  0  0  0
  -26.7315  -32.5268   23.1041 H   0  0  0  0  0  0
  -24.9987  -33.9564   25.0269 H   0  0  0  0  0  0
  -22.7519  -31.2826   21.3683 H   0  0  0  0  0  0
  -23.3755  -35.9549   23.3239 H   0  0  0  0  0  0
  -24.3566  -36.8948   22.2073 H   0  0  0  0  0  0
  -23.7229  -37.6401   23.6746 H   0  0  0  0  0  0
  -26.1633  -31.4590   20.6125 H   0  0  0  0  0  0
  -26.8681  -30.7562   22.0396 H   0  0  0  0  0  0
  -28.1552  -28.8146   21.2066 H   0  0  0  0  0  0
  -25.9744  -25.7945   19.0572 H   0  0  0  0  0  0
  -23.9960  -27.2402   19.0224 H   0  0  0  0  0  0
  -23.8192  -30.5423   19.3916 H   0  0  0  0  0  0
  -22.7911  -29.2117   19.8505 H   0  0  0  0  0  0
  -25.1275  -36.1775   25.0804 H   0  0  0  0  0  0
  -20.9995  -28.3324   24.1321 H   0  0  0  0  0  0
  -20.5527  -26.2381   23.3636 H   0  0  0  0  0  0
  -21.6636  -26.7349   22.1277 H   0  0  0  0  0  0
  -19.6896  -25.6245   21.1253 H   0  0  0  0  0  0
  -19.6654  -27.3122   20.6673 H   0  0  0  0  0  0
  -17.4181  -26.6634   21.4024 H   0  0  0  0  0  0
  -18.0353  -26.0033   22.8997 H   0  0  0  0  0  0
  -19.7980  -30.7272   24.2183 H   0  0  0  0  0  0
  -17.5064  -31.6257   24.5165 H   0  0  0  0  0  0
  -15.5370  -30.2971   23.7689 H   0  0  0  0  0  0
  -15.8689  -28.0789   22.7127 H   0  0  0  0  0  0
  -24.5878  -30.7169   25.7861 H   0  0  0  0  0  0
  -24.9075  -32.2933   26.4974 H   0  0  0  0  0  0
  -25.8060  -30.8880   27.0244 H   0  0  0  0  0  0
  -26.3112  -29.6604   24.1396 H   0  0  0  0  0  0
  -27.3927  -29.7223   25.5066 H   0  0  0  0  0  0
  -27.9046  -30.4060   23.9855 H   0  0  0  0  0  0
  -27.2518  -33.3606   26.2165 H   0  0  0  0  0  0
  -28.3846  -32.7033   25.0480 H   0  0  0  0  0  0
  -28.0714  -31.8555   26.5528 H   0  0  0  0  0  0
  -28.2522  -38.0118   24.7577 H   0  0  0  0  0  0
  -28.1117  -36.2646   24.6143 H   0  0  0  0  0  0
  -27.2317  -37.1256   25.8866 H   0  0  0  0  0  0
  -20.9457  -29.8792   21.6793 H   0  0  0  0  0  0
  -26.0087  -38.2756   24.1509 H   0  0  0  0  0  0
  -29.1269  -23.5696   18.6123 H   0  0  0  0  0  0
  -28.3187  -22.2000   22.4728 H   0  0  0  0  0  0
  -29.9570  -17.7088   18.1303 H   0  0  0  0  0  0
  -30.7743  -16.1745   17.9741 H   0  0  0  0  0  0
  -31.5113  -17.4606   18.9178 H   0  0  0  0  0  0
  -28.0201  -16.7981   22.1748 H   0  0  0  0  0  0
  -27.3285  -17.5782   20.7464 H   0  0  0  0  0  0
  -27.8112  -18.5255   22.1370 H   0  0  0  0  0  0
  -28.0528  -20.4208   19.6923 H   0  0  0  0  0  0
  -29.5346  -20.8465   18.9769 H   0  0  0  0  0  0
  -28.8632  -16.1642   19.5870 H   0  0  0  0  0  0
  -30.1686  -17.5939   21.7706 H   0  0  0  0  0  0
  1 25  1  0  0  0
  1 30  2  0  0  0
  1 77  1  0  0  0
  2  3  1  0  0  0
  2 25  1  0  0  0
  2 84  1  0  0  0
  2 85  1  0  0  0
  3  4  1  0  0  0
  3 86  1  0  0  0
  3 87  1  0  0  0
  4  5  1  0  0  0
  4 88  1  0  0  0
  4 89  1  0  0  0
  5  6  1  0  0  0
  5 26  1  0  0  0
  5 90  1  0  0  0
  6 25  1  0  0  0
  6 91  1  0  0  0
  6 92  1  0  0  0
  7  8  2  0  0  0
  7 26  1  0  0  0
  7 29  1  0  0  0
  8  9  1  0  0  0
  8 22  1  0  0  0
  9 10  1  0  0  0
  9 27  2  0  0  0
 10 11  2  0  0  0
 10 15  1  0  0  0
 11 12  1  0  0  0
 11 93  1  0  0  0
 12 13  2  0  0  0
 12 94  1  0  0  0
 13 14  1  0  0  0
 13 31  1  0  0  0
 14 15  2  0  0  0
 14 95  1  0  0  0
 15 96  1  0  0  0
 16 17  2  0  0  0
 16 21  1  0  0  0
 16 31  1  0  0  0
 17 18  1  0  0  0
 17 97  1  0  0  0
 18 19  2  0  0  0
 18 98  1  0  0  0
 19 20  1  0  0  0
 19 24  1  0  0  0
 20 21  2  0  0  0
 20 99  1  0  0  0
 21 23  1  0  0  0
 22 28  1  0  0  0
 22 32  2  0  0  0
 26 27  1  0  0  0
 28100  1  0  0  0
 28101  1  0  0  0
 29102  1  0  0  0
 29103  1  0  0  0
 33 34  1  0  0  0
 33 66  1  0  0  0
 33 70  2  0  0  0
 34 36  1  0  0  0
 34 59  1  0  0  0
 34104  1  0  0  0
 35 44  2  0  0  0
 35 45  1  0  0  0
 35 68  1  0  0  0
 36 56  1  0  0  0
 36105  1  0  0  0
 37 39  1  0  0  0
 37 47  1  0  0  0
 37 66  1  0  0  0
 37106  1  0  0  0
 38 43  2  0  0  0
 38 46  1  0  0  0
 38 47  1  0  0  0
 39 64  1  0  0  0
 39 67  2  0  0  0
 40 52  1  0  0  0
 40 53  2  0  0  0
 40 58  1  0  0  0
 41107  1  0  0  0
 41108  1  0  0  0
 41109  1  0  0  0
 41 48  1  0  0  0
 42 43  1  0  0  0
 42 66  1  0  0  0
 42110  1  0  0  0
 42111  1  0  0  0
 43 44  1  0  0  0
 44112  1  0  0  0
 45 46  2  0  0  0
 45113  1  0  0  0
 46114  1  0  0  0
 47115  1  0  0  0
 47116  1  0  0  0
 48 56  1  0  0  0
 48 65  1  0  0  0
 48117  1  0  0  0
 49 50  1  0  0  0
 49 53  1  0  0  0
 49 64  1  0  0  0
 49118  1  0  0  0
 50 51  1  0  0  0
 50119  1  0  0  0
 50120  1  0  0  0
 51 52  1  0  0  0
 51121  1  0  0  0
 51122  1  0  0  0
 52123  1  0  0  0
 52124  1  0  0  0
 53 54  1  0  0  0
 54 55  2  0  0  0
 54125  1  0  0  0
 55 57  1  0  0  0
 55126  1  0  0  0
 56 69  2  0  0  0
 57 58  2  0  0  0
 57127  1  0  0  0
 58128  1  0  0  0
 59 60  1  0  0  0
 59 61  1  0  0  0
 59 62  1  0  0  0
 60129  1  0  0  0
 60130  1  0  0  0
 60131  1  0  0  0
 61132  1  0  0  0
 61133  1  0  0  0
 61134  1  0  0  0
 62135  1  0  0  0
 62136  1  0  0  0
 62137  1  0  0  0
 63 65  1  0  0  0
 63138  1  0  0  0
 63139  1  0  0  0
 63140  1  0  0  0
 64141  1  0  0  0
 65142  1  0  0  0
 68 73  1  0  0  0
 71 73  2  0  0  0
 71 81  1  0  0  0
 71143  1  0  0  0
 72 80  2  0  0  0
 72 81  1  0  0  0
 72144  1  0  0  0
 73 80  1  0  0  0
 74145  1  0  0  0
 74146  1  0  0  0
 74147  1  0  0  0
 74 77  1  0  0  0
 75148  1  0  0  0
 75149  1  0  0  0
 75150  1  0  0  0
 75 78  1  0  0  0
 76 79  1  0  0  0
 76 81  1  0  0  0
 76151  1  0  0  0
 76152  1  0  0  0
 77 78  1  0  0  0
 77153  1  0  0  0
 78 79  1  0  0  0
 78154  1  0  0  0
 79 82  1  0  0  0
 79 83  1  0  0  0
M  ISO  4   1 100  68 101  73 101  77 100
M  END
> <chiral flag>
0

> <version>
0

> <s_m_source_file>
/data/baiqing/PycharmProjects/Reinvent-master-3.2/result/LINK_invent/BTK/process_docking_weight1_custom_sum_contain_oxygen_bond_distance_aromatic_linkinvent_7_9_3/rearranged_h_0057.sdf

> <i_m_source_file_index>
67

> <r_mmod_Potential_Energy-OPLS-2005>
739.081726074219

> <r_mmod_Stretch_Energy-OPLS-2005>
312.019927978516

> <r_mmod_Bend_Energy-OPLS-2005>
351.751495361328

> <r_mmod_Torsional_Energy-OPLS-2005>
265.353210449219

> <r_mmod_Improper_Torsional_Energy-OPLS-2005>
15.0549201965332

> <r_mmod_Van_der_Waal_Energy-OPLS-2005>
100.600021362305

> <r_mmod_Electrostatic_Energy-OPLS-2005>
-307.99365234375

> <r_mmod_Solvation_Energy-OPLS-2005>
-213.506195068359

> <b_mmod_Minimization_Converged-OPLS-2005>
0

> <r_mmod_RMS_Derivative-OPLS-2005>
7.77368497848511

$$$$
67
                    3D
 Structure written by MMmdl.
156164  0  0  1  0            999 V2000
  -30.5940  -14.7442   20.4672 C   0  0  0  0  0  0
  -30.4342  -12.4580   19.4666 C   0  0  0  0  0  0
  -29.5078  -12.5082   18.2318 C   0  0  0  0  0  0
  -28.0340  -12.3281   18.6470 C   0  0  0  0  0  0
  -27.6392  -13.2273   19.8483 C   0  0  2  0  0  0
  -28.6836  -13.1545   20.9829 C   0  0  0  0  0  0
  -25.2495  -13.8187   20.5685 C   0  0  0  0  0  0
  -24.1792  -13.0432   20.9214 C   0  0  0  0  0  0
  -24.6381  -11.6908   20.8751 C   0  0  0  0  0  0
  -23.9061  -10.4286   21.0410 C   0  0  0  0  0  0
  -24.3614   -9.4201   21.9185 C   0  0  0  0  0  0
  -23.6287   -8.2236   22.0754 C   0  0  0  0  0  0
  -22.4271   -8.0276   21.3545 C   0  0  0  0  0  0
  -21.9906   -9.0249   20.4648 C   0  0  0  0  0  0
  -22.7234  -10.2127   20.3057 C   0  0  0  0  0  0
  -21.6851   -6.0732   22.5282 C   0  0  0  0  0  0
  -21.4013   -6.5637   23.8214 C   0  0  0  0  0  0
  -21.3662   -5.6793   24.9178 C   0  0  0  0  0  0
  -21.6043   -4.3056   24.7229 C   0  0  0  0  0  0
  -21.8813   -3.8145   23.4351 C   0  0  0  0  0  0
  -21.9186   -4.6959   22.3404 C   0  0  0  0  0  0
  -22.7815  -13.5213   21.1880 C   0  0  0  0  0  0
  -22.1652   -4.2143   21.0983 F   0  0  0  0  0  0
  -21.5631   -3.4542   25.7742 F   0  0  0  0  0  0
  -29.9817  -13.5137   20.3994 N   0  0  0  0  0  0
  -26.2916  -12.9381   20.3264 N   0  0  0  0  0  0
  -25.9307  -11.6530   20.5746 N   0  0  0  0  0  0
  -22.0460  -12.8205   22.0440 N   0  0  0  0  0  0
  -25.4180  -15.1915   20.4093 N   0  0  0  0  0  0
  -31.7866  -14.8575   20.1720 O   0  0  0  0  0  0
  -21.6635   -6.8876   21.4242 O   0  0  0  0  0  0
  -22.3501  -14.5518   20.6729 O   0  0  0  0  0  0
  -24.6307  -31.8543   23.1959 C   0  0  0  0  0  0
  -25.9133  -32.4747   23.8312 C   0  0  1  0  0  0
  -27.2267  -27.2677   20.1408 C   0  0  0  0  0  0
  -25.5922  -33.8549   24.2237 N   0  0  0  0  0  0
  -23.4275  -30.4734   21.5398 C   0  0  2  0  0  0
  -24.8749  -28.9098   20.1179 C   0  0  0  0  0  0
  -22.7496  -29.4597   22.4928 C   0  0  0  0  0  0
  -18.0290  -28.1385   22.8487 C   0  0  0  0  0  0
  -24.1484  -36.7282   23.2644 C   0  0  0  0  0  0
  -25.9705  -30.7704   21.3713 C   0  0  0  0  0  0
  -26.0456  -29.3900   20.7193 C   0  0  0  0  0  0
  -27.2274  -28.5844   20.7102 C   0  0  0  0  0  0
  -26.0333  -26.8394   19.5268 C   0  0  0  0  0  0
  -24.8729  -27.6421   19.5101 C   0  0  0  0  0  0
  -23.6454  -29.7979   20.1593 C   0  0  0  0  0  0
  -25.4112  -36.3063   24.0325 C   0  0  1  0  0  0
  -20.5891  -28.3692   23.1275 C   0  0  2  0  0  0
  -20.6772  -26.9411   22.5411 C   0  0  0  0  0  0
  -19.5749  -26.6384   21.5212 C   0  0  0  0  0  0
  -18.1931  -26.7927   22.1626 C   0  0  0  0  0  0
  -19.1543  -28.8857   23.2875 C   0  0  0  0  0  0
  -18.9466  -30.1460   23.8891 C   0  0  0  0  0  0
  -17.6465  -30.6585   24.0564 C   0  0  0  0  0  0
  -25.9056  -34.9437   23.5086 C   0  0  0  0  0  0
  -16.5357  -29.9082   23.6331 C   0  0  0  0  0  0
  -16.7278  -28.6501   23.0351 C   0  0  0  0  0  0
  -26.4501  -31.6579   25.0707 C   0  0  0  0  0  0
  -25.3731  -31.3727   26.1435 C   0  0  0  0  0  0
  -27.0356  -30.2999   24.6191 C   0  0  0  0  0  0
  -27.6044  -32.4333   25.7486 C   0  0  0  0  0  0
  -27.5572  -37.1795   24.8466 C   0  0  0  0  0  0
  -21.4206  -29.3039   22.3667 N   0  0  0  0  0  0
  -26.4284  -37.3766   23.9411 N   0  0  0  0  0  0
  -24.6954  -31.0511   22.0923 N   0  0  0  0  0  0
  -23.4197  -28.8154   23.3040 O   0  0  0  0  0  0
  -28.3473  -26.4148   20.1200 O   0  0  0  0  0  0
  -26.5638  -34.8917   22.4662 O   0  0  0  0  0  0
  -23.5462  -32.1357   23.7264 O   0  0  0  0  0  0
  -31.1995  -21.5270   21.1503 C   0  0  0  0  0  0
  -29.2805  -22.3813   20.3626 C   0  0  0  0  0  0
  -29.6372  -20.0739   20.4793 C   0  0  0  0  0  0
  -32.5881  -21.7650   21.7054 C   0  0  0  0  0  0
  -29.2379  -18.3251   18.6463 C   0  0  0  0  0  0
  -28.5872  -23.6947   19.7618 C   0  0  0  0  0  0
  -30.1712  -17.3466   20.8276 C   0  0  0  0  0  0
  -28.2717  -25.0100   20.6588 C   0  0  0  0  0  0
  -29.2708  -18.5396   20.1671 C   0  0  1  0  0  0
  -30.4821  -22.6120   20.8792 N   0  0  0  0  0  0
  -30.8616  -20.2585   20.9535 N   0  0  0  0  0  0
  -28.8013  -21.1131   20.1493 N   0  0  0  0  0  0
  -29.7982  -15.8607   20.6764 N   0  0  0  0  0  0
  -31.4737  -12.5945   19.1629 H   0  0  0  0  0  0
  -30.3878  -11.4799   19.9481 H   0  0  0  0  0  0
  -29.7924  -11.7378   17.5137 H   0  0  0  0  0  0
  -29.6298  -13.4639   17.7190 H   0  0  0  0  0  0
  -27.8939  -11.2791   18.9112 H   0  0  0  0  0  0
  -27.3753  -12.5173   17.7984 H   0  0  0  0  0  0
  -27.6349  -14.2492   19.4689 H   0  0  0  0  0  0
  -28.7209  -12.1531   21.4129 H   0  0  0  0  0  0
  -28.4182  -13.8269   21.8005 H   0  0  0  0  0  0
  -25.2757   -9.5673   22.4767 H   0  0  0  0  0  0
  -23.9994   -7.4623   22.7471 H   0  0  0  0  0  0
  -21.0837   -8.8767   19.8954 H   0  0  0  0  0  0
  -22.3691  -10.9667   19.6171 H   0  0  0  0  0  0
  -21.2014   -7.6146   23.9718 H   0  0  0  0  0  0
  -21.1491   -6.0525   25.9081 H   0  0  0  0  0  0
  -22.0592   -2.7607   23.2854 H   0  0  0  0  0  0
  -22.4075  -11.9865   22.4826 H   0  0  0  0  0  0
  -21.1077  -13.1233   22.2646 H   0  0  0  0  0  0
  -24.6455  -15.8401   20.5176 H   0  0  0  0  0  0
  -26.2528  -15.6318   20.0459 H   0  0  0  0  0  0
  -26.7202  -32.5399   23.1058 H   0  0  0  0  0  0
  -25.0046  -33.9679   25.0366 H   0  0  0  0  0  0
  -22.7239  -31.2948   21.3894 H   0  0  0  0  0  0
  -23.3742  -35.9619   23.3307 H   0  0  0  0  0  0
  -24.3571  -36.8909   22.2059 H   0  0  0  0  0  0
  -23.7244  -37.6484   23.6673 H   0  0  0  0  0  0
  -26.1051  -31.5284   20.5982 H   0  0  0  0  0  0
  -26.8496  -30.8233   22.0020 H   0  0  0  0  0  0
  -28.1320  -28.9550   21.1716 H   0  0  0  0  0  0
  -25.9974  -25.8659   19.0586 H   0  0  0  0  0  0
  -23.9757  -27.2673   19.0364 H   0  0  0  0  0  0
  -23.7702  -30.5689   19.3980 H   0  0  0  0  0  0
  -22.7637  -29.2297   19.8579 H   0  0  0  0  0  0
  -25.1297  -36.1902   25.0817 H   0  0  0  0  0  0
  -20.9985  -28.3268   24.1396 H   0  0  0  0  0  0
  -20.5658  -26.2308   23.3617 H   0  0  0  0  0  0
  -21.6641  -26.7424   22.1214 H   0  0  0  0  0  0
  -19.6907  -25.6295   21.1242 H   0  0  0  0  0  0
  -19.6680  -27.3193   20.6741 H   0  0  0  0  0  0
  -17.4198  -26.6676   21.4032 H   0  0  0  0  0  0
  -18.0330  -26.0069   22.9023 H   0  0  0  0  0  0
  -19.7944  -30.7279   24.2252 H   0  0  0  0  0  0
  -17.5019  -31.6264   24.5170 H   0  0  0  0  0  0
  -15.5356  -30.2981   23.7659 H   0  0  0  0  0  0
  -15.8679  -28.0820   22.7061 H   0  0  0  0  0  0
  -24.5895  -30.7088   25.7764 H   0  0  0  0  0  0
  -24.8940  -32.2900   26.4870 H   0  0  0  0  0  0
  -25.8057  -30.8895   27.0206 H   0  0  0  0  0  0
  -26.2941  -29.6737   24.1216 H   0  0  0  0  0  0
  -27.4044  -29.7268   25.4708 H   0  0  0  0  0  0
  -27.8810  -30.4274   23.9426 H   0  0  0  0  0  0
  -27.2633  -33.3633   26.2045 H   0  0  0  0  0  0
  -28.3863  -32.6901   25.0326 H   0  0  0  0  0  0
  -28.0704  -31.8479   26.5422 H   0  0  0  0  0  0
  -28.2593  -38.0089   24.7507 H   0  0  0  0  0  0
  -28.1066  -36.2621   24.6296 H   0  0  0  0  0  0
  -27.2295  -37.1449   25.8872 H   0  0  0  0  0  0
  -20.9396  -29.8757   21.6864 H   0  0  0  0  0  0
  -26.0158  -38.2837   24.1410 H   0  0  0  0  0  0
  -32.6209  -22.6649   22.3199 H   0  0  0  0  0  0
  -33.3022  -21.8812   20.8904 H   0  0  0  0  0  0
  -32.9140  -20.9283   22.3237 H   0  0  0  0  0  0
  -28.5325  -19.0101   18.1747 H   0  0  0  0  0  0
  -28.9318  -17.3111   18.3902 H   0  0  0  0  0  0
  -30.2197  -18.5030   18.2080 H   0  0  0  0  0  0
  -27.6663  -23.3919   19.2645 H   0  0  0  0  0  0
  -29.2432  -24.0178   18.9538 H   0  0  0  0  0  0
  -30.2155  -17.5365   21.9003 H   0  0  0  0  0  0
  -31.1966  -17.4717   20.4777 H   0  0  0  0  0  0
  -29.0180  -25.0113   21.4529 H   0  0  0  0  0  0
  -27.3268  -24.8627   21.1837 H   0  0  0  0  0  0
  -28.2546  -18.4074   20.5402 H   0  0  0  0  0  0
  -28.8250  -15.6476   20.8345 H   0  0  0  0  0  0
  1 25  1  0  0  0
  1 30  2  0  0  0
  1 83  1  0  0  0
  2  3  1  0  0  0
  2 25  1  0  0  0
  2 84  1  0  0  0
  2 85  1  0  0  0
  3  4  1  0  0  0
  3 86  1  0  0  0
  3 87  1  0  0  0
  4  5  1  0  0  0
  4 88  1  0  0  0
  4 89  1  0  0  0
  5  6  1  0  0  0
  5 26  1  0  0  0
  5 90  1  0  0  0
  6 25  1  0  0  0
  6 91  1  0  0  0
  6 92  1  0  0  0
  7  8  2  0  0  0
  7 26  1  0  0  0
  7 29  1  0  0  0
  8  9  1  0  0  0
  8 22  1  0  0  0
  9 10  1  0  0  0
  9 27  2  0  0  0
 10 11  2  0  0  0
 10 15  1  0  0  0
 11 12  1  0  0  0
 11 93  1  0  0  0
 12 13  2  0  0  0
 12 94  1  0  0  0
 13 14  1  0  0  0
 13 31  1  0  0  0
 14 15  2  0  0  0
 14 95  1  0  0  0
 15 96  1  0  0  0
 16 17  2  0  0  0
 16 21  1  0  0  0
 16 31  1  0  0  0
 17 18  1  0  0  0
 17 97  1  0  0  0
 18 19  2  0  0  0
 18 98  1  0  0  0
 19 20  1  0  0  0
 19 24  1  0  0  0
 20 21  2  0  0  0
 20 99  1  0  0  0
 21 23  1  0  0  0
 22 28  1  0  0  0
 22 32  2  0  0  0
 26 27  1  0  0  0
 28100  1  0  0  0
 28101  1  0  0  0
 29102  1  0  0  0
 29103  1  0  0  0
 33 34  1  0  0  0
 33 66  1  0  0  0
 33 70  2  0  0  0
 34 36  1  0  0  0
 34 59  1  0  0  0
 34104  1  0  0  0
 35 44  2  0  0  0
 35 45  1  0  0  0
 35 68  1  0  0  0
 36 56  1  0  0  0
 36105  1  0  0  0
 37 39  1  0  0  0
 37 47  1  0  0  0
 37 66  1  0  0  0
 37106  1  0  0  0
 38 43  2  0  0  0
 38 46  1  0  0  0
 38 47  1  0  0  0
 39 64  1  0  0  0
 39 67  2  0  0  0
 40 52  1  0  0  0
 40 53  2  0  0  0
 40 58  1  0  0  0
 41107  1  0  0  0
 41108  1  0  0  0
 41109  1  0  0  0
 41 48  1  0  0  0
 42 43  1  0  0  0
 42 66  1  0  0  0
 42110  1  0  0  0
 42111  1  0  0  0
 43 44  1  0  0  0
 44112  1  0  0  0
 45 46  2  0  0  0
 45113  1  0  0  0
 46114  1  0  0  0
 47115  1  0  0  0
 47116  1  0  0  0
 48 56  1  0  0  0
 48 65  1  0  0  0
 48117  1  0  0  0
 49 50  1  0  0  0
 49 53  1  0  0  0
 49 64  1  0  0  0
 49118  1  0  0  0
 50 51  1  0  0  0
 50119  1  0  0  0
 50120  1  0  0  0
 51 52  1  0  0  0
 51121  1  0  0  0
 51122  1  0  0  0
 52123  1  0  0  0
 52124  1  0  0  0
 53 54  1  0  0  0
 54 55  2  0  0  0
 54125  1  0  0  0
 55 57  1  0  0  0
 55126  1  0  0  0
 56 69  2  0  0  0
 57 58  2  0  0  0
 57127  1  0  0  0
 58128  1  0  0  0
 59 60  1  0  0  0
 59 61  1  0  0  0
 59 62  1  0  0  0
 60129  1  0  0  0
 60130  1  0  0  0
 60131  1  0  0  0
 61132  1  0  0  0
 61133  1  0  0  0
 61134  1  0  0  0
 62135  1  0  0  0
 62136  1  0  0  0
 62137  1  0  0  0
 63 65  1  0  0  0
 63138  1  0  0  0
 63139  1  0  0  0
 63140  1  0  0  0
 64141  1  0  0  0
 65142  1  0  0  0
 68 78  1  0  0  0
 71 74  1  0  0  0
 71 80  2  0  0  0
 71 81  1  0  0  0
 72 76  1  0  0  0
 72 80  1  0  0  0
 72 82  2  0  0  0
 73 79  1  0  0  0
 73 81  2  0  0  0
 73 82  1  0  0  0
 74143  1  0  0  0
 74144  1  0  0  0
 74145  1  0  0  0
 75146  1  0  0  0
 75147  1  0  0  0
 75148  1  0  0  0
 75 79  1  0  0  0
 76 78  1  0  0  0
 76149  1  0  0  0
 76150  1  0  0  0
 77 79  1  0  0  0
 77 83  1  0  0  0
 77151  1  0  0  0
 77152  1  0  0  0
 78153  1  0  0  0
 78154  1  0  0  0
 79155  1  0  0  0
 83156  1  0  0  0
M  ISO  4   1 100  68 101  78 101  83 100
M  END
> <chiral flag>
0

> <version>
0

> <s_m_source_file>
/data/baiqing/PycharmProjects/Reinvent-master-3.2/result/LINK_invent/BTK/process_docking_weight1_custom_sum_contain_oxygen_bond_distance_aromatic_linkinvent_7_9_3/rearranged_h_0057.sdf

> <i_m_source_file_index>
68

> <r_mmod_Potential_Energy-OPLS-2005>
-458.325775146484

> <r_mmod_Stretch_Energy-OPLS-2005>
126.747528076172

> <r_mmod_Bend_Energy-OPLS-2005>
172.914810180664

> <r_mmod_Torsional_Energy-OPLS-2005>
221.396026611328

> <r_mmod_Improper_Torsional_Energy-OPLS-2005>
6.47114753723145

> <r_mmod_Van_der_Waal_Energy-OPLS-2005>
147.768005371094

> <r_mmod_Electrostatic_Energy-OPLS-2005>
-973.878723144531

> <r_mmod_Solvation_Energy-OPLS-2005>
-240.089401245117

> <b_mmod_Minimization_Converged-OPLS-2005>
0

> <r_mmod_RMS_Derivative-OPLS-2005>
0.956696927547455

$$$$
68
                    3D
 Structure written by MMmdl.
150158  0  0  1  0            999 V2000
  -30.4239  -15.3189   20.3461 C   0  0  0  0  0  0
  -30.4322  -12.8308   19.5556 C   0  0  0  0  0  0
  -29.5461  -12.5907   18.3053 C   0  0  0  0  0  0
  -28.0911  -12.3129   18.7176 C   0  0  0  0  0  0
  -27.6079  -13.2878   19.8196 C   0  0  2  0  0  0
  -28.6313  -13.4865   20.9563 C   0  0  0  0  0  0
  -25.2394  -13.8288   20.5790 C   0  0  0  0  0  0
  -24.1738  -13.0454   20.9225 C   0  0  0  0  0  0
  -24.6407  -11.6953   20.8717 C   0  0  0  0  0  0
  -23.9112  -10.4303   21.0373 C   0  0  0  0  0  0
  -24.3656   -9.4222   21.9160 C   0  0  0  0  0  0
  -23.6318   -8.2266   22.0742 C   0  0  0  0  0  0
  -22.4300   -8.0302   21.3538 C   0  0  0  0  0  0
  -21.9935   -9.0275   20.4636 C   0  0  0  0  0  0
  -22.7273  -10.2143   20.3036 C   0  0  0  0  0  0
  -21.6872   -6.0742   22.5279 C   0  0  0  0  0  0
  -21.4025   -6.5637   23.8209 C   0  0  0  0  0  0
  -21.3667   -5.6784   24.9167 C   0  0  0  0  0  0
  -21.6051   -4.3052   24.7219 C   0  0  0  0  0  0
  -21.8818   -3.8150   23.4337 C   0  0  0  0  0  0
  -21.9199   -4.6966   22.3399 C   0  0  0  0  0  0
  -22.7755  -13.5199   21.1884 C   0  0  0  0  0  0
  -22.1660   -4.2152   21.0970 F   0  0  0  0  0  0
  -21.5629   -3.4530   25.7724 F   0  0  0  0  0  0
  -29.8703  -13.9962   20.3462 N   0  0  0  0  0  0
  -26.2807  -12.9575   20.3208 N   0  0  0  0  0  0
  -25.9349  -11.6662   20.5677 N   0  0  0  0  0  0
  -22.0430  -12.8179   22.0444 N   0  0  0  0  0  0
  -25.4099  -15.2040   20.4402 N   0  0  0  0  0  0
  -31.6420  -15.2740   20.0936 O   0  0  0  0  0  0
  -21.6664   -6.8898   21.4244 O   0  0  0  0  0  0
  -22.3429  -14.5498   20.6735 O   0  0  0  0  0  0
  -24.6696  -31.8183   23.1666 C   0  0  0  0  0  0
  -25.9354  -32.4560   23.8149 C   0  0  1  0  0  0
  -27.2113  -26.8697   20.1592 C   0  0  0  0  0  0
  -25.5996  -33.8373   24.2046 N   0  0  0  0  0  0
  -23.4847  -30.4319   21.5181 C   0  0  2  0  0  0
  -24.9334  -28.8145   20.1072 C   0  0  0  0  0  0
  -22.7688  -29.4426   22.4760 C   0  0  0  0  0  0
  -18.0331  -28.1410   22.8467 C   0  0  0  0  0  0
  -24.1508  -36.7191   23.2651 C   0  0  0  0  0  0
  -26.0592  -30.6039   21.4067 C   0  0  0  0  0  0
  -26.1209  -29.1913   20.7434 C   0  0  0  0  0  0
  -27.2476  -28.2407   20.7460 C   0  0  0  0  0  0
  -25.9847  -26.6674   19.4821 C   0  0  0  0  0  0
  -24.8941  -27.5737   19.4590 C   0  0  0  0  0  0
  -23.7246  -29.7499   20.1439 C   0  0  0  0  0  0
  -25.4157  -36.2945   24.0290 C   0  0  1  0  0  0
  -20.5962  -28.3771   23.1173 C   0  0  2  0  0  0
  -20.6814  -26.9448   22.5394 C   0  0  0  0  0  0
  -19.5774  -26.6373   21.5219 C   0  0  0  0  0  0
  -18.1964  -26.7935   22.1637 C   0  0  0  0  0  0
  -19.1593  -28.8907   23.2805 C   0  0  0  0  0  0
  -18.9500  -30.1495   23.8844 C   0  0  0  0  0  0
  -17.6494  -30.6605   24.0549 C   0  0  0  0  0  0
  -25.9116  -34.9331   23.4992 C   0  0  0  0  0  0
  -16.5384  -29.9089   23.6345 C   0  0  0  0  0  0
  -16.7310  -28.6501   23.0371 C   0  0  0  0  0  0
  -26.4578  -31.6519   25.0698 C   0  0  0  0  0  0
  -25.3688  -31.3798   26.1342 C   0  0  0  0  0  0
  -27.0471  -30.2868   24.6484 C   0  0  0  0  0  0
  -27.6065  -32.4331   25.7503 C   0  0  0  0  0  0
  -27.5565  -37.1778   24.8473 C   0  0  0  0  0  0
  -21.4354  -29.3047   22.3506 N   0  0  0  0  0  0
  -26.4301  -37.3680   23.9372 N   0  0  0  0  0  0
  -24.7600  -30.9793   22.0831 N   0  0  0  0  0  0
  -23.4215  -28.8001   23.3023 O   0  0  0  0  0  0
  -28.2157  -25.7462   20.2894 O   0  0  0  0  0  0
  -26.5724  -34.8875   22.4588 O   0  0  0  0  0  0
  -23.5746  -32.1187   23.6720 O   0  0  0  0  0  0
  -28.2982  -18.4657   21.0525 C   0  0  0  0  0  0
  -29.6871  -16.8635   20.4576 C   0  0  0  0  0  0
  -29.7607  -24.3648   19.1013 C   0  0  0  0  0  0
  -27.4015  -23.8927   18.6103 C   0  0  0  0  0  0
  -28.5977  -22.4842   20.5131 C   0  0  0  0  0  0
  -29.1009  -20.8579   19.8364 C   0  0  0  0  0  0
  -28.3879  -24.1468   19.7610 C   0  0  0  0  0  0
  -28.5197  -17.1074   21.1630 N   0  0  0  0  0  0
  -30.1037  -18.1415   19.9660 N   0  0  0  0  0  0
  -29.1794  -19.2379   20.3676 N   0  0  0  0  0  0
  -31.4582  -13.0128   19.2368 H   0  0  0  0  0  0
  -30.4827  -11.9295   20.1696 H   0  0  0  0  0  0
  -29.9349  -11.7584   17.7179 H   0  0  0  0  0  0
  -29.5861  -13.4712   17.6623 H   0  0  0  0  0  0
  -28.0445  -11.2880   19.0880 H   0  0  0  0  0  0
  -27.4335  -12.3583   17.8487 H   0  0  0  0  0  0
  -27.5162  -14.2509   19.3165 H   0  0  0  0  0  0
  -28.7980  -12.5616   21.5111 H   0  0  0  0  0  0
  -28.2586  -14.2165   21.6756 H   0  0  0  0  0  0
  -25.2799   -9.5699   22.4740 H   0  0  0  0  0  0
  -24.0021   -7.4663   22.7476 H   0  0  0  0  0  0
  -21.0856   -8.8797   19.8958 H   0  0  0  0  0  0
  -22.3724  -10.9678   19.6150 H   0  0  0  0  0  0
  -21.2017   -7.6141   23.9716 H   0  0  0  0  0  0
  -21.1492   -6.0506   25.9063 H   0  0  0  0  0  0
  -22.0593   -2.7614   23.2839 H   0  0  0  0  0  0
  -22.4046  -11.9837   22.4819 H   0  0  0  0  0  0
  -21.1047  -13.1202   22.2647 H   0  0  0  0  0  0
  -24.6635  -15.8650   20.6236 H   0  0  0  0  0  0
  -26.3029  -15.6535   20.2749 H   0  0  0  0  0  0
  -26.7411  -32.5070   23.0846 H   0  0  0  0  0  0
  -25.0080  -33.9444   25.0152 H   0  0  0  0  0  0
  -22.8002  -31.2660   21.3467 H   0  0  0  0  0  0
  -23.3754  -35.9544   23.3361 H   0  0  0  0  0  0
  -24.3550  -36.8786   22.2049 H   0  0  0  0  0  0
  -23.7307  -37.6414   23.6677 H   0  0  0  0  0  0
  -26.2535  -31.3474   20.6327 H   0  0  0  0  0  0
  -26.9129  -30.6524   22.0701 H   0  0  0  0  0  0
  -28.1452  -28.5269   21.2753 H   0  0  0  0  0  0
  -25.7841  -25.7311   18.9994 H   0  0  0  0  0  0
  -23.9888  -27.2747   18.9487 H   0  0  0  0  0  0
  -23.8855  -30.5200   19.3884 H   0  0  0  0  0  0
  -22.8319  -29.2109   19.8230 H   0  0  0  0  0  0
  -25.1376  -36.1746   25.0786 H   0  0  0  0  0  0
  -21.0049  -28.3383   24.1297 H   0  0  0  0  0  0
  -20.5718  -26.2386   23.3641 H   0  0  0  0  0  0
  -21.6674  -26.7435   22.1181 H   0  0  0  0  0  0
  -19.6944  -25.6268   21.1285 H   0  0  0  0  0  0
  -19.6711  -27.3157   20.6724 H   0  0  0  0  0  0
  -17.4230  -26.6665   21.4049 H   0  0  0  0  0  0
  -18.0376  -26.0099   22.9052 H   0  0  0  0  0  0
  -19.7974  -30.7324   24.2199 H   0  0  0  0  0  0
  -17.5043  -31.6284   24.5149 H   0  0  0  0  0  0
  -15.5381  -30.2973   23.7698 H   0  0  0  0  0  0
  -15.8706  -28.0795   22.7133 H   0  0  0  0  0  0
  -24.5837  -30.7199   25.7623 H   0  0  0  0  0  0
  -24.8927  -32.3019   26.4683 H   0  0  0  0  0  0
  -25.7891  -30.8976   27.0174 H   0  0  0  0  0  0
  -26.3139  -29.6525   24.1485 H   0  0  0  0  0  0
  -27.3952  -29.7263   25.5168 H   0  0  0  0  0  0
  -27.9113  -30.4013   23.9943 H   0  0  0  0  0  0
  -27.2629  -33.3673   26.1957 H   0  0  0  0  0  0
  -28.3949  -32.6818   25.0388 H   0  0  0  0  0  0
  -28.0650  -31.8533   26.5521 H   0  0  0  0  0  0
  -28.2623  -38.0030   24.7424 H   0  0  0  0  0  0
  -28.1025  -36.2550   24.6448 H   0  0  0  0  0  0
  -27.2249  -37.1591   25.8870 H   0  0  0  0  0  0
  -20.9619  -29.8720   21.6615 H   0  0  0  0  0  0
  -26.0153  -38.2756   24.1306 H   0  0  0  0  0  0
  -27.4035  -18.9104   21.4681 H   0  0  0  0  0  0
  -30.0624  -23.5079   18.4972 H   0  0  0  0  0  0
  -30.5349  -24.5193   19.8542 H   0  0  0  0  0  0
  -29.7618  -25.2362   18.4438 H   0  0  0  0  0  0
  -27.6995  -23.0200   18.0274 H   0  0  0  0  0  0
  -27.3613  -24.7239   17.9061 H   0  0  0  0  0  0
  -26.4003  -23.6802   18.9845 H   0  0  0  0  0  0
  -29.2944  -22.6490   21.3351 H   0  0  0  0  0  0
  -27.6501  -22.2919   21.0160 H   0  0  0  0  0  0
  -30.0907  -21.0369   19.4176 H   0  0  0  0  0  0
  -28.4719  -20.7739   18.9499 H   0  0  0  0  0  0
  1 25  1  0  0  0
  1 30  2  0  0  0
  1 72  1  0  0  0
  2  3  1  0  0  0
  2 25  1  0  0  0
  2 81  1  0  0  0
  2 82  1  0  0  0
  3  4  1  0  0  0
  3 83  1  0  0  0
  3 84  1  0  0  0
  4  5  1  0  0  0
  4 85  1  0  0  0
  4 86  1  0  0  0
  5  6  1  0  0  0
  5 26  1  0  0  0
  5 87  1  0  0  0
  6 25  1  0  0  0
  6 88  1  0  0  0
  6 89  1  0  0  0
  7  8  2  0  0  0
  7 26  1  0  0  0
  7 29  1  0  0  0
  8  9  1  0  0  0
  8 22  1  0  0  0
  9 10  1  0  0  0
  9 27  2  0  0  0
 10 11  2  0  0  0
 10 15  1  0  0  0
 11 12  1  0  0  0
 11 90  1  0  0  0
 12 13  2  0  0  0
 12 91  1  0  0  0
 13 14  1  0  0  0
 13 31  1  0  0  0
 14 15  2  0  0  0
 14 92  1  0  0  0
 15 93  1  0  0  0
 16 17  2  0  0  0
 16 21  1  0  0  0
 16 31  1  0  0  0
 17 18  1  0  0  0
 17 94  1  0  0  0
 18 19  2  0  0  0
 18 95  1  0  0  0
 19 20  1  0  0  0
 19 24  1  0  0  0
 20 21  2  0  0  0
 20 96  1  0  0  0
 21 23  1  0  0  0
 22 28  1  0  0  0
 22 32  2  0  0  0
 26 27  1  0  0  0
 28 97  1  0  0  0
 28 98  1  0  0  0
 29 99  1  0  0  0
 29100  1  0  0  0
 33 34  1  0  0  0
 33 66  1  0  0  0
 33 70  2  0  0  0
 34 36  1  0  0  0
 34 59  1  0  0  0
 34101  1  0  0  0
 35 44  2  0  0  0
 35 45  1  0  0  0
 35 68  1  0  0  0
 36 56  1  0  0  0
 36102  1  0  0  0
 37 39  1  0  0  0
 37 47  1  0  0  0
 37 66  1  0  0  0
 37103  1  0  0  0
 38 43  2  0  0  0
 38 46  1  0  0  0
 38 47  1  0  0  0
 39 64  1  0  0  0
 39 67  2  0  0  0
 40 52  1  0  0  0
 40 53  2  0  0  0
 40 58  1  0  0  0
 41104  1  0  0  0
 41105  1  0  0  0
 41106  1  0  0  0
 41 48  1  0  0  0
 42 43  1  0  0  0
 42 66  1  0  0  0
 42107  1  0  0  0
 42108  1  0  0  0
 43 44  1  0  0  0
 44109  1  0  0  0
 45 46  2  0  0  0
 45110  1  0  0  0
 46111  1  0  0  0
 47112  1  0  0  0
 47113  1  0  0  0
 48 56  1  0  0  0
 48 65  1  0  0  0
 48114  1  0  0  0
 49 50  1  0  0  0
 49 53  1  0  0  0
 49 64  1  0  0  0
 49115  1  0  0  0
 50 51  1  0  0  0
 50116  1  0  0  0
 50117  1  0  0  0
 51 52  1  0  0  0
 51118  1  0  0  0
 51119  1  0  0  0
 52120  1  0  0  0
 52121  1  0  0  0
 53 54  1  0  0  0
 54 55  2  0  0  0
 54122  1  0  0  0
 55 57  1  0  0  0
 55123  1  0  0  0
 56 69  2  0  0  0
 57 58  2  0  0  0
 57124  1  0  0  0
 58125  1  0  0  0
 59 60  1  0  0  0
 59 61  1  0  0  0
 59 62  1  0  0  0
 60126  1  0  0  0
 60127  1  0  0  0
 60128  1  0  0  0
 61129  1  0  0  0
 61130  1  0  0  0
 61131  1  0  0  0
 62132  1  0  0  0
 62133  1  0  0  0
 62134  1  0  0  0
 63 65  1  0  0  0
 63135  1  0  0  0
 63136  1  0  0  0
 63137  1  0  0  0
 64138  1  0  0  0
 65139  1  0  0  0
 68 77  1  0  0  0
 71 78  2  0  0  0
 71 80  1  0  0  0
 71140  1  0  0  0
 72 78  1  0  0  0
 72 79  2  0  0  0
 73141  1  0  0  0
 73142  1  0  0  0
 73143  1  0  0  0
 73 77  1  0  0  0
 74 77  1  0  0  0
 74144  1  0  0  0
 74145  1  0  0  0
 74146  1  0  0  0
 75 76  1  0  0  0
 75 77  1  0  0  0
 75147  1  0  0  0
 75148  1  0  0  0
 76 80  1  0  0  0
 76149  1  0  0  0
 76150  1  0  0  0
 79 80  1  0  0  0
M  ISO  4   1 100  68 101  72 100  77 101
M  END
> <chiral flag>
0

> <version>
0

> <s_m_source_file>
/data/baiqing/PycharmProjects/Reinvent-master-3.2/result/LINK_invent/BTK/process_docking_weight1_custom_sum_contain_oxygen_bond_distance_aromatic_linkinvent_7_9_3/rearranged_h_0057.sdf

> <i_m_source_file_index>
69

> <r_mmod_Potential_Energy-OPLS-2005>
1645.73999023438

> <r_mmod_Stretch_Energy-OPLS-2005>
693.845031738281

> <r_mmod_Bend_Energy-OPLS-2005>
522.044128417969

> <r_mmod_Torsional_Energy-OPLS-2005>
215.188674926758

> <r_mmod_Improper_Torsional_Energy-OPLS-2005>
4.87556171417236

> <r_mmod_Van_der_Waal_Energy-OPLS-2005>
109.598899841309

> <r_mmod_Electrostatic_Energy-OPLS-2005>
-210.982879638672

> <r_mmod_Solvation_Energy-OPLS-2005>
-209.332855224609

> <b_mmod_Minimization_Converged-OPLS-2005>
0

> <r_mmod_RMS_Derivative-OPLS-2005>
1.96275115013123

$$$$
69
                    3D
 Structure written by MMmdl.
162170  0  0  1  0            999 V2000
  -30.5266  -15.0046   20.4820 C   0  0  0  0  0  0
  -30.4519  -12.6470   19.5196 C   0  0  0  0  0  0
  -29.5321  -12.5624   18.2770 C   0  0  0  0  0  0
  -28.0639  -12.3349   18.6849 C   0  0  0  0  0  0
  -27.6349  -13.2530   19.8569 C   0  0  2  0  0  0
  -28.6724  -13.2540   20.9976 C   0  0  0  0  0  0
  -25.2479  -13.8212   20.5716 C   0  0  0  0  0  0
  -24.1764  -13.0430   20.9199 C   0  0  0  0  0  0
  -24.6372  -11.6928   20.8697 C   0  0  0  0  0  0
  -23.9052  -10.4300   21.0349 C   0  0  0  0  0  0
  -24.3603   -9.4228   21.9131 C   0  0  0  0  0  0
  -23.6268   -8.2258   22.0728 C   0  0  0  0  0  0
  -22.4255   -8.0281   21.3517 C   0  0  0  0  0  0
  -21.9895   -9.0251   20.4613 C   0  0  0  0  0  0
  -22.7217  -10.2127   20.3018 C   0  0  0  0  0  0
  -21.6862   -6.0724   22.5275 C   0  0  0  0  0  0
  -21.4019   -6.5623   23.8206 C   0  0  0  0  0  0
  -21.3667   -5.6779   24.9159 C   0  0  0  0  0  0
  -21.6043   -4.3040   24.7205 C   0  0  0  0  0  0
  -21.8839   -3.8129   23.4331 C   0  0  0  0  0  0
  -21.9195   -4.6947   22.3384 C   0  0  0  0  0  0
  -22.7786  -13.5202   21.1868 C   0  0  0  0  0  0
  -22.1667   -4.2129   21.0962 F   0  0  0  0  0  0
  -21.5630   -3.4532   25.7723 F   0  0  0  0  0  0
  -29.9414  -13.7271   20.4211 N   0  0  0  0  0  0
  -26.2905  -12.9438   20.3312 N   0  0  0  0  0  0
  -25.9316  -11.6565   20.5732 N   0  0  0  0  0  0
  -22.0467  -12.8154   22.0432 N   0  0  0  0  0  0
  -25.4197  -15.1930   20.4175 N   0  0  0  0  0  0
  -31.6819  -15.0857   20.0463 O   0  0  0  0  0  0
  -21.6639   -6.8862   21.4231 O   0  0  0  0  0  0
  -22.3476  -14.5501   20.6737 O   0  0  0  0  0  0
  -24.6466  -31.8430   23.1878 C   0  0  0  0  0  0
  -25.9202  -32.4679   23.8299 C   0  0  1  0  0  0
  -27.2293  -27.1057   20.1722 C   0  0  0  0  0  0
  -25.5921  -33.8499   24.2217 N   0  0  0  0  0  0
  -23.4505  -30.4542   21.5373 C   0  0  2  0  0  0
  -24.9078  -28.8704   20.1204 C   0  0  0  0  0  0
  -22.7566  -29.4533   22.4936 C   0  0  0  0  0  0
  -18.0278  -28.1259   22.8424 C   0  0  0  0  0  0
  -24.1495  -36.7302   23.2650 C   0  0  0  0  0  0
  -26.0035  -30.7050   21.3891 C   0  0  0  0  0  0
  -26.0816  -29.3087   20.7408 C   0  0  0  0  0  0
  -27.2459  -28.4445   20.7464 C   0  0  0  0  0  0
  -26.0291  -26.7757   19.5057 C   0  0  0  0  0  0
  -24.8951  -27.6206   19.4838 C   0  0  0  0  0  0
  -23.6813  -29.7672   20.1631 C   0  0  0  0  0  0
  -25.4126  -36.3074   24.0303 C   0  0  1  0  0  0
  -20.5878  -28.3671   23.1156 C   0  0  2  0  0  0
  -20.6758  -26.9372   22.5360 C   0  0  0  0  0  0
  -19.5740  -26.6313   21.5124 C   0  0  0  0  0  0
  -18.1922  -26.7791   22.1563 C   0  0  0  0  0  0
  -19.1525  -28.8769   23.2755 C   0  0  0  0  0  0
  -18.9475  -30.1364   23.8764 C   0  0  0  0  0  0
  -17.6485  -30.6479   24.0491 C   0  0  0  0  0  0
  -25.9065  -34.9421   23.5089 C   0  0  0  0  0  0
  -16.5360  -29.8970   23.6303 C   0  0  0  0  0  0
  -16.7262  -28.6388   23.0318 C   0  0  0  0  0  0
  -26.4495  -31.6511   25.0738 C   0  0  0  0  0  0
  -25.3652  -31.3606   26.1421 C   0  0  0  0  0  0
  -27.0500  -30.2953   24.6359 C   0  0  0  0  0  0
  -27.6001  -32.4322   25.7507 C   0  0  0  0  0  0
  -27.5568  -37.1809   24.8446 C   0  0  0  0  0  0
  -21.4255  -29.3035   22.3631 N   0  0  0  0  0  0
  -26.4290  -37.3783   23.9376 N   0  0  0  0  0  0
  -24.7195  -31.0205   22.0951 N   0  0  0  0  0  0
  -23.4175  -28.8126   23.3147 O   0  0  0  0  0  0
  -28.2831  -26.1103   20.2406 O   0  0  0  0  0  0
  -26.5740  -34.8899   22.4734 O   0  0  0  0  0  0
  -23.5574  -32.1363   23.7033 O   0  0  0  0  0  0
  -31.5055  -18.9353   21.0574 C   0  0  0  0  0  0
  -31.9785  -20.2508   21.2899 C   0  0  0  0  0  0
  -30.2035  -19.0244   20.6331 C   0  0  0  0  0  0
  -27.6883  -21.3546   21.5370 C   0  0  0  0  0  0
  -28.0466  -21.1910   19.0815 C   0  0  0  0  0  0
  -29.6037  -16.3611   22.3145 C   0  0  0  0  0  0
  -29.5152  -17.6102   20.1931 C   0  0  0  0  0  0
  -29.0707  -23.2510   20.3870 C   0  0  0  0  0  0
  -27.9927  -24.5639   20.2482 C   0  0  0  0  0  0
  -33.3849  -20.6637   21.7389 C   0  0  0  0  0  0
  -28.7219  -21.5641   20.4083 C   0  0  0  0  0  0
  -31.0229  -21.1439   21.0572 N   0  0  0  0  0  0
  -29.8920  -20.5058   20.6460 N   0  0  0  0  0  0
  -29.8039  -16.1871   20.8698 N   0  0  0  0  0  0
  -34.1183  -19.5895   22.0445 F   0  0  0  0  0  0
  -34.0227  -21.3313   20.7739 F   0  0  0  0  0  0
  -33.3272  -21.4383   22.8232 F   0  0  0  0  0  0
  -31.4724  -12.8433   19.1883 H   0  0  0  0  0  0
  -30.4930  -11.6938   20.0488 H   0  0  0  0  0  0
  -29.8673  -11.7643   17.6140 H   0  0  0  0  0  0
  -29.6106  -13.4905   17.7068 H   0  0  0  0  0  0
  -27.9662  -11.2930   18.9879 H   0  0  0  0  0  0
  -27.4041  -12.4758   17.8274 H   0  0  0  0  0  0
  -27.6089  -14.2656   19.4506 H   0  0  0  0  0  0
  -28.7823  -12.2552   21.4231 H   0  0  0  0  0  0
  -28.3288  -13.8942   21.8059 H   0  0  0  0  0  0
  -25.2748   -9.5716   22.4700 H   0  0  0  0  0  0
  -23.9985   -7.4667   22.7465 H   0  0  0  0  0  0
  -21.0836   -8.8758   19.8913 H   0  0  0  0  0  0
  -22.3657  -10.9655   19.6132 H   0  0  0  0  0  0
  -21.2031   -7.6140   23.9689 H   0  0  0  0  0  0
  -21.1468   -6.0506   25.9052 H   0  0  0  0  0  0
  -22.0607   -2.7598   23.2839 H   0  0  0  0  0  0
  -22.4129  -11.9825   22.4794 H   0  0  0  0  0  0
  -21.1087  -13.1131   22.2624 H   0  0  0  0  0  0
  -24.6698  -15.8625   20.5464 H   0  0  0  0  0  0
  -26.2797  -15.6214   20.1036 H   0  0  0  0  0  0
  -26.7288  -32.5318   23.1052 H   0  0  0  0  0  0
  -24.9819  -33.9639   25.0204 H   0  0  0  0  0  0
  -22.7450  -31.2745   21.3722 H   0  0  0  0  0  0
  -23.3732  -35.9655   23.3286 H   0  0  0  0  0  0
  -24.3540  -36.9069   22.2072 H   0  0  0  0  0  0
  -23.7310  -37.6497   23.6744 H   0  0  0  0  0  0
  -26.1381  -31.4463   20.5998 H   0  0  0  0  0  0
  -26.8755  -30.7814   22.0258 H   0  0  0  0  0  0
  -28.1417  -28.7698   21.2544 H   0  0  0  0  0  0
  -25.9329  -25.8211   19.0084 H   0  0  0  0  0  0
  -23.9977  -27.2803   18.9854 H   0  0  0  0  0  0
  -23.7948  -30.5225   19.3837 H   0  0  0  0  0  0
  -22.7989  -29.1904   19.8834 H   0  0  0  0  0  0
  -25.1332  -36.1893   25.0792 H   0  0  0  0  0  0
  -20.9857  -28.3265   24.1314 H   0  0  0  0  0  0
  -20.5482  -26.2352   23.3634 H   0  0  0  0  0  0
  -21.6644  -26.7306   22.1263 H   0  0  0  0  0  0
  -19.6900  -25.6222   21.1169 H   0  0  0  0  0  0
  -19.6579  -27.3087   20.6603 H   0  0  0  0  0  0
  -17.4207  -26.6447   21.3971 H   0  0  0  0  0  0
  -18.0341  -25.9868   22.8899 H   0  0  0  0  0  0
  -19.7976  -30.7155   24.2068 H   0  0  0  0  0  0
  -17.5089  -31.6137   24.5157 H   0  0  0  0  0  0
  -15.5354  -30.2869   23.7697 H   0  0  0  0  0  0
  -15.8658  -28.0716   22.7065 H   0  0  0  0  0  0
  -24.5817  -30.7001   25.7691 H   0  0  0  0  0  0
  -24.8805  -32.2740   26.4871 H   0  0  0  0  0  0
  -25.7941  -30.8720   27.0187 H   0  0  0  0  0  0
  -26.3252  -29.6509   24.1378 H   0  0  0  0  0  0
  -27.4172  -29.7382   25.4990 H   0  0  0  0  0  0
  -27.9073  -30.4228   23.9751 H   0  0  0  0  0  0
  -27.2583  -33.3687   26.1897 H   0  0  0  0  0  0
  -28.3841  -32.6794   25.0344 H   0  0  0  0  0  0
  -28.0572  -31.8556   26.5544 H   0  0  0  0  0  0
  -28.2592  -38.0118   24.7608 H   0  0  0  0  0  0
  -28.1101  -36.2668   24.6193 H   0  0  0  0  0  0
  -27.2262  -37.1396   25.8850 H   0  0  0  0  0  0
  -20.9498  -29.8903   21.6931 H   0  0  0  0  0  0
  -26.0146  -38.2866   24.1372 H   0  0  0  0  0  0
  -32.0815  -18.0241   21.1630 H   0  0  0  0  0  0
  -26.7969  -21.9694   21.3943 H   0  0  0  0  0  0
  -28.1059  -21.6231   22.5075 H   0  0  0  0  0  0
  -27.3527  -20.3174   21.5932 H   0  0  0  0  0  0
  -27.1372  -21.7687   18.9052 H   0  0  0  0  0  0
  -27.7699  -20.1338   19.0602 H   0  0  0  0  0  0
  -28.7192  -21.3724   18.2461 H   0  0  0  0  0  0
  -28.7387  -16.9947   22.5159 H   0  0  0  0  0  0
  -30.4739  -16.8491   22.7501 H   0  0  0  0  0  0
  -29.4523  -15.4234   22.8491 H   0  0  0  0  0  0
  -29.7416  -17.4666   19.1339 H   0  0  0  0  0  0
  -28.4322  -17.7521   20.2071 H   0  0  0  0  0  0
  -29.6342  -23.4505   21.2981 H   0  0  0  0  0  0
  -29.7984  -23.3950   19.5879 H   0  0  0  0  0  0
  -27.2634  -24.4329   21.0475 H   0  0  0  0  0  0
  -27.4356  -24.3497   19.3399 H   0  0  0  0  0  0
  1 25  1  0  0  0
  1 30  2  0  0  0
  1 84  1  0  0  0
  2  3  1  0  0  0
  2 25  1  0  0  0
  2 88  1  0  0  0
  2 89  1  0  0  0
  3  4  1  0  0  0
  3 90  1  0  0  0
  3 91  1  0  0  0
  4  5  1  0  0  0
  4 92  1  0  0  0
  4 93  1  0  0  0
  5  6  1  0  0  0
  5 26  1  0  0  0
  5 94  1  0  0  0
  6 25  1  0  0  0
  6 95  1  0  0  0
  6 96  1  0  0  0
  7  8  2  0  0  0
  7 26  1  0  0  0
  7 29  1  0  0  0
  8  9  1  0  0  0
  8 22  1  0  0  0
  9 10  1  0  0  0
  9 27  2  0  0  0
 10 11  2  0  0  0
 10 15  1  0  0  0
 11 12  1  0  0  0
 11 97  1  0  0  0
 12 13  2  0  0  0
 12 98  1  0  0  0
 13 14  1  0  0  0
 13 31  1  0  0  0
 14 15  2  0  0  0
 14 99  1  0  0  0
 15100  1  0  0  0
 16 17  2  0  0  0
 16 21  1  0  0  0
 16 31  1  0  0  0
 17 18  1  0  0  0
 17101  1  0  0  0
 18 19  2  0  0  0
 18102  1  0  0  0
 19 20  1  0  0  0
 19 24  1  0  0  0
 20 21  2  0  0  0
 20103  1  0  0  0
 21 23  1  0  0  0
 22 28  1  0  0  0
 22 32  2  0  0  0
 26 27  1  0  0  0
 28104  1  0  0  0
 28105  1  0  0  0
 29106  1  0  0  0
 29107  1  0  0  0
 33 34  1  0  0  0
 33 66  1  0  0  0
 33 70  2  0  0  0
 34 36  1  0  0  0
 34 59  1  0  0  0
 34108  1  0  0  0
 35 44  2  0  0  0
 35 45  1  0  0  0
 35 68  1  0  0  0
 36 56  1  0  0  0
 36109  1  0  0  0
 37 39  1  0  0  0
 37 47  1  0  0  0
 37 66  1  0  0  0
 37110  1  0  0  0
 38 43  2  0  0  0
 38 46  1  0  0  0
 38 47  1  0  0  0
 39 64  1  0  0  0
 39 67  2  0  0  0
 40 52  1  0  0  0
 40 53  2  0  0  0
 40 58  1  0  0  0
 41111  1  0  0  0
 41112  1  0  0  0
 41113  1  0  0  0
 41 48  1  0  0  0
 42 43  1  0  0  0
 42 66  1  0  0  0
 42114  1  0  0  0
 42115  1  0  0  0
 43 44  1  0  0  0
 44116  1  0  0  0
 45 46  2  0  0  0
 45117  1  0  0  0
 46118  1  0  0  0
 47119  1  0  0  0
 47120  1  0  0  0
 48 56  1  0  0  0
 48 65  1  0  0  0
 48121  1  0  0  0
 49 50  1  0  0  0
 49 53  1  0  0  0
 49 64  1  0  0  0
 49122  1  0  0  0
 50 51  1  0  0  0
 50123  1  0  0  0
 50124  1  0  0  0
 51 52  1  0  0  0
 51125  1  0  0  0
 51126  1  0  0  0
 52127  1  0  0  0
 52128  1  0  0  0
 53 54  1  0  0  0
 54 55  2  0  0  0
 54129  1  0  0  0
 55 57  1  0  0  0
 55130  1  0  0  0
 56 69  2  0  0  0
 57 58  2  0  0  0
 57131  1  0  0  0
 58132  1  0  0  0
 59 60  1  0  0  0
 59 61  1  0  0  0
 59 62  1  0  0  0
 60133  1  0  0  0
 60134  1  0  0  0
 60135  1  0  0  0
 61136  1  0  0  0
 61137  1  0  0  0
 61138  1  0  0  0
 62139  1  0  0  0
 62140  1  0  0  0
 62141  1  0  0  0
 63 65  1  0  0  0
 63142  1  0  0  0
 63143  1  0  0  0
 63144  1  0  0  0
 64145  1  0  0  0
 65146  1  0  0  0
 68 79  1  0  0  0
 71 72  1  0  0  0
 71 73  2  0  0  0
 71147  1  0  0  0
 72 80  1  0  0  0
 72 82  2  0  0  0
 73 77  1  0  0  0
 73 83  1  0  0  0
 74148  1  0  0  0
 74149  1  0  0  0
 74150  1  0  0  0
 74 81  1  0  0  0
 75 81  1  0  0  0
 75151  1  0  0  0
 75152  1  0  0  0
 75153  1  0  0  0
 76 84  1  0  0  0
 76154  1  0  0  0
 76155  1  0  0  0
 76156  1  0  0  0
 77 84  1  0  0  0
 77157  1  0  0  0
 77158  1  0  0  0
 78 79  1  0  0  0
 78 81  1  0  0  0
 78159  1  0  0  0
 78160  1  0  0  0
 79161  1  0  0  0
 79162  1  0  0  0
 80 85  1  0  0  0
 80 86  1  0  0  0
 80 87  1  0  0  0
 81 83  1  0  0  0
 82 83  1  0  0  0
M  ISO  4   1 100  68 101  79 101  84 100
M  END
> <chiral flag>
0

> <version>
0

> <s_m_source_file>
/data/baiqing/PycharmProjects/Reinvent-master-3.2/result/LINK_invent/BTK/process_docking_weight1_custom_sum_contain_oxygen_bond_distance_aromatic_linkinvent_7_9_3/rearranged_h_0057.sdf

> <i_m_source_file_index>
70

> <r_mmod_Potential_Energy-OPLS-2005>
846.06884765625

> <r_mmod_Stretch_Energy-OPLS-2005>
329.224456787109

> <r_mmod_Bend_Energy-OPLS-2005>
327.502380371094

> <r_mmod_Torsional_Energy-OPLS-2005>
306.452606201172

> <r_mmod_Improper_Torsional_Energy-OPLS-2005>
4.62984657287598

> <r_mmod_Van_der_Waal_Energy-OPLS-2005>
105.73664855957

> <r_mmod_Electrostatic_Energy-OPLS-2005>
-255.919738769531

> <r_mmod_Solvation_Energy-OPLS-2005>
-194.496215820312

> <b_mmod_Minimization_Converged-OPLS-2005>
0

> <r_mmod_RMS_Derivative-OPLS-2005>
6.48844575881958

$$$$
70
                    3D
 Structure written by MMmdl.
149157  0  0  1  0            999 V2000
  -30.6061  -14.7629   20.4718 C   0  0  0  0  0  0
  -30.4343  -12.4745   19.4672 C   0  0  0  0  0  0
  -29.5088  -12.5092   18.2313 C   0  0  0  0  0  0
  -28.0377  -12.3246   18.6505 C   0  0  0  0  0  0
  -27.6388  -13.2329   19.8438 C   0  0  2  0  0  0
  -28.6832  -13.1786   20.9789 C   0  0  0  0  0  0
  -25.2502  -13.8207   20.5679 C   0  0  0  0  0  0
  -24.1806  -13.0456   20.9227 C   0  0  0  0  0  0
  -24.6399  -11.6931   20.8769 C   0  0  0  0  0  0
  -23.9073  -10.4309   21.0430 C   0  0  0  0  0  0
  -24.3614   -9.4227   21.9217 C   0  0  0  0  0  0
  -23.6291   -8.2264   22.0770 C   0  0  0  0  0  0
  -22.4278   -8.0298   21.3549 C   0  0  0  0  0  0
  -21.9923   -9.0273   20.4654 C   0  0  0  0  0  0
  -22.7258  -10.2148   20.3069 C   0  0  0  0  0  0
  -21.6860   -6.0750   22.5276 C   0  0  0  0  0  0
  -21.4015   -6.5650   23.8214 C   0  0  0  0  0  0
  -21.3663   -5.6801   24.9173 C   0  0  0  0  0  0
  -21.6043   -4.3062   24.7221 C   0  0  0  0  0  0
  -21.8818   -3.8154   23.4346 C   0  0  0  0  0  0
  -21.9196   -4.6974   22.3406 C   0  0  0  0  0  0
  -22.7834  -13.5243   21.1874 C   0  0  0  0  0  0
  -22.1671   -4.2160   21.0983 F   0  0  0  0  0  0
  -21.5622   -3.4547   25.7733 F   0  0  0  0  0  0
  -29.9780  -13.5389   20.3902 N   0  0  0  0  0  0
  -26.2919  -12.9417   20.3234 N   0  0  0  0  0  0
  -25.9324  -11.6562   20.5734 N   0  0  0  0  0  0
  -22.0459  -12.8222   22.0405 N   0  0  0  0  0  0
  -25.4163  -15.1935   20.4060 N   0  0  0  0  0  0
  -31.8048  -14.8496   20.1915 O   0  0  0  0  0  0
  -21.6647   -6.8890   21.4236 O   0  0  0  0  0  0
  -22.3535  -14.5566   20.6742 O   0  0  0  0  0  0
  -24.6355  -31.8528   23.1944 C   0  0  0  0  0  0
  -25.9171  -32.4738   23.8305 C   0  0  1  0  0  0
  -27.2152  -27.2422   20.1443 C   0  0  0  0  0  0
  -25.5936  -33.8536   24.2233 N   0  0  0  0  0  0
  -23.4328  -30.4749   21.5371 C   0  0  2  0  0  0
  -24.8800  -28.9153   20.1128 C   0  0  0  0  0  0
  -22.7519  -29.4602   22.4877 C   0  0  0  0  0  0
  -18.0304  -28.1402   22.8465 C   0  0  0  0  0  0
  -24.1507  -36.7334   23.2636 C   0  0  0  0  0  0
  -25.9791  -30.7630   21.3723 C   0  0  0  0  0  0
  -26.0525  -29.3808   20.7220 C   0  0  0  0  0  0
  -27.2266  -28.5587   20.7216 C   0  0  0  0  0  0
  -26.0237  -26.8483   19.4994 C   0  0  0  0  0  0
  -24.8710  -27.6580   19.4885 C   0  0  0  0  0  0
  -23.6531  -29.8060   20.1548 C   0  0  0  0  0  0
  -25.4121  -36.3064   24.0310 C   0  0  1  0  0  0
  -20.5906  -28.3723   23.1256 C   0  0  2  0  0  0
  -20.6799  -26.9434   22.5408 C   0  0  0  0  0  0
  -19.5782  -26.6397   21.5207 C   0  0  0  0  0  0
  -18.1960  -26.7939   22.1615 C   0  0  0  0  0  0
  -19.1555  -28.8880   23.2859 C   0  0  0  0  0  0
  -18.9469  -30.1477   23.8880 C   0  0  0  0  0  0
  -17.6465  -30.6589   24.0571 C   0  0  0  0  0  0
  -25.9056  -34.9422   23.5081 C   0  0  0  0  0  0
  -16.5360  -29.9086   23.6331 C   0  0  0  0  0  0
  -16.7288  -28.6519   23.0324 C   0  0  0  0  0  0
  -26.4520  -31.6564   25.0704 C   0  0  0  0  0  0
  -25.3742  -31.3729   26.1430 C   0  0  0  0  0  0
  -27.0366  -30.2970   24.6207 C   0  0  0  0  0  0
  -27.6055  -32.4317   25.7481 C   0  0  0  0  0  0
  -27.5582  -37.1832   24.8445 C   0  0  0  0  0  0
  -21.4219  -29.3072   22.3640 N   0  0  0  0  0  0
  -26.4297  -37.3761   23.9379 N   0  0  0  0  0  0
  -24.7018  -31.0496   22.0906 N   0  0  0  0  0  0
  -23.4208  -28.8136   23.2979 O   0  0  0  0  0  0
  -28.2936  -26.3269   20.1747 O   0  0  0  0  0  0
  -26.5631  -34.8893   22.4653 O   0  0  0  0  0  0
  -23.5505  -32.1325   23.7263 O   0  0  0  0  0  0
  -29.3602  -19.1205   19.1700 C   0  0  0  0  0  0
  -29.6511  -18.6835   20.4976 C   0  0  0  0  0  0
  -30.3190  -17.3256   21.0051 C   0  0  0  0  0  0
  -28.7815  -23.5776   20.1383 C   0  0  0  0  0  0
  -28.4910  -22.1645   20.8956 C   0  0  0  0  0  0
  -28.0336  -24.9250   20.6762 C   0  0  0  0  0  0
  -28.9738  -20.3885   19.1252 N   0  0  0  0  0  0
  -29.4135  -19.7581   21.2656 N   0  0  0  0  0  0
  -29.0337  -20.8090   20.4190 N   0  0  0  0  0  0
  -29.8426  -15.9043   20.6875 N   0  0  0  0  0  0
  -31.4735  -12.6094   19.1606 H   0  0  0  0  0  0
  -30.3897  -11.5010   19.9591 H   0  0  0  0  0  0
  -29.7952  -11.7323   17.5216 H   0  0  0  0  0  0
  -29.6256  -13.4590   17.7079 H   0  0  0  0  0  0
  -27.9100  -11.2772   18.9271 H   0  0  0  0  0  0
  -27.3727  -12.4978   17.8039 H   0  0  0  0  0  0
  -27.6295  -14.2515   19.4540 H   0  0  0  0  0  0
  -28.7284  -12.1841   21.4255 H   0  0  0  0  0  0
  -28.4143  -13.8622   21.7859 H   0  0  0  0  0  0
  -25.2743   -9.5714   22.4818 H   0  0  0  0  0  0
  -23.9999   -7.4657   22.7494 H   0  0  0  0  0  0
  -21.0860   -8.8794   19.8954 H   0  0  0  0  0  0
  -22.3726  -10.9693   19.6178 H   0  0  0  0  0  0
  -21.2003   -7.6156   23.9717 H   0  0  0  0  0  0
  -21.1488   -6.0531   25.9075 H   0  0  0  0  0  0
  -22.0585   -2.7615   23.2834 H   0  0  0  0  0  0
  -22.4041  -11.9852   22.4775 H   0  0  0  0  0  0
  -21.1079  -13.1272   22.2584 H   0  0  0  0  0  0
  -24.6481  -15.8458   20.5242 H   0  0  0  0  0  0
  -26.2378  -15.6257   20.0037 H   0  0  0  0  0  0
  -26.7237  -32.5379   23.1045 H   0  0  0  0  0  0
  -25.0019  -33.9654   25.0338 H   0  0  0  0  0  0
  -22.7300  -31.2973   21.3864 H   0  0  0  0  0  0
  -23.3720  -35.9719   23.3277 H   0  0  0  0  0  0
  -24.3615  -36.8998   22.2060 H   0  0  0  0  0  0
  -23.7322  -37.6551   23.6686 H   0  0  0  0  0  0
  -26.1131  -31.5167   20.5940 H   0  0  0  0  0  0
  -26.8597  -30.8211   22.0004 H   0  0  0  0  0  0
  -28.1276  -28.9119   21.2038 H   0  0  0  0  0  0
  -25.9707  -25.8843   19.0130 H   0  0  0  0  0  0
  -23.9736  -27.2975   19.0058 H   0  0  0  0  0  0
  -23.7818  -30.5780   19.3947 H   0  0  0  0  0  0
  -22.7707  -29.2406   19.8490 H   0  0  0  0  0  0
  -25.1316  -36.1895   25.0804 H   0  0  0  0  0  0
  -21.0007  -28.3312   24.1373 H   0  0  0  0  0  0
  -20.5719  -26.2327   23.3614 H   0  0  0  0  0  0
  -21.6665  -26.7464   22.1199 H   0  0  0  0  0  0
  -19.6947  -25.6305   21.1250 H   0  0  0  0  0  0
  -19.6728  -27.3193   20.6727 H   0  0  0  0  0  0
  -17.4234  -26.6671   21.4018 H   0  0  0  0  0  0
  -18.0366  -26.0087   22.9022 H   0  0  0  0  0  0
  -19.7942  -30.7305   24.2235 H   0  0  0  0  0  0
  -17.5013  -31.6252   24.5200 H   0  0  0  0  0  0
  -15.5364  -30.2983   23.7662 H   0  0  0  0  0  0
  -15.8688  -28.0851   22.7014 H   0  0  0  0  0  0
  -24.5918  -30.7070   25.7772 H   0  0  0  0  0  0
  -24.8938  -32.2905   26.4826 H   0  0  0  0  0  0
  -25.8069  -30.8931   27.0220 H   0  0  0  0  0  0
  -26.2977  -29.6736   24.1158 H   0  0  0  0  0  0
  -27.3955  -29.7204   25.4744 H   0  0  0  0  0  0
  -27.8877  -30.4221   23.9510 H   0  0  0  0  0  0
  -27.2635  -33.3618   26.2026 H   0  0  0  0  0  0
  -28.3868  -32.6895   25.0318 H   0  0  0  0  0  0
  -28.0706  -31.8471   26.5426 H   0  0  0  0  0  0
  -28.2584  -38.0140   24.7459 H   0  0  0  0  0  0
  -28.1094  -36.2664   24.6297 H   0  0  0  0  0  0
  -27.2295  -37.1511   25.8849 H   0  0  0  0  0  0
  -20.9408  -29.8804   21.6846 H   0  0  0  0  0  0
  -26.0166  -38.2839   24.1339 H   0  0  0  0  0  0
  -29.4656  -18.5502   18.2569 H   0  0  0  0  0  0
  -31.3742  -17.3665   20.7315 H   0  0  0  0  0  0
  -30.3387  -17.3595   22.0952 H   0  0  0  0  0  0
  -28.5347  -23.4512   19.0843 H   0  0  0  0  0  0
  -29.8570  -23.7506   20.1681 H   0  0  0  0  0  0
  -27.4078  -22.0462   20.9426 H   0  0  0  0  0  0
  -28.8031  -22.2785   21.9337 H   0  0  0  0  0  0
  -28.2427  -24.9852   21.7451 H   0  0  0  0  0  0
  -26.9649  -24.7160   20.6434 H   0  0  0  0  0  0
  -28.8537  -15.7463   20.8027 H   0  0  0  0  0  0
  1 25  1  0  0  0
  1 30  2  0  0  0
  1 80  1  0  0  0
  2  3  1  0  0  0
  2 25  1  0  0  0
  2 81  1  0  0  0
  2 82  1  0  0  0
  3  4  1  0  0  0
  3 83  1  0  0  0
  3 84  1  0  0  0
  4  5  1  0  0  0
  4 85  1  0  0  0
  4 86  1  0  0  0
  5  6  1  0  0  0
  5 26  1  0  0  0
  5 87  1  0  0  0
  6 25  1  0  0  0
  6 88  1  0  0  0
  6 89  1  0  0  0
  7  8  2  0  0  0
  7 26  1  0  0  0
  7 29  1  0  0  0
  8  9  1  0  0  0
  8 22  1  0  0  0
  9 10  1  0  0  0
  9 27  2  0  0  0
 10 11  2  0  0  0
 10 15  1  0  0  0
 11 12  1  0  0  0
 11 90  1  0  0  0
 12 13  2  0  0  0
 12 91  1  0  0  0
 13 14  1  0  0  0
 13 31  1  0  0  0
 14 15  2  0  0  0
 14 92  1  0  0  0
 15 93  1  0  0  0
 16 17  2  0  0  0
 16 21  1  0  0  0
 16 31  1  0  0  0
 17 18  1  0  0  0
 17 94  1  0  0  0
 18 19  2  0  0  0
 18 95  1  0  0  0
 19 20  1  0  0  0
 19 24  1  0  0  0
 20 21  2  0  0  0
 20 96  1  0  0  0
 21 23  1  0  0  0
 22 28  1  0  0  0
 22 32  2  0  0  0
 26 27  1  0  0  0
 28 97  1  0  0  0
 28 98  1  0  0  0
 29 99  1  0  0  0
 29100  1  0  0  0
 33 34  1  0  0  0
 33 66  1  0  0  0
 33 70  2  0  0  0
 34 36  1  0  0  0
 34 59  1  0  0  0
 34101  1  0  0  0
 35 44  2  0  0  0
 35 45  1  0  0  0
 35 68  1  0  0  0
 36 56  1  0  0  0
 36102  1  0  0  0
 37 39  1  0  0  0
 37 47  1  0  0  0
 37 66  1  0  0  0
 37103  1  0  0  0
 38 43  2  0  0  0
 38 46  1  0  0  0
 38 47  1  0  0  0
 39 64  1  0  0  0
 39 67  2  0  0  0
 40 52  1  0  0  0
 40 53  2  0  0  0
 40 58  1  0  0  0
 41104  1  0  0  0
 41105  1  0  0  0
 41106  1  0  0  0
 41 48  1  0  0  0
 42 43  1  0  0  0
 42 66  1  0  0  0
 42107  1  0  0  0
 42108  1  0  0  0
 43 44  1  0  0  0
 44109  1  0  0  0
 45 46  2  0  0  0
 45110  1  0  0  0
 46111  1  0  0  0
 47112  1  0  0  0
 47113  1  0  0  0
 48 56  1  0  0  0
 48 65  1  0  0  0
 48114  1  0  0  0
 49 50  1  0  0  0
 49 53  1  0  0  0
 49 64  1  0  0  0
 49115  1  0  0  0
 50 51  1  0  0  0
 50116  1  0  0  0
 50117  1  0  0  0
 51 52  1  0  0  0
 51118  1  0  0  0
 51119  1  0  0  0
 52120  1  0  0  0
 52121  1  0  0  0
 53 54  1  0  0  0
 54 55  2  0  0  0
 54122  1  0  0  0
 55 57  1  0  0  0
 55123  1  0  0  0
 56 69  2  0  0  0
 57 58  2  0  0  0
 57124  1  0  0  0
 58125  1  0  0  0
 59 60  1  0  0  0
 59 61  1  0  0  0
 59 62  1  0  0  0
 60126  1  0  0  0
 60127  1  0  0  0
 60128  1  0  0  0
 61129  1  0  0  0
 61130  1  0  0  0
 61131  1  0  0  0
 62132  1  0  0  0
 62133  1  0  0  0
 62134  1  0  0  0
 63 65  1  0  0  0
 63135  1  0  0  0
 63136  1  0  0  0
 63137  1  0  0  0
 64138  1  0  0  0
 65139  1  0  0  0
 68 76  1  0  0  0
 71 72  1  0  0  0
 71 77  2  0  0  0
 71140  1  0  0  0
 72 73  1  0  0  0
 72 78  2  0  0  0
 73 80  1  0  0  0
 73141  1  0  0  0
 73142  1  0  0  0
 74 75  1  0  0  0
 74 76  1  0  0  0
 74143  1  0  0  0
 74144  1  0  0  0
 75 79  1  0  0  0
 75145  1  0  0  0
 75146  1  0  0  0
 76147  1  0  0  0
 76148  1  0  0  0
 77 79  1  0  0  0
 78 79  1  0  0  0
 80149  1  0  0  0
M  ISO  4   1 100  68 101  76 101  80 100
M  END
> <chiral flag>
0

> <version>
0

> <s_m_source_file>
/data/baiqing/PycharmProjects/Reinvent-master-3.2/result/LINK_invent/BTK/process_docking_weight1_custom_sum_contain_oxygen_bond_distance_aromatic_linkinvent_7_9_3/rearranged_h_0057.sdf

> <i_m_source_file_index>
71

> <r_mmod_Potential_Energy-OPLS-2005>
90.1307220458984

> <r_mmod_Stretch_Energy-OPLS-2005>
128.726898193359

> <r_mmod_Bend_Energy-OPLS-2005>
184.387344360352

> <r_mmod_Torsional_Energy-OPLS-2005>
228.540176391602

> <r_mmod_Improper_Torsional_Energy-OPLS-2005>
6.22876453399658

> <r_mmod_Van_der_Waal_Energy-OPLS-2005>
115.205711364746

> <r_mmod_Electrostatic_Energy-OPLS-2005>
-444.923950195312

> <r_mmod_Solvation_Energy-OPLS-2005>
-225.045059204102

> <b_mmod_Minimization_Converged-OPLS-2005>
0

> <r_mmod_RMS_Derivative-OPLS-2005>
2.09574508666992

$$$$
71
                    3D
 Structure written by MMmdl.
158166  0  0  1  0            999 V2000
  -30.3844  -15.4245   20.3500 C   0  0  0  0  0  0
  -30.4352  -12.9283   19.5204 C   0  0  0  0  0  0
  -29.5423  -12.5979   18.2955 C   0  0  0  0  0  0
  -28.0981  -12.2963   18.7316 C   0  0  0  0  0  0
  -27.6030  -13.2881   19.8118 C   0  0  2  0  0  0
  -28.6333  -13.5379   20.9335 C   0  0  0  0  0  0
  -25.2371  -13.8260   20.5763 C   0  0  0  0  0  0
  -24.1741  -13.0433   20.9271 C   0  0  0  0  0  0
  -24.6411  -11.6934   20.8764 C   0  0  0  0  0  0
  -23.9107  -10.4289   21.0404 C   0  0  0  0  0  0
  -24.3651   -9.4200   21.9179 C   0  0  0  0  0  0
  -23.6312   -8.2241   22.0753 C   0  0  0  0  0  0
  -22.4291   -8.0290   21.3546 C   0  0  0  0  0  0
  -21.9926   -9.0267   20.4655 C   0  0  0  0  0  0
  -22.7270  -10.2140   20.3060 C   0  0  0  0  0  0
  -21.6858   -6.0743   22.5276 C   0  0  0  0  0  0
  -21.4023   -6.5640   23.8205 C   0  0  0  0  0  0
  -21.3655   -5.6793   24.9166 C   0  0  0  0  0  0
  -21.6039   -4.3053   24.7215 C   0  0  0  0  0  0
  -21.8824   -3.8150   23.4336 C   0  0  0  0  0  0
  -21.9194   -4.6970   22.3393 C   0  0  0  0  0  0
  -22.7753  -13.5180   21.1900 C   0  0  0  0  0  0
  -22.1664   -4.2156   21.0973 F   0  0  0  0  0  0
  -21.5619   -3.4535   25.7729 F   0  0  0  0  0  0
  -29.8334  -14.0965   20.2812 N   0  0  0  0  0  0
  -26.2799  -12.9555   20.3203 N   0  0  0  0  0  0
  -25.9355  -11.6645   20.5707 N   0  0  0  0  0  0
  -22.0410  -12.8171   22.0458 N   0  0  0  0  0  0
  -25.3975  -15.2001   20.4205 N   0  0  0  0  0  0
  -31.6186  -15.3868   20.2168 O   0  0  0  0  0  0
  -21.6645   -6.8891   21.4239 O   0  0  0  0  0  0
  -22.3428  -14.5465   20.6717 O   0  0  0  0  0  0
  -24.6737  -31.8126   23.1621 C   0  0  0  0  0  0
  -25.9371  -32.4531   23.8118 C   0  0  1  0  0  0
  -27.2152  -26.8175   20.2041 C   0  0  0  0  0  0
  -25.5995  -33.8346   24.2016 N   0  0  0  0  0  0
  -23.4925  -30.4215   21.5146 C   0  0  2  0  0  0
  -24.9457  -28.7834   20.1230 C   0  0  0  0  0  0
  -22.7714  -29.4394   22.4764 C   0  0  0  0  0  0
  -18.0336  -28.1409   22.8468 C   0  0  0  0  0  0
  -24.1489  -36.7173   23.2648 C   0  0  0  0  0  0
  -26.0689  -30.5822   21.4106 C   0  0  0  0  0  0
  -26.1349  -29.1593   20.7606 C   0  0  0  0  0  0
  -27.2637  -28.2022   20.7697 C   0  0  0  0  0  0
  -25.9924  -26.6203   19.5202 C   0  0  0  0  0  0
  -24.9050  -27.5350   19.4825 C   0  0  0  0  0  0
  -23.7395  -29.7273   20.1465 C   0  0  0  0  0  0
  -25.4136  -36.2930   24.0293 C   0  0  1  0  0  0
  -20.5966  -28.3759   23.1167 C   0  0  2  0  0  0
  -20.6806  -26.9433   22.5393 C   0  0  0  0  0  0
  -19.5772  -26.6369   21.5216 C   0  0  0  0  0  0
  -18.1961  -26.7936   22.1632 C   0  0  0  0  0  0
  -19.1600  -28.8910   23.2798 C   0  0  0  0  0  0
  -18.9506  -30.1499   23.8834 C   0  0  0  0  0  0
  -17.6495  -30.6601   24.0549 C   0  0  0  0  0  0
  -25.9112  -34.9319   23.4982 C   0  0  0  0  0  0
  -16.5385  -29.9081   23.6349 C   0  0  0  0  0  0
  -16.7313  -28.6499   23.0374 C   0  0  0  0  0  0
  -26.4580  -31.6523   25.0698 C   0  0  0  0  0  0
  -25.3671  -31.3828   26.1337 C   0  0  0  0  0  0
  -27.0499  -30.2873   24.6526 C   0  0  0  0  0  0
  -27.6037  -32.4369   25.7512 C   0  0  0  0  0  0
  -27.5563  -37.1746   24.8466 C   0  0  0  0  0  0
  -21.4377  -29.3037   22.3509 N   0  0  0  0  0  0
  -26.4270  -37.3683   23.9413 N   0  0  0  0  0  0
  -24.7674  -30.9687   22.0816 N   0  0  0  0  0  0
  -23.4215  -28.7974   23.3046 O   0  0  0  0  0  0
  -28.1920  -25.6516   20.1978 O   0  0  0  0  0  0
  -26.5734  -34.8876   22.4584 O   0  0  0  0  0  0
  -23.5787  -32.1148   23.6655 O   0  0  0  0  0  0
  -29.1458  -20.0070   20.2280 C   0  0  0  0  0  0
  -28.5508  -22.4021   20.1674 C   0  0  0  0  0  0
  -30.3630  -18.5244   22.0521 C   0  0  0  0  0  0
  -26.1693  -22.3522   17.9386 C   0  0  0  0  0  0
  -27.9191  -21.2690   16.5426 C   0  0  0  0  0  0
  -28.2894  -23.5959   17.3254 C   0  0  0  0  0  0
  -27.8769  -24.0339   20.5925 C   0  0  0  0  0  0
  -29.9273  -18.4203   20.5831 C   0  0  2  0  0  0
  -27.6928  -22.2335   17.7366 C   0  0  0  0  0  0
  -29.0874  -21.3024   20.9526 N   0  0  0  0  0  0
  -28.6752  -20.3397   19.0163 N   0  0  0  0  0  0
  -28.3319  -21.7321   18.9784 N   0  0  0  0  0  0
  -29.6313  -16.7421   20.3805 N   0  0  0  0  0  0
  -31.4407  -13.1636   19.1688 H   0  0  0  0  0  0
  -30.5517  -12.0571   20.1675 H   0  0  0  0  0  0
  -29.9528  -11.7514   17.7428 H   0  0  0  0  0  0
  -29.5463  -13.4435   17.6065 H   0  0  0  0  0  0
  -28.0785  -11.2813   19.1309 H   0  0  0  0  0  0
  -27.4290  -12.3011   17.8697 H   0  0  0  0  0  0
  -27.4915  -14.2338   19.2801 H   0  0  0  0  0  0
  -28.8493  -12.6284   21.4962 H   0  0  0  0  0  0
  -28.2437  -14.2627   21.6507 H   0  0  0  0  0  0
  -25.2797   -9.5664   22.4752 H   0  0  0  0  0  0
  -24.0013   -7.4629   22.7472 H   0  0  0  0  0  0
  -21.0846   -8.8801   19.8972 H   0  0  0  0  0  0
  -22.3724  -10.9686   19.6177 H   0  0  0  0  0  0
  -21.2032   -7.6154   23.9712 H   0  0  0  0  0  0
  -21.1465   -6.0521   25.9064 H   0  0  0  0  0  0
  -22.0609   -2.7615   23.2829 H   0  0  0  0  0  0
  -22.4047  -11.9864   22.4886 H   0  0  0  0  0  0
  -21.1023  -13.1189   22.2651 H   0  0  0  0  0  0
  -24.6227  -15.8451   20.5354 H   0  0  0  0  0  0
  -26.2321  -15.6442   20.0622 H   0  0  0  0  0  0
  -26.7443  -32.5035   23.0827 H   0  0  0  0  0  0
  -25.0085  -33.9394   25.0133 H   0  0  0  0  0  0
  -22.8119  -31.2567   21.3356 H   0  0  0  0  0  0
  -23.3770  -35.9484   23.3271 H   0  0  0  0  0  0
  -24.3559  -36.8863   22.2068 H   0  0  0  0  0  0
  -23.7228  -37.6340   23.6737 H   0  0  0  0  0  0
  -26.2634  -31.3144   20.6257 H   0  0  0  0  0  0
  -26.9226  -30.6427   22.0733 H   0  0  0  0  0  0
  -28.1650  -28.4956   21.2896 H   0  0  0  0  0  0
  -25.8469  -25.6738   19.0195 H   0  0  0  0  0  0
  -24.0032  -27.2392   18.9636 H   0  0  0  0  0  0
  -23.9103  -30.4900   19.3859 H   0  0  0  0  0  0
  -22.8451  -29.1910   19.8243 H   0  0  0  0  0  0
  -25.1340  -36.1703   25.0784 H   0  0  0  0  0  0
  -21.0049  -28.3365   24.1293 H   0  0  0  0  0  0
  -20.5694  -26.2375   23.3640 H   0  0  0  0  0  0
  -21.6665  -26.7399   22.1197 H   0  0  0  0  0  0
  -19.6924  -25.6265   21.1284 H   0  0  0  0  0  0
  -19.6706  -27.3147   20.6721 H   0  0  0  0  0  0
  -17.4224  -26.6675   21.4041 H   0  0  0  0  0  0
  -18.0361  -26.0091   22.9044 H   0  0  0  0  0  0
  -19.7981  -30.7340   24.2162 H   0  0  0  0  0  0
  -17.5047  -31.6277   24.5160 H   0  0  0  0  0  0
  -15.5382  -30.2965   23.7711 H   0  0  0  0  0  0
  -15.8712  -28.0796   22.7128 H   0  0  0  0  0  0
  -24.5802  -30.7254   25.7624 H   0  0  0  0  0  0
  -24.8938  -32.3070   26.4669 H   0  0  0  0  0  0
  -25.7857  -30.9011   27.0182 H   0  0  0  0  0  0
  -26.3202  -29.6513   24.1504 H   0  0  0  0  0  0
  -27.3953  -29.7286   25.5234 H   0  0  0  0  0  0
  -27.9172  -30.4027   24.0020 H   0  0  0  0  0  0
  -27.2557  -33.3696   26.1967 H   0  0  0  0  0  0
  -28.3911  -32.6898   25.0397 H   0  0  0  0  0  0
  -28.0642  -31.8591   26.5538 H   0  0  0  0  0  0
  -28.2557  -38.0064   24.7526 H   0  0  0  0  0  0
  -28.1084  -36.2592   24.6283 H   0  0  0  0  0  0
  -27.2280  -37.1371   25.8868 H   0  0  0  0  0  0
  -20.9660  -29.8701   21.6601 H   0  0  0  0  0  0
  -26.0103  -38.2731   24.1436 H   0  0  0  0  0  0
  -31.0110  -17.6986   22.3458 H   0  0  0  0  0  0
  -29.4986  -18.5268   22.7161 H   0  0  0  0  0  0
  -30.9184  -19.4457   22.2273 H   0  0  0  0  0  0
  -25.6679  -22.6170   17.0073 H   0  0  0  0  0  0
  -25.9005  -23.1177   18.6615 H   0  0  0  0  0  0
  -25.7415  -21.4100   18.2845 H   0  0  0  0  0  0
  -27.4969  -21.6701   15.6201 H   0  0  0  0  0  0
  -27.4412  -20.3014   16.7022 H   0  0  0  0  0  0
  -28.9804  -21.0923   16.3623 H   0  0  0  0  0  0
  -27.9824  -23.8775   16.3170 H   0  0  0  0  0  0
  -29.3802  -23.5707   17.3349 H   0  0  0  0  0  0
  -27.9683  -24.4059   17.9755 H   0  0  0  0  0  0
  -27.9699  -24.0580   21.6777 H   0  0  0  0  0  0
  -26.8029  -23.9344   20.4561 H   0  0  0  0  0  0
  -30.8496  -18.5033   20.0073 H   0  0  0  0  0  0
  -28.6376  -16.5732   20.3421 H   0  0  0  0  0  0
  1 25  1  0  0  0
  1 30  2  0  0  0
  1 83  1  0  0  0
  2  3  1  0  0  0
  2 25  1  0  0  0
  2 84  1  0  0  0
  2 85  1  0  0  0
  3  4  1  0  0  0
  3 86  1  0  0  0
  3 87  1  0  0  0
  4  5  1  0  0  0
  4 88  1  0  0  0
  4 89  1  0  0  0
  5  6  1  0  0  0
  5 26  1  0  0  0
  5 90  1  0  0  0
  6 25  1  0  0  0
  6 91  1  0  0  0
  6 92  1  0  0  0
  7  8  2  0  0  0
  7 26  1  0  0  0
  7 29  1  0  0  0
  8  9  1  0  0  0
  8 22  1  0  0  0
  9 10  1  0  0  0
  9 27  2  0  0  0
 10 11  2  0  0  0
 10 15  1  0  0  0
 11 12  1  0  0  0
 11 93  1  0  0  0
 12 13  2  0  0  0
 12 94  1  0  0  0
 13 14  1  0  0  0
 13 31  1  0  0  0
 14 15  2  0  0  0
 14 95  1  0  0  0
 15 96  1  0  0  0
 16 17  2  0  0  0
 16 21  1  0  0  0
 16 31  1  0  0  0
 17 18  1  0  0  0
 17 97  1  0  0  0
 18 19  2  0  0  0
 18 98  1  0  0  0
 19 20  1  0  0  0
 19 24  1  0  0  0
 20 21  2  0  0  0
 20 99  1  0  0  0
 21 23  1  0  0  0
 22 28  1  0  0  0
 22 32  2  0  0  0
 26 27  1  0  0  0
 28100  1  0  0  0
 28101  1  0  0  0
 29102  1  0  0  0
 29103  1  0  0  0
 33 34  1  0  0  0
 33 66  1  0  0  0
 33 70  2  0  0  0
 34 36  1  0  0  0
 34 59  1  0  0  0
 34104  1  0  0  0
 35 44  2  0  0  0
 35 45  1  0  0  0
 35 68  1  0  0  0
 36 56  1  0  0  0
 36105  1  0  0  0
 37 39  1  0  0  0
 37 47  1  0  0  0
 37 66  1  0  0  0
 37106  1  0  0  0
 38 43  2  0  0  0
 38 46  1  0  0  0
 38 47  1  0  0  0
 39 64  1  0  0  0
 39 67  2  0  0  0
 40 52  1  0  0  0
 40 53  2  0  0  0
 40 58  1  0  0  0
 41107  1  0  0  0
 41108  1  0  0  0
 41109  1  0  0  0
 41 48  1  0  0  0
 42 43  1  0  0  0
 42 66  1  0  0  0
 42110  1  0  0  0
 42111  1  0  0  0
 43 44  1  0  0  0
 44112  1  0  0  0
 45 46  2  0  0  0
 45113  1  0  0  0
 46114  1  0  0  0
 47115  1  0  0  0
 47116  1  0  0  0
 48 56  1  0  0  0
 48 65  1  0  0  0
 48117  1  0  0  0
 49 50  1  0  0  0
 49 53  1  0  0  0
 49 64  1  0  0  0
 49118  1  0  0  0
 50 51  1  0  0  0
 50119  1  0  0  0
 50120  1  0  0  0
 51 52  1  0  0  0
 51121  1  0  0  0
 51122  1  0  0  0
 52123  1  0  0  0
 52124  1  0  0  0
 53 54  1  0  0  0
 54 55  2  0  0  0
 54125  1  0  0  0
 55 57  1  0  0  0
 55126  1  0  0  0
 56 69  2  0  0  0
 57 58  2  0  0  0
 57127  1  0  0  0
 58128  1  0  0  0
 59 60  1  0  0  0
 59 61  1  0  0  0
 59 62  1  0  0  0
 60129  1  0  0  0
 60130  1  0  0  0
 60131  1  0  0  0
 61132  1  0  0  0
 61133  1  0  0  0
 61134  1  0  0  0
 62135  1  0  0  0
 62136  1  0  0  0
 62137  1  0  0  0
 63 65  1  0  0  0
 63138  1  0  0  0
 63139  1  0  0  0
 63140  1  0  0  0
 64141  1  0  0  0
 65142  1  0  0  0
 68 77  1  0  0  0
 71 78  1  0  0  0
 71 80  1  0  0  0
 71 81  2  0  0  0
 72 77  1  0  0  0
 72 80  2  0  0  0
 72 82  1  0  0  0
 73143  1  0  0  0
 73144  1  0  0  0
 73145  1  0  0  0
 73 78  1  0  0  0
 74146  1  0  0  0
 74147  1  0  0  0
 74148  1  0  0  0
 74 79  1  0  0  0
 75 79  1  0  0  0
 75149  1  0  0  0
 75150  1  0  0  0
 75151  1  0  0  0
 76 79  1  0  0  0
 76152  1  0  0  0
 76153  1  0  0  0
 76154  1  0  0  0
 77155  1  0  0  0
 77156  1  0  0  0
 78 83  1  0  0  0
 78157  1  0  0  0
 79 82  1  0  0  0
 81 82  1  0  0  0
 83158  1  0  0  0
M  ISO  4   1 100  68 101  77 101  83 100
M  END
> <chiral flag>
0

> <version>
0

> <s_m_source_file>
/data/baiqing/PycharmProjects/Reinvent-master-3.2/result/LINK_invent/BTK/process_docking_weight1_custom_sum_contain_oxygen_bond_distance_aromatic_linkinvent_7_9_3/rearranged_h_0057.sdf

> <i_m_source_file_index>
72

> <r_mmod_Potential_Energy-OPLS-2005>
1675.23645019531

> <r_mmod_Stretch_Energy-OPLS-2005>
761.884338378906

> <r_mmod_Bend_Energy-OPLS-2005>
561.10400390625

> <r_mmod_Torsional_Energy-OPLS-2005>
267.901763916016

> <r_mmod_Improper_Torsional_Energy-OPLS-2005>
7.2572193145752

> <r_mmod_Van_der_Waal_Energy-OPLS-2005>
112.285491943359

> <r_mmod_Electrostatic_Energy-OPLS-2005>
-448.562072753906

> <r_mmod_Solvation_Energy-OPLS-2005>
-226.559997558594

> <b_mmod_Minimization_Converged-OPLS-2005>
0

> <r_mmod_RMS_Derivative-OPLS-2005>
1.39407277107239

$$$$
72
                    3D
 Structure written by MMmdl.
154162  0  0  1  0            999 V2000
  -30.5781  -14.8876   20.5013 C   0  0  0  0  0  0
  -30.4508  -12.5611   19.5011 C   0  0  0  0  0  0
  -29.5245  -12.5273   18.2615 C   0  0  0  0  0  0
  -28.0598  -12.3035   18.6784 C   0  0  0  0  0  0
  -27.6420  -13.2264   19.8490 C   0  0  2  0  0  0
  -28.6797  -13.1795   20.9863 C   0  0  0  0  0  0
  -25.2549  -13.8178   20.5705 C   0  0  0  0  0  0
  -24.1817  -13.0437   20.9185 C   0  0  0  0  0  0
  -24.6397  -11.6908   20.8725 C   0  0  0  0  0  0
  -23.9073  -10.4287   21.0397 C   0  0  0  0  0  0
  -24.3620   -9.4194   21.9171 C   0  0  0  0  0  0
  -23.6289   -8.2234   22.0750 C   0  0  0  0  0  0
  -22.4273   -8.0276   21.3542 C   0  0  0  0  0  0
  -21.9913   -9.0249   20.4642 C   0  0  0  0  0  0
  -22.7245  -10.2124   20.3050 C   0  0  0  0  0  0
  -21.6847   -6.0731   22.5282 C   0  0  0  0  0  0
  -21.4007   -6.5643   23.8210 C   0  0  0  0  0  0
  -21.3661   -5.6799   24.9172 C   0  0  0  0  0  0
  -21.6042   -4.3063   24.7225 C   0  0  0  0  0  0
  -21.8820   -3.8153   23.4351 C   0  0  0  0  0  0
  -21.9187   -4.6962   22.3407 C   0  0  0  0  0  0
  -22.7852  -13.5231   21.1870 C   0  0  0  0  0  0
  -22.1657   -4.2150   21.0984 F   0  0  0  0  0  0
  -21.5626   -3.4551   25.7738 F   0  0  0  0  0  0
  -29.9671  -13.6324   20.4250 N   0  0  0  0  0  0
  -26.2945  -12.9354   20.3250 N   0  0  0  0  0  0
  -25.9320  -11.6503   20.5712 N   0  0  0  0  0  0
  -22.0521  -12.8199   22.0424 N   0  0  0  0  0  0
  -25.4354  -15.1900   20.4185 N   0  0  0  0  0  0
  -31.7256  -14.9786   20.0491 O   0  0  0  0  0  0
  -21.6636   -6.8875   21.4244 O   0  0  0  0  0  0
  -22.3525  -14.5539   20.6725 O   0  0  0  0  0  0
  -24.6394  -31.8465   23.1903 C   0  0  0  0  0  0
  -25.9183  -32.4710   23.8286 C   0  0  1  0  0  0
  -27.2191  -27.1713   20.1543 C   0  0  0  0  0  0
  -25.5938  -33.8513   24.2196 N   0  0  0  0  0  0
  -23.4428  -30.4664   21.5361 C   0  0  2  0  0  0
  -24.8949  -28.8995   20.1120 C   0  0  0  0  0  0
  -22.7542  -29.4561   22.4878 C   0  0  0  0  0  0
  -18.0294  -28.1395   22.8466 C   0  0  0  0  0  0
  -24.1494  -36.7263   23.2642 C   0  0  0  0  0  0
  -25.9970  -30.7321   21.3865 C   0  0  0  0  0  0
  -26.0716  -29.3460   20.7290 C   0  0  0  0  0  0
  -27.2393  -28.4981   20.7340 C   0  0  0  0  0  0
  -26.0227  -26.8209   19.4936 C   0  0  0  0  0  0
  -24.8816  -27.6485   19.4778 C   0  0  0  0  0  0
  -23.6672  -29.7946   20.1559 C   0  0  0  0  0  0
  -25.4123  -36.3040   24.0315 C   0  0  1  0  0  0
  -20.5905  -28.3721   23.1234 C   0  0  2  0  0  0
  -20.6790  -26.9425   22.5406 C   0  0  0  0  0  0
  -19.5768  -26.6381   21.5212 C   0  0  0  0  0  0
  -18.1950  -26.7928   22.1625 C   0  0  0  0  0  0
  -19.1550  -28.8874   23.2839 C   0  0  0  0  0  0
  -18.9470  -30.1471   23.8864 C   0  0  0  0  0  0
  -17.6471  -30.6598   24.0544 C   0  0  0  0  0  0
  -25.9064  -34.9412   23.5060 C   0  0  0  0  0  0
  -16.5358  -29.9083   23.6342 C   0  0  0  0  0  0
  -16.7276  -28.6502   23.0354 C   0  0  0  0  0  0
  -26.4514  -31.6578   25.0721 C   0  0  0  0  0  0
  -25.3707  -31.3768   26.1424 C   0  0  0  0  0  0
  -27.0389  -30.2976   24.6303 C   0  0  0  0  0  0
  -27.6046  -32.4343   25.7500 C   0  0  0  0  0  0
  -27.5574  -37.1788   24.8463 C   0  0  0  0  0  0
  -21.4237  -29.3046   22.3612 N   0  0  0  0  0  0
  -26.4288  -37.3748   23.9400 N   0  0  0  0  0  0
  -24.7124  -31.0337   22.0935 N   0  0  0  0  0  0
  -23.4194  -28.8101   23.3017 O   0  0  0  0  0  0
  -28.2584  -26.1815   20.1797 O   0  0  0  0  0  0
  -26.5653  -34.8903   22.4639 O   0  0  0  0  0  0
  -23.5522  -32.1329   23.7142 O   0  0  0  0  0  0
  -29.6888  -22.7312   21.0404 C   0  0  0  0  0  0
  -28.5195  -23.3094   20.4562 C   0  0  0  0  0  0
  -27.7540  -22.2614   19.8513 C   0  0  0  0  0  0
  -29.1729  -20.4505   20.5214 C   0  0  0  0  0  0
  -26.4128  -22.5607   19.2123 C   0  0  0  0  0  0
  -29.2318  -16.0875   22.1797 C   0  0  0  0  0  0
  -27.9311  -24.8114   20.7953 C   0  0  0  0  0  0
  -29.2440  -18.8714   20.9778 C   0  0  0  0  0  0
  -30.0019  -17.5435   20.2847 C   0  0  0  0  0  0
  -29.9885  -21.3729   21.0749 N   0  0  0  0  0  0
  -28.0786  -20.9125   19.8847 N   0  0  0  0  0  0
  -29.8599  -16.0713   20.8533 N   0  0  0  0  0  0
  -31.4815  -12.7222   19.1834 H   0  0  0  0  0  0
  -30.4547  -11.5930   20.0060 H   0  0  0  0  0  0
  -29.8394  -11.7397   17.5759 H   0  0  0  0  0  0
  -29.6086  -13.4666   17.7120 H   0  0  0  0  0  0
  -27.9703  -11.2616   18.9914 H   0  0  0  0  0  0
  -27.3894  -12.4265   17.8273 H   0  0  0  0  0  0
  -27.6295  -14.2411   19.4497 H   0  0  0  0  0  0
  -28.7693  -12.1693   21.3879 H   0  0  0  0  0  0
  -28.3332  -13.7761   21.8206 H   0  0  0  0  0  0
  -25.2763   -9.5671   22.4734 H   0  0  0  0  0  0
  -23.9987   -7.4648   22.7493 H   0  0  0  0  0  0
  -21.0830   -8.8779   19.8962 H   0  0  0  0  0  0
  -22.3709  -10.9655   19.6159 H   0  0  0  0  0  0
  -21.1996   -7.6158   23.9708 H   0  0  0  0  0  0
  -21.1482   -6.0534   25.9075 H   0  0  0  0  0  0
  -22.0599   -2.7613   23.2853 H   0  0  0  0  0  0
  -22.4145  -11.9802   22.4684 H   0  0  0  0  0  0
  -21.1160  -13.1225   22.2722 H   0  0  0  0  0  0
  -24.6849  -15.8589   20.5498 H   0  0  0  0  0  0
  -26.3065  -15.6180   20.1305 H   0  0  0  0  0  0
  -26.7241  -32.5326   23.1018 H   0  0  0  0  0  0
  -25.0064  -33.9635   25.0326 H   0  0  0  0  0  0
  -22.7445  -31.2918   21.3822 H   0  0  0  0  0  0
  -23.3756  -35.9597   23.3299 H   0  0  0  0  0  0
  -24.3586  -36.8895   22.2058 H   0  0  0  0  0  0
  -23.7253  -37.6461   23.6675 H   0  0  0  0  0  0
  -26.1496  -31.4899   20.6168 H   0  0  0  0  0  0
  -26.8671  -30.7801   22.0292 H   0  0  0  0  0  0
  -28.1370  -28.8360   21.2329 H   0  0  0  0  0  0
  -25.9547  -25.8615   19.0011 H   0  0  0  0  0  0
  -23.9848  -27.3039   18.9796 H   0  0  0  0  0  0
  -23.7956  -30.5682   19.3978 H   0  0  0  0  0  0
  -22.7837  -29.2317   19.8500 H   0  0  0  0  0  0
  -25.1316  -36.1876   25.0810 H   0  0  0  0  0  0
  -20.9985  -28.3319   24.1353 H   0  0  0  0  0  0
  -20.5684  -26.2337   23.3623 H   0  0  0  0  0  0
  -21.6662  -26.7434   22.1209 H   0  0  0  0  0  0
  -19.6935  -25.6285   21.1260 H   0  0  0  0  0  0
  -19.6712  -27.3171   20.6724 H   0  0  0  0  0  0
  -17.4211  -26.6631   21.4037 H   0  0  0  0  0  0
  -18.0360  -26.0089   22.9046 H   0  0  0  0  0  0
  -19.7949  -30.7289   24.2226 H   0  0  0  0  0  0
  -17.5026  -31.6281   24.5142 H   0  0  0  0  0  0
  -15.5355  -30.2973   23.7700 H   0  0  0  0  0  0
  -15.8672  -28.0813   22.7092 H   0  0  0  0  0  0
  -24.5863  -30.7145   25.7738 H   0  0  0  0  0  0
  -24.8933  -32.2962   26.4822 H   0  0  0  0  0  0
  -25.7994  -30.8945   27.0217 H   0  0  0  0  0  0
  -26.3016  -29.6691   24.1297 H   0  0  0  0  0  0
  -27.3985  -29.7283   25.4886 H   0  0  0  0  0  0
  -27.8921  -30.4211   23.9632 H   0  0  0  0  0  0
  -27.2625  -33.3633   26.2068 H   0  0  0  0  0  0
  -28.3858  -32.6927   25.0338 H   0  0  0  0  0  0
  -28.0718  -31.8490   26.5428 H   0  0  0  0  0  0
  -28.2596  -38.0081   24.7501 H   0  0  0  0  0  0
  -28.1066  -36.2612   24.6304 H   0  0  0  0  0  0
  -27.2286  -37.1446   25.8866 H   0  0  0  0  0  0
  -20.9442  -29.8728   21.6769 H   0  0  0  0  0  0
  -26.0160  -38.2816   24.1408 H   0  0  0  0  0  0
  -30.3615  -23.3594   21.6048 H   0  0  0  0  0  0
  -25.6407  -22.6497   19.9773 H   0  0  0  0  0  0
  -26.4504  -23.4911   18.6489 H   0  0  0  0  0  0
  -26.1165  -21.7671   18.5260 H   0  0  0  0  0  0
  -29.5320  -15.2399   22.7986 H   0  0  0  0  0  0
  -28.1451  -16.0850   22.0900 H   0  0  0  0  0  0
  -29.5239  -16.9536   22.7700 H   0  0  0  0  0  0
  -28.1863  -24.9495   21.8458 H   0  0  0  0  0  0
  -26.8481  -24.7039   20.8268 H   0  0  0  0  0  0
  -28.1994  -18.5851   21.1004 H   0  0  0  0  0  0
  -29.6244  -18.9434   21.9960 H   0  0  0  0  0  0
  -29.6788  -17.4916   19.2445 H   0  0  0  0  0  0
  -31.0683  -17.7646   20.2389 H   0  0  0  0  0  0
  1 25  1  0  0  0
  1 30  2  0  0  0
  1 82  1  0  0  0
  2  3  1  0  0  0
  2 25  1  0  0  0
  2 83  1  0  0  0
  2 84  1  0  0  0
  3  4  1  0  0  0
  3 85  1  0  0  0
  3 86  1  0  0  0
  4  5  1  0  0  0
  4 87  1  0  0  0
  4 88  1  0  0  0
  5  6  1  0  0  0
  5 26  1  0  0  0
  5 89  1  0  0  0
  6 25  1  0  0  0
  6 90  1  0  0  0
  6 91  1  0  0  0
  7  8  2  0  0  0
  7 26  1  0  0  0
  7 29  1  0  0  0
  8  9  1  0  0  0
  8 22  1  0  0  0
  9 10  1  0  0  0
  9 27  2  0  0  0
 10 11  2  0  0  0
 10 15  1  0  0  0
 11 12  1  0  0  0
 11 92  1  0  0  0
 12 13  2  0  0  0
 12 93  1  0  0  0
 13 14  1  0  0  0
 13 31  1  0  0  0
 14 15  2  0  0  0
 14 94  1  0  0  0
 15 95  1  0  0  0
 16 17  2  0  0  0
 16 21  1  0  0  0
 16 31  1  0  0  0
 17 18  1  0  0  0
 17 96  1  0  0  0
 18 19  2  0  0  0
 18 97  1  0  0  0
 19 20  1  0  0  0
 19 24  1  0  0  0
 20 21  2  0  0  0
 20 98  1  0  0  0
 21 23  1  0  0  0
 22 28  1  0  0  0
 22 32  2  0  0  0
 26 27  1  0  0  0
 28 99  1  0  0  0
 28100  1  0  0  0
 29101  1  0  0  0
 29102  1  0  0  0
 33 34  1  0  0  0
 33 66  1  0  0  0
 33 70  2  0  0  0
 34 36  1  0  0  0
 34 59  1  0  0  0
 34103  1  0  0  0
 35 44  2  0  0  0
 35 45  1  0  0  0
 35 68  1  0  0  0
 36 56  1  0  0  0
 36104  1  0  0  0
 37 39  1  0  0  0
 37 47  1  0  0  0
 37 66  1  0  0  0
 37105  1  0  0  0
 38 43  2  0  0  0
 38 46  1  0  0  0
 38 47  1  0  0  0
 39 64  1  0  0  0
 39 67  2  0  0  0
 40 52  1  0  0  0
 40 53  2  0  0  0
 40 58  1  0  0  0
 41106  1  0  0  0
 41107  1  0  0  0
 41108  1  0  0  0
 41 48  1  0  0  0
 42 43  1  0  0  0
 42 66  1  0  0  0
 42109  1  0  0  0
 42110  1  0  0  0
 43 44  1  0  0  0
 44111  1  0  0  0
 45 46  2  0  0  0
 45112  1  0  0  0
 46113  1  0  0  0
 47114  1  0  0  0
 47115  1  0  0  0
 48 56  1  0  0  0
 48 65  1  0  0  0
 48116  1  0  0  0
 49 50  1  0  0  0
 49 53  1  0  0  0
 49 64  1  0  0  0
 49117  1  0  0  0
 50 51  1  0  0  0
 50118  1  0  0  0
 50119  1  0  0  0
 51 52  1  0  0  0
 51120  1  0  0  0
 51121  1  0  0  0
 52122  1  0  0  0
 52123  1  0  0  0
 53 54  1  0  0  0
 54 55  2  0  0  0
 54124  1  0  0  0
 55 57  1  0  0  0
 55125  1  0  0  0
 56 69  2  0  0  0
 57 58  2  0  0  0
 57126  1  0  0  0
 58127  1  0  0  0
 59 60  1  0  0  0
 59 61  1  0  0  0
 59 62  1  0  0  0
 60128  1  0  0  0
 60129  1  0  0  0
 60130  1  0  0  0
 61131  1  0  0  0
 61132  1  0  0  0
 61133  1  0  0  0
 62134  1  0  0  0
 62135  1  0  0  0
 62136  1  0  0  0
 63 65  1  0  0  0
 63137  1  0  0  0
 63138  1  0  0  0
 63139  1  0  0  0
 64140  1  0  0  0
 65141  1  0  0  0
 68 77  1  0  0  0
 71 72  2  0  0  0
 71 80  1  0  0  0
 71142  1  0  0  0
 72 73  1  0  0  0
 72 77  1  0  0  0
 73 75  1  0  0  0
 73 81  2  0  0  0
 74 78  1  0  0  0
 74 80  2  0  0  0
 74 81  1  0  0  0
 75143  1  0  0  0
 75144  1  0  0  0
 75145  1  0  0  0
 76 82  1  0  0  0
 76146  1  0  0  0
 76147  1  0  0  0
 76148  1  0  0  0
 77149  1  0  0  0
 77150  1  0  0  0
 78 79  1  0  0  0
 78151  1  0  0  0
 78152  1  0  0  0
 79 82  1  0  0  0
 79153  1  0  0  0
 79154  1  0  0  0
M  ISO  4   1 100  68 101  77 101  82 100
M  END
> <chiral flag>
0

> <version>
0

> <s_m_source_file>
/data/baiqing/PycharmProjects/Reinvent-master-3.2/result/LINK_invent/BTK/process_docking_weight1_custom_sum_contain_oxygen_bond_distance_aromatic_linkinvent_7_9_3/rearranged_h_0057.sdf

> <i_m_source_file_index>
73

> <r_mmod_Potential_Energy-OPLS-2005>
208.51106262207

> <r_mmod_Stretch_Energy-OPLS-2005>
216.33235168457

> <r_mmod_Bend_Energy-OPLS-2005>
262.902679443359

> <r_mmod_Torsional_Energy-OPLS-2005>
302.977508544922

> <r_mmod_Improper_Torsional_Energy-OPLS-2005>
13.1537914276123

> <r_mmod_Van_der_Waal_Energy-OPLS-2005>
149.67643737793

> <r_mmod_Electrostatic_Energy-OPLS-2005>
-660.742065429688

> <r_mmod_Solvation_Energy-OPLS-2005>
-229.539047241211

> <b_mmod_Minimization_Converged-OPLS-2005>
0

> <r_mmod_RMS_Derivative-OPLS-2005>
2.51501727104187

$$$$
73
                    3D
 Structure written by MMmdl.
151159  0  0  1  0            999 V2000
  -30.4225  -15.3406   20.3116 C   0  0  0  0  0  0
  -30.4399  -12.8528   19.5248 C   0  0  0  0  0  0
  -29.5376  -12.5775   18.2938 C   0  0  0  0  0  0
  -28.0978  -12.2594   18.7318 C   0  0  0  0  0  0
  -27.6027  -13.2510   19.8088 C   0  0  2  0  0  0
  -28.6352  -13.4966   20.9306 C   0  0  0  0  0  0
  -25.2352  -13.8116   20.5730 C   0  0  0  0  0  0
  -24.1706  -13.0346   20.9254 C   0  0  0  0  0  0
  -24.6355  -11.6850   20.8763 C   0  0  0  0  0  0
  -23.9050  -10.4236   21.0418 C   0  0  0  0  0  0
  -24.3610   -9.4156   21.9195 C   0  0  0  0  0  0
  -23.6281   -8.2197   22.0758 C   0  0  0  0  0  0
  -22.4262   -8.0248   21.3547 C   0  0  0  0  0  0
  -21.9897   -9.0213   20.4645 C   0  0  0  0  0  0
  -22.7228  -10.2088   20.3058 C   0  0  0  0  0  0
  -21.6836   -6.0726   22.5284 C   0  0  0  0  0  0
  -21.3992   -6.5636   23.8215 C   0  0  0  0  0  0
  -21.3643   -5.6793   24.9180 C   0  0  0  0  0  0
  -21.6039   -4.3055   24.7230 C   0  0  0  0  0  0
  -21.8828   -3.8149   23.4355 C   0  0  0  0  0  0
  -21.9190   -4.6961   22.3409 C   0  0  0  0  0  0
  -22.7739  -13.5137   21.1917 C   0  0  0  0  0  0
  -22.1666   -4.2149   21.0987 F   0  0  0  0  0  0
  -21.5624   -3.4539   25.7743 F   0  0  0  0  0  0
  -29.8671  -14.0166   20.3042 N   0  0  0  0  0  0
  -26.2774  -12.9361   20.3194 N   0  0  0  0  0  0
  -25.9280  -11.6494   20.5714 N   0  0  0  0  0  0
  -22.0389  -12.8123   22.0463 N   0  0  0  0  0  0
  -25.3886  -15.1839   20.4165 N   0  0  0  0  0  0
  -31.6595  -15.2798   20.2321 O   0  0  0  0  0  0
  -21.6618   -6.8858   21.4244 O   0  0  0  0  0  0
  -22.3430  -14.5451   20.6768 O   0  0  0  0  0  0
  -24.6654  -31.8234   23.1704 C   0  0  0  0  0  0
  -25.9330  -32.4590   23.8170 C   0  0  1  0  0  0
  -27.2219  -26.9170   20.1845 C   0  0  0  0  0  0
  -25.6005  -33.8402   24.2084 N   0  0  0  0  0  0
  -23.4806  -30.4354   21.5203 C   0  0  2  0  0  0
  -24.9349  -28.8219   20.1147 C   0  0  0  0  0  0
  -22.7679  -29.4448   22.4780 C   0  0  0  0  0  0
  -18.0330  -28.1417   22.8469 C   0  0  0  0  0  0
  -24.1492  -36.7186   23.2648 C   0  0  0  0  0  0
  -26.0519  -30.6268   21.4023 C   0  0  0  0  0  0
  -26.1204  -29.2146   20.7489 C   0  0  0  0  0  0
  -27.2595  -28.2860   20.7558 C   0  0  0  0  0  0
  -26.0049  -26.6854   19.5010 C   0  0  0  0  0  0
  -24.9033  -27.5777   19.4697 C   0  0  0  0  0  0
  -23.7225  -29.7528   20.1464 C   0  0  0  0  0  0
  -25.4135  -36.2963   24.0304 C   0  0  1  0  0  0
  -20.5960  -28.3762   23.1184 C   0  0  2  0  0  0
  -20.6809  -26.9441   22.5405 C   0  0  0  0  0  0
  -19.5780  -26.6387   21.5215 C   0  0  0  0  0  0
  -18.1960  -26.7952   22.1623 C   0  0  0  0  0  0
  -19.1592  -28.8905   23.2820 C   0  0  0  0  0  0
  -18.9501  -30.1492   23.8860 C   0  0  0  0  0  0
  -17.6493  -30.6603   24.0553 C   0  0  0  0  0  0
  -25.9104  -34.9351   23.5008 C   0  0  0  0  0  0
  -16.5384  -29.9090   23.6344 C   0  0  0  0  0  0
  -16.7312  -28.6508   23.0371 C   0  0  0  0  0  0
  -26.4579  -31.6529   25.0693 C   0  0  0  0  0  0
  -25.3708  -31.3764   26.1346 C   0  0  0  0  0  0
  -27.0460  -30.2896   24.6412 C   0  0  0  0  0  0
  -27.6082  -32.4315   25.7494 C   0  0  0  0  0  0
  -27.5563  -37.1758   24.8473 C   0  0  0  0  0  0
  -21.4348  -29.3049   22.3525 N   0  0  0  0  0  0
  -26.4273  -37.3703   23.9410 N   0  0  0  0  0  0
  -24.7543  -30.9887   22.0848 N   0  0  0  0  0  0
  -23.4215  -28.8024   23.3033 O   0  0  0  0  0  0
  -28.2173  -25.7959   20.2310 O   0  0  0  0  0  0
  -26.5691  -34.8886   22.4589 O   0  0  0  0  0  0
  -23.5721  -32.1210   23.6792 O   0  0  0  0  0  0
  -28.6226  -21.3230   20.8762 C   0  0  0  0  0  0
  -29.8941  -20.8988   19.2764 C   0  0  0  0  0  0
  -28.7011  -22.6419   20.2146 C   0  0  0  0  0  0
  -28.1628  -16.7621   19.8864 C   0  0  0  0  0  0
  -30.1866  -17.2779   18.5864 C   0  0  0  0  0  0
  -27.8412  -24.1856   20.2903 C   0  0  0  0  0  0
  -29.7851  -18.5748   20.7815 C   0  0  0  0  0  0
  -29.6767  -16.9505   20.0067 C   0  0  0  0  0  0
  -29.5543  -22.2287   19.1624 N   0  0  0  0  0  0
  -29.3933  -20.1563   20.3029 N   0  0  0  0  0  0
  -31.4525  -13.0642   19.1793 H   0  0  0  0  0  0
  -30.5250  -11.9636   20.1522 H   0  0  0  0  0  0
  -29.9414  -11.7567   17.6996 H   0  0  0  0  0  0
  -29.5362  -13.4552   17.6461 H   0  0  0  0  0  0
  -28.0911  -11.2478   19.1400 H   0  0  0  0  0  0
  -27.4254  -12.2493   17.8730 H   0  0  0  0  0  0
  -27.4800  -14.1730   19.2563 H   0  0  0  0  0  0
  -28.8230  -12.5834   21.4973 H   0  0  0  0  0  0
  -28.2526  -14.2238   21.6469 H   0  0  0  0  0  0
  -25.2752   -9.5631   22.4782 H   0  0  0  0  0  0
  -23.9984   -7.4584   22.7476 H   0  0  0  0  0  0
  -21.0825   -8.8730   19.8952 H   0  0  0  0  0  0
  -22.3684  -10.9635   19.6173 H   0  0  0  0  0  0
  -21.1975   -7.6144   23.9714 H   0  0  0  0  0  0
  -21.1447   -6.0523   25.9081 H   0  0  0  0  0  0
  -22.0622   -2.7613   23.2852 H   0  0  0  0  0  0
  -22.4012  -11.9774   22.4835 H   0  0  0  0  0  0
  -21.1005  -13.1140   22.2685 H   0  0  0  0  0  0
  -24.6194  -15.8300   20.5520 H   0  0  0  0  0  0
  -26.2374  -15.6371   20.1051 H   0  0  0  0  0  0
  -26.7403  -32.5127   23.0887 H   0  0  0  0  0  0
  -25.0163  -33.9477   25.0245 H   0  0  0  0  0  0
  -22.7952  -31.2681   21.3497 H   0  0  0  0  0  0
  -23.3771  -35.9498   23.3291 H   0  0  0  0  0  0
  -24.3579  -36.8840   22.2068 H   0  0  0  0  0  0
  -23.7228  -37.6365   23.6703 H   0  0  0  0  0  0
  -26.2323  -31.3670   20.6223 H   0  0  0  0  0  0
  -26.9122  -30.6862   22.0567 H   0  0  0  0  0  0
  -28.1574  -28.5921   21.2739 H   0  0  0  0  0  0
  -25.8633  -25.7465   18.9901 H   0  0  0  0  0  0
  -24.0066  -27.2724   18.9475 H   0  0  0  0  0  0
  -23.8847  -30.5229   19.3916 H   0  0  0  0  0  0
  -22.8316  -29.2118   19.8236 H   0  0  0  0  0  0
  -25.1338  -36.1762   25.0795 H   0  0  0  0  0  0
  -21.0048  -28.3372   24.1307 H   0  0  0  0  0  0
  -20.5692  -26.2381   23.3648 H   0  0  0  0  0  0
  -21.6674  -26.7423   22.1209 H   0  0  0  0  0  0
  -19.6937  -25.6285   21.1274 H   0  0  0  0  0  0
  -19.6718  -27.3171   20.6721 H   0  0  0  0  0  0
  -17.4236  -26.6701   21.4019 H   0  0  0  0  0  0
  -18.0348  -26.0103   22.9030 H   0  0  0  0  0  0
  -19.7974  -30.7316   24.2217 H   0  0  0  0  0  0
  -17.5047  -31.6279   24.5161 H   0  0  0  0  0  0
  -15.5382  -30.2978   23.7688 H   0  0  0  0  0  0
  -15.8718  -28.0805   22.7116 H   0  0  0  0  0  0
  -24.5944  -30.7047   25.7667 H   0  0  0  0  0  0
  -24.8831  -32.2948   26.4624 H   0  0  0  0  0  0
  -25.7968  -30.9057   27.0217 H   0  0  0  0  0  0
  -26.3116  -29.6580   24.1406 H   0  0  0  0  0  0
  -27.3986  -29.7258   25.5057 H   0  0  0  0  0  0
  -27.9068  -30.4079   23.9827 H   0  0  0  0  0  0
  -27.2691  -33.3687   26.1914 H   0  0  0  0  0  0
  -28.3990  -32.6743   25.0384 H   0  0  0  0  0  0
  -28.0634  -31.8524   26.5539 H   0  0  0  0  0  0
  -28.2581  -38.0055   24.7515 H   0  0  0  0  0  0
  -28.1061  -36.2583   24.6316 H   0  0  0  0  0  0
  -27.2278  -37.1423   25.8876 H   0  0  0  0  0  0
  -20.9601  -29.8721   21.6641 H   0  0  0  0  0  0
  -26.0119  -38.2758   24.1422 H   0  0  0  0  0  0
  -28.0328  -21.1129   21.7593 H   0  0  0  0  0  0
  -30.5839  -20.4521   18.5741 H   0  0  0  0  0  0
  -27.7558  -16.3239   20.7960 H   0  0  0  0  0  0
  -27.9075  -16.1568   19.0219 H   0  0  0  0  0  0
  -27.6545  -17.7153   19.7326 H   0  0  0  0  0  0
  -30.1586  -16.4101   17.9262 H   0  0  0  0  0  0
  -31.2175  -17.6316   18.6165 H   0  0  0  0  0  0
  -29.5884  -18.0569   18.1113 H   0  0  0  0  0  0
  -27.2268  -24.1272   21.1895 H   0  0  0  0  0  0
  -27.1115  -24.0905   19.4893 H   0  0  0  0  0  0
  -30.8334  -18.6484   21.0745 H   0  0  0  0  0  0
  -29.2787  -18.4551   21.7394 H   0  0  0  0  0  0
  1 25  1  0  0  0
  1 30  2  0  0  0
  1 78  1  0  0  0
  2  3  1  0  0  0
  2 25  1  0  0  0
  2 81  1  0  0  0
  2 82  1  0  0  0
  3  4  1  0  0  0
  3 83  1  0  0  0
  3 84  1  0  0  0
  4  5  1  0  0  0
  4 85  1  0  0  0
  4 86  1  0  0  0
  5  6  1  0  0  0
  5 26  1  0  0  0
  5 87  1  0  0  0
  6 25  1  0  0  0
  6 88  1  0  0  0
  6 89  1  0  0  0
  7  8  2  0  0  0
  7 26  1  0  0  0
  7 29  1  0  0  0
  8  9  1  0  0  0
  8 22  1  0  0  0
  9 10  1  0  0  0
  9 27  2  0  0  0
 10 11  2  0  0  0
 10 15  1  0  0  0
 11 12  1  0  0  0
 11 90  1  0  0  0
 12 13  2  0  0  0
 12 91  1  0  0  0
 13 14  1  0  0  0
 13 31  1  0  0  0
 14 15  2  0  0  0
 14 92  1  0  0  0
 15 93  1  0  0  0
 16 17  2  0  0  0
 16 21  1  0  0  0
 16 31  1  0  0  0
 17 18  1  0  0  0
 17 94  1  0  0  0
 18 19  2  0  0  0
 18 95  1  0  0  0
 19 20  1  0  0  0
 19 24  1  0  0  0
 20 21  2  0  0  0
 20 96  1  0  0  0
 21 23  1  0  0  0
 22 28  1  0  0  0
 22 32  2  0  0  0
 26 27  1  0  0  0
 28 97  1  0  0  0
 28 98  1  0  0  0
 29 99  1  0  0  0
 29100  1  0  0  0
 33 34  1  0  0  0
 33 66  1  0  0  0
 33 70  2  0  0  0
 34 36  1  0  0  0
 34 59  1  0  0  0
 34101  1  0  0  0
 35 44  2  0  0  0
 35 45  1  0  0  0
 35 68  1  0  0  0
 36 56  1  0  0  0
 36102  1  0  0  0
 37 39  1  0  0  0
 37 47  1  0  0  0
 37 66  1  0  0  0
 37103  1  0  0  0
 38 43  2  0  0  0
 38 46  1  0  0  0
 38 47  1  0  0  0
 39 64  1  0  0  0
 39 67  2  0  0  0
 40 52  1  0  0  0
 40 53  2  0  0  0
 40 58  1  0  0  0
 41104  1  0  0  0
 41105  1  0  0  0
 41106  1  0  0  0
 41 48  1  0  0  0
 42 43  1  0  0  0
 42 66  1  0  0  0
 42107  1  0  0  0
 42108  1  0  0  0
 43 44  1  0  0  0
 44109  1  0  0  0
 45 46  2  0  0  0
 45110  1  0  0  0
 46111  1  0  0  0
 47112  1  0  0  0
 47113  1  0  0  0
 48 56  1  0  0  0
 48 65  1  0  0  0
 48114  1  0  0  0
 49 50  1  0  0  0
 49 53  1  0  0  0
 49 64  1  0  0  0
 49115  1  0  0  0
 50 51  1  0  0  0
 50116  1  0  0  0
 50117  1  0  0  0
 51 52  1  0  0  0
 51118  1  0  0  0
 51119  1  0  0  0
 52120  1  0  0  0
 52121  1  0  0  0
 53 54  1  0  0  0
 54 55  2  0  0  0
 54122  1  0  0  0
 55 57  1  0  0  0
 55123  1  0  0  0
 56 69  2  0  0  0
 57 58  2  0  0  0
 57124  1  0  0  0
 58125  1  0  0  0
 59 60  1  0  0  0
 59 61  1  0  0  0
 59 62  1  0  0  0
 60126  1  0  0  0
 60127  1  0  0  0
 60128  1  0  0  0
 61129  1  0  0  0
 61130  1  0  0  0
 61131  1  0  0  0
 62132  1  0  0  0
 62133  1  0  0  0
 62134  1  0  0  0
 63 65  1  0  0  0
 63135  1  0  0  0
 63136  1  0  0  0
 63137  1  0  0  0
 64138  1  0  0  0
 65139  1  0  0  0
 68 76  1  0  0  0
 71 73  2  0  0  0
 71 80  1  0  0  0
 71140  1  0  0  0
 72 79  2  0  0  0
 72 80  1  0  0  0
 72141  1  0  0  0
 73 76  1  0  0  0
 73 79  1  0  0  0
 74142  1  0  0  0
 74143  1  0  0  0
 74144  1  0  0  0
 74 78  1  0  0  0
 75 78  1  0  0  0
 75145  1  0  0  0
 75146  1  0  0  0
 75147  1  0  0  0
 76148  1  0  0  0
 76149  1  0  0  0
 77 78  1  0  0  0
 77 80  1  0  0  0
 77150  1  0  0  0
 77151  1  0  0  0
M  ISO  4   1 100  68 101  76 101  78 100
M  END
> <chiral flag>
0

> <version>
0

> <s_m_source_file>
/data/baiqing/PycharmProjects/Reinvent-master-3.2/result/LINK_invent/BTK/process_docking_weight1_custom_sum_contain_oxygen_bond_distance_aromatic_linkinvent_7_9_3/rearranged_h_0057.sdf

> <i_m_source_file_index>
74

> <r_mmod_Potential_Energy-OPLS-2005>
1479.88720703125

> <r_mmod_Stretch_Energy-OPLS-2005>
629.794677734375

> <r_mmod_Bend_Energy-OPLS-2005>
478.124969482422

> <r_mmod_Torsional_Energy-OPLS-2005>
235.680404663086

> <r_mmod_Improper_Torsional_Energy-OPLS-2005>
12.7610301971436

> <r_mmod_Van_der_Waal_Energy-OPLS-2005>
111.318214416504

> <r_mmod_Electrostatic_Energy-OPLS-2005>
-281.439666748047

> <r_mmod_Solvation_Energy-OPLS-2005>
-216.777130126953

> <b_mmod_Minimization_Converged-OPLS-2005>
0

> <r_mmod_RMS_Derivative-OPLS-2005>
1.4955290555954

$$$$
74
                    3D
 Structure written by MMmdl.
154162  0  0  1  0            999 V2000
  -30.5451  -14.9366   20.3509 C   0  0  0  0  0  0
  -30.4482  -12.5595   19.4874 C   0  0  0  0  0  0
  -29.5343  -12.4479   18.2465 C   0  0  0  0  0  0
  -28.0538  -12.2950   18.6575 C   0  0  0  0  0  0
  -27.6272  -13.2379   19.8164 C   0  0  2  0  0  0
  -28.6740  -13.2979   20.9449 C   0  0  0  0  0  0
  -25.2523  -13.8218   20.5688 C   0  0  0  0  0  0
  -24.1809  -13.0459   20.9205 C   0  0  0  0  0  0
  -24.6393  -11.6931   20.8731 C   0  0  0  0  0  0
  -23.9063  -10.4309   21.0401 C   0  0  0  0  0  0
  -24.3612   -9.4235   21.9189 C   0  0  0  0  0  0
  -23.6292   -8.2272   22.0768 C   0  0  0  0  0  0
  -22.4282   -8.0299   21.3552 C   0  0  0  0  0  0
  -21.9917   -9.0265   20.4646 C   0  0  0  0  0  0
  -22.7235  -10.2140   20.3054 C   0  0  0  0  0  0
  -21.6869   -6.0741   22.5275 C   0  0  0  0  0  0
  -21.4023   -6.5645   23.8206 C   0  0  0  0  0  0
  -21.3663   -5.6794   24.9167 C   0  0  0  0  0  0
  -21.6050   -4.3059   24.7218 C   0  0  0  0  0  0
  -21.8818   -3.8145   23.4345 C   0  0  0  0  0  0
  -21.9198   -4.6966   22.3397 C   0  0  0  0  0  0
  -22.7845  -13.5259   21.1862 C   0  0  0  0  0  0
  -22.1671   -4.2156   21.0976 F   0  0  0  0  0  0
  -21.5625   -3.4535   25.7727 F   0  0  0  0  0  0
  -29.9436  -13.6824   20.3192 N   0  0  0  0  0  0
  -26.2899  -12.9394   20.3161 N   0  0  0  0  0  0
  -25.9319  -11.6544   20.5690 N   0  0  0  0  0  0
  -22.0483  -12.8248   22.0416 N   0  0  0  0  0  0
  -25.4286  -15.1933   20.4154 N   0  0  0  0  0  0
  -31.7774  -14.9799   20.2656 O   0  0  0  0  0  0
  -21.6654   -6.8892   21.4241 O   0  0  0  0  0  0
  -22.3531  -14.5553   20.6700 O   0  0  0  0  0  0
  -24.6405  -31.8468   23.1900 C   0  0  0  0  0  0
  -25.9177  -32.4708   23.8296 C   0  0  1  0  0  0
  -27.2296  -27.1729   20.1647 C   0  0  0  0  0  0
  -25.5930  -33.8513   24.2212 N   0  0  0  0  0  0
  -23.4439  -30.4647   21.5324 C   0  0  2  0  0  0
  -24.8993  -28.8928   20.1181 C   0  0  0  0  0  0
  -22.7549  -29.4567   22.4867 C   0  0  0  0  0  0
  -18.0285  -28.1410   22.8478 C   0  0  0  0  0  0
  -24.1493  -36.7267   23.2638 C   0  0  0  0  0  0
  -25.9972  -30.7359   21.3822 C   0  0  0  0  0  0
  -26.0748  -29.3465   20.7309 C   0  0  0  0  0  0
  -27.2456  -28.5034   20.7345 C   0  0  0  0  0  0
  -26.0320  -26.8111   19.5124 C   0  0  0  0  0  0
  -24.8872  -27.6349   19.4955 C   0  0  0  0  0  0
  -23.6722  -29.7880   20.1558 C   0  0  0  0  0  0
  -25.4119  -36.3033   24.0321 C   0  0  1  0  0  0
  -20.5899  -28.3733   23.1257 C   0  0  2  0  0  0
  -20.6775  -26.9437   22.5417 C   0  0  0  0  0  0
  -19.5747  -26.6396   21.5223 C   0  0  0  0  0  0
  -18.1928  -26.7948   22.1632 C   0  0  0  0  0  0
  -19.1544  -28.8884   23.2863 C   0  0  0  0  0  0
  -18.9464  -30.1487   23.8886 C   0  0  0  0  0  0
  -17.6462  -30.6605   24.0563 C   0  0  0  0  0  0
  -25.9065  -34.9408   23.5076 C   0  0  0  0  0  0
  -16.5349  -29.9100   23.6333 C   0  0  0  0  0  0
  -16.7274  -28.6520   23.0342 C   0  0  0  0  0  0
  -26.4510  -31.6543   25.0710 C   0  0  0  0  0  0
  -25.3719  -31.3706   26.1420 C   0  0  0  0  0  0
  -27.0371  -30.2942   24.6271 C   0  0  0  0  0  0
  -27.6057  -32.4279   25.7486 C   0  0  0  0  0  0
  -27.5583  -37.1781   24.8457 C   0  0  0  0  0  0
  -21.4238  -29.3066   22.3630 N   0  0  0  0  0  0
  -26.4286  -37.3746   23.9406 N   0  0  0  0  0  0
  -24.7127  -31.0367   22.0900 N   0  0  0  0  0  0
  -23.4208  -28.8111   23.3004 O   0  0  0  0  0  0
  -28.2805  -26.1973   20.1889 O   0  0  0  0  0  0
  -26.5649  -34.8898   22.4653 O   0  0  0  0  0  0
  -23.5535  -32.1313   23.7146 O   0  0  0  0  0  0
  -29.3345  -22.5448   21.4771 C   0  0  0  0  0  0
  -28.6008  -21.2862   19.2515 C   0  0  0  0  0  0
  -28.6456  -23.3460   20.4905 C   0  0  0  0  0  0
  -29.3024  -20.4888   20.2285 C   0  0  0  0  0  0
  -31.3875  -19.0940   19.6508 C   0  0  0  0  0  0
  -29.4073  -16.2260   18.6378 C   0  0  0  0  0  0
  -27.9924  -24.8214   20.8192 C   0  0  0  0  0  0
  -29.6107  -17.5346   20.7111 C   0  0  0  0  0  0
  -29.8763  -18.9783   19.8946 C   0  0  1  0  0  0
  -28.2785  -22.6377   19.3710 N   0  0  0  0  0  0
  -29.6710  -21.1942   21.3501 N   0  0  0  0  0  0
  -29.7731  -16.1035   20.0550 N   0  0  0  0  0  0
  -31.4810  -12.7226   19.1747 H   0  0  0  0  0  0
  -30.4480  -11.6283   20.0559 H   0  0  0  0  0  0
  -29.8360  -11.5934   17.6392 H   0  0  0  0  0  0
  -29.6692  -13.3096   17.5980 H   0  0  0  0  0  0
  -27.9164  -11.2580   18.9636 H   0  0  0  0  0  0
  -27.4069  -12.4392   17.7917 H   0  0  0  0  0  0
  -27.5722  -14.2302   19.3725 H   0  0  0  0  0  0
  -28.7578  -12.3441   21.4677 H   0  0  0  0  0  0
  -28.3821  -14.0427   21.6874 H   0  0  0  0  0  0
  -25.2757   -9.5720   22.4752 H   0  0  0  0  0  0
  -24.0011   -7.4663   22.7484 H   0  0  0  0  0  0
  -21.0866   -8.8771   19.8923 H   0  0  0  0  0  0
  -22.3713  -10.9673   19.6146 H   0  0  0  0  0  0
  -21.2028   -7.6155   23.9709 H   0  0  0  0  0  0
  -21.1489   -6.0525   25.9065 H   0  0  0  0  0  0
  -22.0595   -2.7607   23.2828 H   0  0  0  0  0  0
  -22.4117  -11.9914   22.4790 H   0  0  0  0  0  0
  -21.1099  -13.1259   22.2616 H   0  0  0  0  0  0
  -24.6741  -15.8602   20.5373 H   0  0  0  0  0  0
  -26.3000  -15.6233   20.1308 H   0  0  0  0  0  0
  -26.7248  -32.5358   23.1039 H   0  0  0  0  0  0
  -25.0017  -33.9633   25.0319 H   0  0  0  0  0  0
  -22.7450  -31.2896   21.3732 H   0  0  0  0  0  0
  -23.3756  -35.9600   23.3267 H   0  0  0  0  0  0
  -24.3589  -36.8932   22.2062 H   0  0  0  0  0  0
  -23.7255  -37.6455   23.6695 H   0  0  0  0  0  0
  -26.1453  -31.4913   20.6093 H   0  0  0  0  0  0
  -26.8705  -30.7940   22.0211 H   0  0  0  0  0  0
  -28.1461  -28.8457   21.2251 H   0  0  0  0  0  0
  -25.9697  -25.8453   19.0305 H   0  0  0  0  0  0
  -23.9878  -27.2795   19.0119 H   0  0  0  0  0  0
  -23.8050  -30.5563   19.3938 H   0  0  0  0  0  0
  -22.7909  -29.2203   19.8495 H   0  0  0  0  0  0
  -25.1307  -36.1853   25.0817 H   0  0  0  0  0  0
  -20.9997  -28.3320   24.1376 H   0  0  0  0  0  0
  -20.5679  -26.2337   23.3634 H   0  0  0  0  0  0
  -21.6643  -26.7448   22.1215 H   0  0  0  0  0  0
  -19.6907  -25.6304   21.1259 H   0  0  0  0  0  0
  -19.6687  -27.3204   20.6757 H   0  0  0  0  0  0
  -17.4198  -26.6693   21.4031 H   0  0  0  0  0  0
  -18.0317  -26.0102   22.9045 H   0  0  0  0  0  0
  -19.7941  -30.7303   24.2257 H   0  0  0  0  0  0
  -17.5011  -31.6285   24.5172 H   0  0  0  0  0  0
  -15.5350  -30.2995   23.7677 H   0  0  0  0  0  0
  -15.8674  -28.0856   22.7042 H   0  0  0  0  0  0
  -24.5935  -30.6992   25.7753 H   0  0  0  0  0  0
  -24.8857  -32.2866   26.4782 H   0  0  0  0  0  0
  -25.8046  -30.8941   27.0228 H   0  0  0  0  0  0
  -26.2977  -29.6642   24.1307 H   0  0  0  0  0  0
  -27.4000  -29.7256   25.4843 H   0  0  0  0  0  0
  -27.8872  -30.4154   23.9564 H   0  0  0  0  0  0
  -27.2680  -33.3615   26.1994 H   0  0  0  0  0  0
  -28.3909  -32.6765   25.0331 H   0  0  0  0  0  0
  -28.0662  -31.8425   26.5452 H   0  0  0  0  0  0
  -28.2564  -38.0116   24.7536 H   0  0  0  0  0  0
  -28.1117  -36.2639   24.6230 H   0  0  0  0  0  0
  -27.2304  -37.1364   25.8863 H   0  0  0  0  0  0
  -20.9432  -29.8778   21.6818 H   0  0  0  0  0  0
  -26.0147  -38.2812   24.1410 H   0  0  0  0  0  0
  -29.5770  -22.9805   22.4364 H   0  0  0  0  0  0
  -28.3138  -20.8348   18.3126 H   0  0  0  0  0  0
  -31.6129  -19.8605   18.9089 H   0  0  0  0  0  0
  -31.8096  -18.1536   19.2941 H   0  0  0  0  0  0
  -31.9041  -19.3619   20.5717 H   0  0  0  0  0  0
  -28.5128  -16.8341   18.5062 H   0  0  0  0  0  0
  -29.1848  -15.2767   18.1623 H   0  0  0  0  0  0
  -30.2225  -16.6819   18.0724 H   0  0  0  0  0  0
  -28.2295  -24.9813   21.8716 H   0  0  0  0  0  0
  -26.9162  -24.6590   20.8252 H   0  0  0  0  0  0
  -28.5670  -17.5601   21.0262 H   0  0  0  0  0  0
  -30.1750  -17.5460   21.6430 H   0  0  0  0  0  0
  -29.4426  -18.8254   18.9078 H   0  0  0  0  0  0
  1 25  1  0  0  0
  1 30  2  0  0  0
  1 82  1  0  0  0
  2  3  1  0  0  0
  2 25  1  0  0  0
  2 83  1  0  0  0
  2 84  1  0  0  0
  3  4  1  0  0  0
  3 85  1  0  0  0
  3 86  1  0  0  0
  4  5  1  0  0  0
  4 87  1  0  0  0
  4 88  1  0  0  0
  5  6  1  0  0  0
  5 26  1  0  0  0
  5 89  1  0  0  0
  6 25  1  0  0  0
  6 90  1  0  0  0
  6 91  1  0  0  0
  7  8  2  0  0  0
  7 26  1  0  0  0
  7 29  1  0  0  0
  8  9  1  0  0  0
  8 22  1  0  0  0
  9 10  1  0  0  0
  9 27  2  0  0  0
 10 11  2  0  0  0
 10 15  1  0  0  0
 11 12  1  0  0  0
 11 92  1  0  0  0
 12 13  2  0  0  0
 12 93  1  0  0  0
 13 14  1  0  0  0
 13 31  1  0  0  0
 14 15  2  0  0  0
 14 94  1  0  0  0
 15 95  1  0  0  0
 16 17  2  0  0  0
 16 21  1  0  0  0
 16 31  1  0  0  0
 17 18  1  0  0  0
 17 96  1  0  0  0
 18 19  2  0  0  0
 18 97  1  0  0  0
 19 20  1  0  0  0
 19 24  1  0  0  0
 20 21  2  0  0  0
 20 98  1  0  0  0
 21 23  1  0  0  0
 22 28  1  0  0  0
 22 32  2  0  0  0
 26 27  1  0  0  0
 28 99  1  0  0  0
 28100  1  0  0  0
 29101  1  0  0  0
 29102  1  0  0  0
 33 34  1  0  0  0
 33 66  1  0  0  0
 33 70  2  0  0  0
 34 36  1  0  0  0
 34 59  1  0  0  0
 34103  1  0  0  0
 35 44  2  0  0  0
 35 45  1  0  0  0
 35 68  1  0  0  0
 36 56  1  0  0  0
 36104  1  0  0  0
 37 39  1  0  0  0
 37 47  1  0  0  0
 37 66  1  0  0  0
 37105  1  0  0  0
 38 43  2  0  0  0
 38 46  1  0  0  0
 38 47  1  0  0  0
 39 64  1  0  0  0
 39 67  2  0  0  0
 40 52  1  0  0  0
 40 53  2  0  0  0
 40 58  1  0  0  0
 41106  1  0  0  0
 41107  1  0  0  0
 41108  1  0  0  0
 41 48  1  0  0  0
 42 43  1  0  0  0
 42 66  1  0  0  0
 42109  1  0  0  0
 42110  1  0  0  0
 43 44  1  0  0  0
 44111  1  0  0  0
 45 46  2  0  0  0
 45112  1  0  0  0
 46113  1  0  0  0
 47114  1  0  0  0
 47115  1  0  0  0
 48 56  1  0  0  0
 48 65  1  0  0  0
 48116  1  0  0  0
 49 50  1  0  0  0
 49 53  1  0  0  0
 49 64  1  0  0  0
 49117  1  0  0  0
 50 51  1  0  0  0
 50118  1  0  0  0
 50119  1  0  0  0
 51 52  1  0  0  0
 51120  1  0  0  0
 51121  1  0  0  0
 52122  1  0  0  0
 52123  1  0  0  0
 53 54  1  0  0  0
 54 55  2  0  0  0
 54124  1  0  0  0
 55 57  1  0  0  0
 55125  1  0  0  0
 56 69  2  0  0  0
 57 58  2  0  0  0
 57126  1  0  0  0
 58127  1  0  0  0
 59 60  1  0  0  0
 59 61  1  0  0  0
 59 62  1  0  0  0
 60128  1  0  0  0
 60129  1  0  0  0
 60130  1  0  0  0
 61131  1  0  0  0
 61132  1  0  0  0
 61133  1  0  0  0
 62134  1  0  0  0
 62135  1  0  0  0
 62136  1  0  0  0
 63 65  1  0  0  0
 63137  1  0  0  0
 63138  1  0  0  0
 63139  1  0  0  0
 64140  1  0  0  0
 65141  1  0  0  0
 68 77  1  0  0  0
 71 73  2  0  0  0
 71 81  1  0  0  0
 71142  1  0  0  0
 72 74  1  0  0  0
 72 80  2  0  0  0
 72143  1  0  0  0
 73 77  1  0  0  0
 73 80  1  0  0  0
 74 79  1  0  0  0
 74 81  2  0  0  0
 75144  1  0  0  0
 75145  1  0  0  0
 75146  1  0  0  0
 75 79  1  0  0  0
 76 82  1  0  0  0
 76147  1  0  0  0
 76148  1  0  0  0
 76149  1  0  0  0
 77150  1  0  0  0
 77151  1  0  0  0
 78 79  1  0  0  0
 78 82  1  0  0  0
 78152  1  0  0  0
 78153  1  0  0  0
 79154  1  0  0  0
M  ISO  4   1 100  68 101  77 101  82 100
M  END
> <chiral flag>
0

> <version>
0

> <s_m_source_file>
/data/baiqing/PycharmProjects/Reinvent-master-3.2/result/LINK_invent/BTK/process_docking_weight1_custom_sum_contain_oxygen_bond_distance_aromatic_linkinvent_7_9_3/rearranged_h_0057.sdf

> <i_m_source_file_index>
75

> <r_mmod_Potential_Energy-OPLS-2005>
733.519287109375

> <r_mmod_Stretch_Energy-OPLS-2005>
225.159622192383

> <r_mmod_Bend_Energy-OPLS-2005>
259.153442382812

> <r_mmod_Torsional_Energy-OPLS-2005>
337.987670898438

> <r_mmod_Improper_Torsional_Energy-OPLS-2005>
17.2615547180176

> <r_mmod_Van_der_Waal_Energy-OPLS-2005>
134.742950439453

> <r_mmod_Electrostatic_Energy-OPLS-2005>
-211.213516235352

> <r_mmod_Solvation_Energy-OPLS-2005>
-213.711074829102

> <b_mmod_Minimization_Converged-OPLS-2005>
0

> <r_mmod_RMS_Derivative-OPLS-2005>
2.73919916152954

$$$$
75
                    3D
 Structure written by MMmdl.
160168  0  0  1  0            999 V2000
  -30.6708  -14.5415   20.5006 C   0  0  0  0  0  0
  -30.4197  -12.3256   19.4339 C   0  0  0  0  0  0
  -29.4961  -12.5019   18.2082 C   0  0  0  0  0  0
  -28.0173  -12.3669   18.6227 C   0  0  0  0  0  0
  -27.6573  -13.2122   19.8738 C   0  0  2  0  0  0
  -28.7066  -13.0367   20.9957 C   0  0  0  0  0  0
  -25.2557  -13.8157   20.5708 C   0  0  0  0  0  0
  -24.1803  -13.0409   20.9191 C   0  0  0  0  0  0
  -24.6401  -11.6885   20.8760 C   0  0  0  0  0  0
  -23.9092  -10.4255   21.0440 C   0  0  0  0  0  0
  -24.3626   -9.4148   21.9211 C   0  0  0  0  0  0
  -23.6265   -8.2206   22.0781 C   0  0  0  0  0  0
  -22.4258   -8.0263   21.3568 C   0  0  0  0  0  0
  -21.9911   -9.0252   20.4675 C   0  0  0  0  0  0
  -22.7265  -10.2120   20.3081 C   0  0  0  0  0  0
  -21.6830   -6.0712   22.5289 C   0  0  0  0  0  0
  -21.4003   -6.5642   23.8212 C   0  0  0  0  0  0
  -21.3660   -5.6817   24.9198 C   0  0  0  0  0  0
  -21.6046   -4.3069   24.7263 C   0  0  0  0  0  0
  -21.8817   -3.8146   23.4382 C   0  0  0  0  0  0
  -21.9170   -4.6936   22.3423 C   0  0  0  0  0  0
  -22.7839  -13.5184   21.1864 C   0  0  0  0  0  0
  -22.1636   -4.2115   21.1004 F   0  0  0  0  0  0
  -21.5639   -3.4550   25.7773 F   0  0  0  0  0  0
  -30.0258  -13.3436   20.4232 N   0  0  0  0  0  0
  -26.2994  -12.9344   20.3392 N   0  0  0  0  0  0
  -25.9329  -11.6497   20.5787 N   0  0  0  0  0  0
  -22.0528  -12.8150   22.0451 N   0  0  0  0  0  0
  -25.4289  -15.1862   20.4116 N   0  0  0  0  0  0
  -31.8357  -14.6860   20.1241 O   0  0  0  0  0  0
  -21.6612   -6.8851   21.4249 O   0  0  0  0  0  0
  -22.3479  -14.5488   20.6723 O   0  0  0  0  0  0
  -24.6238  -31.8652   23.2104 C   0  0  0  0  0  0
  -25.9123  -32.4817   23.8381 C   0  0  1  0  0  0
  -27.2308  -27.3992   20.0851 C   0  0  0  0  0  0
  -25.5975  -33.8593   24.2359 N   0  0  0  0  0  0
  -23.4095  -30.4963   21.5463 C   0  0  2  0  0  0
  -24.8511  -28.9572   20.1173 C   0  0  0  0  0  0
  -22.7430  -29.4680   22.4900 C   0  0  0  0  0  0
  -18.0272  -28.1393   22.8504 C   0  0  0  0  0  0
  -24.1468  -36.7307   23.2638 C   0  0  0  0  0  0
  -25.9428  -30.8266   21.3597 C   0  0  0  0  0  0
  -26.0180  -29.4574   20.7055 C   0  0  0  0  0  0
  -27.2067  -28.6861   20.6841 C   0  0  0  0  0  0
  -26.0277  -26.9114   19.5233 C   0  0  0  0  0  0
  -24.8524  -27.6841   19.5285 C   0  0  0  0  0  0
  -23.6229  -29.8378   20.1587 C   0  0  0  0  0  0
  -25.4087  -36.3100   24.0360 C   0  0  1  0  0  0
  -20.5876  -28.3679   23.1294 C   0  0  2  0  0  0
  -20.6738  -26.9398   22.5412 C   0  0  0  0  0  0
  -19.5715  -26.6399   21.5197 C   0  0  0  0  0  0
  -18.1905  -26.7954   22.1620 C   0  0  0  0  0  0
  -19.1529  -28.8843   23.2913 C   0  0  0  0  0  0
  -18.9449  -30.1436   23.8947 C   0  0  0  0  0  0
  -17.6454  -30.6590   24.0556 C   0  0  0  0  0  0
  -25.9030  -34.9470   23.5151 C   0  0  0  0  0  0
  -16.5344  -29.9105   23.6302 C   0  0  0  0  0  0
  -16.7265  -28.6518   23.0342 C   0  0  0  0  0  0
  -26.4507  -31.6591   25.0710 C   0  0  0  0  0  0
  -25.3801  -31.3679   26.1482 C   0  0  0  0  0  0
  -27.0305  -30.3043   24.6061 C   0  0  0  0  0  0
  -27.6096  -32.4268   25.7501 C   0  0  0  0  0  0
  -27.5558  -37.1809   24.8466 C   0  0  0  0  0  0
  -21.4145  -29.3067   22.3685 N   0  0  0  0  0  0
  -26.4261  -37.3800   23.9430 N   0  0  0  0  0  0
  -24.6781  -31.0749   22.0994 N   0  0  0  0  0  0
  -23.4213  -28.8165   23.2879 O   0  0  0  0  0  0
  -28.4188  -26.6813   20.0835 O   0  0  0  0  0  0
  -26.5514  -34.8931   22.4665 O   0  0  0  0  0  0
  -23.5436  -32.1391   23.7515 O   0  0  0  0  0  0
  -29.0496  -24.2745   21.6635 C   0  0  0  0  0  0
  -29.2188  -23.0920   22.3950 C   0  0  0  0  0  0
  -28.6385  -24.1637   20.3291 C   0  0  0  0  0  0
  -28.6215  -21.8537   20.5629 C   0  0  0  0  0  0
  -29.6399  -23.1183   23.8457 C   0  0  0  0  0  0
  -30.7858  -19.8619   19.5600 C   0  0  0  0  0  0
  -28.5368  -25.3998   19.4122 C   0  0  0  0  0  0
  -28.4404  -20.4526   19.9547 C   0  0  0  0  0  0
  -30.3187  -17.0495   20.7564 C   0  0  0  0  0  0
  -29.1908  -18.0672   20.3352 C   0  0  0  0  0  0
  -29.0209  -21.8836   21.8340 N   0  0  0  0  0  0
  -28.4266  -22.9336   19.7925 N   0  0  0  0  0  0
  -29.9029  -15.6177   20.8091 N   0  0  0  0  0  0
  -29.5589  -19.5339   20.3334 N   0  3  1  0  0  0
  -31.4690  -12.4076   19.1445 H   0  0  0  0  0  0
  -30.3098  -11.3260   19.8573 H   0  0  0  0  0  0
  -29.7423  -11.7713   17.4356 H   0  0  0  0  0  0
  -29.6595  -13.4829   17.7587 H   0  0  0  0  0  0
  -27.8229  -11.3127   18.8248 H   0  0  0  0  0  0
  -27.3698  -12.6456   17.7889 H   0  0  0  0  0  0
  -27.6873  -14.2544   19.5609 H   0  0  0  0  0  0
  -28.6956  -12.0164   21.3763 H   0  0  0  0  0  0
  -28.4814  -13.6662   21.8577 H   0  0  0  0  0  0
  -25.2779   -9.5552   22.4793 H   0  0  0  0  0  0
  -23.9949   -7.4568   22.7487 H   0  0  0  0  0  0
  -21.0857   -8.8762   19.8956 H   0  0  0  0  0  0
  -22.3734  -10.9653   19.6187 H   0  0  0  0  0  0
  -21.1986   -7.6159   23.9667 H   0  0  0  0  0  0
  -21.1520   -6.0597   25.9087 H   0  0  0  0  0  0
  -22.0595   -2.7592   23.2927 H   0  0  0  0  0  0
  -22.4135  -11.9745   22.4710 H   0  0  0  0  0  0
  -21.1170  -13.1179   22.2724 H   0  0  0  0  0  0
  -24.6682  -15.8483   20.5256 H   0  0  0  0  0  0
  -26.2702  -15.6009   20.0367 H   0  0  0  0  0  0
  -26.7211  -32.5535   23.1144 H   0  0  0  0  0  0
  -25.0208  -33.9715   25.0559 H   0  0  0  0  0  0
  -22.7049  -31.3200   21.4104 H   0  0  0  0  0  0
  -23.3731  -35.9634   23.3309 H   0  0  0  0  0  0
  -24.3568  -36.8899   22.2047 H   0  0  0  0  0  0
  -23.7217  -37.6527   23.6621 H   0  0  0  0  0  0
  -26.0578  -31.5949   20.5930 H   0  0  0  0  0  0
  -26.8305  -30.8812   21.9781 H   0  0  0  0  0  0
  -28.1130  -29.0735   21.1254 H   0  0  0  0  0  0
  -25.9438  -25.9267   19.0940 H   0  0  0  0  0  0
  -23.9476  -27.2904   19.0870 H   0  0  0  0  0  0
  -23.7660  -30.6194   19.4123 H   0  0  0  0  0  0
  -22.7393  -29.2857   19.8342 H   0  0  0  0  0  0
  -25.1260  -36.1962   25.0855 H   0  0  0  0  0  0
  -21.0012  -28.3245   24.1395 H   0  0  0  0  0  0
  -20.5571  -26.2273   23.3589 H   0  0  0  0  0  0
  -21.6610  -26.7371   22.1233 H   0  0  0  0  0  0
  -19.6825  -25.6310   21.1204 H   0  0  0  0  0  0
  -19.6667  -27.3207   20.6729 H   0  0  0  0  0  0
  -17.4162  -26.6713   21.4036 H   0  0  0  0  0  0
  -18.0323  -26.0071   22.8996 H   0  0  0  0  0  0
  -19.7905  -30.7224   24.2392 H   0  0  0  0  0  0
  -17.4994  -31.6285   24.5133 H   0  0  0  0  0  0
  -15.5346  -30.3006   23.7619 H   0  0  0  0  0  0
  -15.8661  -28.0843   22.7056 H   0  0  0  0  0  0
  -24.6013  -30.6969   25.7852 H   0  0  0  0  0  0
  -24.8958  -32.2815   26.4950 H   0  0  0  0  0  0
  -25.8229  -30.8883   27.0225 H   0  0  0  0  0  0
  -26.2831  -29.6822   24.1135 H   0  0  0  0  0  0
  -27.4098  -29.7289   25.4502 H   0  0  0  0  0  0
  -27.8651  -30.4347   23.9172 H   0  0  0  0  0  0
  -27.2748  -33.3560   26.2116 H   0  0  0  0  0  0
  -28.3927  -32.6827   25.0354 H   0  0  0  0  0  0
  -28.0712  -31.8336   26.5406 H   0  0  0  0  0  0
  -28.2603  -38.0078   24.7514 H   0  0  0  0  0  0
  -28.1038  -36.2628   24.6301 H   0  0  0  0  0  0
  -27.2279  -37.1487   25.8866 H   0  0  0  0  0  0
  -20.9285  -29.8909   21.7025 H   0  0  0  0  0  0
  -26.0159  -38.2880   24.1459 H   0  0  0  0  0  0
  -29.2536  -25.2450   22.0990 H   0  0  0  0  0  0
  -29.7449  -24.1435   24.2011 H   0  0  0  0  0  0
  -30.5907  -22.6075   23.9873 H   0  0  0  0  0  0
  -28.8883  -22.6250   24.4613 H   0  0  0  0  0  0
  -31.0569  -20.9110   19.6873 H   0  0  0  0  0  0
  -30.6412  -19.6914   18.4919 H   0  0  0  0  0  0
  -31.6492  -19.2834   19.8815 H   0  0  0  0  0  0
  -27.8083  -25.2313   18.6233 H   0  0  0  0  0  0
  -29.4849  -25.4373   18.8765 H   0  0  0  0  0  0
  -28.3441  -20.5224   18.8691 H   0  0  0  0  0  0
  -27.4907  -20.0627   20.3195 H   0  0  0  0  0  0
  -30.7094  -17.3252   21.7363 H   0  0  0  0  0  0
  -31.1535  -17.1409   20.0630 H   0  0  0  0  0  0
  -28.3394  -17.9313   21.0057 H   0  0  0  0  0  0
  -28.8328  -17.8071   19.3381 H   0  0  0  0  0  0
  -28.9480  -15.4209   21.0681 H   0  0  0  0  0  0
  -29.7286  -19.8307   21.2881 H   0  0  0  0  0  0
  1 25  1  0  0  0
  1 30  2  0  0  0
  1 83  1  0  0  0
  2  3  1  0  0  0
  2 25  1  0  0  0
  2 85  1  0  0  0
  2 86  1  0  0  0
  3  4  1  0  0  0
  3 87  1  0  0  0
  3 88  1  0  0  0
  4  5  1  0  0  0
  4 89  1  0  0  0
  4 90  1  0  0  0
  5  6  1  0  0  0
  5 26  1  0  0  0
  5 91  1  0  0  0
  6 25  1  0  0  0
  6 92  1  0  0  0
  6 93  1  0  0  0
  7  8  2  0  0  0
  7 26  1  0  0  0
  7 29  1  0  0  0
  8  9  1  0  0  0
  8 22  1  0  0  0
  9 10  1  0  0  0
  9 27  2  0  0  0
 10 11  2  0  0  0
 10 15  1  0  0  0
 11 12  1  0  0  0
 11 94  1  0  0  0
 12 13  2  0  0  0
 12 95  1  0  0  0
 13 14  1  0  0  0
 13 31  1  0  0  0
 14 15  2  0  0  0
 14 96  1  0  0  0
 15 97  1  0  0  0
 16 17  2  0  0  0
 16 21  1  0  0  0
 16 31  1  0  0  0
 17 18  1  0  0  0
 17 98  1  0  0  0
 18 19  2  0  0  0
 18 99  1  0  0  0
 19 20  1  0  0  0
 19 24  1  0  0  0
 20 21  2  0  0  0
 20100  1  0  0  0
 21 23  1  0  0  0
 22 28  1  0  0  0
 22 32  2  0  0  0
 26 27  1  0  0  0
 28101  1  0  0  0
 28102  1  0  0  0
 29103  1  0  0  0
 29104  1  0  0  0
 33 34  1  0  0  0
 33 66  1  0  0  0
 33 70  2  0  0  0
 34 36  1  0  0  0
 34 59  1  0  0  0
 34105  1  0  0  0
 35 44  2  0  0  0
 35 45  1  0  0  0
 35 68  1  0  0  0
 36 56  1  0  0  0
 36106  1  0  0  0
 37 39  1  0  0  0
 37 47  1  0  0  0
 37 66  1  0  0  0
 37107  1  0  0  0
 38 43  2  0  0  0
 38 46  1  0  0  0
 38 47  1  0  0  0
 39 64  1  0  0  0
 39 67  2  0  0  0
 40 52  1  0  0  0
 40 53  2  0  0  0
 40 58  1  0  0  0
 41108  1  0  0  0
 41109  1  0  0  0
 41110  1  0  0  0
 41 48  1  0  0  0
 42 43  1  0  0  0
 42 66  1  0  0  0
 42111  1  0  0  0
 42112  1  0  0  0
 43 44  1  0  0  0
 44113  1  0  0  0
 45 46  2  0  0  0
 45114  1  0  0  0
 46115  1  0  0  0
 47116  1  0  0  0
 47117  1  0  0  0
 48 56  1  0  0  0
 48 65  1  0  0  0
 48118  1  0  0  0
 49 50  1  0  0  0
 49 53  1  0  0  0
 49 64  1  0  0  0
 49119  1  0  0  0
 50 51  1  0  0  0
 50120  1  0  0  0
 50121  1  0  0  0
 51 52  1  0  0  0
 51122  1  0  0  0
 51123  1  0  0  0
 52124  1  0  0  0
 52125  1  0  0  0
 53 54  1  0  0  0
 54 55  2  0  0  0
 54126  1  0  0  0
 55 57  1  0  0  0
 55127  1  0  0  0
 56 69  2  0  0  0
 57 58  2  0  0  0
 57128  1  0  0  0
 58129  1  0  0  0
 59 60  1  0  0  0
 59 61  1  0  0  0
 59 62  1  0  0  0
 60130  1  0  0  0
 60131  1  0  0  0
 60132  1  0  0  0
 61133  1  0  0  0
 61134  1  0  0  0
 61135  1  0  0  0
 62136  1  0  0  0
 62137  1  0  0  0
 62138  1  0  0  0
 63 65  1  0  0  0
 63139  1  0  0  0
 63140  1  0  0  0
 63141  1  0  0  0
 64142  1  0  0  0
 65143  1  0  0  0
 68 77  1  0  0  0
 71 72  2  0  0  0
 71 73  1  0  0  0
 71144  1  0  0  0
 72 75  1  0  0  0
 72 81  1  0  0  0
 73 77  1  0  0  0
 73 82  2  0  0  0
 74 78  1  0  0  0
 74 81  2  0  0  0
 74 82  1  0  0  0
 75145  1  0  0  0
 75146  1  0  0  0
 75147  1  0  0  0
 76148  1  0  0  0
 76149  1  0  0  0
 76150  1  0  0  0
 76 84  1  0  0  0
 77151  1  0  0  0
 77152  1  0  0  0
 78 84  1  0  0  0
 78153  1  0  0  0
 78154  1  0  0  0
 79 80  1  0  0  0
 79 83  1  0  0  0
 79155  1  0  0  0
 79156  1  0  0  0
 80 84  1  0  0  0
 80157  1  0  0  0
 80158  1  0  0  0
 83159  1  0  0  0
 84160  1  0  0  0
M  CHG  1  84   1
M  ISO  4   1 100  68 101  77 101  83 100
M  END
> <chiral flag>
0

> <version>
0

> <s_m_source_file>
/data/baiqing/PycharmProjects/Reinvent-master-3.2/result/LINK_invent/BTK/process_docking_weight1_custom_sum_contain_oxygen_bond_distance_aromatic_linkinvent_7_9_3/rearranged_h_0057.sdf

> <i_m_source_file_index>
76

> <r_mmod_Potential_Energy-OPLS-2005>
-692.492919921875

> <r_mmod_Stretch_Energy-OPLS-2005>
48.2795639038086

> <r_mmod_Bend_Energy-OPLS-2005>
118.960289001465

> <r_mmod_Torsional_Energy-OPLS-2005>
207.29541015625

> <r_mmod_Improper_Torsional_Energy-OPLS-2005>
5.21427869796753

> <r_mmod_Van_der_Waal_Energy-OPLS-2005>
161.013107299805

> <r_mmod_Electrostatic_Energy-OPLS-2005>
-797.646301269531

> <r_mmod_Solvation_Energy-OPLS-2005>
-457.442932128906

> <b_mmod_Minimization_Converged-OPLS-2005>
0

> <r_mmod_RMS_Derivative-OPLS-2005>
4.43535852432251

$$$$
76
                    3D
 Structure written by MMmdl.
168176  0  0  1  0            999 V2000
  -30.8142  -14.3541   20.7242 C   0  0  0  0  0  0
  -30.4205  -12.2927   19.4166 C   0  0  0  0  0  0
  -29.4891  -12.5298   18.2137 C   0  0  0  0  0  0
  -28.0178  -12.3714   18.6331 C   0  0  0  0  0  0
  -27.6741  -13.1986   19.8946 C   0  0  2  0  0  0
  -28.7156  -12.9582   21.0103 C   0  0  0  0  0  0
  -25.2642  -13.8147   20.5737 C   0  0  0  0  0  0
  -24.1872  -13.0443   20.9223 C   0  0  0  0  0  0
  -24.6412  -11.6901   20.8770 C   0  0  0  0  0  0
  -23.9072  -10.4287   21.0436 C   0  0  0  0  0  0
  -24.3623   -9.4181   21.9192 C   0  0  0  0  0  0
  -23.6297   -8.2212   22.0758 C   0  0  0  0  0  0
  -22.4276   -8.0275   21.3547 C   0  0  0  0  0  0
  -21.9924   -9.0252   20.4656 C   0  0  0  0  0  0
  -22.7263  -10.2130   20.3071 C   0  0  0  0  0  0
  -21.6855   -6.0732   22.5257 C   0  0  0  0  0  0
  -21.4003   -6.5632   23.8195 C   0  0  0  0  0  0
  -21.3652   -5.6806   24.9159 C   0  0  0  0  0  0
  -21.6050   -4.3067   24.7235 C   0  0  0  0  0  0
  -21.8820   -3.8154   23.4349 C   0  0  0  0  0  0
  -21.9190   -4.6954   22.3403 C   0  0  0  0  0  0
  -22.7872  -13.5226   21.1848 C   0  0  0  0  0  0
  -22.1679   -4.2126   21.0990 F   0  0  0  0  0  0
  -21.5627   -3.4553   25.7748 F   0  0  0  0  0  0
  -30.0592  -13.2468   20.4763 N   0  0  0  0  0  0
  -26.3095  -12.9306   20.3512 N   0  0  0  0  0  0
  -25.9348  -11.6465   20.5856 N   0  0  0  0  0  0
  -22.0523  -12.8200   22.0395 N   0  0  0  0  0  0
  -25.4424  -15.1850   20.4051 N   0  0  0  0  0  0
  -31.8262  -14.6116   20.0630 O   0  0  0  0  0  0
  -21.6644   -6.8858   21.4224 O   0  0  0  0  0  0
  -22.3542  -14.5548   20.6722 O   0  0  0  0  0  0
  -24.6120  -31.8681   23.2144 C   0  0  0  0  0  0
  -25.9018  -32.4832   23.8419 C   0  0  1  0  0  0
  -27.2399  -27.4756   20.0640 C   0  0  0  0  0  0
  -25.5865  -33.8627   24.2335 N   0  0  0  0  0  0
  -23.3994  -30.4947   21.5527 C   0  0  2  0  0  0
  -24.8451  -28.9674   20.1183 C   0  0  0  0  0  0
  -22.7385  -29.4663   22.4979 C   0  0  0  0  0  0
  -18.0271  -28.1367   22.8494 C   0  0  0  0  0  0
  -24.1485  -36.7338   23.2643 C   0  0  0  0  0  0
  -25.9273  -30.8442   21.3669 C   0  0  0  0  0  0
  -26.0065  -29.4832   20.7087 C   0  0  0  0  0  0
  -27.2096  -28.7434   20.6826 C   0  0  0  0  0  0
  -26.0589  -26.9688   19.4725 C   0  0  0  0  0  0
  -24.8628  -27.7055   19.5018 C   0  0  0  0  0  0
  -23.6060  -29.8291   20.1676 C   0  0  0  0  0  0
  -25.4103  -36.3132   24.0345 C   0  0  1  0  0  0
  -20.5855  -28.3667   23.1296 C   0  0  2  0  0  0
  -20.6754  -26.9398   22.5385 C   0  0  0  0  0  0
  -19.5710  -26.6364   21.5213 C   0  0  0  0  0  0
  -18.1904  -26.7899   22.1647 C   0  0  0  0  0  0
  -19.1517  -28.8829   23.2887 C   0  0  0  0  0  0
  -18.9450  -30.1432   23.8903 C   0  0  0  0  0  0
  -17.6447  -30.6571   24.0560 C   0  0  0  0  0  0
  -25.9025  -34.9491   23.5148 C   0  0  0  0  0  0
  -16.5338  -29.9069   23.6325 C   0  0  0  0  0  0
  -16.7255  -28.6483   23.0352 C   0  0  0  0  0  0
  -26.4454  -31.6619   25.0742 C   0  0  0  0  0  0
  -25.3730  -31.3716   26.1504 C   0  0  0  0  0  0
  -27.0295  -30.3065   24.6126 C   0  0  0  0  0  0
  -27.6021  -32.4347   25.7508 C   0  0  0  0  0  0
  -27.5585  -37.1831   24.8465 C   0  0  0  0  0  0
  -21.4117  -29.3042   22.3712 N   0  0  0  0  0  0
  -26.4306  -37.3800   23.9404 N   0  0  0  0  0  0
  -24.6641  -31.0818   22.1032 N   0  0  0  0  0  0
  -23.4172  -28.8191   23.3002 O   0  0  0  0  0  0
  -28.4031  -26.7389   20.0237 O   0  0  0  0  0  0
  -26.5591  -34.8930   22.4709 O   0  0  0  0  0  0
  -23.5316  -32.1405   23.7543 O   0  0  0  0  0  0
  -27.7977  -25.0165   21.5648 C   0  0  0  0  0  0
  -28.2768  -25.4212   20.3738 C   0  0  0  0  0  0
  -27.4468  -23.6152   21.7482 C   0  0  0  0  0  0
  -28.2065  -23.3140   19.4706 C   0  0  0  0  0  0
  -28.5403  -22.2916   18.3933 C   0  0  0  0  0  0
  -30.4746  -14.7443   23.2646 C   0  0  0  0  0  0
  -26.0615  -20.4606   22.6761 C   0  0  0  0  0  0
  -29.3410  -17.7203   21.6195 C   0  0  0  0  0  0
  -29.1940  -16.1900   21.5040 C   0  0  0  0  0  0
  -26.4941  -21.7711   20.4524 C   0  0  0  0  0  0
  -27.9833  -18.3709   21.3026 C   0  0  0  0  0  0
  -30.4522  -15.3583   21.8446 C   0  0  1  0  0  0
  -26.6379  -20.4353   21.2431 C   0  0  1  0  0  0
  -28.5685  -24.5511   19.3275 N   0  0  0  0  0  0
  -27.5189  -22.8355   20.6247 N   0  0  0  0  0  0
  -28.0018  -19.8499   21.2347 N   0  3  0  0  0  0
  -27.0046  -23.2051   22.8208 O   0  0  0  0  0  0
  -31.4632  -12.3785   19.1112 H   0  0  0  0  0  0
  -30.3159  -11.2729   19.7900 H   0  0  0  0  0  0
  -29.7243  -11.8288   17.4126 H   0  0  0  0  0  0
  -29.6566  -13.5301   17.8146 H   0  0  0  0  0  0
  -27.8456  -11.3136   18.8303 H   0  0  0  0  0  0
  -27.3511  -12.6424   17.8148 H   0  0  0  0  0  0
  -27.7256  -14.2496   19.6130 H   0  0  0  0  0  0
  -28.6752  -11.9287   21.3679 H   0  0  0  0  0  0
  -28.4469  -13.5628   21.8678 H   0  0  0  0  0  0
  -25.2764   -9.5626   22.4779 H   0  0  0  0  0  0
  -23.9997   -7.4580   22.7483 H   0  0  0  0  0  0
  -21.0850   -8.8800   19.8956 H   0  0  0  0  0  0
  -22.3747  -10.9686   19.6182 H   0  0  0  0  0  0
  -21.2006   -7.6147   23.9694 H   0  0  0  0  0  0
  -21.1478   -6.0532   25.9063 H   0  0  0  0  0  0
  -22.0612   -2.7611   23.2865 H   0  0  0  0  0  0
  -22.4167  -11.9824   22.4706 H   0  0  0  0  0  0
  -21.1153  -13.1204   22.2688 H   0  0  0  0  0  0
  -24.6783  -15.8473   20.4850 H   0  0  0  0  0  0
  -26.2864  -15.5971   20.0271 H   0  0  0  0  0  0
  -26.7087  -32.5553   23.1185 H   0  0  0  0  0  0
  -25.0008  -33.9788   25.0474 H   0  0  0  0  0  0
  -22.6890  -31.3129   21.4145 H   0  0  0  0  0  0
  -23.3734  -35.9689   23.3340 H   0  0  0  0  0  0
  -24.3578  -36.8914   22.2056 H   0  0  0  0  0  0
  -23.7259  -37.6559   23.6630 H   0  0  0  0  0  0
  -26.0433  -31.6147   20.6037 H   0  0  0  0  0  0
  -26.8142  -30.8875   21.9881 H   0  0  0  0  0  0
  -28.1109  -29.1374   21.1326 H   0  0  0  0  0  0
  -26.0637  -26.0058   18.9819 H   0  0  0  0  0  0
  -23.9723  -27.3002   19.0400 H   0  0  0  0  0  0
  -23.7093  -30.6023   19.4059 H   0  0  0  0  0  0
  -22.7321  -29.2446   19.8753 H   0  0  0  0  0  0
  -25.1285  -36.2014   25.0839 H   0  0  0  0  0  0
  -20.9939  -28.3225   24.1411 H   0  0  0  0  0  0
  -20.5653  -26.2277   23.3578 H   0  0  0  0  0  0
  -21.6618  -26.7425   22.1174 H   0  0  0  0  0  0
  -19.6848  -25.6265   21.1258 H   0  0  0  0  0  0
  -19.6640  -27.3156   20.6730 H   0  0  0  0  0  0
  -17.4159  -26.6627   21.4064 H   0  0  0  0  0  0
  -18.0327  -26.0042   22.9062 H   0  0  0  0  0  0
  -19.7922  -30.7247   24.2284 H   0  0  0  0  0  0
  -17.4995  -31.6266   24.5141 H   0  0  0  0  0  0
  -15.5338  -30.2969   23.7637 H   0  0  0  0  0  0
  -15.8653  -28.0805   22.7068 H   0  0  0  0  0  0
  -24.5864  -30.7110   25.7845 H   0  0  0  0  0  0
  -24.8969  -32.2874   26.5023 H   0  0  0  0  0  0
  -25.8089  -30.8827   27.0226 H   0  0  0  0  0  0
  -26.2851  -29.6832   24.1162 H   0  0  0  0  0  0
  -27.4037  -29.7302   25.4597 H   0  0  0  0  0  0
  -27.8692  -30.4391   23.9300 H   0  0  0  0  0  0
  -27.2613  -33.3603   26.2166 H   0  0  0  0  0  0
  -28.3790  -32.6992   25.0322 H   0  0  0  0  0  0
  -28.0743  -31.8434   26.5367 H   0  0  0  0  0  0
  -28.2619  -38.0110   24.7487 H   0  0  0  0  0  0
  -28.1057  -36.2642   24.6318 H   0  0  0  0  0  0
  -27.2299  -37.1524   25.8864 H   0  0  0  0  0  0
  -20.9259  -29.8787   21.6970 H   0  0  0  0  0  0
  -26.0209  -38.2886   24.1367 H   0  0  0  0  0  0
  -27.5523  -25.7347   22.3316 H   0  0  0  0  0  0
  -29.5477  -22.4657   18.0155 H   0  0  0  0  0  0
  -27.8501  -22.3916   17.5545 H   0  0  0  0  0  0
  -28.5055  -21.2664   18.7567 H   0  0  0  0  0  0
  -31.2656  -14.0007   23.3686 H   0  0  0  0  0  0
  -30.6683  -15.5107   24.0130 H   0  0  0  0  0  0
  -29.5368  -14.2660   23.5437 H   0  0  0  0  0  0
  -25.7575  -19.4687   23.0106 H   0  0  0  0  0  0
  -25.1847  -21.1057   22.7475 H   0  0  0  0  0  0
  -26.7957  -20.8173   23.3967 H   0  0  0  0  0  0
  -30.1095  -18.0760   20.9308 H   0  0  0  0  0  0
  -29.6689  -17.9976   22.6229 H   0  0  0  0  0  0
  -28.8996  -15.9858   20.4741 H   0  0  0  0  0  0
  -28.3566  -15.8570   22.1189 H   0  0  0  0  0  0
  -25.5263  -22.2079   20.7024 H   0  0  0  0  0  0
  -26.3539  -21.5275   19.4002 H   0  0  0  0  0  0
  -27.2690  -18.0296   22.0520 H   0  0  0  0  0  0
  -27.6067  -18.0010   20.3469 H   0  0  0  0  0  0
  -31.2925  -16.0584   21.8431 H   0  0  0  0  0  0
  -25.9911  -19.7504   20.6908 H   0  0  0  0  0  0
  -28.4780  -20.1077   20.3858 H   0  0  0  0  0  0
  -28.5222  -20.2226   22.0125 H   0  0  0  0  0  0
  1 25  1  0  0  0
  1 30  2  0  0  0
  1 82  1  0  0  0
  2  3  1  0  0  0
  2 25  1  0  0  0
  2 88  1  0  0  0
  2 89  1  0  0  0
  3  4  1  0  0  0
  3 90  1  0  0  0
  3 91  1  0  0  0
  4  5  1  0  0  0
  4 92  1  0  0  0
  4 93  1  0  0  0
  5  6  1  0  0  0
  5 26  1  0  0  0
  5 94  1  0  0  0
  6 25  1  0  0  0
  6 95  1  0  0  0
  6 96  1  0  0  0
  7  8  2  0  0  0
  7 26  1  0  0  0
  7 29  1  0  0  0
  8  9  1  0  0  0
  8 22  1  0  0  0
  9 10  1  0  0  0
  9 27  2  0  0  0
 10 11  2  0  0  0
 10 15  1  0  0  0
 11 12  1  0  0  0
 11 97  1  0  0  0
 12 13  2  0  0  0
 12 98  1  0  0  0
 13 14  1  0  0  0
 13 31  1  0  0  0
 14 15  2  0  0  0
 14 99  1  0  0  0
 15100  1  0  0  0
 16 17  2  0  0  0
 16 21  1  0  0  0
 16 31  1  0  0  0
 17 18  1  0  0  0
 17101  1  0  0  0
 18 19  2  0  0  0
 18102  1  0  0  0
 19 20  1  0  0  0
 19 24  1  0  0  0
 20 21  2  0  0  0
 20103  1  0  0  0
 21 23  1  0  0  0
 22 28  1  0  0  0
 22 32  2  0  0  0
 26 27  1  0  0  0
 28104  1  0  0  0
 28105  1  0  0  0
 29106  1  0  0  0
 29107  1  0  0  0
 33 34  1  0  0  0
 33 66  1  0  0  0
 33 70  2  0  0  0
 34 36  1  0  0  0
 34 59  1  0  0  0
 34108  1  0  0  0
 35 44  2  0  0  0
 35 45  1  0  0  0
 35 68  1  0  0  0
 36 56  1  0  0  0
 36109  1  0  0  0
 37 39  1  0  0  0
 37 47  1  0  0  0
 37 66  1  0  0  0
 37110  1  0  0  0
 38 43  2  0  0  0
 38 46  1  0  0  0
 38 47  1  0  0  0
 39 64  1  0  0  0
 39 67  2  0  0  0
 40 52  1  0  0  0
 40 53  2  0  0  0
 40 58  1  0  0  0
 41111  1  0  0  0
 41112  1  0  0  0
 41113  1  0  0  0
 41 48  1  0  0  0
 42 43  1  0  0  0
 42 66  1  0  0  0
 42114  1  0  0  0
 42115  1  0  0  0
 43 44  1  0  0  0
 44116  1  0  0  0
 45 46  2  0  0  0
 45117  1  0  0  0
 46118  1  0  0  0
 47119  1  0  0  0
 47120  1  0  0  0
 48 56  1  0  0  0
 48 65  1  0  0  0
 48121  1  0  0  0
 49 50  1  0  0  0
 49 53  1  0  0  0
 49 64  1  0  0  0
 49122  1  0  0  0
 50 51  1  0  0  0
 50123  1  0  0  0
 50124  1  0  0  0
 51 52  1  0  0  0
 51125  1  0  0  0
 51126  1  0  0  0
 52127  1  0  0  0
 52128  1  0  0  0
 53 54  1  0  0  0
 54 55  2  0  0  0
 54129  1  0  0  0
 55 57  1  0  0  0
 55130  1  0  0  0
 56 69  2  0  0  0
 57 58  2  0  0  0
 57131  1  0  0  0
 58132  1  0  0  0
 59 60  1  0  0  0
 59 61  1  0  0  0
 59 62  1  0  0  0
 60133  1  0  0  0
 60134  1  0  0  0
 60135  1  0  0  0
 61136  1  0  0  0
 61137  1  0  0  0
 61138  1  0  0  0
 62139  1  0  0  0
 62140  1  0  0  0
 62141  1  0  0  0
 63 65  1  0  0  0
 63142  1  0  0  0
 63143  1  0  0  0
 63144  1  0  0  0
 64145  1  0  0  0
 65146  1  0  0  0
 68 72  1  0  0  0
 71 72  2  0  0  0
 71 73  1  0  0  0
 71147  1  0  0  0
 72 84  1  0  0  0
 73 85  1  0  0  0
 73 87  2  0  0  0
 74 75  1  0  0  0
 74 84  2  0  0  0
 74 85  1  0  0  0
 75148  1  0  0  0
 75149  1  0  0  0
 75150  1  0  0  0
 76151  1  0  0  0
 76152  1  0  0  0
 76153  1  0  0  0
 76 82  1  0  0  0
 77154  1  0  0  0
 77155  1  0  0  0
 77156  1  0  0  0
 77 83  1  0  0  0
 78 79  1  0  0  0
 78 81  1  0  0  0
 78157  1  0  0  0
 78158  1  0  0  0
 79 82  1  0  0  0
 79159  1  0  0  0
 79160  1  0  0  0
 80 83  1  0  0  0
 80 85  1  0  0  0
 80161  1  0  0  0
 80162  1  0  0  0
 81 86  1  0  0  0
 81163  1  0  0  0
 81164  1  0  0  0
 82165  1  0  0  0
 83 86  1  0  0  0
 83166  1  0  0  0
 86167  1  0  0  0
 86168  1  0  0  0
M  CHG  1  86   1
M  ISO  4   1 100  68 101  72 101  82 100
M  END
> <chiral flag>
0

> <version>
0

> <s_m_source_file>
/data/baiqing/PycharmProjects/Reinvent-master-3.2/result/LINK_invent/BTK/process_docking_weight1_custom_sum_contain_oxygen_bond_distance_aromatic_linkinvent_7_9_3/rearranged_h_0057.sdf

> <i_m_source_file_index>
77

> <r_mmod_Potential_Energy-OPLS-2005>
-131.393753051758

> <r_mmod_Stretch_Energy-OPLS-2005>
41.966251373291

> <r_mmod_Bend_Energy-OPLS-2005>
126.537246704102

> <r_mmod_Torsional_Energy-OPLS-2005>
278.985626220703

> <r_mmod_Improper_Torsional_Energy-OPLS-2005>
4.38291263580322

> <r_mmod_Van_der_Waal_Energy-OPLS-2005>
179.814239501953

> <r_mmod_Electrostatic_Energy-OPLS-2005>
-314.568054199219

> <r_mmod_Solvation_Energy-OPLS-2005>
-456.957427978516

> <b_mmod_Minimization_Converged-OPLS-2005>
0

> <r_mmod_RMS_Derivative-OPLS-2005>
4.14513921737671

$$$$
77
                    3D
 Structure written by MMmdl.
148156  0  0  1  0            999 V2000
  -30.3819  -15.3495   20.3807 C   0  0  0  0  0  0
  -30.4351  -12.8664   19.5485 C   0  0  0  0  0  0
  -29.5430  -12.6030   18.3075 C   0  0  0  0  0  0
  -28.0963  -12.3030   18.7324 C   0  0  0  0  0  0
  -27.6095  -13.2805   19.8302 C   0  0  2  0  0  0
  -28.6318  -13.4726   20.9714 C   0  0  0  0  0  0
  -25.2391  -13.8231   20.5798 C   0  0  0  0  0  0
  -24.1733  -13.0440   20.9253 C   0  0  0  0  0  0
  -24.6388  -11.6937   20.8721 C   0  0  0  0  0  0
  -23.9095  -10.4287   21.0387 C   0  0  0  0  0  0
  -24.3638   -9.4192   21.9180 C   0  0  0  0  0  0
  -23.6301   -8.2226   22.0751 C   0  0  0  0  0  0
  -22.4281   -8.0256   21.3536 C   0  0  0  0  0  0
  -21.9931   -9.0241   20.4643 C   0  0  0  0  0  0
  -22.7259  -10.2123   20.3048 C   0  0  0  0  0  0
  -21.6855   -6.0732   22.5290 C   0  0  0  0  0  0
  -21.4015   -6.5639   23.8220 C   0  0  0  0  0  0
  -21.3658   -5.6791   24.9176 C   0  0  0  0  0  0
  -21.6056   -4.3054   24.7239 C   0  0  0  0  0  0
  -21.8809   -3.8146   23.4352 C   0  0  0  0  0  0
  -21.9190   -4.6961   22.3405 C   0  0  0  0  0  0
  -22.7747  -13.5190   21.1900 C   0  0  0  0  0  0
  -22.1660   -4.2156   21.0983 F   0  0  0  0  0  0
  -21.5633   -3.4527   25.7742 F   0  0  0  0  0  0
  -29.8549  -14.0150   20.3532 N   0  0  0  0  0  0
  -26.2798  -12.9525   20.3218 N   0  0  0  0  0  0
  -25.9321  -11.6628   20.5690 N   0  0  0  0  0  0
  -22.0428  -12.8154   22.0454 N   0  0  0  0  0  0
  -25.4111  -15.1970   20.4394 N   0  0  0  0  0  0
  -31.5944  -15.3581   20.1122 O   0  0  0  0  0  0
  -21.6635   -6.8860   21.4241 O   0  0  0  0  0  0
  -22.3402  -14.5492   20.6740 O   0  0  0  0  0  0
  -24.6695  -31.8166   23.1643 C   0  0  0  0  0  0
  -25.9341  -32.4546   23.8139 C   0  0  1  0  0  0
  -27.2057  -26.8469   20.2101 C   0  0  0  0  0  0
  -25.5969  -33.8363   24.2028 N   0  0  0  0  0  0
  -23.4880  -30.4243   21.5139 C   0  0  2  0  0  0
  -24.9402  -28.7965   20.1080 C   0  0  0  0  0  0
  -22.7704  -29.4396   22.4766 C   0  0  0  0  0  0
  -18.0335  -28.1419   22.8458 C   0  0  0  0  0  0
  -24.1493  -36.7199   23.2663 C   0  0  0  0  0  0
  -26.0607  -30.5918   21.4124 C   0  0  0  0  0  0
  -26.1212  -29.1744   20.7591 C   0  0  0  0  0  0
  -27.2418  -28.2193   20.7877 C   0  0  0  0  0  0
  -26.0075  -26.6479   19.4885 C   0  0  0  0  0  0
  -24.9134  -27.5567   19.4460 C   0  0  0  0  0  0
  -23.7314  -29.7351   20.1421 C   0  0  0  0  0  0
  -25.4146  -36.2957   24.0292 C   0  0  1  0  0  0
  -20.5947  -28.3763   23.1156 C   0  0  2  0  0  0
  -20.6802  -26.9446   22.5421 C   0  0  0  0  0  0
  -19.5786  -26.6376   21.5227 C   0  0  0  0  0  0
  -18.1973  -26.7950   22.1618 C   0  0  0  0  0  0
  -19.1587  -28.8926   23.2781 C   0  0  0  0  0  0
  -18.9500  -30.1512   23.8833 C   0  0  0  0  0  0
  -17.6494  -30.6598   24.0560 C   0  0  0  0  0  0
  -25.9108  -34.9327   23.4992 C   0  0  0  0  0  0
  -16.5382  -29.9081   23.6353 C   0  0  0  0  0  0
  -16.7316  -28.6509   23.0370 C   0  0  0  0  0  0
  -26.4544  -31.6538   25.0714 C   0  0  0  0  0  0
  -25.3631  -31.3811   26.1342 C   0  0  0  0  0  0
  -27.0475  -30.2905   24.6526 C   0  0  0  0  0  0
  -27.6021  -32.4376   25.7514 C   0  0  0  0  0  0
  -27.5558  -37.1788   24.8483 C   0  0  0  0  0  0
  -21.4368  -29.3027   22.3501 N   0  0  0  0  0  0
  -26.4307  -37.3690   23.9371 N   0  0  0  0  0  0
  -24.7617  -30.9749   22.0837 N   0  0  0  0  0  0
  -23.4221  -28.8000   23.3063 O   0  0  0  0  0  0
  -28.1679  -25.6894   20.3670 O   0  0  0  0  0  0
  -26.5736  -34.8876   22.4605 O   0  0  0  0  0  0
  -23.5722  -32.1193   23.6666 O   0  0  0  0  0  0
  -28.0813  -22.2860   21.9749 C   0  0  0  0  0  0
  -28.4737  -22.4834   20.6325 C   0  0  0  0  0  0
  -29.0330  -19.8391   20.7112 C   0  0  0  0  0  0
  -28.5245  -19.9130   22.0405 C   0  0  0  0  0  0
  -29.7199  -18.2874   20.1470 C   0  0  0  0  0  0
  -28.0464  -24.0660   19.9203 C   0  0  0  0  0  0
  -28.4189  -18.6573   22.9187 C   0  0  0  0  0  0
  -28.0972  -21.0837   22.6242 N   0  0  0  0  0  0
  -28.9552  -21.1856   20.0445 N   0  0  0  0  0  0
  -29.5954  -16.6244   20.5138 N   0  0  0  0  0  0
  -27.8428  -18.9293   24.0938 F   0  0  0  0  0  0
  -27.6748  -17.7311   22.3105 F   0  0  0  0  0  0
  -29.6274  -18.1529   23.1654 F   0  0  0  0  0  0
  -31.4507  -13.0850   19.2153 H   0  0  0  0  0  0
  -30.5227  -11.9663   20.1573 H   0  0  0  0  0  0
  -29.9414  -11.7787   17.7142 H   0  0  0  0  0  0
  -29.5580  -13.4816   17.6609 H   0  0  0  0  0  0
  -28.0681  -11.2795   19.1113 H   0  0  0  0  0  0
  -27.4275  -12.3271   17.8697 H   0  0  0  0  0  0
  -27.5194  -14.2464   19.3272 H   0  0  0  0  0  0
  -28.8138  -12.5397   21.5107 H   0  0  0  0  0  0
  -28.2477  -14.1800   21.7078 H   0  0  0  0  0  0
  -25.2786   -9.5660   22.4758 H   0  0  0  0  0  0
  -24.0008   -7.4620   22.7479 H   0  0  0  0  0  0
  -21.0864   -8.8761   19.8953 H   0  0  0  0  0  0
  -22.3719  -10.9654   19.6152 H   0  0  0  0  0  0
  -21.2006   -7.6157   23.9710 H   0  0  0  0  0  0
  -21.1498   -6.0537   25.9080 H   0  0  0  0  0  0
  -22.0592   -2.7617   23.2855 H   0  0  0  0  0  0
  -22.4062  -11.9797   22.4795 H   0  0  0  0  0  0
  -21.1032  -13.1132   22.2647 H   0  0  0  0  0  0
  -24.6584  -15.8530   20.6022 H   0  0  0  0  0  0
  -26.2735  -15.6437   20.1625 H   0  0  0  0  0  0
  -26.7427  -32.5047   23.0855 H   0  0  0  0  0  0
  -25.0031  -33.9434   25.0107 H   0  0  0  0  0  0
  -22.8057  -31.2575   21.3364 H   0  0  0  0  0  0
  -23.3740  -35.9550   23.3357 H   0  0  0  0  0  0
  -24.3550  -36.8821   22.2075 H   0  0  0  0  0  0
  -23.7276  -37.6407   23.6699 H   0  0  0  0  0  0
  -26.2544  -31.3216   20.6259 H   0  0  0  0  0  0
  -26.9189  -30.6509   22.0703 H   0  0  0  0  0  0
  -28.1232  -28.4961   21.3494 H   0  0  0  0  0  0
  -25.8622  -25.7056   18.9842 H   0  0  0  0  0  0
  -24.0216  -27.2612   18.9095 H   0  0  0  0  0  0
  -23.8928  -30.5004   19.3819 H   0  0  0  0  0  0
  -22.8418  -29.1906   19.8252 H   0  0  0  0  0  0
  -25.1359  -36.1774   25.0791 H   0  0  0  0  0  0
  -21.0007  -28.3404   24.1296 H   0  0  0  0  0  0
  -20.5669  -26.2412   23.3681 H   0  0  0  0  0  0
  -21.6682  -26.7415   22.1249 H   0  0  0  0  0  0
  -19.6949  -25.6257   21.1327 H   0  0  0  0  0  0
  -19.6731  -27.3128   20.6720 H   0  0  0  0  0  0
  -17.4251  -26.6695   21.4012 H   0  0  0  0  0  0
  -18.0324  -26.0114   22.9026 H   0  0  0  0  0  0
  -19.7975  -30.7340   24.2174 H   0  0  0  0  0  0
  -17.5037  -31.6275   24.5181 H   0  0  0  0  0  0
  -15.5381  -30.2961   23.7723 H   0  0  0  0  0  0
  -15.8708  -28.0817   22.7114 H   0  0  0  0  0  0
  -24.5834  -30.7140   25.7625 H   0  0  0  0  0  0
  -24.8778  -32.3017   26.4611 H   0  0  0  0  0  0
  -25.7818  -30.9082   27.0235 H   0  0  0  0  0  0
  -26.3175  -29.6544   24.1511 H   0  0  0  0  0  0
  -27.3945  -29.7322   25.5226 H   0  0  0  0  0  0
  -27.9131  -30.4081   24.0007 H   0  0  0  0  0  0
  -27.2585  -33.3732   26.1944 H   0  0  0  0  0  0
  -28.3900  -32.6864   25.0389 H   0  0  0  0  0  0
  -28.0622  -31.8617   26.5562 H   0  0  0  0  0  0
  -28.2639  -38.0016   24.7415 H   0  0  0  0  0  0
  -28.0993  -36.2543   24.6472 H   0  0  0  0  0  0
  -27.2260  -37.1633   25.8887 H   0  0  0  0  0  0
  -20.9643  -29.8695   21.6591 H   0  0  0  0  0  0
  -26.0154  -38.2768   24.1277 H   0  0  0  0  0  0
  -27.6798  -23.1148   22.5416 H   0  0  0  0  0  0
  -30.7938  -18.4701   20.1975 H   0  0  0  0  0  0
  -29.4892  -18.3114   19.0833 H   0  0  0  0  0  0
  -26.9797  -23.9296   19.7454 H   0  0  0  0  0  0
  -28.4856  -24.0300   18.9245 H   0  0  0  0  0  0
  -28.6520  -16.4016   20.7981 H   0  0  0  0  0  0
  1 25  1  0  0  0
  1 30  2  0  0  0
  1 80  1  0  0  0
  2  3  1  0  0  0
  2 25  1  0  0  0
  2 84  1  0  0  0
  2 85  1  0  0  0
  3  4  1  0  0  0
  3 86  1  0  0  0
  3 87  1  0  0  0
  4  5  1  0  0  0
  4 88  1  0  0  0
  4 89  1  0  0  0
  5  6  1  0  0  0
  5 26  1  0  0  0
  5 90  1  0  0  0
  6 25  1  0  0  0
  6 91  1  0  0  0
  6 92  1  0  0  0
  7  8  2  0  0  0
  7 26  1  0  0  0
  7 29  1  0  0  0
  8  9  1  0  0  0
  8 22  1  0  0  0
  9 10  1  0  0  0
  9 27  2  0  0  0
 10 11  2  0  0  0
 10 15  1  0  0  0
 11 12  1  0  0  0
 11 93  1  0  0  0
 12 13  2  0  0  0
 12 94  1  0  0  0
 13 14  1  0  0  0
 13 31  1  0  0  0
 14 15  2  0  0  0
 14 95  1  0  0  0
 15 96  1  0  0  0
 16 17  2  0  0  0
 16 21  1  0  0  0
 16 31  1  0  0  0
 17 18  1  0  0  0
 17 97  1  0  0  0
 18 19  2  0  0  0
 18 98  1  0  0  0
 19 20  1  0  0  0
 19 24  1  0  0  0
 20 21  2  0  0  0
 20 99  1  0  0  0
 21 23  1  0  0  0
 22 28  1  0  0  0
 22 32  2  0  0  0
 26 27  1  0  0  0
 28100  1  0  0  0
 28101  1  0  0  0
 29102  1  0  0  0
 29103  1  0  0  0
 33 34  1  0  0  0
 33 66  1  0  0  0
 33 70  2  0  0  0
 34 36  1  0  0  0
 34 59  1  0  0  0
 34104  1  0  0  0
 35 44  2  0  0  0
 35 45  1  0  0  0
 35 68  1  0  0  0
 36 56  1  0  0  0
 36105  1  0  0  0
 37 39  1  0  0  0
 37 47  1  0  0  0
 37 66  1  0  0  0
 37106  1  0  0  0
 38 43  2  0  0  0
 38 46  1  0  0  0
 38 47  1  0  0  0
 39 64  1  0  0  0
 39 67  2  0  0  0
 40 52  1  0  0  0
 40 53  2  0  0  0
 40 58  1  0  0  0
 41107  1  0  0  0
 41108  1  0  0  0
 41109  1  0  0  0
 41 48  1  0  0  0
 42 43  1  0  0  0
 42 66  1  0  0  0
 42110  1  0  0  0
 42111  1  0  0  0
 43 44  1  0  0  0
 44112  1  0  0  0
 45 46  2  0  0  0
 45113  1  0  0  0
 46114  1  0  0  0
 47115  1  0  0  0
 47116  1  0  0  0
 48 56  1  0  0  0
 48 65  1  0  0  0
 48117  1  0  0  0
 49 50  1  0  0  0
 49 53  1  0  0  0
 49 64  1  0  0  0
 49118  1  0  0  0
 50 51  1  0  0  0
 50119  1  0  0  0
 50120  1  0  0  0
 51 52  1  0  0  0
 51121  1  0  0  0
 51122  1  0  0  0
 52123  1  0  0  0
 52124  1  0  0  0
 53 54  1  0  0  0
 54 55  2  0  0  0
 54125  1  0  0  0
 55 57  1  0  0  0
 55126  1  0  0  0
 56 69  2  0  0  0
 57 58  2  0  0  0
 57127  1  0  0  0
 58128  1  0  0  0
 59 60  1  0  0  0
 59 61  1  0  0  0
 59 62  1  0  0  0
 60129  1  0  0  0
 60130  1  0  0  0
 60131  1  0  0  0
 61132  1  0  0  0
 61133  1  0  0  0
 61134  1  0  0  0
 62135  1  0  0  0
 62136  1  0  0  0
 62137  1  0  0  0
 63 65  1  0  0  0
 63138  1  0  0  0
 63139  1  0  0  0
 63140  1  0  0  0
 64141  1  0  0  0
 65142  1  0  0  0
 68 76  1  0  0  0
 71 72  2  0  0  0
 71 78  1  0  0  0
 71143  1  0  0  0
 72 76  1  0  0  0
 72 79  1  0  0  0
 73 74  1  0  0  0
 73 75  1  0  0  0
 73 79  2  0  0  0
 74 77  1  0  0  0
 74 78  2  0  0  0
 75 80  1  0  0  0
 75144  1  0  0  0
 75145  1  0  0  0
 76146  1  0  0  0
 76147  1  0  0  0
 77 81  1  0  0  0
 77 82  1  0  0  0
 77 83  1  0  0  0
 80148  1  0  0  0
M  ISO  4   1 100  68 101  76 101  80 100
M  END
> <chiral flag>
0

> <version>
0

> <s_m_source_file>
/data/baiqing/PycharmProjects/Reinvent-master-3.2/result/LINK_invent/BTK/process_docking_weight1_custom_sum_contain_oxygen_bond_distance_aromatic_linkinvent_7_9_3/rearranged_h_0057.sdf

> <i_m_source_file_index>
78

> <r_mmod_Potential_Energy-OPLS-2005>
1645.92700195312

> <r_mmod_Stretch_Energy-OPLS-2005>
712.192504882812

> <r_mmod_Bend_Energy-OPLS-2005>
483.623382568359

> <r_mmod_Torsional_Energy-OPLS-2005>
220.3857421875

> <r_mmod_Improper_Torsional_Energy-OPLS-2005>
5.82383584976196

> <r_mmod_Van_der_Waal_Energy-OPLS-2005>
125.553009033203

> <r_mmod_Electrostatic_Energy-OPLS-2005>
-252.403915405273

> <r_mmod_Solvation_Energy-OPLS-2005>
-225.213394165039

> <b_mmod_Minimization_Converged-OPLS-2005>
0

> <r_mmod_RMS_Derivative-OPLS-2005>
3.61672139167786

$$$$
78
                    3D
 Structure written by MMmdl.
150158  0  0  1  0            999 V2000
  -30.4081  -15.3881   20.3854 C   0  0  0  0  0  0
  -30.4377  -12.8998   19.5370 C   0  0  0  0  0  0
  -29.5394  -12.6199   18.3012 C   0  0  0  0  0  0
  -28.0934  -12.3165   18.7276 C   0  0  0  0  0  0
  -27.6107  -13.2861   19.8333 C   0  0  2  0  0  0
  -28.6477  -13.4649   20.9657 C   0  0  0  0  0  0
  -25.2301  -13.8221   20.5700 C   0  0  0  0  0  0
  -24.1702  -13.0391   20.9264 C   0  0  0  0  0  0
  -24.6410  -11.6914   20.8788 C   0  0  0  0  0  0
  -23.9111  -10.4270   21.0418 C   0  0  0  0  0  0
  -24.3646   -9.4183   21.9198 C   0  0  0  0  0  0
  -23.6310   -8.2225   22.0759 C   0  0  0  0  0  0
  -22.4292   -8.0274   21.3542 C   0  0  0  0  0  0
  -21.9938   -9.0253   20.4646 C   0  0  0  0  0  0
  -22.7281  -10.2123   20.3062 C   0  0  0  0  0  0
  -21.6850   -6.0736   22.5276 C   0  0  0  0  0  0
  -21.4016   -6.5641   23.8210 C   0  0  0  0  0  0
  -21.3665   -5.6795   24.9173 C   0  0  0  0  0  0
  -21.6046   -4.3057   24.7221 C   0  0  0  0  0  0
  -21.8819   -3.8146   23.4344 C   0  0  0  0  0  0
  -21.9192   -4.6966   22.3400 C   0  0  0  0  0  0
  -22.7716  -13.5139   21.1907 C   0  0  0  0  0  0
  -22.1663   -4.2152   21.0978 F   0  0  0  0  0  0
  -21.5627   -3.4542   25.7736 F   0  0  0  0  0  0
  -29.8564  -14.0522   20.3436 N   0  0  0  0  0  0
  -26.2805  -12.9553   20.3270 N   0  0  0  0  0  0
  -25.9362  -11.6643   20.5768 N   0  0  0  0  0  0
  -22.0395  -12.8125   22.0483 N   0  0  0  0  0  0
  -25.3728  -15.1939   20.3980 N   0  0  0  0  0  0
  -31.6142  -15.3585   20.0837 O   0  0  0  0  0  0
  -21.6643   -6.8882   21.4238 O   0  0  0  0  0  0
  -22.3388  -14.5440   20.6751 O   0  0  0  0  0  0
  -24.6694  -31.8156   23.1665 C   0  0  0  0  0  0
  -25.9339  -32.4561   23.8138 C   0  0  1  0  0  0
  -27.2268  -26.8610   20.1896 C   0  0  0  0  0  0
  -25.5973  -33.8376   24.2033 N   0  0  0  0  0  0
  -23.4888  -30.4265   21.5149 C   0  0  2  0  0  0
  -24.9469  -28.8023   20.1109 C   0  0  0  0  0  0
  -22.7699  -29.4411   22.4740 C   0  0  0  0  0  0
  -18.0331  -28.1412   22.8471 C   0  0  0  0  0  0
  -24.1491  -36.7205   23.2645 C   0  0  0  0  0  0
  -26.0623  -30.6001   21.4095 C   0  0  0  0  0  0
  -26.1316  -29.1830   20.7541 C   0  0  0  0  0  0
  -27.2620  -28.2341   20.7707 C   0  0  0  0  0  0
  -26.0156  -26.6575   19.4852 C   0  0  0  0  0  0
  -24.9192  -27.5617   19.4546 C   0  0  0  0  0  0
  -23.7346  -29.7383   20.1429 C   0  0  0  0  0  0
  -25.4136  -36.2953   24.0289 C   0  0  1  0  0  0
  -20.5959  -28.3771   23.1168 C   0  0  2  0  0  0
  -20.6805  -26.9444   22.5402 C   0  0  0  0  0  0
  -19.5781  -26.6374   21.5215 C   0  0  0  0  0  0
  -18.1963  -26.7945   22.1618 C   0  0  0  0  0  0
  -19.1592  -28.8910   23.2808 C   0  0  0  0  0  0
  -18.9503  -30.1496   23.8850 C   0  0  0  0  0  0
  -17.6497  -30.6603   24.0555 C   0  0  0  0  0  0
  -25.9102  -34.9337   23.4988 C   0  0  0  0  0  0
  -16.5385  -29.9089   23.6346 C   0  0  0  0  0  0
  -16.7311  -28.6509   23.0367 C   0  0  0  0  0  0
  -26.4562  -31.6542   25.0701 C   0  0  0  0  0  0
  -25.3652  -31.3822   26.1333 C   0  0  0  0  0  0
  -27.0473  -30.2898   24.6499 C   0  0  0  0  0  0
  -27.6031  -32.4372   25.7508 C   0  0  0  0  0  0
  -27.5572  -37.1768   24.8464 C   0  0  0  0  0  0
  -21.4356  -29.3053   22.3503 N   0  0  0  0  0  0
  -26.4279  -37.3700   23.9403 N   0  0  0  0  0  0
  -24.7618  -30.9760   22.0832 N   0  0  0  0  0  0
  -23.4215  -28.7970   23.2995 O   0  0  0  0  0  0
  -28.1933  -25.7000   20.2948 O   0  0  0  0  0  0
  -26.5724  -34.8885   22.4592 O   0  0  0  0  0  0
  -23.5748  -32.1143   23.6727 O   0  0  0  0  0  0
  -28.8087  -21.2140   19.5826 C   0  0  0  0  0  0
  -29.3083  -19.9889   20.3713 C   0  0  0  0  0  0
  -28.6348  -22.5049   20.2688 C   0  0  0  0  0  0
  -29.1300  -22.7249   22.7509 C   0  0  0  0  0  0
  -28.5111  -16.7143   21.4012 C   0  0  0  0  0  0
  -29.9299  -18.3272   20.0419 C   0  0  0  0  0  0
  -27.8834  -24.0959   19.9187 C   0  0  0  0  0  0
  -29.4482  -20.6181   21.5585 N   0  0  0  0  0  0
  -29.0639  -21.9850   21.5073 N   0  0  0  0  0  0
  -29.6747  -16.7153   20.5228 N   0  0  0  0  0  0
  -31.4491  -13.1190   19.1921 H   0  0  0  0  0  0
  -30.5416  -12.0023   20.1487 H   0  0  0  0  0  0
  -29.9410  -11.7929   17.7141 H   0  0  0  0  0  0
  -29.5492  -13.4931   17.6472 H   0  0  0  0  0  0
  -28.0665  -11.2928   19.1038 H   0  0  0  0  0  0
  -27.4232  -12.3454   17.8674 H   0  0  0  0  0  0
  -27.5189  -14.2529   19.3372 H   0  0  0  0  0  0
  -28.8560  -12.5141   21.4590 H   0  0  0  0  0  0
  -28.2568  -14.1095   21.7493 H   0  0  0  0  0  0
  -25.2783   -9.5657   22.4788 H   0  0  0  0  0  0
  -24.0005   -7.4616   22.7485 H   0  0  0  0  0  0
  -21.0865   -8.8782   19.8956 H   0  0  0  0  0  0
  -22.3742  -10.9667   19.6175 H   0  0  0  0  0  0
  -21.2012   -7.6151   23.9716 H   0  0  0  0  0  0
  -21.1487   -6.0525   25.9076 H   0  0  0  0  0  0
  -22.0595   -2.7608   23.2842 H   0  0  0  0  0  0
  -22.4032  -11.9787   22.4856 H   0  0  0  0  0  0
  -21.1011  -13.1125   22.2709 H   0  0  0  0  0  0
  -24.5883  -15.8292   20.5011 H   0  0  0  0  0  0
  -26.1999  -15.6436   20.0292 H   0  0  0  0  0  0
  -26.7403  -32.5082   23.0841 H   0  0  0  0  0  0
  -25.0061  -33.9436   25.0144 H   0  0  0  0  0  0
  -22.8080  -31.2619   21.3412 H   0  0  0  0  0  0
  -23.3761  -35.9526   23.3273 H   0  0  0  0  0  0
  -24.3560  -36.8902   22.2068 H   0  0  0  0  0  0
  -23.7250  -37.6379   23.6736 H   0  0  0  0  0  0
  -26.2488  -31.3369   20.6270 H   0  0  0  0  0  0
  -26.9186  -30.6620   22.0689 H   0  0  0  0  0  0
  -28.1526  -28.5214   21.3122 H   0  0  0  0  0  0
  -25.8711  -25.7152   18.9781 H   0  0  0  0  0  0
  -24.0227  -27.2654   18.9270 H   0  0  0  0  0  0
  -23.8975  -30.5062   19.3866 H   0  0  0  0  0  0
  -22.8428  -29.2002   19.8167 H   0  0  0  0  0  0
  -25.1345  -36.1735   25.0782 H   0  0  0  0  0  0
  -21.0061  -28.3386   24.1284 H   0  0  0  0  0  0
  -20.5698  -26.2385   23.3651 H   0  0  0  0  0  0
  -21.6669  -26.7419   22.1208 H   0  0  0  0  0  0
  -19.6939  -25.6266   21.1294 H   0  0  0  0  0  0
  -19.6719  -27.3134   20.6708 H   0  0  0  0  0  0
  -17.4238  -26.6695   21.4015 H   0  0  0  0  0  0
  -18.0354  -26.0089   22.9018 H   0  0  0  0  0  0
  -19.7983  -30.7322   24.2203 H   0  0  0  0  0  0
  -17.5054  -31.6286   24.5152 H   0  0  0  0  0  0
  -15.5385  -30.2977   23.7707 H   0  0  0  0  0  0
  -15.8713  -28.0814   22.7104 H   0  0  0  0  0  0
  -24.5847  -30.7163   25.7634 H   0  0  0  0  0  0
  -24.8821  -32.3033   26.4596 H   0  0  0  0  0  0
  -25.7840  -30.9088   27.0219 H   0  0  0  0  0  0
  -26.3149  -29.6556   24.1492 H   0  0  0  0  0  0
  -27.3951  -29.7300   25.5190 H   0  0  0  0  0  0
  -27.9117  -30.4066   23.9959 H   0  0  0  0  0  0
  -27.2582  -33.3726   26.1920 H   0  0  0  0  0  0
  -28.3919  -32.6853   25.0394 H   0  0  0  0  0  0
  -28.0603  -31.8613   26.5566 H   0  0  0  0  0  0
  -28.2568  -38.0084   24.7519 H   0  0  0  0  0  0
  -28.1091  -36.2615   24.6281 H   0  0  0  0  0  0
  -27.2286  -37.1394   25.8864 H   0  0  0  0  0  0
  -20.9611  -29.8750   21.6636 H   0  0  0  0  0  0
  -26.0120  -38.2753   24.1416 H   0  0  0  0  0  0
  -28.5808  -21.1368   18.5285 H   0  0  0  0  0  0
  -28.9839  -23.7897   22.5672 H   0  0  0  0  0  0
  -30.1053  -22.5854   23.2186 H   0  0  0  0  0  0
  -28.3530  -22.3775   23.4314 H   0  0  0  0  0  0
  -27.6828  -16.2075   20.9186 H   0  0  0  0  0  0
  -28.1733  -17.7210   21.6479 H   0  0  0  0  0  0
  -28.7313  -16.2180   22.3468 H   0  0  0  0  0  0
  -29.8550  -18.2274   18.9587 H   0  0  0  0  0  0
  -31.0057  -18.4141   20.1973 H   0  0  0  0  0  0
  -26.8536  -23.9752   20.2547 H   0  0  0  0  0  0
  -27.7894  -24.1218   18.8333 H   0  0  0  0  0  0
  1 25  1  0  0  0
  1 30  2  0  0  0
  1 80  1  0  0  0
  2  3  1  0  0  0
  2 25  1  0  0  0
  2 81  1  0  0  0
  2 82  1  0  0  0
  3  4  1  0  0  0
  3 83  1  0  0  0
  3 84  1  0  0  0
  4  5  1  0  0  0
  4 85  1  0  0  0
  4 86  1  0  0  0
  5  6  1  0  0  0
  5 26  1  0  0  0
  5 87  1  0  0  0
  6 25  1  0  0  0
  6 88  1  0  0  0
  6 89  1  0  0  0
  7  8  2  0  0  0
  7 26  1  0  0  0
  7 29  1  0  0  0
  8  9  1  0  0  0
  8 22  1  0  0  0
  9 10  1  0  0  0
  9 27  2  0  0  0
 10 11  2  0  0  0
 10 15  1  0  0  0
 11 12  1  0  0  0
 11 90  1  0  0  0
 12 13  2  0  0  0
 12 91  1  0  0  0
 13 14  1  0  0  0
 13 31  1  0  0  0
 14 15  2  0  0  0
 14 92  1  0  0  0
 15 93  1  0  0  0
 16 17  2  0  0  0
 16 21  1  0  0  0
 16 31  1  0  0  0
 17 18  1  0  0  0
 17 94  1  0  0  0
 18 19  2  0  0  0
 18 95  1  0  0  0
 19 20  1  0  0  0
 19 24  1  0  0  0
 20 21  2  0  0  0
 20 96  1  0  0  0
 21 23  1  0  0  0
 22 28  1  0  0  0
 22 32  2  0  0  0
 26 27  1  0  0  0
 28 97  1  0  0  0
 28 98  1  0  0  0
 29 99  1  0  0  0
 29100  1  0  0  0
 33 34  1  0  0  0
 33 66  1  0  0  0
 33 70  2  0  0  0
 34 36  1  0  0  0
 34 59  1  0  0  0
 34101  1  0  0  0
 35 44  2  0  0  0
 35 45  1  0  0  0
 35 68  1  0  0  0
 36 56  1  0  0  0
 36102  1  0  0  0
 37 39  1  0  0  0
 37 47  1  0  0  0
 37 66  1  0  0  0
 37103  1  0  0  0
 38 43  2  0  0  0
 38 46  1  0  0  0
 38 47  1  0  0  0
 39 64  1  0  0  0
 39 67  2  0  0  0
 40 52  1  0  0  0
 40 53  2  0  0  0
 40 58  1  0  0  0
 41104  1  0  0  0
 41105  1  0  0  0
 41106  1  0  0  0
 41 48  1  0  0  0
 42 43  1  0  0  0
 42 66  1  0  0  0
 42107  1  0  0  0
 42108  1  0  0  0
 43 44  1  0  0  0
 44109  1  0  0  0
 45 46  2  0  0  0
 45110  1  0  0  0
 46111  1  0  0  0
 47112  1  0  0  0
 47113  1  0  0  0
 48 56  1  0  0  0
 48 65  1  0  0  0
 48114  1  0  0  0
 49 50  1  0  0  0
 49 53  1  0  0  0
 49 64  1  0  0  0
 49115  1  0  0  0
 50 51  1  0  0  0
 50116  1  0  0  0
 50117  1  0  0  0
 51 52  1  0  0  0
 51118  1  0  0  0
 51119  1  0  0  0
 52120  1  0  0  0
 52121  1  0  0  0
 53 54  1  0  0  0
 54 55  2  0  0  0
 54122  1  0  0  0
 55 57  1  0  0  0
 55123  1  0  0  0
 56 69  2  0  0  0
 57 58  2  0  0  0
 57124  1  0  0  0
 58125  1  0  0  0
 59 60  1  0  0  0
 59 61  1  0  0  0
 59 62  1  0  0  0
 60126  1  0  0  0
 60127  1  0  0  0
 60128  1  0  0  0
 61129  1  0  0  0
 61130  1  0  0  0
 61131  1  0  0  0
 62132  1  0  0  0
 62133  1  0  0  0
 62134  1  0  0  0
 63 65  1  0  0  0
 63135  1  0  0  0
 63136  1  0  0  0
 63137  1  0  0  0
 64138  1  0  0  0
 65139  1  0  0  0
 68 77  1  0  0  0
 71 72  1  0  0  0
 71 73  2  0  0  0
 71140  1  0  0  0
 72 76  1  0  0  0
 72 78  2  0  0  0
 73 77  1  0  0  0
 73 79  1  0  0  0
 74 79  1  0  0  0
 74141  1  0  0  0
 74142  1  0  0  0
 74143  1  0  0  0
 75 80  1  0  0  0
 75144  1  0  0  0
 75145  1  0  0  0
 75146  1  0  0  0
 76 80  1  0  0  0
 76147  1  0  0  0
 76148  1  0  0  0
 77149  1  0  0  0
 77150  1  0  0  0
 78 79  1  0  0  0
M  ISO  4   1 100  68 101  77 101  80 100
M  END
> <chiral flag>
0

> <version>
0

> <s_m_source_file>
/data/baiqing/PycharmProjects/Reinvent-master-3.2/result/LINK_invent/BTK/process_docking_weight1_custom_sum_contain_oxygen_bond_distance_aromatic_linkinvent_7_9_3/rearranged_h_0057.sdf

> <i_m_source_file_index>
79

> <r_mmod_Potential_Energy-OPLS-2005>
1598.02734375

> <r_mmod_Stretch_Energy-OPLS-2005>
695.737182617188

> <r_mmod_Bend_Energy-OPLS-2005>
523.185119628906

> <r_mmod_Torsional_Energy-OPLS-2005>
254.819580078125

> <r_mmod_Improper_Torsional_Energy-OPLS-2005>
7.32238721847534

> <r_mmod_Van_der_Waal_Energy-OPLS-2005>
111.958374023438

> <r_mmod_Electrostatic_Energy-OPLS-2005>
-343.328704833984

> <r_mmod_Solvation_Energy-OPLS-2005>
-227.801712036133

> <b_mmod_Minimization_Converged-OPLS-2005>
0

> <r_mmod_RMS_Derivative-OPLS-2005>
1.11564111709595

$$$$
79
                    3D
 Structure written by MMmdl.
144152  0  0  1  0            999 V2000
  -30.2052  -15.7806   20.2933 C   0  0  0  0  0  0
  -30.4300  -13.1733   19.5603 C   0  0  0  0  0  0
  -29.5685  -12.6931   18.3490 C   0  0  0  0  0  0
  -28.1505  -12.2960   18.7880 C   0  0  0  0  0  0
  -27.5942  -13.3091   19.8083 C   0  0  2  0  0  0
  -28.5962  -13.7017   20.9217 C   0  0  0  0  0  0
  -25.2339  -13.8264   20.5803 C   0  0  0  0  0  0
  -24.1721  -13.0418   20.9277 C   0  0  0  0  0  0
  -24.6423  -11.6930   20.8749 C   0  0  0  0  0  0
  -23.9122  -10.4284   21.0390 C   0  0  0  0  0  0
  -24.3655   -9.4202   21.9178 C   0  0  0  0  0  0
  -23.6313   -8.2245   22.0755 C   0  0  0  0  0  0
  -22.4293   -8.0286   21.3546 C   0  0  0  0  0  0
  -21.9941   -9.0261   20.4644 C   0  0  0  0  0  0
  -22.7285  -10.2130   20.3046 C   0  0  0  0  0  0
  -21.6859   -6.0742   22.5280 C   0  0  0  0  0  0
  -21.4019   -6.5644   23.8215 C   0  0  0  0  0  0
  -21.3663   -5.6795   24.9176 C   0  0  0  0  0  0
  -21.6044   -4.3058   24.7224 C   0  0  0  0  0  0
  -21.8817   -3.8151   23.4345 C   0  0  0  0  0  0
  -21.9194   -4.6969   22.3402 C   0  0  0  0  0  0
  -22.7735  -13.5157   21.1921 C   0  0  0  0  0  0
  -22.1660   -4.2155   21.0979 F   0  0  0  0  0  0
  -21.5628   -3.4540   25.7735 F   0  0  0  0  0  0
  -29.7689  -14.3614   20.2875 N   0  0  0  0  0  0
  -26.2782  -12.9588   20.3218 N   0  0  0  0  0  0
  -25.9370  -11.6661   20.5666 N   0  0  0  0  0  0
  -22.0397  -12.8136   22.0472 N   0  0  0  0  0  0
  -25.3950  -15.2010   20.4295 N   0  0  0  0  0  0
  -31.4445  -15.7295   20.1332 O   0  0  0  0  0  0
  -21.6647   -6.8889   21.4244 O   0  0  0  0  0  0
  -22.3411  -14.5457   20.6758 O   0  0  0  0  0  0
  -24.6934  -31.7885   23.1428 C   0  0  0  0  0  0
  -25.9465  -32.4410   23.8014 C   0  0  1  0  0  0
  -27.2367  -26.6042   20.2246 C   0  0  0  0  0  0
  -25.6001  -33.8241   24.1891 N   0  0  0  0  0  0
  -23.5250  -30.3853   21.4992 C   0  0  2  0  0  0
  -24.9859  -28.7061   20.1208 C   0  0  0  0  0  0
  -22.7814  -29.4253   22.4682 C   0  0  0  0  0  0
  -18.0347  -28.1427   22.8448 C   0  0  0  0  0  0
  -24.1497  -36.7130   23.2656 C   0  0  0  0  0  0
  -26.1102  -30.4888   21.4232 C   0  0  0  0  0  0
  -26.1768  -29.0426   20.7752 C   0  0  0  0  0  0
  -27.2819  -28.0229   20.7919 C   0  0  0  0  0  0
  -26.0115  -26.5042   19.5091 C   0  0  0  0  0  0
  -24.9485  -27.4636   19.4631 C   0  0  0  0  0  0
  -23.7855  -29.6723   20.1393 C   0  0  0  0  0  0
  -25.4151  -36.2863   24.0274 C   0  0  1  0  0  0
  -20.5988  -28.3793   23.1122 C   0  0  2  0  0  0
  -20.6808  -26.9442   22.5405 C   0  0  0  0  0  0
  -19.5786  -26.6368   21.5218 C   0  0  0  0  0  0
  -18.1968  -26.7951   22.1618 C   0  0  0  0  0  0
  -19.1616  -28.8936   23.2761 C   0  0  0  0  0  0
  -18.9519  -30.1516   23.8812 C   0  0  0  0  0  0
  -17.6508  -30.6606   24.0548 C   0  0  0  0  0  0
  -25.9137  -34.9255   23.4927 C   0  0  0  0  0  0
  -16.5396  -29.9086   23.6353 C   0  0  0  0  0  0
  -16.7325  -28.6510   23.0369 C   0  0  0  0  0  0
  -26.4607  -31.6489   25.0679 C   0  0  0  0  0  0
  -25.3643  -31.3839   26.1274 C   0  0  0  0  0  0
  -27.0554  -30.2813   24.6659 C   0  0  0  0  0  0
  -27.6037  -32.4374   25.7501 C   0  0  0  0  0  0
  -27.5562  -37.1722   24.8465 C   0  0  0  0  0  0
  -21.4452  -29.3019   22.3430 N   0  0  0  0  0  0
  -26.4269  -37.3635   23.9405 N   0  0  0  0  0  0
  -24.8008  -30.9229   22.0740 N   0  0  0  0  0  0
  -23.4209  -28.7872   23.3076 O   0  0  0  0  0  0
  -28.1765  -25.3311   20.3039 O   0  0  0  0  0  0
  -26.5795  -34.8852   22.4556 O   0  0  0  0  0  0
  -23.5930  -32.1007   23.6315 O   0  0  0  0  0  0
  -30.3365  -20.2179   20.7164 C   0  0  0  0  0  0
  -28.7893  -21.8666   20.3009 C   0  0  0  0  0  0
  -28.2107  -17.2749   19.1917 C   0  0  0  0  0  0
  -27.8905  -23.5590   20.1179 C   0  0  0  0  0  0
  -29.2510  -17.4664   20.3078 C   0  0  2  0  0  0
  -30.1054  -21.6102   20.7097 N   0  0  0  0  0  0
  -28.3515  -20.4644   20.0909 N   0  0  0  0  0  0
  -29.3801  -19.3118   20.3371 N   0  0  0  0  0  0
  -31.4145  -13.4581   19.1882 H   0  0  0  0  0  0
  -30.6189  -12.3483   20.2494 H   0  0  0  0  0  0
  -30.0535  -11.8582   17.8415 H   0  0  0  0  0  0
  -29.5057  -13.5010   17.6187 H   0  0  0  0  0  0
  -28.2029  -11.3085   19.2481 H   0  0  0  0  0  0
  -27.4886  -12.2034   17.9261 H   0  0  0  0  0  0
  -27.4309  -14.1997   19.2074 H   0  0  0  0  0  0
  -28.8765  -12.8423   21.5327 H   0  0  0  0  0  0
  -28.1303  -14.4156   21.6022 H   0  0  0  0  0  0
  -25.2795   -9.5676   22.4762 H   0  0  0  0  0  0
  -24.0015   -7.4639   22.7483 H   0  0  0  0  0  0
  -21.0870   -8.8789   19.8950 H   0  0  0  0  0  0
  -22.3747  -10.9672   19.6158 H   0  0  0  0  0  0
  -21.2013   -7.6153   23.9720 H   0  0  0  0  0  0
  -21.1486   -6.0525   25.9079 H   0  0  0  0  0  0
  -22.0592   -2.7613   23.2841 H   0  0  0  0  0  0
  -22.4032  -11.9809   22.4864 H   0  0  0  0  0  0
  -21.1006  -13.1139   22.2671 H   0  0  0  0  0  0
  -24.6257  -15.8499   20.5545 H   0  0  0  0  0  0
  -26.2459  -15.6499   20.1192 H   0  0  0  0  0  0
  -26.7559  -32.4858   23.0733 H   0  0  0  0  0  0
  -25.0031  -33.9263   24.9965 H   0  0  0  0  0  0
  -22.8562  -31.2252   21.2999 H   0  0  0  0  0  0
  -23.3780  -35.9438   23.3259 H   0  0  0  0  0  0
  -24.3563  -36.8858   22.2083 H   0  0  0  0  0  0
  -23.7238  -37.6281   23.6780 H   0  0  0  0  0  0
  -26.3236  -31.2073   20.6307 H   0  0  0  0  0  0
  -26.9570  -30.5609   22.0931 H   0  0  0  0  0  0
  -28.1740  -28.2902   21.3405 H   0  0  0  0  0  0
  -25.8265  -25.5697   18.9988 H   0  0  0  0  0  0
  -24.0531  -27.1949   18.9195 H   0  0  0  0  0  0
  -23.9675  -30.4280   19.3745 H   0  0  0  0  0  0
  -22.8888  -29.1421   19.8134 H   0  0  0  0  0  0
  -25.1367  -36.1611   25.0763 H   0  0  0  0  0  0
  -21.0064  -28.3426   24.1251 H   0  0  0  0  0  0
  -20.5664  -26.2420   23.3677 H   0  0  0  0  0  0
  -21.6668  -26.7369   22.1229 H   0  0  0  0  0  0
  -19.6942  -25.6256   21.1302 H   0  0  0  0  0  0
  -19.6733  -27.3131   20.6711 H   0  0  0  0  0  0
  -17.4239  -26.6693   21.4020 H   0  0  0  0  0  0
  -18.0353  -26.0115   22.9034 H   0  0  0  0  0  0
  -19.7994  -30.7353   24.2146 H   0  0  0  0  0  0
  -17.5059  -31.6277   24.5167 H   0  0  0  0  0  0
  -15.5394  -30.2962   23.7727 H   0  0  0  0  0  0
  -15.8726  -28.0800   22.7131 H   0  0  0  0  0  0
  -24.5854  -30.7166   25.7566 H   0  0  0  0  0  0
  -24.8806  -32.3072   26.4470 H   0  0  0  0  0  0
  -25.7790  -30.9147   27.0204 H   0  0  0  0  0  0
  -26.3291  -29.6395   24.1664 H   0  0  0  0  0  0
  -27.3948  -29.7303   25.5441 H   0  0  0  0  0  0
  -27.9284  -30.3909   24.0224 H   0  0  0  0  0  0
  -27.2566  -33.3760   26.1834 H   0  0  0  0  0  0
  -28.3968  -32.6802   25.0415 H   0  0  0  0  0  0
  -28.0573  -31.8669   26.5616 H   0  0  0  0  0  0
  -28.2540  -38.0052   24.7514 H   0  0  0  0  0  0
  -28.1096  -36.2573   24.6291 H   0  0  0  0  0  0
  -27.2275  -37.1352   25.8866 H   0  0  0  0  0  0
  -20.9783  -29.8658   21.6464 H   0  0  0  0  0  0
  -26.0087  -38.2678   24.1419 H   0  0  0  0  0  0
  -31.2980  -19.8410   21.0380 H   0  0  0  0  0  0
  -27.2512  -17.7078   19.4746 H   0  0  0  0  0  0
  -28.0399  -16.2342   18.9374 H   0  0  0  0  0  0
  -28.5377  -17.7723   18.2786 H   0  0  0  0  0  0
  -26.9999  -23.4255   20.7315 H   0  0  0  0  0  0
  -27.4974  -23.5137   19.1025 H   0  0  0  0  0  0
  -28.7145  -17.2899   21.2402 H   0  0  0  0  0  0
  1 25  1  0  0  0
  1 30  2  0  0  0
  1 75  1  0  0  0
  2  3  1  0  0  0
  2 25  1  0  0  0
  2 79  1  0  0  0
  2 80  1  0  0  0
  3  4  1  0  0  0
  3 81  1  0  0  0
  3 82  1  0  0  0
  4  5  1  0  0  0
  4 83  1  0  0  0
  4 84  1  0  0  0
  5  6  1  0  0  0
  5 26  1  0  0  0
  5 85  1  0  0  0
  6 25  1  0  0  0
  6 86  1  0  0  0
  6 87  1  0  0  0
  7  8  2  0  0  0
  7 26  1  0  0  0
  7 29  1  0  0  0
  8  9  1  0  0  0
  8 22  1  0  0  0
  9 10  1  0  0  0
  9 27  2  0  0  0
 10 11  2  0  0  0
 10 15  1  0  0  0
 11 12  1  0  0  0
 11 88  1  0  0  0
 12 13  2  0  0  0
 12 89  1  0  0  0
 13 14  1  0  0  0
 13 31  1  0  0  0
 14 15  2  0  0  0
 14 90  1  0  0  0
 15 91  1  0  0  0
 16 17  2  0  0  0
 16 21  1  0  0  0
 16 31  1  0  0  0
 17 18  1  0  0  0
 17 92  1  0  0  0
 18 19  2  0  0  0
 18 93  1  0  0  0
 19 20  1  0  0  0
 19 24  1  0  0  0
 20 21  2  0  0  0
 20 94  1  0  0  0
 21 23  1  0  0  0
 22 28  1  0  0  0
 22 32  2  0  0  0
 26 27  1  0  0  0
 28 95  1  0  0  0
 28 96  1  0  0  0
 29 97  1  0  0  0
 29 98  1  0  0  0
 33 34  1  0  0  0
 33 66  1  0  0  0
 33 70  2  0  0  0
 34 36  1  0  0  0
 34 59  1  0  0  0
 34 99  1  0  0  0
 35 44  2  0  0  0
 35 45  1  0  0  0
 35 68  1  0  0  0
 36 56  1  0  0  0
 36100  1  0  0  0
 37 39  1  0  0  0
 37 47  1  0  0  0
 37 66  1  0  0  0
 37101  1  0  0  0
 38 43  2  0  0  0
 38 46  1  0  0  0
 38 47  1  0  0  0
 39 64  1  0  0  0
 39 67  2  0  0  0
 40 52  1  0  0  0
 40 53  2  0  0  0
 40 58  1  0  0  0
 41102  1  0  0  0
 41103  1  0  0  0
 41104  1  0  0  0
 41 48  1  0  0  0
 42 43  1  0  0  0
 42 66  1  0  0  0
 42105  1  0  0  0
 42106  1  0  0  0
 43 44  1  0  0  0
 44107  1  0  0  0
 45 46  2  0  0  0
 45108  1  0  0  0
 46109  1  0  0  0
 47110  1  0  0  0
 47111  1  0  0  0
 48 56  1  0  0  0
 48 65  1  0  0  0
 48112  1  0  0  0
 49 50  1  0  0  0
 49 53  1  0  0  0
 49 64  1  0  0  0
 49113  1  0  0  0
 50 51  1  0  0  0
 50114  1  0  0  0
 50115  1  0  0  0
 51 52  1  0  0  0
 51116  1  0  0  0
 51117  1  0  0  0
 52118  1  0  0  0
 52119  1  0  0  0
 53 54  1  0  0  0
 54 55  2  0  0  0
 54120  1  0  0  0
 55 57  1  0  0  0
 55121  1  0  0  0
 56 69  2  0  0  0
 57 58  2  0  0  0
 57122  1  0  0  0
 58123  1  0  0  0
 59 60  1  0  0  0
 59 61  1  0  0  0
 59 62  1  0  0  0
 60124  1  0  0  0
 60125  1  0  0  0
 60126  1  0  0  0
 61127  1  0  0  0
 61128  1  0  0  0
 61129  1  0  0  0
 62130  1  0  0  0
 62131  1  0  0  0
 62132  1  0  0  0
 63 65  1  0  0  0
 63133  1  0  0  0
 63134  1  0  0  0
 63135  1  0  0  0
 64136  1  0  0  0
 65137  1  0  0  0
 68 74  1  0  0  0
 71 76  2  0  0  0
 71 78  1  0  0  0
 71138  1  0  0  0
 72 74  1  0  0  0
 72 76  1  0  0  0
 72 77  2  0  0  0
 73139  1  0  0  0
 73140  1  0  0  0
 73141  1  0  0  0
 73 75  1  0  0  0
 74142  1  0  0  0
 74143  1  0  0  0
 75 78  1  0  0  0
 75144  1  0  0  0
 77 78  1  0  0  0
M  ISO  4   1 100  68 101  74 101  75 100
M  END
> <chiral flag>
0

> <version>
0

> <s_m_source_file>
/data/baiqing/PycharmProjects/Reinvent-master-3.2/result/LINK_invent/BTK/process_docking_weight1_custom_sum_contain_oxygen_bond_distance_aromatic_linkinvent_7_9_3/rearranged_h_0057.sdf

> <i_m_source_file_index>
80

> <r_mmod_Potential_Energy-OPLS-2005>
3029.6806640625

> <r_mmod_Stretch_Energy-OPLS-2005>
1309.76330566406

> <r_mmod_Bend_Energy-OPLS-2005>
761.940307617188

> <r_mmod_Torsional_Energy-OPLS-2005>
213.367874145508

> <r_mmod_Improper_Torsional_Energy-OPLS-2005>
3.59794783592224

> <r_mmod_Van_der_Waal_Energy-OPLS-2005>
104.872840881348

> <r_mmod_Electrostatic_Energy-OPLS-2005>
-264.732543945312

> <r_mmod_Solvation_Energy-OPLS-2005>
-232.812225341797

> <b_mmod_Minimization_Converged-OPLS-2005>
0

> <r_mmod_RMS_Derivative-OPLS-2005>
0.321163982152939

$$$$
80
                    3D
 Structure written by MMmdl.
151159  0  0  1  0            999 V2000
  -30.6252  -14.7567   20.5200 C   0  0  0  0  0  0
  -30.4394  -12.4787   19.4827 C   0  0  0  0  0  0
  -29.5136  -12.5248   18.2453 C   0  0  0  0  0  0
  -28.0374  -12.3470   18.6514 C   0  0  0  0  0  0
  -27.6463  -13.2287   19.8664 C   0  0  2  0  0  0
  -28.6899  -13.1170   20.9962 C   0  0  0  0  0  0
  -25.2527  -13.8187   20.5734 C   0  0  0  0  0  0
  -24.1807  -13.0435   20.9220 C   0  0  0  0  0  0
  -24.6399  -11.6911   20.8765 C   0  0  0  0  0  0
  -23.9083  -10.4288   21.0427 C   0  0  0  0  0  0
  -24.3628   -9.4196   21.9200 C   0  0  0  0  0  0
  -23.6302   -8.2232   22.0756 C   0  0  0  0  0  0
  -22.4283   -8.0284   21.3548 C   0  0  0  0  0  0
  -21.9927   -9.0261   20.4649 C   0  0  0  0  0  0
  -22.7257  -10.2141   20.3075 C   0  0  0  0  0  0
  -21.6849   -6.0748   22.5284 C   0  0  0  0  0  0
  -21.4007   -6.5651   23.8220 C   0  0  0  0  0  0
  -21.3657   -5.6799   24.9179 C   0  0  0  0  0  0
  -21.6043   -4.3064   24.7223 C   0  0  0  0  0  0
  -21.8818   -3.8161   23.4345 C   0  0  0  0  0  0
  -21.9189   -4.6977   22.3404 C   0  0  0  0  0  0
  -22.7827  -13.5217   21.1872 C   0  0  0  0  0  0
  -22.1660   -4.2167   21.0979 F   0  0  0  0  0  0
  -21.5633   -3.4544   25.7732 F   0  0  0  0  0  0
  -29.9859  -13.5290   20.4324 N   0  0  0  0  0  0
  -26.2957  -12.9388   20.3360 N   0  0  0  0  0  0
  -25.9332  -11.6531   20.5787 N   0  0  0  0  0  0
  -22.0481  -12.8205   22.0432 N   0  0  0  0  0  0
  -25.4239  -15.1908   20.4165 N   0  0  0  0  0  0
  -31.7790  -14.8442   20.0857 O   0  0  0  0  0  0
  -21.6638   -6.8888   21.4245 O   0  0  0  0  0  0
  -22.3509  -14.5526   20.6726 O   0  0  0  0  0  0
  -24.6334  -31.8548   23.1983 C   0  0  0  0  0  0
  -25.9143  -32.4752   23.8335 C   0  0  1  0  0  0
  -27.2182  -27.2423   20.1219 C   0  0  0  0  0  0
  -25.5941  -33.8558   24.2256 N   0  0  0  0  0  0
  -23.4315  -30.4773   21.5429 C   0  0  2  0  0  0
  -24.8790  -28.9259   20.1104 C   0  0  0  0  0  0
  -22.7512  -29.4593   22.4907 C   0  0  0  0  0  0
  -18.0300  -28.1397   22.8477 C   0  0  0  0  0  0
  -24.1493  -36.7276   23.2641 C   0  0  0  0  0  0
  -25.9820  -30.7588   21.3849 C   0  0  0  0  0  0
  -26.0531  -29.3818   20.7223 C   0  0  0  0  0  0
  -27.2257  -28.5532   20.7167 C   0  0  0  0  0  0
  -26.0177  -26.8680   19.4737 C   0  0  0  0  0  0
  -24.8679  -27.6775   19.4749 C   0  0  0  0  0  0
  -23.6517  -29.8149   20.1589 C   0  0  0  0  0  0
  -25.4127  -36.3068   24.0319 C   0  0  1  0  0  0
  -20.5905  -28.3707   23.1267 C   0  0  2  0  0  0
  -20.6791  -26.9420   22.5409 C   0  0  0  0  0  0
  -19.5766  -26.6390   21.5216 C   0  0  0  0  0  0
  -18.1945  -26.7938   22.1622 C   0  0  0  0  0  0
  -19.1551  -28.8873   23.2867 C   0  0  0  0  0  0
  -18.9466  -30.1473   23.8880 C   0  0  0  0  0  0
  -17.6464  -30.6594   24.0564 C   0  0  0  0  0  0
  -25.9068  -34.9438   23.5089 C   0  0  0  0  0  0
  -16.5358  -29.9084   23.6342 C   0  0  0  0  0  0
  -16.7284  -28.6510   23.0349 C   0  0  0  0  0  0
  -26.4507  -31.6584   25.0730 C   0  0  0  0  0  0
  -25.3705  -31.3728   26.1428 C   0  0  0  0  0  0
  -27.0370  -30.3000   24.6246 C   0  0  0  0  0  0
  -27.6071  -32.4328   25.7483 C   0  0  0  0  0  0
  -27.5577  -37.1792   24.8466 C   0  0  0  0  0  0
  -21.4217  -29.3045   22.3646 N   0  0  0  0  0  0
  -26.4302  -37.3770   23.9401 N   0  0  0  0  0  0
  -24.7011  -31.0483   22.0980 N   0  0  0  0  0  0
  -23.4207  -28.8132   23.3017 O   0  0  0  0  0  0
  -28.2975  -26.3182   20.1857 O   0  0  0  0  0  0
  -26.5642  -34.8908   22.4660 O   0  0  0  0  0  0
  -23.5471  -32.1380   23.7261 O   0  0  0  0  0  0
  -29.7419  -18.7134   20.4706 C   0  0  0  0  0  0
  -29.2353  -16.0879   22.0869 C   0  0  0  0  0  0
  -30.1054  -17.2395   20.0045 C   0  0  0  0  0  0
  -28.9916  -23.6008   20.3387 C   0  0  0  0  0  0
  -28.4471  -22.0959   20.0321 C   0  0  0  0  0  0
  -28.0103  -24.8473   19.9677 C   0  0  0  0  0  0
  -30.2824  -19.3564   21.5589 N   0  0  0  0  0  0
  -29.0492  -19.5980   19.7170 N   0  0  0  0  0  0
  -29.9143  -20.6205   21.5232 N   0  0  0  0  0  0
  -29.2009  -20.8080   20.3856 N   0  0  0  0  0  0
  -29.9042  -15.9292   20.7906 N   0  0  0  0  0  0
  -31.4769  -12.6136   19.1717 H   0  0  0  0  0  0
  -30.4095  -11.4959   19.9556 H   0  0  0  0  0  0
  -29.8014  -11.7540   17.5292 H   0  0  0  0  0  0
  -29.6374  -13.4803   17.7332 H   0  0  0  0  0  0
  -27.8851  -11.2949   18.8961 H   0  0  0  0  0  0
  -27.3836  -12.5598   17.8046 H   0  0  0  0  0  0
  -27.6537  -14.2606   19.5157 H   0  0  0  0  0  0
  -28.7430  -12.0909   21.3631 H   0  0  0  0  0  0
  -28.3899  -13.7032   21.8594 H   0  0  0  0  0  0
  -25.2769   -9.5670   22.4787 H   0  0  0  0  0  0
  -24.0015   -7.4616   22.7467 H   0  0  0  0  0  0
  -21.0869   -8.8789   19.8944 H   0  0  0  0  0  0
  -22.3723  -10.9697   19.6202 H   0  0  0  0  0  0
  -21.1997   -7.6157   23.9729 H   0  0  0  0  0  0
  -21.1484   -6.0528   25.9081 H   0  0  0  0  0  0
  -22.0604   -2.7626   23.2839 H   0  0  0  0  0  0
  -22.4084  -11.9846   22.4795 H   0  0  0  0  0  0
  -21.1112  -13.1248   22.2670 H   0  0  0  0  0  0
  -24.6632  -15.8503   20.5373 H   0  0  0  0  0  0
  -26.2799  -15.6290   20.1017 H   0  0  0  0  0  0
  -26.7194  -32.5387   23.1056 H   0  0  0  0  0  0
  -25.0077  -33.9710   25.0390 H   0  0  0  0  0  0
  -22.7294  -31.3011   21.3964 H   0  0  0  0  0  0
  -23.3764  -35.9598   23.3316 H   0  0  0  0  0  0
  -24.3583  -36.8899   22.2056 H   0  0  0  0  0  0
  -23.7234  -37.6471   23.6665 H   0  0  0  0  0  0
  -26.1305  -31.5200   20.6184 H   0  0  0  0  0  0
  -26.8559  -30.8030   22.0233 H   0  0  0  0  0  0
  -28.1229  -28.8958   21.2123 H   0  0  0  0  0  0
  -25.9263  -25.9188   18.9681 H   0  0  0  0  0  0
  -23.9708  -27.3248   18.9854 H   0  0  0  0  0  0
  -23.7787  -30.5937   19.4060 H   0  0  0  0  0  0
  -22.7691  -29.2511   19.8515 H   0  0  0  0  0  0
  -25.1307  -36.1923   25.0811 H   0  0  0  0  0  0
  -20.9993  -28.3281   24.1390 H   0  0  0  0  0  0
  -20.5714  -26.2302   23.3610 H   0  0  0  0  0  0
  -21.6652  -26.7460   22.1180 H   0  0  0  0  0  0
  -19.6928  -25.6298   21.1254 H   0  0  0  0  0  0
  -19.6709  -27.3193   20.6742 H   0  0  0  0  0  0
  -17.4210  -26.6688   21.4028 H   0  0  0  0  0  0
  -18.0340  -26.0094   22.9029 H   0  0  0  0  0  0
  -19.7946  -30.7307   24.2228 H   0  0  0  0  0  0
  -17.5018  -31.6269   24.5170 H   0  0  0  0  0  0
  -15.5357  -30.2978   23.7687 H   0  0  0  0  0  0
  -15.8686  -28.0833   22.7061 H   0  0  0  0  0  0
  -24.5898  -30.7075   25.7713 H   0  0  0  0  0  0
  -24.8871  -32.2895   26.4816 H   0  0  0  0  0  0
  -25.7992  -30.8902   27.0220 H   0  0  0  0  0  0
  -26.2964  -29.6729   24.1274 H   0  0  0  0  0  0
  -27.4047  -29.7282   25.4776 H   0  0  0  0  0  0
  -27.8842  -30.4277   23.9510 H   0  0  0  0  0  0
  -27.2705  -33.3652   26.2026 H   0  0  0  0  0  0
  -28.3881  -32.6860   25.0296 H   0  0  0  0  0  0
  -28.0741  -31.8474   26.5414 H   0  0  0  0  0  0
  -28.2595  -38.0086   24.7518 H   0  0  0  0  0  0
  -28.1071  -36.2621   24.6295 H   0  0  0  0  0  0
  -27.2291  -37.1440   25.8867 H   0  0  0  0  0  0
  -20.9399  -29.8751   21.6835 H   0  0  0  0  0  0
  -26.0181  -38.2840   24.1410 H   0  0  0  0  0  0
  -28.1530  -16.0259   21.9708 H   0  0  0  0  0  0
  -29.4661  -17.0402   22.5591 H   0  0  0  0  0  0
  -29.5517  -15.3285   22.8039 H   0  0  0  0  0  0
  -31.1584  -17.2833   19.7265 H   0  0  0  0  0  0
  -29.5878  -17.0791   19.0586 H   0  0  0  0  0  0
  -29.9349  -23.7333   19.8078 H   0  0  0  0  0  0
  -29.2405  -23.6624   21.3978 H   0  0  0  0  0  0
  -28.2319  -22.0409   18.9651 H   0  0  0  0  0  0
  -27.4739  -22.0035   20.5137 H   0  0  0  0  0  0
  -27.0787  -24.6316   20.4913 H   0  0  0  0  0  0
  -27.7854  -24.7371   18.9066 H   0  0  0  0  0  0
  1 25  1  0  0  0
  1 30  2  0  0  0
  1 81  1  0  0  0
  2  3  1  0  0  0
  2 25  1  0  0  0
  2 82  1  0  0  0
  2 83  1  0  0  0
  3  4  1  0  0  0
  3 84  1  0  0  0
  3 85  1  0  0  0
  4  5  1  0  0  0
  4 86  1  0  0  0
  4 87  1  0  0  0
  5  6  1  0  0  0
  5 26  1  0  0  0
  5 88  1  0  0  0
  6 25  1  0  0  0
  6 89  1  0  0  0
  6 90  1  0  0  0
  7  8  2  0  0  0
  7 26  1  0  0  0
  7 29  1  0  0  0
  8  9  1  0  0  0
  8 22  1  0  0  0
  9 10  1  0  0  0
  9 27  2  0  0  0
 10 11  2  0  0  0
 10 15  1  0  0  0
 11 12  1  0  0  0
 11 91  1  0  0  0
 12 13  2  0  0  0
 12 92  1  0  0  0
 13 14  1  0  0  0
 13 31  1  0  0  0
 14 15  2  0  0  0
 14 93  1  0  0  0
 15 94  1  0  0  0
 16 17  2  0  0  0
 16 21  1  0  0  0
 16 31  1  0  0  0
 17 18  1  0  0  0
 17 95  1  0  0  0
 18 19  2  0  0  0
 18 96  1  0  0  0
 19 20  1  0  0  0
 19 24  1  0  0  0
 20 21  2  0  0  0
 20 97  1  0  0  0
 21 23  1  0  0  0
 22 28  1  0  0  0
 22 32  2  0  0  0
 26 27  1  0  0  0
 28 98  1  0  0  0
 28 99  1  0  0  0
 29100  1  0  0  0
 29101  1  0  0  0
 33 34  1  0  0  0
 33 66  1  0  0  0
 33 70  2  0  0  0
 34 36  1  0  0  0
 34 59  1  0  0  0
 34102  1  0  0  0
 35 44  2  0  0  0
 35 45  1  0  0  0
 35 68  1  0  0  0
 36 56  1  0  0  0
 36103  1  0  0  0
 37 39  1  0  0  0
 37 47  1  0  0  0
 37 66  1  0  0  0
 37104  1  0  0  0
 38 43  2  0  0  0
 38 46  1  0  0  0
 38 47  1  0  0  0
 39 64  1  0  0  0
 39 67  2  0  0  0
 40 52  1  0  0  0
 40 53  2  0  0  0
 40 58  1  0  0  0
 41105  1  0  0  0
 41106  1  0  0  0
 41107  1  0  0  0
 41 48  1  0  0  0
 42 43  1  0  0  0
 42 66  1  0  0  0
 42108  1  0  0  0
 42109  1  0  0  0
 43 44  1  0  0  0
 44110  1  0  0  0
 45 46  2  0  0  0
 45111  1  0  0  0
 46112  1  0  0  0
 47113  1  0  0  0
 47114  1  0  0  0
 48 56  1  0  0  0
 48 65  1  0  0  0
 48115  1  0  0  0
 49 50  1  0  0  0
 49 53  1  0  0  0
 49 64  1  0  0  0
 49116  1  0  0  0
 50 51  1  0  0  0
 50117  1  0  0  0
 50118  1  0  0  0
 51 52  1  0  0  0
 51119  1  0  0  0
 51120  1  0  0  0
 52121  1  0  0  0
 52122  1  0  0  0
 53 54  1  0  0  0
 54 55  2  0  0  0
 54123  1  0  0  0
 55 57  1  0  0  0
 55124  1  0  0  0
 56 69  2  0  0  0
 57 58  2  0  0  0
 57125  1  0  0  0
 58126  1  0  0  0
 59 60  1  0  0  0
 59 61  1  0  0  0
 59 62  1  0  0  0
 60127  1  0  0  0
 60128  1  0  0  0
 60129  1  0  0  0
 61130  1  0  0  0
 61131  1  0  0  0
 61132  1  0  0  0
 62133  1  0  0  0
 62134  1  0  0  0
 62135  1  0  0  0
 63 65  1  0  0  0
 63136  1  0  0  0
 63137  1  0  0  0
 63138  1  0  0  0
 64139  1  0  0  0
 65140  1  0  0  0
 68 76  1  0  0  0
 71 73  1  0  0  0
 71 77  1  0  0  0
 71 78  2  0  0  0
 72 81  1  0  0  0
 72141  1  0  0  0
 72142  1  0  0  0
 72143  1  0  0  0
 73 81  1  0  0  0
 73144  1  0  0  0
 73145  1  0  0  0
 74 75  1  0  0  0
 74 76  1  0  0  0
 74146  1  0  0  0
 74147  1  0  0  0
 75 80  1  0  0  0
 75148  1  0  0  0
 75149  1  0  0  0
 76150  1  0  0  0
 76151  1  0  0  0
 77 79  2  0  0  0
 78 80  1  0  0  0
 79 80  1  0  0  0
M  ISO  4   1 100  68 101  76 101  81 100
M  END
> <chiral flag>
0

> <version>
0

> <s_m_source_file>
/data/baiqing/PycharmProjects/Reinvent-master-3.2/result/LINK_invent/BTK/process_docking_weight1_custom_sum_contain_oxygen_bond_distance_aromatic_linkinvent_7_9_3/rearranged_h_0057.sdf

> <i_m_source_file_index>
81

> <r_mmod_Potential_Energy-OPLS-2005>
211.182250976562

> <r_mmod_Stretch_Energy-OPLS-2005>
137.550857543945

> <r_mmod_Bend_Energy-OPLS-2005>
194.585006713867

> <r_mmod_Torsional_Energy-OPLS-2005>
261.411315917969

> <r_mmod_Improper_Torsional_Energy-OPLS-2005>
10.8568420410156

> <r_mmod_Van_der_Waal_Energy-OPLS-2005>
126.829658508301

> <r_mmod_Electrostatic_Energy-OPLS-2005>
-387.867309570312

> <r_mmod_Solvation_Energy-OPLS-2005>
-222.102249145508

> <b_mmod_Minimization_Converged-OPLS-2005>
0

> <r_mmod_RMS_Derivative-OPLS-2005>
1.30600643157959

$$$$
81
                    3D
 Structure written by MMmdl.
152160  0  0  1  0            999 V2000
  -30.5139  -15.0165   20.4717 C   0  0  0  0  0  0
  -30.4518  -12.6527   19.4894 C   0  0  0  0  0  0
  -29.5220  -12.5604   18.2537 C   0  0  0  0  0  0
  -28.0551  -12.3286   18.6692 C   0  0  0  0  0  0
  -27.6331  -13.2398   19.8496 C   0  0  2  0  0  0
  -28.6854  -13.2006   20.9768 C   0  0  0  0  0  0
  -25.2418  -13.8171   20.5631 C   0  0  0  0  0  0
  -24.1757  -13.0401   20.9208 C   0  0  0  0  0  0
  -24.6390  -11.6894   20.8764 C   0  0  0  0  0  0
  -23.9074  -10.4272   21.0418 C   0  0  0  0  0  0
  -24.3627   -9.4189   21.9194 C   0  0  0  0  0  0
  -23.6297   -8.2227   22.0756 C   0  0  0  0  0  0
  -22.4277   -8.0273   21.3546 C   0  0  0  0  0  0
  -21.9917   -9.0247   20.4646 C   0  0  0  0  0  0
  -22.7249  -10.2124   20.3061 C   0  0  0  0  0  0
  -21.6849   -6.0732   22.5279 C   0  0  0  0  0  0
  -21.4011   -6.5636   23.8213 C   0  0  0  0  0  0
  -21.3658   -5.6788   24.9175 C   0  0  0  0  0  0
  -21.6049   -4.3050   24.7223 C   0  0  0  0  0  0
  -21.8819   -3.8142   23.4342 C   0  0  0  0  0  0
  -21.9190   -4.6959   22.3399 C   0  0  0  0  0  0
  -22.7779  -13.5178   21.1868 C   0  0  0  0  0  0
  -22.1658   -4.2147   21.0976 F   0  0  0  0  0  0
  -21.5635   -3.4534   25.7737 F   0  0  0  0  0  0
  -29.9341  -13.7307   20.3948 N   0  0  0  0  0  0
  -26.2887  -12.9407   20.3282 N   0  0  0  0  0  0
  -25.9331  -11.6544   20.5788 N   0  0  0  0  0  0
  -22.0443  -12.8179   22.0444 N   0  0  0  0  0  0
  -25.3944  -15.1891   20.3900 N   0  0  0  0  0  0
  -31.7000  -15.0728   20.1179 O   0  0  0  0  0  0
  -21.6636   -6.8873   21.4240 O   0  0  0  0  0  0
  -22.3455  -14.5480   20.6714 O   0  0  0  0  0  0
  -24.6460  -31.8408   23.1839 C   0  0  0  0  0  0
  -25.9213  -32.4679   23.8248 C   0  0  1  0  0  0
  -27.2270  -27.1104   20.1670 C   0  0  0  0  0  0
  -25.5948  -33.8485   24.2167 N   0  0  0  0  0  0
  -23.4514  -30.4561   21.5303 C   0  0  2  0  0  0
  -24.9031  -28.8687   20.1186 C   0  0  0  0  0  0
  -22.7578  -29.4526   22.4857 C   0  0  0  0  0  0
  -18.0307  -28.1397   22.8477 C   0  0  0  0  0  0
  -24.1492  -36.7249   23.2643 C   0  0  0  0  0  0
  -26.0081  -30.7075   21.3841 C   0  0  0  0  0  0
  -26.0818  -29.3128   20.7326 C   0  0  0  0  0  0
  -27.2465  -28.4532   20.7303 C   0  0  0  0  0  0
  -26.0195  -26.7628   19.5273 C   0  0  0  0  0  0
  -24.8857  -27.6075   19.5000 C   0  0  0  0  0  0
  -23.6811  -29.7758   20.1539 C   0  0  0  0  0  0
  -25.4126  -36.3021   24.0312 C   0  0  1  0  0  0
  -20.5919  -28.3723   23.1233 C   0  0  2  0  0  0
  -20.6788  -26.9424   22.5404 C   0  0  0  0  0  0
  -19.5762  -26.6380   21.5213 C   0  0  0  0  0  0
  -18.1944  -26.7934   22.1626 C   0  0  0  0  0  0
  -19.1564  -28.8879   23.2845 C   0  0  0  0  0  0
  -18.9479  -30.1474   23.8871 C   0  0  0  0  0  0
  -17.6475  -30.6592   24.0558 C   0  0  0  0  0  0
  -25.9077  -34.9398   23.5055 C   0  0  0  0  0  0
  -16.5366  -29.9084   23.6336 C   0  0  0  0  0  0
  -16.7291  -28.6502   23.0356 C   0  0  0  0  0  0
  -26.4530  -31.6555   25.0701 C   0  0  0  0  0  0
  -25.3709  -31.3751   26.1393 C   0  0  0  0  0  0
  -27.0399  -30.2950   24.6292 C   0  0  0  0  0  0
  -27.6054  -32.4330   25.7488 C   0  0  0  0  0  0
  -27.5573  -37.1785   24.8471 C   0  0  0  0  0  0
  -21.4267  -29.3045   22.3605 N   0  0  0  0  0  0
  -26.4290  -37.3736   23.9402 N   0  0  0  0  0  0
  -24.7219  -31.0236   22.0883 N   0  0  0  0  0  0
  -23.4204  -28.8084   23.3029 O   0  0  0  0  0  0
  -28.3020  -26.1430   20.1518 O   0  0  0  0  0  0
  -26.5667  -34.8904   22.4637 O   0  0  0  0  0  0
  -23.5570  -32.1292   23.7041 O   0  0  0  0  0  0
  -27.4574  -19.2198   18.5617 C   0  0  0  0  0  0
  -29.0728  -18.8447   19.8677 C   0  0  0  0  0  0
  -28.6751  -16.2193   21.6850 C   0  0  0  0  0  0
  -30.1431  -17.7863   20.5082 C   0  0  0  0  0  0
  -28.6806  -23.1991   19.8593 C   0  0  0  0  0  0
  -29.0571  -21.6756   20.5699 C   0  0  0  0  0  0
  -28.1698  -24.6452   20.6074 C   0  0  0  0  0  0
  -28.2506  -18.2206   19.0201 N   0  0  0  0  0  0
  -27.7103  -20.4277   19.0389 N   0  0  0  0  0  0
  -28.7613  -20.2723   19.8870 N   0  0  0  0  0  0
  -29.7704  -16.2393   20.7102 N   0  0  0  0  0  0
  -31.4727  -12.8491   19.1576 H   0  0  0  0  0  0
  -30.5027  -11.6934   20.0069 H   0  0  0  0  0  0
  -29.8557  -11.7637   17.5870 H   0  0  0  0  0  0
  -29.5917  -13.4864   17.6804 H   0  0  0  0  0  0
  -27.9534  -11.2824   18.9601 H   0  0  0  0  0  0
  -27.3898  -12.4727   17.8171 H   0  0  0  0  0  0
  -27.6087  -14.2541   19.4507 H   0  0  0  0  0  0
  -28.8174  -12.1761   21.3281 H   0  0  0  0  0  0
  -28.3589  -13.7311   21.8646 H   0  0  0  0  0  0
  -25.2776   -9.5666   22.4765 H   0  0  0  0  0  0
  -24.0008   -7.4617   22.7474 H   0  0  0  0  0  0
  -21.0848   -8.8765   19.8952 H   0  0  0  0  0  0
  -22.3710  -10.9664   19.6168 H   0  0  0  0  0  0
  -21.2001   -7.6146   23.9716 H   0  0  0  0  0  0
  -21.1484   -6.0517   25.9079 H   0  0  0  0  0  0
  -22.0602   -2.7604   23.2841 H   0  0  0  0  0  0
  -22.4074  -11.9856   22.4849 H   0  0  0  0  0  0
  -21.1064  -13.1201   22.2657 H   0  0  0  0  0  0
  -24.6174  -15.8312   20.4990 H   0  0  0  0  0  0
  -26.2338  -15.6377   20.0453 H   0  0  0  0  0  0
  -26.7278  -32.5282   23.0975 H   0  0  0  0  0  0
  -25.0073  -33.9590   25.0298 H   0  0  0  0  0  0
  -22.7558  -31.2823   21.3692 H   0  0  0  0  0  0
  -23.3754  -35.9584   23.3310 H   0  0  0  0  0  0
  -24.3572  -36.8877   22.2058 H   0  0  0  0  0  0
  -23.7254  -37.6449   23.6680 H   0  0  0  0  0  0
  -26.1629  -31.4572   20.6073 H   0  0  0  0  0  0
  -26.8783  -30.7639   22.0263 H   0  0  0  0  0  0
  -28.1522  -28.7973   21.2099 H   0  0  0  0  0  0
  -25.9447  -25.7957   19.0502 H   0  0  0  0  0  0
  -23.9862  -27.2612   19.0097 H   0  0  0  0  0  0
  -23.8218  -30.5451   19.3940 H   0  0  0  0  0  0
  -22.7958  -29.2179   19.8435 H   0  0  0  0  0  0
  -25.1320  -36.1850   25.0806 H   0  0  0  0  0  0
  -21.0009  -28.3313   24.1354 H   0  0  0  0  0  0
  -20.5681  -26.2338   23.3625 H   0  0  0  0  0  0
  -21.6654  -26.7427   22.1201 H   0  0  0  0  0  0
  -19.6923  -25.6284   21.1259 H   0  0  0  0  0  0
  -19.6697  -27.3177   20.6732 H   0  0  0  0  0  0
  -17.4211  -26.6672   21.4032 H   0  0  0  0  0  0
  -18.0347  -26.0080   22.9032 H   0  0  0  0  0  0
  -19.7953  -30.7298   24.2228 H   0  0  0  0  0  0
  -17.5026  -31.6270   24.5165 H   0  0  0  0  0  0
  -15.5364  -30.2978   23.7673 H   0  0  0  0  0  0
  -15.8690  -28.0812   22.7086 H   0  0  0  0  0  0
  -24.5882  -30.7112   25.7706 H   0  0  0  0  0  0
  -24.8910  -32.2938   26.4777 H   0  0  0  0  0  0
  -25.7984  -30.8941   27.0198 H   0  0  0  0  0  0
  -26.3019  -29.6665   24.1296 H   0  0  0  0  0  0
  -27.4005  -29.7261   25.4872 H   0  0  0  0  0  0
  -27.8929  -30.4185   23.9616 H   0  0  0  0  0  0
  -27.2640  -33.3647   26.2011 H   0  0  0  0  0  0
  -28.3892  -32.6864   25.0336 H   0  0  0  0  0  0
  -28.0694  -31.8493   26.5449 H   0  0  0  0  0  0
  -28.2599  -38.0073   24.7490 H   0  0  0  0  0  0
  -28.1059  -36.2599   24.6336 H   0  0  0  0  0  0
  -27.2283  -37.1478   25.8873 H   0  0  0  0  0  0
  -20.9488  -29.8747   21.6767 H   0  0  0  0  0  0
  -26.0156  -38.2808   24.1388 H   0  0  0  0  0  0
  -26.6599  -19.0499   17.8519 H   0  0  0  0  0  0
  -28.9622  -15.6782   22.5875 H   0  0  0  0  0  0
  -27.7855  -15.7723   21.2557 H   0  0  0  0  0  0
  -28.3747  -17.2128   22.0194 H   0  0  0  0  0  0
  -30.4703  -18.1884   21.4675 H   0  0  0  0  0  0
  -31.0310  -17.8188   19.8761 H   0  0  0  0  0  0
  -27.9332  -23.0166   19.0886 H   0  0  0  0  0  0
  -29.5696  -23.4636   19.2871 H   0  0  0  0  0  0
  -28.5325  -21.6436   21.5251 H   0  0  0  0  0  0
  -30.1125  -21.6801   20.8429 H   0  0  0  0  0  0
  -28.6831  -24.6481   21.5693 H   0  0  0  0  0  0
  -27.1248  -24.4948   20.8791 H   0  0  0  0  0  0
  1 25  1  0  0  0
  1 30  2  0  0  0
  1 81  1  0  0  0
  2  3  1  0  0  0
  2 25  1  0  0  0
  2 82  1  0  0  0
  2 83  1  0  0  0
  3  4  1  0  0  0
  3 84  1  0  0  0
  3 85  1  0  0  0
  4  5  1  0  0  0
  4 86  1  0  0  0
  4 87  1  0  0  0
  5  6  1  0  0  0
  5 26  1  0  0  0
  5 88  1  0  0  0
  6 25  1  0  0  0
  6 89  1  0  0  0
  6 90  1  0  0  0
  7  8  2  0  0  0
  7 26  1  0  0  0
  7 29  1  0  0  0
  8  9  1  0  0  0
  8 22  1  0  0  0
  9 10  1  0  0  0
  9 27  2  0  0  0
 10 11  2  0  0  0
 10 15  1  0  0  0
 11 12  1  0  0  0
 11 91  1  0  0  0
 12 13  2  0  0  0
 12 92  1  0  0  0
 13 14  1  0  0  0
 13 31  1  0  0  0
 14 15  2  0  0  0
 14 93  1  0  0  0
 15 94  1  0  0  0
 16 17  2  0  0  0
 16 21  1  0  0  0
 16 31  1  0  0  0
 17 18  1  0  0  0
 17 95  1  0  0  0
 18 19  2  0  0  0
 18 96  1  0  0  0
 19 20  1  0  0  0
 19 24  1  0  0  0
 20 21  2  0  0  0
 20 97  1  0  0  0
 21 23  1  0  0  0
 22 28  1  0  0  0
 22 32  2  0  0  0
 26 27  1  0  0  0
 28 98  1  0  0  0
 28 99  1  0  0  0
 29100  1  0  0  0
 29101  1  0  0  0
 33 34  1  0  0  0
 33 66  1  0  0  0
 33 70  2  0  0  0
 34 36  1  0  0  0
 34 59  1  0  0  0
 34102  1  0  0  0
 35 44  2  0  0  0
 35 45  1  0  0  0
 35 68  1  0  0  0
 36 56  1  0  0  0
 36103  1  0  0  0
 37 39  1  0  0  0
 37 47  1  0  0  0
 37 66  1  0  0  0
 37104  1  0  0  0
 38 43  2  0  0  0
 38 46  1  0  0  0
 38 47  1  0  0  0
 39 64  1  0  0  0
 39 67  2  0  0  0
 40 52  1  0  0  0
 40 53  2  0  0  0
 40 58  1  0  0  0
 41105  1  0  0  0
 41106  1  0  0  0
 41107  1  0  0  0
 41 48  1  0  0  0
 42 43  1  0  0  0
 42 66  1  0  0  0
 42108  1  0  0  0
 42109  1  0  0  0
 43 44  1  0  0  0
 44110  1  0  0  0
 45 46  2  0  0  0
 45111  1  0  0  0
 46112  1  0  0  0
 47113  1  0  0  0
 47114  1  0  0  0
 48 56  1  0  0  0
 48 65  1  0  0  0
 48115  1  0  0  0
 49 50  1  0  0  0
 49 53  1  0  0  0
 49 64  1  0  0  0
 49116  1  0  0  0
 50 51  1  0  0  0
 50117  1  0  0  0
 50118  1  0  0  0
 51 52  1  0  0  0
 51119  1  0  0  0
 51120  1  0  0  0
 52121  1  0  0  0
 52122  1  0  0  0
 53 54  1  0  0  0
 54 55  2  0  0  0
 54123  1  0  0  0
 55 57  1  0  0  0
 55124  1  0  0  0
 56 69  2  0  0  0
 57 58  2  0  0  0
 57125  1  0  0  0
 58126  1  0  0  0
 59 60  1  0  0  0
 59 61  1  0  0  0
 59 62  1  0  0  0
 60127  1  0  0  0
 60128  1  0  0  0
 60129  1  0  0  0
 61130  1  0  0  0
 61131  1  0  0  0
 61132  1  0  0  0
 62133  1  0  0  0
 62134  1  0  0  0
 62135  1  0  0  0
 63 65  1  0  0  0
 63136  1  0  0  0
 63137  1  0  0  0
 63138  1  0  0  0
 64139  1  0  0  0
 65140  1  0  0  0
 68 77  1  0  0  0
 71 78  1  0  0  0
 71 79  2  0  0  0
 71141  1  0  0  0
 72 74  1  0  0  0
 72 78  2  0  0  0
 72 80  1  0  0  0
 73 81  1  0  0  0
 73142  1  0  0  0
 73143  1  0  0  0
 73144  1  0  0  0
 74 81  1  0  0  0
 74145  1  0  0  0
 74146  1  0  0  0
 75 76  1  0  0  0
 75 77  1  0  0  0
 75147  1  0  0  0
 75148  1  0  0  0
 76 80  1  0  0  0
 76149  1  0  0  0
 76150  1  0  0  0
 77151  1  0  0  0
 77152  1  0  0  0
 79 80  1  0  0  0
M  ISO  4   1 100  68 101  77 101  81 100
M  END
> <chiral flag>
0

> <version>
0

> <s_m_source_file>
/data/baiqing/PycharmProjects/Reinvent-master-3.2/result/LINK_invent/BTK/process_docking_weight1_custom_sum_contain_oxygen_bond_distance_aromatic_linkinvent_7_9_3/rearranged_h_0057.sdf

> <i_m_source_file_index>
82

> <r_mmod_Potential_Energy-OPLS-2005>
728.062377929688

> <r_mmod_Stretch_Energy-OPLS-2005>
328.777069091797

> <r_mmod_Bend_Energy-OPLS-2005>
359.651947021484

> <r_mmod_Torsional_Energy-OPLS-2005>
272.641998291016

> <r_mmod_Improper_Torsional_Energy-OPLS-2005>
6.46602249145508

> <r_mmod_Van_der_Waal_Energy-OPLS-2005>
119.831825256348

> <r_mmod_Electrostatic_Energy-OPLS-2005>
-356.648651123047

> <r_mmod_Solvation_Energy-OPLS-2005>
-216.427764892578

> <b_mmod_Minimization_Converged-OPLS-2005>
0

> <r_mmod_RMS_Derivative-OPLS-2005>
0.749411582946777

$$$$
82
                    3D
 Structure written by MMmdl.
171179  0  0  1  0            999 V2000
  -30.7732  -14.5329   20.6965 C   0  0  0  0  0  0
  -30.4170  -12.3851   19.4646 C   0  0  0  0  0  0
  -29.4939  -12.5318   18.2347 C   0  0  0  0  0  0
  -28.0259  -12.3243   18.6436 C   0  0  0  0  0  0
  -27.6544  -13.1992   19.8603 C   0  0  2  0  0  0
  -28.6875  -13.0605   20.9945 C   0  0  0  0  0  0
  -25.2582  -13.8119   20.5774 C   0  0  0  0  0  0
  -24.1852  -13.0421   20.9205 C   0  0  0  0  0  0
  -24.6366  -11.6884   20.8701 C   0  0  0  0  0  0
  -23.9016  -10.4305   21.0381 C   0  0  0  0  0  0
  -24.3591   -9.4250   21.9181 C   0  0  0  0  0  0
  -23.6328   -8.2245   22.0775 C   0  0  0  0  0  0
  -22.4294   -8.0255   21.3538 C   0  0  0  0  0  0
  -21.9871   -9.0220   20.4609 C   0  0  0  0  0  0
  -22.7166  -10.2130   20.3047 C   0  0  0  0  0  0
  -21.6854   -6.0754   22.5281 C   0  0  0  0  0  0
  -21.3971   -6.5666   23.8197 C   0  0  0  0  0  0
  -21.3674   -5.6827   24.9172 C   0  0  0  0  0  0
  -21.6068   -4.3085   24.7236 C   0  0  0  0  0  0
  -21.8803   -3.8168   23.4330 C   0  0  0  0  0  0
  -21.9194   -4.6985   22.3388 C   0  0  0  0  0  0
  -22.7870  -13.5198   21.1897 C   0  0  0  0  0  0
  -22.1691   -4.2163   21.0971 F   0  0  0  0  0  0
  -21.5661   -3.4587   25.7749 F   0  0  0  0  0  0
  -30.0301  -13.3877   20.4877 N   0  0  0  0  0  0
  -26.2962  -12.9264   20.3286 N   0  0  0  0  0  0
  -25.9282  -11.6439   20.5739 N   0  0  0  0  0  0
  -22.0546  -12.8113   22.0411 N   0  0  0  0  0  0
  -25.4313  -15.1886   20.4255 N   0  0  0  0  0  0
  -31.7971  -14.7151   20.0301 O   0  0  0  0  0  0
  -21.6657   -6.8865   21.4240 O   0  0  0  0  0  0
  -22.3547  -14.5578   20.6873 O   0  0  0  0  0  0
  -24.6013  -31.8644   23.2187 C   0  0  0  0  0  0
  -25.8938  -32.4792   23.8517 C   0  0  1  0  0  0
  -27.2506  -27.4172   20.1908 C   0  0  0  0  0  0
  -25.5801  -33.8618   24.2361 N   0  0  0  0  0  0
  -23.3969  -30.4881   21.5454 C   0  0  2  0  0  0
  -24.8677  -28.9524   20.1105 C   0  0  0  0  0  0
  -22.7356  -29.4637   22.4919 C   0  0  0  0  0  0
  -18.0249  -28.1371   22.8470 C   0  0  0  0  0  0
  -24.1508  -36.7324   23.2664 C   0  0  0  0  0  0
  -25.9213  -30.8229   21.3854 C   0  0  0  0  0  0
  -26.0092  -29.4541   20.7460 C   0  0  0  0  0  0
  -27.1980  -28.6926   20.7980 C   0  0  0  0  0  0
  -26.1190  -26.9516   19.4934 C   0  0  0  0  0  0
  -24.9233  -27.7017   19.4646 C   0  0  0  0  0  0
  -23.6222  -29.8181   20.1600 C   0  0  0  0  0  0
  -25.4136  -36.3130   24.0372 C   0  0  1  0  0  0
  -20.5827  -28.3651   23.1261 C   0  0  2  0  0  0
  -20.6718  -26.9389   22.5385 C   0  0  0  0  0  0
  -19.5729  -26.6377   21.5165 C   0  0  0  0  0  0
  -18.1914  -26.7903   22.1595 C   0  0  0  0  0  0
  -19.1502  -28.8818   23.2856 C   0  0  0  0  0  0
  -18.9454  -30.1433   23.8902 C   0  0  0  0  0  0
  -17.6475  -30.6582   24.0561 C   0  0  0  0  0  0
  -25.9034  -34.9477   23.5183 C   0  0  0  0  0  0
  -16.5347  -29.9104   23.6319 C   0  0  0  0  0  0
  -16.7252  -28.6485   23.0352 C   0  0  0  0  0  0
  -26.4455  -31.6592   25.0830 C   0  0  0  0  0  0
  -25.3772  -31.3630   26.1638 C   0  0  0  0  0  0
  -27.0317  -30.3038   24.6169 C   0  0  0  0  0  0
  -27.6060  -32.4378   25.7491 C   0  0  0  0  0  0
  -27.5603  -37.1827   24.8492 C   0  0  0  0  0  0
  -21.4091  -29.3022   22.3642 N   0  0  0  0  0  0
  -26.4331  -37.3821   23.9417 N   0  0  0  0  0  0
  -24.6541  -31.0810   22.1053 N   0  0  0  0  0  0
  -23.4104  -28.8213   23.3001 O   0  0  0  0  0  0
  -28.3642  -26.5982   20.2590 O   0  0  0  0  0  0
  -26.5623  -34.8890   22.4755 O   0  0  0  0  0  0
  -23.5229  -32.1382   23.7598 O   0  0  0  0  0  0
  -30.5128  -20.2723   20.4510 C   0  0  0  0  0  0
  -29.0740  -20.1497   22.0550 C   0  0  0  0  0  0
  -30.3055  -21.5545   20.9606 C   0  0  0  0  0  0
  -31.1206  -15.6055   24.0113 C   0  0  0  0  0  0
  -28.6721  -15.8273   23.4181 C   0  0  0  0  0  0
  -32.2203  -22.9855   21.6627 C   0  0  0  0  0  0
  -31.7017  -22.7498   19.2378 C   0  0  0  0  0  0
  -29.2594  -24.6922   21.6914 C   0  0  0  0  0  0
  -30.2271  -24.2122   20.5648 C   0  0  0  0  0  0
  -29.4737  -17.9215   20.9192 C   0  0  0  0  0  0
  -30.6669  -16.9857   21.3064 C   0  0  0  0  0  0
  -28.7641  -26.1804   21.5887 C   0  0  0  0  0  0
  -30.0237  -15.2337   22.9854 C   0  0  0  0  0  0
  -31.0648  -22.8630   20.6460 C   0  0  0  0  0  0
  -29.4070  -21.4393   22.0189 N   0  0  0  0  0  0
  -29.6891  -19.3741   21.1458 N   0  0  0  0  0  0
  -30.3287  -15.5281   21.5506 N   0  0  0  0  0  0
  -31.4637  -12.4466   19.1590 H   0  0  0  0  0  0
  -30.3053  -11.3841   19.8845 H   0  0  0  0  0  0
  -29.7608  -11.8111   17.4641 H   0  0  0  0  0  0
  -29.6169  -13.5187   17.7904 H   0  0  0  0  0  0
  -27.8998  -11.2680   18.8965 H   0  0  0  0  0  0
  -27.3554  -12.5232   17.8087 H   0  0  0  0  0  0
  -27.6736  -14.2324   19.5129 H   0  0  0  0  0  0
  -28.6853  -12.0514   21.4095 H   0  0  0  0  0  0
  -28.3579  -13.7042   21.7925 H   0  0  0  0  0  0
  -25.2756   -9.5804   22.4757 H   0  0  0  0  0  0
  -24.0091   -7.4637   22.7472 H   0  0  0  0  0  0
  -21.0826   -8.8650   19.8908 H   0  0  0  0  0  0
  -22.3549  -10.9683   19.6174 H   0  0  0  0  0  0
  -21.1905   -7.6166   23.9690 H   0  0  0  0  0  0
  -21.1557   -6.0569   25.9064 H   0  0  0  0  0  0
  -22.0569   -2.7641   23.2821 H   0  0  0  0  0  0
  -22.4169  -11.9700   22.4681 H   0  0  0  0  0  0
  -21.1169  -13.1106   22.2725 H   0  0  0  0  0  0
  -24.6634  -15.8447   20.5333 H   0  0  0  0  0  0
  -26.2886  -15.6349   20.1276 H   0  0  0  0  0  0
  -26.6984  -32.5561   23.1259 H   0  0  0  0  0  0
  -24.9872  -33.9854   25.0438 H   0  0  0  0  0  0
  -22.6819  -31.3008   21.4033 H   0  0  0  0  0  0
  -23.3790  -35.9668   23.3380 H   0  0  0  0  0  0
  -24.3514  -36.8883   22.2067 H   0  0  0  0  0  0
  -23.7259  -37.6527   23.6640 H   0  0  0  0  0  0
  -26.0436  -31.5837   20.6156 H   0  0  0  0  0  0
  -26.7992  -30.8799   22.0132 H   0  0  0  0  0  0
  -28.0577  -29.0765   21.3265 H   0  0  0  0  0  0
  -26.1640  -25.9965   18.9949 H   0  0  0  0  0  0
  -24.0641  -27.3072   18.9372 H   0  0  0  0  0  0
  -23.7388  -30.5947   19.4045 H   0  0  0  0  0  0
  -22.7497  -29.2449   19.8463 H   0  0  0  0  0  0
  -25.1299  -36.2053   25.0872 H   0  0  0  0  0  0
  -20.9920  -28.3266   24.1386 H   0  0  0  0  0  0
  -20.5540  -26.2331   23.3594 H   0  0  0  0  0  0
  -21.6604  -26.7412   22.1254 H   0  0  0  0  0  0
  -19.6912  -25.6284   21.1221 H   0  0  0  0  0  0
  -19.6654  -27.3157   20.6664 H   0  0  0  0  0  0
  -17.4156  -26.6571   21.4039 H   0  0  0  0  0  0
  -18.0405  -26.0052   22.9012 H   0  0  0  0  0  0
  -19.7952  -30.7205   24.2282 H   0  0  0  0  0  0
  -17.5057  -31.6286   24.5163 H   0  0  0  0  0  0
  -15.5354  -30.3034   23.7657 H   0  0  0  0  0  0
  -15.8622  -28.0831   22.7103 H   0  0  0  0  0  0
  -24.5742  -30.7198   25.7940 H   0  0  0  0  0  0
  -24.9300  -32.2823   26.5433 H   0  0  0  0  0  0
  -25.8240  -30.8512   27.0193 H   0  0  0  0  0  0
  -26.2837  -29.6794   24.1244 H   0  0  0  0  0  0
  -27.4002  -29.7346   25.4685 H   0  0  0  0  0  0
  -27.8743  -30.4296   23.9324 H   0  0  0  0  0  0
  -27.2610  -33.3692   26.2016 H   0  0  0  0  0  0
  -28.3839  -32.6966   25.0266 H   0  0  0  0  0  0
  -28.0818  -31.8642   26.5452 H   0  0  0  0  0  0
  -28.2687  -38.0064   24.7490 H   0  0  0  0  0  0
  -28.1024  -36.2606   24.6389 H   0  0  0  0  0  0
  -27.2315  -37.1561   25.8895 H   0  0  0  0  0  0
  -20.9242  -29.8742   21.6849 H   0  0  0  0  0  0
  -26.0224  -38.2918   24.1353 H   0  0  0  0  0  0
  -31.1833  -19.9366   19.6712 H   0  0  0  0  0  0
  -28.3590  -19.7725   22.7764 H   0  0  0  0  0  0
  -31.1918  -16.6771   24.1964 H   0  0  0  0  0  0
  -30.8862  -15.1677   24.9859 H   0  0  0  0  0  0
  -32.1054  -15.2345   23.7282 H   0  0  0  0  0  0
  -28.3690  -15.4197   24.3784 H   0  0  0  0  0  0
  -27.8765  -15.6065   22.7063 H   0  0  0  0  0  0
  -28.7141  -16.9094   23.5421 H   0  0  0  0  0  0
  -32.8225  -22.0730   21.6914 H   0  0  0  0  0  0
  -31.8391  -23.1570   22.6678 H   0  0  0  0  0  0
  -32.9001  -23.8038   21.4224 H   0  0  0  0  0  0
  -32.4652  -21.9750   19.1671 H   0  0  0  0  0  0
  -32.1757  -23.6879   18.9311 H   0  0  0  0  0  0
  -30.9373  -22.5253   18.4908 H   0  0  0  0  0  0
  -28.3863  -24.0371   21.7123 H   0  0  0  0  0  0
  -29.7409  -24.5685   22.6621 H   0  0  0  0  0  0
  -30.9429  -25.0228   20.4076 H   0  0  0  0  0  0
  -29.6339  -24.1832   19.6497 H   0  0  0  0  0  0
  -28.5828  -17.6440   21.4774 H   0  0  0  0  0  0
  -29.1807  -17.7702   19.8823 H   0  0  0  0  0  0
  -31.4297  -17.0904   20.5305 H   0  0  0  0  0  0
  -31.1454  -17.4170   22.1817 H   0  0  0  0  0  0
  -29.5444  -26.8492   21.9579 H   0  0  0  0  0  0
  -27.9392  -26.3009   22.3012 H   0  0  0  0  0  0
  -29.9480  -14.1529   23.0919 H   0  0  0  0  0  0
  1 25  1  0  0  0
  1 30  2  0  0  0
  1 87  1  0  0  0
  2  3  1  0  0  0
  2 25  1  0  0  0
  2 88  1  0  0  0
  2 89  1  0  0  0
  3  4  1  0  0  0
  3 90  1  0  0  0
  3 91  1  0  0  0
  4  5  1  0  0  0
  4 92  1  0  0  0
  4 93  1  0  0  0
  5  6  1  0  0  0
  5 26  1  0  0  0
  5 94  1  0  0  0
  6 25  1  0  0  0
  6 95  1  0  0  0
  6 96  1  0  0  0
  7  8  2  0  0  0
  7 26  1  0  0  0
  7 29  1  0  0  0
  8  9  1  0  0  0
  8 22  1  0  0  0
  9 10  1  0  0  0
  9 27  2  0  0  0
 10 11  2  0  0  0
 10 15  1  0  0  0
 11 12  1  0  0  0
 11 97  1  0  0  0
 12 13  2  0  0  0
 12 98  1  0  0  0
 13 14  1  0  0  0
 13 31  1  0  0  0
 14 15  2  0  0  0
 14 99  1  0  0  0
 15100  1  0  0  0
 16 17  2  0  0  0
 16 21  1  0  0  0
 16 31  1  0  0  0
 17 18  1  0  0  0
 17101  1  0  0  0
 18 19  2  0  0  0
 18102  1  0  0  0
 19 20  1  0  0  0
 19 24  1  0  0  0
 20 21  2  0  0  0
 20103  1  0  0  0
 21 23  1  0  0  0
 22 28  1  0  0  0
 22 32  2  0  0  0
 26 27  1  0  0  0
 28104  1  0  0  0
 28105  1  0  0  0
 29106  1  0  0  0
 29107  1  0  0  0
 33 34  1  0  0  0
 33 66  1  0  0  0
 33 70  2  0  0  0
 34 36  1  0  0  0
 34 59  1  0  0  0
 34108  1  0  0  0
 35 44  2  0  0  0
 35 45  1  0  0  0
 35 68  1  0  0  0
 36 56  1  0  0  0
 36109  1  0  0  0
 37 39  1  0  0  0
 37 47  1  0  0  0
 37 66  1  0  0  0
 37110  1  0  0  0
 38 43  2  0  0  0
 38 46  1  0  0  0
 38 47  1  0  0  0
 39 64  1  0  0  0
 39 67  2  0  0  0
 40 52  1  0  0  0
 40 53  2  0  0  0
 40 58  1  0  0  0
 41111  1  0  0  0
 41112  1  0  0  0
 41113  1  0  0  0
 41 48  1  0  0  0
 42 43  1  0  0  0
 42 66  1  0  0  0
 42114  1  0  0  0
 42115  1  0  0  0
 43 44  1  0  0  0
 44116  1  0  0  0
 45 46  2  0  0  0
 45117  1  0  0  0
 46118  1  0  0  0
 47119  1  0  0  0
 47120  1  0  0  0
 48 56  1  0  0  0
 48 65  1  0  0  0
 48121  1  0  0  0
 49 50  1  0  0  0
 49 53  1  0  0  0
 49 64  1  0  0  0
 49122  1  0  0  0
 50 51  1  0  0  0
 50123  1  0  0  0
 50124  1  0  0  0
 51 52  1  0  0  0
 51125  1  0  0  0
 51126  1  0  0  0
 52127  1  0  0  0
 52128  1  0  0  0
 53 54  1  0  0  0
 54 55  2  0  0  0
 54129  1  0  0  0
 55 57  1  0  0  0
 55130  1  0  0  0
 56 69  2  0  0  0
 57 58  2  0  0  0
 57131  1  0  0  0
 58132  1  0  0  0
 59 60  1  0  0  0
 59 61  1  0  0  0
 59 62  1  0  0  0
 60133  1  0  0  0
 60134  1  0  0  0
 60135  1  0  0  0
 61136  1  0  0  0
 61137  1  0  0  0
 61138  1  0  0  0
 62139  1  0  0  0
 62140  1  0  0  0
 62141  1  0  0  0
 63 65  1  0  0  0
 63142  1  0  0  0
 63143  1  0  0  0
 63144  1  0  0  0
 64145  1  0  0  0
 65146  1  0  0  0
 68 82  1  0  0  0
 71 73  2  0  0  0
 71 86  1  0  0  0
 71147  1  0  0  0
 72 85  2  0  0  0
 72 86  1  0  0  0
 72148  1  0  0  0
 73 84  1  0  0  0
 73 85  1  0  0  0
 74149  1  0  0  0
 74150  1  0  0  0
 74151  1  0  0  0
 74 83  1  0  0  0
 75 83  1  0  0  0
 75152  1  0  0  0
 75153  1  0  0  0
 75154  1  0  0  0
 76155  1  0  0  0
 76156  1  0  0  0
 76157  1  0  0  0
 76 84  1  0  0  0
 77 84  1  0  0  0
 77158  1  0  0  0
 77159  1  0  0  0
 77160  1  0  0  0
 78 79  1  0  0  0
 78 82  1  0  0  0
 78161  1  0  0  0
 78162  1  0  0  0
 79 84  1  0  0  0
 79163  1  0  0  0
 79164  1  0  0  0
 80 81  1  0  0  0
 80 86  1  0  0  0
 80165  1  0  0  0
 80166  1  0  0  0
 81 87  1  0  0  0
 81167  1  0  0  0
 81168  1  0  0  0
 82169  1  0  0  0
 82170  1  0  0  0
 83 87  1  0  0  0
 83171  1  0  0  0
M  ISO  4   1 100  68 101  82 101  87 100
M  END
> <chiral flag>
0

> <version>
0

> <s_m_source_file>
/data/baiqing/PycharmProjects/Reinvent-master-3.2/result/LINK_invent/BTK/process_docking_weight1_custom_sum_contain_oxygen_bond_distance_aromatic_linkinvent_7_9_3/rearranged_h_0057.sdf

> <i_m_source_file_index>
83

> <r_mmod_Potential_Energy-OPLS-2005>
190.920227050781

> <r_mmod_Stretch_Energy-OPLS-2005>
69.5732803344727

> <r_mmod_Bend_Energy-OPLS-2005>
157.567718505859

> <r_mmod_Torsional_Energy-OPLS-2005>
322.103881835938

> <r_mmod_Improper_Torsional_Energy-OPLS-2005>
5.03351163864136

> <r_mmod_Van_der_Waal_Energy-OPLS-2005>
128.971557617188

> <r_mmod_Electrostatic_Energy-OPLS-2005>
-324.734527587891

> <r_mmod_Solvation_Energy-OPLS-2005>
-196.09651184082

> <b_mmod_Minimization_Converged-OPLS-2005>
0

> <r_mmod_RMS_Derivative-OPLS-2005>
8.94131755828857

$$$$
83
                    3D
 Structure written by MMmdl.
152160  0  0  1  0            999 V2000
  -30.4492  -15.3086   20.3475 C   0  0  0  0  0  0
  -30.4381  -12.8395   19.5188 C   0  0  0  0  0  0
  -29.5472  -12.6021   18.2762 C   0  0  0  0  0  0
  -28.0981  -12.3073   18.7020 C   0  0  0  0  0  0
  -27.6128  -13.2836   19.8050 C   0  0  2  0  0  0
  -28.6455  -13.4904   20.9345 C   0  0  0  0  0  0
  -25.2411  -13.8237   20.5686 C   0  0  0  0  0  0
  -24.1769  -13.0438   20.9229 C   0  0  0  0  0  0
  -24.6436  -11.6927   20.8728 C   0  0  0  0  0  0
  -23.9113  -10.4294   21.0374 C   0  0  0  0  0  0
  -24.3651   -9.4199   21.9163 C   0  0  0  0  0  0
  -23.6304   -8.2245   22.0778 C   0  0  0  0  0  0
  -22.4296   -8.0288   21.3561 C   0  0  0  0  0  0
  -21.9913   -9.0259   20.4670 C   0  0  0  0  0  0
  -22.7267  -10.2129   20.3037 C   0  0  0  0  0  0
  -21.6869   -6.0751   22.5282 C   0  0  0  0  0  0
  -21.4034   -6.5639   23.8214 C   0  0  0  0  0  0
  -21.3663   -5.6784   24.9168 C   0  0  0  0  0  0
  -21.6030   -4.3050   24.7221 C   0  0  0  0  0  0
  -21.8799   -3.8150   23.4325 C   0  0  0  0  0  0
  -21.9199   -4.6978   22.3392 C   0  0  0  0  0  0
  -22.7770  -13.5210   21.1833 C   0  0  0  0  0  0
  -22.1654   -4.2163   21.0970 F   0  0  0  0  0  0
  -21.5609   -3.4524   25.7725 F   0  0  0  0  0  0
  -29.8747  -14.0026   20.3024 N   0  0  0  0  0  0
  -26.2859  -12.9533   20.3122 N   0  0  0  0  0  0
  -25.9374  -11.6637   20.5666 N   0  0  0  0  0  0
  -22.0382  -12.8257   22.0420 N   0  0  0  0  0  0
  -25.3956  -15.1980   20.4099 N   0  0  0  0  0  0
  -31.6775  -15.2754   20.1864 O   0  0  0  0  0  0
  -21.6632   -6.8890   21.4253 O   0  0  0  0  0  0
  -22.3468  -14.5484   20.6614 O   0  0  0  0  0  0
  -24.6686  -31.8194   23.1693 C   0  0  0  0  0  0
  -25.9356  -32.4561   23.8165 C   0  0  1  0  0  0
  -27.2170  -26.8987   20.1832 C   0  0  0  0  0  0
  -25.5983  -33.8372   24.2063 N   0  0  0  0  0  0
  -23.4830  -30.4303   21.5209 C   0  0  2  0  0  0
  -24.9328  -28.8101   20.1121 C   0  0  0  0  0  0
  -22.7682  -29.4423   22.4811 C   0  0  0  0  0  0
  -18.0308  -28.1397   22.8454 C   0  0  0  0  0  0
  -24.1501  -36.7198   23.2661 C   0  0  0  0  0  0
  -26.0556  -30.6161   21.4023 C   0  0  0  0  0  0
  -26.1196  -29.2044   20.7445 C   0  0  0  0  0  0
  -27.2553  -28.2703   20.7514 C   0  0  0  0  0  0
  -26.0023  -26.6630   19.5010 C   0  0  0  0  0  0
  -24.9026  -27.5618   19.4675 C   0  0  0  0  0  0
  -23.7202  -29.7427   20.1479 C   0  0  0  0  0  0
  -25.4141  -36.2966   24.0311 C   0  0  1  0  0  0
  -20.5934  -28.3747   23.1187 C   0  0  2  0  0  0
  -20.6792  -26.9429   22.5405 C   0  0  0  0  0  0
  -19.5778  -26.6368   21.5208 C   0  0  0  0  0  0
  -18.1953  -26.7926   22.1612 C   0  0  0  0  0  0
  -19.1569  -28.8891   23.2798 C   0  0  0  0  0  0
  -18.9482  -30.1481   23.8821 C   0  0  0  0  0  0
  -17.6474  -30.6586   24.0540 C   0  0  0  0  0  0
  -25.9103  -34.9333   23.5011 C   0  0  0  0  0  0
  -16.5365  -29.9068   23.6348 C   0  0  0  0  0  0
  -16.7289  -28.6490   23.0363 C   0  0  0  0  0  0
  -26.4564  -31.6519   25.0715 C   0  0  0  0  0  0
  -25.3691  -31.3768   26.1368 C   0  0  0  0  0  0
  -27.0478  -30.2886   24.6496 C   0  0  0  0  0  0
  -27.6081  -32.4323   25.7507 C   0  0  0  0  0  0
  -27.5580  -37.1765   24.8468 C   0  0  0  0  0  0
  -21.4343  -29.3025   22.3532 N   0  0  0  0  0  0
  -26.4300  -37.3694   23.9404 N   0  0  0  0  0  0
  -24.7580  -30.9822   22.0833 N   0  0  0  0  0  0
  -23.4213  -28.8010   23.3083 O   0  0  0  0  0  0
  -28.2178  -25.7833   20.2602 O   0  0  0  0  0  0
  -26.5727  -34.8875   22.4622 O   0  0  0  0  0  0
  -23.5752  -32.1169   23.6773 O   0  0  0  0  0  0
  -26.7323  -19.8207   19.6850 C   0  0  0  0  0  0
  -28.7797  -19.4958   20.1335 C   0  0  0  0  0  0
  -25.3052  -19.5121   19.3882 C   0  0  0  0  0  0
  -31.0765  -18.4990   19.2671 C   0  0  0  0  0  0
  -28.9394  -22.6010   20.3419 C   0  0  0  0  0  0
  -27.9753  -24.1408   20.1025 C   0  0  0  0  0  0
  -29.9888  -18.2665   20.3303 C   0  0  2  0  0  0
  -27.6565  -18.8423   19.8261 N   0  0  0  0  0  0
  -27.1447  -21.0680   19.8400 N   0  0  0  0  0  0
  -28.4733  -20.9951   20.1362 N   0  0  0  0  0  0
  -29.7041  -16.6028   20.3724 N   0  0  0  0  0  0
  -31.4631  -13.0278   19.1985 H   0  0  0  0  0  0
  -30.4866  -11.9400   20.1364 H   0  0  0  0  0  0
  -29.9495  -11.7937   17.6625 H   0  0  0  0  0  0
  -29.5630  -13.4919   17.6454 H   0  0  0  0  0  0
  -28.0689  -11.2873   19.0842 H   0  0  0  0  0  0
  -27.4315  -12.3301   17.8385 H   0  0  0  0  0  0
  -27.5142  -14.2409   19.2931 H   0  0  0  0  0  0
  -28.8193  -12.5725   21.4994 H   0  0  0  0  0  0
  -28.2719  -14.2315   21.6414 H   0  0  0  0  0  0
  -25.2815   -9.5685   22.4697 H   0  0  0  0  0  0
  -24.0011   -7.4669   22.7528 H   0  0  0  0  0  0
  -21.0825   -8.8785   19.9016 H   0  0  0  0  0  0
  -22.3734  -10.9638   19.6106 H   0  0  0  0  0  0
  -21.2063   -7.6165   23.9744 H   0  0  0  0  0  0
  -21.1485   -6.0510   25.9079 H   0  0  0  0  0  0
  -22.0590   -2.7632   23.2817 H   0  0  0  0  0  0
  -22.3995  -11.9985   22.4941 H   0  0  0  0  0  0
  -21.1000  -13.1346   22.2521 H   0  0  0  0  0  0
  -24.6079  -15.8316   20.4926 H   0  0  0  0  0  0
  -26.2282  -15.6450   20.0482 H   0  0  0  0  0  0
  -26.7444  -32.5048   23.0892 H   0  0  0  0  0  0
  -25.0055  -33.9401   25.0172 H   0  0  0  0  0  0
  -22.7992  -31.2642   21.3509 H   0  0  0  0  0  0
  -23.3765  -35.9526   23.3296 H   0  0  0  0  0  0
  -24.3593  -36.8854   22.2083 H   0  0  0  0  0  0
  -23.7242  -37.6382   23.6710 H   0  0  0  0  0  0
  -26.2476  -31.3565   20.6233 H   0  0  0  0  0  0
  -26.9128  -30.6651   22.0641 H   0  0  0  0  0  0
  -28.1541  -28.5744   21.2687 H   0  0  0  0  0  0
  -25.8699  -25.7071   19.0137 H   0  0  0  0  0  0
  -24.0017  -27.2546   18.9523 H   0  0  0  0  0  0
  -23.8746  -30.5095   19.3882 H   0  0  0  0  0  0
  -22.8261  -29.1991   19.8360 H   0  0  0  0  0  0
  -25.1339  -36.1779   25.0804 H   0  0  0  0  0  0
  -20.9999  -28.3361   24.1323 H   0  0  0  0  0  0
  -20.5679  -26.2368   23.3645 H   0  0  0  0  0  0
  -21.6659  -26.7418   22.1221 H   0  0  0  0  0  0
  -19.6954  -25.6262   21.1280 H   0  0  0  0  0  0
  -19.6726  -27.3139   20.6706 H   0  0  0  0  0  0
  -17.4233  -26.6653   21.3999 H   0  0  0  0  0  0
  -18.0356  -26.0065   22.9015 H   0  0  0  0  0  0
  -19.7947  -30.7315   24.2171 H   0  0  0  0  0  0
  -17.5016  -31.6256   24.5171 H   0  0  0  0  0  0
  -15.5359  -30.2956   23.7688 H   0  0  0  0  0  0
  -15.8688  -28.0779   22.7142 H   0  0  0  0  0  0
  -24.5870  -30.7115   25.7671 H   0  0  0  0  0  0
  -24.8857  -32.2944   26.4714 H   0  0  0  0  0  0
  -25.7898  -30.8977   27.0211 H   0  0  0  0  0  0
  -26.3155  -29.6537   24.1483 H   0  0  0  0  0  0
  -27.3964  -29.7279   25.5179 H   0  0  0  0  0  0
  -27.9103  -30.4054   23.9944 H   0  0  0  0  0  0
  -27.2685  -33.3687   26.1938 H   0  0  0  0  0  0
  -28.3944  -32.6767   25.0361 H   0  0  0  0  0  0
  -28.0676  -31.8531   26.5521 H   0  0  0  0  0  0
  -28.2600  -38.0070   24.7504 H   0  0  0  0  0  0
  -28.1070  -36.2577   24.6297 H   0  0  0  0  0  0
  -27.2284  -37.1423   25.8876 H   0  0  0  0  0  0
  -20.9640  -29.8671   21.6591 H   0  0  0  0  0  0
  -26.0140  -38.2772   24.1346 H   0  0  0  0  0  0
  -25.0931  -18.4649   19.6037 H   0  0  0  0  0  0
  -25.0839  -19.6942   18.3369 H   0  0  0  0  0  0
  -24.6433  -20.1227   20.0014 H   0  0  0  0  0  0
  -31.4355  -19.5281   19.2808 H   0  0  0  0  0  0
  -30.6974  -18.3029   18.2646 H   0  0  0  0  0  0
  -31.9424  -17.8595   19.4328 H   0  0  0  0  0  0
  -29.2988  -22.6490   21.3705 H   0  0  0  0  0  0
  -29.8423  -22.7197   19.7453 H   0  0  0  0  0  0
  -27.0795  -23.9809   20.7025 H   0  0  0  0  0  0
  -27.6180  -24.0615   19.0752 H   0  0  0  0  0  0
  -30.4486  -18.4818   21.2950 H   0  0  0  0  0  0
  -28.7092  -16.4365   20.4124 H   0  0  0  0  0  0
  1 25  1  0  0  0
  1 30  2  0  0  0
  1 81  1  0  0  0
  2  3  1  0  0  0
  2 25  1  0  0  0
  2 82  1  0  0  0
  2 83  1  0  0  0
  3  4  1  0  0  0
  3 84  1  0  0  0
  3 85  1  0  0  0
  4  5  1  0  0  0
  4 86  1  0  0  0
  4 87  1  0  0  0
  5  6  1  0  0  0
  5 26  1  0  0  0
  5 88  1  0  0  0
  6 25  1  0  0  0
  6 89  1  0  0  0
  6 90  1  0  0  0
  7  8  2  0  0  0
  7 26  1  0  0  0
  7 29  1  0  0  0
  8  9  1  0  0  0
  8 22  1  0  0  0
  9 10  1  0  0  0
  9 27  2  0  0  0
 10 11  2  0  0  0
 10 15  1  0  0  0
 11 12  1  0  0  0
 11 91  1  0  0  0
 12 13  2  0  0  0
 12 92  1  0  0  0
 13 14  1  0  0  0
 13 31  1  0  0  0
 14 15  2  0  0  0
 14 93  1  0  0  0
 15 94  1  0  0  0
 16 17  2  0  0  0
 16 21  1  0  0  0
 16 31  1  0  0  0
 17 18  1  0  0  0
 17 95  1  0  0  0
 18 19  2  0  0  0
 18 96  1  0  0  0
 19 20  1  0  0  0
 19 24  1  0  0  0
 20 21  2  0  0  0
 20 97  1  0  0  0
 21 23  1  0  0  0
 22 28  1  0  0  0
 22 32  2  0  0  0
 26 27  1  0  0  0
 28 98  1  0  0  0
 28 99  1  0  0  0
 29100  1  0  0  0
 29101  1  0  0  0
 33 34  1  0  0  0
 33 66  1  0  0  0
 33 70  2  0  0  0
 34 36  1  0  0  0
 34 59  1  0  0  0
 34102  1  0  0  0
 35 44  2  0  0  0
 35 45  1  0  0  0
 35 68  1  0  0  0
 36 56  1  0  0  0
 36103  1  0  0  0
 37 39  1  0  0  0
 37 47  1  0  0  0
 37 66  1  0  0  0
 37104  1  0  0  0
 38 43  2  0  0  0
 38 46  1  0  0  0
 38 47  1  0  0  0
 39 64  1  0  0  0
 39 67  2  0  0  0
 40 52  1  0  0  0
 40 53  2  0  0  0
 40 58  1  0  0  0
 41105  1  0  0  0
 41106  1  0  0  0
 41107  1  0  0  0
 41 48  1  0  0  0
 42 43  1  0  0  0
 42 66  1  0  0  0
 42108  1  0  0  0
 42109  1  0  0  0
 43 44  1  0  0  0
 44110  1  0  0  0
 45 46  2  0  0  0
 45111  1  0  0  0
 46112  1  0  0  0
 47113  1  0  0  0
 47114  1  0  0  0
 48 56  1  0  0  0
 48 65  1  0  0  0
 48115  1  0  0  0
 49 50  1  0  0  0
 49 53  1  0  0  0
 49 64  1  0  0  0
 49116  1  0  0  0
 50 51  1  0  0  0
 50117  1  0  0  0
 50118  1  0  0  0
 51 52  1  0  0  0
 51119  1  0  0  0
 51120  1  0  0  0
 52121  1  0  0  0
 52122  1  0  0  0
 53 54  1  0  0  0
 54 55  2  0  0  0
 54123  1  0  0  0
 55 57  1  0  0  0
 55124  1  0  0  0
 56 69  2  0  0  0
 57 58  2  0  0  0
 57125  1  0  0  0
 58126  1  0  0  0
 59 60  1  0  0  0
 59 61  1  0  0  0
 59 62  1  0  0  0
 60127  1  0  0  0
 60128  1  0  0  0
 60129  1  0  0  0
 61130  1  0  0  0
 61131  1  0  0  0
 61132  1  0  0  0
 62133  1  0  0  0
 62134  1  0  0  0
 62135  1  0  0  0
 63 65  1  0  0  0
 63136  1  0  0  0
 63137  1  0  0  0
 63138  1  0  0  0
 64139  1  0  0  0
 65140  1  0  0  0
 68 76  1  0  0  0
 71 73  1  0  0  0
 71 78  1  0  0  0
 71 79  2  0  0  0
 72 77  1  0  0  0
 72 78  2  0  0  0
 72 80  1  0  0  0
 73141  1  0  0  0
 73142  1  0  0  0
 73143  1  0  0  0
 74144  1  0  0  0
 74145  1  0  0  0
 74146  1  0  0  0
 74 77  1  0  0  0
 75 76  1  0  0  0
 75 80  1  0  0  0
 75147  1  0  0  0
 75148  1  0  0  0
 76149  1  0  0  0
 76150  1  0  0  0
 77 81  1  0  0  0
 77151  1  0  0  0
 79 80  1  0  0  0
 81152  1  0  0  0
M  ISO  4   1 100  68 101  76 101  81 100
M  END
> <chiral flag>
0

> <version>
0

> <s_m_source_file>
/data/baiqing/PycharmProjects/Reinvent-master-3.2/result/LINK_invent/BTK/process_docking_weight1_custom_sum_contain_oxygen_bond_distance_aromatic_linkinvent_7_9_3/rearranged_h_0057.sdf

> <i_m_source_file_index>
84

> <r_mmod_Potential_Energy-OPLS-2005>
1315.17028808594

> <r_mmod_Stretch_Energy-OPLS-2005>
669.310913085938

> <r_mmod_Bend_Energy-OPLS-2005>
515.554443359375

> <r_mmod_Torsional_Energy-OPLS-2005>
210.14453125

> <r_mmod_Improper_Torsional_Energy-OPLS-2005>
4.21664714813232

> <r_mmod_Van_der_Waal_Energy-OPLS-2005>
99.3347702026367

> <r_mmod_Electrostatic_Energy-OPLS-2005>
-466.550384521484

> <r_mmod_Solvation_Energy-OPLS-2005>
-219.351715087891

> <b_mmod_Minimization_Converged-OPLS-2005>
0

> <r_mmod_RMS_Derivative-OPLS-2005>
4.58119773864746

$$$$
84
                    3D
 Structure written by MMmdl.
141149  0  0  1  0            999 V2000
  -30.2813  -15.7424   20.3113 C   0  0  0  0  0  0
  -30.4132  -13.1486   19.5655 C   0  0  0  0  0  0
  -29.5594  -12.6837   18.3470 C   0  0  0  0  0  0
  -28.1377  -12.3054   18.7831 C   0  0  0  0  0  0
  -27.5881  -13.3246   19.8039 C   0  0  2  0  0  0
  -28.5866  -13.7144   20.9206 C   0  0  0  0  0  0
  -25.2284  -13.8309   20.5778 C   0  0  0  0  0  0
  -24.1702  -13.0440   20.9305 C   0  0  0  0  0  0
  -24.6424  -11.6958   20.8762 C   0  0  0  0  0  0
  -23.9132  -10.4298   21.0394 C   0  0  0  0  0  0
  -24.3663   -9.4209   21.9177 C   0  0  0  0  0  0
  -23.6321   -8.2252   22.0753 C   0  0  0  0  0  0
  -22.4300   -8.0292   21.3545 C   0  0  0  0  0  0
  -21.9949   -9.0268   20.4643 C   0  0  0  0  0  0
  -22.7295  -10.2138   20.3048 C   0  0  0  0  0  0
  -21.6862   -6.0743   22.5278 C   0  0  0  0  0  0
  -21.4020   -6.5644   23.8212 C   0  0  0  0  0  0
  -21.3661   -5.6795   24.9173 C   0  0  0  0  0  0
  -21.6044   -4.3057   24.7222 C   0  0  0  0  0  0
  -21.8818   -3.8151   23.4343 C   0  0  0  0  0  0
  -21.9195   -4.6970   22.3400 C   0  0  0  0  0  0
  -22.7712  -13.5158   21.1937 C   0  0  0  0  0  0
  -22.1662   -4.2155   21.0978 F   0  0  0  0  0  0
  -21.5628   -3.4539   25.7734 F   0  0  0  0  0  0
  -29.7647  -14.3547   20.2810 N   0  0  0  0  0  0
  -26.2738  -12.9673   20.3180 N   0  0  0  0  0  0
  -25.9370  -11.6729   20.5661 N   0  0  0  0  0  0
  -22.0381  -12.8129   22.0487 N   0  0  0  0  0  0
  -25.3849  -15.2045   20.4171 N   0  0  0  0  0  0
  -31.5139  -15.6085   20.1434 O   0  0  0  0  0  0
  -21.6654   -6.8893   21.4244 O   0  0  0  0  0  0
  -22.3383  -14.5453   20.6768 O   0  0  0  0  0  0
  -24.6914  -31.7906   23.1444 C   0  0  0  0  0  0
  -25.9458  -32.4419   23.8021 C   0  0  1  0  0  0
  -27.2271  -26.6203   20.2268 C   0  0  0  0  0  0
  -25.6004  -33.8249   24.1901 N   0  0  0  0  0  0
  -23.5210  -30.3889   21.5004 C   0  0  2  0  0  0
  -24.9784  -28.7112   20.1216 C   0  0  0  0  0  0
  -22.7800  -29.4267   22.4688 C   0  0  0  0  0  0
  -18.0344  -28.1426   22.8451 C   0  0  0  0  0  0
  -24.1496  -36.7133   23.2655 C   0  0  0  0  0  0
  -26.1050  -30.4969   21.4205 C   0  0  0  0  0  0
  -26.1691  -29.0522   20.7733 C   0  0  0  0  0  0
  -27.2751  -28.0380   20.7884 C   0  0  0  0  0  0
  -26.0019  -26.5079   19.5165 C   0  0  0  0  0  0
  -24.9387  -27.4661   19.4685 C   0  0  0  0  0  0
  -23.7793  -29.6775   20.1396 C   0  0  0  0  0  0
  -25.4150  -36.2868   24.0275 C   0  0  1  0  0  0
  -20.5983  -28.3790   23.1128 C   0  0  2  0  0  0
  -20.6807  -26.9441   22.5405 C   0  0  0  0  0  0
  -19.5784  -26.6368   21.5218 C   0  0  0  0  0  0
  -18.1966  -26.7952   22.1618 C   0  0  0  0  0  0
  -19.1612  -28.8934   23.2767 C   0  0  0  0  0  0
  -18.9515  -30.1515   23.8816 C   0  0  0  0  0  0
  -17.6504  -30.6606   24.0549 C   0  0  0  0  0  0
  -25.9135  -34.9260   23.4931 C   0  0  0  0  0  0
  -16.5394  -29.9086   23.6352 C   0  0  0  0  0  0
  -16.7323  -28.6510   23.0368 C   0  0  0  0  0  0
  -26.4610  -31.6488   25.0677 C   0  0  0  0  0  0
  -25.3654  -31.3829   26.1277 C   0  0  0  0  0  0
  -27.0556  -30.2817   24.6636 C   0  0  0  0  0  0
  -27.6042  -32.4370   25.7502 C   0  0  0  0  0  0
  -27.5561  -37.1724   24.8467 C   0  0  0  0  0  0
  -21.4440  -29.3021   22.3439 N   0  0  0  0  0  0
  -26.4269  -37.3638   23.9407 N   0  0  0  0  0  0
  -24.7969  -30.9274   22.0740 N   0  0  0  0  0  0
  -23.4208  -28.7881   23.3070 O   0  0  0  0  0  0
  -28.1903  -25.3733   20.2929 O   0  0  0  0  0  0
  -26.5787  -34.8854   22.4557 O   0  0  0  0  0  0
  -23.5917  -32.1016   23.6351 O   0  0  0  0  0  0
  -28.2029  -17.9479   20.7076 C   0  0  0  0  0  0
  -29.5585  -17.4991   20.3641 C   0  0  0  0  0  0
  -29.0883  -21.8794   20.3136 C   0  0  0  0  0  0
  -28.0412  -23.5725   20.2244 C   0  0  0  0  0  0
  -27.8890  -19.2858   20.7006 N   0  0  0  0  0  0
  -30.0032  -18.8701   20.1610 N   0  0  0  0  0  0
  -28.9882  -20.0418   20.3334 N   0  0  0  0  0  0
  -31.4093  -13.3984   19.1995 H   0  0  0  0  0  0
  -30.5750  -12.3215   20.2590 H   0  0  0  0  0  0
  -30.0364  -11.8417   17.8438 H   0  0  0  0  0  0
  -29.5119  -13.4924   17.6164 H   0  0  0  0  0  0
  -28.1796  -11.3169   19.2423 H   0  0  0  0  0  0
  -27.4763  -12.2192   17.9200 H   0  0  0  0  0  0
  -27.4357  -14.2285   19.2125 H   0  0  0  0  0  0
  -28.8554  -12.8572   21.5397 H   0  0  0  0  0  0
  -28.1260  -14.4396   21.5929 H   0  0  0  0  0  0
  -25.2802   -9.5682   22.4762 H   0  0  0  0  0  0
  -24.0020   -7.4645   22.7480 H   0  0  0  0  0  0
  -21.0878   -8.8798   19.8950 H   0  0  0  0  0  0
  -22.3754  -10.9680   19.6160 H   0  0  0  0  0  0
  -21.2016   -7.6152   23.9717 H   0  0  0  0  0  0
  -21.1483   -6.0524   25.9077 H   0  0  0  0  0  0
  -22.0594   -2.7613   23.2841 H   0  0  0  0  0  0
  -22.4030  -11.9810   22.4885 H   0  0  0  0  0  0
  -21.0984  -13.1115   22.2681 H   0  0  0  0  0  0
  -24.5987  -15.8398   20.5016 H   0  0  0  0  0  0
  -26.1933  -15.6294   19.9839 H   0  0  0  0  0  0
  -26.7546  -32.4870   23.0736 H   0  0  0  0  0  0
  -25.0050  -33.9272   24.9987 H   0  0  0  0  0  0
  -22.8508  -31.2283   21.3034 H   0  0  0  0  0  0
  -23.3778  -35.9441   23.3260 H   0  0  0  0  0  0
  -24.3559  -36.8857   22.2080 H   0  0  0  0  0  0
  -23.7237  -37.6286   23.6775 H   0  0  0  0  0  0
  -26.3166  -31.2156   20.6278 H   0  0  0  0  0  0
  -26.9529  -30.5681   22.0892 H   0  0  0  0  0  0
  -28.1713  -28.3101   21.3279 H   0  0  0  0  0  0
  -25.8227  -25.5703   19.0096 H   0  0  0  0  0  0
  -24.0423  -27.1952   18.9277 H   0  0  0  0  0  0
  -23.9627  -30.4337   19.3754 H   0  0  0  0  0  0
  -22.8820  -29.1491   19.8129 H   0  0  0  0  0  0
  -25.1364  -36.1618   25.0765 H   0  0  0  0  0  0
  -21.0062  -28.3422   24.1255 H   0  0  0  0  0  0
  -20.5664  -26.2416   23.3674 H   0  0  0  0  0  0
  -21.6667  -26.7373   22.1227 H   0  0  0  0  0  0
  -19.6939  -25.6258   21.1300 H   0  0  0  0  0  0
  -19.6729  -27.3134   20.6712 H   0  0  0  0  0  0
  -17.4236  -26.6695   21.4020 H   0  0  0  0  0  0
  -18.0352  -26.0113   22.9032 H   0  0  0  0  0  0
  -19.7991  -30.7353   24.2150 H   0  0  0  0  0  0
  -17.5054  -31.6276   24.5168 H   0  0  0  0  0  0
  -15.5390  -30.2962   23.7722 H   0  0  0  0  0  0
  -15.8724  -28.0801   22.7128 H   0  0  0  0  0  0
  -24.5869  -30.7149   25.7573 H   0  0  0  0  0  0
  -24.8811  -32.3058   26.4477 H   0  0  0  0  0  0
  -25.7810  -30.9138   27.0203 H   0  0  0  0  0  0
  -26.3289  -29.6405   24.1639 H   0  0  0  0  0  0
  -27.3963  -29.7298   25.5407 H   0  0  0  0  0  0
  -27.9276  -30.3925   24.0189 H   0  0  0  0  0  0
  -27.2571  -33.3751   26.1844 H   0  0  0  0  0  0
  -28.3972  -32.6803   25.0418 H   0  0  0  0  0  0
  -28.0579  -31.8658   26.5612 H   0  0  0  0  0  0
  -28.2544  -38.0051   24.7513 H   0  0  0  0  0  0
  -28.1092  -36.2572   24.6298 H   0  0  0  0  0  0
  -27.2275  -37.1362   25.8868 H   0  0  0  0  0  0
  -20.9765  -29.8662   21.6479 H   0  0  0  0  0  0
  -26.0088  -38.2682   24.1420 H   0  0  0  0  0  0
  -27.4161  -17.2608   20.9866 H   0  0  0  0  0  0
  -29.6794  -22.0597   21.2106 H   0  0  0  0  0  0
  -29.8093  -22.0416   19.5135 H   0  0  0  0  0  0
  -27.2865  -23.4102   20.9937 H   0  0  0  0  0  0
  -27.4829  -23.4495   19.2965 H   0  0  0  0  0  0
  1 25  1  0  0  0
  1 30  2  0  0  0
  1 72  1  0  0  0
  2  3  1  0  0  0
  2 25  1  0  0  0
  2 78  1  0  0  0
  2 79  1  0  0  0
  3  4  1  0  0  0
  3 80  1  0  0  0
  3 81  1  0  0  0
  4  5  1  0  0  0
  4 82  1  0  0  0
  4 83  1  0  0  0
  5  6  1  0  0  0
  5 26  1  0  0  0
  5 84  1  0  0  0
  6 25  1  0  0  0
  6 85  1  0  0  0
  6 86  1  0  0  0
  7  8  2  0  0  0
  7 26  1  0  0  0
  7 29  1  0  0  0
  8  9  1  0  0  0
  8 22  1  0  0  0
  9 10  1  0  0  0
  9 27  2  0  0  0
 10 11  2  0  0  0
 10 15  1  0  0  0
 11 12  1  0  0  0
 11 87  1  0  0  0
 12 13  2  0  0  0
 12 88  1  0  0  0
 13 14  1  0  0  0
 13 31  1  0  0  0
 14 15  2  0  0  0
 14 89  1  0  0  0
 15 90  1  0  0  0
 16 17  2  0  0  0
 16 21  1  0  0  0
 16 31  1  0  0  0
 17 18  1  0  0  0
 17 91  1  0  0  0
 18 19  2  0  0  0
 18 92  1  0  0  0
 19 20  1  0  0  0
 19 24  1  0  0  0
 20 21  2  0  0  0
 20 93  1  0  0  0
 21 23  1  0  0  0
 22 28  1  0  0  0
 22 32  2  0  0  0
 26 27  1  0  0  0
 28 94  1  0  0  0
 28 95  1  0  0  0
 29 96  1  0  0  0
 29 97  1  0  0  0
 33 34  1  0  0  0
 33 66  1  0  0  0
 33 70  2  0  0  0
 34 36  1  0  0  0
 34 59  1  0  0  0
 34 98  1  0  0  0
 35 44  2  0  0  0
 35 45  1  0  0  0
 35 68  1  0  0  0
 36 56  1  0  0  0
 36 99  1  0  0  0
 37 39  1  0  0  0
 37 47  1  0  0  0
 37 66  1  0  0  0
 37100  1  0  0  0
 38 43  2  0  0  0
 38 46  1  0  0  0
 38 47  1  0  0  0
 39 64  1  0  0  0
 39 67  2  0  0  0
 40 52  1  0  0  0
 40 53  2  0  0  0
 40 58  1  0  0  0
 41101  1  0  0  0
 41102  1  0  0  0
 41103  1  0  0  0
 41 48  1  0  0  0
 42 43  1  0  0  0
 42 66  1  0  0  0
 42104  1  0  0  0
 42105  1  0  0  0
 43 44  1  0  0  0
 44106  1  0  0  0
 45 46  2  0  0  0
 45107  1  0  0  0
 46108  1  0  0  0
 47109  1  0  0  0
 47110  1  0  0  0
 48 56  1  0  0  0
 48 65  1  0  0  0
 48111  1  0  0  0
 49 50  1  0  0  0
 49 53  1  0  0  0
 49 64  1  0  0  0
 49112  1  0  0  0
 50 51  1  0  0  0
 50113  1  0  0  0
 50114  1  0  0  0
 51 52  1  0  0  0
 51115  1  0  0  0
 51116  1  0  0  0
 52117  1  0  0  0
 52118  1  0  0  0
 53 54  1  0  0  0
 54 55  2  0  0  0
 54119  1  0  0  0
 55 57  1  0  0  0
 55120  1  0  0  0
 56 69  2  0  0  0
 57 58  2  0  0  0
 57121  1  0  0  0
 58122  1  0  0  0
 59 60  1  0  0  0
 59 61  1  0  0  0
 59 62  1  0  0  0
 60123  1  0  0  0
 60124  1  0  0  0
 60125  1  0  0  0
 61126  1  0  0  0
 61127  1  0  0  0
 61128  1  0  0  0
 62129  1  0  0  0
 62130  1  0  0  0
 62131  1  0  0  0
 63 65  1  0  0  0
 63132  1  0  0  0
 63133  1  0  0  0
 63134  1  0  0  0
 64135  1  0  0  0
 65136  1  0  0  0
 68 74  1  0  0  0
 71 72  1  0  0  0
 71 75  2  0  0  0
 71137  1  0  0  0
 72 76  2  0  0  0
 73 74  1  0  0  0
 73 77  1  0  0  0
 73138  1  0  0  0
 73139  1  0  0  0
 74140  1  0  0  0
 74141  1  0  0  0
 75 77  1  0  0  0
 76 77  1  0  0  0
M  ISO  4   1 100  68 101  72 100  74 101
M  END
> <chiral flag>
0

> <version>
0

> <s_m_source_file>
/data/baiqing/PycharmProjects/Reinvent-master-3.2/result/LINK_invent/BTK/process_docking_weight1_custom_sum_contain_oxygen_bond_distance_aromatic_linkinvent_7_9_3/rearranged_h_0057.sdf

> <i_m_source_file_index>
85

> <r_mmod_Potential_Energy-OPLS-2005>
2876.86010742188

> <r_mmod_Stretch_Energy-OPLS-2005>
1282.32580566406

> <r_mmod_Bend_Energy-OPLS-2005>
705.4677734375

> <r_mmod_Torsional_Energy-OPLS-2005>
205.255966186523

> <r_mmod_Improper_Torsional_Energy-OPLS-2005>
4.23992013931274

> <r_mmod_Van_der_Waal_Energy-OPLS-2005>
108.006004333496

> <r_mmod_Electrostatic_Energy-OPLS-2005>
-262.479339599609

> <r_mmod_Solvation_Energy-OPLS-2005>
-225.436004638672

> <b_mmod_Minimization_Converged-OPLS-2005>
0

> <r_mmod_RMS_Derivative-OPLS-2005>
0.122066333889961

$$$$
85
                    3D
 Structure written by MMmdl.
141149  0  0  1  0            999 V2000
  -30.2235  -15.7203   20.3174 C   0  0  0  0  0  0
  -30.4343  -13.1288   19.5638 C   0  0  0  0  0  0
  -29.5677  -12.6838   18.3446 C   0  0  0  0  0  0
  -28.1413  -12.3085   18.7762 C   0  0  0  0  0  0
  -27.5981  -13.3167   19.8115 C   0  0  2  0  0  0
  -28.6037  -13.6639   20.9340 C   0  0  0  0  0  0
  -25.2334  -13.8297   20.5785 C   0  0  0  0  0  0
  -24.1725  -13.0436   20.9270 C   0  0  0  0  0  0
  -24.6435  -11.6950   20.8738 C   0  0  0  0  0  0
  -23.9134  -10.4295   21.0383 C   0  0  0  0  0  0
  -24.3664   -9.4210   21.9171 C   0  0  0  0  0  0
  -23.6319   -8.2253   22.0752 C   0  0  0  0  0  0
  -22.4299   -8.0292   21.3545 C   0  0  0  0  0  0
  -21.9947   -9.0268   20.4643 C   0  0  0  0  0  0
  -22.7295  -10.2136   20.3042 C   0  0  0  0  0  0
  -21.6862   -6.0744   22.5279 C   0  0  0  0  0  0
  -21.4021   -6.5645   23.8213 C   0  0  0  0  0  0
  -21.3661   -5.6795   24.9174 C   0  0  0  0  0  0
  -21.6044   -4.3058   24.7223 C   0  0  0  0  0  0
  -21.8818   -3.8152   23.4343 C   0  0  0  0  0  0
  -21.9195   -4.6970   22.3401 C   0  0  0  0  0  0
  -22.7735  -13.5161   21.1917 C   0  0  0  0  0  0
  -22.1662   -4.2156   21.0978 F   0  0  0  0  0  0
  -21.5627   -3.4540   25.7735 F   0  0  0  0  0  0
  -29.7852  -14.3091   20.3076 N   0  0  0  0  0  0
  -26.2789  -12.9643   20.3198 N   0  0  0  0  0  0
  -25.9385  -11.6705   20.5657 N   0  0  0  0  0  0
  -22.0407  -12.8132   22.0471 N   0  0  0  0  0  0
  -25.3933  -15.2043   20.4271 N   0  0  0  0  0  0
  -31.4548  -15.6841   20.1048 O   0  0  0  0  0  0
  -21.6652   -6.8894   21.4244 O   0  0  0  0  0  0
  -22.3403  -14.5460   20.6760 O   0  0  0  0  0  0
  -24.6907  -31.7917   23.1456 C   0  0  0  0  0  0
  -25.9453  -32.4426   23.8030 C   0  0  1  0  0  0
  -27.2322  -26.6329   20.2220 C   0  0  0  0  0  0
  -25.6001  -33.8255   24.1909 N   0  0  0  0  0  0
  -23.5206  -30.3903   21.5011 C   0  0  2  0  0  0
  -24.9800  -28.7171   20.1203 C   0  0  0  0  0  0
  -22.7800  -29.4271   22.4690 C   0  0  0  0  0  0
  -18.0344  -28.1425   22.8451 C   0  0  0  0  0  0
  -24.1496  -36.7136   23.2654 C   0  0  0  0  0  0
  -26.1045  -30.5017   21.4211 C   0  0  0  0  0  0
  -26.1705  -29.0588   20.7726 C   0  0  0  0  0  0
  -27.2782  -28.0472   20.7886 C   0  0  0  0  0  0
  -26.0077  -26.5197   19.5098 C   0  0  0  0  0  0
  -24.9420  -27.4740   19.4644 C   0  0  0  0  0  0
  -23.7791  -29.6806   20.1397 C   0  0  0  0  0  0
  -25.4149  -36.2871   24.0276 C   0  0  1  0  0  0
  -20.5983  -28.3789   23.1127 C   0  0  2  0  0  0
  -20.6806  -26.9441   22.5404 C   0  0  0  0  0  0
  -19.5784  -26.6368   21.5217 C   0  0  0  0  0  0
  -18.1966  -26.7951   22.1618 C   0  0  0  0  0  0
  -19.1612  -28.8933   23.2767 C   0  0  0  0  0  0
  -18.9516  -30.1514   23.8817 C   0  0  0  0  0  0
  -17.6504  -30.6605   24.0549 C   0  0  0  0  0  0
  -25.9134  -34.9263   23.4935 C   0  0  0  0  0  0
  -16.5394  -29.9085   23.6352 C   0  0  0  0  0  0
  -16.7323  -28.6508   23.0368 C   0  0  0  0  0  0
  -26.4607  -31.6492   25.0683 C   0  0  0  0  0  0
  -25.3653  -31.3829   26.1283 C   0  0  0  0  0  0
  -27.0553  -30.2821   24.6637 C   0  0  0  0  0  0
  -27.6040  -32.4371   25.7507 C   0  0  0  0  0  0
  -27.5562  -37.1724   24.8466 C   0  0  0  0  0  0
  -21.4440  -29.3022   22.3439 N   0  0  0  0  0  0
  -26.4269  -37.3640   23.9407 N   0  0  0  0  0  0
  -24.7961  -30.9293   22.0749 N   0  0  0  0  0  0
  -23.4209  -28.7883   23.3068 O   0  0  0  0  0  0
  -28.1789  -25.3757   20.2975 O   0  0  0  0  0  0
  -26.5785  -34.8855   22.4560 O   0  0  0  0  0  0
  -23.5910  -32.1024   23.6364 O   0  0  0  0  0  0
  -28.3144  -20.4083   20.1980 C   0  0  0  0  0  0
  -28.7159  -21.8677   20.2764 C   0  0  0  0  0  0
  -27.9051  -23.6119   20.1469 C   0  0  0  0  0  0
  -29.2838  -17.3766   20.4832 C   0  0  0  0  0  0
  -30.0833  -21.4511   20.4866 N   0  0  0  0  0  0
  -30.3788  -20.0887   20.5429 N   0  0  0  0  0  0
  -29.3110  -19.2092   20.3309 N   0  0  0  0  0  0
  -31.4248  -13.4040   19.2005 H   0  0  0  0  0  0
  -30.6073  -12.2893   20.2394 H   0  0  0  0  0  0
  -30.0377  -11.8470   17.8264 H   0  0  0  0  0  0
  -29.5222  -13.5032   17.6258 H   0  0  0  0  0  0
  -28.1757  -11.3133   19.2213 H   0  0  0  0  0  0
  -27.4794  -12.2397   17.9121 H   0  0  0  0  0  0
  -27.4575  -14.2343   19.2384 H   0  0  0  0  0  0
  -28.8670  -12.7856   21.5255 H   0  0  0  0  0  0
  -28.1525  -14.3729   21.6295 H   0  0  0  0  0  0
  -25.2804   -9.5683   22.4754 H   0  0  0  0  0  0
  -24.0019   -7.4648   22.7480 H   0  0  0  0  0  0
  -21.0875   -8.8797   19.8951 H   0  0  0  0  0  0
  -22.3754  -10.9676   19.6152 H   0  0  0  0  0  0
  -21.2016   -7.6153   23.9719 H   0  0  0  0  0  0
  -21.1483   -6.0524   25.9077 H   0  0  0  0  0  0
  -22.0594   -2.7614   23.2842 H   0  0  0  0  0  0
  -22.4054  -11.9808   22.4861 H   0  0  0  0  0  0
  -21.1014  -13.1123   22.2676 H   0  0  0  0  0  0
  -24.6234  -15.8533   20.5493 H   0  0  0  0  0  0
  -26.2407  -15.6517   20.1033 H   0  0  0  0  0  0
  -26.7542  -32.4881   23.0746 H   0  0  0  0  0  0
  -25.0045  -33.9282   24.9993 H   0  0  0  0  0  0
  -22.8500  -31.2294   21.3047 H   0  0  0  0  0  0
  -23.3778  -35.9444   23.3259 H   0  0  0  0  0  0
  -24.3561  -36.8861   22.2080 H   0  0  0  0  0  0
  -23.7237  -37.6288   23.6775 H   0  0  0  0  0  0
  -26.3149  -31.2220   20.6294 H   0  0  0  0  0  0
  -26.9525  -30.5726   22.0898 H   0  0  0  0  0  0
  -28.1716  -28.3178   21.3336 H   0  0  0  0  0  0
  -25.8277  -25.5833   19.0013 H   0  0  0  0  0  0
  -24.0460  -27.2021   18.9234 H   0  0  0  0  0  0
  -23.9601  -30.4375   19.3758 H   0  0  0  0  0  0
  -22.8827  -29.1502   19.8137 H   0  0  0  0  0  0
  -25.1362  -36.1623   25.0766 H   0  0  0  0  0  0
  -21.0063  -28.3421   24.1255 H   0  0  0  0  0  0
  -20.5662  -26.2416   23.3673 H   0  0  0  0  0  0
  -21.6667  -26.7371   22.1227 H   0  0  0  0  0  0
  -19.6938  -25.6257   21.1300 H   0  0  0  0  0  0
  -19.6729  -27.3134   20.6712 H   0  0  0  0  0  0
  -17.4236  -26.6693   21.4021 H   0  0  0  0  0  0
  -18.0352  -26.0113   22.9032 H   0  0  0  0  0  0
  -19.7991  -30.7351   24.2151 H   0  0  0  0  0  0
  -17.5054  -31.6277   24.5167 H   0  0  0  0  0  0
  -15.5390  -30.2961   23.7722 H   0  0  0  0  0  0
  -15.8724  -28.0800   22.7129 H   0  0  0  0  0  0
  -24.5871  -30.7144   25.7580 H   0  0  0  0  0  0
  -24.8806  -32.3056   26.4482 H   0  0  0  0  0  0
  -25.7813  -30.9141   27.0209 H   0  0  0  0  0  0
  -26.3285  -29.6412   24.1636 H   0  0  0  0  0  0
  -27.3957  -29.7298   25.5406 H   0  0  0  0  0  0
  -27.9274  -30.3929   24.0192 H   0  0  0  0  0  0
  -27.2568  -33.3752   26.1852 H   0  0  0  0  0  0
  -28.3969  -32.6807   25.0423 H   0  0  0  0  0  0
  -28.0578  -31.8659   26.5615 H   0  0  0  0  0  0
  -28.2541  -38.0054   24.7516 H   0  0  0  0  0  0
  -28.1096  -36.2575   24.6291 H   0  0  0  0  0  0
  -27.2276  -37.1355   25.8867 H   0  0  0  0  0  0
  -20.9763  -29.8667   21.6484 H   0  0  0  0  0  0
  -26.0089  -38.2684   24.1423 H   0  0  0  0  0  0
  -27.2845  -20.1029   20.0567 H   0  0  0  0  0  0
  -27.0356  -23.5193   20.7975 H   0  0  0  0  0  0
  -27.4572  -23.5925   19.1536 H   0  0  0  0  0  0
  -28.4112  -17.1274   19.8810 H   0  0  0  0  0  0
  -28.9175  -17.2542   21.5017 H   0  0  0  0  0  0
  1 25  1  0  0  0
  1 30  2  0  0  0
  1 74  1  0  0  0
  2  3  1  0  0  0
  2 25  1  0  0  0
  2 78  1  0  0  0
  2 79  1  0  0  0
  3  4  1  0  0  0
  3 80  1  0  0  0
  3 81  1  0  0  0
  4  5  1  0  0  0
  4 82  1  0  0  0
  4 83  1  0  0  0
  5  6  1  0  0  0
  5 26  1  0  0  0
  5 84  1  0  0  0
  6 25  1  0  0  0
  6 85  1  0  0  0
  6 86  1  0  0  0
  7  8  2  0  0  0
  7 26  1  0  0  0
  7 29  1  0  0  0
  8  9  1  0  0  0
  8 22  1  0  0  0
  9 10  1  0  0  0
  9 27  2  0  0  0
 10 11  2  0  0  0
 10 15  1  0  0  0
 11 12  1  0  0  0
 11 87  1  0  0  0
 12 13  2  0  0  0
 12 88  1  0  0  0
 13 14  1  0  0  0
 13 31  1  0  0  0
 14 15  2  0  0  0
 14 89  1  0  0  0
 15 90  1  0  0  0
 16 17  2  0  0  0
 16 21  1  0  0  0
 16 31  1  0  0  0
 17 18  1  0  0  0
 17 91  1  0  0  0
 18 19  2  0  0  0
 18 92  1  0  0  0
 19 20  1  0  0  0
 19 24  1  0  0  0
 20 21  2  0  0  0
 20 93  1  0  0  0
 21 23  1  0  0  0
 22 28  1  0  0  0
 22 32  2  0  0  0
 26 27  1  0  0  0
 28 94  1  0  0  0
 28 95  1  0  0  0
 29 96  1  0  0  0
 29 97  1  0  0  0
 33 34  1  0  0  0
 33 66  1  0  0  0
 33 70  2  0  0  0
 34 36  1  0  0  0
 34 59  1  0  0  0
 34 98  1  0  0  0
 35 44  2  0  0  0
 35 45  1  0  0  0
 35 68  1  0  0  0
 36 56  1  0  0  0
 36 99  1  0  0  0
 37 39  1  0  0  0
 37 47  1  0  0  0
 37 66  1  0  0  0
 37100  1  0  0  0
 38 43  2  0  0  0
 38 46  1  0  0  0
 38 47  1  0  0  0
 39 64  1  0  0  0
 39 67  2  0  0  0
 40 52  1  0  0  0
 40 53  2  0  0  0
 40 58  1  0  0  0
 41101  1  0  0  0
 41102  1  0  0  0
 41103  1  0  0  0
 41 48  1  0  0  0
 42 43  1  0  0  0
 42 66  1  0  0  0
 42104  1  0  0  0
 42105  1  0  0  0
 43 44  1  0  0  0
 44106  1  0  0  0
 45 46  2  0  0  0
 45107  1  0  0  0
 46108  1  0  0  0
 47109  1  0  0  0
 47110  1  0  0  0
 48 56  1  0  0  0
 48 65  1  0  0  0
 48111  1  0  0  0
 49 50  1  0  0  0
 49 53  1  0  0  0
 49 64  1  0  0  0
 49112  1  0  0  0
 50 51  1  0  0  0
 50113  1  0  0  0
 50114  1  0  0  0
 51 52  1  0  0  0
 51115  1  0  0  0
 51116  1  0  0  0
 52117  1  0  0  0
 52118  1  0  0  0
 53 54  1  0  0  0
 54 55  2  0  0  0
 54119  1  0  0  0
 55 57  1  0  0  0
 55120  1  0  0  0
 56 69  2  0  0  0
 57 58  2  0  0  0
 57121  1  0  0  0
 58122  1  0  0  0
 59 60  1  0  0  0
 59 61  1  0  0  0
 59 62  1  0  0  0
 60123  1  0  0  0
 60124  1  0  0  0
 60125  1  0  0  0
 61126  1  0  0  0
 61127  1  0  0  0
 61128  1  0  0  0
 62129  1  0  0  0
 62130  1  0  0  0
 62131  1  0  0  0
 63 65  1  0  0  0
 63132  1  0  0  0
 63133  1  0  0  0
 63134  1  0  0  0
 64135  1  0  0  0
 65136  1  0  0  0
 68 73  1  0  0  0
 71 72  2  0  0  0
 71 77  1  0  0  0
 71137  1  0  0  0
 72 73  1  0  0  0
 72 75  1  0  0  0
 73138  1  0  0  0
 73139  1  0  0  0
 74 77  1  0  0  0
 74140  1  0  0  0
 74141  1  0  0  0
 75 76  2  0  0  0
 76 77  1  0  0  0
M  ISO  4   1 100  68 101  73 101  74 100
M  END
> <chiral flag>
0

> <version>
0

> <s_m_source_file>
/data/baiqing/PycharmProjects/Reinvent-master-3.2/result/LINK_invent/BTK/process_docking_weight1_custom_sum_contain_oxygen_bond_distance_aromatic_linkinvent_7_9_3/rearranged_h_0057.sdf

> <i_m_source_file_index>
86

> <r_mmod_Potential_Energy-OPLS-2005>
2771.24365234375

> <r_mmod_Stretch_Energy-OPLS-2005>
1210.78405761719

> <r_mmod_Bend_Energy-OPLS-2005>
741.419921875

> <r_mmod_Torsional_Energy-OPLS-2005>
191.679443359375

> <r_mmod_Improper_Torsional_Energy-OPLS-2005>
2.64330124855042

> <r_mmod_Van_der_Waal_Energy-OPLS-2005>
106.932884216309

> <r_mmod_Electrostatic_Energy-OPLS-2005>
-286.950469970703

> <r_mmod_Solvation_Energy-OPLS-2005>
-240.889114379883

> <b_mmod_Minimization_Converged-OPLS-2005>
1

> <r_mmod_RMS_Derivative-OPLS-2005>
0.0361950732767582

$$$$
86
                    3D
 Structure written by MMmdl.
148156  0  0  1  0            999 V2000
  -30.4642  -15.2182   20.3734 C   0  0  0  0  0  0
  -30.4352  -12.7762   19.5200 C   0  0  0  0  0  0
  -29.5307  -12.5696   18.2800 C   0  0  0  0  0  0
  -28.0773  -12.3031   18.7081 C   0  0  0  0  0  0
  -27.6122  -13.2733   19.8233 C   0  0  2  0  0  0
  -28.6482  -13.4359   20.9563 C   0  0  0  0  0  0
  -25.2391  -13.8244   20.5744 C   0  0  0  0  0  0
  -24.1742  -13.0434   20.9254 C   0  0  0  0  0  0
  -24.6396  -11.6932   20.8768 C   0  0  0  0  0  0
  -23.9092  -10.4290   21.0404 C   0  0  0  0  0  0
  -24.3636   -9.4205   21.9181 C   0  0  0  0  0  0
  -23.6308   -8.2242   22.0751 C   0  0  0  0  0  0
  -22.4289   -8.0280   21.3543 C   0  0  0  0  0  0
  -21.9930   -9.0255   20.4645 C   0  0  0  0  0  0
  -22.7261  -10.2132   20.3054 C   0  0  0  0  0  0
  -21.6857   -6.0743   22.5279 C   0  0  0  0  0  0
  -21.4017   -6.5648   23.8212 C   0  0  0  0  0  0
  -21.3659   -5.6799   24.9173 C   0  0  0  0  0  0
  -21.6043   -4.3062   24.7223 C   0  0  0  0  0  0
  -21.8819   -3.8152   23.4345 C   0  0  0  0  0  0
  -21.9194   -4.6969   22.3403 C   0  0  0  0  0  0
  -22.7762  -13.5187   21.1911 C   0  0  0  0  0  0
  -22.1664   -4.2156   21.0982 F   0  0  0  0  0  0
  -21.5626   -3.4542   25.7736 F   0  0  0  0  0  0
  -29.8852  -13.9230   20.3276 N   0  0  0  0  0  0
  -26.2817  -12.9518   20.3224 N   0  0  0  0  0  0
  -25.9328  -11.6625   20.5723 N   0  0  0  0  0  0
  -22.0434  -12.8153   22.0464 N   0  0  0  0  0  0
  -25.4012  -15.1978   20.4172 N   0  0  0  0  0  0
  -31.6861  -15.2137   20.1716 O   0  0  0  0  0  0
  -21.6648   -6.8882   21.4240 O   0  0  0  0  0  0
  -22.3435  -14.5485   20.6753 O   0  0  0  0  0  0
  -24.6614  -31.8263   23.1733 C   0  0  0  0  0  0
  -25.9305  -32.4606   23.8184 C   0  0  1  0  0  0
  -27.2138  -26.9510   20.1773 C   0  0  0  0  0  0
  -25.5982  -33.8421   24.2097 N   0  0  0  0  0  0
  -23.4741  -30.4411   21.5213 C   0  0  2  0  0  0
  -24.9271  -28.8361   20.1100 C   0  0  0  0  0  0
  -22.7658  -29.4463   22.4776 C   0  0  0  0  0  0
  -18.0320  -28.1414   22.8478 C   0  0  0  0  0  0
  -24.1484  -36.7210   23.2644 C   0  0  0  0  0  0
  -26.0429  -30.6413   21.3997 C   0  0  0  0  0  0
  -26.1111  -29.2341   20.7430 C   0  0  0  0  0  0
  -27.2500  -28.3121   20.7544 C   0  0  0  0  0  0
  -26.0009  -26.7053   19.4925 C   0  0  0  0  0  0
  -24.8962  -27.5909   19.4650 C   0  0  0  0  0  0
  -23.7136  -29.7619   20.1453 C   0  0  0  0  0  0
  -25.4124  -36.2979   24.0302 C   0  0  1  0  0  0
  -20.5951  -28.3756   23.1189 C   0  0  2  0  0  0
  -20.6797  -26.9439   22.5401 C   0  0  0  0  0  0
  -19.5768  -26.6387   21.5214 C   0  0  0  0  0  0
  -18.1952  -26.7947   22.1628 C   0  0  0  0  0  0
  -19.1588  -28.8901   23.2824 C   0  0  0  0  0  0
  -18.9496  -30.1490   23.8858 C   0  0  0  0  0  0
  -17.6494  -30.6606   24.0558 C   0  0  0  0  0  0
  -25.9099  -34.9362   23.5020 C   0  0  0  0  0  0
  -16.5381  -29.9100   23.6346 C   0  0  0  0  0  0
  -16.7305  -28.6519   23.0369 C   0  0  0  0  0  0
  -26.4557  -31.6549   25.0704 C   0  0  0  0  0  0
  -25.3692  -31.3814   26.1372 C   0  0  0  0  0  0
  -27.0434  -30.2911   24.6428 C   0  0  0  0  0  0
  -27.6044  -32.4359   25.7514 C   0  0  0  0  0  0
  -27.5562  -37.1763   24.8468 C   0  0  0  0  0  0
  -21.4330  -29.3051   22.3532 N   0  0  0  0  0  0
  -26.4268  -37.3721   23.9422 N   0  0  0  0  0  0
  -24.7474  -30.9946   22.0860 N   0  0  0  0  0  0
  -23.4217  -28.8026   23.3004 O   0  0  0  0  0  0
  -28.1993  -25.8380   20.2658 O   0  0  0  0  0  0
  -26.5693  -34.8892   22.4607 O   0  0  0  0  0  0
  -23.5690  -32.1217   23.6844 O   0  0  0  0  0  0
  -29.4290  -21.9727   19.3022 C   0  0  0  0  0  0
  -28.5959  -22.7051   20.2479 C   0  0  0  0  0  0
  -29.3787  -19.6635   20.2996 C   0  0  0  0  0  0
  -28.5228  -20.3765   21.2513 C   0  0  0  0  0  0
  -30.1389  -18.0904   20.3906 C   0  0  0  0  0  0
  -27.8296  -24.2616   20.0276 C   0  0  0  0  0  0
  -27.9751  -19.6024   22.4545 C   0  0  0  0  0  0
  -29.8016  -20.5948   19.3414 N   0  0  0  0  0  0
  -28.1644  -21.7706   21.2047 N   0  0  0  0  0  0
  -29.7193  -16.4908   20.4420 N   0  0  0  0  0  0
  -27.8290  -18.3064   22.1719 F   0  0  0  0  0  0
  -28.8154  -19.7206   23.4830 F   0  0  0  0  0  0
  -26.7830  -20.0766   22.8226 F   0  0  0  0  0  0
  -31.4580  -12.9662   19.1930 H   0  0  0  0  0  0
  -30.4841  -11.8651   20.1191 H   0  0  0  0  0  0
  -29.9011  -11.7451   17.6694 H   0  0  0  0  0  0
  -29.5684  -13.4598   17.6499 H   0  0  0  0  0  0
  -28.0260  -11.2762   19.0724 H   0  0  0  0  0  0
  -27.4079  -12.3565   17.8487 H   0  0  0  0  0  0
  -27.5304  -14.2439   19.3318 H   0  0  0  0  0  0
  -28.8044  -12.5007   21.4969 H   0  0  0  0  0  0
  -28.2965  -14.1648   21.6882 H   0  0  0  0  0  0
  -25.2777   -9.5688   22.4761 H   0  0  0  0  0  0
  -24.0019   -7.4634   22.7468 H   0  0  0  0  0  0
  -21.0862   -8.8770   19.8949 H   0  0  0  0  0  0
  -22.3711  -10.9672   19.6167 H   0  0  0  0  0  0
  -21.2012   -7.6156   23.9717 H   0  0  0  0  0  0
  -21.1481   -6.0531   25.9078 H   0  0  0  0  0  0
  -22.0597   -2.7613   23.2841 H   0  0  0  0  0  0
  -22.4082  -11.9819   22.4838 H   0  0  0  0  0  0
  -21.1042  -13.1139   22.2688 H   0  0  0  0  0  0
  -24.6257  -15.8426   20.5222 H   0  0  0  0  0  0
  -26.2385  -15.6403   20.0638 H   0  0  0  0  0  0
  -26.7374  -32.5151   23.0900 H   0  0  0  0  0  0
  -25.0097  -33.9508   25.0226 H   0  0  0  0  0  0
  -22.7868  -31.2730   21.3535 H   0  0  0  0  0  0
  -23.3758  -35.9529   23.3287 H   0  0  0  0  0  0
  -24.3567  -36.8874   22.2067 H   0  0  0  0  0  0
  -23.7229  -37.6385   23.6712 H   0  0  0  0  0  0
  -26.2195  -31.3847   20.6210 H   0  0  0  0  0  0
  -26.9050  -30.6979   22.0528 H   0  0  0  0  0  0
  -28.1446  -28.6136   21.2805 H   0  0  0  0  0  0
  -25.8601  -25.7567   18.9963 H   0  0  0  0  0  0
  -23.9962  -27.2811   18.9516 H   0  0  0  0  0  0
  -23.8706  -30.5329   19.3902 H   0  0  0  0  0  0
  -22.8228  -29.2186   19.8256 H   0  0  0  0  0  0
  -25.1324  -36.1764   25.0791 H   0  0  0  0  0  0
  -21.0043  -28.3356   24.1314 H   0  0  0  0  0  0
  -20.5666  -26.2382   23.3646 H   0  0  0  0  0  0
  -21.6663  -26.7418   22.1207 H   0  0  0  0  0  0
  -19.6928  -25.6284   21.1274 H   0  0  0  0  0  0
  -19.6695  -27.3167   20.6720 H   0  0  0  0  0  0
  -17.4217  -26.6690   21.4036 H   0  0  0  0  0  0
  -18.0347  -26.0098   22.9037 H   0  0  0  0  0  0
  -19.7971  -30.7317   24.2208 H   0  0  0  0  0  0
  -17.5050  -31.6277   24.5172 H   0  0  0  0  0  0
  -15.5381  -30.2995   23.7692 H   0  0  0  0  0  0
  -15.8707  -28.0823   22.7121 H   0  0  0  0  0  0
  -24.5873  -30.7159   25.7702 H   0  0  0  0  0  0
  -24.8874  -32.3020   26.4672 H   0  0  0  0  0  0
  -25.7924  -30.9070   27.0234 H   0  0  0  0  0  0
  -26.3089  -29.6605   24.1400 H   0  0  0  0  0  0
  -27.3931  -29.7265   25.5081 H   0  0  0  0  0  0
  -27.9057  -30.4096   23.9862 H   0  0  0  0  0  0
  -27.2606  -33.3712   26.1950 H   0  0  0  0  0  0
  -28.3931  -32.6836   25.0398 H   0  0  0  0  0  0
  -28.0622  -31.8571   26.5551 H   0  0  0  0  0  0
  -28.2566  -38.0070   24.7513 H   0  0  0  0  0  0
  -28.1063  -36.2597   24.6287 H   0  0  0  0  0  0
  -27.2282  -37.1399   25.8871 H   0  0  0  0  0  0
  -20.9572  -29.8761   21.6681 H   0  0  0  0  0  0
  -26.0104  -38.2772   24.1438 H   0  0  0  0  0  0
  -29.7842  -22.5025   18.4302 H   0  0  0  0  0  0
  -30.7784  -18.1950   21.2671 H   0  0  0  0  0  0
  -30.8463  -18.1174   19.5618 H   0  0  0  0  0  0
  -26.8819  -24.1404   20.5526 H   0  0  0  0  0  0
  -27.5572  -24.2280   18.9730 H   0  0  0  0  0  0
  -28.7254  -16.3501   20.5409 H   0  0  0  0  0  0
  1 25  1  0  0  0
  1 30  2  0  0  0
  1 80  1  0  0  0
  2  3  1  0  0  0
  2 25  1  0  0  0
  2 84  1  0  0  0
  2 85  1  0  0  0
  3  4  1  0  0  0
  3 86  1  0  0  0
  3 87  1  0  0  0
  4  5  1  0  0  0
  4 88  1  0  0  0
  4 89  1  0  0  0
  5  6  1  0  0  0
  5 26  1  0  0  0
  5 90  1  0  0  0
  6 25  1  0  0  0
  6 91  1  0  0  0
  6 92  1  0  0  0
  7  8  2  0  0  0
  7 26  1  0  0  0
  7 29  1  0  0  0
  8  9  1  0  0  0
  8 22  1  0  0  0
  9 10  1  0  0  0
  9 27  2  0  0  0
 10 11  2  0  0  0
 10 15  1  0  0  0
 11 12  1  0  0  0
 11 93  1  0  0  0
 12 13  2  0  0  0
 12 94  1  0  0  0
 13 14  1  0  0  0
 13 31  1  0  0  0
 14 15  2  0  0  0
 14 95  1  0  0  0
 15 96  1  0  0  0
 16 17  2  0  0  0
 16 21  1  0  0  0
 16 31  1  0  0  0
 17 18  1  0  0  0
 17 97  1  0  0  0
 18 19  2  0  0  0
 18 98  1  0  0  0
 19 20  1  0  0  0
 19 24  1  0  0  0
 20 21  2  0  0  0
 20 99  1  0  0  0
 21 23  1  0  0  0
 22 28  1  0  0  0
 22 32  2  0  0  0
 26 27  1  0  0  0
 28100  1  0  0  0
 28101  1  0  0  0
 29102  1  0  0  0
 29103  1  0  0  0
 33 34  1  0  0  0
 33 66  1  0  0  0
 33 70  2  0  0  0
 34 36  1  0  0  0
 34 59  1  0  0  0
 34104  1  0  0  0
 35 44  2  0  0  0
 35 45  1  0  0  0
 35 68  1  0  0  0
 36 56  1  0  0  0
 36105  1  0  0  0
 37 39  1  0  0  0
 37 47  1  0  0  0
 37 66  1  0  0  0
 37106  1  0  0  0
 38 43  2  0  0  0
 38 46  1  0  0  0
 38 47  1  0  0  0
 39 64  1  0  0  0
 39 67  2  0  0  0
 40 52  1  0  0  0
 40 53  2  0  0  0
 40 58  1  0  0  0
 41107  1  0  0  0
 41108  1  0  0  0
 41109  1  0  0  0
 41 48  1  0  0  0
 42 43  1  0  0  0
 42 66  1  0  0  0
 42110  1  0  0  0
 42111  1  0  0  0
 43 44  1  0  0  0
 44112  1  0  0  0
 45 46  2  0  0  0
 45113  1  0  0  0
 46114  1  0  0  0
 47115  1  0  0  0
 47116  1  0  0  0
 48 56  1  0  0  0
 48 65  1  0  0  0
 48117  1  0  0  0
 49 50  1  0  0  0
 49 53  1  0  0  0
 49 64  1  0  0  0
 49118  1  0  0  0
 50 51  1  0  0  0
 50119  1  0  0  0
 50120  1  0  0  0
 51 52  1  0  0  0
 51121  1  0  0  0
 51122  1  0  0  0
 52123  1  0  0  0
 52124  1  0  0  0
 53 54  1  0  0  0
 54 55  2  0  0  0
 54125  1  0  0  0
 55 57  1  0  0  0
 55126  1  0  0  0
 56 69  2  0  0  0
 57 58  2  0  0  0
 57127  1  0  0  0
 58128  1  0  0  0
 59 60  1  0  0  0
 59 61  1  0  0  0
 59 62  1  0  0  0
 60129  1  0  0  0
 60130  1  0  0  0
 60131  1  0  0  0
 61132  1  0  0  0
 61133  1  0  0  0
 61134  1  0  0  0
 62135  1  0  0  0
 62136  1  0  0  0
 62137  1  0  0  0
 63 65  1  0  0  0
 63138  1  0  0  0
 63139  1  0  0  0
 63140  1  0  0  0
 64141  1  0  0  0
 65142  1  0  0  0
 68 76  1  0  0  0
 71 72  2  0  0  0
 71 78  1  0  0  0
 71143  1  0  0  0
 72 76  1  0  0  0
 72 79  1  0  0  0
 73 74  1  0  0  0
 73 75  1  0  0  0
 73 78  2  0  0  0
 74 77  1  0  0  0
 74 79  2  0  0  0
 75 80  1  0  0  0
 75144  1  0  0  0
 75145  1  0  0  0
 76146  1  0  0  0
 76147  1  0  0  0
 77 81  1  0  0  0
 77 82  1  0  0  0
 77 83  1  0  0  0
 80148  1  0  0  0
M  ISO  4   1 100  68 101  76 101  80 100
M  END
> <chiral flag>
0

> <version>
0

> <s_m_source_file>
/data/baiqing/PycharmProjects/Reinvent-master-3.2/result/LINK_invent/BTK/process_docking_weight1_custom_sum_contain_oxygen_bond_distance_aromatic_linkinvent_7_9_3/rearranged_h_0057.sdf

> <i_m_source_file_index>
87

> <r_mmod_Potential_Energy-OPLS-2005>
1237.81262207031

> <r_mmod_Stretch_Energy-OPLS-2005>
494.474700927734

> <r_mmod_Bend_Energy-OPLS-2005>
429.591644287109

> <r_mmod_Torsional_Energy-OPLS-2005>
221.137710571289

> <r_mmod_Improper_Torsional_Energy-OPLS-2005>
8.54921531677246

> <r_mmod_Van_der_Waal_Energy-OPLS-2005>
133.105606079102

> <r_mmod_Electrostatic_Energy-OPLS-2005>
-246.26496887207

> <r_mmod_Solvation_Energy-OPLS-2005>
-223.39762878418

> <b_mmod_Minimization_Converged-OPLS-2005>
0

> <r_mmod_RMS_Derivative-OPLS-2005>
1.26028895378113

$$$$
87
                    3D
 Structure written by MMmdl.
151159  0  0  1  0            999 V2000
  -30.5803  -14.9356   20.4469 C   0  0  0  0  0  0
  -30.4328  -12.5724   19.5306 C   0  0  0  0  0  0
  -29.5290  -12.5384   18.2751 C   0  0  0  0  0  0
  -28.0594  -12.3291   18.6809 C   0  0  0  0  0  0
  -27.6339  -13.2556   19.8489 C   0  0  2  0  0  0
  -28.6677  -13.2846   20.9948 C   0  0  0  0  0  0
  -25.2469  -13.8231   20.5713 C   0  0  0  0  0  0
  -24.1774  -13.0448   20.9211 C   0  0  0  0  0  0
  -24.6407  -11.6934   20.8741 C   0  0  0  0  0  0
  -23.9086  -10.4304   21.0409 C   0  0  0  0  0  0
  -24.3634   -9.4220   21.9193 C   0  0  0  0  0  0
  -23.6304   -8.2255   22.0758 C   0  0  0  0  0  0
  -22.4286   -8.0287   21.3550 C   0  0  0  0  0  0
  -21.9925   -9.0266   20.4652 C   0  0  0  0  0  0
  -22.7255  -10.2148   20.3068 C   0  0  0  0  0  0
  -21.6865   -6.0737   22.5280 C   0  0  0  0  0  0
  -21.4018   -6.5643   23.8211 C   0  0  0  0  0  0
  -21.3660   -5.6803   24.9176 C   0  0  0  0  0  0
  -21.6043   -4.3061   24.7231 C   0  0  0  0  0  0
  -21.8816   -3.8148   23.4354 C   0  0  0  0  0  0
  -21.9195   -4.6962   22.3408 C   0  0  0  0  0  0
  -22.7803  -13.5207   21.1890 C   0  0  0  0  0  0
  -22.1662   -4.2148   21.0987 F   0  0  0  0  0  0
  -21.5636   -3.4547   25.7744 F   0  0  0  0  0  0
  -29.9607  -13.6796   20.4203 N   0  0  0  0  0  0
  -26.2902  -12.9486   20.3277 N   0  0  0  0  0  0
  -25.9346  -11.6602   20.5737 N   0  0  0  0  0  0
  -22.0462  -12.8190   22.0443 N   0  0  0  0  0  0
  -25.4139  -15.1962   20.4166 N   0  0  0  0  0  0
  -31.7423  -14.9827   20.0194 O   0  0  0  0  0  0
  -21.6656   -6.8881   21.4237 O   0  0  0  0  0  0
  -22.3480  -14.5537   20.6767 O   0  0  0  0  0  0
  -24.6419  -31.8431   23.1831 C   0  0  0  0  0  0
  -25.9196  -32.4675   23.8240 C   0  0  1  0  0  0
  -27.2449  -27.1488   20.1665 C   0  0  0  0  0  0
  -25.5953  -33.8483   24.2165 N   0  0  0  0  0  0
  -23.4484  -30.4550   21.5255 C   0  0  2  0  0  0
  -24.9062  -28.8766   20.1087 C   0  0  0  0  0  0
  -22.7573  -29.4536   22.4831 C   0  0  0  0  0  0
  -18.0316  -28.1401   22.8484 C   0  0  0  0  0  0
  -24.1485  -36.7247   23.2639 C   0  0  0  0  0  0
  -26.0005  -30.7227   21.3807 C   0  0  0  0  0  0
  -26.0748  -29.3322   20.7272 C   0  0  0  0  0  0
  -27.2390  -28.4816   20.7430 C   0  0  0  0  0  0
  -26.0522  -26.7873   19.5043 C   0  0  0  0  0  0
  -24.9057  -27.6171   19.4833 C   0  0  0  0  0  0
  -23.6777  -29.7717   20.1489 C   0  0  0  0  0  0
  -25.4118  -36.3019   24.0306 C   0  0  1  0  0  0
  -20.5928  -28.3731   23.1232 C   0  0  2  0  0  0
  -20.6798  -26.9425   22.5410 C   0  0  0  0  0  0
  -19.5772  -26.6377   21.5224 C   0  0  0  0  0  0
  -18.1949  -26.7942   22.1623 C   0  0  0  0  0  0
  -19.1574  -28.8885   23.2850 C   0  0  0  0  0  0
  -18.9484  -30.1482   23.8873 C   0  0  0  0  0  0
  -17.6479  -30.6590   24.0568 C   0  0  0  0  0  0
  -25.9066  -34.9392   23.5046 C   0  0  0  0  0  0
  -16.5369  -29.9091   23.6337 C   0  0  0  0  0  0
  -16.7306  -28.6513   23.0359 C   0  0  0  0  0  0
  -26.4506  -31.6556   25.0692 C   0  0  0  0  0  0
  -25.3678  -31.3760   26.1381 C   0  0  0  0  0  0
  -27.0384  -30.2948   24.6298 C   0  0  0  0  0  0
  -27.6055  -32.4325   25.7470 C   0  0  0  0  0  0
  -27.5569  -37.1773   24.8465 C   0  0  0  0  0  0
  -21.4266  -29.3048   22.3586 N   0  0  0  0  0  0
  -26.4282  -37.3728   23.9399 N   0  0  0  0  0  0
  -24.7153  -31.0298   22.0846 N   0  0  0  0  0  0
  -23.4223  -28.8103   23.2987 O   0  0  0  0  0  0
  -28.3233  -26.2055   20.3186 O   0  0  0  0  0  0
  -26.5652  -34.8902   22.4625 O   0  0  0  0  0  0
  -23.5534  -32.1312   23.7040 O   0  0  0  0  0  0
  -29.9125  -16.4073   20.9482 C   0  0  0  0  0  0
  -29.3207  -17.6145   22.7638 C   0  0  0  0  0  0
  -29.4254  -18.7731   20.8358 C   0  0  0  0  0  0
  -29.0772  -17.6405   24.2600 C   0  0  0  0  0  0
  -28.9716  -20.1846   20.0980 C   0  0  0  0  0  0
  -29.2658  -21.7668   20.6333 C   0  0  0  0  0  0
  -28.3759  -23.2068   20.3584 C   0  0  0  0  0  0
  -28.4780  -24.7842   19.7079 C   0  0  0  0  0  0
  -29.6531  -16.4336   22.2540 N   0  0  0  0  0  0
  -29.8031  -17.5896   20.1947 N   0  0  0  0  0  0
  -29.1780  -18.7802   22.1376 N   0  0  0  0  0  0
  -31.4758  -12.6923   19.2331 H   0  0  0  0  0  0
  -30.3883  -11.6139   20.0517 H   0  0  0  0  0  0
  -29.8478  -11.7456   17.5970 H   0  0  0  0  0  0
  -29.6307  -13.4738   17.7227 H   0  0  0  0  0  0
  -27.9471  -11.2858   18.9784 H   0  0  0  0  0  0
  -27.4028  -12.4745   17.8233 H   0  0  0  0  0  0
  -27.6019  -14.2603   19.4281 H   0  0  0  0  0  0
  -28.7368  -12.3126   21.4860 H   0  0  0  0  0  0
  -28.3589  -13.9919   21.7650 H   0  0  0  0  0  0
  -25.2775   -9.5711   22.4773 H   0  0  0  0  0  0
  -24.0019   -7.4651   22.7483 H   0  0  0  0  0  0
  -21.0858   -8.8784   19.8959 H   0  0  0  0  0  0
  -22.3699  -10.9692   19.6187 H   0  0  0  0  0  0
  -21.2003   -7.6151   23.9711 H   0  0  0  0  0  0
  -21.1487   -6.0535   25.9078 H   0  0  0  0  0  0
  -22.0589   -2.7611   23.2860 H   0  0  0  0  0  0
  -22.4074  -11.9830   22.4797 H   0  0  0  0  0  0
  -21.1090  -13.1217   22.2685 H   0  0  0  0  0  0
  -24.6458  -15.8468   20.5385 H   0  0  0  0  0  0
  -26.2638  -15.6431   20.0969 H   0  0  0  0  0  0
  -26.7261  -32.5293   23.0970 H   0  0  0  0  0  0
  -25.0113  -33.9579   25.0327 H   0  0  0  0  0  0
  -22.7502  -31.2786   21.3598 H   0  0  0  0  0  0
  -23.3739  -35.9582   23.3303 H   0  0  0  0  0  0
  -24.3559  -36.8884   22.2050 H   0  0  0  0  0  0
  -23.7245  -37.6440   23.6683 H   0  0  0  0  0  0
  -26.1592  -31.4776   20.6089 H   0  0  0  0  0  0
  -26.8687  -30.7737   22.0265 H   0  0  0  0  0  0
  -28.1261  -28.8285   21.2546 H   0  0  0  0  0  0
  -25.9726  -25.8138   19.0448 H   0  0  0  0  0  0
  -24.0086  -27.2554   19.0004 H   0  0  0  0  0  0
  -23.8104  -30.5411   19.3879 H   0  0  0  0  0  0
  -22.7991  -29.2011   19.8417 H   0  0  0  0  0  0
  -25.1292  -36.1837   25.0789 H   0  0  0  0  0  0
  -21.0036  -28.3339   24.1353 H   0  0  0  0  0  0
  -20.5714  -26.2335   23.3630 H   0  0  0  0  0  0
  -21.6657  -26.7439   22.1190 H   0  0  0  0  0  0
  -19.6942  -25.6284   21.1271 H   0  0  0  0  0  0
  -19.6724  -27.3184   20.6750 H   0  0  0  0  0  0
  -17.4226  -26.6716   21.4016 H   0  0  0  0  0  0
  -18.0335  -26.0077   22.9007 H   0  0  0  0  0  0
  -19.7960  -30.7314   24.2224 H   0  0  0  0  0  0
  -17.5029  -31.6270   24.5174 H   0  0  0  0  0  0
  -15.5369  -30.2982   23.7669 H   0  0  0  0  0  0
  -15.8708  -28.0823   22.7080 H   0  0  0  0  0  0
  -24.5889  -30.7070   25.7701 H   0  0  0  0  0  0
  -24.8819  -32.2938   26.4692 H   0  0  0  0  0  0
  -25.7938  -30.9018   27.0234 H   0  0  0  0  0  0
  -26.3018  -29.6643   24.1301 H   0  0  0  0  0  0
  -27.3991  -29.7267   25.4881 H   0  0  0  0  0  0
  -27.8920  -30.4147   23.9618 H   0  0  0  0  0  0
  -27.2676  -33.3686   26.1915 H   0  0  0  0  0  0
  -28.3916  -32.6782   25.0320 H   0  0  0  0  0  0
  -28.0649  -31.8530   26.5472 H   0  0  0  0  0  0
  -28.2574  -38.0080   24.7501 H   0  0  0  0  0  0
  -28.1076  -36.2604   24.6304 H   0  0  0  0  0  0
  -27.2291  -37.1439   25.8871 H   0  0  0  0  0  0
  -20.9481  -29.8726   21.6732 H   0  0  0  0  0  0
  -26.0149  -38.2795   24.1406 H   0  0  0  0  0  0
  -29.4333  -16.7262   24.7339 H   0  0  0  0  0  0
  -28.0138  -17.7390   24.4740 H   0  0  0  0  0  0
  -29.5988  -18.4758   24.7279 H   0  0  0  0  0  0
  -27.8915  -20.0909   19.9965 H   0  0  0  0  0  0
  -29.3467  -20.1188   19.0768 H   0  0  0  0  0  0
  -30.3174  -21.9717   20.4244 H   0  0  0  0  0  0
  -29.2436  -21.6532   21.7177 H   0  0  0  0  0  0
  -28.5954  -22.9240   19.3267 H   0  0  0  0  0  0
  -29.0693  -23.6324   21.0844 H   0  0  0  0  0  0
  -27.8847  -24.8050   18.7959 H   0  0  0  0  0  0
  -29.4986  -24.8510   19.3272 H   0  0  0  0  0  0
  1 25  1  0  0  0
  1 30  2  0  0  0
  1 71  1  0  0  0
  2  3  1  0  0  0
  2 25  1  0  0  0
  2 82  1  0  0  0
  2 83  1  0  0  0
  3  4  1  0  0  0
  3 84  1  0  0  0
  3 85  1  0  0  0
  4  5  1  0  0  0
  4 86  1  0  0  0
  4 87  1  0  0  0
  5  6  1  0  0  0
  5 26  1  0  0  0
  5 88  1  0  0  0
  6 25  1  0  0  0
  6 89  1  0  0  0
  6 90  1  0  0  0
  7  8  2  0  0  0
  7 26  1  0  0  0
  7 29  1  0  0  0
  8  9  1  0  0  0
  8 22  1  0  0  0
  9 10  1  0  0  0
  9 27  2  0  0  0
 10 11  2  0  0  0
 10 15  1  0  0  0
 11 12  1  0  0  0
 11 91  1  0  0  0
 12 13  2  0  0  0
 12 92  1  0  0  0
 13 14  1  0  0  0
 13 31  1  0  0  0
 14 15  2  0  0  0
 14 93  1  0  0  0
 15 94  1  0  0  0
 16 17  2  0  0  0
 16 21  1  0  0  0
 16 31  1  0  0  0
 17 18  1  0  0  0
 17 95  1  0  0  0
 18 19  2  0  0  0
 18 96  1  0  0  0
 19 20  1  0  0  0
 19 24  1  0  0  0
 20 21  2  0  0  0
 20 97  1  0  0  0
 21 23  1  0  0  0
 22 28  1  0  0  0
 22 32  2  0  0  0
 26 27  1  0  0  0
 28 98  1  0  0  0
 28 99  1  0  0  0
 29100  1  0  0  0
 29101  1  0  0  0
 33 34  1  0  0  0
 33 66  1  0  0  0
 33 70  2  0  0  0
 34 36  1  0  0  0
 34 59  1  0  0  0
 34102  1  0  0  0
 35 44  2  0  0  0
 35 45  1  0  0  0
 35 68  1  0  0  0
 36 56  1  0  0  0
 36103  1  0  0  0
 37 39  1  0  0  0
 37 47  1  0  0  0
 37 66  1  0  0  0
 37104  1  0  0  0
 38 43  2  0  0  0
 38 46  1  0  0  0
 38 47  1  0  0  0
 39 64  1  0  0  0
 39 67  2  0  0  0
 40 52  1  0  0  0
 40 53  2  0  0  0
 40 58  1  0  0  0
 41105  1  0  0  0
 41106  1  0  0  0
 41107  1  0  0  0
 41 48  1  0  0  0
 42 43  1  0  0  0
 42 66  1  0  0  0
 42108  1  0  0  0
 42109  1  0  0  0
 43 44  1  0  0  0
 44110  1  0  0  0
 45 46  2  0  0  0
 45111  1  0  0  0
 46112  1  0  0  0
 47113  1  0  0  0
 47114  1  0  0  0
 48 56  1  0  0  0
 48 65  1  0  0  0
 48115  1  0  0  0
 49 50  1  0  0  0
 49 53  1  0  0  0
 49 64  1  0  0  0
 49116  1  0  0  0
 50 51  1  0  0  0
 50117  1  0  0  0
 50118  1  0  0  0
 51 52  1  0  0  0
 51119  1  0  0  0
 51120  1  0  0  0
 52121  1  0  0  0
 52122  1  0  0  0
 53 54  1  0  0  0
 54 55  2  0  0  0
 54123  1  0  0  0
 55 57  1  0  0  0
 55124  1  0  0  0
 56 69  2  0  0  0
 57 58  2  0  0  0
 57125  1  0  0  0
 58126  1  0  0  0
 59 60  1  0  0  0
 59 61  1  0  0  0
 59 62  1  0  0  0
 60127  1  0  0  0
 60128  1  0  0  0
 60129  1  0  0  0
 61130  1  0  0  0
 61131  1  0  0  0
 61132  1  0  0  0
 62133  1  0  0  0
 62134  1  0  0  0
 62135  1  0  0  0
 63 65  1  0  0  0
 63136  1  0  0  0
 63137  1  0  0  0
 63138  1  0  0  0
 64139  1  0  0  0
 65140  1  0  0  0
 68 78  1  0  0  0
 71 79  1  0  0  0
 71 80  2  0  0  0
 72 74  1  0  0  0
 72 79  2  0  0  0
 72 81  1  0  0  0
 73 75  1  0  0  0
 73 80  1  0  0  0
 73 81  2  0  0  0
 74141  1  0  0  0
 74142  1  0  0  0
 74143  1  0  0  0
 75 76  1  0  0  0
 75144  1  0  0  0
 75145  1  0  0  0
 76 77  1  0  0  0
 76146  1  0  0  0
 76147  1  0  0  0
 77 78  1  0  0  0
 77148  1  0  0  0
 77149  1  0  0  0
 78150  1  0  0  0
 78151  1  0  0  0
M  ISO  4   1 100  68 101  71 100  78 101
M  END
> <chiral flag>
0

> <version>
0

> <s_m_source_file>
/data/baiqing/PycharmProjects/Reinvent-master-3.2/result/LINK_invent/BTK/process_docking_weight1_custom_sum_contain_oxygen_bond_distance_aromatic_linkinvent_7_9_3/rearranged_h_0057.sdf

> <i_m_source_file_index>
88

> <r_mmod_Potential_Energy-OPLS-2005>
285.284362792969

> <r_mmod_Stretch_Energy-OPLS-2005>
294.014068603516

> <r_mmod_Bend_Energy-OPLS-2005>
530.831848144531

> <r_mmod_Torsional_Energy-OPLS-2005>
157.885314941406

> <r_mmod_Improper_Torsional_Energy-OPLS-2005>
4.16959714889526

> <r_mmod_Van_der_Waal_Energy-OPLS-2005>
147.956298828125

> <r_mmod_Electrostatic_Energy-OPLS-2005>
-812.745483398438

> <r_mmod_Solvation_Energy-OPLS-2005>
-218.322662353516

> <b_mmod_Minimization_Converged-OPLS-2005>
0

> <r_mmod_RMS_Derivative-OPLS-2005>
2.67496228218079

$$$$
88
                    3D
 Structure written by MMmdl.
149157  0  0  1  0            999 V2000
  -30.5127  -15.0417   20.3936 C   0  0  0  0  0  0
  -30.4349  -12.6485   19.5116 C   0  0  0  0  0  0
  -29.5261  -12.5433   18.2646 C   0  0  0  0  0  0
  -28.0575  -12.3240   18.6728 C   0  0  0  0  0  0
  -27.6198  -13.2616   19.8291 C   0  0  2  0  0  0
  -28.6578  -13.3326   20.9676 C   0  0  0  0  0  0
  -25.2433  -13.8246   20.5725 C   0  0  0  0  0  0
  -24.1764  -13.0456   20.9237 C   0  0  0  0  0  0
  -24.6384  -11.6939   20.8727 C   0  0  0  0  0  0
  -23.9076  -10.4299   21.0388 C   0  0  0  0  0  0
  -24.3625   -9.4221   21.9166 C   0  0  0  0  0  0
  -23.6308   -8.2254   22.0744 C   0  0  0  0  0  0
  -22.4288   -8.0284   21.3546 C   0  0  0  0  0  0
  -21.9922   -9.0255   20.4642 C   0  0  0  0  0  0
  -22.7246  -10.2137   20.3052 C   0  0  0  0  0  0
  -21.6860   -6.0728   22.5275 C   0  0  0  0  0  0
  -21.4016   -6.5633   23.8204 C   0  0  0  0  0  0
  -21.3663   -5.6790   24.9172 C   0  0  0  0  0  0
  -21.6048   -4.3053   24.7217 C   0  0  0  0  0  0
  -21.8827   -3.8141   23.4340 C   0  0  0  0  0  0
  -21.9210   -4.6959   22.3399 C   0  0  0  0  0  0
  -22.7784  -13.5210   21.1889 C   0  0  0  0  0  0
  -22.1679   -4.2146   21.0969 F   0  0  0  0  0  0
  -21.5638   -3.4533   25.7728 F   0  0  0  0  0  0
  -29.9202  -13.7699   20.3604 N   0  0  0  0  0  0
  -26.2837  -12.9485   20.3197 N   0  0  0  0  0  0
  -25.9309  -11.6602   20.5676 N   0  0  0  0  0  0
  -22.0436  -12.8194   22.0434 N   0  0  0  0  0  0
  -25.4128  -15.1983   20.4190 N   0  0  0  0  0  0
  -31.7267  -15.0605   20.1603 O   0  0  0  0  0  0
  -21.6660   -6.8879   21.4240 O   0  0  0  0  0  0
  -22.3462  -14.5508   20.6726 O   0  0  0  0  0  0
  -24.6493  -31.8369   23.1805 C   0  0  0  0  0  0
  -25.9232  -32.4649   23.8227 C   0  0  1  0  0  0
  -27.2136  -27.0581   20.1659 C   0  0  0  0  0  0
  -25.5950  -33.8462   24.2134 N   0  0  0  0  0  0
  -23.4566  -30.4526   21.5274 C   0  0  2  0  0  0
  -24.9081  -28.8628   20.1113 C   0  0  0  0  0  0
  -22.7599  -29.4511   22.4840 C   0  0  0  0  0  0
  -18.0308  -28.1398   22.8484 C   0  0  0  0  0  0
  -24.1497  -36.7228   23.2647 C   0  0  0  0  0  0
  -26.0185  -30.6833   21.3945 C   0  0  0  0  0  0
  -26.0871  -29.2871   20.7370 C   0  0  0  0  0  0
  -27.2386  -28.4016   20.7452 C   0  0  0  0  0  0
  -26.0102  -26.7543   19.4944 C   0  0  0  0  0  0
  -24.8875  -27.6132   19.4730 C   0  0  0  0  0  0
  -23.6873  -29.7728   20.1507 C   0  0  0  0  0  0
  -25.4137  -36.3001   24.0310 C   0  0  1  0  0  0
  -20.5924  -28.3725   23.1231 C   0  0  2  0  0  0
  -20.6786  -26.9420   22.5411 C   0  0  0  0  0  0
  -19.5761  -26.6382   21.5218 C   0  0  0  0  0  0
  -18.1943  -26.7937   22.1624 C   0  0  0  0  0  0
  -19.1564  -28.8886   23.2845 C   0  0  0  0  0  0
  -18.9478  -30.1487   23.8865 C   0  0  0  0  0  0
  -17.6474  -30.6601   24.0556 C   0  0  0  0  0  0
  -25.9086  -34.9386   23.5035 C   0  0  0  0  0  0
  -16.5369  -29.9084   23.6347 C   0  0  0  0  0  0
  -16.7293  -28.6500   23.0375 C   0  0  0  0  0  0
  -26.4538  -31.6549   25.0702 C   0  0  0  0  0  0
  -25.3699  -31.3760   26.1377 C   0  0  0  0  0  0
  -27.0420  -30.2931   24.6347 C   0  0  0  0  0  0
  -27.6048  -32.4340   25.7492 C   0  0  0  0  0  0
  -27.5582  -37.1770   24.8465 C   0  0  0  0  0  0
  -21.4285  -29.3042   22.3588 N   0  0  0  0  0  0
  -26.4290  -37.3726   23.9406 N   0  0  0  0  0  0
  -24.7280  -31.0156   22.0872 N   0  0  0  0  0  0
  -23.4216  -28.8081   23.3027 O   0  0  0  0  0  0
  -28.2459  -26.0290   20.2436 O   0  0  0  0  0  0
  -26.5700  -34.8899   22.4630 O   0  0  0  0  0  0
  -23.5595  -32.1289   23.6979 O   0  0  0  0  0  0
  -27.9268  -19.5720   20.5108 C   0  0  0  0  0  0
  -29.3184  -19.2626   20.3201 C   0  0  0  0  0  0
  -30.6092  -17.8062   18.6586 C   0  0  0  0  0  0
  -29.0430  -23.1401   20.4374 C   0  0  0  0  0  0
  -27.9886  -24.4617   20.0844 C   0  0  0  0  0  0
  -30.1544  -17.8041   20.1301 C   0  0  2  0  0  0
  -27.6432  -20.8834   20.5304 N   0  0  0  0  0  0
  -29.8501  -20.5236   20.2311 N   0  0  0  0  0  0
  -28.8276  -21.5363   20.3243 N   0  0  0  0  0  0
  -29.7589  -16.2743   20.4581 N   0  0  0  0  0  0
  -31.4673  -12.8122   19.1983 H   0  0  0  0  0  0
  -30.4405  -11.7101   20.0701 H   0  0  0  0  0  0
  -29.8600  -11.7332   17.6157 H   0  0  0  0  0  0
  -29.6114  -13.4601   17.6791 H   0  0  0  0  0  0
  -27.9476  -11.2826   18.9766 H   0  0  0  0  0  0
  -27.4055  -12.4570   17.8085 H   0  0  0  0  0  0
  -27.5685  -14.2558   19.3841 H   0  0  0  0  0  0
  -28.7640  -12.3661   21.4620 H   0  0  0  0  0  0
  -28.3395  -14.0416   21.7336 H   0  0  0  0  0  0
  -25.2764   -9.5707   22.4740 H   0  0  0  0  0  0
  -24.0026   -7.4645   22.7457 H   0  0  0  0  0  0
  -21.0862   -8.8764   19.8931 H   0  0  0  0  0  0
  -22.3697  -10.9673   19.6159 H   0  0  0  0  0  0
  -21.1989   -7.6136   23.9707 H   0  0  0  0  0  0
  -21.1487   -6.0510   25.9070 H   0  0  0  0  0  0
  -22.0602   -2.7600   23.2837 H   0  0  0  0  0  0
  -22.4065  -11.9877   22.4862 H   0  0  0  0  0  0
  -21.1035  -13.1193   22.2584 H   0  0  0  0  0  0
  -24.6503  -15.8559   20.5418 H   0  0  0  0  0  0
  -26.2553  -15.6339   20.0668 H   0  0  0  0  0  0
  -26.7295  -32.5231   23.0947 H   0  0  0  0  0  0
  -25.0045  -33.9574   25.0244 H   0  0  0  0  0  0
  -22.7611  -31.2791   21.3648 H   0  0  0  0  0  0
  -23.3774  -35.9539   23.3285 H   0  0  0  0  0  0
  -24.3572  -36.8893   22.2061 H   0  0  0  0  0  0
  -23.7236  -37.6405   23.6715 H   0  0  0  0  0  0
  -26.1890  -31.4333   20.6208 H   0  0  0  0  0  0
  -26.8813  -30.7335   22.0460 H   0  0  0  0  0  0
  -28.1311  -28.7180   21.2665 H   0  0  0  0  0  0
  -25.9046  -25.7989   19.0029 H   0  0  0  0  0  0
  -23.9896  -27.2851   18.9686 H   0  0  0  0  0  0
  -23.8269  -30.5409   19.3893 H   0  0  0  0  0  0
  -22.8009  -29.2146   19.8415 H   0  0  0  0  0  0
  -25.1330  -36.1811   25.0801 H   0  0  0  0  0  0
  -21.0018  -28.3330   24.1355 H   0  0  0  0  0  0
  -20.5669  -26.2351   23.3644 H   0  0  0  0  0  0
  -21.6656  -26.7416   22.1222 H   0  0  0  0  0  0
  -19.6918  -25.6284   21.1273 H   0  0  0  0  0  0
  -19.6700  -27.3186   20.6741 H   0  0  0  0  0  0
  -17.4214  -26.6708   21.4022 H   0  0  0  0  0  0
  -18.0320  -26.0082   22.9013 H   0  0  0  0  0  0
  -19.7958  -30.7309   24.2224 H   0  0  0  0  0  0
  -17.5027  -31.6277   24.5154 H   0  0  0  0  0  0
  -15.5366  -30.2967   23.7689 H   0  0  0  0  0  0
  -15.8698  -28.0799   22.7116 H   0  0  0  0  0  0
  -24.5851  -30.7156   25.7669 H   0  0  0  0  0  0
  -24.8935  -32.2960   26.4772 H   0  0  0  0  0  0
  -25.7952  -30.8915   27.0176 H   0  0  0  0  0  0
  -26.3065  -29.6632   24.1332 H   0  0  0  0  0  0
  -27.3975  -29.7253   25.4955 H   0  0  0  0  0  0
  -27.8997  -30.4140   23.9727 H   0  0  0  0  0  0
  -27.2608  -33.3638   26.2038 H   0  0  0  0  0  0
  -28.3874  -32.6916   25.0339 H   0  0  0  0  0  0
  -28.0713  -31.8498   26.5435 H   0  0  0  0  0  0
  -28.2582  -38.0085   24.7519 H   0  0  0  0  0  0
  -28.1101  -36.2614   24.6283 H   0  0  0  0  0  0
  -27.2303  -37.1394   25.8869 H   0  0  0  0  0  0
  -20.9511  -29.8722   21.6728 H   0  0  0  0  0  0
  -26.0150  -38.2790   24.1408 H   0  0  0  0  0  0
  -27.1249  -18.8541   20.6183 H   0  0  0  0  0  0
  -31.1239  -18.7340   18.4072 H   0  0  0  0  0  0
  -29.7542  -17.7165   17.9880 H   0  0  0  0  0  0
  -31.2990  -16.9957   18.4281 H   0  0  0  0  0  0
  -29.3468  -23.2953   21.4727 H   0  0  0  0  0  0
  -29.9510  -23.3363   19.8684 H   0  0  0  0  0  0
  -27.0713  -24.2648   20.6403 H   0  0  0  0  0  0
  -27.7101  -24.3285   19.0379 H   0  0  0  0  0  0
  -31.0634  -17.9254   20.7206 H   0  0  0  0  0  0
  -28.7808  -16.1394   20.6603 H   0  0  0  0  0  0
  1 25  1  0  0  0
  1 30  2  0  0  0
  1 80  1  0  0  0
  2  3  1  0  0  0
  2 25  1  0  0  0
  2 81  1  0  0  0
  2 82  1  0  0  0
  3  4  1  0  0  0
  3 83  1  0  0  0
  3 84  1  0  0  0
  4  5  1  0  0  0
  4 85  1  0  0  0
  4 86  1  0  0  0
  5  6  1  0  0  0
  5 26  1  0  0  0
  5 87  1  0  0  0
  6 25  1  0  0  0
  6 88  1  0  0  0
  6 89  1  0  0  0
  7  8  2  0  0  0
  7 26  1  0  0  0
  7 29  1  0  0  0
  8  9  1  0  0  0
  8 22  1  0  0  0
  9 10  1  0  0  0
  9 27  2  0  0  0
 10 11  2  0  0  0
 10 15  1  0  0  0
 11 12  1  0  0  0
 11 90  1  0  0  0
 12 13  2  0  0  0
 12 91  1  0  0  0
 13 14  1  0  0  0
 13 31  1  0  0  0
 14 15  2  0  0  0
 14 92  1  0  0  0
 15 93  1  0  0  0
 16 17  2  0  0  0
 16 21  1  0  0  0
 16 31  1  0  0  0
 17 18  1  0  0  0
 17 94  1  0  0  0
 18 19  2  0  0  0
 18 95  1  0  0  0
 19 20  1  0  0  0
 19 24  1  0  0  0
 20 21  2  0  0  0
 20 96  1  0  0  0
 21 23  1  0  0  0
 22 28  1  0  0  0
 22 32  2  0  0  0
 26 27  1  0  0  0
 28 97  1  0  0  0
 28 98  1  0  0  0
 29 99  1  0  0  0
 29100  1  0  0  0
 33 34  1  0  0  0
 33 66  1  0  0  0
 33 70  2  0  0  0
 34 36  1  0  0  0
 34 59  1  0  0  0
 34101  1  0  0  0
 35 44  2  0  0  0
 35 45  1  0  0  0
 35 68  1  0  0  0
 36 56  1  0  0  0
 36102  1  0  0  0
 37 39  1  0  0  0
 37 47  1  0  0  0
 37 66  1  0  0  0
 37103  1  0  0  0
 38 43  2  0  0  0
 38 46  1  0  0  0
 38 47  1  0  0  0
 39 64  1  0  0  0
 39 67  2  0  0  0
 40 52  1  0  0  0
 40 53  2  0  0  0
 40 58  1  0  0  0
 41104  1  0  0  0
 41105  1  0  0  0
 41106  1  0  0  0
 41 48  1  0  0  0
 42 43  1  0  0  0
 42 66  1  0  0  0
 42107  1  0  0  0
 42108  1  0  0  0
 43 44  1  0  0  0
 44109  1  0  0  0
 45 46  2  0  0  0
 45110  1  0  0  0
 46111  1  0  0  0
 47112  1  0  0  0
 47113  1  0  0  0
 48 56  1  0  0  0
 48 65  1  0  0  0
 48114  1  0  0  0
 49 50  1  0  0  0
 49 53  1  0  0  0
 49 64  1  0  0  0
 49115  1  0  0  0
 50 51  1  0  0  0
 50116  1  0  0  0
 50117  1  0  0  0
 51 52  1  0  0  0
 51118  1  0  0  0
 51119  1  0  0  0
 52120  1  0  0  0
 52121  1  0  0  0
 53 54  1  0  0  0
 54 55  2  0  0  0
 54122  1  0  0  0
 55 57  1  0  0  0
 55123  1  0  0  0
 56 69  2  0  0  0
 57 58  2  0  0  0
 57124  1  0  0  0
 58125  1  0  0  0
 59 60  1  0  0  0
 59 61  1  0  0  0
 59 62  1  0  0  0
 60126  1  0  0  0
 60127  1  0  0  0
 60128  1  0  0  0
 61129  1  0  0  0
 61130  1  0  0  0
 61131  1  0  0  0
 62132  1  0  0  0
 62133  1  0  0  0
 62134  1  0  0  0
 63 65  1  0  0  0
 63135  1  0  0  0
 63136  1  0  0  0
 63137  1  0  0  0
 64138  1  0  0  0
 65139  1  0  0  0
 68 75  1  0  0  0
 71 72  1  0  0  0
 71 77  2  0  0  0
 71140  1  0  0  0
 72 76  1  0  0  0
 72 78  2  0  0  0
 73141  1  0  0  0
 73142  1  0  0  0
 73143  1  0  0  0
 73 76  1  0  0  0
 74 75  1  0  0  0
 74 79  1  0  0  0
 74144  1  0  0  0
 74145  1  0  0  0
 75146  1  0  0  0
 75147  1  0  0  0
 76 80  1  0  0  0
 76148  1  0  0  0
 77 79  1  0  0  0
 78 79  1  0  0  0
 80149  1  0  0  0
M  ISO  4   1 100  68 101  75 101  80 100
M  END
> <chiral flag>
0

> <version>
0

> <s_m_source_file>
/data/baiqing/PycharmProjects/Reinvent-master-3.2/result/LINK_invent/BTK/process_docking_weight1_custom_sum_contain_oxygen_bond_distance_aromatic_linkinvent_7_9_3/rearranged_h_0057.sdf

> <i_m_source_file_index>
89

> <r_mmod_Potential_Energy-OPLS-2005>
621.567687988281

> <r_mmod_Stretch_Energy-OPLS-2005>
347.786346435547

> <r_mmod_Bend_Energy-OPLS-2005>
321.452728271484

> <r_mmod_Torsional_Energy-OPLS-2005>
202.936737060547

> <r_mmod_Improper_Torsional_Energy-OPLS-2005>
6.08637714385986

> <r_mmod_Van_der_Waal_Energy-OPLS-2005>
108.961448669434

> <r_mmod_Electrostatic_Energy-OPLS-2005>
-401.607055664062

> <r_mmod_Solvation_Energy-OPLS-2005>
-230.063293457031

> <b_mmod_Minimization_Converged-OPLS-2005>
0

> <r_mmod_RMS_Derivative-OPLS-2005>
1.94591808319092

$$$$
89
                    3D
 Structure written by MMmdl.
155163  0  0  1  0            999 V2000
  -30.6242  -14.7514   20.5182 C   0  0  0  0  0  0
  -30.4309  -12.4713   19.4799 C   0  0  0  0  0  0
  -29.5122  -12.5323   18.2399 C   0  0  0  0  0  0
  -28.0369  -12.3519   18.6430 C   0  0  0  0  0  0
  -27.6432  -13.2369   19.8547 C   0  0  2  0  0  0
  -28.6825  -13.1480   20.9902 C   0  0  0  0  0  0
  -25.2514  -13.8224   20.5708 C   0  0  0  0  0  0
  -24.1797  -13.0461   20.9189 C   0  0  0  0  0  0
  -24.6391  -11.6937   20.8738 C   0  0  0  0  0  0
  -23.9075  -10.4303   21.0420 C   0  0  0  0  0  0
  -24.3637   -9.4228   21.9196 C   0  0  0  0  0  0
  -23.6320   -8.2260   22.0762 C   0  0  0  0  0  0
  -22.4298   -8.0292   21.3553 C   0  0  0  0  0  0
  -21.9940   -9.0256   20.4649 C   0  0  0  0  0  0
  -22.7254  -10.2144   20.3060 C   0  0  0  0  0  0
  -21.6857   -6.0749   22.5291 C   0  0  0  0  0  0
  -21.4001   -6.5644   23.8224 C   0  0  0  0  0  0
  -21.3664   -5.6795   24.9184 C   0  0  0  0  0  0
  -21.6057   -4.3055   24.7232 C   0  0  0  0  0  0
  -21.8810   -3.8150   23.4341 C   0  0  0  0  0  0
  -21.9188   -4.6978   22.3403 C   0  0  0  0  0  0
  -22.7810  -13.5241   21.1836 C   0  0  0  0  0  0
  -22.1648   -4.2158   21.0979 F   0  0  0  0  0  0
  -21.5655   -3.4532   25.7742 F   0  0  0  0  0  0
  -29.9918  -13.5231   20.4327 N   0  0  0  0  0  0
  -26.2934  -12.9439   20.3288 N   0  0  0  0  0  0
  -25.9329  -11.6578   20.5753 N   0  0  0  0  0  0
  -22.0440  -12.8257   22.0398 N   0  0  0  0  0  0
  -25.4227  -15.1950   20.4206 N   0  0  0  0  0  0
  -31.7507  -14.8789   20.0255 O   0  0  0  0  0  0
  -21.6656   -6.8900   21.4255 O   0  0  0  0  0  0
  -22.3506  -14.5537   20.6648 O   0  0  0  0  0  0
  -24.6325  -31.8545   23.1971 C   0  0  0  0  0  0
  -25.9140  -32.4753   23.8337 C   0  0  1  0  0  0
  -27.2225  -27.2446   20.1330 C   0  0  0  0  0  0
  -25.5940  -33.8561   24.2257 N   0  0  0  0  0  0
  -23.4303  -30.4739   21.5417 C   0  0  2  0  0  0
  -24.8787  -28.9193   20.1084 C   0  0  0  0  0  0
  -22.7516  -29.4584   22.4921 C   0  0  0  0  0  0
  -18.0302  -28.1385   22.8474 C   0  0  0  0  0  0
  -24.1494  -36.7268   23.2638 C   0  0  0  0  0  0
  -25.9782  -30.7574   21.3857 C   0  0  0  0  0  0
  -26.0499  -29.3814   20.7220 C   0  0  0  0  0  0
  -27.2224  -28.5563   20.7234 C   0  0  0  0  0  0
  -26.0294  -26.8587   19.4812 C   0  0  0  0  0  0
  -24.8756  -27.6677   19.4746 C   0  0  0  0  0  0
  -23.6484  -29.8061   20.1587 C   0  0  0  0  0  0
  -25.4130  -36.3072   24.0322 C   0  0  1  0  0  0
  -20.5902  -28.3694   23.1260 C   0  0  2  0  0  0
  -20.6788  -26.9411   22.5398 C   0  0  0  0  0  0
  -19.5768  -26.6378   21.5200 C   0  0  0  0  0  0
  -18.1947  -26.7936   22.1602 C   0  0  0  0  0  0
  -19.1551  -28.8860   23.2862 C   0  0  0  0  0  0
  -18.9468  -30.1463   23.8876 C   0  0  0  0  0  0
  -17.6463  -30.6581   24.0556 C   0  0  0  0  0  0
  -25.9068  -34.9439   23.5096 C   0  0  0  0  0  0
  -16.5358  -29.9063   23.6344 C   0  0  0  0  0  0
  -16.7285  -28.6485   23.0360 C   0  0  0  0  0  0
  -26.4498  -31.6601   25.0749 C   0  0  0  0  0  0
  -25.3695  -31.3742   26.1448 C   0  0  0  0  0  0
  -27.0372  -30.3020   24.6279 C   0  0  0  0  0  0
  -27.6064  -32.4349   25.7503 C   0  0  0  0  0  0
  -27.5592  -37.1790   24.8460 C   0  0  0  0  0  0
  -21.4218  -29.3033   22.3644 N   0  0  0  0  0  0
  -26.4309  -37.3765   23.9401 N   0  0  0  0  0  0
  -24.6984  -31.0486   22.0961 N   0  0  0  0  0  0
  -23.4202  -28.8152   23.3048 O   0  0  0  0  0  0
  -28.3122  -26.3384   20.2077 O   0  0  0  0  0  0
  -26.5631  -34.8904   22.4661 O   0  0  0  0  0  0
  -23.5468  -32.1391   23.7241 O   0  0  0  0  0  0
  -28.0945  -21.4033   19.6013 C   0  0  0  0  0  0
  -29.0181  -22.1741   20.3703 C   0  0  0  0  0  0
  -31.5699  -18.7993   21.0067 C   0  0  0  0  0  0
  -29.7975  -15.9878   22.4409 C   0  0  0  0  0  0
  -29.1530  -23.7542   20.5747 C   0  0  0  0  0  0
  -29.6828  -17.2258   20.2673 C   0  0  0  0  0  0
  -28.0879  -24.8505   20.0238 C   0  0  0  0  0  0
  -30.0376  -18.6628   20.9697 C   0  0  2  0  0  0
  -28.3294  -20.0989   19.6812 N   0  0  0  0  0  0
  -29.8342  -21.2641   20.9227 N   0  0  0  0  0  0
  -29.4305  -19.9966   20.4754 N   0  0  0  0  0  0
  -29.9260  -15.8715   20.9840 N   0  0  0  0  0  0
  -31.4734  -12.5880   19.1779 H   0  0  0  0  0  0
  -30.3744  -11.4879   19.9497 H   0  0  0  0  0  0
  -29.7995  -11.7668   17.5174 H   0  0  0  0  0  0
  -29.6395  -13.4915   17.7350 H   0  0  0  0  0  0
  -27.8819  -11.2989   18.8847 H   0  0  0  0  0  0
  -27.3872  -12.5680   17.7942 H   0  0  0  0  0  0
  -27.6451  -14.2644   19.4935 H   0  0  0  0  0  0
  -28.7184  -12.1389   21.4020 H   0  0  0  0  0  0
  -28.3759  -13.7961   21.8092 H   0  0  0  0  0  0
  -25.2779   -9.5706   22.4785 H   0  0  0  0  0  0
  -24.0011   -7.4656   22.7489 H   0  0  0  0  0  0
  -21.0866   -8.8769   19.8961 H   0  0  0  0  0  0
  -22.3698  -10.9683   19.6175 H   0  0  0  0  0  0
  -21.1961   -7.6149   23.9720 H   0  0  0  0  0  0
  -21.1517   -6.0531   25.9092 H   0  0  0  0  0  0
  -22.0582   -2.7609   23.2847 H   0  0  0  0  0  0
  -22.4025  -11.9918   22.4826 H   0  0  0  0  0  0
  -21.1048  -13.1299   22.2539 H   0  0  0  0  0  0
  -24.6665  -15.8547   20.5653 H   0  0  0  0  0  0
  -26.2927  -15.6395   20.1527 H   0  0  0  0  0  0
  -26.7209  -32.5379   23.1078 H   0  0  0  0  0  0
  -25.0106  -33.9701   25.0414 H   0  0  0  0  0  0
  -22.7280  -31.2966   21.3952 H   0  0  0  0  0  0
  -23.3777  -35.9576   23.3293 H   0  0  0  0  0  0
  -24.3582  -36.8903   22.2054 H   0  0  0  0  0  0
  -23.7220  -37.6452   23.6674 H   0  0  0  0  0  0
  -26.1345  -31.5217   20.6234 H   0  0  0  0  0  0
  -26.8470  -30.7935   22.0309 H   0  0  0  0  0  0
  -28.1145  -28.9032   21.2254 H   0  0  0  0  0  0
  -25.9602  -25.9039   18.9822 H   0  0  0  0  0  0
  -23.9813  -27.3118   18.9809 H   0  0  0  0  0  0
  -23.7660  -30.5811   19.4011 H   0  0  0  0  0  0
  -22.7671  -29.2364   19.8584 H   0  0  0  0  0  0
  -25.1316  -36.1927   25.0816 H   0  0  0  0  0  0
  -20.9992  -28.3275   24.1380 H   0  0  0  0  0  0
  -20.5692  -26.2304   23.3599 H   0  0  0  0  0  0
  -21.6659  -26.7436   22.1190 H   0  0  0  0  0  0
  -19.6931  -25.6281   21.1247 H   0  0  0  0  0  0
  -19.6728  -27.3172   20.6719 H   0  0  0  0  0  0
  -17.4226  -26.6696   21.3994 H   0  0  0  0  0  0
  -18.0339  -26.0074   22.8989 H   0  0  0  0  0  0
  -19.7937  -30.7292   24.2240 H   0  0  0  0  0  0
  -17.5006  -31.6263   24.5146 H   0  0  0  0  0  0
  -15.5355  -30.2948   23.7678 H   0  0  0  0  0  0
  -15.8691  -28.0783   22.7098 H   0  0  0  0  0  0
  -24.5838  -30.7160   25.7719 H   0  0  0  0  0  0
  -24.8918  -32.2906   26.4926 H   0  0  0  0  0  0
  -25.7958  -30.8833   27.0204 H   0  0  0  0  0  0
  -26.2978  -29.6745   24.1285 H   0  0  0  0  0  0
  -27.4024  -29.7320   25.4837 H   0  0  0  0  0  0
  -27.8872  -30.4312   23.9570 H   0  0  0  0  0  0
  -27.2687  -33.3633   26.2121 H   0  0  0  0  0  0
  -28.3825  -32.6946   25.0289 H   0  0  0  0  0  0
  -28.0800  -31.8465   26.5371 H   0  0  0  0  0  0
  -28.2599  -38.0097   24.7534 H   0  0  0  0  0  0
  -28.1105  -36.2633   24.6271 H   0  0  0  0  0  0
  -27.2306  -37.1407   25.8859 H   0  0  0  0  0  0
  -20.9425  -29.8725   21.6806 H   0  0  0  0  0  0
  -26.0196  -38.2843   24.1397 H   0  0  0  0  0  0
  -27.2736  -21.7723   18.9999 H   0  0  0  0  0  0
  -32.0498  -17.8801   21.3387 H   0  0  0  0  0  0
  -31.8875  -19.5965   21.6793 H   0  0  0  0  0  0
  -31.9571  -19.0300   20.0131 H   0  0  0  0  0  0
  -30.6461  -16.5350   22.8542 H   0  0  0  0  0  0
  -29.7764  -15.0236   22.9511 H   0  0  0  0  0  0
  -28.8816  -16.5150   22.7107 H   0  0  0  0  0  0
  -30.1237  -24.0508   20.1797 H   0  0  0  0  0  0
  -29.2333  -23.9351   21.6465 H   0  0  0  0  0  0
  -30.1804  -17.1883   19.2971 H   0  0  0  0  0  0
  -28.6195  -17.2404   20.0298 H   0  0  0  0  0  0
  -27.1304  -24.5976   20.4801 H   0  0  0  0  0  0
  -27.9711  -24.6792   18.9528 H   0  0  0  0  0  0
  -29.6974  -18.5975   22.0022 H   0  0  0  0  0  0
  1 25  1  0  0  0
  1 30  2  0  0  0
  1 82  1  0  0  0
  2  3  1  0  0  0
  2 25  1  0  0  0
  2 83  1  0  0  0
  2 84  1  0  0  0
  3  4  1  0  0  0
  3 85  1  0  0  0
  3 86  1  0  0  0
  4  5  1  0  0  0
  4 87  1  0  0  0
  4 88  1  0  0  0
  5  6  1  0  0  0
  5 26  1  0  0  0
  5 89  1  0  0  0
  6 25  1  0  0  0
  6 90  1  0  0  0
  6 91  1  0  0  0
  7  8  2  0  0  0
  7 26  1  0  0  0
  7 29  1  0  0  0
  8  9  1  0  0  0
  8 22  1  0  0  0
  9 10  1  0  0  0
  9 27  2  0  0  0
 10 11  2  0  0  0
 10 15  1  0  0  0
 11 12  1  0  0  0
 11 92  1  0  0  0
 12 13  2  0  0  0
 12 93  1  0  0  0
 13 14  1  0  0  0
 13 31  1  0  0  0
 14 15  2  0  0  0
 14 94  1  0  0  0
 15 95  1  0  0  0
 16 17  2  0  0  0
 16 21  1  0  0  0
 16 31  1  0  0  0
 17 18  1  0  0  0
 17 96  1  0  0  0
 18 19  2  0  0  0
 18 97  1  0  0  0
 19 20  1  0  0  0
 19 24  1  0  0  0
 20 21  2  0  0  0
 20 98  1  0  0  0
 21 23  1  0  0  0
 22 28  1  0  0  0
 22 32  2  0  0  0
 26 27  1  0  0  0
 28 99  1  0  0  0
 28100  1  0  0  0
 29101  1  0  0  0
 29102  1  0  0  0
 33 34  1  0  0  0
 33 66  1  0  0  0
 33 70  2  0  0  0
 34 36  1  0  0  0
 34 59  1  0  0  0
 34103  1  0  0  0
 35 44  2  0  0  0
 35 45  1  0  0  0
 35 68  1  0  0  0
 36 56  1  0  0  0
 36104  1  0  0  0
 37 39  1  0  0  0
 37 47  1  0  0  0
 37 66  1  0  0  0
 37105  1  0  0  0
 38 43  2  0  0  0
 38 46  1  0  0  0
 38 47  1  0  0  0
 39 64  1  0  0  0
 39 67  2  0  0  0
 40 52  1  0  0  0
 40 53  2  0  0  0
 40 58  1  0  0  0
 41106  1  0  0  0
 41107  1  0  0  0
 41108  1  0  0  0
 41 48  1  0  0  0
 42 43  1  0  0  0
 42 66  1  0  0  0
 42109  1  0  0  0
 42110  1  0  0  0
 43 44  1  0  0  0
 44111  1  0  0  0
 45 46  2  0  0  0
 45112  1  0  0  0
 46113  1  0  0  0
 47114  1  0  0  0
 47115  1  0  0  0
 48 56  1  0  0  0
 48 65  1  0  0  0
 48116  1  0  0  0
 49 50  1  0  0  0
 49 53  1  0  0  0
 49 64  1  0  0  0
 49117  1  0  0  0
 50 51  1  0  0  0
 50118  1  0  0  0
 50119  1  0  0  0
 51 52  1  0  0  0
 51120  1  0  0  0
 51121  1  0  0  0
 52122  1  0  0  0
 52123  1  0  0  0
 53 54  1  0  0  0
 54 55  2  0  0  0
 54124  1  0  0  0
 55 57  1  0  0  0
 55125  1  0  0  0
 56 69  2  0  0  0
 57 58  2  0  0  0
 57126  1  0  0  0
 58127  1  0  0  0
 59 60  1  0  0  0
 59 61  1  0  0  0
 59 62  1  0  0  0
 60128  1  0  0  0
 60129  1  0  0  0
 60130  1  0  0  0
 61131  1  0  0  0
 61132  1  0  0  0
 61133  1  0  0  0
 62134  1  0  0  0
 62135  1  0  0  0
 62136  1  0  0  0
 63 65  1  0  0  0
 63137  1  0  0  0
 63138  1  0  0  0
 63139  1  0  0  0
 64140  1  0  0  0
 65141  1  0  0  0
 68 77  1  0  0  0
 71 72  1  0  0  0
 71 79  2  0  0  0
 71142  1  0  0  0
 72 75  1  0  0  0
 72 80  2  0  0  0
 73143  1  0  0  0
 73144  1  0  0  0
 73145  1  0  0  0
 73 78  1  0  0  0
 74 82  1  0  0  0
 74146  1  0  0  0
 74147  1  0  0  0
 74148  1  0  0  0
 75 77  1  0  0  0
 75149  1  0  0  0
 75150  1  0  0  0
 76 78  1  0  0  0
 76 82  1  0  0  0
 76151  1  0  0  0
 76152  1  0  0  0
 77153  1  0  0  0
 77154  1  0  0  0
 78 81  1  0  0  0
 78155  1  0  0  0
 79 81  1  0  0  0
 80 81  1  0  0  0
M  ISO  4   1 100  68 101  77 101  82 100
M  END
> <chiral flag>
0

> <version>
0

> <s_m_source_file>
/data/baiqing/PycharmProjects/Reinvent-master-3.2/result/LINK_invent/BTK/process_docking_weight1_custom_sum_contain_oxygen_bond_distance_aromatic_linkinvent_7_9_3/rearranged_h_0057.sdf

> <i_m_source_file_index>
90

> <r_mmod_Potential_Energy-OPLS-2005>
349.0234375

> <r_mmod_Stretch_Energy-OPLS-2005>
144.984497070312

> <r_mmod_Bend_Energy-OPLS-2005>
190.53727722168

> <r_mmod_Torsional_Energy-OPLS-2005>
306.491241455078

> <r_mmod_Improper_Torsional_Energy-OPLS-2005>
5.62621879577637

> <r_mmod_Van_der_Waal_Energy-OPLS-2005>
116.957550048828

> <r_mmod_Electrostatic_Energy-OPLS-2005>
-299.596740722656

> <r_mmod_Solvation_Energy-OPLS-2005>
-205.836349487305

> <b_mmod_Minimization_Converged-OPLS-2005>
0

> <r_mmod_RMS_Derivative-OPLS-2005>
2.23067998886108

$$$$
90
                    3D
 Structure written by MMmdl.
157165  0  0  1  0            999 V2000
  -30.5208  -15.0014   20.4092 C   0  0  0  0  0  0
  -30.4406  -12.6168   19.5062 C   0  0  0  0  0  0
  -29.5312  -12.5474   18.2577 C   0  0  0  0  0  0
  -28.0635  -12.3258   18.6718 C   0  0  0  0  0  0
  -27.6300  -13.2581   19.8346 C   0  0  2  0  0  0
  -28.6712  -13.3045   20.9732 C   0  0  0  0  0  0
  -25.2479  -13.8249   20.5690 C   0  0  0  0  0  0
  -24.1811  -13.0443   20.9226 C   0  0  0  0  0  0
  -24.6439  -11.6939   20.8743 C   0  0  0  0  0  0
  -23.9120  -10.4303   21.0401 C   0  0  0  0  0  0
  -24.3659   -9.4213   21.9173 C   0  0  0  0  0  0
  -23.6321   -8.2254   22.0758 C   0  0  0  0  0  0
  -22.4291   -8.0300   21.3561 C   0  0  0  0  0  0
  -21.9941   -9.0273   20.4651 C   0  0  0  0  0  0
  -22.7294  -10.2138   20.3052 C   0  0  0  0  0  0
  -21.6855   -6.0743   22.5281 C   0  0  0  0  0  0
  -21.4023   -6.5641   23.8215 C   0  0  0  0  0  0
  -21.3671   -5.6795   24.9175 C   0  0  0  0  0  0
  -21.6046   -4.3059   24.7230 C   0  0  0  0  0  0
  -21.8815   -3.8156   23.4350 C   0  0  0  0  0  0
  -21.9196   -4.6973   22.3405 C   0  0  0  0  0  0
  -22.7825  -13.5205   21.1873 C   0  0  0  0  0  0
  -22.1659   -4.2161   21.0981 F   0  0  0  0  0  0
  -21.5639   -3.4534   25.7737 F   0  0  0  0  0  0
  -29.9403  -13.7290   20.3704 N   0  0  0  0  0  0
  -26.2904  -12.9491   20.3214 N   0  0  0  0  0  0
  -25.9371  -11.6608   20.5702 N   0  0  0  0  0  0
  -22.0483  -12.8173   22.0422 N   0  0  0  0  0  0
  -25.4101  -15.1973   20.4077 N   0  0  0  0  0  0
  -31.7269  -15.0632   20.1438 O   0  0  0  0  0  0
  -21.6661   -6.8886   21.4242 O   0  0  0  0  0  0
  -22.3492  -14.5502   20.6731 O   0  0  0  0  0  0
  -24.6523  -31.8380   23.1840 C   0  0  0  0  0  0
  -25.9265  -32.4663   23.8262 C   0  0  1  0  0  0
  -27.2194  -27.0803   20.1520 C   0  0  0  0  0  0
  -25.5980  -33.8466   24.2179 N   0  0  0  0  0  0
  -23.4590  -30.4578   21.5310 C   0  0  2  0  0  0
  -24.9112  -28.8807   20.1096 C   0  0  0  0  0  0
  -22.7627  -29.4515   22.4821 C   0  0  0  0  0  0
  -18.0320  -28.1409   22.8462 C   0  0  0  0  0  0
  -24.1492  -36.7256   23.2643 C   0  0  0  0  0  0
  -26.0211  -30.6974   21.3890 C   0  0  0  0  0  0
  -26.0928  -29.3038   20.7301 C   0  0  0  0  0  0
  -27.2496  -28.4236   20.7290 C   0  0  0  0  0  0
  -26.0105  -26.7847   19.4801 C   0  0  0  0  0  0
  -24.8880  -27.6382   19.4637 C   0  0  0  0  0  0
  -23.6905  -29.7884   20.1516 C   0  0  0  0  0  0
  -25.4122  -36.3016   24.0315 C   0  0  1  0  0  0
  -20.5937  -28.3746   23.1207 C   0  0  2  0  0  0
  -20.6793  -26.9437   22.5388 C   0  0  0  0  0  0
  -19.5766  -26.6390   21.5196 C   0  0  0  0  0  0
  -18.1953  -26.7946   22.1615 C   0  0  0  0  0  0
  -19.1573  -28.8896   23.2827 C   0  0  0  0  0  0
  -18.9487  -30.1487   23.8863 C   0  0  0  0  0  0
  -17.6477  -30.6591   24.0564 C   0  0  0  0  0  0
  -25.9076  -34.9386   23.5058 C   0  0  0  0  0  0
  -16.5372  -29.9085   23.6336 C   0  0  0  0  0  0
  -16.7302  -28.6512   23.0345 C   0  0  0  0  0  0
  -26.4559  -31.6545   25.0723 C   0  0  0  0  0  0
  -25.3736  -31.3732   26.1414 C   0  0  0  0  0  0
  -27.0430  -30.2935   24.6335 C   0  0  0  0  0  0
  -27.6087  -32.4320   25.7505 C   0  0  0  0  0  0
  -27.5573  -37.1783   24.8468 C   0  0  0  0  0  0
  -21.4305  -29.3064   22.3583 N   0  0  0  0  0  0
  -26.4282  -37.3733   23.9410 N   0  0  0  0  0  0
  -24.7310  -31.0202   22.0892 N   0  0  0  0  0  0
  -23.4249  -28.8037   23.2968 O   0  0  0  0  0  0
  -28.2324  -26.0308   20.2344 O   0  0  0  0  0  0
  -26.5657  -34.8892   22.4636 O   0  0  0  0  0  0
  -23.5631  -32.1257   23.7039 O   0  0  0  0  0  0
  -30.0009  -22.7462   20.4008 C   0  0  0  0  0  0
  -28.6692  -23.0791   20.2251 C   0  0  0  0  0  0
  -29.0148  -20.6629   20.2980 C   0  0  0  0  0  0
  -28.2830  -18.5889   18.8880 C   0  0  0  0  0  0
  -27.7416  -18.6521   21.3337 C   0  0  0  0  0  0
  -26.6621  -21.5283   19.9998 C   0  0  0  0  0  0
  -27.8347  -24.5125   20.0309 C   0  0  0  0  0  0
  -30.0155  -17.7719   20.5204 C   0  0  0  0  0  0
  -28.8229  -18.9786   20.2802 C   0  0  0  0  0  0
  -28.1083  -21.7441   20.1718 N   0  0  0  0  0  0
  -30.1640  -21.3499   20.4320 N   0  3  0  0  0  0
  -29.7298  -16.1902   20.5474 N   0  0  0  0  0  0
  -31.4797  -12.7633   19.2053 H   0  0  0  0  0  0
  -30.4220  -11.6673   20.0450 H   0  0  0  0  0  0
  -29.8576  -11.7502   17.5896 H   0  0  0  0  0  0
  -29.6207  -13.4757   17.6920 H   0  0  0  0  0  0
  -27.9620  -11.2836   18.9751 H   0  0  0  0  0  0
  -27.4025  -12.4566   17.8140 H   0  0  0  0  0  0
  -27.5837  -14.2563   19.3977 H   0  0  0  0  0  0
  -28.7686  -12.3327   21.4603 H   0  0  0  0  0  0
  -28.3653  -14.0096   21.7470 H   0  0  0  0  0  0
  -25.2802   -9.5681   22.4744 H   0  0  0  0  0  0
  -24.0034   -7.4647   22.7475 H   0  0  0  0  0  0
  -21.0880   -8.8797   19.8945 H   0  0  0  0  0  0
  -22.3773  -10.9671   19.6158 H   0  0  0  0  0  0
  -21.2006   -7.6149   23.9721 H   0  0  0  0  0  0
  -21.1501   -6.0521   25.9076 H   0  0  0  0  0  0
  -22.0582   -2.7616   23.2841 H   0  0  0  0  0  0
  -22.4116  -11.9850   22.4825 H   0  0  0  0  0  0
  -21.1090  -13.1176   22.2619 H   0  0  0  0  0  0
  -24.6283  -15.8358   20.5054 H   0  0  0  0  0  0
  -26.2357  -15.6394   20.0244 H   0  0  0  0  0  0
  -26.7338  -32.5248   23.0991 H   0  0  0  0  0  0
  -25.0108  -33.9557   25.0315 H   0  0  0  0  0  0
  -22.7659  -31.2856   21.3721 H   0  0  0  0  0  0
  -23.3741  -35.9598   23.3282 H   0  0  0  0  0  0
  -24.3582  -36.8913   22.2063 H   0  0  0  0  0  0
  -23.7248  -37.6449   23.6694 H   0  0  0  0  0  0
  -26.1835  -31.4486   20.6151 H   0  0  0  0  0  0
  -26.8913  -30.7534   22.0317 H   0  0  0  0  0  0
  -28.1503  -28.7500   21.2301 H   0  0  0  0  0  0
  -25.8859  -25.8422   18.9720 H   0  0  0  0  0  0
  -23.9901  -27.3126   18.9555 H   0  0  0  0  0  0
  -23.8374  -30.5633   19.3984 H   0  0  0  0  0  0
  -22.8048  -29.2363   19.8340 H   0  0  0  0  0  0
  -25.1298  -36.1843   25.0803 H   0  0  0  0  0  0
  -21.0029  -28.3332   24.1330 H   0  0  0  0  0  0
  -20.5676  -26.2357   23.3613 H   0  0  0  0  0  0
  -21.6656  -26.7424   22.1184 H   0  0  0  0  0  0
  -19.6919  -25.6294   21.1246 H   0  0  0  0  0  0
  -19.6694  -27.3182   20.6710 H   0  0  0  0  0  0
  -17.4210  -26.6688   21.4029 H   0  0  0  0  0  0
  -18.0359  -26.0100   22.9028 H   0  0  0  0  0  0
  -19.7960  -30.7311   24.2225 H   0  0  0  0  0  0
  -17.5029  -31.6263   24.5184 H   0  0  0  0  0  0
  -15.5374  -30.2975   23.7675 H   0  0  0  0  0  0
  -15.8709  -28.0825   22.7070 H   0  0  0  0  0  0
  -24.5934  -30.7056   25.7733 H   0  0  0  0  0  0
  -24.8895  -32.2905   26.4783 H   0  0  0  0  0  0
  -25.8020  -30.8947   27.0234 H   0  0  0  0  0  0
  -26.3056  -29.6634   24.1350 H   0  0  0  0  0  0
  -27.4038  -29.7261   25.4926 H   0  0  0  0  0  0
  -27.8968  -30.4151   23.9664 H   0  0  0  0  0  0
  -27.2693  -33.3660   26.1999 H   0  0  0  0  0  0
  -28.3942  -32.6821   25.0358 H   0  0  0  0  0  0
  -28.0716  -31.8501   26.5489 H   0  0  0  0  0  0
  -28.2576  -38.0091   24.7507 H   0  0  0  0  0  0
  -28.1087  -36.2620   24.6301 H   0  0  0  0  0  0
  -27.2302  -37.1436   25.8875 H   0  0  0  0  0  0
  -20.9546  -29.8818   21.6774 H   0  0  0  0  0  0
  -26.0148  -38.2801   24.1405 H   0  0  0  0  0  0
  -30.8522  -23.4053   20.4927 H   0  0  0  0  0  0
  -29.0153  -18.7998   18.1090 H   0  0  0  0  0  0
  -27.3691  -19.1052   18.6175 H   0  0  0  0  0  0
  -28.0568  -17.5254   18.8286 H   0  0  0  0  0  0
  -26.7631  -19.0378   21.0594 H   0  0  0  0  0  0
  -27.9980  -19.0800   22.3026 H   0  0  0  0  0  0
  -27.6099  -17.5803   21.4781 H   0  0  0  0  0  0
  -26.1534  -22.4682   19.7982 H   0  0  0  0  0  0
  -26.2387  -21.1128   20.9123 H   0  0  0  0  0  0
  -26.4695  -20.8818   19.1511 H   0  0  0  0  0  0
  -26.9312  -24.3881   20.6280 H   0  0  0  0  0  0
  -27.5121  -24.4616   18.9919 H   0  0  0  0  0  0
  -30.7903  -17.9184   19.7675 H   0  0  0  0  0  0
  -30.5041  -17.9946   21.4697 H   0  0  0  0  0  0
  -31.0637  -20.8991   20.5446 H   0  0  0  0  0  0
  -28.7582  -15.9784   20.7177 H   0  0  0  0  0  0
  1 25  1  0  0  0
  1 30  2  0  0  0
  1 82  1  0  0  0
  2  3  1  0  0  0
  2 25  1  0  0  0
  2 83  1  0  0  0
  2 84  1  0  0  0
  3  4  1  0  0  0
  3 85  1  0  0  0
  3 86  1  0  0  0
  4  5  1  0  0  0
  4 87  1  0  0  0
  4 88  1  0  0  0
  5  6  1  0  0  0
  5 26  1  0  0  0
  5 89  1  0  0  0
  6 25  1  0  0  0
  6 90  1  0  0  0
  6 91  1  0  0  0
  7  8  2  0  0  0
  7 26  1  0  0  0
  7 29  1  0  0  0
  8  9  1  0  0  0
  8 22  1  0  0  0
  9 10  1  0  0  0
  9 27  2  0  0  0
 10 11  2  0  0  0
 10 15  1  0  0  0
 11 12  1  0  0  0
 11 92  1  0  0  0
 12 13  2  0  0  0
 12 93  1  0  0  0
 13 14  1  0  0  0
 13 31  1  0  0  0
 14 15  2  0  0  0
 14 94  1  0  0  0
 15 95  1  0  0  0
 16 17  2  0  0  0
 16 21  1  0  0  0
 16 31  1  0  0  0
 17 18  1  0  0  0
 17 96  1  0  0  0
 18 19  2  0  0  0
 18 97  1  0  0  0
 19 20  1  0  0  0
 19 24  1  0  0  0
 20 21  2  0  0  0
 20 98  1  0  0  0
 21 23  1  0  0  0
 22 28  1  0  0  0
 22 32  2  0  0  0
 26 27  1  0  0  0
 28 99  1  0  0  0
 28100  1  0  0  0
 29101  1  0  0  0
 29102  1  0  0  0
 33 34  1  0  0  0
 33 66  1  0  0  0
 33 70  2  0  0  0
 34 36  1  0  0  0
 34 59  1  0  0  0
 34103  1  0  0  0
 35 44  2  0  0  0
 35 45  1  0  0  0
 35 68  1  0  0  0
 36 56  1  0  0  0
 36104  1  0  0  0
 37 39  1  0  0  0
 37 47  1  0  0  0
 37 66  1  0  0  0
 37105  1  0  0  0
 38 43  2  0  0  0
 38 46  1  0  0  0
 38 47  1  0  0  0
 39 64  1  0  0  0
 39 67  2  0  0  0
 40 52  1  0  0  0
 40 53  2  0  0  0
 40 58  1  0  0  0
 41106  1  0  0  0
 41107  1  0  0  0
 41108  1  0  0  0
 41 48  1  0  0  0
 42 43  1  0  0  0
 42 66  1  0  0  0
 42109  1  0  0  0
 42110  1  0  0  0
 43 44  1  0  0  0
 44111  1  0  0  0
 45 46  2  0  0  0
 45112  1  0  0  0
 46113  1  0  0  0
 47114  1  0  0  0
 47115  1  0  0  0
 48 56  1  0  0  0
 48 65  1  0  0  0
 48116  1  0  0  0
 49 50  1  0  0  0
 49 53  1  0  0  0
 49 64  1  0  0  0
 49117  1  0  0  0
 50 51  1  0  0  0
 50118  1  0  0  0
 50119  1  0  0  0
 51 52  1  0  0  0
 51120  1  0  0  0
 51121  1  0  0  0
 52122  1  0  0  0
 52123  1  0  0  0
 53 54  1  0  0  0
 54 55  2  0  0  0
 54124  1  0  0  0
 55 57  1  0  0  0
 55125  1  0  0  0
 56 69  2  0  0  0
 57 58  2  0  0  0
 57126  1  0  0  0
 58127  1  0  0  0
 59 60  1  0  0  0
 59 61  1  0  0  0
 59 62  1  0  0  0
 60128  1  0  0  0
 60129  1  0  0  0
 60130  1  0  0  0
 61131  1  0  0  0
 61132  1  0  0  0
 61133  1  0  0  0
 62134  1  0  0  0
 62135  1  0  0  0
 62136  1  0  0  0
 63 65  1  0  0  0
 63137  1  0  0  0
 63138  1  0  0  0
 63139  1  0  0  0
 64140  1  0  0  0
 65141  1  0  0  0
 68 77  1  0  0  0
 71 72  2  0  0  0
 71 81  1  0  0  0
 71142  1  0  0  0
 72 77  1  0  0  0
 72 80  1  0  0  0
 73 79  1  0  0  0
 73 80  1  0  0  0
 73 81  2  0  0  0
 74143  1  0  0  0
 74144  1  0  0  0
 74145  1  0  0  0
 74 79  1  0  0  0
 75 79  1  0  0  0
 75146  1  0  0  0
 75147  1  0  0  0
 75148  1  0  0  0
 76 80  1  0  0  0
 76149  1  0  0  0
 76150  1  0  0  0
 76151  1  0  0  0
 77152  1  0  0  0
 77153  1  0  0  0
 78 79  1  0  0  0
 78 82  1  0  0  0
 78154  1  0  0  0
 78155  1  0  0  0
 81156  1  0  0  0
 82157  1  0  0  0
M  CHG  1  81   1
M  ISO  4   1 100  68 101  77 101  82 100
M  END
> <chiral flag>
0

> <version>
0

> <s_m_source_file>
/data/baiqing/PycharmProjects/Reinvent-master-3.2/result/LINK_invent/BTK/process_docking_weight1_custom_sum_contain_oxygen_bond_distance_aromatic_linkinvent_7_9_3/rearranged_h_0057.sdf

> <i_m_source_file_index>
91

> <r_mmod_Potential_Energy-OPLS-2005>
528.259948730469

> <r_mmod_Stretch_Energy-OPLS-2005>
330.694000244141

> <r_mmod_Bend_Energy-OPLS-2005>
291.548126220703

> <r_mmod_Torsional_Energy-OPLS-2005>
240.344360351562

> <r_mmod_Improper_Torsional_Energy-OPLS-2005>
4.38600206375122

> <r_mmod_Van_der_Waal_Energy-OPLS-2005>
116.018363952637

> <r_mmod_Electrostatic_Energy-OPLS-2005>
-264.927764892578

> <r_mmod_Solvation_Energy-OPLS-2005>
-432.362182617188

> <b_mmod_Minimization_Converged-OPLS-2005>
0

> <r_mmod_RMS_Derivative-OPLS-2005>
2.95393753051758

$$$$
91
                    3D
 Structure written by MMmdl.
157165  0  0  1  0            999 V2000
  -30.5359  -15.0143   20.4006 C   0  0  0  0  0  0
  -30.4324  -12.6290   19.5116 C   0  0  0  0  0  0
  -29.5181  -12.5314   18.2667 C   0  0  0  0  0  0
  -28.0567  -12.3053   18.6913 C   0  0  0  0  0  0
  -27.6231  -13.2529   19.8386 C   0  0  2  0  0  0
  -28.6643  -13.3213   20.9768 C   0  0  0  0  0  0
  -25.2439  -13.8221   20.5718 C   0  0  0  0  0  0
  -24.1764  -13.0453   20.9246 C   0  0  0  0  0  0
  -24.6372  -11.6934   20.8766 C   0  0  0  0  0  0
  -23.9058  -10.4300   21.0416 C   0  0  0  0  0  0
  -24.3614   -9.4212   21.9193 C   0  0  0  0  0  0
  -23.6292   -8.2242   22.0751 C   0  0  0  0  0  0
  -22.4277   -8.0275   21.3539 C   0  0  0  0  0  0
  -21.9915   -9.0248   20.4640 C   0  0  0  0  0  0
  -22.7236  -10.2129   20.3059 C   0  0  0  0  0  0
  -21.6853   -6.0733   22.5272 C   0  0  0  0  0  0
  -21.4012   -6.5633   23.8208 C   0  0  0  0  0  0
  -21.3664   -5.6791   24.9171 C   0  0  0  0  0  0
  -21.6046   -4.3051   24.7224 C   0  0  0  0  0  0
  -21.8819   -3.8141   23.4346 C   0  0  0  0  0  0
  -21.9193   -4.6961   22.3399 C   0  0  0  0  0  0
  -22.7785  -13.5221   21.1897 C   0  0  0  0  0  0
  -22.1661   -4.2146   21.0979 F   0  0  0  0  0  0
  -21.5637   -3.4537   25.7736 F   0  0  0  0  0  0
  -29.9316  -13.7497   20.3678 N   0  0  0  0  0  0
  -26.2848  -12.9452   20.3262 N   0  0  0  0  0  0
  -25.9320  -11.6573   20.5774 N   0  0  0  0  0  0
  -22.0437  -12.8207   22.0429 N   0  0  0  0  0  0
  -25.4170  -15.1957   20.4128 N   0  0  0  0  0  0
  -31.7436  -15.0367   20.1374 O   0  0  0  0  0  0
  -21.6642   -6.8878   21.4233 O   0  0  0  0  0  0
  -22.3465  -14.5525   20.6734 O   0  0  0  0  0  0
  -24.6483  -31.8353   23.1827 C   0  0  0  0  0  0
  -25.9229  -32.4642   23.8245 C   0  0  1  0  0  0
  -27.2317  -27.0813   20.1545 C   0  0  0  0  0  0
  -25.5977  -33.8453   24.2129 N   0  0  0  0  0  0
  -23.4613  -30.4510   21.5249 C   0  0  2  0  0  0
  -24.9143  -28.8636   20.1192 C   0  0  0  0  0  0
  -22.7620  -29.4482   22.4791 C   0  0  0  0  0  0
  -18.0334  -28.1436   22.8480 C   0  0  0  0  0  0
  -24.1484  -36.7219   23.2636 C   0  0  0  0  0  0
  -26.0203  -30.6916   21.3918 C   0  0  0  0  0  0
  -26.0930  -29.2958   20.7367 C   0  0  0  0  0  0
  -27.2519  -28.4228   20.7320 C   0  0  0  0  0  0
  -26.0180  -26.7596   19.5088 C   0  0  0  0  0  0
  -24.8894  -27.6107   19.4906 C   0  0  0  0  0  0
  -23.6985  -29.7763   20.1497 C   0  0  0  0  0  0
  -25.4123  -36.2976   24.0289 C   0  0  1  0  0  0
  -20.5945  -28.3744   23.1230 C   0  0  2  0  0  0
  -20.6808  -26.9438   22.5414 C   0  0  0  0  0  0
  -19.5786  -26.6397   21.5227 C   0  0  0  0  0  0
  -18.1967  -26.7974   22.1623 C   0  0  0  0  0  0
  -19.1591  -28.8914   23.2845 C   0  0  0  0  0  0
  -18.9493  -30.1507   23.8879 C   0  0  0  0  0  0
  -17.6490  -30.6618   24.0570 C   0  0  0  0  0  0
  -25.9088  -34.9363   23.4999 C   0  0  0  0  0  0
  -16.5386  -29.9105   23.6344 C   0  0  0  0  0  0
  -16.7315  -28.6542   23.0347 C   0  0  0  0  0  0
  -26.4545  -31.6554   25.0706 C   0  0  0  0  0  0
  -25.3747  -31.3755   26.1414 C   0  0  0  0  0  0
  -27.0400  -30.2957   24.6293 C   0  0  0  0  0  0
  -27.6052  -32.4346   25.7490 C   0  0  0  0  0  0
  -27.5563  -37.1764   24.8464 C   0  0  0  0  0  0
  -21.4305  -29.3043   22.3573 N   0  0  0  0  0  0
  -26.4267  -37.3712   23.9410 N   0  0  0  0  0  0
  -24.7301  -31.0156   22.0879 N   0  0  0  0  0  0
  -23.4240  -28.7997   23.2945 O   0  0  0  0  0  0
  -28.2870  -26.0804   20.1964 O   0  0  0  0  0  0
  -26.5679  -34.8875   22.4578 O   0  0  0  0  0  0
  -23.5580  -32.1223   23.7030 O   0  0  0  0  0  0
  -29.7629  -20.5204   19.7549 C   0  0  0  0  0  0
  -29.5451  -19.2458   20.3780 C   0  0  0  0  0  0
  -28.3535  -20.9943   21.3455 C   0  0  0  0  0  0
  -30.0749  -23.5123   18.9198 C   0  0  0  0  0  0
  -26.8505  -20.6835   23.3703 C   0  0  0  0  0  0
  -30.2831  -17.7461   20.2615 C   0  0  0  0  0  0
  -28.0376  -24.5158   20.1642 C   0  0  0  0  0  0
  -29.2065  -23.2576   20.1621 C   0  0  1  0  0  0
  -27.4821  -21.6595   22.3684 C   0  0  0  0  0  0
  -29.0449  -21.6199   20.3565 N   0  0  0  0  0  0
  -28.6386  -19.6480   21.3419 N   0  3  0  0  0  0
  -29.8013  -16.2440   20.5055 N   0  0  0  0  0  0
  -26.4865  -22.2919   21.7523 F   0  0  0  0  0  0
  -28.2109  -22.5510   23.0420 F   0  0  0  0  0  0
  -31.4656  -12.7804   19.1994 H   0  0  0  0  0  0
  -30.4269  -11.6885   20.0674 H   0  0  0  0  0  0
  -29.8498  -11.7234   17.6144 H   0  0  0  0  0  0
  -29.5906  -13.4504   17.6820 H   0  0  0  0  0  0
  -27.9719  -11.2689   19.0228 H   0  0  0  0  0  0
  -27.3871  -12.4056   17.8378 H   0  0  0  0  0  0
  -27.5751  -14.2466   19.3897 H   0  0  0  0  0  0
  -28.7673  -12.3554   21.4746 H   0  0  0  0  0  0
  -28.3508  -14.0341   21.7419 H   0  0  0  0  0  0
  -25.2764   -9.5687   22.4772 H   0  0  0  0  0  0
  -24.0006   -7.4626   22.7472 H   0  0  0  0  0  0
  -21.0855   -8.8767   19.8938 H   0  0  0  0  0  0
  -22.3702  -10.9673   19.6165 H   0  0  0  0  0  0
  -21.1995   -7.6141   23.9707 H   0  0  0  0  0  0
  -21.1493   -6.0520   25.9074 H   0  0  0  0  0  0
  -22.0598   -2.7603   23.2844 H   0  0  0  0  0  0
  -22.4058  -11.9853   22.4802 H   0  0  0  0  0  0
  -21.1050  -13.1215   22.2664 H   0  0  0  0  0  0
  -24.6509  -15.8539   20.5046 H   0  0  0  0  0  0
  -26.2610  -15.6187   20.0499 H   0  0  0  0  0  0
  -26.7276  -32.5214   23.0951 H   0  0  0  0  0  0
  -25.0132  -33.9545   25.0294 H   0  0  0  0  0  0
  -22.7670  -31.2775   21.3588 H   0  0  0  0  0  0
  -23.3736  -35.9568   23.3295 H   0  0  0  0  0  0
  -24.3574  -36.8867   22.2053 H   0  0  0  0  0  0
  -23.7267  -37.6414   23.6709 H   0  0  0  0  0  0
  -26.1832  -31.4440   20.6185 H   0  0  0  0  0  0
  -26.8876  -30.7478   22.0358 H   0  0  0  0  0  0
  -28.1517  -28.7528   21.2313 H   0  0  0  0  0  0
  -25.9113  -25.8055   19.0169 H   0  0  0  0  0  0
  -23.9895  -27.2744   18.9953 H   0  0  0  0  0  0
  -23.8568  -30.5470   19.3916 H   0  0  0  0  0  0
  -22.8143  -29.2253   19.8249 H   0  0  0  0  0  0
  -25.1317  -36.1764   25.0788 H   0  0  0  0  0  0
  -21.0049  -28.3336   24.1352 H   0  0  0  0  0  0
  -20.5719  -26.2341   23.3628 H   0  0  0  0  0  0
  -21.6661  -26.7442   22.1190 H   0  0  0  0  0  0
  -19.6926  -25.6300   21.1284 H   0  0  0  0  0  0
  -19.6731  -27.3185   20.6738 H   0  0  0  0  0  0
  -17.4224  -26.6744   21.4028 H   0  0  0  0  0  0
  -18.0341  -26.0128   22.9032 H   0  0  0  0  0  0
  -19.7966  -30.7346   24.2221 H   0  0  0  0  0  0
  -17.5039  -31.6289   24.5183 H   0  0  0  0  0  0
  -15.5383  -30.2994   23.7693 H   0  0  0  0  0  0
  -15.8716  -28.0859   22.7038 H   0  0  0  0  0  0
  -24.5928  -30.7081   25.7771 H   0  0  0  0  0  0
  -24.8924  -32.2924   26.4799 H   0  0  0  0  0  0
  -25.8044  -30.8974   27.0231 H   0  0  0  0  0  0
  -26.3002  -29.6688   24.1293 H   0  0  0  0  0  0
  -27.4012  -29.7244   25.4852 H   0  0  0  0  0  0
  -27.8920  -30.4168   23.9602 H   0  0  0  0  0  0
  -27.2640  -33.3687   26.1970 H   0  0  0  0  0  0
  -28.3923  -32.6855   25.0372 H   0  0  0  0  0  0
  -28.0670  -31.8558   26.5500 H   0  0  0  0  0  0
  -28.2536  -38.0096   24.7517 H   0  0  0  0  0  0
  -28.1094  -36.2613   24.6274 H   0  0  0  0  0  0
  -27.2287  -37.1388   25.8871 H   0  0  0  0  0  0
  -20.9531  -29.8765   21.6750 H   0  0  0  0  0  0
  -26.0089  -38.2753   24.1513 H   0  0  0  0  0  0
  -30.4576  -20.7263   18.9514 H   0  0  0  0  0  0
  -30.3313  -24.5698   18.8324 H   0  0  0  0  0  0
  -29.5547  -23.2308   18.0049 H   0  0  0  0  0  0
  -31.0185  -22.9659   18.9661 H   0  0  0  0  0  0
  -26.1873  -19.9773   22.8698 H   0  0  0  0  0  0
  -26.2590  -21.2178   24.1114 H   0  0  0  0  0  0
  -27.6083  -20.1177   23.9116 H   0  0  0  0  0  0
  -31.1482  -17.8291   20.9180 H   0  0  0  0  0  0
  -30.7239  -17.7258   19.2632 H   0  0  0  0  0  0
  -27.4248  -24.3204   19.2837 H   0  0  0  0  0  0
  -27.3784  -24.3406   21.0112 H   0  0  0  0  0  0
  -29.8417  -23.5170   21.0092 H   0  0  0  0  0  0
  -28.2777  -19.0138   22.0468 H   0  0  0  0  0  0
  -28.8172  -16.1358   20.6931 H   0  0  0  0  0  0
  1 25  1  0  0  0
  1 30  2  0  0  0
  1 82  1  0  0  0
  2  3  1  0  0  0
  2 25  1  0  0  0
  2 85  1  0  0  0
  2 86  1  0  0  0
  3  4  1  0  0  0
  3 87  1  0  0  0
  3 88  1  0  0  0
  4  5  1  0  0  0
  4 89  1  0  0  0
  4 90  1  0  0  0
  5  6  1  0  0  0
  5 26  1  0  0  0
  5 91  1  0  0  0
  6 25  1  0  0  0
  6 92  1  0  0  0
  6 93  1  0  0  0
  7  8  2  0  0  0
  7 26  1  0  0  0
  7 29  1  0  0  0
  8  9  1  0  0  0
  8 22  1  0  0  0
  9 10  1  0  0  0
  9 27  2  0  0  0
 10 11  2  0  0  0
 10 15  1  0  0  0
 11 12  1  0  0  0
 11 94  1  0  0  0
 12 13  2  0  0  0
 12 95  1  0  0  0
 13 14  1  0  0  0
 13 31  1  0  0  0
 14 15  2  0  0  0
 14 96  1  0  0  0
 15 97  1  0  0  0
 16 17  2  0  0  0
 16 21  1  0  0  0
 16 31  1  0  0  0
 17 18  1  0  0  0
 17 98  1  0  0  0
 18 19  2  0  0  0
 18 99  1  0  0  0
 19 20  1  0  0  0
 19 24  1  0  0  0
 20 21  2  0  0  0
 20100  1  0  0  0
 21 23  1  0  0  0
 22 28  1  0  0  0
 22 32  2  0  0  0
 26 27  1  0  0  0
 28101  1  0  0  0
 28102  1  0  0  0
 29103  1  0  0  0
 29104  1  0  0  0
 33 34  1  0  0  0
 33 66  1  0  0  0
 33 70  2  0  0  0
 34 36  1  0  0  0
 34 59  1  0  0  0
 34105  1  0  0  0
 35 44  2  0  0  0
 35 45  1  0  0  0
 35 68  1  0  0  0
 36 56  1  0  0  0
 36106  1  0  0  0
 37 39  1  0  0  0
 37 47  1  0  0  0
 37 66  1  0  0  0
 37107  1  0  0  0
 38 43  2  0  0  0
 38 46  1  0  0  0
 38 47  1  0  0  0
 39 64  1  0  0  0
 39 67  2  0  0  0
 40 52  1  0  0  0
 40 53  2  0  0  0
 40 58  1  0  0  0
 41108  1  0  0  0
 41109  1  0  0  0
 41110  1  0  0  0
 41 48  1  0  0  0
 42 43  1  0  0  0
 42 66  1  0  0  0
 42111  1  0  0  0
 42112  1  0  0  0
 43 44  1  0  0  0
 44113  1  0  0  0
 45 46  2  0  0  0
 45114  1  0  0  0
 46115  1  0  0  0
 47116  1  0  0  0
 47117  1  0  0  0
 48 56  1  0  0  0
 48 65  1  0  0  0
 48118  1  0  0  0
 49 50  1  0  0  0
 49 53  1  0  0  0
 49 64  1  0  0  0
 49119  1  0  0  0
 50 51  1  0  0  0
 50120  1  0  0  0
 50121  1  0  0  0
 51 52  1  0  0  0
 51122  1  0  0  0
 51123  1  0  0  0
 52124  1  0  0  0
 52125  1  0  0  0
 53 54  1  0  0  0
 54 55  2  0  0  0
 54126  1  0  0  0
 55 57  1  0  0  0
 55127  1  0  0  0
 56 69  2  0  0  0
 57 58  2  0  0  0
 57128  1  0  0  0
 58129  1  0  0  0
 59 60  1  0  0  0
 59 61  1  0  0  0
 59 62  1  0  0  0
 60130  1  0  0  0
 60131  1  0  0  0
 60132  1  0  0  0
 61133  1  0  0  0
 61134  1  0  0  0
 61135  1  0  0  0
 62136  1  0  0  0
 62137  1  0  0  0
 62138  1  0  0  0
 63 65  1  0  0  0
 63139  1  0  0  0
 63140  1  0  0  0
 63141  1  0  0  0
 64142  1  0  0  0
 65143  1  0  0  0
 68 77  1  0  0  0
 71 72  2  0  0  0
 71 80  1  0  0  0
 71144  1  0  0  0
 72 76  1  0  0  0
 72 81  1  0  0  0
 73 79  1  0  0  0
 73 80  1  0  0  0
 73 81  2  0  0  0
 74145  1  0  0  0
 74146  1  0  0  0
 74147  1  0  0  0
 74 78  1  0  0  0
 75148  1  0  0  0
 75149  1  0  0  0
 75150  1  0  0  0
 75 79  1  0  0  0
 76 82  1  0  0  0
 76151  1  0  0  0
 76152  1  0  0  0
 77 78  1  0  0  0
 77153  1  0  0  0
 77154  1  0  0  0
 78 80  1  0  0  0
 78155  1  0  0  0
 79 83  1  0  0  0
 79 84  1  0  0  0
 81156  1  0  0  0
 82157  1  0  0  0
M  CHG  1  81   1
M  ISO  4   1 100  68 101  77 101  82 100
M  END
> <chiral flag>
0

> <version>
0

> <s_m_source_file>
/data/baiqing/PycharmProjects/Reinvent-master-3.2/result/LINK_invent/BTK/process_docking_weight1_custom_sum_contain_oxygen_bond_distance_aromatic_linkinvent_7_9_3/rearranged_h_0057.sdf

> <i_m_source_file_index>
92

> <r_mmod_Potential_Energy-OPLS-2005>
499.808044433594

> <r_mmod_Stretch_Energy-OPLS-2005>
323.404876708984

> <r_mmod_Bend_Energy-OPLS-2005>
303.962585449219

> <r_mmod_Torsional_Energy-OPLS-2005>
244.33805847168

> <r_mmod_Improper_Torsional_Energy-OPLS-2005>
7.76392316818237

> <r_mmod_Van_der_Waal_Energy-OPLS-2005>
112.051445007324

> <r_mmod_Electrostatic_Energy-OPLS-2005>
-294.310455322266

> <r_mmod_Solvation_Energy-OPLS-2005>
-436.744293212891

> <b_mmod_Minimization_Converged-OPLS-2005>
0

> <r_mmod_RMS_Derivative-OPLS-2005>
3.7469367980957

$$$$
92
                    3D
 Structure written by MMmdl.
153161  0  0  1  0            999 V2000
  -30.4207  -15.2200   20.3851 C   0  0  0  0  0  0
  -30.4477  -12.7656   19.5311 C   0  0  0  0  0  0
  -29.5424  -12.5840   18.2842 C   0  0  0  0  0  0
  -28.0785  -12.3282   18.6916 C   0  0  0  0  0  0
  -27.6205  -13.2718   19.8327 C   0  0  2  0  0  0
  -28.6581  -13.3653   20.9683 C   0  0  0  0  0  0
  -25.2383  -13.8245   20.5646 C   0  0  0  0  0  0
  -24.1746  -13.0443   20.9187 C   0  0  0  0  0  0
  -24.6403  -11.6937   20.8730 C   0  0  0  0  0  0
  -23.9092  -10.4297   21.0376 C   0  0  0  0  0  0
  -24.3631   -9.4218   21.9164 C   0  0  0  0  0  0
  -23.6287   -8.2270   22.0769 C   0  0  0  0  0  0
  -22.4276   -8.0299   21.3548 C   0  0  0  0  0  0
  -21.9903   -9.0271   20.4653 C   0  0  0  0  0  0
  -22.7252  -10.2137   20.3038 C   0  0  0  0  0  0
  -21.6865   -6.0727   22.5263 C   0  0  0  0  0  0
  -21.4035   -6.5635   23.8195 C   0  0  0  0  0  0
  -21.3665   -5.6786   24.9157 C   0  0  0  0  0  0
  -21.6041   -4.3049   24.7207 C   0  0  0  0  0  0
  -21.8820   -3.8143   23.4332 C   0  0  0  0  0  0
  -21.9196   -4.6953   22.3388 C   0  0  0  0  0  0
  -22.7762  -13.5197   21.1849 C   0  0  0  0  0  0
  -22.1657   -4.2137   21.0962 F   0  0  0  0  0  0
  -21.5617   -3.4540   25.7723 F   0  0  0  0  0  0
  -29.9010  -13.8911   20.3748 N   0  0  0  0  0  0
  -26.2843  -12.9522   20.3196 N   0  0  0  0  0  0
  -25.9348  -11.6629   20.5701 N   0  0  0  0  0  0
  -22.0445  -12.8195   22.0434 N   0  0  0  0  0  0
  -25.3933  -15.1983   20.3997 N   0  0  0  0  0  0
  -31.6350  -15.2199   20.1212 O   0  0  0  0  0  0
  -21.6655   -6.8884   21.4232 O   0  0  0  0  0  0
  -22.3419  -14.5490   20.6690 O   0  0  0  0  0  0
  -24.6603  -31.8251   23.1735 C   0  0  0  0  0  0
  -25.9303  -32.4605   23.8168 C   0  0  1  0  0  0
  -27.2224  -26.9593   20.1809 C   0  0  0  0  0  0
  -25.5958  -33.8415   24.2051 N   0  0  0  0  0  0
  -23.4751  -30.4390   21.5229 C   0  0  2  0  0  0
  -24.9283  -28.8302   20.1150 C   0  0  0  0  0  0
  -22.7643  -29.4462   22.4783 C   0  0  0  0  0  0
  -18.0320  -28.1441   22.8429 C   0  0  0  0  0  0
  -24.1493  -36.7242   23.2650 C   0  0  0  0  0  0
  -26.0423  -30.6392   21.4042 C   0  0  0  0  0  0
  -26.1109  -29.2337   20.7483 C   0  0  0  0  0  0
  -27.2535  -28.3188   20.7565 C   0  0  0  0  0  0
  -26.0114  -26.6990   19.4981 C   0  0  0  0  0  0
  -24.9014  -27.5827   19.4714 C   0  0  0  0  0  0
  -23.7164  -29.7601   20.1483 C   0  0  0  0  0  0
  -25.4136  -36.2966   24.0271 C   0  0  1  0  0  0
  -20.5934  -28.3786   23.1175 C   0  0  2  0  0  0
  -20.6826  -26.9465   22.5406 C   0  0  0  0  0  0
  -19.5799  -26.6379   21.5231 C   0  0  0  0  0  0
  -18.1967  -26.7968   22.1608 C   0  0  0  0  0  0
  -19.1577  -28.8934   23.2785 C   0  0  0  0  0  0
  -18.9501  -30.1531   23.8811 C   0  0  0  0  0  0
  -17.6499  -30.6625   24.0561 C   0  0  0  0  0  0
  -25.9085  -34.9356   23.4975 C   0  0  0  0  0  0
  -16.5383  -29.9117   23.6361 C   0  0  0  0  0  0
  -16.7303  -28.6559   23.0317 C   0  0  0  0  0  0
  -26.4544  -31.6578   25.0720 C   0  0  0  0  0  0
  -25.3629  -31.3861   26.1351 C   0  0  0  0  0  0
  -27.0446  -30.2925   24.6515 C   0  0  0  0  0  0
  -27.5976  -32.4450   25.7550 C   0  0  0  0  0  0
  -27.5561  -37.1767   24.8442 C   0  0  0  0  0  0
  -21.4314  -29.3077   22.3520 N   0  0  0  0  0  0
  -26.4277  -37.3698   23.9378 N   0  0  0  0  0  0
  -24.7468  -30.9928   22.0881 N   0  0  0  0  0  0
  -23.4191  -28.8032   23.3019 O   0  0  0  0  0  0
  -28.2387  -25.8781   20.2575 O   0  0  0  0  0  0
  -26.5719  -34.8878   22.4582 O   0  0  0  0  0  0
  -23.5675  -32.1221   23.6839 O   0  0  0  0  0  0
  -31.9705  -19.4182   20.8710 C   0  0  0  0  0  0
  -29.9206  -19.7958   20.4774 C   0  0  0  0  0  0
  -33.4038  -19.6584   21.1931 C   0  0  0  0  0  0
  -28.6774  -16.6854   21.7819 C   0  0  0  0  0  0
  -28.7457  -21.0270   20.2895 C   0  0  0  0  0  0
  -29.0078  -22.8066   20.3778 C   0  0  0  0  0  0
  -27.9802  -24.2617   20.1793 C   0  0  0  0  0  0
  -29.5616  -16.7627   20.5247 C   0  0  1  0  0  0
  -31.0852  -20.4208   20.6701 N   0  0  0  0  0  0
  -31.4978  -18.1895   20.7887 N   0  0  0  0  0  0
  -30.1684  -18.3051   20.5270 N   0  0  0  0  0  0
  -31.4696  -12.9665   19.2062 H   0  0  0  0  0  0
  -30.5030  -11.8376   20.1036 H   0  0  0  0  0  0
  -29.9085  -11.7662   17.6622 H   0  0  0  0  0  0
  -29.5953  -13.4851   17.6711 H   0  0  0  0  0  0
  -28.0016  -11.2898   19.0163 H   0  0  0  0  0  0
  -27.4212  -12.4294   17.8259 H   0  0  0  0  0  0
  -27.5606  -14.2626   19.3841 H   0  0  0  0  0  0
  -28.8107  -12.3903   21.4325 H   0  0  0  0  0  0
  -28.3059  -14.0122   21.7688 H   0  0  0  0  0  0
  -25.2779   -9.5696   22.4738 H   0  0  0  0  0  0
  -23.9982   -7.4676   22.7523 H   0  0  0  0  0  0
  -21.0824   -8.8798   19.8978 H   0  0  0  0  0  0
  -22.3703  -10.9669   19.6149 H   0  0  0  0  0  0
  -21.2054   -7.6150   23.9691 H   0  0  0  0  0  0
  -21.1481   -6.0520   25.9052 H   0  0  0  0  0  0
  -22.0597   -2.7606   23.2833 H   0  0  0  0  0  0
  -22.4085  -11.9853   22.4800 H   0  0  0  0  0  0
  -21.1094  -13.1239   22.2713 H   0  0  0  0  0  0
  -24.6104  -15.8370   20.4950 H   0  0  0  0  0  0
  -26.2241  -15.6474   20.0378 H   0  0  0  0  0  0
  -26.7372  -32.5134   23.0869 H   0  0  0  0  0  0
  -24.9995  -33.9498   25.0121 H   0  0  0  0  0  0
  -22.7908  -31.2724   21.3568 H   0  0  0  0  0  0
  -23.3735  -35.9598   23.3290 H   0  0  0  0  0  0
  -24.3558  -36.8947   22.2077 H   0  0  0  0  0  0
  -23.7305  -37.6423   23.6764 H   0  0  0  0  0  0
  -26.2231  -31.3815   20.6270 H   0  0  0  0  0  0
  -26.8996  -30.6910   22.0635 H   0  0  0  0  0  0
  -28.1495  -28.6250   21.2795 H   0  0  0  0  0  0
  -25.8920  -25.7492   18.9972 H   0  0  0  0  0  0
  -24.0013  -27.2708   18.9596 H   0  0  0  0  0  0
  -23.8809  -30.5340   19.3975 H   0  0  0  0  0  0
  -22.8222  -29.2249   19.8260 H   0  0  0  0  0  0
  -25.1351  -36.1750   25.0761 H   0  0  0  0  0  0
  -21.0006  -28.3449   24.1296 H   0  0  0  0  0  0
  -20.5801  -26.2391   23.3656 H   0  0  0  0  0  0
  -21.6679  -26.7512   22.1157 H   0  0  0  0  0  0
  -19.6964  -25.6263   21.1330 H   0  0  0  0  0  0
  -19.6762  -27.3146   20.6726 H   0  0  0  0  0  0
  -17.4242  -26.6694   21.4008 H   0  0  0  0  0  0
  -18.0330  -26.0165   22.9049 H   0  0  0  0  0  0
  -19.7992  -30.7356   24.2124 H   0  0  0  0  0  0
  -17.5070  -31.6282   24.5198 H   0  0  0  0  0  0
  -15.5385  -30.2981   23.7779 H   0  0  0  0  0  0
  -15.8700  -28.0904   22.6996 H   0  0  0  0  0  0
  -24.5773  -30.7291   25.7601 H   0  0  0  0  0  0
  -24.8871  -32.3093   26.4659 H   0  0  0  0  0  0
  -25.7785  -30.9040   27.0209 H   0  0  0  0  0  0
  -26.3124  -29.6574   24.1517 H   0  0  0  0  0  0
  -27.3906  -29.7339   25.5223 H   0  0  0  0  0  0
  -27.9096  -30.4051   23.9982 H   0  0  0  0  0  0
  -27.2462  -33.3764   26.1996 H   0  0  0  0  0  0
  -28.3843  -32.7022   25.0445 H   0  0  0  0  0  0
  -28.0601  -31.8717   26.5588 H   0  0  0  0  0  0
  -28.2514  -38.0118   24.7472 H   0  0  0  0  0  0
  -28.1112  -36.2618   24.6282 H   0  0  0  0  0  0
  -27.2253  -37.1416   25.8839 H   0  0  0  0  0  0
  -20.9573  -29.8775   21.6648 H   0  0  0  0  0  0
  -26.0111  -38.2739   24.1424 H   0  0  0  0  0  0
  -33.6677  -20.7026   21.0294 H   0  0  0  0  0  0
  -34.0445  -19.0388   20.5662 H   0  0  0  0  0  0
  -33.6014  -19.4140   22.2371 H   0  0  0  0  0  0
  -28.3748  -17.6734   22.1281 H   0  0  0  0  0  0
  -29.2013  -16.2048   22.6090 H   0  0  0  0  0  0
  -27.7573  -16.1376   21.5919 H   0  0  0  0  0  0
  -27.9615  -20.7930   21.0087 H   0  0  0  0  0  0
  -28.2797  -20.8339   19.3231 H   0  0  0  0  0  0
  -29.8263  -22.9762   19.6786 H   0  0  0  0  0  0
  -29.4685  -22.9458   21.3556 H   0  0  0  0  0  0
  -27.1620  -24.1187   20.8856 H   0  0  0  0  0  0
  -27.5115  -24.1236   19.2058 H   0  0  0  0  0  0
  -28.8921  -16.7546   19.6647 H   0  0  0  0  0  0
  1 25  1  0  0  0
  1 30  2  0  0  0
  1 78  1  0  0  0
  2  3  1  0  0  0
  2 25  1  0  0  0
  2 82  1  0  0  0
  2 83  1  0  0  0
  3  4  1  0  0  0
  3 84  1  0  0  0
  3 85  1  0  0  0
  4  5  1  0  0  0
  4 86  1  0  0  0
  4 87  1  0  0  0
  5  6  1  0  0  0
  5 26  1  0  0  0
  5 88  1  0  0  0
  6 25  1  0  0  0
  6 89  1  0  0  0
  6 90  1  0  0  0
  7  8  2  0  0  0
  7 26  1  0  0  0
  7 29  1  0  0  0
  8  9  1  0  0  0
  8 22  1  0  0  0
  9 10  1  0  0  0
  9 27  2  0  0  0
 10 11  2  0  0  0
 10 15  1  0  0  0
 11 12  1  0  0  0
 11 91  1  0  0  0
 12 13  2  0  0  0
 12 92  1  0  0  0
 13 14  1  0  0  0
 13 31  1  0  0  0
 14 15  2  0  0  0
 14 93  1  0  0  0
 15 94  1  0  0  0
 16 17  2  0  0  0
 16 21  1  0  0  0
 16 31  1  0  0  0
 17 18  1  0  0  0
 17 95  1  0  0  0
 18 19  2  0  0  0
 18 96  1  0  0  0
 19 20  1  0  0  0
 19 24  1  0  0  0
 20 21  2  0  0  0
 20 97  1  0  0  0
 21 23  1  0  0  0
 22 28  1  0  0  0
 22 32  2  0  0  0
 26 27  1  0  0  0
 28 98  1  0  0  0
 28 99  1  0  0  0
 29100  1  0  0  0
 29101  1  0  0  0
 33 34  1  0  0  0
 33 66  1  0  0  0
 33 70  2  0  0  0
 34 36  1  0  0  0
 34 59  1  0  0  0
 34102  1  0  0  0
 35 44  2  0  0  0
 35 45  1  0  0  0
 35 68  1  0  0  0
 36 56  1  0  0  0
 36103  1  0  0  0
 37 39  1  0  0  0
 37 47  1  0  0  0
 37 66  1  0  0  0
 37104  1  0  0  0
 38 43  2  0  0  0
 38 46  1  0  0  0
 38 47  1  0  0  0
 39 64  1  0  0  0
 39 67  2  0  0  0
 40 52  1  0  0  0
 40 53  2  0  0  0
 40 58  1  0  0  0
 41105  1  0  0  0
 41106  1  0  0  0
 41107  1  0  0  0
 41 48  1  0  0  0
 42 43  1  0  0  0
 42 66  1  0  0  0
 42108  1  0  0  0
 42109  1  0  0  0
 43 44  1  0  0  0
 44110  1  0  0  0
 45 46  2  0  0  0
 45111  1  0  0  0
 46112  1  0  0  0
 47113  1  0  0  0
 47114  1  0  0  0
 48 56  1  0  0  0
 48 65  1  0  0  0
 48115  1  0  0  0
 49 50  1  0  0  0
 49 53  1  0  0  0
 49 64  1  0  0  0
 49116  1  0  0  0
 50 51  1  0  0  0
 50117  1  0  0  0
 50118  1  0  0  0
 51 52  1  0  0  0
 51119  1  0  0  0
 51120  1  0  0  0
 52121  1  0  0  0
 52122  1  0  0  0
 53 54  1  0  0  0
 54 55  2  0  0  0
 54123  1  0  0  0
 55 57  1  0  0  0
 55124  1  0  0  0
 56 69  2  0  0  0
 57 58  2  0  0  0
 57125  1  0  0  0
 58126  1  0  0  0
 59 60  1  0  0  0
 59 61  1  0  0  0
 59 62  1  0  0  0
 60127  1  0  0  0
 60128  1  0  0  0
 60129  1  0  0  0
 61130  1  0  0  0
 61131  1  0  0  0
 61132  1  0  0  0
 62133  1  0  0  0
 62134  1  0  0  0
 62135  1  0  0  0
 63 65  1  0  0  0
 63136  1  0  0  0
 63137  1  0  0  0
 63138  1  0  0  0
 64139  1  0  0  0
 65140  1  0  0  0
 68 77  1  0  0  0
 71 73  1  0  0  0
 71 79  1  0  0  0
 71 80  2  0  0  0
 72 75  1  0  0  0
 72 79  2  0  0  0
 72 81  1  0  0  0
 73141  1  0  0  0
 73142  1  0  0  0
 73143  1  0  0  0
 74144  1  0  0  0
 74145  1  0  0  0
 74146  1  0  0  0
 74 78  1  0  0  0
 75 76  1  0  0  0
 75147  1  0  0  0
 75148  1  0  0  0
 76 77  1  0  0  0
 76149  1  0  0  0
 76150  1  0  0  0
 77151  1  0  0  0
 77152  1  0  0  0
 78 81  1  0  0  0
 78153  1  0  0  0
 80 81  1  0  0  0
M  ISO  4   1 100  68 101  77 101  78 100
M  END
> <chiral flag>
0

> <version>
0

> <s_m_source_file>
/data/baiqing/PycharmProjects/Reinvent-master-3.2/result/LINK_invent/BTK/process_docking_weight1_custom_sum_contain_oxygen_bond_distance_aromatic_linkinvent_7_9_3/rearranged_h_0057.sdf

> <i_m_source_file_index>
93

> <r_mmod_Potential_Energy-OPLS-2005>
1265.58349609375

> <r_mmod_Stretch_Energy-OPLS-2005>
599.736328125

> <r_mmod_Bend_Energy-OPLS-2005>
475.752990722656

> <r_mmod_Torsional_Energy-OPLS-2005>
223.717834472656

> <r_mmod_Improper_Torsional_Energy-OPLS-2005>
3.82063508033752

> <r_mmod_Van_der_Waal_Energy-OPLS-2005>
106.779312133789

> <r_mmod_Electrostatic_Energy-OPLS-2005>
-320.913024902344

> <r_mmod_Solvation_Energy-OPLS-2005>
-224.446731567383

> <b_mmod_Minimization_Converged-OPLS-2005>
0

> <r_mmod_RMS_Derivative-OPLS-2005>
2.74653816223145

$$$$
93
                    3D
 Structure written by MMmdl.
151159  0  0  1  0            999 V2000
  -30.4474  -15.2336   20.4061 C   0  0  0  0  0  0
  -30.4461  -12.7981   19.4896 C   0  0  0  0  0  0
  -29.5196  -12.5787   18.2649 C   0  0  0  0  0  0
  -28.0642  -12.3165   18.6940 C   0  0  0  0  0  0
  -27.6172  -13.2615   19.8381 C   0  0  2  0  0  0
  -28.6759  -13.3333   20.9588 C   0  0  0  0  0  0
  -25.2343  -13.8176   20.5712 C   0  0  0  0  0  0
  -24.1707  -13.0381   20.9230 C   0  0  0  0  0  0
  -24.6386  -11.6892   20.8757 C   0  0  0  0  0  0
  -23.9090  -10.4266   21.0404 C   0  0  0  0  0  0
  -24.3631   -9.4195   21.9190 C   0  0  0  0  0  0
  -23.6301   -8.2235   22.0754 C   0  0  0  0  0  0
  -22.4285   -8.0277   21.3545 C   0  0  0  0  0  0
  -21.9932   -9.0251   20.4643 C   0  0  0  0  0  0
  -22.7260  -10.2126   20.3057 C   0  0  0  0  0  0
  -21.6850   -6.0737   22.5280 C   0  0  0  0  0  0
  -21.3996   -6.5629   23.8215 C   0  0  0  0  0  0
  -21.3663   -5.6781   24.9174 C   0  0  0  0  0  0
  -21.6054   -4.3045   24.7222 C   0  0  0  0  0  0
  -21.8815   -3.8144   23.4336 C   0  0  0  0  0  0
  -21.9196   -4.6964   22.3399 C   0  0  0  0  0  0
  -22.7724  -13.5137   21.1881 C   0  0  0  0  0  0
  -22.1663   -4.2155   21.0974 F   0  0  0  0  0  0
  -21.5654   -3.4529   25.7734 F   0  0  0  0  0  0
  -29.8832  -13.9184   20.3372 N   0  0  0  0  0  0
  -26.2836  -12.9466   20.3313 N   0  0  0  0  0  0
  -25.9332  -11.6578   20.5775 N   0  0  0  0  0  0
  -22.0389  -12.8145   22.0454 N   0  0  0  0  0  0
  -25.3836  -15.1902   20.4060 N   0  0  0  0  0  0
  -31.6649  -15.2213   20.1630 O   0  0  0  0  0  0
  -21.6639   -6.8884   21.4248 O   0  0  0  0  0  0
  -22.3398  -14.5445   20.6730 O   0  0  0  0  0  0
  -24.6638  -31.8258   23.1700 C   0  0  0  0  0  0
  -25.9327  -32.4599   23.8157 C   0  0  1  0  0  0
  -27.2099  -26.9454   20.1804 C   0  0  0  0  0  0
  -25.5996  -33.8405   24.2070 N   0  0  0  0  0  0
  -23.4744  -30.4410   21.5215 C   0  0  2  0  0  0
  -24.9224  -28.8314   20.1073 C   0  0  0  0  0  0
  -22.7661  -29.4472   22.4794 C   0  0  0  0  0  0
  -18.0318  -28.1420   22.8453 C   0  0  0  0  0  0
  -24.1479  -36.7219   23.2651 C   0  0  0  0  0  0
  -26.0425  -30.6357   21.3932 C   0  0  0  0  0  0
  -26.1066  -29.2276   20.7405 C   0  0  0  0  0  0
  -27.2461  -28.3066   20.7535 C   0  0  0  0  0  0
  -25.9959  -26.6979   19.4967 C   0  0  0  0  0  0
  -24.8919  -27.5858   19.4617 C   0  0  0  0  0  0
  -23.7074  -29.7590   20.1458 C   0  0  0  0  0  0
  -25.4117  -36.2984   24.0312 C   0  0  1  0  0  0
  -20.5939  -28.3768   23.1176 C   0  0  2  0  0  0
  -20.6794  -26.9455   22.5388 C   0  0  0  0  0  0
  -19.5771  -26.6389   21.5202 C   0  0  0  0  0  0
  -18.1951  -26.7950   22.1612 C   0  0  0  0  0  0
  -19.1581  -28.8913   23.2800 C   0  0  0  0  0  0
  -18.9507  -30.1493   23.8851 C   0  0  0  0  0  0
  -17.6505  -30.6607   24.0558 C   0  0  0  0  0  0
  -25.9092  -34.9370   23.5012 C   0  0  0  0  0  0
  -16.5387  -29.9099   23.6356 C   0  0  0  0  0  0
  -16.7302  -28.6521   23.0363 C   0  0  0  0  0  0
  -26.4569  -31.6534   25.0677 C   0  0  0  0  0  0
  -25.3700  -31.3777   26.1341 C   0  0  0  0  0  0
  -27.0465  -30.2918   24.6364 C   0  0  0  0  0  0
  -27.6075  -32.4333   25.7470 C   0  0  0  0  0  0
  -27.5559  -37.1765   24.8477 C   0  0  0  0  0  0
  -21.4332  -29.3064   22.3545 N   0  0  0  0  0  0
  -26.4265  -37.3721   23.9426 N   0  0  0  0  0  0
  -24.7490  -30.9937   22.0826 N   0  0  0  0  0  0
  -23.4220  -28.8025   23.3017 O   0  0  0  0  0  0
  -28.2027  -25.8388   20.2671 O   0  0  0  0  0  0
  -26.5699  -34.8917   22.4605 O   0  0  0  0  0  0
  -23.5714  -32.1220   23.6818 O   0  0  0  0  0  0
  -29.4763  -20.6298   19.1728 C   0  0  0  0  0  0
  -29.4450  -19.6854   20.2852 C   0  0  0  0  0  0
  -28.6114  -21.7693   21.4021 C   0  0  0  0  0  0
  -28.6412  -22.7139   20.2763 C   0  0  0  0  0  0
  -28.0755  -22.2546   22.7331 C   0  0  0  0  0  0
  -28.3172  -16.6029   20.8990 C   0  0  0  0  0  0
  -30.1916  -18.1077   20.2916 C   0  0  0  0  0  0
  -27.8255  -24.2534   20.1235 C   0  0  0  0  0  0
  -29.0913  -22.0023   19.1620 N   0  0  0  0  0  0
  -29.0058  -20.3908   21.4096 N   0  0  0  0  0  0
  -29.7209  -16.5382   20.5023 N   0  0  0  0  0  0
  -31.4488  -13.0288   19.1270 H   0  0  0  0  0  0
  -30.5619  -11.8746   20.0608 H   0  0  0  0  0  0
  -29.8827  -11.7540   17.6485 H   0  0  0  0  0  0
  -29.5477  -13.4664   17.6321 H   0  0  0  0  0  0
  -27.9946  -11.2797   19.0249 H   0  0  0  0  0  0
  -27.3926  -12.4049   17.8387 H   0  0  0  0  0  0
  -27.5515  -14.2498   19.3836 H   0  0  0  0  0  0
  -28.8662  -12.3331   21.3514 H   0  0  0  0  0  0
  -28.3391  -13.8924   21.8260 H   0  0  0  0  0  0
  -25.2769   -9.5685   22.4774 H   0  0  0  0  0  0
  -24.0014   -7.4633   22.7475 H   0  0  0  0  0  0
  -21.0872   -8.8779   19.8936 H   0  0  0  0  0  0
  -22.3723  -10.9679   19.6181 H   0  0  0  0  0  0
  -21.1946   -7.6128   23.9718 H   0  0  0  0  0  0
  -21.1501   -6.0505   25.9085 H   0  0  0  0  0  0
  -22.0584   -2.7606   23.2829 H   0  0  0  0  0  0
  -22.3983  -11.9790   22.4832 H   0  0  0  0  0  0
  -21.1032  -13.1199   22.2698 H   0  0  0  0  0  0
  -24.6069  -15.8339   20.5113 H   0  0  0  0  0  0
  -26.2324  -15.6395   20.0930 H   0  0  0  0  0  0
  -26.7398  -32.5130   23.0869 H   0  0  0  0  0  0
  -25.0132  -33.9461   25.0219 H   0  0  0  0  0  0
  -22.7889  -31.2744   21.3562 H   0  0  0  0  0  0
  -23.3757  -35.9540   23.3294 H   0  0  0  0  0  0
  -24.3565  -36.8871   22.2073 H   0  0  0  0  0  0
  -23.7215  -37.6398   23.6700 H   0  0  0  0  0  0
  -26.2140  -31.3675   20.6028 H   0  0  0  0  0  0
  -26.9097  -30.6953   22.0388 H   0  0  0  0  0  0
  -28.1398  -28.6058   21.2819 H   0  0  0  0  0  0
  -25.8515  -25.7488   19.0023 H   0  0  0  0  0  0
  -23.9946  -27.2738   18.9442 H   0  0  0  0  0  0
  -23.8544  -30.5284   19.3871 H   0  0  0  0  0  0
  -22.8131  -29.2158   19.8333 H   0  0  0  0  0  0
  -25.1303  -36.1796   25.0802 H   0  0  0  0  0  0
  -21.0027  -28.3371   24.1297 H   0  0  0  0  0  0
  -20.5688  -26.2391   23.3627 H   0  0  0  0  0  0
  -21.6657  -26.7431   22.1191 H   0  0  0  0  0  0
  -19.6941  -25.6295   21.1248 H   0  0  0  0  0  0
  -19.6704  -27.3183   20.6715 H   0  0  0  0  0  0
  -17.4218  -26.6691   21.4013 H   0  0  0  0  0  0
  -18.0350  -26.0099   22.9020 H   0  0  0  0  0  0
  -19.7987  -30.7306   24.2202 H   0  0  0  0  0  0
  -17.5066  -31.6283   24.5173 H   0  0  0  0  0  0
  -15.5392  -30.2997   23.7708 H   0  0  0  0  0  0
  -15.8692  -28.0827   22.7115 H   0  0  0  0  0  0
  -24.5900  -30.7103   25.7651 H   0  0  0  0  0  0
  -24.8871  -32.2969   26.4661 H   0  0  0  0  0  0
  -25.7936  -30.9016   27.0190 H   0  0  0  0  0  0
  -26.3125  -29.6601   24.1346 H   0  0  0  0  0  0
  -27.4013  -29.7263   25.4987 H   0  0  0  0  0  0
  -27.9042  -30.4140   23.9751 H   0  0  0  0  0  0
  -27.2679  -33.3714   26.1870 H   0  0  0  0  0  0
  -28.3962  -32.6753   25.0336 H   0  0  0  0  0  0
  -28.0639  -31.8562   26.5519 H   0  0  0  0  0  0
  -28.2573  -38.0064   24.7520 H   0  0  0  0  0  0
  -28.1049  -36.2593   24.6294 H   0  0  0  0  0  0
  -27.2286  -37.1408   25.8882 H   0  0  0  0  0  0
  -20.9608  -29.8774   21.6681 H   0  0  0  0  0  0
  -26.0121  -38.2786   24.1431 H   0  0  0  0  0  0
  -29.8674  -20.2738   18.2311 H   0  0  0  0  0  0
  -28.6025  -23.1575   23.0415 H   0  0  0  0  0  0
  -28.1970  -21.5098   23.5216 H   0  0  0  0  0  0
  -27.0145  -22.4877   22.6508 H   0  0  0  0  0  0
  -28.0452  -15.8862   21.6635 H   0  0  0  0  0  0
  -27.6902  -16.4831   20.0185 H   0  0  0  0  0  0
  -28.0607  -17.5657   21.3416 H   0  0  0  0  0  0
  -31.0196  -18.2225   20.9903 H   0  0  0  0  0  0
  -30.6847  -18.0790   19.3206 H   0  0  0  0  0  0
  -26.9460  -24.1372   20.7580 H   0  0  0  0  0  0
  -27.4282  -24.1832   19.1121 H   0  0  0  0  0  0
  1 25  1  0  0  0
  1 30  2  0  0  0
  1 81  1  0  0  0
  2  3  1  0  0  0
  2 25  1  0  0  0
  2 82  1  0  0  0
  2 83  1  0  0  0
  3  4  1  0  0  0
  3 84  1  0  0  0
  3 85  1  0  0  0
  4  5  1  0  0  0
  4 86  1  0  0  0
  4 87  1  0  0  0
  5  6  1  0  0  0
  5 26  1  0  0  0
  5 88  1  0  0  0
  6 25  1  0  0  0
  6 89  1  0  0  0
  6 90  1  0  0  0
  7  8  2  0  0  0
  7 26  1  0  0  0
  7 29  1  0  0  0
  8  9  1  0  0  0
  8 22  1  0  0  0
  9 10  1  0  0  0
  9 27  2  0  0  0
 10 11  2  0  0  0
 10 15  1  0  0  0
 11 12  1  0  0  0
 11 91  1  0  0  0
 12 13  2  0  0  0
 12 92  1  0  0  0
 13 14  1  0  0  0
 13 31  1  0  0  0
 14 15  2  0  0  0
 14 93  1  0  0  0
 15 94  1  0  0  0
 16 17  2  0  0  0
 16 21  1  0  0  0
 16 31  1  0  0  0
 17 18  1  0  0  0
 17 95  1  0  0  0
 18 19  2  0  0  0
 18 96  1  0  0  0
 19 20  1  0  0  0
 19 24  1  0  0  0
 20 21  2  0  0  0
 20 97  1  0  0  0
 21 23  1  0  0  0
 22 28  1  0  0  0
 22 32  2  0  0  0
 26 27  1  0  0  0
 28 98  1  0  0  0
 28 99  1  0  0  0
 29100  1  0  0  0
 29101  1  0  0  0
 33 34  1  0  0  0
 33 66  1  0  0  0
 33 70  2  0  0  0
 34 36  1  0  0  0
 34 59  1  0  0  0
 34102  1  0  0  0
 35 44  2  0  0  0
 35 45  1  0  0  0
 35 68  1  0  0  0
 36 56  1  0  0  0
 36103  1  0  0  0
 37 39  1  0  0  0
 37 47  1  0  0  0
 37 66  1  0  0  0
 37104  1  0  0  0
 38 43  2  0  0  0
 38 46  1  0  0  0
 38 47  1  0  0  0
 39 64  1  0  0  0
 39 67  2  0  0  0
 40 52  1  0  0  0
 40 53  2  0  0  0
 40 58  1  0  0  0
 41105  1  0  0  0
 41106  1  0  0  0
 41107  1  0  0  0
 41 48  1  0  0  0
 42 43  1  0  0  0
 42 66  1  0  0  0
 42108  1  0  0  0
 42109  1  0  0  0
 43 44  1  0  0  0
 44110  1  0  0  0
 45 46  2  0  0  0
 45111  1  0  0  0
 46112  1  0  0  0
 47113  1  0  0  0
 47114  1  0  0  0
 48 56  1  0  0  0
 48 65  1  0  0  0
 48115  1  0  0  0
 49 50  1  0  0  0
 49 53  1  0  0  0
 49 64  1  0  0  0
 49116  1  0  0  0
 50 51  1  0  0  0
 50117  1  0  0  0
 50118  1  0  0  0
 51 52  1  0  0  0
 51119  1  0  0  0
 51120  1  0  0  0
 52121  1  0  0  0
 52122  1  0  0  0
 53 54  1  0  0  0
 54 55  2  0  0  0
 54123  1  0  0  0
 55 57  1  0  0  0
 55124  1  0  0  0
 56 69  2  0  0  0
 57 58  2  0  0  0
 57125  1  0  0  0
 58126  1  0  0  0
 59 60  1  0  0  0
 59 61  1  0  0  0
 59 62  1  0  0  0
 60127  1  0  0  0
 60128  1  0  0  0
 60129  1  0  0  0
 61130  1  0  0  0
 61131  1  0  0  0
 61132  1  0  0  0
 62133  1  0  0  0
 62134  1  0  0  0
 62135  1  0  0  0
 63 65  1  0  0  0
 63136  1  0  0  0
 63137  1  0  0  0
 63138  1  0  0  0
 64139  1  0  0  0
 65140  1  0  0  0
 68 78  1  0  0  0
 71 72  2  0  0  0
 71 79  1  0  0  0
 71141  1  0  0  0
 72 77  1  0  0  0
 72 80  1  0  0  0
 73 74  1  0  0  0
 73 75  1  0  0  0
 73 80  2  0  0  0
 74 78  1  0  0  0
 74 79  2  0  0  0
 75142  1  0  0  0
 75143  1  0  0  0
 75144  1  0  0  0
 76 81  1  0  0  0
 76145  1  0  0  0
 76146  1  0  0  0
 76147  1  0  0  0
 77 81  1  0  0  0
 77148  1  0  0  0
 77149  1  0  0  0
 78150  1  0  0  0
 78151  1  0  0  0
M  ISO  4   1 100  68 101  78 101  81 100
M  END
> <chiral flag>
0

> <version>
0

> <s_m_source_file>
/data/baiqing/PycharmProjects/Reinvent-master-3.2/result/LINK_invent/BTK/process_docking_weight1_custom_sum_contain_oxygen_bond_distance_aromatic_linkinvent_7_9_3/rearranged_h_0057.sdf

> <i_m_source_file_index>
94

> <r_mmod_Potential_Energy-OPLS-2005>
1289.39392089844

> <r_mmod_Stretch_Energy-OPLS-2005>
504.321716308594

> <r_mmod_Bend_Energy-OPLS-2005>
438.552368164062

> <r_mmod_Torsional_Energy-OPLS-2005>
258.78564453125

> <r_mmod_Improper_Torsional_Energy-OPLS-2005>
9.79458045959473

> <r_mmod_Van_der_Waal_Energy-OPLS-2005>
139.395462036133

> <r_mmod_Electrostatic_Energy-OPLS-2005>
-250.357849121094

> <r_mmod_Solvation_Energy-OPLS-2005>
-227.442520141602

> <b_mmod_Minimization_Converged-OPLS-2005>
0

> <r_mmod_RMS_Derivative-OPLS-2005>
2.39137959480286

$$$$
94
                    3D
 Structure written by MMmdl.
160168  0  0  1  0            999 V2000
  -30.7766  -14.6903   20.4010 C   0  0  0  0  0  0
  -30.4239  -12.4421   19.4402 C   0  0  0  0  0  0
  -29.4925  -12.4531   18.2148 C   0  0  0  0  0  0
  -28.0326  -12.2851   18.6668 C   0  0  0  0  0  0
  -27.6430  -13.2399   19.8301 C   0  0  2  0  0  0
  -28.7109  -13.2668   20.9479 C   0  0  0  0  0  0
  -25.2527  -13.8222   20.5742 C   0  0  0  0  0  0
  -24.1808  -13.0448   20.9225 C   0  0  0  0  0  0
  -24.6401  -11.6946   20.8745 C   0  0  0  0  0  0
  -23.9082  -10.4293   21.0390 C   0  0  0  0  0  0
  -24.3599   -9.4217   21.9181 C   0  0  0  0  0  0
  -23.6262   -8.2260   22.0745 C   0  0  0  0  0  0
  -22.4253   -8.0289   21.3529 C   0  0  0  0  0  0
  -21.9884   -9.0302   20.4653 C   0  0  0  0  0  0
  -22.7254  -10.2152   20.3055 C   0  0  0  0  0  0
  -21.6884   -6.0685   22.5266 C   0  0  0  0  0  0
  -21.4058   -6.5591   23.8201 C   0  0  0  0  0  0
  -21.3664   -5.6735   24.9173 C   0  0  0  0  0  0
  -21.6026   -4.2994   24.7235 C   0  0  0  0  0  0
  -21.8825   -3.8099   23.4362 C   0  0  0  0  0  0
  -21.9217   -4.6903   22.3416 C   0  0  0  0  0  0
  -22.7802  -13.5227   21.1850 C   0  0  0  0  0  0
  -22.1679   -4.2073   21.0990 F   0  0  0  0  0  0
  -21.5643   -3.4497   25.7753 F   0  0  0  0  0  0
  -29.9961  -13.5627   20.3000 N   0  0  0  0  0  0
  -26.2991  -12.9478   20.3294 N   0  0  0  0  0  0
  -25.9354  -11.6623   20.5788 N   0  0  0  0  0  0
  -22.0393  -12.8276   22.0374 N   0  0  0  0  0  0
  -25.4171  -15.1956   20.4204 N   0  0  0  0  0  0
  -31.9963  -14.5442   20.3915 O   0  0  0  0  0  0
  -21.6680   -6.8849   21.4224 O   0  0  0  0  0  0
  -22.3500  -14.5542   20.6692 O   0  0  0  0  0  0
  -24.6241  -31.8629   23.2032 C   0  0  0  0  0  0
  -25.9094  -32.4819   23.8310 C   0  0  1  0  0  0
  -27.2078  -27.3325   20.1243 C   0  0  0  0  0  0
  -25.5942  -33.8612   24.2294 N   0  0  0  0  0  0
  -23.4174  -30.4805   21.5444 C   0  0  2  0  0  0
  -24.8642  -28.9462   20.0993 C   0  0  0  0  0  0
  -22.7490  -29.4576   22.4961 C   0  0  0  0  0  0
  -18.0284  -28.1392   22.8446 C   0  0  0  0  0  0
  -24.1488  -36.7310   23.2613 C   0  0  0  0  0  0
  -25.9512  -30.7968   21.3689 C   0  0  0  0  0  0
  -26.0280  -29.4250   20.7151 C   0  0  0  0  0  0
  -27.2105  -28.6300   20.7168 C   0  0  0  0  0  0
  -26.0332  -26.9096   19.4662 C   0  0  0  0  0  0
  -24.8674  -27.6965   19.4572 C   0  0  0  0  0  0
  -23.6317  -29.8245   20.1552 C   0  0  0  0  0  0
  -25.4104  -36.3100   24.0329 C   0  0  1  0  0  0
  -20.5862  -28.3698   23.1307 C   0  0  2  0  0  0
  -20.6746  -26.9416   22.5456 C   0  0  0  0  0  0
  -19.5760  -26.6354   21.5235 C   0  0  0  0  0  0
  -18.1927  -26.7926   22.1604 C   0  0  0  0  0  0
  -19.1509  -28.8866   23.2860 C   0  0  0  0  0  0
  -18.9439  -30.1460   23.8919 C   0  0  0  0  0  0
  -17.6453  -30.6592   24.0561 C   0  0  0  0  0  0
  -25.9048  -34.9491   23.5090 C   0  0  0  0  0  0
  -16.5333  -29.9104   23.6307 C   0  0  0  0  0  0
  -16.7256  -28.6521   23.0332 C   0  0  0  0  0  0
  -26.4520  -31.6579   25.0657 C   0  0  0  0  0  0
  -25.3780  -31.3677   26.1402 C   0  0  0  0  0  0
  -27.0329  -30.3003   24.6032 C   0  0  0  0  0  0
  -27.6133  -32.4286   25.7412 C   0  0  0  0  0  0
  -27.5592  -37.1794   24.8466 C   0  0  0  0  0  0
  -21.4195  -29.3050   22.3757 N   0  0  0  0  0  0
  -26.4303  -37.3787   23.9415 N   0  0  0  0  0  0
  -24.6819  -31.0622   22.0987 N   0  0  0  0  0  0
  -23.4231  -28.8092   23.3003 O   0  0  0  0  0  0
  -28.2875  -26.4522   20.1829 O   0  0  0  0  0  0
  -26.5590  -34.8937   22.4647 O   0  0  0  0  0  0
  -23.5424  -32.1494   23.7347 O   0  0  0  0  0  0
  -29.6116  -20.3701   21.5274 C   0  0  0  0  0  0
  -28.3673  -19.0089   19.5705 C   0  0  0  0  0  0
  -28.7050  -21.0534   20.6597 C   0  0  0  0  0  0
  -29.2147  -18.3092   20.4771 C   0  0  0  0  0  0
  -30.4797  -17.2282   17.6756 C   0  0  0  0  0  0
  -32.2379  -17.5795   19.5789 C   0  0  0  0  0  0
  -28.1400  -22.4871   20.9705 C   0  0  0  0  0  0
  -29.2310  -16.7334   20.5393 C   0  0  0  0  0  0
  -28.6437  -23.8017   20.2421 C   0  0  0  0  0  0
  -27.9940  -25.1449   20.8038 C   0  0  0  0  0  0
  -31.1943  -16.6337   18.9179 C   0  0  0  0  0  0
  -28.1137  -20.3517   19.6546 N   0  0  0  0  0  0
  -29.8559  -19.0225   21.4483 N   0  0  0  0  0  0
  -30.3102  -15.9096   19.9022 N   0  0  0  0  0  0
  -31.4574  -12.5404   19.1057 H   0  0  0  0  0  0
  -30.3651  -11.5007   19.9865 H   0  0  0  0  0  0
  -29.7711  -11.6486   17.5288 H   0  0  0  0  0  0
  -29.6131  -13.3846   17.6636 H   0  0  0  0  0  0
  -27.9260  -11.2536   19.0000 H   0  0  0  0  0  0
  -27.3482  -12.4070   17.8279 H   0  0  0  0  0  0
  -27.6129  -14.2388   19.3947 H   0  0  0  0  0  0
  -28.7491  -12.3144   21.4813 H   0  0  0  0  0  0
  -28.4637  -14.0330   21.6837 H   0  0  0  0  0  0
  -25.2735   -9.5671   22.4780 H   0  0  0  0  0  0
  -23.9943   -7.4637   22.7462 H   0  0  0  0  0  0
  -21.0801   -8.8873   19.8964 H   0  0  0  0  0  0
  -22.3733  -10.9704   19.6154 H   0  0  0  0  0  0
  -21.2077   -7.6085   23.9703 H   0  0  0  0  0  0
  -21.1452   -6.0447   25.9050 H   0  0  0  0  0  0
  -22.0583   -2.7551   23.2905 H   0  0  0  0  0  0
  -22.3968  -12.0028   22.4958 H   0  0  0  0  0  0
  -21.0994  -13.1310   22.2494 H   0  0  0  0  0  0
  -24.6420  -15.8358   20.5540 H   0  0  0  0  0  0
  -26.2507  -15.6478   20.0714 H   0  0  0  0  0  0
  -26.7164  -32.5518   23.1046 H   0  0  0  0  0  0
  -25.0194  -33.9725   25.0507 H   0  0  0  0  0  0
  -22.7061  -31.2962   21.4090 H   0  0  0  0  0  0
  -23.3767  -35.9626   23.3286 H   0  0  0  0  0  0
  -24.3580  -36.8919   22.2025 H   0  0  0  0  0  0
  -23.7234  -37.6511   23.6633 H   0  0  0  0  0  0
  -26.0587  -31.5553   20.5926 H   0  0  0  0  0  0
  -26.8395  -30.8584   21.9842 H   0  0  0  0  0  0
  -28.1076  -28.9836   21.2047 H   0  0  0  0  0  0
  -26.0067  -25.9488   18.9691 H   0  0  0  0  0  0
  -23.9867  -27.3422   18.9399 H   0  0  0  0  0  0
  -23.7496  -30.6077   19.4059 H   0  0  0  0  0  0
  -22.7516  -29.2552   19.8535 H   0  0  0  0  0  0
  -25.1270  -36.1960   25.0829 H   0  0  0  0  0  0
  -20.9890  -28.3238   24.1434 H   0  0  0  0  0  0
  -20.5565  -26.2336   23.3668 H   0  0  0  0  0  0
  -21.6611  -26.7397   22.1279 H   0  0  0  0  0  0
  -19.6918  -25.6220   21.1371 H   0  0  0  0  0  0
  -19.6754  -27.3099   20.6707 H   0  0  0  0  0  0
  -17.4199  -26.6651   21.4009 H   0  0  0  0  0  0
  -18.0302  -26.0088   22.9029 H   0  0  0  0  0  0
  -19.7928  -30.7207   24.2359 H   0  0  0  0  0  0
  -17.5018  -31.6259   24.5203 H   0  0  0  0  0  0
  -15.5352  -30.3030   23.7608 H   0  0  0  0  0  0
  -15.8629  -28.0831   22.7084 H   0  0  0  0  0  0
  -24.5974  -30.7013   25.7711 H   0  0  0  0  0  0
  -24.8955  -32.2826   26.4864 H   0  0  0  0  0  0
  -25.8142  -30.8835   27.0144 H   0  0  0  0  0  0
  -26.2823  -29.6751   24.1187 H   0  0  0  0  0  0
  -27.4183  -29.7264   25.4462 H   0  0  0  0  0  0
  -27.8637  -30.4287   23.9089 H   0  0  0  0  0  0
  -27.2785  -33.3569   26.2034 H   0  0  0  0  0  0
  -28.3901  -32.6869   25.0210 H   0  0  0  0  0  0
  -28.0842  -31.8386   26.5268 H   0  0  0  0  0  0
  -28.2629  -38.0081   24.7517 H   0  0  0  0  0  0
  -28.1078  -36.2618   24.6293 H   0  0  0  0  0  0
  -27.2314  -37.1437   25.8872 H   0  0  0  0  0  0
  -20.9392  -29.8886   21.7047 H   0  0  0  0  0  0
  -26.0209  -38.2870   24.1450 H   0  0  0  0  0  0
  -30.0831  -20.8927   22.3507 H   0  0  0  0  0  0
  -27.8172  -18.4690   18.8130 H   0  0  0  0  0  0
  -31.0978  -17.0892   16.7840 H   0  0  0  0  0  0
  -30.3101  -18.3028   17.7453 H   0  0  0  0  0  0
  -29.5293  -16.7393   17.4671 H   0  0  0  0  0  0
  -33.2267  -17.4149   19.1454 H   0  0  0  0  0  0
  -32.3340  -17.3999   20.6525 H   0  0  0  0  0  0
  -32.0106  -18.6414   19.4549 H   0  0  0  0  0  0
  -28.2146  -22.6442   22.0491 H   0  0  0  0  0  0
  -27.0638  -22.4164   20.7949 H   0  0  0  0  0  0
  -28.2986  -16.3964   20.0864 H   0  0  0  0  0  0
  -29.1517  -16.4539   21.5928 H   0  0  0  0  0  0
  -28.4324  -23.7182   19.1744 H   0  0  0  0  0  0
  -29.7282  -23.8629   20.3310 H   0  0  0  0  0  0
  -28.3039  -25.2430   21.8460 H   0  0  0  0  0  0
  -26.9159  -24.9793   20.8695 H   0  0  0  0  0  0
  -31.8022  -15.8590   18.4382 H   0  0  0  0  0  0
  1 25  1  0  0  0
  1 30  2  0  0  0
  1 84  1  0  0  0
  2  3  1  0  0  0
  2 25  1  0  0  0
  2 85  1  0  0  0
  2 86  1  0  0  0
  3  4  1  0  0  0
  3 87  1  0  0  0
  3 88  1  0  0  0
  4  5  1  0  0  0
  4 89  1  0  0  0
  4 90  1  0  0  0
  5  6  1  0  0  0
  5 26  1  0  0  0
  5 91  1  0  0  0
  6 25  1  0  0  0
  6 92  1  0  0  0
  6 93  1  0  0  0
  7  8  2  0  0  0
  7 26  1  0  0  0
  7 29  1  0  0  0
  8  9  1  0  0  0
  8 22  1  0  0  0
  9 10  1  0  0  0
  9 27  2  0  0  0
 10 11  2  0  0  0
 10 15  1  0  0  0
 11 12  1  0  0  0
 11 94  1  0  0  0
 12 13  2  0  0  0
 12 95  1  0  0  0
 13 14  1  0  0  0
 13 31  1  0  0  0
 14 15  2  0  0  0
 14 96  1  0  0  0
 15 97  1  0  0  0
 16 17  2  0  0  0
 16 21  1  0  0  0
 16 31  1  0  0  0
 17 18  1  0  0  0
 17 98  1  0  0  0
 18 19  2  0  0  0
 18 99  1  0  0  0
 19 20  1  0  0  0
 19 24  1  0  0  0
 20 21  2  0  0  0
 20100  1  0  0  0
 21 23  1  0  0  0
 22 28  1  0  0  0
 22 32  2  0  0  0
 26 27  1  0  0  0
 28101  1  0  0  0
 28102  1  0  0  0
 29103  1  0  0  0
 29104  1  0  0  0
 33 34  1  0  0  0
 33 66  1  0  0  0
 33 70  2  0  0  0
 34 36  1  0  0  0
 34 59  1  0  0  0
 34105  1  0  0  0
 35 44  2  0  0  0
 35 45  1  0  0  0
 35 68  1  0  0  0
 36 56  1  0  0  0
 36106  1  0  0  0
 37 39  1  0  0  0
 37 47  1  0  0  0
 37 66  1  0  0  0
 37107  1  0  0  0
 38 43  2  0  0  0
 38 46  1  0  0  0
 38 47  1  0  0  0
 39 64  1  0  0  0
 39 67  2  0  0  0
 40 52  1  0  0  0
 40 53  2  0  0  0
 40 58  1  0  0  0
 41108  1  0  0  0
 41109  1  0  0  0
 41110  1  0  0  0
 41 48  1  0  0  0
 42 43  1  0  0  0
 42 66  1  0  0  0
 42111  1  0  0  0
 42112  1  0  0  0
 43 44  1  0  0  0
 44113  1  0  0  0
 45 46  2  0  0  0
 45114  1  0  0  0
 46115  1  0  0  0
 47116  1  0  0  0
 47117  1  0  0  0
 48 56  1  0  0  0
 48 65  1  0  0  0
 48118  1  0  0  0
 49 50  1  0  0  0
 49 53  1  0  0  0
 49 64  1  0  0  0
 49119  1  0  0  0
 50 51  1  0  0  0
 50120  1  0  0  0
 50121  1  0  0  0
 51 52  1  0  0  0
 51122  1  0  0  0
 51123  1  0  0  0
 52124  1  0  0  0
 52125  1  0  0  0
 53 54  1  0  0  0
 54 55  2  0  0  0
 54126  1  0  0  0
 55 57  1  0  0  0
 55127  1  0  0  0
 56 69  2  0  0  0
 57 58  2  0  0  0
 57128  1  0  0  0
 58129  1  0  0  0
 59 60  1  0  0  0
 59 61  1  0  0  0
 59 62  1  0  0  0
 60130  1  0  0  0
 60131  1  0  0  0
 60132  1  0  0  0
 61133  1  0  0  0
 61134  1  0  0  0
 61135  1  0  0  0
 62136  1  0  0  0
 62137  1  0  0  0
 62138  1  0  0  0
 63 65  1  0  0  0
 63139  1  0  0  0
 63140  1  0  0  0
 63141  1  0  0  0
 64142  1  0  0  0
 65143  1  0  0  0
 68 80  1  0  0  0
 71 73  2  0  0  0
 71 83  1  0  0  0
 71144  1  0  0  0
 72 74  1  0  0  0
 72 82  2  0  0  0
 72145  1  0  0  0
 73 77  1  0  0  0
 73 82  1  0  0  0
 74 78  1  0  0  0
 74 83  2  0  0  0
 75146  1  0  0  0
 75147  1  0  0  0
 75148  1  0  0  0
 75 81  1  0  0  0
 76 81  1  0  0  0
 76149  1  0  0  0
 76150  1  0  0  0
 76151  1  0  0  0
 77 79  1  0  0  0
 77152  1  0  0  0
 77153  1  0  0  0
 78 84  1  0  0  0
 78154  1  0  0  0
 78155  1  0  0  0
 79 80  1  0  0  0
 79156  1  0  0  0
 79157  1  0  0  0
 80158  1  0  0  0
 80159  1  0  0  0
 81 84  1  0  0  0
 81160  1  0  0  0
M  ISO  4   1 100  68 101  80 101  84 100
M  END
> <chiral flag>
0

> <version>
0

> <s_m_source_file>
/data/baiqing/PycharmProjects/Reinvent-master-3.2/result/LINK_invent/BTK/process_docking_weight1_custom_sum_contain_oxygen_bond_distance_aromatic_linkinvent_7_9_3/rearranged_h_0057.sdf

> <i_m_source_file_index>
95

> <r_mmod_Potential_Energy-OPLS-2005>
404.155212402344

> <r_mmod_Stretch_Energy-OPLS-2005>
88.9540557861328

> <r_mmod_Bend_Energy-OPLS-2005>
161.476165771484

> <r_mmod_Torsional_Energy-OPLS-2005>
329.941162109375

> <r_mmod_Improper_Torsional_Energy-OPLS-2005>
25.730562210083

> <r_mmod_Van_der_Waal_Energy-OPLS-2005>
146.51383972168

> <r_mmod_Electrostatic_Energy-OPLS-2005>
-236.402740478516

> <r_mmod_Solvation_Energy-OPLS-2005>
-206.463729858398

> <b_mmod_Minimization_Converged-OPLS-2005>
0

> <r_mmod_RMS_Derivative-OPLS-2005>
7.25861120223999

$$$$
95
                    3D
 Structure written by MMmdl.
153161  0  0  1  0            999 V2000
  -30.4091  -15.4140   20.3287 C   0  0  0  0  0  0
  -30.4399  -12.9213   19.4956 C   0  0  0  0  0  0
  -29.5339  -12.5925   18.2822 C   0  0  0  0  0  0
  -28.0958  -12.2824   18.7338 C   0  0  0  0  0  0
  -27.6038  -13.2702   19.8161 C   0  0  2  0  0  0
  -28.6481  -13.5336   20.9239 C   0  0  0  0  0  0
  -25.2378  -13.8173   20.5822 C   0  0  0  0  0  0
  -24.1727  -13.0377   20.9290 C   0  0  0  0  0  0
  -24.6391  -11.6880   20.8791 C   0  0  0  0  0  0
  -23.9087  -10.4258   21.0424 C   0  0  0  0  0  0
  -24.3636   -9.4176   21.9198 C   0  0  0  0  0  0
  -23.6297   -8.2226   22.0768 C   0  0  0  0  0  0
  -22.4279   -8.0271   21.3553 C   0  0  0  0  0  0
  -21.9926   -9.0251   20.4652 C   0  0  0  0  0  0
  -22.7270  -10.2117   20.3064 C   0  0  0  0  0  0
  -21.6859   -6.0726   22.5275 C   0  0  0  0  0  0
  -21.4024   -6.5635   23.8206 C   0  0  0  0  0  0
  -21.3664   -5.6788   24.9171 C   0  0  0  0  0  0
  -21.6041   -4.3051   24.7219 C   0  0  0  0  0  0
  -21.8825   -3.8141   23.4343 C   0  0  0  0  0  0
  -21.9195   -4.6956   22.3397 C   0  0  0  0  0  0
  -22.7752  -13.5153   21.1903 C   0  0  0  0  0  0
  -22.1669   -4.2140   21.0977 F   0  0  0  0  0  0
  -21.5630   -3.4536   25.7737 F   0  0  0  0  0  0
  -29.8424  -14.0904   20.2522 N   0  0  0  0  0  0
  -26.2813  -12.9451   20.3301 N   0  0  0  0  0  0
  -25.9335  -11.6557   20.5776 N   0  0  0  0  0  0
  -22.0429  -12.8130   22.0455 N   0  0  0  0  0  0
  -25.3940  -15.1907   20.4294 N   0  0  0  0  0  0
  -31.6493  -15.3540   20.3071 O   0  0  0  0  0  0
  -21.6639   -6.8871   21.4238 O   0  0  0  0  0  0
  -22.3430  -14.5464   20.6755 O   0  0  0  0  0  0
  -24.6718  -31.8157   23.1624 C   0  0  0  0  0  0
  -25.9361  -32.4554   23.8124 C   0  0  1  0  0  0
  -27.2289  -26.8441   20.2020 C   0  0  0  0  0  0
  -25.5993  -33.8370   24.2031 N   0  0  0  0  0  0
  -23.4911  -30.4227   21.5141 C   0  0  2  0  0  0
  -24.9470  -28.7891   20.1212 C   0  0  0  0  0  0
  -22.7707  -29.4410   22.4763 C   0  0  0  0  0  0
  -18.0335  -28.1419   22.8475 C   0  0  0  0  0  0
  -24.1498  -36.7191   23.2644 C   0  0  0  0  0  0
  -26.0647  -30.5976   21.4021 C   0  0  0  0  0  0
  -26.1358  -29.1755   20.7533 C   0  0  0  0  0  0
  -27.2712  -28.2296   20.7590 C   0  0  0  0  0  0
  -26.0058  -26.6296   19.5242 C   0  0  0  0  0  0
  -24.9129  -27.5386   19.4831 C   0  0  0  0  0  0
  -23.7362  -29.7273   20.1464 C   0  0  0  0  0  0
  -25.4141  -36.2941   24.0291 C   0  0  1  0  0  0
  -20.5961  -28.3772   23.1175 C   0  0  2  0  0  0
  -20.6803  -26.9444   22.5406 C   0  0  0  0  0  0
  -19.5772  -26.6383   21.5221 C   0  0  0  0  0  0
  -18.1959  -26.7951   22.1631 C   0  0  0  0  0  0
  -19.1599  -28.8921   23.2810 C   0  0  0  0  0  0
  -18.9498  -30.1505   23.8846 C   0  0  0  0  0  0
  -17.6488  -30.6603   24.0560 C   0  0  0  0  0  0
  -25.9107  -34.9328   23.4989 C   0  0  0  0  0  0
  -16.5382  -29.9084   23.6347 C   0  0  0  0  0  0
  -16.7315  -28.6510   23.0365 C   0  0  0  0  0  0
  -26.4579  -31.6517   25.0680 C   0  0  0  0  0  0
  -25.3680  -31.3799   26.1319 C   0  0  0  0  0  0
  -27.0473  -30.2872   24.6452 C   0  0  0  0  0  0
  -27.6066  -32.4328   25.7491 C   0  0  0  0  0  0
  -27.5569  -37.1749   24.8459 C   0  0  0  0  0  0
  -21.4367  -29.3043   22.3504 N   0  0  0  0  0  0
  -26.4277  -37.3685   23.9401 N   0  0  0  0  0  0
  -24.7648  -30.9734   22.0803 N   0  0  0  0  0  0
  -23.4213  -28.8001   23.3055 O   0  0  0  0  0  0
  -28.2305  -25.7065   20.2073 O   0  0  0  0  0  0
  -26.5728  -34.8880   22.4587 O   0  0  0  0  0  0
  -23.5771  -32.1166   23.6657 O   0  0  0  0  0  0
  -29.8835  -21.4111   18.3642 C   0  0  0  0  0  0
  -28.7880  -22.5145   20.0414 C   0  0  0  0  0  0
  -29.3640  -19.9834   20.0717 C   0  0  0  0  0  0
  -30.5686  -21.5435   17.0216 C   0  0  0  0  0  0
  -31.1191  -18.5355   21.4205 C   0  0  0  0  0  0
  -28.5619  -16.6761   19.2617 C   0  0  0  0  0  0
  -27.9796  -24.0549   20.4860 C   0  0  0  0  0  0
  -29.7500  -18.3694   20.7430 C   0  0  2  0  0  0
  -29.3797  -22.5571   18.8505 N   0  0  0  0  0  0
  -29.8992  -20.1682   18.8702 N   0  0  0  0  0  0
  -28.7985  -21.1904   20.6816 N   0  0  0  0  0  0
  -29.6639  -16.7385   20.2168 N   0  0  0  0  0  0
  -31.4401  -13.1623   19.1340 H   0  0  0  0  0  0
  -30.5597  -12.0482   20.1388 H   0  0  0  0  0  0
  -29.9392  -11.7517   17.7184 H   0  0  0  0  0  0
  -29.5263  -13.4440   17.6010 H   0  0  0  0  0  0
  -28.0865  -11.2692   19.1374 H   0  0  0  0  0  0
  -27.4161  -12.2826   17.8805 H   0  0  0  0  0  0
  -27.4748  -14.1995   19.2700 H   0  0  0  0  0  0
  -28.8728  -12.6283   21.4890 H   0  0  0  0  0  0
  -28.2635  -14.2593   21.6428 H   0  0  0  0  0  0
  -25.2796   -9.5632   22.4750 H   0  0  0  0  0  0
  -24.0011   -7.4598   22.7467 H   0  0  0  0  0  0
  -21.0877   -8.8769   19.8928 H   0  0  0  0  0  0
  -22.3761  -10.9658   19.6155 H   0  0  0  0  0  0
  -21.2029   -7.6143   23.9709 H   0  0  0  0  0  0
  -21.1483   -6.0519   25.9069 H   0  0  0  0  0  0
  -22.0602   -2.7600   23.2846 H   0  0  0  0  0  0
  -22.4125  -11.9809   22.4813 H   0  0  0  0  0  0
  -21.1039  -13.1103   22.2702 H   0  0  0  0  0  0
  -24.6191  -15.8347   20.5430 H   0  0  0  0  0  0
  -26.2366  -15.6381   20.0979 H   0  0  0  0  0  0
  -26.7439  -32.5077   23.0842 H   0  0  0  0  0  0
  -25.0074  -33.9427   25.0139 H   0  0  0  0  0  0
  -22.8101  -31.2568   21.3340 H   0  0  0  0  0  0
  -23.3756  -35.9524   23.3296 H   0  0  0  0  0  0
  -24.3571  -36.8843   22.2059 H   0  0  0  0  0  0
  -23.7267  -37.6384   23.6706 H   0  0  0  0  0  0
  -26.2454  -31.3322   20.6159 H   0  0  0  0  0  0
  -26.9241  -30.6662   22.0569 H   0  0  0  0  0  0
  -28.1777  -28.5354   21.2624 H   0  0  0  0  0  0
  -25.8659  -25.6801   19.0269 H   0  0  0  0  0  0
  -24.0130  -27.2365   18.9642 H   0  0  0  0  0  0
  -23.8957  -30.4896   19.3833 H   0  0  0  0  0  0
  -22.8445  -29.1833   19.8305 H   0  0  0  0  0  0
  -25.1341  -36.1727   25.0783 H   0  0  0  0  0  0
  -21.0059  -28.3383   24.1293 H   0  0  0  0  0  0
  -20.5677  -26.2391   23.3656 H   0  0  0  0  0  0
  -21.6663  -26.7399   22.1214 H   0  0  0  0  0  0
  -19.6922  -25.6277   21.1287 H   0  0  0  0  0  0
  -19.6705  -27.3165   20.6731 H   0  0  0  0  0  0
  -17.4223  -26.6707   21.4037 H   0  0  0  0  0  0
  -18.0343  -26.0106   22.9040 H   0  0  0  0  0  0
  -19.7968  -30.7350   24.2184 H   0  0  0  0  0  0
  -17.5029  -31.6273   24.5174 H   0  0  0  0  0  0
  -15.5375  -30.2966   23.7690 H   0  0  0  0  0  0
  -15.8722  -28.0809   22.7097 H   0  0  0  0  0  0
  -24.5884  -30.7130   25.7618 H   0  0  0  0  0  0
  -24.8851  -32.3013   26.4580 H   0  0  0  0  0  0
  -25.7889  -30.9070   27.0199 H   0  0  0  0  0  0
  -26.3150  -29.6542   24.1435 H   0  0  0  0  0  0
  -27.3951  -29.7252   25.5127 H   0  0  0  0  0  0
  -27.9112  -30.4029   23.9909 H   0  0  0  0  0  0
  -27.2640  -33.3678   26.1929 H   0  0  0  0  0  0
  -28.3955  -32.6801   25.0377 H   0  0  0  0  0  0
  -28.0645  -31.8542   26.5519 H   0  0  0  0  0  0
  -28.2561  -38.0066   24.7501 H   0  0  0  0  0  0
  -28.1091  -36.2592   24.6290 H   0  0  0  0  0  0
  -27.2289  -37.1395   25.8862 H   0  0  0  0  0  0
  -20.9638  -29.8711   21.6602 H   0  0  0  0  0  0
  -26.0120  -38.2738   24.1410 H   0  0  0  0  0  0
  -30.6874  -22.5882   16.7311 H   0  0  0  0  0  0
  -29.9902  -21.0386   16.2492 H   0  0  0  0  0  0
  -31.5605  -21.0947   17.0592 H   0  0  0  0  0  0
  -31.1260  -19.4121   22.0698 H   0  0  0  0  0  0
  -31.9006  -18.6746   20.6733 H   0  0  0  0  0  0
  -31.3877  -17.6762   22.0337 H   0  0  0  0  0  0
  -28.3968  -17.6360   18.7734 H   0  0  0  0  0  0
  -27.6460  -16.4046   19.7760 H   0  0  0  0  0  0
  -28.7485  -15.9554   18.4620 H   0  0  0  0  0  0
  -27.9320  -23.9972   21.5732 H   0  0  0  0  0  0
  -26.9497  -23.8887   20.1736 H   0  0  0  0  0  0
  -29.0352  -18.3351   21.5659 H   0  0  0  0  0  0
  1 25  1  0  0  0
  1 30  2  0  0  0
  1 82  1  0  0  0
  2  3  1  0  0  0
  2 25  1  0  0  0
  2 83  1  0  0  0
  2 84  1  0  0  0
  3  4  1  0  0  0
  3 85  1  0  0  0
  3 86  1  0  0  0
  4  5  1  0  0  0
  4 87  1  0  0  0
  4 88  1  0  0  0
  5  6  1  0  0  0
  5 26  1  0  0  0
  5 89  1  0  0  0
  6 25  1  0  0  0
  6 90  1  0  0  0
  6 91  1  0  0  0
  7  8  2  0  0  0
  7 26  1  0  0  0
  7 29  1  0  0  0
  8  9  1  0  0  0
  8 22  1  0  0  0
  9 10  1  0  0  0
  9 27  2  0  0  0
 10 11  2  0  0  0
 10 15  1  0  0  0
 11 12  1  0  0  0
 11 92  1  0  0  0
 12 13  2  0  0  0
 12 93  1  0  0  0
 13 14  1  0  0  0
 13 31  1  0  0  0
 14 15  2  0  0  0
 14 94  1  0  0  0
 15 95  1  0  0  0
 16 17  2  0  0  0
 16 21  1  0  0  0
 16 31  1  0  0  0
 17 18  1  0  0  0
 17 96  1  0  0  0
 18 19  2  0  0  0
 18 97  1  0  0  0
 19 20  1  0  0  0
 19 24  1  0  0  0
 20 21  2  0  0  0
 20 98  1  0  0  0
 21 23  1  0  0  0
 22 28  1  0  0  0
 22 32  2  0  0  0
 26 27  1  0  0  0
 28 99  1  0  0  0
 28100  1  0  0  0
 29101  1  0  0  0
 29102  1  0  0  0
 33 34  1  0  0  0
 33 66  1  0  0  0
 33 70  2  0  0  0
 34 36  1  0  0  0
 34 59  1  0  0  0
 34103  1  0  0  0
 35 44  2  0  0  0
 35 45  1  0  0  0
 35 68  1  0  0  0
 36 56  1  0  0  0
 36104  1  0  0  0
 37 39  1  0  0  0
 37 47  1  0  0  0
 37 66  1  0  0  0
 37105  1  0  0  0
 38 43  2  0  0  0
 38 46  1  0  0  0
 38 47  1  0  0  0
 39 64  1  0  0  0
 39 67  2  0  0  0
 40 52  1  0  0  0
 40 53  2  0  0  0
 40 58  1  0  0  0
 41106  1  0  0  0
 41107  1  0  0  0
 41108  1  0  0  0
 41 48  1  0  0  0
 42 43  1  0  0  0
 42 66  1  0  0  0
 42109  1  0  0  0
 42110  1  0  0  0
 43 44  1  0  0  0
 44111  1  0  0  0
 45 46  2  0  0  0
 45112  1  0  0  0
 46113  1  0  0  0
 47114  1  0  0  0
 47115  1  0  0  0
 48 56  1  0  0  0
 48 65  1  0  0  0
 48116  1  0  0  0
 49 50  1  0  0  0
 49 53  1  0  0  0
 49 64  1  0  0  0
 49117  1  0  0  0
 50 51  1  0  0  0
 50118  1  0  0  0
 50119  1  0  0  0
 51 52  1  0  0  0
 51120  1  0  0  0
 51121  1  0  0  0
 52122  1  0  0  0
 52123  1  0  0  0
 53 54  1  0  0  0
 54 55  2  0  0  0
 54124  1  0  0  0
 55 57  1  0  0  0
 55125  1  0  0  0
 56 69  2  0  0  0
 57 58  2  0  0  0
 57126  1  0  0  0
 58127  1  0  0  0
 59 60  1  0  0  0
 59 61  1  0  0  0
 59 62  1  0  0  0
 60128  1  0  0  0
 60129  1  0  0  0
 60130  1  0  0  0
 61131  1  0  0  0
 61132  1  0  0  0
 61133  1  0  0  0
 62134  1  0  0  0
 62135  1  0  0  0
 62136  1  0  0  0
 63 65  1  0  0  0
 63137  1  0  0  0
 63138  1  0  0  0
 63139  1  0  0  0
 64140  1  0  0  0
 65141  1  0  0  0
 68 77  1  0  0  0
 71 74  1  0  0  0
 71 79  2  0  0  0
 71 80  1  0  0  0
 72 77  1  0  0  0
 72 79  1  0  0  0
 72 81  2  0  0  0
 73 78  1  0  0  0
 73 80  2  0  0  0
 73 81  1  0  0  0
 74142  1  0  0  0
 74143  1  0  0  0
 74144  1  0  0  0
 75145  1  0  0  0
 75146  1  0  0  0
 75147  1  0  0  0
 75 78  1  0  0  0
 76 82  1  0  0  0
 76148  1  0  0  0
 76149  1  0  0  0
 76150  1  0  0  0
 77151  1  0  0  0
 77152  1  0  0  0
 78 82  1  0  0  0
 78153  1  0  0  0
M  ISO  4   1 100  68 101  77 101  82 100
M  END
> <chiral flag>
0

> <version>
0

> <s_m_source_file>
/data/baiqing/PycharmProjects/Reinvent-master-3.2/result/LINK_invent/BTK/process_docking_weight1_custom_sum_contain_oxygen_bond_distance_aromatic_linkinvent_7_9_3/rearranged_h_0057.sdf

> <i_m_source_file_index>
96

> <r_mmod_Potential_Energy-OPLS-2005>
1041.87768554688

> <r_mmod_Stretch_Energy-OPLS-2005>
724.618774414062

> <r_mmod_Bend_Energy-OPLS-2005>
498.819488525391

> <r_mmod_Torsional_Energy-OPLS-2005>
272.086578369141

> <r_mmod_Improper_Torsional_Energy-OPLS-2005>
6.9722695350647

> <r_mmod_Van_der_Waal_Energy-OPLS-2005>
137.020446777344

> <r_mmod_Electrostatic_Energy-OPLS-2005>
-963.906066894531

> <r_mmod_Solvation_Energy-OPLS-2005>
-242.983612060547

> <b_mmod_Minimization_Converged-OPLS-2005>
0

> <r_mmod_RMS_Derivative-OPLS-2005>
1.95467853546143

$$$$
96
                    3D
 Structure written by MMmdl.
155163  0  0  1  0            999 V2000
  -30.5725  -14.8750   20.5356 C   0  0  0  0  0  0
  -30.4423  -12.5600   19.4738 C   0  0  0  0  0  0
  -29.5006  -12.5641   18.2467 C   0  0  0  0  0  0
  -28.0341  -12.3718   18.6759 C   0  0  0  0  0  0
  -27.6562  -13.2260   19.9059 C   0  0  2  0  0  0
  -28.7199  -13.1181   21.0249 C   0  0  0  0  0  0
  -25.2505  -13.8177   20.5751 C   0  0  0  0  0  0
  -24.1828  -13.0428   20.9200 C   0  0  0  0  0  0
  -24.6408  -11.6899   20.8784 C   0  0  0  0  0  0
  -23.9089  -10.4297   21.0419 C   0  0  0  0  0  0
  -24.3656   -9.4229   21.9188 C   0  0  0  0  0  0
  -23.6329   -8.2262   22.0748 C   0  0  0  0  0  0
  -22.4299   -8.0308   21.3551 C   0  0  0  0  0  0
  -21.9939   -9.0294   20.4653 C   0  0  0  0  0  0
  -22.7256  -10.2173   20.3070 C   0  0  0  0  0  0
  -21.6895   -6.0718   22.5275 C   0  0  0  0  0  0
  -21.4030   -6.5595   23.8218 C   0  0  0  0  0  0
  -21.3692   -5.6758   24.9175 C   0  0  0  0  0  0
  -21.6071   -4.3023   24.7239 C   0  0  0  0  0  0
  -21.8818   -3.8105   23.4354 C   0  0  0  0  0  0
  -21.9201   -4.6921   22.3408 C   0  0  0  0  0  0
  -22.7834  -13.5206   21.1867 C   0  0  0  0  0  0
  -22.1667   -4.2098   21.0987 F   0  0  0  0  0  0
  -21.5663   -3.4504   25.7753 F   0  0  0  0  0  0
  -29.9811  -13.6037   20.4444 N   0  0  0  0  0  0
  -26.3033  -12.9393   20.3662 N   0  0  0  0  0  0
  -25.9381  -11.6540   20.5970 N   0  0  0  0  0  0
  -22.0529  -12.8225   22.0441 N   0  0  0  0  0  0
  -25.4064  -15.1917   20.3983 N   0  0  0  0  0  0
  -31.6932  -14.9661   20.0203 O   0  0  0  0  0  0
  -21.6671   -6.8889   21.4252 O   0  0  0  0  0  0
  -22.3518  -14.5531   20.6713 O   0  0  0  0  0  0
  -24.6394  -31.8410   23.1854 C   0  0  0  0  0  0
  -25.9162  -32.4648   23.8223 C   0  0  1  0  0  0
  -27.2224  -27.1182   20.1995 C   0  0  0  0  0  0
  -25.5915  -33.8457   24.2108 N   0  0  0  0  0  0
  -23.4448  -30.4570   21.5302 C   0  0  2  0  0  0
  -24.9038  -28.8807   20.1101 C   0  0  0  0  0  0
  -22.7554  -29.4511   22.4847 C   0  0  0  0  0  0
  -18.0291  -28.1395   22.8479 C   0  0  0  0  0  0
  -24.1488  -36.7226   23.2642 C   0  0  0  0  0  0
  -26.0004  -30.7144   21.3889 C   0  0  0  0  0  0
  -26.0760  -29.3222   20.7354 C   0  0  0  0  0  0
  -27.2346  -28.4598   20.7617 C   0  0  0  0  0  0
  -26.0281  -26.7791   19.5236 C   0  0  0  0  0  0
  -24.8931  -27.6219   19.4869 C   0  0  0  0  0  0
  -23.6742  -29.7795   20.1497 C   0  0  0  0  0  0
  -25.4126  -36.2982   24.0298 C   0  0  1  0  0  0
  -20.5905  -28.3698   23.1236 C   0  0  2  0  0  0
  -20.6786  -26.9395   22.5405 C   0  0  0  0  0  0
  -19.5742  -26.6390   21.5215 C   0  0  0  0  0  0
  -18.1935  -26.7917   22.1650 C   0  0  0  0  0  0
  -19.1550  -28.8871   23.2838 C   0  0  0  0  0  0
  -18.9483  -30.1489   23.8859 C   0  0  0  0  0  0
  -17.6493  -30.6620   24.0544 C   0  0  0  0  0  0
  -25.9093  -34.9369   23.5021 C   0  0  0  0  0  0
  -16.5375  -29.9111   23.6358 C   0  0  0  0  0  0
  -16.7283  -28.6515   23.0371 C   0  0  0  0  0  0
  -26.4486  -31.6548   25.0683 C   0  0  0  0  0  0
  -25.3676  -31.3819   26.1399 C   0  0  0  0  0  0
  -27.0323  -30.2918   24.6328 C   0  0  0  0  0  0
  -27.5988  -32.4340   25.7449 C   0  0  0  0  0  0
  -27.5554  -37.1752   24.8468 C   0  0  0  0  0  0
  -21.4239  -29.3015   22.3620 N   0  0  0  0  0  0
  -26.4266  -37.3722   23.9408 N   0  0  0  0  0  0
  -24.7125  -31.0269   22.0883 N   0  0  0  0  0  0
  -23.4204  -28.8087   23.3030 O   0  0  0  0  0  0
  -28.2716  -26.1292   20.3062 O   0  0  0  0  0  0
  -26.5713  -34.8900   22.4624 O   0  0  0  0  0  0
  -23.5518  -32.1288   23.7078 O   0  0  0  0  0  0
  -29.6230  -20.5713   21.4052 C   0  0  0  0  0  0
  -30.8339  -16.1759   22.6115 C   0  0  0  0  0  0
  -28.5189  -16.1861   21.6883 C   0  0  0  0  0  0
  -28.7619  -21.6404   20.5433 C   0  0  0  0  0  0
  -29.0414  -23.3180   20.6654 C   0  0  0  0  0  0
  -30.1181  -17.8245   20.5788 C   0  0  0  0  0  0
  -27.9879  -24.5902   20.2921 C   0  0  0  0  0  0
  -30.0105  -16.2662   21.2899 C   0  0  0  0  0  0
  -30.0048  -21.1045   22.5675 N   0  0  0  0  0  0
  -30.7118  -20.1524   23.2261 N   0  0  0  0  0  0
  -30.7892  -19.0742   22.5311 N   0  0  0  0  0  0
  -30.0412  -19.1829   21.3972 N   0  0  0  0  0  0
  -31.4694  -12.7235   19.1460 H   0  0  0  0  0  0
  -30.4455  -11.5697   19.9294 H   0  0  0  0  0  0
  -29.7771  -11.7800   17.5398 H   0  0  0  0  0  0
  -29.6220  -13.5086   17.7131 H   0  0  0  0  0  0
  -27.8963  -11.3166   18.9086 H   0  0  0  0  0  0
  -27.3586  -12.6023   17.8513 H   0  0  0  0  0  0
  -27.6596  -14.2452   19.5389 H   0  0  0  0  0  0
  -28.8054  -12.0792   21.3553 H   0  0  0  0  0  0
  -28.4561  -13.6559   21.9307 H   0  0  0  0  0  0
  -25.2828   -9.5692   22.4720 H   0  0  0  0  0  0
  -24.0066   -7.4645   22.7420 H   0  0  0  0  0  0
  -21.0891   -8.8823   19.8936 H   0  0  0  0  0  0
  -22.3748  -10.9732   19.6166 H   0  0  0  0  0  0
  -21.2000   -7.6089   23.9702 H   0  0  0  0  0  0
  -21.1546   -6.0476   25.9093 H   0  0  0  0  0  0
  -22.0566   -2.7546   23.2874 H   0  0  0  0  0  0
  -22.4184  -11.9921   22.4898 H   0  0  0  0  0  0
  -21.1160  -13.1264   22.2668 H   0  0  0  0  0  0
  -24.6434  -15.8497   20.5191 H   0  0  0  0  0  0
  -26.2453  -15.6335   20.0507 H   0  0  0  0  0  0
  -26.7219  -32.5263   23.0942 H   0  0  0  0  0  0
  -24.9890  -33.9575   25.0130 H   0  0  0  0  0  0
  -22.7474  -31.2820   21.3710 H   0  0  0  0  0  0
  -23.3750  -35.9552   23.3284 H   0  0  0  0  0  0
  -24.3579  -36.8907   22.2059 H   0  0  0  0  0  0
  -23.7267  -37.6425   23.6712 H   0  0  0  0  0  0
  -26.1645  -31.4730   20.6230 H   0  0  0  0  0  0
  -26.8636  -30.7579   22.0418 H   0  0  0  0  0  0
  -28.1177  -28.7934   21.2867 H   0  0  0  0  0  0
  -25.9437  -25.8144   19.0499 H   0  0  0  0  0  0
  -23.9996  -27.2759   18.9864 H   0  0  0  0  0  0
  -23.8063  -30.5499   19.3907 H   0  0  0  0  0  0
  -22.7938  -29.2127   19.8378 H   0  0  0  0  0  0
  -25.1317  -36.1758   25.0789 H   0  0  0  0  0  0
  -20.9956  -28.3259   24.1375 H   0  0  0  0  0  0
  -20.5701  -26.2278   23.3604 H   0  0  0  0  0  0
  -21.6638  -26.7450   22.1156 H   0  0  0  0  0  0
  -19.6906  -25.6305   21.1238 H   0  0  0  0  0  0
  -19.6672  -27.3211   20.6729 H   0  0  0  0  0  0
  -17.4170  -26.6613   21.4078 H   0  0  0  0  0  0
  -18.0360  -26.0094   22.9080 H   0  0  0  0  0  0
  -19.7982  -30.7294   24.2163 H   0  0  0  0  0  0
  -17.5081  -31.6291   24.5150 H   0  0  0  0  0  0
  -15.5373  -30.3010   23.7769 H   0  0  0  0  0  0
  -15.8651  -28.0875   22.7093 H   0  0  0  0  0  0
  -24.5792  -30.7238   25.7754 H   0  0  0  0  0  0
  -24.8960  -32.3050   26.4765 H   0  0  0  0  0  0
  -25.7957  -30.9025   27.0210 H   0  0  0  0  0  0
  -26.2954  -29.6662   24.1305 H   0  0  0  0  0  0
  -27.3836  -29.7213   25.4931 H   0  0  0  0  0  0
  -27.8889  -30.4086   23.9695 H   0  0  0  0  0  0
  -27.2533  -33.3658   26.1945 H   0  0  0  0  0  0
  -28.3818  -32.6909   25.0294 H   0  0  0  0  0  0
  -28.0615  -31.8543   26.5457 H   0  0  0  0  0  0
  -28.2551  -38.0059   24.7508 H   0  0  0  0  0  0
  -28.1067  -36.2599   24.6279 H   0  0  0  0  0  0
  -27.2279  -37.1365   25.8873 H   0  0  0  0  0  0
  -20.9456  -29.8698   21.6777 H   0  0  0  0  0  0
  -26.0106  -38.2764   24.1489 H   0  0  0  0  0  0
  -31.8819  -16.4419   22.4505 H   0  0  0  0  0  0
  -30.8232  -15.1686   23.0369 H   0  0  0  0  0  0
  -30.4410  -16.8067   23.4065 H   0  0  0  0  0  0
  -28.0703  -17.1737   21.7914 H   0  0  0  0  0  0
  -28.3535  -15.6723   22.6373 H   0  0  0  0  0  0
  -27.9225  -15.7151   20.9241 H   0  0  0  0  0  0
  -27.7283  -21.4753   20.8530 H   0  0  0  0  0  0
  -28.7879  -21.3285   19.4977 H   0  0  0  0  0  0
  -29.9784  -23.5014   20.1412 H   0  0  0  0  0  0
  -29.2977  -23.4951   21.7077 H   0  0  0  0  0  0
  -29.4266  -17.9020   19.7388 H   0  0  0  0  0  0
  -31.0926  -17.8541   20.0879 H   0  0  0  0  0  0
  -27.1490  -24.4583   20.9765 H   0  0  0  0  0  0
  -27.5824  -24.3612   19.3100 H   0  0  0  0  0  0
  1 25  1  0  0  0
  1 30  2  0  0  0
  1 78  1  0  0  0
  2  3  1  0  0  0
  2 25  1  0  0  0
  2 83  1  0  0  0
  2 84  1  0  0  0
  3  4  1  0  0  0
  3 85  1  0  0  0
  3 86  1  0  0  0
  4  5  1  0  0  0
  4 87  1  0  0  0
  4 88  1  0  0  0
  5  6  1  0  0  0
  5 26  1  0  0  0
  5 89  1  0  0  0
  6 25  1  0  0  0
  6 90  1  0  0  0
  6 91  1  0  0  0
  7  8  2  0  0  0
  7 26  1  0  0  0
  7 29  1  0  0  0
  8  9  1  0  0  0
  8 22  1  0  0  0
  9 10  1  0  0  0
  9 27  2  0  0  0
 10 11  2  0  0  0
 10 15  1  0  0  0
 11 12  1  0  0  0
 11 92  1  0  0  0
 12 13  2  0  0  0
 12 93  1  0  0  0
 13 14  1  0  0  0
 13 31  1  0  0  0
 14 15  2  0  0  0
 14 94  1  0  0  0
 15 95  1  0  0  0
 16 17  2  0  0  0
 16 21  1  0  0  0
 16 31  1  0  0  0
 17 18  1  0  0  0
 17 96  1  0  0  0
 18 19  2  0  0  0
 18 97  1  0  0  0
 19 20  1  0  0  0
 19 24  1  0  0  0
 20 21  2  0  0  0
 20 98  1  0  0  0
 21 23  1  0  0  0
 22 28  1  0  0  0
 22 32  2  0  0  0
 26 27  1  0  0  0
 28 99  1  0  0  0
 28100  1  0  0  0
 29101  1  0  0  0
 29102  1  0  0  0
 33 34  1  0  0  0
 33 66  1  0  0  0
 33 70  2  0  0  0
 34 36  1  0  0  0
 34 59  1  0  0  0
 34103  1  0  0  0
 35 44  2  0  0  0
 35 45  1  0  0  0
 35 68  1  0  0  0
 36 56  1  0  0  0
 36104  1  0  0  0
 37 39  1  0  0  0
 37 47  1  0  0  0
 37 66  1  0  0  0
 37105  1  0  0  0
 38 43  2  0  0  0
 38 46  1  0  0  0
 38 47  1  0  0  0
 39 64  1  0  0  0
 39 67  2  0  0  0
 40 52  1  0  0  0
 40 53  2  0  0  0
 40 58  1  0  0  0
 41106  1  0  0  0
 41107  1  0  0  0
 41108  1  0  0  0
 41 48  1  0  0  0
 42 43  1  0  0  0
 42 66  1  0  0  0
 42109  1  0  0  0
 42110  1  0  0  0
 43 44  1  0  0  0
 44111  1  0  0  0
 45 46  2  0  0  0
 45112  1  0  0  0
 46113  1  0  0  0
 47114  1  0  0  0
 47115  1  0  0  0
 48 56  1  0  0  0
 48 65  1  0  0  0
 48116  1  0  0  0
 49 50  1  0  0  0
 49 53  1  0  0  0
 49 64  1  0  0  0
 49117  1  0  0  0
 50 51  1  0  0  0
 50118  1  0  0  0
 50119  1  0  0  0
 51 52  1  0  0  0
 51120  1  0  0  0
 51121  1  0  0  0
 52122  1  0  0  0
 52123  1  0  0  0
 53 54  1  0  0  0
 54 55  2  0  0  0
 54124  1  0  0  0
 55 57  1  0  0  0
 55125  1  0  0  0
 56 69  2  0  0  0
 57 58  2  0  0  0
 57126  1  0  0  0
 58127  1  0  0  0
 59 60  1  0  0  0
 59 61  1  0  0  0
 59 62  1  0  0  0
 60128  1  0  0  0
 60129  1  0  0  0
 60130  1  0  0  0
 61131  1  0  0  0
 61132  1  0  0  0
 61133  1  0  0  0
 62134  1  0  0  0
 62135  1  0  0  0
 62136  1  0  0  0
 63 65  1  0  0  0
 63137  1  0  0  0
 63138  1  0  0  0
 63139  1  0  0  0
 64140  1  0  0  0
 65141  1  0  0  0
 68 77  1  0  0  0
 71 74  1  0  0  0
 71 79  2  0  0  0
 71 82  1  0  0  0
 72142  1  0  0  0
 72143  1  0  0  0
 72144  1  0  0  0
 72 78  1  0  0  0
 73 78  1  0  0  0
 73145  1  0  0  0
 73146  1  0  0  0
 73147  1  0  0  0
 74 75  1  0  0  0
 74148  1  0  0  0
 74149  1  0  0  0
 75 77  1  0  0  0
 75150  1  0  0  0
 75151  1  0  0  0
 76 78  1  0  0  0
 76 82  1  0  0  0
 76152  1  0  0  0
 76153  1  0  0  0
 77154  1  0  0  0
 77155  1  0  0  0
 79 80  1  0  0  0
 80 81  2  0  0  0
 81 82  1  0  0  0
M  ISO  4   1 100  68 101  77 101  78 100
M  END
> <chiral flag>
0

> <version>
0

> <s_m_source_file>
/data/baiqing/PycharmProjects/Reinvent-master-3.2/result/LINK_invent/BTK/process_docking_weight1_custom_sum_contain_oxygen_bond_distance_aromatic_linkinvent_7_9_3/rearranged_h_0057.sdf

> <i_m_source_file_index>
97

> <r_mmod_Potential_Energy-OPLS-2005>
621.328063964844

> <r_mmod_Stretch_Energy-OPLS-2005>
311.540313720703

> <r_mmod_Bend_Energy-OPLS-2005>
356.264099121094

> <r_mmod_Torsional_Energy-OPLS-2005>
204.323623657227

> <r_mmod_Improper_Torsional_Energy-OPLS-2005>
2.74815511703491

> <r_mmod_Van_der_Waal_Energy-OPLS-2005>
136.019454956055

> <r_mmod_Electrostatic_Energy-OPLS-2005>
-337.346374511719

> <r_mmod_Solvation_Energy-OPLS-2005>
-219.182098388672

> <b_mmod_Minimization_Converged-OPLS-2005>
0

> <r_mmod_RMS_Derivative-OPLS-2005>
7.11855697631836

$$$$
97
                    3D
 Structure written by MMmdl.
154162  0  0  1  0            999 V2000
  -30.5085  -15.0090   20.3827 C   0  0  0  0  0  0
  -30.4298  -12.6253   19.4799 C   0  0  0  0  0  0
  -29.5143  -12.5485   18.2381 C   0  0  0  0  0  0
  -28.0490  -12.3226   18.6627 C   0  0  0  0  0  0
  -27.6190  -13.2571   19.8241 C   0  0  2  0  0  0
  -28.6650  -13.3099   20.9561 C   0  0  0  0  0  0
  -25.2422  -13.8234   20.5678 C   0  0  0  0  0  0
  -24.1763  -13.0455   20.9220 C   0  0  0  0  0  0
  -24.6393  -11.6934   20.8747 C   0  0  0  0  0  0
  -23.9078  -10.4307   21.0402 C   0  0  0  0  0  0
  -24.3622   -9.4226   21.9204 C   0  0  0  0  0  0
  -23.6308   -8.2263   22.0786 C   0  0  0  0  0  0
  -22.4295   -8.0296   21.3560 C   0  0  0  0  0  0
  -21.9915   -9.0251   20.4647 C   0  0  0  0  0  0
  -22.7236  -10.2142   20.3053 C   0  0  0  0  0  0
  -21.6862   -6.0717   22.5258 C   0  0  0  0  0  0
  -21.4020   -6.5618   23.8183 C   0  0  0  0  0  0
  -21.3693   -5.6771   24.9143 C   0  0  0  0  0  0
  -21.6077   -4.3044   24.7186 C   0  0  0  0  0  0
  -21.8815   -3.8131   23.4302 C   0  0  0  0  0  0
  -21.9199   -4.6949   22.3361 C   0  0  0  0  0  0
  -22.7786  -13.5212   21.1891 C   0  0  0  0  0  0
  -22.1683   -4.2138   21.0935 F   0  0  0  0  0  0
  -21.5650   -3.4531   25.7693 F   0  0  0  0  0  0
  -29.9269  -13.7376   20.3403 N   0  0  0  0  0  0
  -26.2837  -12.9485   20.3191 N   0  0  0  0  0  0
  -25.9316  -11.6601   20.5696 N   0  0  0  0  0  0
  -22.0464  -12.8171   22.0443 N   0  0  0  0  0  0
  -25.4064  -15.1964   20.4037 N   0  0  0  0  0  0
  -31.7252  -15.0652   20.1668 O   0  0  0  0  0  0
  -21.6687   -6.8879   21.4225 O   0  0  0  0  0  0
  -22.3454  -14.5530   20.6768 O   0  0  0  0  0  0
  -24.6512  -31.8386   23.1852 C   0  0  0  0  0  0
  -25.9267  -32.4659   23.8267 C   0  0  1  0  0  0
  -27.2130  -27.0821   20.1461 C   0  0  0  0  0  0
  -25.6013  -33.8468   24.2198 N   0  0  0  0  0  0
  -23.4576  -30.4595   21.5294 C   0  0  2  0  0  0
  -24.9082  -28.8805   20.1042 C   0  0  0  0  0  0
  -22.7610  -29.4529   22.4814 C   0  0  0  0  0  0
  -18.0327  -28.1394   22.8457 C   0  0  0  0  0  0
  -24.1498  -36.7256   23.2638 C   0  0  0  0  0  0
  -26.0186  -30.6916   21.3979 C   0  0  0  0  0  0
  -26.0872  -29.2997   20.7338 C   0  0  0  0  0  0
  -27.2383  -28.4160   20.7393 C   0  0  0  0  0  0
  -26.0127  -26.7860   19.4628 C   0  0  0  0  0  0
  -24.8890  -27.6412   19.4490 C   0  0  0  0  0  0
  -23.6888  -29.7917   20.1476 C   0  0  0  0  0  0
  -25.4131  -36.3023   24.0321 C   0  0  1  0  0  0
  -20.5935  -28.3745   23.1198 C   0  0  2  0  0  0
  -20.6798  -26.9440   22.5380 C   0  0  0  0  0  0
  -19.5772  -26.6384   21.5189 C   0  0  0  0  0  0
  -18.1963  -26.7937   22.1601 C   0  0  0  0  0  0
  -19.1576  -28.8890   23.2824 C   0  0  0  0  0  0
  -18.9477  -30.1477   23.8869 C   0  0  0  0  0  0
  -17.6461  -30.6575   24.0555 C   0  0  0  0  0  0
  -25.9076  -34.9389   23.5064 C   0  0  0  0  0  0
  -16.5363  -29.9053   23.6336 C   0  0  0  0  0  0
  -16.7309  -28.6482   23.0356 C   0  0  0  0  0  0
  -26.4567  -31.6536   25.0734 C   0  0  0  0  0  0
  -25.3723  -31.3732   26.1403 C   0  0  0  0  0  0
  -27.0470  -30.2922   24.6401 C   0  0  0  0  0  0
  -27.6105  -32.4297   25.7524 C   0  0  0  0  0  0
  -27.5595  -37.1788   24.8468 C   0  0  0  0  0  0
  -21.4296  -29.3067   22.3570 N   0  0  0  0  0  0
  -26.4302  -37.3737   23.9400 N   0  0  0  0  0  0
  -24.7288  -31.0174   22.0929 N   0  0  0  0  0  0
  -23.4227  -28.8075   23.2984 O   0  0  0  0  0  0
  -28.2336  -26.0479   20.2366 O   0  0  0  0  0  0
  -26.5627  -34.8890   22.4617 O   0  0  0  0  0  0
  -23.5614  -32.1307   23.7036 O   0  0  0  0  0  0
  -29.9560  -23.3251   21.1656 C   0  0  0  0  0  0
  -30.6860  -22.1863   21.5537 C   0  0  0  0  0  0
  -28.8150  -23.1716   20.3723 C   0  0  0  0  0  0
  -29.3004  -20.6995   20.4390 C   0  0  0  0  0  0
  -28.4677  -18.8813   18.7705 C   0  0  0  0  0  0
  -27.7274  -18.7860   21.1569 C   0  0  0  0  0  0
  -27.9215  -24.5225   19.9505 C   0  0  0  0  0  0
  -30.0285  -17.7777   20.4873 C   0  0  0  0  0  0
  -28.9223  -19.0703   20.2303 C   0  0  0  0  0  0
  -30.3582  -20.9187   21.2095 N   0  0  0  0  0  0
  -28.5158  -21.8074   20.0432 N   0  0  0  0  0  0
  -29.7122  -16.1994   20.4519 N   0  0  0  0  0  0
  -31.4663  -12.7831   19.1781 H   0  0  0  0  0  0
  -30.4153  -11.6770   20.0201 H   0  0  0  0  0  0
  -29.8388  -11.7480   17.5721 H   0  0  0  0  0  0
  -29.5906  -13.4761   17.6668 H   0  0  0  0  0  0
  -27.9540  -11.2807   18.9702 H   0  0  0  0  0  0
  -27.3839  -12.4576   17.8085 H   0  0  0  0  0  0
  -27.5628  -14.2513   19.3817 H   0  0  0  0  0  0
  -28.7737  -12.3393   21.4398 H   0  0  0  0  0  0
  -28.3595  -14.0137   21.7342 H   0  0  0  0  0  0
  -25.2773   -9.5725   22.4758 H   0  0  0  0  0  0
  -24.0052   -7.4636   22.7477 H   0  0  0  0  0  0
  -21.0883   -8.8717   19.8887 H   0  0  0  0  0  0
  -22.3722  -10.9656   19.6126 H   0  0  0  0  0  0
  -21.2038   -7.6133   23.9675 H   0  0  0  0  0  0
  -21.1550   -6.0507   25.9039 H   0  0  0  0  0  0
  -22.0592   -2.7585   23.2774 H   0  0  0  0  0  0
  -22.4115  -11.9825   22.4790 H   0  0  0  0  0  0
  -21.1055  -13.1130   22.2650 H   0  0  0  0  0  0
  -24.6271  -15.8404   20.4922 H   0  0  0  0  0  0
  -26.2444  -15.6353   20.0501 H   0  0  0  0  0  0
  -26.7333  -32.5236   23.0986 H   0  0  0  0  0  0
  -25.0212  -33.9561   25.0390 H   0  0  0  0  0  0
  -22.7640  -31.2881   21.3725 H   0  0  0  0  0  0
  -23.3773  -35.9570   23.3269 H   0  0  0  0  0  0
  -24.3594  -36.8921   22.2059 H   0  0  0  0  0  0
  -23.7227  -37.6438   23.6685 H   0  0  0  0  0  0
  -26.1852  -31.4496   20.6310 H   0  0  0  0  0  0
  -26.8833  -30.7362   22.0496 H   0  0  0  0  0  0
  -28.1322  -28.7266   21.2612 H   0  0  0  0  0  0
  -25.9036  -25.8458   18.9435 H   0  0  0  0  0  0
  -23.9958  -27.3254   18.9276 H   0  0  0  0  0  0
  -23.8343  -30.5692   19.3961 H   0  0  0  0  0  0
  -22.8022  -29.2421   19.8283 H   0  0  0  0  0  0
  -25.1312  -36.1861   25.0815 H   0  0  0  0  0  0
  -21.0032  -28.3327   24.1311 H   0  0  0  0  0  0
  -20.5676  -26.2362   23.3606 H   0  0  0  0  0  0
  -21.6662  -26.7415   22.1179 H   0  0  0  0  0  0
  -19.6921  -25.6280   21.1253 H   0  0  0  0  0  0
  -19.6705  -27.3165   20.6694 H   0  0  0  0  0  0
  -17.4229  -26.6700   21.4002 H   0  0  0  0  0  0
  -18.0355  -26.0076   22.8993 H   0  0  0  0  0  0
  -19.7945  -30.7313   24.2228 H   0  0  0  0  0  0
  -17.5001  -31.6252   24.5163 H   0  0  0  0  0  0
  -15.5354  -30.2926   23.7674 H   0  0  0  0  0  0
  -15.8725  -28.0775   22.7075 H   0  0  0  0  0  0
  -24.5905  -30.7104   25.7672 H   0  0  0  0  0  0
  -24.8920  -32.2919   26.4773 H   0  0  0  0  0  0
  -25.7962  -30.8900   27.0218 H   0  0  0  0  0  0
  -26.3125  -29.6576   24.1438 H   0  0  0  0  0  0
  -27.4079  -29.7289   25.5022 H   0  0  0  0  0  0
  -27.9029  -30.4131   23.9759 H   0  0  0  0  0  0
  -27.2717  -33.3602   26.2085 H   0  0  0  0  0  0
  -28.3931  -32.6848   25.0364 H   0  0  0  0  0  0
  -28.0779  -31.8445   26.5457 H   0  0  0  0  0  0
  -28.2585  -38.0112   24.7537 H   0  0  0  0  0  0
  -28.1128  -36.2647   24.6267 H   0  0  0  0  0  0
  -27.2326  -37.1397   25.8875 H   0  0  0  0  0  0
  -20.9523  -29.8813   21.6771 H   0  0  0  0  0  0
  -26.0188  -38.2819   24.1367 H   0  0  0  0  0  0
  -30.2612  -24.3115   21.4903 H   0  0  0  0  0  0
  -31.5655  -22.2891   22.1734 H   0  0  0  0  0  0
  -27.6409  -19.5460   18.5176 H   0  0  0  0  0  0
  -28.1347  -17.8588   18.5863 H   0  0  0  0  0  0
  -29.2811  -19.0920   18.0786 H   0  0  0  0  0  0
  -26.8819  -19.4393   20.9335 H   0  0  0  0  0  0
  -28.0009  -18.9605   22.1962 H   0  0  0  0  0  0
  -27.3770  -17.7586   21.0642 H   0  0  0  0  0  0
  -26.9340  -24.3269   20.3660 H   0  0  0  0  0  0
  -27.8022  -24.4534   18.8700 H   0  0  0  0  0  0
  -30.4635  -17.9531   21.4720 H   0  0  0  0  0  0
  -30.8593  -17.9322   19.7990 H   0  0  0  0  0  0
  -28.7267  -15.9870   20.4788 H   0  0  0  0  0  0
  1 25  1  0  0  0
  1 30  2  0  0  0
  1 82  1  0  0  0
  2  3  1  0  0  0
  2 25  1  0  0  0
  2 83  1  0  0  0
  2 84  1  0  0  0
  3  4  1  0  0  0
  3 85  1  0  0  0
  3 86  1  0  0  0
  4  5  1  0  0  0
  4 87  1  0  0  0
  4 88  1  0  0  0
  5  6  1  0  0  0
  5 26  1  0  0  0
  5 89  1  0  0  0
  6 25  1  0  0  0
  6 90  1  0  0  0
  6 91  1  0  0  0
  7  8  2  0  0  0
  7 26  1  0  0  0
  7 29  1  0  0  0
  8  9  1  0  0  0
  8 22  1  0  0  0
  9 10  1  0  0  0
  9 27  2  0  0  0
 10 11  2  0  0  0
 10 15  1  0  0  0
 11 12  1  0  0  0
 11 92  1  0  0  0
 12 13  2  0  0  0
 12 93  1  0  0  0
 13 14  1  0  0  0
 13 31  1  0  0  0
 14 15  2  0  0  0
 14 94  1  0  0  0
 15 95  1  0  0  0
 16 17  2  0  0  0
 16 21  1  0  0  0
 16 31  1  0  0  0
 17 18  1  0  0  0
 17 96  1  0  0  0
 18 19  2  0  0  0
 18 97  1  0  0  0
 19 20  1  0  0  0
 19 24  1  0  0  0
 20 21  2  0  0  0
 20 98  1  0  0  0
 21 23  1  0  0  0
 22 28  1  0  0  0
 22 32  2  0  0  0
 26 27  1  0  0  0
 28 99  1  0  0  0
 28100  1  0  0  0
 29101  1  0  0  0
 29102  1  0  0  0
 33 34  1  0  0  0
 33 66  1  0  0  0
 33 70  2  0  0  0
 34 36  1  0  0  0
 34 59  1  0  0  0
 34103  1  0  0  0
 35 44  2  0  0  0
 35 45  1  0  0  0
 35 68  1  0  0  0
 36 56  1  0  0  0
 36104  1  0  0  0
 37 39  1  0  0  0
 37 47  1  0  0  0
 37 66  1  0  0  0
 37105  1  0  0  0
 38 43  2  0  0  0
 38 46  1  0  0  0
 38 47  1  0  0  0
 39 64  1  0  0  0
 39 67  2  0  0  0
 40 52  1  0  0  0
 40 53  2  0  0  0
 40 58  1  0  0  0
 41106  1  0  0  0
 41107  1  0  0  0
 41108  1  0  0  0
 41 48  1  0  0  0
 42 43  1  0  0  0
 42 66  1  0  0  0
 42109  1  0  0  0
 42110  1  0  0  0
 43 44  1  0  0  0
 44111  1  0  0  0
 45 46  2  0  0  0
 45112  1  0  0  0
 46113  1  0  0  0
 47114  1  0  0  0
 47115  1  0  0  0
 48 56  1  0  0  0
 48 65  1  0  0  0
 48116  1  0  0  0
 49 50  1  0  0  0
 49 53  1  0  0  0
 49 64  1  0  0  0
 49117  1  0  0  0
 50 51  1  0  0  0
 50118  1  0  0  0
 50119  1  0  0  0
 51 52  1  0  0  0
 51120  1  0  0  0
 51121  1  0  0  0
 52122  1  0  0  0
 52123  1  0  0  0
 53 54  1  0  0  0
 54 55  2  0  0  0
 54124  1  0  0  0
 55 57  1  0  0  0
 55125  1  0  0  0
 56 69  2  0  0  0
 57 58  2  0  0  0
 57126  1  0  0  0
 58127  1  0  0  0
 59 60  1  0  0  0
 59 61  1  0  0  0
 59 62  1  0  0  0
 60128  1  0  0  0
 60129  1  0  0  0
 60130  1  0  0  0
 61131  1  0  0  0
 61132  1  0  0  0
 61133  1  0  0  0
 62134  1  0  0  0
 62135  1  0  0  0
 62136  1  0  0  0
 63 65  1  0  0  0
 63137  1  0  0  0
 63138  1  0  0  0
 63139  1  0  0  0
 64140  1  0  0  0
 65141  1  0  0  0
 68 77  1  0  0  0
 71 72  2  0  0  0
 71 73  1  0  0  0
 71142  1  0  0  0
 72 80  1  0  0  0
 72143  1  0  0  0
 73 77  1  0  0  0
 73 81  2  0  0  0
 74 79  1  0  0  0
 74 80  2  0  0  0
 74 81  1  0  0  0
 75144  1  0  0  0
 75145  1  0  0  0
 75146  1  0  0  0
 75 79  1  0  0  0
 76 79  1  0  0  0
 76147  1  0  0  0
 76148  1  0  0  0
 76149  1  0  0  0
 77150  1  0  0  0
 77151  1  0  0  0
 78 79  1  0  0  0
 78 82  1  0  0  0
 78152  1  0  0  0
 78153  1  0  0  0
 82154  1  0  0  0
M  ISO  4   1 100  68 101  77 101  82 100
M  END
> <chiral flag>
0

> <version>
0

> <s_m_source_file>
/data/baiqing/PycharmProjects/Reinvent-master-3.2/result/LINK_invent/BTK/process_docking_weight1_custom_sum_contain_oxygen_bond_distance_aromatic_linkinvent_7_9_3/rearranged_h_0057.sdf

> <i_m_source_file_index>
98

> <r_mmod_Potential_Energy-OPLS-2005>
168.563217163086

> <r_mmod_Stretch_Energy-OPLS-2005>
321.812805175781

> <r_mmod_Bend_Energy-OPLS-2005>
275.703582763672

> <r_mmod_Torsional_Energy-OPLS-2005>
213.371826171875

> <r_mmod_Improper_Torsional_Energy-OPLS-2005>
5.60961389541626

> <r_mmod_Van_der_Waal_Energy-OPLS-2005>
129.744125366211

> <r_mmod_Electrostatic_Energy-OPLS-2005>
-788.234985351562

> <r_mmod_Solvation_Energy-OPLS-2005>
-236.266845703125

> <b_mmod_Minimization_Converged-OPLS-2005>
0

> <r_mmod_RMS_Derivative-OPLS-2005>
3.88417840003967

$$$$
