0
                    3D
 Structure written by MMmdl.
168176  0  0  1  0            999 V2000
  -30.6637  -14.5502   20.4982 C   0  0  0  0  0  0
  -30.4331  -12.3343   19.4415 C   0  0  0  0  0  0
  -29.5080  -12.4802   18.2148 C   0  0  0  0  0  0
  -28.0232  -12.3537   18.6207 C   0  0  0  0  0  0
  -27.6577  -13.2132   19.8630 C   0  0  2  0  0  0
  -28.7010  -13.0463   20.9918 C   0  0  0  0  0  0
  -25.2590  -13.8181   20.5668 C   0  0  0  0  0  0
  -24.1864  -13.0452   20.9178 C   0  0  0  0  0  0
  -24.6390  -11.6895   20.8708 C   0  0  0  0  0  0
  -23.9054  -10.4301   21.0366 C   0  0  0  0  0  0
  -24.3599   -9.4243   21.9169 C   0  0  0  0  0  0
  -23.6291   -8.2277   22.0750 C   0  0  0  0  0  0
  -22.4286   -8.0280   21.3524 C   0  0  0  0  0  0
  -21.9896   -9.0252   20.4647 C   0  0  0  0  0  0
  -22.7211  -10.2142   20.3052 C   0  0  0  0  0  0
  -21.6861   -6.0730   22.5277 C   0  0  0  0  0  0
  -21.4017   -6.5642   23.8204 C   0  0  0  0  0  0
  -21.3655   -5.6798   24.9165 C   0  0  0  0  0  0
  -21.6028   -4.3055   24.7226 C   0  0  0  0  0  0
  -21.8827   -3.8141   23.4347 C   0  0  0  0  0  0
  -21.9201   -4.6955   22.3400 C   0  0  0  0  0  0
  -22.7889  -13.5239   21.1826 C   0  0  0  0  0  0
  -22.1664   -4.2145   21.0975 F   0  0  0  0  0  0
  -21.5618   -3.4535   25.7732 F   0  0  0  0  0  0
  -30.0253  -13.3475   20.4322 N   0  0  0  0  0  0
  -26.3009  -12.9365   20.3291 N   0  0  0  0  0  0
  -25.9328  -11.6521   20.5746 N   0  0  0  0  0  0
  -22.0491  -12.8278   22.0371 N   0  0  0  0  0  0
  -25.4304  -15.1935   20.4071 N   0  0  0  0  0  0
  -31.8161  -14.7061   20.0917 O   0  0  0  0  0  0
  -21.6645   -6.8880   21.4237 O   0  0  0  0  0  0
  -22.3589  -14.5524   20.6616 O   0  0  0  0  0  0
  -24.6253  -31.8697   23.2102 C   0  0  0  0  0  0
  -25.9161  -32.4847   23.8437 C   0  0  1  0  0  0
  -27.2391  -27.4218   20.0946 C   0  0  0  0  0  0
  -25.6110  -33.8652   24.2411 N   0  0  0  0  0  0
  -23.4059  -30.4956   21.5501 C   0  0  2  0  0  0
  -24.8503  -28.9494   20.1205 C   0  0  0  0  0  0
  -22.7417  -29.4688   22.4960 C   0  0  0  0  0  0
  -18.0291  -28.1428   22.8490 C   0  0  0  0  0  0
  -24.1462  -36.7203   23.2599 C   0  0  0  0  0  0
  -25.9335  -30.8377   21.3509 C   0  0  0  0  0  0
  -26.0130  -29.4611   20.7132 C   0  0  0  0  0  0
  -27.2083  -28.7048   20.6974 C   0  0  0  0  0  0
  -26.0564  -26.9232   19.5026 C   0  0  0  0  0  0
  -24.8663  -27.6809   19.5139 C   0  0  0  0  0  0
  -23.6166  -29.8259   20.1643 C   0  0  0  0  0  0
  -25.4082  -36.3091   24.0339 C   0  0  1  0  0  0
  -20.5891  -28.3706   23.1299 C   0  0  2  0  0  0
  -20.6802  -26.9443   22.5407 C   0  0  0  0  0  0
  -19.5777  -26.6436   21.5220 C   0  0  0  0  0  0
  -18.1942  -26.7986   22.1599 C   0  0  0  0  0  0
  -19.1541  -28.8869   23.2916 C   0  0  0  0  0  0
  -18.9471  -30.1490   23.8925 C   0  0  0  0  0  0
  -17.6472  -30.6632   24.0591 C   0  0  0  0  0  0
  -25.9050  -34.9475   23.5099 C   0  0  0  0  0  0
  -16.5361  -29.9141   23.6345 C   0  0  0  0  0  0
  -16.7284  -28.6575   23.0340 C   0  0  0  0  0  0
  -26.4535  -31.6591   25.0742 C   0  0  0  0  0  0
  -25.3795  -31.3738   26.1460 C   0  0  0  0  0  0
  -27.0311  -30.3063   24.6026 C   0  0  0  0  0  0
  -27.6154  -32.4182   25.7583 C   0  0  0  0  0  0
  -27.5525  -37.1753   24.8485 C   0  0  0  0  0  0
  -21.4145  -29.3090   22.3705 N   0  0  0  0  0  0
  -26.4215  -37.3817   23.9450 N   0  0  0  0  0  0
  -24.6759  -31.0742   22.1008 N   0  0  0  0  0  0
  -23.4183  -28.8220   23.3014 O   0  0  0  0  0  0
  -28.4213  -26.7069   20.0364 O   0  0  0  0  0  0
  -26.5476  -34.8926   22.4579 O   0  0  0  0  0  0
  -23.5443  -32.1472   23.7471 O   0  0  0  0  0  0
  -28.9944  -19.3772   20.3064 C   0  0  0  0  0  0
  -30.8955  -20.3263   21.3922 C   0  0  0  0  0  0
  -29.9321  -20.6067   20.2333 C   0  0  1  0  0  0
  -29.7884  -18.2206   20.9988 C   0  0  1  0  0  0
  -27.9101  -24.6909   24.4260 C   0  0  0  0  0  0
  -29.2292  -22.0084   20.2171 C   0  0  0  0  0  0
  -30.0048  -16.9475   20.1063 C   0  0  0  0  0  0
  -28.1890  -24.3328   22.9586 C   0  0  0  0  0  0
  -30.1639  -23.2405   20.3990 C   0  0  0  0  0  0
  -28.5824  -25.5566   22.1120 C   0  0  0  0  0  0
  -29.6652  -24.6421   19.9059 C   0  0  0  0  0  0
  -28.4549  -25.3688   20.5810 C   0  0  2  0  0  0
  -29.8753  -15.6215   20.7659 N   0  0  0  0  0  0
  -31.0612  -18.8562   21.4080 N   0  3  0  0  0  0
  -31.4718  -12.4463   19.1310 H   0  0  0  0  0  0
  -30.3599  -11.3312   19.8675 H   0  0  0  0  0  0
  -29.7502  -11.7188   17.4720 H   0  0  0  0  0  0
  -29.6897  -13.4417   17.7351 H   0  0  0  0  0  0
  -27.8239  -11.3020   18.8268 H   0  0  0  0  0  0
  -27.3846  -12.6236   17.7767 H   0  0  0  0  0  0
  -27.6809  -14.2539   19.5354 H   0  0  0  0  0  0
  -28.6884  -12.0260   21.3792 H   0  0  0  0  0  0
  -28.4681  -13.6955   21.8392 H   0  0  0  0  0  0
  -25.2736   -9.5737   22.4762 H   0  0  0  0  0  0
  -23.9996   -7.4679   22.7488 H   0  0  0  0  0  0
  -21.0819   -8.8760   19.8970 H   0  0  0  0  0  0
  -22.3634  -10.9677   19.6176 H   0  0  0  0  0  0
  -21.2007   -7.6155   23.9701 H   0  0  0  0  0  0
  -21.1464   -6.0525   25.9068 H   0  0  0  0  0  0
  -22.0605   -2.7606   23.2843 H   0  0  0  0  0  0
  -22.4026  -11.9954   22.4873 H   0  0  0  0  0  0
  -21.1088  -13.1327   22.2460 H   0  0  0  0  0  0
  -24.6593  -15.8450   20.5164 H   0  0  0  0  0  0
  -26.2706  -15.6300   20.0488 H   0  0  0  0  0  0
  -26.7234  -32.5577   23.1224 H   0  0  0  0  0  0
  -25.0743  -33.9907   25.0871 H   0  0  0  0  0  0
  -22.6954  -31.3129   21.4019 H   0  0  0  0  0  0
  -23.3807  -35.9465   23.3300 H   0  0  0  0  0  0
  -24.3520  -36.8740   22.1990 H   0  0  0  0  0  0
  -23.7131  -37.6386   23.6558 H   0  0  0  0  0  0
  -26.0078  -31.5877   20.5603 H   0  0  0  0  0  0
  -26.8364  -30.9281   21.9427 H   0  0  0  0  0  0
  -28.1046  -29.0958   21.1616 H   0  0  0  0  0  0
  -26.0615  -25.9618   19.0071 H   0  0  0  0  0  0
  -23.9764  -27.2917   19.0395 H   0  0  0  0  0  0
  -23.7374  -30.5996   19.4033 H   0  0  0  0  0  0
  -22.7389  -29.2516   19.8593 H   0  0  0  0  0  0
  -25.1252  -36.1912   25.0841 H   0  0  0  0  0  0
  -21.0011  -28.3298   24.1402 H   0  0  0  0  0  0
  -20.5762  -26.2311   23.3603 H   0  0  0  0  0  0
  -21.6665  -26.7576   22.1132 H   0  0  0  0  0  0
  -19.6950  -25.6358   21.1254 H   0  0  0  0  0  0
  -19.6720  -27.3239   20.6735 H   0  0  0  0  0  0
  -17.4223  -26.6784   21.3976 H   0  0  0  0  0  0
  -18.0294  -26.0151   22.8994 H   0  0  0  0  0  0
  -19.7941  -30.7338   24.2273 H   0  0  0  0  0  0
  -17.5026  -31.6316   24.5208 H   0  0  0  0  0  0
  -15.5357  -30.3063   23.7686 H   0  0  0  0  0  0
  -15.8664  -28.0941   22.6981 H   0  0  0  0  0  0
  -24.6005  -30.7047   25.7777 H   0  0  0  0  0  0
  -24.8955  -32.2907   26.4834 H   0  0  0  0  0  0
  -25.8116  -30.8985   27.0265 H   0  0  0  0  0  0
  -26.2864  -29.6904   24.0966 H   0  0  0  0  0  0
  -27.4034  -29.7182   25.4409 H   0  0  0  0  0  0
  -27.8714  -30.4410   23.9217 H   0  0  0  0  0  0
  -27.2901  -33.3491   26.2224 H   0  0  0  0  0  0
  -28.4060  -32.6645   25.0494 H   0  0  0  0  0  0
  -28.0719  -31.8233   26.5474 H   0  0  0  0  0  0
  -28.2595  -38.0007   24.7535 H   0  0  0  0  0  0
  -28.0994  -36.2540   24.6341 H   0  0  0  0  0  0
  -27.2249  -37.1422   25.8903 H   0  0  0  0  0  0
  -20.9307  -29.8787   21.6894 H   0  0  0  0  0  0
  -26.0099  -38.2860   24.1617 H   0  0  0  0  0  0
  -28.6051  -19.1113   19.3227 H   0  0  0  0  0  0
  -28.1246  -19.6181   20.9207 H   0  0  0  0  0  0
  -30.4534  -20.6542   22.3335 H   0  0  0  0  0  0
  -31.8509  -20.8406   21.2761 H   0  0  0  0  0  0
  -30.5120  -20.5144   19.3128 H   0  0  0  0  0  0
  -29.2469  -17.9406   21.9025 H   0  0  0  0  0  0
  -27.6593  -23.7974   25.0020 H   0  0  0  0  0  0
  -27.0704  -25.3831   24.5112 H   0  0  0  0  0  0
  -28.7746  -25.1554   24.9011 H   0  0  0  0  0  0
  -28.4344  -22.0393   20.9637 H   0  0  0  0  0  0
  -28.7216  -22.1057   19.2583 H   0  0  0  0  0  0
  -30.9274  -17.0350   19.5298 H   0  0  0  0  0  0
  -29.2148  -16.9323   19.3543 H   0  0  0  0  0  0
  -27.2945  -23.8712   22.5379 H   0  0  0  0  0  0
  -28.9749  -23.5774   22.9237 H   0  0  0  0  0  0
  -31.0827  -23.0426   19.8445 H   0  0  0  0  0  0
  -30.5064  -23.3005   21.4309 H   0  0  0  0  0  0
  -29.5902  -25.8856   22.3643 H   0  0  0  0  0  0
  -27.9346  -26.3800   22.4141 H   0  0  0  0  0  0
  -29.4748  -24.5787   18.8341 H   0  0  0  0  0  0
  -30.5223  -25.3149   19.9837 H   0  0  0  0  0  0
  -27.5388  -24.8252   20.3462 H   0  0  0  0  0  0
  -28.9560  -15.3948   21.1175 H   0  0  0  0  0  0
  -31.3719  -18.5317   22.3084 H   0  0  0  0  0  0
  -31.7773  -18.6184   20.7409 H   0  0  0  0  0  0
  1 25  1  0  0  0
  1 30  2  0  0  0
  1 83  1  0  0  0
  2  3  1  0  0  0
  2 25  1  0  0  0
  2 85  1  0  0  0
  2 86  1  0  0  0
  3  4  1  0  0  0
  3 87  1  0  0  0
  3 88  1  0  0  0
  4  5  1  0  0  0
  4 89  1  0  0  0
  4 90  1  0  0  0
  5  6  1  0  0  0
  5 26  1  0  0  0
  5 91  1  0  0  0
  6 25  1  0  0  0
  6 92  1  0  0  0
  6 93  1  0  0  0
  7  8  2  0  0  0
  7 26  1  0  0  0
  7 29  1  0  0  0
  8  9  1  0  0  0
  8 22  1  0  0  0
  9 10  1  0  0  0
  9 27  2  0  0  0
 10 11  2  0  0  0
 10 15  1  0  0  0
 11 12  1  0  0  0
 11 94  1  0  0  0
 12 13  2  0  0  0
 12 95  1  0  0  0
 13 14  1  0  0  0
 13 31  1  0  0  0
 14 15  2  0  0  0
 14 96  1  0  0  0
 15 97  1  0  0  0
 16 17  2  0  0  0
 16 21  1  0  0  0
 16 31  1  0  0  0
 17 18  1  0  0  0
 17 98  1  0  0  0
 18 19  2  0  0  0
 18 99  1  0  0  0
 19 20  1  0  0  0
 19 24  1  0  0  0
 20 21  2  0  0  0
 20100  1  0  0  0
 21 23  1  0  0  0
 22 28  1  0  0  0
 22 32  2  0  0  0
 26 27  1  0  0  0
 28101  1  0  0  0
 28102  1  0  0  0
 29103  1  0  0  0
 29104  1  0  0  0
 33 34  1  0  0  0
 33 66  1  0  0  0
 33 70  2  0  0  0
 34 36  1  0  0  0
 34 59  1  0  0  0
 34105  1  0  0  0
 35 44  2  0  0  0
 35 45  1  0  0  0
 35 68  1  0  0  0
 36 56  1  0  0  0
 36106  1  0  0  0
 37 39  1  0  0  0
 37 47  1  0  0  0
 37 66  1  0  0  0
 37107  1  0  0  0
 38 43  2  0  0  0
 38 46  1  0  0  0
 38 47  1  0  0  0
 39 64  1  0  0  0
 39 67  2  0  0  0
 40 52  1  0  0  0
 40 53  2  0  0  0
 40 58  1  0  0  0
 41108  1  0  0  0
 41109  1  0  0  0
 41110  1  0  0  0
 41 48  1  0  0  0
 42 43  1  0  0  0
 42 66  1  0  0  0
 42111  1  0  0  0
 42112  1  0  0  0
 43 44  1  0  0  0
 44113  1  0  0  0
 45 46  2  0  0  0
 45114  1  0  0  0
 46115  1  0  0  0
 47116  1  0  0  0
 47117  1  0  0  0
 48 56  1  0  0  0
 48 65  1  0  0  0
 48118  1  0  0  0
 49 50  1  0  0  0
 49 53  1  0  0  0
 49 64  1  0  0  0
 49119  1  0  0  0
 50 51  1  0  0  0
 50120  1  0  0  0
 50121  1  0  0  0
 51 52  1  0  0  0
 51122  1  0  0  0
 51123  1  0  0  0
 52124  1  0  0  0
 52125  1  0  0  0
 53 54  1  0  0  0
 54 55  2  0  0  0
 54126  1  0  0  0
 55 57  1  0  0  0
 55127  1  0  0  0
 56 69  2  0  0  0
 57 58  2  0  0  0
 57128  1  0  0  0
 58129  1  0  0  0
 59 60  1  0  0  0
 59 61  1  0  0  0
 59 62  1  0  0  0
 60130  1  0  0  0
 60131  1  0  0  0
 60132  1  0  0  0
 61133  1  0  0  0
 61134  1  0  0  0
 61135  1  0  0  0
 62136  1  0  0  0
 62137  1  0  0  0
 62138  1  0  0  0
 63 65  1  0  0  0
 63139  1  0  0  0
 63140  1  0  0  0
 63141  1  0  0  0
 64142  1  0  0  0
 65143  1  0  0  0
 68 82  1  0  0  0
 71 73  1  0  0  0
 71 74  1  0  0  0
 71144  1  0  0  0
 71145  1  0  0  0
 72 73  1  0  0  0
 72 84  1  0  0  0
 72146  1  0  0  0
 72147  1  0  0  0
 73 76  1  0  0  0
 73148  1  0  0  0
 74 77  1  0  0  0
 74 84  1  0  0  0
 74149  1  0  0  0
 75 78  1  0  0  0
 75150  1  0  0  0
 75151  1  0  0  0
 75152  1  0  0  0
 76 79  1  0  0  0
 76153  1  0  0  0
 76154  1  0  0  0
 77 83  1  0  0  0
 77155  1  0  0  0
 77156  1  0  0  0
 78 80  1  0  0  0
 78157  1  0  0  0
 78158  1  0  0  0
 79 81  1  0  0  0
 79159  1  0  0  0
 79160  1  0  0  0
 80161  1  0  0  0
 80162  1  0  0  0
 80 82  1  0  0  0
 81 82  1  0  0  0
 81163  1  0  0  0
 81164  1  0  0  0
 82165  1  0  0  0
 83166  1  0  0  0
 84167  1  0  0  0
 84168  1  0  0  0
M  CHG  1  84   1
M  ISO  4   1 100  68 101  82 101  83 100
M  END
> <chiral flag>
0

> <version>
0

> <s_m_source_file>
/data/baiqing/PycharmProjects/Reinvent-master-3.2/result/LINK_invent/BTK/process_docking_weight1_custom_sum_contain_oxygen_bond_distance_aromatic_linkinvent_7_9_3/rearranged_h_0120.sdf

> <i_m_source_file_index>
1

> <r_mmod_Potential_Energy-OPLS-2005>
-85.1949081420898

> <r_mmod_Stretch_Energy-OPLS-2005>
46.6244468688965

> <r_mmod_Bend_Energy-OPLS-2005>
140.872802734375

> <r_mmod_Torsional_Energy-OPLS-2005>
350.217010498047

> <r_mmod_Improper_Torsional_Energy-OPLS-2005>
8.48494338989258

> <r_mmod_Van_der_Waal_Energy-OPLS-2005>
117.002395629883

> <r_mmod_Electrostatic_Energy-OPLS-2005>
-310.303802490234

> <r_mmod_Solvation_Energy-OPLS-2005>
-458.763916015625

> <b_mmod_Minimization_Converged-OPLS-2005>
0

> <r_mmod_RMS_Derivative-OPLS-2005>
5.92294883728027

$$$$
1
                    3D
 Structure written by MMmdl.
164173  0  0  1  0            999 V2000
  -30.7623  -14.4004   20.6791 C   0  0  0  0  0  0
  -30.4159  -12.3146   19.3954 C   0  0  0  0  0  0
  -29.4818  -12.5270   18.1896 C   0  0  0  0  0  0
  -28.0055  -12.3793   18.6083 C   0  0  0  0  0  0
  -27.6626  -13.2032   19.8789 C   0  0  2  0  0  0
  -28.7062  -12.9393   20.9857 C   0  0  0  0  0  0
  -25.2597  -13.8148   20.5682 C   0  0  0  0  0  0
  -24.1837  -13.0437   20.9169 C   0  0  0  0  0  0
  -24.6390  -11.6905   20.8738 C   0  0  0  0  0  0
  -23.9061  -10.4300   21.0419 C   0  0  0  0  0  0
  -24.3618   -9.4220   21.9198 C   0  0  0  0  0  0
  -23.6299   -8.2252   22.0764 C   0  0  0  0  0  0
  -22.4280   -8.0292   21.3563 C   0  0  0  0  0  0
  -21.9912   -9.0260   20.4658 C   0  0  0  0  0  0
  -22.7239  -10.2138   20.3070 C   0  0  0  0  0  0
  -21.6853   -6.0747   22.5279 C   0  0  0  0  0  0
  -21.4011   -6.5651   23.8216 C   0  0  0  0  0  0
  -21.3662   -5.6804   24.9180 C   0  0  0  0  0  0
  -21.6039   -4.3064   24.7229 C   0  0  0  0  0  0
  -21.8820   -3.8160   23.4354 C   0  0  0  0  0  0
  -21.9199   -4.6976   22.3409 C   0  0  0  0  0  0
  -22.7864  -13.5250   21.1839 C   0  0  0  0  0  0
  -22.1669   -4.2160   21.0985 F   0  0  0  0  0  0
  -21.5614   -3.4544   25.7743 F   0  0  0  0  0  0
  -30.0342  -13.2719   20.4468 N   0  0  0  0  0  0
  -26.3029  -12.9316   20.3397 N   0  0  0  0  0  0
  -25.9312  -11.6476   20.5755 N   0  0  0  0  0  0
  -22.0499  -12.8248   22.0391 N   0  0  0  0  0  0
  -25.4353  -15.1834   20.4075 N   0  0  0  0  0  0
  -31.8020  -14.6543   20.0602 O   0  0  0  0  0  0
  -21.6644   -6.8888   21.4252 O   0  0  0  0  0  0
  -22.3562  -14.5571   20.6706 O   0  0  0  0  0  0
  -24.6139  -31.8695   23.2118 C   0  0  0  0  0  0
  -25.9024  -32.4844   23.8426 C   0  0  1  0  0  0
  -27.2298  -27.4479   20.0975 C   0  0  0  0  0  0
  -25.5886  -33.8641   24.2354 N   0  0  0  0  0  0
  -23.4021  -30.4932   21.5528 C   0  0  2  0  0  0
  -24.8477  -28.9592   20.1178 C   0  0  0  0  0  0
  -22.7408  -29.4666   22.5012 C   0  0  0  0  0  0
  -18.0290  -28.1365   22.8478 C   0  0  0  0  0  0
  -24.1489  -36.7313   23.2641 C   0  0  0  0  0  0
  -25.9304  -30.8413   21.3614 C   0  0  0  0  0  0
  -26.0080  -29.4769   20.7074 C   0  0  0  0  0  0
  -27.2065  -28.7295   20.6893 C   0  0  0  0  0  0
  -26.0564  -26.9399   19.5044 C   0  0  0  0  0  0
  -24.8650  -27.6904   19.5132 C   0  0  0  0  0  0
  -23.6088  -29.8241   20.1680 C   0  0  0  0  0  0
  -25.4107  -36.3124   24.0351 C   0  0  1  0  0  0
  -20.5875  -28.3647   23.1332 C   0  0  2  0  0  0
  -20.6784  -26.9393   22.5404 C   0  0  0  0  0  0
  -19.5775  -26.6409   21.5179 C   0  0  0  0  0  0
  -18.1951  -26.7924   22.1586 C   0  0  0  0  0  0
  -19.1533  -28.8823   23.2904 C   0  0  0  0  0  0
  -18.9450  -30.1430   23.8913 C   0  0  0  0  0  0
  -17.6450  -30.6569   24.0560 C   0  0  0  0  0  0
  -25.9029  -34.9489   23.5149 C   0  0  0  0  0  0
  -16.5341  -29.9061   23.6318 C   0  0  0  0  0  0
  -16.7276  -28.6481   23.0338 C   0  0  0  0  0  0
  -26.4459  -31.6616   25.0746 C   0  0  0  0  0  0
  -25.3728  -31.3702   26.1492 C   0  0  0  0  0  0
  -27.0285  -30.3068   24.6093 C   0  0  0  0  0  0
  -27.6058  -32.4318   25.7486 C   0  0  0  0  0  0
  -27.5584  -37.1811   24.8468 C   0  0  0  0  0  0
  -21.4145  -29.3017   22.3743 N   0  0  0  0  0  0
  -26.4298  -37.3804   23.9412 N   0  0  0  0  0  0
  -24.6677  -31.0810   22.1009 N   0  0  0  0  0  0
  -23.4195  -28.8208   23.3051 O   0  0  0  0  0  0
  -28.3835  -26.7025   20.0904 O   0  0  0  0  0  0
  -26.5588  -34.8927   22.4710 O   0  0  0  0  0  0
  -23.5326  -32.1428   23.7508 O   0  0  0  0  0  0
  -27.3115  -16.7057   23.0443 C   0  0  0  0  0  0
  -28.4136  -15.8595   22.8632 C   0  0  0  0  0  0
  -27.0988  -17.7679   22.1450 C   0  0  0  0  0  0
  -28.0371  -17.9352   21.0976 C   0  0  0  0  0  0
  -29.2676  -16.0441   21.7633 C   0  0  0  0  0  0
  -28.2834  -24.2257   20.0886 C   0  0  0  0  0  0
  -24.5725  -18.1271   22.7776 C   0  0  0  0  0  0
  -24.7500  -18.7377   21.4099 C   0  0  0  0  0  0
  -25.9207  -18.6808   22.3676 C   0  0  0  0  0  0
  -27.9568  -19.1257   20.1401 C   0  0  0  0  0  0
  -28.4114  -22.9073   20.8730 C   0  0  0  0  0  0
  -28.3250  -25.5260   20.9135 C   0  0  0  0  0  0
  -28.1574  -21.6250   20.0395 C   0  0  0  0  0  0
  -29.0813  -17.0857   20.9135 N   0  0  0  0  0  0
  -30.3977  -15.1921   21.7010 N   0  0  0  0  0  0
  -28.2994  -20.3814   20.8425 N   0  3  0  0  0  0
  -28.1561  -24.2378   18.8592 O   0  0  0  0  0  0
  -31.4589  -12.4160   19.0893 H   0  0  0  0  0  0
  -30.3244  -11.2943   19.7714 H   0  0  0  0  0  0
  -29.7192  -11.8147   17.3992 H   0  0  0  0  0  0
  -29.6472  -13.5195   17.7683 H   0  0  0  0  0  0
  -27.8147  -11.3205   18.7892 H   0  0  0  0  0  0
  -27.3498  -12.6647   17.7854 H   0  0  0  0  0  0
  -27.7195  -14.2580   19.6090 H   0  0  0  0  0  0
  -28.6895  -11.8871   21.2735 H   0  0  0  0  0  0
  -28.4569  -13.4717   21.8962 H   0  0  0  0  0  0
  -25.2763   -9.5696   22.4774 H   0  0  0  0  0  0
  -24.0011   -7.4650   22.7488 H   0  0  0  0  0  0
  -21.0842   -8.8783   19.8966 H   0  0  0  0  0  0
  -22.3705  -10.9682   19.6182 H   0  0  0  0  0  0
  -21.1987   -7.6153   23.9710 H   0  0  0  0  0  0
  -21.1485   -6.0542   25.9080 H   0  0  0  0  0  0
  -22.0593   -2.7618   23.2850 H   0  0  0  0  0  0
  -22.4087  -11.9885   22.4758 H   0  0  0  0  0  0
  -21.1145  -13.1326   22.2645 H   0  0  0  0  0  0
  -24.6869  -15.8500   20.5603 H   0  0  0  0  0  0
  -26.3239  -15.6188   20.1998 H   0  0  0  0  0  0
  -26.7097  -32.5559   23.1194 H   0  0  0  0  0  0
  -25.0044  -33.9827   25.0500 H   0  0  0  0  0  0
  -22.6896  -31.3092   21.4142 H   0  0  0  0  0  0
  -23.3758  -35.9640   23.3318 H   0  0  0  0  0  0
  -24.3578  -36.8900   22.2051 H   0  0  0  0  0  0
  -23.7222  -37.6522   23.6630 H   0  0  0  0  0  0
  -26.0389  -31.6092   20.5946 H   0  0  0  0  0  0
  -26.8199  -30.8949   21.9781 H   0  0  0  0  0  0
  -28.1053  -29.1279   21.1389 H   0  0  0  0  0  0
  -26.0609  -25.9677   19.0332 H   0  0  0  0  0  0
  -23.9727  -27.2882   19.0538 H   0  0  0  0  0  0
  -23.7128  -30.5983   19.4069 H   0  0  0  0  0  0
  -22.7339  -29.2404   19.8764 H   0  0  0  0  0  0
  -25.1280  -36.2010   25.0846 H   0  0  0  0  0  0
  -20.9963  -28.3225   24.1455 H   0  0  0  0  0  0
  -20.5685  -26.2240   23.3570 H   0  0  0  0  0  0
  -21.6659  -26.7457   22.1187 H   0  0  0  0  0  0
  -19.6940  -25.6343   21.1153 H   0  0  0  0  0  0
  -19.6743  -27.3271   20.6751 H   0  0  0  0  0  0
  -17.4229  -26.6671   21.3982 H   0  0  0  0  0  0
  -18.0360  -26.0044   22.8966 H   0  0  0  0  0  0
  -19.7913  -30.7254   24.2311 H   0  0  0  0  0  0
  -17.4998  -31.6251   24.5157 H   0  0  0  0  0  0
  -15.5338  -30.2959   23.7635 H   0  0  0  0  0  0
  -15.8689  -28.0790   22.7036 H   0  0  0  0  0  0
  -24.5906  -30.7052   25.7821 H   0  0  0  0  0  0
  -24.8918  -32.2851   26.4968 H   0  0  0  0  0  0
  -25.8090  -30.8850   27.0232 H   0  0  0  0  0  0
  -26.2828  -29.6841   24.1143 H   0  0  0  0  0  0
  -27.4064  -29.7292   25.4539 H   0  0  0  0  0  0
  -27.8657  -30.4416   23.9240 H   0  0  0  0  0  0
  -27.2709  -33.3605   26.2113 H   0  0  0  0  0  0
  -28.3830  -32.6889   25.0280 H   0  0  0  0  0  0
  -28.0760  -31.8404   26.5345 H   0  0  0  0  0  0
  -28.2622  -38.0093   24.7509 H   0  0  0  0  0  0
  -28.1064  -36.2624   24.6308 H   0  0  0  0  0  0
  -27.2299  -37.1476   25.8873 H   0  0  0  0  0  0
  -20.9306  -29.8702   21.6932 H   0  0  0  0  0  0
  -26.0199  -38.2894   24.1399 H   0  0  0  0  0  0
  -26.6467  -16.5456   23.8812 H   0  0  0  0  0  0
  -28.5956  -15.0670   23.5752 H   0  0  0  0  0  0
  -24.4375  -17.0480   22.8188 H   0  0  0  0  0  0
  -23.9932  -18.6962   23.5034 H   0  0  0  0  0  0
  -24.2666  -19.6988   21.2420 H   0  0  0  0  0  0
  -24.7351  -18.0552   20.5628 H   0  0  0  0  0  0
  -26.2293  -19.6008   22.8591 H   0  0  0  0  0  0
  -26.9534  -19.1829   19.7194 H   0  0  0  0  0  0
  -28.6334  -18.9757   19.2969 H   0  0  0  0  0  0
  -27.7140  -22.9493   21.7087 H   0  0  0  0  0  0
  -29.4127  -22.8776   21.3030 H   0  0  0  0  0  0
  -29.2102  -25.4996   21.5502 H   0  0  0  0  0  0
  -27.4606  -25.5509   21.5787 H   0  0  0  0  0  0
  -28.8511  -21.5850   19.1975 H   0  0  0  0  0  0
  -27.1537  -21.6624   19.6134 H   0  0  0  0  0  0
  -31.2166  -15.6810   22.0252 H   0  0  0  0  0  0
  -29.2468  -20.2788   21.1671 H   0  0  0  0  0  0
  -27.7052  -20.4270   21.6534 H   0  0  0  0  0  0
  1 25  1  0  0  0
  1 30  2  0  0  0
  1 85  1  0  0  0
  2  3  1  0  0  0
  2 25  1  0  0  0
  2 88  1  0  0  0
  2 89  1  0  0  0
  3  4  1  0  0  0
  3 90  1  0  0  0
  3 91  1  0  0  0
  4  5  1  0  0  0
  4 92  1  0  0  0
  4 93  1  0  0  0
  5  6  1  0  0  0
  5 26  1  0  0  0
  5 94  1  0  0  0
  6 25  1  0  0  0
  6 95  1  0  0  0
  6 96  1  0  0  0
  7  8  2  0  0  0
  7 26  1  0  0  0
  7 29  1  0  0  0
  8  9  1  0  0  0
  8 22  1  0  0  0
  9 10  1  0  0  0
  9 27  2  0  0  0
 10 11  2  0  0  0
 10 15  1  0  0  0
 11 12  1  0  0  0
 11 97  1  0  0  0
 12 13  2  0  0  0
 12 98  1  0  0  0
 13 14  1  0  0  0
 13 31  1  0  0  0
 14 15  2  0  0  0
 14 99  1  0  0  0
 15100  1  0  0  0
 16 17  2  0  0  0
 16 21  1  0  0  0
 16 31  1  0  0  0
 17 18  1  0  0  0
 17101  1  0  0  0
 18 19  2  0  0  0
 18102  1  0  0  0
 19 20  1  0  0  0
 19 24  1  0  0  0
 20 21  2  0  0  0
 20103  1  0  0  0
 21 23  1  0  0  0
 22 28  1  0  0  0
 22 32  2  0  0  0
 26 27  1  0  0  0
 28104  1  0  0  0
 28105  1  0  0  0
 29106  1  0  0  0
 29107  1  0  0  0
 33 34  1  0  0  0
 33 66  1  0  0  0
 33 70  2  0  0  0
 34 36  1  0  0  0
 34 59  1  0  0  0
 34108  1  0  0  0
 35 44  2  0  0  0
 35 45  1  0  0  0
 35 68  1  0  0  0
 36 56  1  0  0  0
 36109  1  0  0  0
 37 39  1  0  0  0
 37 47  1  0  0  0
 37 66  1  0  0  0
 37110  1  0  0  0
 38 43  2  0  0  0
 38 46  1  0  0  0
 38 47  1  0  0  0
 39 64  1  0  0  0
 39 67  2  0  0  0
 40 52  1  0  0  0
 40 53  2  0  0  0
 40 58  1  0  0  0
 41111  1  0  0  0
 41112  1  0  0  0
 41113  1  0  0  0
 41 48  1  0  0  0
 42 43  1  0  0  0
 42 66  1  0  0  0
 42114  1  0  0  0
 42115  1  0  0  0
 43 44  1  0  0  0
 44116  1  0  0  0
 45 46  2  0  0  0
 45117  1  0  0  0
 46118  1  0  0  0
 47119  1  0  0  0
 47120  1  0  0  0
 48 56  1  0  0  0
 48 65  1  0  0  0
 48121  1  0  0  0
 49 50  1  0  0  0
 49 53  1  0  0  0
 49 64  1  0  0  0
 49122  1  0  0  0
 50 51  1  0  0  0
 50123  1  0  0  0
 50124  1  0  0  0
 51 52  1  0  0  0
 51125  1  0  0  0
 51126  1  0  0  0
 52127  1  0  0  0
 52128  1  0  0  0
 53 54  1  0  0  0
 54 55  2  0  0  0
 54129  1  0  0  0
 55 57  1  0  0  0
 55130  1  0  0  0
 56 69  2  0  0  0
 57 58  2  0  0  0
 57131  1  0  0  0
 58132  1  0  0  0
 59 60  1  0  0  0
 59 61  1  0  0  0
 59 62  1  0  0  0
 60133  1  0  0  0
 60134  1  0  0  0
 60135  1  0  0  0
 61136  1  0  0  0
 61137  1  0  0  0
 61138  1  0  0  0
 62139  1  0  0  0
 62140  1  0  0  0
 62141  1  0  0  0
 63 65  1  0  0  0
 63142  1  0  0  0
 63143  1  0  0  0
 63144  1  0  0  0
 64145  1  0  0  0
 65146  1  0  0  0
 68 82  1  0  0  0
 71 72  2  0  0  0
 71 73  1  0  0  0
 71147  1  0  0  0
 72 75  1  0  0  0
 72148  1  0  0  0
 73 74  2  0  0  0
 73 79  1  0  0  0
 74 80  1  0  0  0
 74 84  1  0  0  0
 75 84  2  0  0  0
 75 85  1  0  0  0
 76 81  1  0  0  0
 76 82  1  0  0  0
 76 87  2  0  0  0
 77 78  1  0  0  0
 77 79  1  0  0  0
 77149  1  0  0  0
 77150  1  0  0  0
 78 79  1  0  0  0
 78151  1  0  0  0
 78152  1  0  0  0
 79153  1  0  0  0
 80 86  1  0  0  0
 80154  1  0  0  0
 80155  1  0  0  0
 81 83  1  0  0  0
 81156  1  0  0  0
 81157  1  0  0  0
 82158  1  0  0  0
 82159  1  0  0  0
 83 86  1  0  0  0
 83160  1  0  0  0
 83161  1  0  0  0
 85162  1  0  0  0
 86163  1  0  0  0
 86164  1  0  0  0
M  CHG  1  86   1
M  ISO  4   1 100  68 101  82 101  85 100
M  END
> <chiral flag>
0

> <version>
0

> <s_m_source_file>
/data/baiqing/PycharmProjects/Reinvent-master-3.2/result/LINK_invent/BTK/process_docking_weight1_custom_sum_contain_oxygen_bond_distance_aromatic_linkinvent_7_9_3/rearranged_h_0120.sdf

> <i_m_source_file_index>
2

> <r_mmod_Potential_Energy-OPLS-2005>
-432.907043457031

> <r_mmod_Stretch_Energy-OPLS-2005>
35.4790306091309

> <r_mmod_Bend_Energy-OPLS-2005>
107.272857666016

> <r_mmod_Torsional_Energy-OPLS-2005>
290.753967285156

> <r_mmod_Improper_Torsional_Energy-OPLS-2005>
7.40218114852905

> <r_mmod_Van_der_Waal_Energy-OPLS-2005>
132.106216430664

> <r_mmod_Electrostatic_Energy-OPLS-2005>
-524.579772949219

> <r_mmod_Solvation_Energy-OPLS-2005>
-489.927642822266

> <b_mmod_Minimization_Converged-OPLS-2005>
0

> <r_mmod_RMS_Derivative-OPLS-2005>
2.18233585357666

$$$$
2
                    3D
 Structure written by MMmdl.
162170  0  0  1  0            999 V2000
  -30.6023  -14.7020   20.4553 C   0  0  0  0  0  0
  -30.4401  -12.4239   19.4769 C   0  0  0  0  0  0
  -29.5129  -12.4803   18.2417 C   0  0  0  0  0  0
  -28.0347  -12.3258   18.6539 C   0  0  0  0  0  0
  -27.6460  -13.2217   19.8631 C   0  0  2  0  0  0
  -28.6904  -13.1239   20.9951 C   0  0  0  0  0  0
  -25.2520  -13.8188   20.5741 C   0  0  0  0  0  0
  -24.1792  -13.0466   20.9224 C   0  0  0  0  0  0
  -24.6371  -11.6934   20.8765 C   0  0  0  0  0  0
  -23.9052  -10.4314   21.0421 C   0  0  0  0  0  0
  -24.3617   -9.4225   21.9193 C   0  0  0  0  0  0
  -23.6301   -8.2250   22.0764 C   0  0  0  0  0  0
  -22.4274   -8.0276   21.3551 C   0  0  0  0  0  0
  -21.9905   -9.0259   20.4631 C   0  0  0  0  0  0
  -22.7229  -10.2146   20.3055 C   0  0  0  0  0  0
  -21.6862   -6.0706   22.5272 C   0  0  0  0  0  0
  -21.4033   -6.5611   23.8205 C   0  0  0  0  0  0
  -21.3702   -5.6758   24.9157 C   0  0  0  0  0  0
  -21.6038   -4.3018   24.7194 C   0  0  0  0  0  0
  -21.8835   -3.8124   23.4315 C   0  0  0  0  0  0
  -21.9202   -4.6929   22.3383 C   0  0  0  0  0  0
  -22.7807  -13.5244   21.1872 C   0  0  0  0  0  0
  -22.1667   -4.2147   21.0948 F   0  0  0  0  0  0
  -21.5647   -3.4501   25.7706 F   0  0  0  0  0  0
  -29.9940  -13.4728   20.4171 N   0  0  0  0  0  0
  -26.2945  -12.9380   20.3357 N   0  0  0  0  0  0
  -25.9304  -11.6560   20.5774 N   0  0  0  0  0  0
  -22.0442  -12.8244   22.0412 N   0  0  0  0  0  0
  -25.4185  -15.1906   20.4132 N   0  0  0  0  0  0
  -31.7897  -14.8226   20.1434 O   0  0  0  0  0  0
  -21.6647   -6.8866   21.4234 O   0  0  0  0  0  0
  -22.3489  -14.5532   20.6657 O   0  0  0  0  0  0
  -24.6247  -31.8584   23.1984 C   0  0  0  0  0  0
  -25.9079  -32.4764   23.8333 C   0  0  1  0  0  0
  -27.2269  -27.2865   20.1433 C   0  0  0  0  0  0
  -25.5857  -33.8580   24.2240 N   0  0  0  0  0  0
  -23.4199  -30.4762   21.5444 C   0  0  2  0  0  0
  -24.8691  -28.9085   20.1300 C   0  0  0  0  0  0
  -22.7462  -29.4608   22.4975 C   0  0  0  0  0  0
  -18.0270  -28.1377   22.8507 C   0  0  0  0  0  0
  -24.1479  -36.7291   23.2643 C   0  0  0  0  0  0
  -25.9621  -30.7767   21.3766 C   0  0  0  0  0  0
  -26.0385  -29.3975   20.7257 C   0  0  0  0  0  0
  -27.2222  -28.5989   20.7162 C   0  0  0  0  0  0
  -26.0305  -26.8406   19.5478 C   0  0  0  0  0  0
  -24.8663  -27.6330   19.5402 C   0  0  0  0  0  0
  -23.6413  -29.7989   20.1655 C   0  0  0  0  0  0
  -25.4112  -36.3088   24.0332 C   0  0  1  0  0  0
  -20.5867  -28.3659   23.1316 C   0  0  2  0  0  0
  -20.6760  -26.9385   22.5426 C   0  0  0  0  0  0
  -19.5730  -26.6369   21.5240 C   0  0  0  0  0  0
  -18.1914  -26.7917   22.1654 C   0  0  0  0  0  0
  -19.1520  -28.8852   23.2896 C   0  0  0  0  0  0
  -18.9452  -30.1467   23.8893 C   0  0  0  0  0  0
  -17.6446  -30.6591   24.0568 C   0  0  0  0  0  0
  -25.9057  -34.9448   23.5099 C   0  0  0  0  0  0
  -16.5343  -29.9092   23.6320 C   0  0  0  0  0  0
  -16.7263  -28.6508   23.0363 C   0  0  0  0  0  0
  -26.4412  -31.6610   25.0745 C   0  0  0  0  0  0
  -25.3588  -31.3847   26.1437 C   0  0  0  0  0  0
  -27.0250  -30.3001   24.6272 C   0  0  0  0  0  0
  -27.5936  -32.4362   25.7554 C   0  0  0  0  0  0
  -27.5580  -37.1798   24.8451 C   0  0  0  0  0  0
  -21.4178  -29.2998   22.3698 N   0  0  0  0  0  0
  -26.4273  -37.3788   23.9403 N   0  0  0  0  0  0
  -24.6870  -31.0572   22.0941 N   0  0  0  0  0  0
  -23.4179  -28.8161   23.3085 O   0  0  0  0  0  0
  -28.3759  -26.4859   20.0625 O   0  0  0  0  0  0
  -26.5667  -34.8922   22.4695 O   0  0  0  0  0  0
  -23.5399  -32.1400   23.7292 O   0  0  0  0  0  0
  -31.1895  -22.3249   21.2798 C   0  0  0  0  0  0
  -31.7647  -21.4313   20.1631 C   0  0  0  0  0  0
  -29.8645  -21.7815   21.8533 C   0  0  0  0  0  0
  -31.1756  -20.0121   20.1872 C   0  0  0  0  0  0
  -28.9826  -21.2037   20.7280 C   0  0  1  0  0  0
  -28.6230  -22.3900   19.6733 C   0  0  0  0  0  0
  -27.8312  -23.7800   19.9889 C   0  0  0  0  0  0
  -30.1875  -17.2566   20.2637 C   0  0  0  0  0  0
  -29.2302  -18.5234   20.6359 C   0  0  0  0  0  0
  -28.4804  -25.1051   20.6216 C   0  0  0  0  0  0
  -29.8069  -15.8232   20.6081 N   0  0  0  0  0  0
  -29.6783  -19.9303   20.1569 N   0  3  2  0  0  0
  -31.4770  -12.5610   19.1644 H   0  0  0  0  0  0
  -30.3999  -11.4398   19.9503 H   0  0  0  0  0  0
  -29.7861  -11.6986   17.5266 H   0  0  0  0  0  0
  -29.6535  -13.4305   17.7213 H   0  0  0  0  0  0
  -27.8772  -11.2779   18.9068 H   0  0  0  0  0  0
  -27.3830  -12.5341   17.8043 H   0  0  0  0  0  0
  -27.6496  -14.2467   19.4940 H   0  0  0  0  0  0
  -28.7185  -12.1174   21.4084 H   0  0  0  0  0  0
  -28.4403  -13.7843   21.8278 H   0  0  0  0  0  0
  -25.2772   -9.5700   22.4739 H   0  0  0  0  0  0
  -24.0039   -7.4621   22.7467 H   0  0  0  0  0  0
  -21.0867   -8.8744   19.8899 H   0  0  0  0  0  0
  -22.3703  -10.9679   19.6142 H   0  0  0  0  0  0
  -21.2022   -7.6126   23.9716 H   0  0  0  0  0  0
  -21.1529   -6.0466   25.9065 H   0  0  0  0  0  0
  -22.0571   -2.7585   23.2784 H   0  0  0  0  0  0
  -22.4089  -11.9940   22.4875 H   0  0  0  0  0  0
  -21.1033  -13.1242   22.2575 H   0  0  0  0  0  0
  -24.6447  -15.8357   20.5244 H   0  0  0  0  0  0
  -26.2401  -15.6313   20.0277 H   0  0  0  0  0  0
  -26.7145  -32.5423   23.1094 H   0  0  0  0  0  0
  -24.9847  -33.9719   25.0263 H   0  0  0  0  0  0
  -22.7107  -31.2927   21.3938 H   0  0  0  0  0  0
  -23.3760  -35.9595   23.3268 H   0  0  0  0  0  0
  -24.3573  -36.8965   22.2059 H   0  0  0  0  0  0
  -23.7199  -37.6464   23.6705 H   0  0  0  0  0  0
  -26.0979  -31.5384   20.6083 H   0  0  0  0  0  0
  -26.8365  -30.8264   22.0130 H   0  0  0  0  0  0
  -28.1264  -28.9814   21.1679 H   0  0  0  0  0  0
  -25.9956  -25.8696   19.0786 H   0  0  0  0  0  0
  -23.9632  -27.2482   19.0910 H   0  0  0  0  0  0
  -23.7681  -30.5671   19.4031 H   0  0  0  0  0  0
  -22.7592  -29.2329   19.8643 H   0  0  0  0  0  0
  -25.1296  -36.1925   25.0824 H   0  0  0  0  0  0
  -20.9957  -28.3217   24.1444 H   0  0  0  0  0  0
  -20.5696  -26.2255   23.3613 H   0  0  0  0  0  0
  -21.6622  -26.7437   22.1194 H   0  0  0  0  0  0
  -19.6876  -25.6285   21.1267 H   0  0  0  0  0  0
  -19.6664  -27.3188   20.6777 H   0  0  0  0  0  0
  -17.4175  -26.6672   21.4060 H   0  0  0  0  0  0
  -18.0295  -26.0073   22.9059 H   0  0  0  0  0  0
  -19.7943  -30.7290   24.2239 H   0  0  0  0  0  0
  -17.5019  -31.6275   24.5158 H   0  0  0  0  0  0
  -15.5359  -30.3002   23.7663 H   0  0  0  0  0  0
  -15.8657  -28.0848   22.7066 H   0  0  0  0  0  0
  -24.5722  -30.7239   25.7766 H   0  0  0  0  0  0
  -24.8814  -32.3066   26.4769 H   0  0  0  0  0  0
  -25.7824  -30.9066   27.0274 H   0  0  0  0  0  0
  -26.2880  -29.6812   24.1124 H   0  0  0  0  0  0
  -27.3683  -29.7211   25.4859 H   0  0  0  0  0  0
  -27.8856  -30.4233   23.9695 H   0  0  0  0  0  0
  -27.2485  -33.3643   26.2125 H   0  0  0  0  0  0
  -28.3769  -32.6958   25.0427 H   0  0  0  0  0  0
  -28.0556  -31.8490   26.5497 H   0  0  0  0  0  0
  -28.2569  -38.0125   24.7543 H   0  0  0  0  0  0
  -28.1112  -36.2657   24.6224 H   0  0  0  0  0  0
  -27.2306  -37.1380   25.8856 H   0  0  0  0  0  0
  -20.9349  -29.8686   21.6879 H   0  0  0  0  0  0
  -26.0162  -38.2857   24.1429 H   0  0  0  0  0  0
  -31.0409  -23.3157   20.8541 H   0  0  0  0  0  0
  -31.9195  -22.4519   22.0795 H   0  0  0  0  0  0
  -32.8518  -21.3732   20.2697 H   0  0  0  0  0  0
  -31.5990  -21.8860   19.1853 H   0  0  0  0  0  0
  -29.3331  -22.5549   22.4121 H   0  0  0  0  0  0
  -30.0766  -20.9975   22.5847 H   0  0  0  0  0  0
  -31.5454  -19.5327   21.0953 H   0  0  0  0  0  0
  -31.5835  -19.4437   19.3502 H   0  0  0  0  0  0
  -28.0421  -20.8795   21.1726 H   0  0  0  0  0  0
  -27.9754  -21.8969   18.9482 H   0  0  0  0  0  0
  -29.5022  -22.6459   19.0835 H   0  0  0  0  0  0
  -26.9260  -23.5536   20.5551 H   0  0  0  0  0  0
  -27.4597  -24.1091   19.0177 H   0  0  0  0  0  0
  -31.1611  -17.4036   20.7342 H   0  0  0  0  0  0
  -30.3780  -17.2776   19.1880 H   0  0  0  0  0  0
  -28.2286  -18.3347   20.2425 H   0  0  0  0  0  0
  -29.1061  -18.5548   21.7208 H   0  0  0  0  0  0
  -29.5546  -24.9330   20.6446 H   0  0  0  0  0  0
  -28.1953  -25.1577   21.6718 H   0  0  0  0  0  0
  -28.8369  -15.6428   20.8111 H   0  0  0  0  0  0
  -29.4354  -19.9360   19.1774 H   0  0  0  0  0  0
  1 25  1  0  0  0
  1 30  2  0  0  0
  1 81  1  0  0  0
  2  3  1  0  0  0
  2 25  1  0  0  0
  2 83  1  0  0  0
  2 84  1  0  0  0
  3  4  1  0  0  0
  3 85  1  0  0  0
  3 86  1  0  0  0
  4  5  1  0  0  0
  4 87  1  0  0  0
  4 88  1  0  0  0
  5  6  1  0  0  0
  5 26  1  0  0  0
  5 89  1  0  0  0
  6 25  1  0  0  0
  6 90  1  0  0  0
  6 91  1  0  0  0
  7  8  2  0  0  0
  7 26  1  0  0  0
  7 29  1  0  0  0
  8  9  1  0  0  0
  8 22  1  0  0  0
  9 10  1  0  0  0
  9 27  2  0  0  0
 10 11  2  0  0  0
 10 15  1  0  0  0
 11 12  1  0  0  0
 11 92  1  0  0  0
 12 13  2  0  0  0
 12 93  1  0  0  0
 13 14  1  0  0  0
 13 31  1  0  0  0
 14 15  2  0  0  0
 14 94  1  0  0  0
 15 95  1  0  0  0
 16 17  2  0  0  0
 16 21  1  0  0  0
 16 31  1  0  0  0
 17 18  1  0  0  0
 17 96  1  0  0  0
 18 19  2  0  0  0
 18 97  1  0  0  0
 19 20  1  0  0  0
 19 24  1  0  0  0
 20 21  2  0  0  0
 20 98  1  0  0  0
 21 23  1  0  0  0
 22 28  1  0  0  0
 22 32  2  0  0  0
 26 27  1  0  0  0
 28 99  1  0  0  0
 28100  1  0  0  0
 29101  1  0  0  0
 29102  1  0  0  0
 33 34  1  0  0  0
 33 66  1  0  0  0
 33 70  2  0  0  0
 34 36  1  0  0  0
 34 59  1  0  0  0
 34103  1  0  0  0
 35 44  2  0  0  0
 35 45  1  0  0  0
 35 68  1  0  0  0
 36 56  1  0  0  0
 36104  1  0  0  0
 37 39  1  0  0  0
 37 47  1  0  0  0
 37 66  1  0  0  0
 37105  1  0  0  0
 38 43  2  0  0  0
 38 46  1  0  0  0
 38 47  1  0  0  0
 39 64  1  0  0  0
 39 67  2  0  0  0
 40 52  1  0  0  0
 40 53  2  0  0  0
 40 58  1  0  0  0
 41106  1  0  0  0
 41107  1  0  0  0
 41108  1  0  0  0
 41 48  1  0  0  0
 42 43  1  0  0  0
 42 66  1  0  0  0
 42109  1  0  0  0
 42110  1  0  0  0
 43 44  1  0  0  0
 44111  1  0  0  0
 45 46  2  0  0  0
 45112  1  0  0  0
 46113  1  0  0  0
 47114  1  0  0  0
 47115  1  0  0  0
 48 56  1  0  0  0
 48 65  1  0  0  0
 48116  1  0  0  0
 49 50  1  0  0  0
 49 53  1  0  0  0
 49 64  1  0  0  0
 49117  1  0  0  0
 50 51  1  0  0  0
 50118  1  0  0  0
 50119  1  0  0  0
 51 52  1  0  0  0
 51120  1  0  0  0
 51121  1  0  0  0
 52122  1  0  0  0
 52123  1  0  0  0
 53 54  1  0  0  0
 54 55  2  0  0  0
 54124  1  0  0  0
 55 57  1  0  0  0
 55125  1  0  0  0
 56 69  2  0  0  0
 57 58  2  0  0  0
 57126  1  0  0  0
 58127  1  0  0  0
 59 60  1  0  0  0
 59 61  1  0  0  0
 59 62  1  0  0  0
 60128  1  0  0  0
 60129  1  0  0  0
 60130  1  0  0  0
 61131  1  0  0  0
 61132  1  0  0  0
 61133  1  0  0  0
 62134  1  0  0  0
 62135  1  0  0  0
 62136  1  0  0  0
 63 65  1  0  0  0
 63137  1  0  0  0
 63138  1  0  0  0
 63139  1  0  0  0
 64140  1  0  0  0
 65141  1  0  0  0
 68 80  1  0  0  0
 71 72  1  0  0  0
 71 73  1  0  0  0
 71142  1  0  0  0
 71143  1  0  0  0
 72 74  1  0  0  0
 72144  1  0  0  0
 72145  1  0  0  0
 73 75  1  0  0  0
 73146  1  0  0  0
 73147  1  0  0  0
 74 82  1  0  0  0
 74148  1  0  0  0
 74149  1  0  0  0
 75 76  1  0  0  0
 75 82  1  0  0  0
 75150  1  0  0  0
 76 77  1  0  0  0
 76151  1  0  0  0
 76152  1  0  0  0
 77 80  1  0  0  0
 77153  1  0  0  0
 77154  1  0  0  0
 78 79  1  0  0  0
 78 81  1  0  0  0
 78155  1  0  0  0
 78156  1  0  0  0
 79157  1  0  0  0
 79158  1  0  0  0
 79 82  1  0  0  0
 80159  1  0  0  0
 80160  1  0  0  0
 81161  1  0  0  0
 82162  1  0  0  0
M  CHG  1  82   1
M  ISO  4   1 100  68 101  80 101  81 100
M  END
> <chiral flag>
0

> <version>
0

> <s_m_source_file>
/data/baiqing/PycharmProjects/Reinvent-master-3.2/result/LINK_invent/BTK/process_docking_weight1_custom_sum_contain_oxygen_bond_distance_aromatic_linkinvent_7_9_3/rearranged_h_0120.sdf

> <i_m_source_file_index>
3

> <r_mmod_Potential_Energy-OPLS-2005>
124.068740844727

> <r_mmod_Stretch_Energy-OPLS-2005>
124.776527404785

> <r_mmod_Bend_Energy-OPLS-2005>
204.589904785156

> <r_mmod_Torsional_Energy-OPLS-2005>
297.264892578125

> <r_mmod_Improper_Torsional_Energy-OPLS-2005>
6.24430322647095

> <r_mmod_Van_der_Waal_Energy-OPLS-2005>
130.169494628906

> <r_mmod_Electrostatic_Energy-OPLS-2005>
-249.14143371582

> <r_mmod_Solvation_Energy-OPLS-2005>
-454.044403076172

> <b_mmod_Minimization_Converged-OPLS-2005>
0

> <r_mmod_RMS_Derivative-OPLS-2005>
6.27330589294434

$$$$
3
                    3D
 Structure written by MMmdl.
170179  0  0  1  0            999 V2000
  -29.6157  -15.8397   21.0031 C   0  0  0  0  0  0
  -30.2738  -13.3701   19.8070 C   0  0  0  0  0  0
  -29.5480  -12.8243   18.5093 C   0  0  0  0  0  0
  -28.1291  -12.3296   18.8229 C   0  0  0  0  0  0
  -27.5152  -13.2785   19.8689 C   0  0  2  0  0  0
  -28.3694  -13.5093   21.1164 C   0  0  0  0  0  0
  -25.1814  -13.8172   20.5615 C   0  0  0  0  0  0
  -24.1273  -13.0334   20.9202 C   0  0  0  0  0  0
  -24.5985  -11.6830   20.8694 C   0  0  0  0  0  0
  -23.8807  -10.4200   21.0410 C   0  0  0  0  0  0
  -24.3478   -9.4191   21.9187 C   0  0  0  0  0  0
  -23.6235   -8.2196   22.0730 C   0  0  0  0  0  0
  -22.4222   -8.0210   21.3544 C   0  0  0  0  0  0
  -21.9794   -9.0120   20.4641 C   0  0  0  0  0  0
  -22.7013  -10.2033   20.3052 C   0  0  0  0  0  0
  -21.6837   -6.0676   22.5281 C   0  0  0  0  0  0
  -21.4004   -6.5607   23.8199 C   0  0  0  0  0  0
  -21.3659   -5.6777   24.9177 C   0  0  0  0  0  0
  -21.6042   -4.3035   24.7241 C   0  0  0  0  0  0
  -21.8814   -3.8109   23.4369 C   0  0  0  0  0  0
  -21.9188   -4.6910   22.3418 C   0  0  0  0  0  0
  -22.7396  -13.5150   21.1990 C   0  0  0  0  0  0
  -22.1654   -4.2096   21.0991 F   0  0  0  0  0  0
  -21.5640   -3.4532   25.7756 F   0  0  0  0  0  0
  -29.4347  -14.3882   20.6791 N   0  0  0  0  0  0
  -26.1975  -12.9320   20.2902 N   0  0  0  0  0  0
  -25.8823  -11.6442   20.5496 N   0  0  0  0  0  0
  -22.0155  -12.8105   22.0597 N   0  0  0  0  0  0
  -25.3700  -15.1912   20.4312 N   0  0  0  0  0  0
  -30.8286  -15.9647   20.6537 O   0  0  0  0  0  0
  -21.6610   -6.8805   21.4243 O   0  0  0  0  0  0
  -22.3099  -14.5474   20.6899 O   0  0  0  0  0  0
  -24.9602  -31.8518   23.2069 C   0  0  0  0  0  0
  -26.1303  -32.5442   23.8832 C   0  0  1  0  0  0
  -26.1472  -27.4150   20.2414 C   0  0  0  0  0  0
  -25.7259  -33.9057   24.2739 N   0  0  0  0  0  0
  -24.3337  -29.8169   21.7776 C   0  0  2  0  0  0
  -25.3695  -29.6555   19.4953 C   0  0  0  0  0  0
  -23.8756  -28.3514   22.6369 C   0  0  0  0  0  0
  -18.0658  -27.8336   22.6928 C   0  0  0  0  0  0
  -24.1526  -36.7370   23.2505 C   0  0  0  0  0  0
  -26.4492  -30.8758   21.4505 C   0  0  0  0  0  0
  -26.4796  -29.7696   20.3524 C   0  0  0  0  0  0
  -26.9844  -28.5044   20.6915 C   0  0  0  0  0  0
  -26.0556  -27.3937   18.8944 C   0  0  0  0  0  0
  -25.2884  -28.5312   18.5917 C   0  0  0  0  0  0
  -24.2151  -30.3382   20.1994 C   0  0  0  0  0  0
  -25.4174  -36.3419   24.0309 C   0  0  1  0  0  0
  -20.8209  -27.1281   22.8410 C   0  0  2  0  0  0
  -20.4749  -26.1200   21.8824 C   0  0  0  0  0  0
  -19.3548  -26.5659   21.0146 C   0  0  0  0  0  0
  -18.0327  -26.6855   21.7586 C   0  0  0  0  0  0
  -19.3109  -28.0841   23.3304 C   0  0  0  0  0  0
  -19.0144  -29.1845   24.3054 C   0  0  0  0  0  0
  -17.8932  -30.0819   24.3066 C   0  0  0  0  0  0
  -25.9331  -34.9830   23.5130 C   0  0  0  0  0  0
  -16.7582  -29.7451   23.5805 C   0  0  0  0  0  0
  -16.8450  -28.5600   22.8384 C   0  0  0  0  0  0
  -26.5292  -31.6909   25.1318 C   0  0  0  0  0  0
  -25.3661  -31.4059   26.1208 C   0  0  0  0  0  0
  -27.1271  -30.3277   24.7070 C   0  0  0  0  0  0
  -27.6587  -32.4262   25.8732 C   0  0  0  0  0  0
  -27.5673  -37.2031   24.8495 C   0  0  0  0  0  0
  -22.6096  -27.3283   22.4520 N   0  0  0  0  0  0
  -26.4390  -37.4109   23.9467 N   0  0  0  0  0  0
  -25.2265  -30.8493   22.3097 N   0  0  0  0  0  0
  -24.5207  -28.3677   23.6586 O   0  0  0  0  0  0
  -24.6964  -27.3065   20.5184 O   0  0  0  0  0  0
  -26.5349  -34.9312   22.4400 O   0  0  0  0  0  0
  -23.8827  -32.2367   23.6378 O   0  0  0  0  0  0
  -22.2726  -30.1418   23.9450 C   0  0  0  0  0  0
  -21.4202  -29.4948   22.9604 C   0  0  0  0  0  0
  -22.0974  -30.5979   22.4831 C   0  0  0  0  0  0
  -21.8389  -29.4358   21.5178 C   0  0  0  0  0  0
  -22.4494  -23.9651   25.1288 C   0  0  0  0  0  0
  -22.2001  -25.5758   25.4926 C   0  0  0  0  0  0
  -23.1860  -23.2170   23.8800 C   0  0  0  0  0  0
  -24.3279  -25.4432   24.0024 C   0  0  0  0  0  0
  -22.9524  -26.8374   24.7991 C   0  0  1  0  0  0
  -24.7511  -23.4198   23.8331 C   0  0  2  0  0  0
  -21.9366  -32.0195   21.8946 C   0  0  0  0  0  0
  -23.0021  -28.1725   20.2354 C   0  0  0  0  0  0
  -27.9005  -18.8773   21.9177 C   0  0  0  0  0  0
  -26.5086  -20.2562   22.8719 C   0  0  0  0  0  0
  -22.0048  -28.7089   24.3060 N   0  0  0  0  0  0
  -28.5999  -17.0620   21.5719 N   0  0  0  0  0  0
  -25.9317  -22.1103   22.9951 N   0  3  0  0  0  0
  -31.2013  -13.8408   19.4852 H   0  0  0  0  0  0
  -30.5936  -12.5286   20.4263 H   0  0  0  0  0  0
  -30.1250  -12.0292   18.0348 H   0  0  0  0  0  0
  -29.4757  -13.6365   17.7820 H   0  0  0  0  0  0
  -28.1756  -11.3208   19.2181 H   0  0  0  0  0  0
  -27.5135  -12.2832   17.9177 H   0  0  0  0  0  0
  -27.4241  -14.2236   19.3374 H   0  0  0  0  0  0
  -28.7050  -12.5748   21.5686 H   0  0  0  0  0  0
  -27.7964  -14.0158   21.8966 H   0  0  0  0  0  0
  -25.2632   -9.5706   22.4741 H   0  0  0  0  0  0
  -23.9975   -7.4568   22.7436 H   0  0  0  0  0  0
  -21.0716   -8.8572   19.8949 H   0  0  0  0  0  0
  -22.3436  -10.9556   19.6154 H   0  0  0  0  0  0
  -21.1989   -7.6113   23.9690 H   0  0  0  0  0  0
  -21.1500   -6.0516   25.9079 H   0  0  0  0  0  0
  -22.0608   -2.7572   23.2874 H   0  0  0  0  0  0
  -22.3843  -11.9739   22.4876 H   0  0  0  0  0  0
  -21.0818  -13.1125   22.2979 H   0  0  0  0  0  0
  -24.6302  -15.8706   20.5877 H   0  0  0  0  0  0
  -26.2528  -15.6193   20.1784 H   0  0  0  0  0  0
  -26.9960  -32.6273   23.2354 H   0  0  0  0  0  0
  -25.2100  -33.9939   25.1331 H   0  0  0  0  0  0
  -25.0182  -29.0275   21.7802 H   0  0  0  0  0  0
  -23.4029  -35.9476   23.3140 H   0  0  0  0  0  0
  -24.3646  -36.8898   22.1938 H   0  0  0  0  0  0
  -23.7063  -37.6491   23.6424 H   0  0  0  0  0  0
  -26.5133  -31.8505   20.9466 H   0  0  0  0  0  0
  -27.3712  -30.7824   22.0291 H   0  0  0  0  0  0
  -27.4533  -28.4569   21.6623 H   0  0  0  0  0  0
  -25.8159  -26.4730   18.3713 H   0  0  0  0  0  0
  -24.5456  -28.4087   17.8193 H   0  0  0  0  0  0
  -24.4842  -31.3889   20.1054 H   0  0  0  0  0  0
  -23.2730  -30.4384   19.6595 H   0  0  0  0  0  0
  -25.1355  -36.2336   25.0805 H   0  0  0  0  0  0
  -20.8287  -26.5040   23.7178 H   0  0  0  0  0  0
  -20.1942  -25.1866   22.3612 H   0  0  0  0  0  0
  -21.3150  -25.8431   21.2400 H   0  0  0  0  0  0
  -19.2380  -25.8629   20.1994 H   0  0  0  0  0  0
  -19.6320  -27.5171   20.5554 H   0  0  0  0  0  0
  -17.2673  -26.8869   21.0050 H   0  0  0  0  0  0
  -17.7262  -25.7806   22.2881 H   0  0  0  0  0  0
  -19.7591  -29.4682   25.0263 H   0  0  0  0  0  0
  -17.8867  -30.9551   24.9582 H   0  0  0  0  0  0
  -15.8480  -30.3236   23.6242 H   0  0  0  0  0  0
  -15.9685  -28.2336   22.3024 H   0  0  0  0  0  0
  -24.5977  -30.7797   25.6706 H   0  0  0  0  0  0
  -24.8855  -32.3235   26.4510 H   0  0  0  0  0  0
  -25.7070  -30.8835   27.0114 H   0  0  0  0  0  0
  -26.4345  -29.6887   24.1708 H   0  0  0  0  0  0
  -27.4272  -29.7641   25.5891 H   0  0  0  0  0  0
  -28.0205  -30.4571   24.0965 H   0  0  0  0  0  0
  -27.3383  -33.3621   26.3302 H   0  0  0  0  0  0
  -28.4906  -32.6510   25.2068 H   0  0  0  0  0  0
  -28.0708  -31.8147   26.6737 H   0  0  0  0  0  0
  -28.2763  -38.0286   24.7737 H   0  0  0  0  0  0
  -28.1132  -36.2879   24.6181 H   0  0  0  0  0  0
  -27.2374  -37.1537   25.8875 H   0  0  0  0  0  0
  -23.0043  -26.3971   22.4847 H   0  0  0  0  0  0
  -26.0281  -38.3191   24.1445 H   0  0  0  0  0  0
  -22.5108  -30.7495   24.8154 H   0  0  0  0  0  0
  -20.3599  -29.9623   22.9234 H   0  0  0  0  0  0
  -21.4999  -23.4580   25.2619 H   0  0  0  0  0  0
  -23.0213  -23.6173   25.9934 H   0  0  0  0  0  0
  -22.6748  -25.5761   26.4887 H   0  0  0  0  0  0
  -21.1672  -25.7547   25.7933 H   0  0  0  0  0  0
  -22.7436  -23.5719   22.9467 H   0  0  0  0  0  0
  -22.9701  -22.1375   23.8901 H   0  0  0  0  0  0
  -25.1362  -25.6827   24.6985 H   0  0  0  0  0  0
  -24.6792  -25.8583   23.0564 H   0  0  0  0  0  0
  -23.5325  -27.2417   25.6318 H   0  0  0  0  0  0
  -25.0713  -23.1909   24.8478 H   0  0  0  0  0  0
  -21.7435  -32.7699   22.6628 H   0  0  0  0  0  0
  -21.0508  -32.0609   21.2580 H   0  0  0  0  0  0
  -22.8084  -32.3133   21.3009 H   0  0  0  0  0  0
  -22.8880  -28.4831   19.1993 H   0  0  0  0  0  0
  -22.3505  -27.3121   20.1013 H   0  0  0  0  0  0
  -28.8362  -19.3065   22.2775 H   0  0  0  0  0  0
  -27.8341  -19.2070   20.8833 H   0  0  0  0  0  0
  -26.8021  -20.1189   23.9126 H   0  0  0  0  0  0
  -25.5595  -19.7113   22.8461 H   0  0  0  0  0  0
  -29.5080  -17.5056   21.6470 H   0  0  0  0  0  0
  -26.7943  -22.5101   23.3286 H   0  0  0  0  0  0
  -25.8788  -22.3509   22.0206 H   0  0  0  0  0  0
  1 25  1  0  0  0
  1 30  2  0  0  0
  1 86  1  0  0  0
  2  3  1  0  0  0
  2 25  1  0  0  0
  2 88  1  0  0  0
  2 89  1  0  0  0
  3  4  1  0  0  0
  3 90  1  0  0  0
  3 91  1  0  0  0
  4  5  1  0  0  0
  4 92  1  0  0  0
  4 93  1  0  0  0
  5  6  1  0  0  0
  5 26  1  0  0  0
  5 94  1  0  0  0
  6 25  1  0  0  0
  6 95  1  0  0  0
  6 96  1  0  0  0
  7  8  2  0  0  0
  7 26  1  0  0  0
  7 29  1  0  0  0
  8  9  1  0  0  0
  8 22  1  0  0  0
  9 10  1  0  0  0
  9 27  2  0  0  0
 10 11  2  0  0  0
 10 15  1  0  0  0
 11 12  1  0  0  0
 11 97  1  0  0  0
 12 13  2  0  0  0
 12 98  1  0  0  0
 13 14  1  0  0  0
 13 31  1  0  0  0
 14 15  2  0  0  0
 14 99  1  0  0  0
 15100  1  0  0  0
 16 17  2  0  0  0
 16 21  1  0  0  0
 16 31  1  0  0  0
 17 18  1  0  0  0
 17101  1  0  0  0
 18 19  2  0  0  0
 18102  1  0  0  0
 19 20  1  0  0  0
 19 24  1  0  0  0
 20 21  2  0  0  0
 20103  1  0  0  0
 21 23  1  0  0  0
 22 28  1  0  0  0
 22 32  2  0  0  0
 26 27  1  0  0  0
 28104  1  0  0  0
 28105  1  0  0  0
 29106  1  0  0  0
 29107  1  0  0  0
 33 34  1  0  0  0
 33 66  1  0  0  0
 33 70  2  0  0  0
 34 36  1  0  0  0
 34 59  1  0  0  0
 34108  1  0  0  0
 35 44  2  0  0  0
 35 45  1  0  0  0
 35 68  1  0  0  0
 36 56  1  0  0  0
 36109  1  0  0  0
 37 39  1  0  0  0
 37 47  1  0  0  0
 37 66  1  0  0  0
 37110  1  0  0  0
 38 43  2  0  0  0
 38 46  1  0  0  0
 38 47  1  0  0  0
 39 64  1  0  0  0
 39 67  2  0  0  0
 40 52  1  0  0  0
 40 53  2  0  0  0
 40 58  1  0  0  0
 41111  1  0  0  0
 41112  1  0  0  0
 41113  1  0  0  0
 41 48  1  0  0  0
 42 43  1  0  0  0
 42 66  1  0  0  0
 42114  1  0  0  0
 42115  1  0  0  0
 43 44  1  0  0  0
 44116  1  0  0  0
 45 46  2  0  0  0
 45117  1  0  0  0
 46118  1  0  0  0
 47119  1  0  0  0
 47120  1  0  0  0
 48 56  1  0  0  0
 48 65  1  0  0  0
 48121  1  0  0  0
 49 50  1  0  0  0
 49 53  1  0  0  0
 49 64  1  0  0  0
 49122  1  0  0  0
 50 51  1  0  0  0
 50123  1  0  0  0
 50124  1  0  0  0
 51 52  1  0  0  0
 51125  1  0  0  0
 51126  1  0  0  0
 52127  1  0  0  0
 52128  1  0  0  0
 53 54  1  0  0  0
 54 55  2  0  0  0
 54129  1  0  0  0
 55 57  1  0  0  0
 55130  1  0  0  0
 56 69  2  0  0  0
 57 58  2  0  0  0
 57131  1  0  0  0
 58132  1  0  0  0
 59 60  1  0  0  0
 59 61  1  0  0  0
 59 62  1  0  0  0
 60133  1  0  0  0
 60134  1  0  0  0
 60135  1  0  0  0
 61136  1  0  0  0
 61137  1  0  0  0
 61138  1  0  0  0
 62139  1  0  0  0
 62140  1  0  0  0
 62141  1  0  0  0
 63 65  1  0  0  0
 63142  1  0  0  0
 63143  1  0  0  0
 63144  1  0  0  0
 64145  1  0  0  0
 65146  1  0  0  0
 68 82  1  0  0  0
 71 73  2  0  0  0
 71 85  1  0  0  0
 71147  1  0  0  0
 72 74  2  0  0  0
 72 85  1  0  0  0
 72148  1  0  0  0
 73 74  1  0  0  0
 73 81  1  0  0  0
 74 82  1  0  0  0
 75 76  1  0  0  0
 75 77  1  0  0  0
 75149  1  0  0  0
 75150  1  0  0  0
 76 79  1  0  0  0
 76151  1  0  0  0
 76152  1  0  0  0
 77 80  1  0  0  0
 77153  1  0  0  0
 77154  1  0  0  0
 78 79  1  0  0  0
 78 80  1  0  0  0
 78155  1  0  0  0
 78156  1  0  0  0
 79 85  1  0  0  0
 79157  1  0  0  0
 80 87  1  0  0  0
 80158  1  0  0  0
 81159  1  0  0  0
 81160  1  0  0  0
 81161  1  0  0  0
 82162  1  0  0  0
 82163  1  0  0  0
 83 84  1  0  0  0
 83 86  1  0  0  0
 83164  1  0  0  0
 83165  1  0  0  0
 84 87  1  0  0  0
 84166  1  0  0  0
 84167  1  0  0  0
 86168  1  0  0  0
 87169  1  0  0  0
 87170  1  0  0  0
M  CHG  1  87   1
M  ISO  4   1 100  68 101  82 101  86 100
M  END
> <chiral flag>
0

> <version>
0

> <s_m_source_file>
/data/baiqing/PycharmProjects/Reinvent-master-3.2/result/LINK_invent/BTK/process_docking_weight1_custom_sum_contain_oxygen_bond_distance_aromatic_linkinvent_7_9_3/rearranged_h_0120.sdf

> <i_m_source_file_index>
4

> <r_mmod_Potential_Energy-OPLS-2005>
15393.1796875

> <r_mmod_Stretch_Energy-OPLS-2005>
5270.67822265625

> <r_mmod_Bend_Energy-OPLS-2005>
2876.30395507812

> <r_mmod_Torsional_Energy-OPLS-2005>
1053.57873535156

> <r_mmod_Improper_Torsional_Energy-OPLS-2005>
141.940704345703

> <r_mmod_Van_der_Waal_Energy-OPLS-2005>
1948.13635253906

> <r_mmod_Electrostatic_Energy-OPLS-2005>
-292.772827148438

> <r_mmod_Solvation_Energy-OPLS-2005>
-470.759521484375

> <b_mmod_Minimization_Converged-OPLS-2005>
0

> <r_mmod_RMS_Derivative-OPLS-2005>
27.4347171783447

$$$$
4
                    3D
 Structure written by MMmdl.
165174  0  0  1  0            999 V2000
  -30.6526  -14.5733   20.4977 C   0  0  0  0  0  0
  -30.4259  -12.3492   19.4406 C   0  0  0  0  0  0
  -29.5001  -12.4955   18.2135 C   0  0  0  0  0  0
  -28.0206  -12.3505   18.6249 C   0  0  0  0  0  0
  -27.6512  -13.2123   19.8626 C   0  0  2  0  0  0
  -28.6962  -13.0559   20.9904 C   0  0  0  0  0  0
  -25.2559  -13.8159   20.5681 C   0  0  0  0  0  0
  -24.1823  -13.0433   20.9192 C   0  0  0  0  0  0
  -24.6391  -11.6900   20.8742 C   0  0  0  0  0  0
  -23.9072  -10.4282   21.0398 C   0  0  0  0  0  0
  -24.3627   -9.4200   21.9173 C   0  0  0  0  0  0
  -23.6303   -8.2235   22.0746 C   0  0  0  0  0  0
  -22.4279   -8.0274   21.3540 C   0  0  0  0  0  0
  -21.9919   -9.0243   20.4643 C   0  0  0  0  0  0
  -22.7248  -10.2122   20.3045 C   0  0  0  0  0  0
  -21.6850   -6.0731   22.5280 C   0  0  0  0  0  0
  -21.4000   -6.5637   23.8210 C   0  0  0  0  0  0
  -21.3662   -5.6794   24.9177 C   0  0  0  0  0  0
  -21.6050   -4.3055   24.7225 C   0  0  0  0  0  0
  -21.8818   -3.8142   23.4349 C   0  0  0  0  0  0
  -21.9188   -4.6957   22.3404 C   0  0  0  0  0  0
  -22.7847  -13.5227   21.1854 C   0  0  0  0  0  0
  -22.1661   -4.2141   21.0984 F   0  0  0  0  0  0
  -21.5643   -3.4546   25.7740 F   0  0  0  0  0  0
  -30.0136  -13.3689   20.4209 N   0  0  0  0  0  0
  -26.2976  -12.9336   20.3318 N   0  0  0  0  0  0
  -25.9312  -11.6496   20.5746 N   0  0  0  0  0  0
  -22.0496  -12.8209   22.0410 N   0  0  0  0  0  0
  -25.4299  -15.1880   20.4098 N   0  0  0  0  0  0
  -31.8284  -14.7077   20.1434 O   0  0  0  0  0  0
  -21.6643   -6.8873   21.4241 O   0  0  0  0  0  0
  -22.3538  -14.5534   20.6705 O   0  0  0  0  0  0
  -24.6195  -31.8638   23.2062 C   0  0  0  0  0  0
  -25.9071  -32.4808   23.8369 C   0  0  1  0  0  0
  -27.2366  -27.3771   20.1027 C   0  0  0  0  0  0
  -25.5915  -33.8607   24.2297 N   0  0  0  0  0  0
  -23.4104  -30.4855   21.5476 C   0  0  2  0  0  0
  -24.8591  -28.9460   20.1134 C   0  0  0  0  0  0
  -22.7439  -29.4625   22.4965 C   0  0  0  0  0  0
  -18.0272  -28.1377   22.8498 C   0  0  0  0  0  0
  -24.1490  -36.7295   23.2638 C   0  0  0  0  0  0
  -25.9453  -30.8121   21.3676 C   0  0  0  0  0  0
  -26.0214  -29.4415   20.7148 C   0  0  0  0  0  0
  -27.2081  -28.6629   20.7101 C   0  0  0  0  0  0
  -26.0428  -26.9059   19.5065 C   0  0  0  0  0  0
  -24.8675  -27.6795   19.5072 C   0  0  0  0  0  0
  -23.6241  -29.8188   20.1620 C   0  0  0  0  0  0
  -25.4117  -36.3099   24.0332 C   0  0  1  0  0  0
  -20.5867  -28.3659   23.1317 C   0  0  2  0  0  0
  -20.6762  -26.9392   22.5419 C   0  0  0  0  0  0
  -19.5742  -26.6381   21.5217 C   0  0  0  0  0  0
  -18.1921  -26.7926   22.1626 C   0  0  0  0  0  0
  -19.1523  -28.8833   23.2904 C   0  0  0  0  0  0
  -18.9450  -30.1440   23.8910 C   0  0  0  0  0  0
  -17.6452  -30.6584   24.0556 C   0  0  0  0  0  0
  -25.9047  -34.9470   23.5112 C   0  0  0  0  0  0
  -16.5342  -29.9082   23.6333 C   0  0  0  0  0  0
  -16.7258  -28.6500   23.0358 C   0  0  0  0  0  0
  -26.4486  -31.6604   25.0714 C   0  0  0  0  0  0
  -25.3746  -31.3712   26.1453 C   0  0  0  0  0  0
  -27.0305  -30.3043   24.6106 C   0  0  0  0  0  0
  -27.6077  -32.4311   25.7471 C   0  0  0  0  0  0
  -27.5584  -37.1803   24.8463 C   0  0  0  0  0  0
  -21.4154  -29.3022   22.3720 N   0  0  0  0  0  0
  -26.4294  -37.3793   23.9412 N   0  0  0  0  0  0
  -24.6770  -31.0694   22.0987 N   0  0  0  0  0  0
  -23.4194  -28.8171   23.3030 O   0  0  0  0  0  0
  -28.3974  -26.6096   20.1611 O   0  0  0  0  0  0
  -26.5604  -34.8928   22.4669 O   0  0  0  0  0  0
  -23.5380  -32.1399   23.7434 O   0  0  0  0  0  0
  -29.3216  -22.2845   21.3915 C   0  0  0  0  0  0
  -28.9209  -23.6208   21.1088 C   0  0  0  0  0  0
  -29.6902  -21.3909   20.3527 C   0  0  0  0  0  0
  -28.8752  -24.0564   19.7584 C   0  0  0  0  0  0
  -29.5519  -21.9042   19.0384 C   0  0  0  0  0  0
  -29.3837  -16.3930   21.6962 C   0  0  0  0  0  0
  -29.6669  -16.4931   19.2816 C   0  0  0  0  0  0
  -29.9360  -17.8559   21.8034 C   0  0  0  0  0  0
  -30.2785  -17.9146   19.4002 C   0  0  0  0  0  0
  -28.6074  -24.5580   22.2629 C   0  0  0  0  0  0
  -29.8822  -21.0879   17.8042 C   0  0  0  0  0  0
  -30.4380  -20.0564   20.6985 C   0  0  0  0  0  0
  -28.6180  -25.5080   19.2375 C   0  0  0  0  0  0
  -29.1532  -23.1729   18.7691 N   0  0  0  0  0  0
  -29.8308  -15.6687   20.4931 N   0  0  0  0  0  0
  -29.7768  -18.6961   20.5704 N   0  3  0  0  0  0
  -31.4698  -12.4579   19.1396 H   0  0  0  0  0  0
  -30.3389  -11.3503   19.8709 H   0  0  0  0  0  0
  -29.7521  -11.7491   17.4591 H   0  0  0  0  0  0
  -29.6575  -13.4675   17.7427 H   0  0  0  0  0  0
  -27.8428  -11.2974   18.8435 H   0  0  0  0  0  0
  -27.3694  -12.5978   17.7849 H   0  0  0  0  0  0
  -27.6689  -14.2495   19.5305 H   0  0  0  0  0  0
  -28.6912  -12.0382   21.3826 H   0  0  0  0  0  0
  -28.4582  -13.7084   21.8321 H   0  0  0  0  0  0
  -25.2771   -9.5675   22.4754 H   0  0  0  0  0  0
  -24.0016   -7.4619   22.7454 H   0  0  0  0  0  0
  -21.0848   -8.8757   19.8950 H   0  0  0  0  0  0
  -22.3704  -10.9657   19.6153 H   0  0  0  0  0  0
  -21.1977   -7.6142   23.9712 H   0  0  0  0  0  0
  -21.1498   -6.0524   25.9084 H   0  0  0  0  0  0
  -22.0598   -2.7603   23.2847 H   0  0  0  0  0  0
  -22.4127  -11.9879   22.4791 H   0  0  0  0  0  0
  -21.1106  -13.1210   22.2599 H   0  0  0  0  0  0
  -24.6645  -15.8452   20.5152 H   0  0  0  0  0  0
  -26.2847  -15.6220   20.0878 H   0  0  0  0  0  0
  -26.7137  -32.5505   23.1123 H   0  0  0  0  0  0
  -25.0084  -33.9767   25.0456 H   0  0  0  0  0  0
  -22.7008  -31.3032   21.4043 H   0  0  0  0  0  0
  -23.3775  -35.9601   23.3279 H   0  0  0  0  0  0
  -24.3596  -36.8935   22.2058 H   0  0  0  0  0  0
  -23.7213  -37.6480   23.6668 H   0  0  0  0  0  0
  -26.0642  -31.5758   20.5977 H   0  0  0  0  0  0
  -26.8313  -30.8654   21.9886 H   0  0  0  0  0  0
  -28.1033  -29.0409   21.1848 H   0  0  0  0  0  0
  -25.9781  -25.9242   19.0635 H   0  0  0  0  0  0
  -23.9706  -27.2855   19.0491 H   0  0  0  0  0  0
  -23.7380  -30.5926   19.4017 H   0  0  0  0  0  0
  -22.7479  -29.2409   19.8634 H   0  0  0  0  0  0
  -25.1299  -36.1949   25.0825 H   0  0  0  0  0  0
  -20.9953  -28.3211   24.1438 H   0  0  0  0  0  0
  -20.5669  -26.2252   23.3596 H   0  0  0  0  0  0
  -21.6630  -26.7435   22.1198 H   0  0  0  0  0  0
  -19.6896  -25.6295   21.1239 H   0  0  0  0  0  0
  -19.6698  -27.3192   20.6752 H   0  0  0  0  0  0
  -17.4193  -26.6667   21.4033 H   0  0  0  0  0  0
  -18.0326  -26.0060   22.9015 H   0  0  0  0  0  0
  -19.7924  -30.7253   24.2286 H   0  0  0  0  0  0
  -17.5008  -31.6272   24.5138 H   0  0  0  0  0  0
  -15.5347  -30.2986   23.7659 H   0  0  0  0  0  0
  -15.8653  -28.0824   22.7074 H   0  0  0  0  0  0
  -24.5909  -30.7082   25.7772 H   0  0  0  0  0  0
  -24.8947  -32.2864   26.4938 H   0  0  0  0  0  0
  -25.8088  -30.8841   27.0192 H   0  0  0  0  0  0
  -26.2828  -29.6814   24.1183 H   0  0  0  0  0  0
  -27.4085  -29.7293   25.4569 H   0  0  0  0  0  0
  -27.8669  -30.4362   23.9238 H   0  0  0  0  0  0
  -27.2738  -33.3639   26.2030 H   0  0  0  0  0  0
  -28.3902  -32.6821   25.0297 H   0  0  0  0  0  0
  -28.0713  -31.8426   26.5399 H   0  0  0  0  0  0
  -28.2592  -38.0113   24.7541 H   0  0  0  0  0  0
  -28.1090  -36.2651   24.6250 H   0  0  0  0  0  0
  -27.2300  -37.1387   25.8863 H   0  0  0  0  0  0
  -20.9308  -29.8756   21.6952 H   0  0  0  0  0  0
  -26.0178  -38.2861   24.1448 H   0  0  0  0  0  0
  -29.4185  -21.9680   22.4205 H   0  0  0  0  0  0
  -28.2927  -16.4184   21.6879 H   0  0  0  0  0  0
  -29.6600  -15.8379   22.5951 H   0  0  0  0  0  0
  -30.1036  -15.9930   18.4147 H   0  0  0  0  0  0
  -28.6012  -16.5716   19.0635 H   0  0  0  0  0  0
  -30.9984  -17.8018   22.0504 H   0  0  0  0  0  0
  -29.4578  -18.3598   22.6444 H   0  0  0  0  0  0
  -30.0815  -18.4534   18.4778 H   0  0  0  0  0  0
  -31.3635  -17.8200   19.4700 H   0  0  0  0  0  0
  -28.6698  -24.0414   23.2218 H   0  0  0  0  0  0
  -27.5999  -24.9659   22.1689 H   0  0  0  0  0  0
  -29.3165  -25.3868   22.2873 H   0  0  0  0  0  0
  -29.1386  -20.3030   17.6712 H   0  0  0  0  0  0
  -30.8739  -20.6430   17.8727 H   0  0  0  0  0  0
  -29.8653  -21.7018   16.9028 H   0  0  0  0  0  0
  -30.7767  -20.1695   21.7295 H   0  0  0  0  0  0
  -31.3733  -20.0542   20.1379 H   0  0  0  0  0  0
  -27.8998  -25.4726   18.4215 H   0  0  0  0  0  0
  -29.5448  -25.7838   18.7336 H   0  0  0  0  0  0
  -28.7877  -18.8530   20.4479 H   0  0  0  0  0  0
  1 25  1  0  0  0
  1 30  2  0  0  0
  1 85  1  0  0  0
  2  3  1  0  0  0
  2 25  1  0  0  0
  2 87  1  0  0  0
  2 88  1  0  0  0
  3  4  1  0  0  0
  3 89  1  0  0  0
  3 90  1  0  0  0
  4  5  1  0  0  0
  4 91  1  0  0  0
  4 92  1  0  0  0
  5  6  1  0  0  0
  5 26  1  0  0  0
  5 93  1  0  0  0
  6 25  1  0  0  0
  6 94  1  0  0  0
  6 95  1  0  0  0
  7  8  2  0  0  0
  7 26  1  0  0  0
  7 29  1  0  0  0
  8  9  1  0  0  0
  8 22  1  0  0  0
  9 10  1  0  0  0
  9 27  2  0  0  0
 10 11  2  0  0  0
 10 15  1  0  0  0
 11 12  1  0  0  0
 11 96  1  0  0  0
 12 13  2  0  0  0
 12 97  1  0  0  0
 13 14  1  0  0  0
 13 31  1  0  0  0
 14 15  2  0  0  0
 14 98  1  0  0  0
 15 99  1  0  0  0
 16 17  2  0  0  0
 16 21  1  0  0  0
 16 31  1  0  0  0
 17 18  1  0  0  0
 17100  1  0  0  0
 18 19  2  0  0  0
 18101  1  0  0  0
 19 20  1  0  0  0
 19 24  1  0  0  0
 20 21  2  0  0  0
 20102  1  0  0  0
 21 23  1  0  0  0
 22 28  1  0  0  0
 22 32  2  0  0  0
 26 27  1  0  0  0
 28103  1  0  0  0
 28104  1  0  0  0
 29105  1  0  0  0
 29106  1  0  0  0
 33 34  1  0  0  0
 33 66  1  0  0  0
 33 70  2  0  0  0
 34 36  1  0  0  0
 34 59  1  0  0  0
 34107  1  0  0  0
 35 44  2  0  0  0
 35 45  1  0  0  0
 35 68  1  0  0  0
 36 56  1  0  0  0
 36108  1  0  0  0
 37 39  1  0  0  0
 37 47  1  0  0  0
 37 66  1  0  0  0
 37109  1  0  0  0
 38 43  2  0  0  0
 38 46  1  0  0  0
 38 47  1  0  0  0
 39 64  1  0  0  0
 39 67  2  0  0  0
 40 52  1  0  0  0
 40 53  2  0  0  0
 40 58  1  0  0  0
 41110  1  0  0  0
 41111  1  0  0  0
 41112  1  0  0  0
 41 48  1  0  0  0
 42 43  1  0  0  0
 42 66  1  0  0  0
 42113  1  0  0  0
 42114  1  0  0  0
 43 44  1  0  0  0
 44115  1  0  0  0
 45 46  2  0  0  0
 45116  1  0  0  0
 46117  1  0  0  0
 47118  1  0  0  0
 47119  1  0  0  0
 48 56  1  0  0  0
 48 65  1  0  0  0
 48120  1  0  0  0
 49 50  1  0  0  0
 49 53  1  0  0  0
 49 64  1  0  0  0
 49121  1  0  0  0
 50 51  1  0  0  0
 50122  1  0  0  0
 50123  1  0  0  0
 51 52  1  0  0  0
 51124  1  0  0  0
 51125  1  0  0  0
 52126  1  0  0  0
 52127  1  0  0  0
 53 54  1  0  0  0
 54 55  2  0  0  0
 54128  1  0  0  0
 55 57  1  0  0  0
 55129  1  0  0  0
 56 69  2  0  0  0
 57 58  2  0  0  0
 57130  1  0  0  0
 58131  1  0  0  0
 59 60  1  0  0  0
 59 61  1  0  0  0
 59 62  1  0  0  0
 60132  1  0  0  0
 60133  1  0  0  0
 60134  1  0  0  0
 61135  1  0  0  0
 61136  1  0  0  0
 61137  1  0  0  0
 62138  1  0  0  0
 62139  1  0  0  0
 62140  1  0  0  0
 63 65  1  0  0  0
 63141  1  0  0  0
 63142  1  0  0  0
 63143  1  0  0  0
 64144  1  0  0  0
 65145  1  0  0  0
 68 83  1  0  0  0
 71 72  2  0  0  0
 71 73  1  0  0  0
 71146  1  0  0  0
 72 74  1  0  0  0
 72 80  1  0  0  0
 73 75  2  0  0  0
 73 82  1  0  0  0
 74 83  1  0  0  0
 74 84  2  0  0  0
 75 81  1  0  0  0
 75 84  1  0  0  0
 76 78  1  0  0  0
 76 85  1  0  0  0
 76147  1  0  0  0
 76148  1  0  0  0
 77 79  1  0  0  0
 77 85  1  0  0  0
 77149  1  0  0  0
 77150  1  0  0  0
 78 86  1  0  0  0
 78151  1  0  0  0
 78152  1  0  0  0
 79 86  1  0  0  0
 79153  1  0  0  0
 79154  1  0  0  0
 80155  1  0  0  0
 80156  1  0  0  0
 80157  1  0  0  0
 81158  1  0  0  0
 81159  1  0  0  0
 81160  1  0  0  0
 82161  1  0  0  0
 82162  1  0  0  0
 82 86  1  0  0  0
 83163  1  0  0  0
 83164  1  0  0  0
 86165  1  0  0  0
M  CHG  1  86   1
M  ISO  4   1 100  68 101  83 101  85 100
M  END
> <chiral flag>
0

> <version>
0

> <s_m_source_file>
/data/baiqing/PycharmProjects/Reinvent-master-3.2/result/LINK_invent/BTK/process_docking_weight1_custom_sum_contain_oxygen_bond_distance_aromatic_linkinvent_7_9_3/rearranged_h_0120.sdf

> <i_m_source_file_index>
5

> <r_mmod_Potential_Energy-OPLS-2005>
39.4794235229492

> <r_mmod_Stretch_Energy-OPLS-2005>
60.4116249084473

> <r_mmod_Bend_Energy-OPLS-2005>
145.590957641602

> <r_mmod_Torsional_Energy-OPLS-2005>
399.870697021484

> <r_mmod_Improper_Torsional_Energy-OPLS-2005>
17.9717769622803

> <r_mmod_Van_der_Waal_Energy-OPLS-2005>
148.95051574707

> <r_mmod_Electrostatic_Energy-OPLS-2005>
-322.529815673828

> <r_mmod_Solvation_Energy-OPLS-2005>
-440.264678955078

> <b_mmod_Minimization_Converged-OPLS-2005>
0

> <r_mmod_RMS_Derivative-OPLS-2005>
1.61793756484985

$$$$
5
                    3D
 Structure written by MMmdl.
188198  0  0  1  0            999 V2000
  -30.8369  -14.2969   20.7541 C   0  0  0  0  0  0
  -30.4107  -12.2925   19.3857 C   0  0  0  0  0  0
  -29.4782  -12.5554   18.1933 C   0  0  0  0  0  0
  -28.0084  -12.3962   18.6157 C   0  0  0  0  0  0
  -27.6697  -13.2165   19.8883 C   0  0  2  0  0  0
  -28.7099  -12.9713   21.0061 C   0  0  0  0  0  0
  -25.2585  -13.8229   20.5730 C   0  0  0  0  0  0
  -24.1863  -13.0456   20.9198 C   0  0  0  0  0  0
  -24.6436  -11.6934   20.8744 C   0  0  0  0  0  0
  -23.9101  -10.4303   21.0402 C   0  0  0  0  0  0
  -24.3647   -9.4207   21.9177 C   0  0  0  0  0  0
  -23.6309   -8.2247   22.0749 C   0  0  0  0  0  0
  -22.4290   -8.0289   21.3550 C   0  0  0  0  0  0
  -21.9936   -9.0262   20.4648 C   0  0  0  0  0  0
  -22.7272  -10.2138   20.3050 C   0  0  0  0  0  0
  -21.6857   -6.0740   22.5274 C   0  0  0  0  0  0
  -21.4021   -6.5642   23.8208 C   0  0  0  0  0  0
  -21.3661   -5.6796   24.9170 C   0  0  0  0  0  0
  -21.6048   -4.3061   24.7227 C   0  0  0  0  0  0
  -21.8817   -3.8149   23.4348 C   0  0  0  0  0  0
  -21.9198   -4.6964   22.3401 C   0  0  0  0  0  0
  -22.7880  -13.5233   21.1834 C   0  0  0  0  0  0
  -22.1664   -4.2150   21.0976 F   0  0  0  0  0  0
  -21.5629   -3.4542   25.7736 F   0  0  0  0  0  0
  -30.0646  -13.2190   20.4726 N   0  0  0  0  0  0
  -26.3080  -12.9434   20.3484 N   0  0  0  0  0  0
  -25.9375  -11.6572   20.5813 N   0  0  0  0  0  0
  -22.0516  -12.8211   22.0368 N   0  0  0  0  0  0
  -25.4129  -15.1997   20.4095 N   0  0  0  0  0  0
  -31.7561  -14.6834   20.0242 O   0  0  0  0  0  0
  -21.6655   -6.8891   21.4241 O   0  0  0  0  0  0
  -22.3623  -14.5603   20.6747 O   0  0  0  0  0  0
  -24.6073  -31.8723   23.2096 C   0  0  0  0  0  0
  -25.8999  -32.4852   23.8377 C   0  0  1  0  0  0
  -27.2586  -27.4793   20.1082 C   0  0  0  0  0  0
  -25.5895  -33.8653   24.2311 N   0  0  0  0  0  0
  -23.3965  -30.4877   21.5490 C   0  0  2  0  0  0
  -24.8484  -28.9577   20.1134 C   0  0  0  0  0  0
  -22.7400  -29.4654   22.5031 C   0  0  0  0  0  0
  -18.0298  -28.1400   22.8469 C   0  0  0  0  0  0
  -24.1499  -36.7325   23.2632 C   0  0  0  0  0  0
  -25.9160  -30.8471   21.3607 C   0  0  0  0  0  0
  -25.9937  -29.4793   20.7236 C   0  0  0  0  0  0
  -27.1960  -28.7444   20.7332 C   0  0  0  0  0  0
  -26.1011  -26.9700   19.4821 C   0  0  0  0  0  0
  -24.8924  -27.6961   19.4929 C   0  0  0  0  0  0
  -23.6029  -29.8145   20.1615 C   0  0  0  0  0  0
  -25.4122  -36.3128   24.0326 C   0  0  1  0  0  0
  -20.5870  -28.3654   23.1366 C   0  0  2  0  0  0
  -20.6807  -26.9410   22.5420 C   0  0  0  0  0  0
  -19.5781  -26.6416   21.5220 C   0  0  0  0  0  0
  -18.1948  -26.7951   22.1609 C   0  0  0  0  0  0
  -19.1536  -28.8850   23.2905 C   0  0  0  0  0  0
  -18.9464  -30.1458   23.8898 C   0  0  0  0  0  0
  -17.6455  -30.6592   24.0558 C   0  0  0  0  0  0
  -25.9053  -34.9506   23.5129 C   0  0  0  0  0  0
  -16.5357  -29.9084   23.6342 C   0  0  0  0  0  0
  -16.7279  -28.6519   23.0316 C   0  0  0  0  0  0
  -26.4430  -31.6618   25.0702 C   0  0  0  0  0  0
  -25.3687  -31.3759   26.1430 C   0  0  0  0  0  0
  -27.0211  -30.3054   24.6052 C   0  0  0  0  0  0
  -27.6016  -32.4304   25.7468 C   0  0  0  0  0  0
  -27.5598  -37.1811   24.8452 C   0  0  0  0  0  0
  -21.4139  -29.3014   22.3766 N   0  0  0  0  0  0
  -26.4306  -37.3818   23.9420 N   0  0  0  0  0  0
  -24.6573  -31.0851   22.0983 N   0  0  0  0  0  0
  -23.4190  -28.8248   23.3105 O   0  0  0  0  0  0
  -28.4089  -26.7256   20.0369 O   0  0  0  0  0  0
  -26.5618  -34.8965   22.4687 O   0  0  0  0  0  0
  -23.5286  -32.1466   23.7524 O   0  0  0  0  0  0
  -31.3772  -17.6700   24.3415 C   0  0  0  0  0  0
  -30.6897  -18.6399   25.0891 C   0  0  0  0  0  0
  -29.2814  -16.9985   23.3197 C   0  0  0  0  0  0
  -28.5615  -17.9430   24.0921 C   0  0  0  0  0  0
  -30.6811  -16.8537   23.4365 C   0  0  0  0  0  0
  -29.2930  -18.8117   24.9570 C   0  0  0  0  0  0
  -28.1945  -23.4153   22.9347 C   0  0  0  0  0  0
  -29.0031  -25.0226   24.7011 C   0  0  0  0  0  0
  -28.6711  -24.3682   21.8306 C   0  0  0  0  0  0
  -29.5351  -25.9622   23.5995 C   0  0  0  0  0  0
  -26.5967  -18.8191   22.7105 C   0  0  0  0  0  0
  -26.3679  -16.5954   23.8716 C   0  0  0  0  0  0
  -25.0590  -18.8789   22.5884 C   0  0  0  0  0  0
  -24.8374  -16.7018   23.7331 C   0  0  0  0  0  0
  -27.0308  -17.9948   23.9386 C   0  0  0  0  0  0
  -29.0393  -23.5605   24.2188 C   0  0  1  0  0  0
  -28.7237  -25.8375   22.2919 C   0  0  1  0  0  0
  -31.4648  -15.8607   22.5853 C   0  0  0  0  0  0
  -28.6956  -20.0295   25.6637 C   0  0  0  0  0  0
  -28.6206  -22.5287   25.2904 C   0  0  0  0  0  0
  -29.2894  -26.7283   21.1650 C   0  0  0  0  0  0
  -30.6497  -14.8145   21.9726 N   0  0  0  0  0  0
  -24.4696  -17.5214   22.5589 N   0  3  0  0  0  0
  -29.1072  -21.2005   24.8740 N   0  3  0  0  0  0
  -31.4539  -12.3879   19.0790 H   0  0  0  0  0  0
  -30.2998  -11.2658   19.7373 H   0  0  0  0  0  0
  -29.7111  -11.8752   17.3740 H   0  0  0  0  0  0
  -29.6442  -13.5641   17.8117 H   0  0  0  0  0  0
  -27.8235  -11.3364   18.7951 H   0  0  0  0  0  0
  -27.3487  -12.6871   17.7974 H   0  0  0  0  0  0
  -27.7235  -14.2718   19.6171 H   0  0  0  0  0  0
  -28.6525  -11.9426   21.3642 H   0  0  0  0  0  0
  -28.4634  -13.5989   21.8635 H   0  0  0  0  0  0
  -25.2800   -9.5671   22.4750 H   0  0  0  0  0  0
  -24.0019   -7.4639   22.7467 H   0  0  0  0  0  0
  -21.0870   -8.8792   19.8952 H   0  0  0  0  0  0
  -22.3745  -10.9679   19.6151 H   0  0  0  0  0  0
  -21.2013   -7.6149   23.9711 H   0  0  0  0  0  0
  -21.1485   -6.0527   25.9074 H   0  0  0  0  0  0
  -22.0600   -2.7609   23.2846 H   0  0  0  0  0  0
  -22.4111  -11.9825   22.4692 H   0  0  0  0  0  0
  -21.1112  -13.1201   22.2538 H   0  0  0  0  0  0
  -24.5705  -15.6116   20.0222 H   0  0  0  0  0  0
  -26.2240  -15.4738   19.8669 H   0  0  0  0  0  0
  -26.7084  -32.5602   23.1170 H   0  0  0  0  0  0
  -25.0025  -33.9828   25.0432 H   0  0  0  0  0  0
  -22.6837  -31.3016   21.4068 H   0  0  0  0  0  0
  -23.3785  -35.9636   23.3291 H   0  0  0  0  0  0
  -24.3587  -36.8954   22.2051 H   0  0  0  0  0  0
  -23.7248  -37.6529   23.6638 H   0  0  0  0  0  0
  -26.0219  -31.6083   20.5879 H   0  0  0  0  0  0
  -26.8077  -30.9103   21.9723 H   0  0  0  0  0  0
  -28.0667  -29.1838   21.1958 H   0  0  0  0  0  0
  -26.1373  -26.0107   18.9846 H   0  0  0  0  0  0
  -24.0143  -27.2900   19.0118 H   0  0  0  0  0  0
  -23.6960  -30.5849   19.3952 H   0  0  0  0  0  0
  -22.7308  -29.2233   19.8758 H   0  0  0  0  0  0
  -25.1296  -36.1981   25.0816 H   0  0  0  0  0  0
  -20.9926  -28.3188   24.1500 H   0  0  0  0  0  0
  -20.5765  -26.2234   23.3575 H   0  0  0  0  0  0
  -21.6674  -26.7486   22.1162 H   0  0  0  0  0  0
  -19.6929  -25.6340   21.1224 H   0  0  0  0  0  0
  -19.6758  -27.3256   20.6777 H   0  0  0  0  0  0
  -17.4236  -26.6720   21.4003 H   0  0  0  0  0  0
  -18.0309  -26.0110   22.9005 H   0  0  0  0  0  0
  -19.7932  -30.7286   24.2247 H   0  0  0  0  0  0
  -17.5011  -31.6264   24.5167 H   0  0  0  0  0  0
  -15.5359  -30.2967   23.7668 H   0  0  0  0  0  0
  -15.8685  -28.0846   22.6976 H   0  0  0  0  0  0
  -24.5805  -30.7196   25.7738 H   0  0  0  0  0  0
  -24.8932  -32.2933   26.4891 H   0  0  0  0  0  0
  -25.7977  -30.8865   27.0175 H   0  0  0  0  0  0
  -26.2749  -29.6945   24.0954 H   0  0  0  0  0  0
  -27.3814  -29.7170   25.4501 H   0  0  0  0  0  0
  -27.8665  -30.4384   23.9305 H   0  0  0  0  0  0
  -27.2620  -33.3571   26.2108 H   0  0  0  0  0  0
  -28.3789  -32.6920   25.0278 H   0  0  0  0  0  0
  -28.0722  -31.8385   26.5336 H   0  0  0  0  0  0
  -28.2560  -38.0156   24.7530 H   0  0  0  0  0  0
  -28.1132  -36.2682   24.6202 H   0  0  0  0  0  0
  -27.2298  -37.1373   25.8844 H   0  0  0  0  0  0
  -20.9303  -29.8673   21.6937 H   0  0  0  0  0  0
  -26.0197  -38.2885   24.1465 H   0  0  0  0  0  0
  -32.4503  -17.5794   24.4466 H   0  0  0  0  0  0
  -31.2608  -19.2876   25.7406 H   0  0  0  0  0  0
  -28.7597  -16.3860   22.6031 H   0  0  0  0  0  0
  -28.2477  -22.3961   22.5527 H   0  0  0  0  0  0
  -27.1408  -23.6012   23.1563 H   0  0  0  0  0  0
  -27.9901  -25.3078   24.9831 H   0  0  0  0  0  0
  -29.6122  -25.1382   25.5993 H   0  0  0  0  0  0
  -28.0132  -24.2731   20.9661 H   0  0  0  0  0  0
  -29.6603  -24.0594   21.4872 H   0  0  0  0  0  0
  -30.5841  -25.7300   23.4109 H   0  0  0  0  0  0
  -29.5143  -26.9929   23.9553 H   0  0  0  0  0  0
  -26.9960  -19.8319   22.7715 H   0  0  0  0  0  0
  -27.0152  -18.3811   21.8033 H   0  0  0  0  0  0
  -26.7319  -16.0161   23.0240 H   0  0  0  0  0  0
  -26.6169  -16.0224   24.7660 H   0  0  0  0  0  0
  -24.7708  -19.4197   21.6856 H   0  0  0  0  0  0
  -24.6395  -19.4359   23.4283 H   0  0  0  0  0  0
  -24.4034  -17.1359   24.6342 H   0  0  0  0  0  0
  -24.4011  -15.7087   23.6211 H   0  0  0  0  0  0
  -26.6083  -18.4535   24.8286 H   0  0  0  0  0  0
  -30.0818  -23.3560   23.9647 H   0  0  0  0  0  0
  -27.7069  -26.1644   22.5204 H   0  0  0  0  0  0
  -32.2258  -15.3836   23.2044 H   0  0  0  0  0  0
  -32.0036  -16.4330   21.8275 H   0  0  0  0  0  0
  -29.0936  -20.1025   26.6776 H   0  0  0  0  0  0
  -27.6132  -20.0017   25.7628 H   0  0  0  0  0  0
  -27.5367  -22.5207   25.4235 H   0  0  0  0  0  0
  -29.0509  -22.7753   26.2611 H   0  0  0  0  0  0
  -30.2451  -26.3203   20.8297 H   0  0  0  0  0  0
  -29.5241  -27.7285   21.5229 H   0  0  0  0  0  0
  -29.9447  -14.3819   22.5495 H   0  0  0  0  0  0
  -24.7686  -17.0347   21.7257 H   0  0  0  0  0  0
  -23.4647  -17.6025   22.5185 H   0  0  0  0  0  0
  -28.8136  -21.0374   23.9277 H   0  0  0  0  0  0
  -30.1145  -21.2203   24.8759 H   0  0  0  0  0  0
  1 25  1  0  0  0
  1 30  2  0  0  0
  1 92  1  0  0  0
  2  3  1  0  0  0
  2 25  1  0  0  0
  2 95  1  0  0  0
  2 96  1  0  0  0
  3  4  1  0  0  0
  3 97  1  0  0  0
  3 98  1  0  0  0
  4  5  1  0  0  0
  4 99  1  0  0  0
  4100  1  0  0  0
  5  6  1  0  0  0
  5 26  1  0  0  0
  5101  1  0  0  0
  6 25  1  0  0  0
  6102  1  0  0  0
  6103  1  0  0  0
  7  8  2  0  0  0
  7 26  1  0  0  0
  7 29  1  0  0  0
  8  9  1  0  0  0
  8 22  1  0  0  0
  9 10  1  0  0  0
  9 27  2  0  0  0
 10 11  2  0  0  0
 10 15  1  0  0  0
 11 12  1  0  0  0
 11104  1  0  0  0
 12 13  2  0  0  0
 12105  1  0  0  0
 13 14  1  0  0  0
 13 31  1  0  0  0
 14 15  2  0  0  0
 14106  1  0  0  0
 15107  1  0  0  0
 16 17  2  0  0  0
 16 21  1  0  0  0
 16 31  1  0  0  0
 17 18  1  0  0  0
 17108  1  0  0  0
 18 19  2  0  0  0
 18109  1  0  0  0
 19 20  1  0  0  0
 19 24  1  0  0  0
 20 21  2  0  0  0
 20110  1  0  0  0
 21 23  1  0  0  0
 22 28  1  0  0  0
 22 32  2  0  0  0
 26 27  1  0  0  0
 28111  1  0  0  0
 28112  1  0  0  0
 29113  1  0  0  0
 29114  1  0  0  0
 33 34  1  0  0  0
 33 66  1  0  0  0
 33 70  2  0  0  0
 34 36  1  0  0  0
 34 59  1  0  0  0
 34115  1  0  0  0
 35 44  2  0  0  0
 35 45  1  0  0  0
 35 68  1  0  0  0
 36 56  1  0  0  0
 36116  1  0  0  0
 37 39  1  0  0  0
 37 47  1  0  0  0
 37 66  1  0  0  0
 37117  1  0  0  0
 38 43  2  0  0  0
 38 46  1  0  0  0
 38 47  1  0  0  0
 39 64  1  0  0  0
 39 67  2  0  0  0
 40 52  1  0  0  0
 40 53  2  0  0  0
 40 58  1  0  0  0
 41118  1  0  0  0
 41119  1  0  0  0
 41120  1  0  0  0
 41 48  1  0  0  0
 42 43  1  0  0  0
 42 66  1  0  0  0
 42121  1  0  0  0
 42122  1  0  0  0
 43 44  1  0  0  0
 44123  1  0  0  0
 45 46  2  0  0  0
 45124  1  0  0  0
 46125  1  0  0  0
 47126  1  0  0  0
 47127  1  0  0  0
 48 56  1  0  0  0
 48 65  1  0  0  0
 48128  1  0  0  0
 49 50  1  0  0  0
 49 53  1  0  0  0
 49 64  1  0  0  0
 49129  1  0  0  0
 50 51  1  0  0  0
 50130  1  0  0  0
 50131  1  0  0  0
 51 52  1  0  0  0
 51132  1  0  0  0
 51133  1  0  0  0
 52134  1  0  0  0
 52135  1  0  0  0
 53 54  1  0  0  0
 54 55  2  0  0  0
 54136  1  0  0  0
 55 57  1  0  0  0
 55137  1  0  0  0
 56 69  2  0  0  0
 57 58  2  0  0  0
 57138  1  0  0  0
 58139  1  0  0  0
 59 60  1  0  0  0
 59 61  1  0  0  0
 59 62  1  0  0  0
 60140  1  0  0  0
 60141  1  0  0  0
 60142  1  0  0  0
 61143  1  0  0  0
 61144  1  0  0  0
 61145  1  0  0  0
 62146  1  0  0  0
 62147  1  0  0  0
 62148  1  0  0  0
 63 65  1  0  0  0
 63149  1  0  0  0
 63150  1  0  0  0
 63151  1  0  0  0
 64152  1  0  0  0
 65153  1  0  0  0
 68 91  1  0  0  0
 71 72  2  0  0  0
 71 75  1  0  0  0
 71154  1  0  0  0
 72 76  1  0  0  0
 72155  1  0  0  0
 73 74  1  0  0  0
 73 75  2  0  0  0
 73156  1  0  0  0
 74 76  2  0  0  0
 74 85  1  0  0  0
 75 88  1  0  0  0
 76 89  1  0  0  0
 77 79  1  0  0  0
 77 86  1  0  0  0
 77157  1  0  0  0
 77158  1  0  0  0
 78 80  1  0  0  0
 78 86  1  0  0  0
 78159  1  0  0  0
 78160  1  0  0  0
 79 87  1  0  0  0
 79161  1  0  0  0
 79162  1  0  0  0
 80 87  1  0  0  0
 80163  1  0  0  0
 80164  1  0  0  0
 81 83  1  0  0  0
 81 85  1  0  0  0
 81165  1  0  0  0
 81166  1  0  0  0
 82 84  1  0  0  0
 82 85  1  0  0  0
 82167  1  0  0  0
 82168  1  0  0  0
 83 93  1  0  0  0
 83169  1  0  0  0
 83170  1  0  0  0
 84 93  1  0  0  0
 84171  1  0  0  0
 84172  1  0  0  0
 85173  1  0  0  0
 86 90  1  0  0  0
 86174  1  0  0  0
 87 91  1  0  0  0
 87175  1  0  0  0
 88 92  1  0  0  0
 88176  1  0  0  0
 88177  1  0  0  0
 89 94  1  0  0  0
 89178  1  0  0  0
 89179  1  0  0  0
 90 94  1  0  0  0
 90180  1  0  0  0
 90181  1  0  0  0
 91182  1  0  0  0
 91183  1  0  0  0
 92184  1  0  0  0
 93185  1  0  0  0
 93186  1  0  0  0
 94187  1  0  0  0
 94188  1  0  0  0
M  CHG  2  93   1  94   1
M  ISO  4   1 100  68 101  91 101  92 100
M  END
> <chiral flag>
0

> <version>
0

> <s_m_source_file>
/data/baiqing/PycharmProjects/Reinvent-master-3.2/result/LINK_invent/BTK/process_docking_weight1_custom_sum_contain_oxygen_bond_distance_aromatic_linkinvent_7_9_3/rearranged_h_0120.sdf

> <i_m_source_file_index>
6

> <r_mmod_Potential_Energy-OPLS-2005>
-433.117797851562

> <r_mmod_Stretch_Energy-OPLS-2005>
37.0597953796387

> <r_mmod_Bend_Energy-OPLS-2005>
103.673133850098

> <r_mmod_Torsional_Energy-OPLS-2005>
262.4931640625

> <r_mmod_Improper_Torsional_Energy-OPLS-2005>
9.49566555023193

> <r_mmod_Van_der_Waal_Energy-OPLS-2005>
150.009948730469

> <r_mmod_Electrostatic_Energy-OPLS-2005>
-102.310417175293

> <r_mmod_Solvation_Energy-OPLS-2005>
-901.303039550781

> <b_mmod_Minimization_Converged-OPLS-2005>
0

> <r_mmod_RMS_Derivative-OPLS-2005>
3.40010905265808

$$$$
6
                    3D
 Structure written by MMmdl.
161170  0  0  1  0            999 V2000
  -30.6478  -14.7042   20.4617 C   0  0  0  0  0  0
  -30.4230  -12.4304   19.4717 C   0  0  0  0  0  0
  -29.5050  -12.4975   18.2328 C   0  0  0  0  0  0
  -28.0309  -12.3311   18.6472 C   0  0  0  0  0  0
  -27.6412  -13.2325   19.8496 C   0  0  2  0  0  0
  -28.6857  -13.1690   20.9852 C   0  0  0  0  0  0
  -25.2505  -13.8206   20.5693 C   0  0  0  0  0  0
  -24.1799  -13.0448   20.9209 C   0  0  0  0  0  0
  -24.6394  -11.6926   20.8755 C   0  0  0  0  0  0
  -23.9075  -10.4297   21.0411 C   0  0  0  0  0  0
  -24.3625   -9.4210   21.9186 C   0  0  0  0  0  0
  -23.6296   -8.2247   22.0755 C   0  0  0  0  0  0
  -22.4277   -8.0289   21.3548 C   0  0  0  0  0  0
  -21.9917   -9.0263   20.4649 C   0  0  0  0  0  0
  -22.7249  -10.2140   20.3058 C   0  0  0  0  0  0
  -21.6854   -6.0740   22.5280 C   0  0  0  0  0  0
  -21.4017   -6.5642   23.8214 C   0  0  0  0  0  0
  -21.3658   -5.6794   24.9176 C   0  0  0  0  0  0
  -21.6042   -4.3057   24.7225 C   0  0  0  0  0  0
  -21.8818   -3.8151   23.4346 C   0  0  0  0  0  0
  -21.9192   -4.6967   22.3402 C   0  0  0  0  0  0
  -22.7818  -13.5226   21.1865 C   0  0  0  0  0  0
  -22.1660   -4.2154   21.0979 F   0  0  0  0  0  0
  -21.5628   -3.4538   25.7736 F   0  0  0  0  0  0
  -29.9894  -13.4997   20.3990 N   0  0  0  0  0  0
  -26.2934  -12.9417   20.3283 N   0  0  0  0  0  0
  -25.9324  -11.6558   20.5760 N   0  0  0  0  0  0
  -22.0465  -12.8217   22.0421 N   0  0  0  0  0  0
  -25.4190  -15.1929   20.4099 N   0  0  0  0  0  0
  -31.8396  -14.7681   20.1505 O   0  0  0  0  0  0
  -21.6643   -6.8884   21.4243 O   0  0  0  0  0  0
  -22.3502  -14.5531   20.6709 O   0  0  0  0  0  0
  -24.6299  -31.8568   23.2001 C   0  0  0  0  0  0
  -25.9132  -32.4763   23.8340 C   0  0  1  0  0  0
  -27.2158  -27.2768   20.1277 C   0  0  0  0  0  0
  -25.5933  -33.8564   24.2262 N   0  0  0  0  0  0
  -23.4251  -30.4805   21.5440 C   0  0  2  0  0  0
  -24.8706  -28.9293   20.1131 C   0  0  0  0  0  0
  -22.7492  -29.4611   22.4925 C   0  0  0  0  0  0
  -18.0290  -28.1384   22.8485 C   0  0  0  0  0  0
  -24.1490  -36.7288   23.2639 C   0  0  0  0  0  0
  -25.9702  -30.7740   21.3785 C   0  0  0  0  0  0
  -26.0423  -29.3976   20.7215 C   0  0  0  0  0  0
  -27.2194  -28.5846   20.7159 C   0  0  0  0  0  0
  -26.0248  -26.8782   19.4815 C   0  0  0  0  0  0
  -24.8660  -27.6769   19.4823 C   0  0  0  0  0  0
  -23.6420  -29.8157   20.1599 C   0  0  0  0  0  0
  -25.4116  -36.3073   24.0326 C   0  0  1  0  0  0
  -20.5892  -28.3693   23.1273 C   0  0  2  0  0  0
  -20.6778  -26.9413   22.5407 C   0  0  0  0  0  0
  -19.5753  -26.6383   21.5211 C   0  0  0  0  0  0
  -18.1933  -26.7926   22.1625 C   0  0  0  0  0  0
  -19.1543  -28.8856   23.2874 C   0  0  0  0  0  0
  -18.9465  -30.1457   23.8892 C   0  0  0  0  0  0
  -17.6465  -30.6586   24.0561 C   0  0  0  0  0  0
  -25.9056  -34.9443   23.5096 C   0  0  0  0  0  0
  -16.5356  -29.9083   23.6331 C   0  0  0  0  0  0
  -16.7277  -28.6500   23.0353 C   0  0  0  0  0  0
  -26.4502  -31.6586   25.0727 C   0  0  0  0  0  0
  -25.3728  -31.3734   26.1451 C   0  0  0  0  0  0
  -27.0350  -30.3002   24.6210 C   0  0  0  0  0  0
  -27.6050  -32.4333   25.7504 C   0  0  0  0  0  0
  -27.5577  -37.1801   24.8465 C   0  0  0  0  0  0
  -21.4202  -29.3043   22.3665 N   0  0  0  0  0  0
  -26.4291  -37.3772   23.9406 N   0  0  0  0  0  0
  -24.6941  -31.0548   22.0971 N   0  0  0  0  0  0
  -23.4200  -28.8150   23.3017 O   0  0  0  0  0  0
  -28.3186  -26.3975   20.1519 O   0  0  0  0  0  0
  -26.5627  -34.8916   22.4664 O   0  0  0  0  0  0
  -23.5454  -32.1384   23.7308 O   0  0  0  0  0  0
  -31.9198  -19.8159   20.2068 C   0  0  0  0  0  0
  -31.5004  -22.0023   20.1695 C   0  0  0  0  0  0
  -32.5223  -21.0266   20.0894 C   0  0  0  0  0  0
  -30.2830  -21.3763   20.3012 C   0  0  0  0  0  0
  -31.7320  -23.4936   20.1043 C   0  0  0  0  0  0
  -28.9949  -22.2607   20.3789 C   0  0  0  0  0  0
  -30.5575  -24.2981   20.6724 C   0  0  0  0  0  0
  -29.2125  -23.8514   20.0779 C   0  0  2  0  0  0
  -33.9992  -21.2726   19.9147 C   0  0  0  0  0  0
  -28.0878  -24.9416   20.4464 C   0  0  0  0  0  0
  -29.6969  -18.6747   20.5097 C   0  0  0  0  0  0
  -30.5306  -17.2709   20.5110 C   0  0  0  0  0  0
  -30.5394  -19.9424   20.3512 N   0  0  0  0  0  0
  -29.9336  -15.8748   20.6503 N   0  0  0  0  0  0
  -31.4665  -12.5357   19.1698 H   0  0  0  0  0  0
  -30.3506  -11.4552   19.9555 H   0  0  0  0  0  0
  -29.7816  -11.7241   17.5150 H   0  0  0  0  0  0
  -29.6394  -13.4526   17.7223 H   0  0  0  0  0  0
  -27.8815  -11.2828   18.9083 H   0  0  0  0  0  0
  -27.3745  -12.5282   17.7986 H   0  0  0  0  0  0
  -27.6368  -14.2537   19.4679 H   0  0  0  0  0  0
  -28.7107  -12.1766   21.4375 H   0  0  0  0  0  0
  -28.4292  -13.8653   21.7852 H   0  0  0  0  0  0
  -25.2770   -9.5683   22.4760 H   0  0  0  0  0  0
  -24.0007   -7.4635   22.7472 H   0  0  0  0  0  0
  -21.0850   -8.8784   19.8951 H   0  0  0  0  0  0
  -22.3711  -10.9680   19.6167 H   0  0  0  0  0  0
  -21.2013   -7.6151   23.9719 H   0  0  0  0  0  0
  -21.1480   -6.0524   25.9078 H   0  0  0  0  0  0
  -22.0598   -2.7614   23.2843 H   0  0  0  0  0  0
  -22.4089  -11.9885   22.4816 H   0  0  0  0  0  0
  -21.1079  -13.1237   22.2619 H   0  0  0  0  0  0
  -24.6504  -15.8455   20.5200 H   0  0  0  0  0  0
  -26.2631  -15.6325   20.0657 H   0  0  0  0  0  0
  -26.7196  -32.5415   23.1082 H   0  0  0  0  0  0
  -25.0074  -33.9705   25.0403 H   0  0  0  0  0  0
  -22.7210  -31.3026   21.3997 H   0  0  0  0  0  0
  -23.3750  -35.9622   23.3305 H   0  0  0  0  0  0
  -24.3577  -36.8908   22.2053 H   0  0  0  0  0  0
  -23.7248  -37.6491   23.6663 H   0  0  0  0  0  0
  -26.1091  -31.5354   20.6098 H   0  0  0  0  0  0
  -26.8478  -30.8209   22.0116 H   0  0  0  0  0  0
  -28.1184  -28.9397   21.1998 H   0  0  0  0  0  0
  -25.9665  -25.9355   18.9596 H   0  0  0  0  0  0
  -23.9724  -27.3181   18.9905 H   0  0  0  0  0  0
  -23.7668  -30.5924   19.4045 H   0  0  0  0  0  0
  -22.7600  -29.2497   19.8545 H   0  0  0  0  0  0
  -25.1300  -36.1920   25.0818 H   0  0  0  0  0  0
  -20.9985  -28.3268   24.1394 H   0  0  0  0  0  0
  -20.5675  -26.2303   23.3610 H   0  0  0  0  0  0
  -21.6646  -26.7436   22.1203 H   0  0  0  0  0  0
  -19.6914  -25.6292   21.1242 H   0  0  0  0  0  0
  -19.6688  -27.3191   20.6738 H   0  0  0  0  0  0
  -17.4201  -26.6671   21.4029 H   0  0  0  0  0  0
  -18.0336  -26.0068   22.9022 H   0  0  0  0  0  0
  -19.7942  -30.7274   24.2258 H   0  0  0  0  0  0
  -17.5020  -31.6266   24.5163 H   0  0  0  0  0  0
  -15.5356  -30.2983   23.7658 H   0  0  0  0  0  0
  -15.8677  -28.0817   22.7071 H   0  0  0  0  0  0
  -24.5902  -30.7083   25.7782 H   0  0  0  0  0  0
  -24.8922  -32.2903   26.4871 H   0  0  0  0  0  0
  -25.8049  -30.8916   27.0230 H   0  0  0  0  0  0
  -26.2932  -29.6751   24.1225 H   0  0  0  0  0  0
  -27.4021  -29.7266   25.4730 H   0  0  0  0  0  0
  -27.8815  -30.4278   23.9460 H   0  0  0  0  0  0
  -27.2646  -33.3632   26.2072 H   0  0  0  0  0  0
  -28.3866  -32.6896   25.0340 H   0  0  0  0  0  0
  -28.0712  -31.8468   26.5432 H   0  0  0  0  0  0
  -28.2599  -38.0095   24.7505 H   0  0  0  0  0  0
  -28.1071  -36.2625   24.6302 H   0  0  0  0  0  0
  -27.2294  -37.1463   25.8868 H   0  0  0  0  0  0
  -20.9384  -29.8770   21.6876 H   0  0  0  0  0  0
  -26.0170  -38.2846   24.1402 H   0  0  0  0  0  0
  -32.4181  -18.8582   20.1952 H   0  0  0  0  0  0
  -31.8999  -23.7665   19.0615 H   0  0  0  0  0  0
  -32.6462  -23.7468   20.6434 H   0  0  0  0  0  0
  -28.5753  -22.1582   21.3799 H   0  0  0  0  0  0
  -28.2369  -21.8658   19.7022 H   0  0  0  0  0  0
  -30.7300  -25.3582   20.4826 H   0  0  0  0  0  0
  -30.5235  -24.1832   21.7566 H   0  0  0  0  0  0
  -29.3303  -23.9246   18.9958 H   0  0  0  0  0  0
  -34.5049  -20.3745   19.5584 H   0  0  0  0  0  0
  -34.4510  -21.5667   20.8621 H   0  0  0  0  0  0
  -34.1751  -22.0678   19.1895 H   0  0  0  0  0  0
  -27.8987  -24.8762   21.5184 H   0  0  0  0  0  0
  -27.1713  -24.5863   19.9825 H   0  0  0  0  0  0
  -29.1329  -18.7656   21.4381 H   0  0  0  0  0  0
  -28.9630  -18.6621   19.7037 H   0  0  0  0  0  0
  -31.2737  -17.3333   21.3075 H   0  0  0  0  0  0
  -31.0896  -17.2418   19.5741 H   0  0  0  0  0  0
  -28.9476  -15.7970   20.8510 H   0  0  0  0  0  0
  1 25  1  0  0  0
  1 30  2  0  0  0
  1 84  1  0  0  0
  2  3  1  0  0  0
  2 25  1  0  0  0
  2 85  1  0  0  0
  2 86  1  0  0  0
  3  4  1  0  0  0
  3 87  1  0  0  0
  3 88  1  0  0  0
  4  5  1  0  0  0
  4 89  1  0  0  0
  4 90  1  0  0  0
  5  6  1  0  0  0
  5 26  1  0  0  0
  5 91  1  0  0  0
  6 25  1  0  0  0
  6 92  1  0  0  0
  6 93  1  0  0  0
  7  8  2  0  0  0
  7 26  1  0  0  0
  7 29  1  0  0  0
  8  9  1  0  0  0
  8 22  1  0  0  0
  9 10  1  0  0  0
  9 27  2  0  0  0
 10 11  2  0  0  0
 10 15  1  0  0  0
 11 12  1  0  0  0
 11 94  1  0  0  0
 12 13  2  0  0  0
 12 95  1  0  0  0
 13 14  1  0  0  0
 13 31  1  0  0  0
 14 15  2  0  0  0
 14 96  1  0  0  0
 15 97  1  0  0  0
 16 17  2  0  0  0
 16 21  1  0  0  0
 16 31  1  0  0  0
 17 18  1  0  0  0
 17 98  1  0  0  0
 18 19  2  0  0  0
 18 99  1  0  0  0
 19 20  1  0  0  0
 19 24  1  0  0  0
 20 21  2  0  0  0
 20100  1  0  0  0
 21 23  1  0  0  0
 22 28  1  0  0  0
 22 32  2  0  0  0
 26 27  1  0  0  0
 28101  1  0  0  0
 28102  1  0  0  0
 29103  1  0  0  0
 29104  1  0  0  0
 33 34  1  0  0  0
 33 66  1  0  0  0
 33 70  2  0  0  0
 34 36  1  0  0  0
 34 59  1  0  0  0
 34105  1  0  0  0
 35 44  2  0  0  0
 35 45  1  0  0  0
 35 68  1  0  0  0
 36 56  1  0  0  0
 36106  1  0  0  0
 37 39  1  0  0  0
 37 47  1  0  0  0
 37 66  1  0  0  0
 37107  1  0  0  0
 38 43  2  0  0  0
 38 46  1  0  0  0
 38 47  1  0  0  0
 39 64  1  0  0  0
 39 67  2  0  0  0
 40 52  1  0  0  0
 40 53  2  0  0  0
 40 58  1  0  0  0
 41108  1  0  0  0
 41109  1  0  0  0
 41110  1  0  0  0
 41 48  1  0  0  0
 42 43  1  0  0  0
 42 66  1  0  0  0
 42111  1  0  0  0
 42112  1  0  0  0
 43 44  1  0  0  0
 44113  1  0  0  0
 45 46  2  0  0  0
 45114  1  0  0  0
 46115  1  0  0  0
 47116  1  0  0  0
 47117  1  0  0  0
 48 56  1  0  0  0
 48 65  1  0  0  0
 48118  1  0  0  0
 49 50  1  0  0  0
 49 53  1  0  0  0
 49 64  1  0  0  0
 49119  1  0  0  0
 50 51  1  0  0  0
 50120  1  0  0  0
 50121  1  0  0  0
 51 52  1  0  0  0
 51122  1  0  0  0
 51123  1  0  0  0
 52124  1  0  0  0
 52125  1  0  0  0
 53 54  1  0  0  0
 54 55  2  0  0  0
 54126  1  0  0  0
 55 57  1  0  0  0
 55127  1  0  0  0
 56 69  2  0  0  0
 57 58  2  0  0  0
 57128  1  0  0  0
 58129  1  0  0  0
 59 60  1  0  0  0
 59 61  1  0  0  0
 59 62  1  0  0  0
 60130  1  0  0  0
 60131  1  0  0  0
 60132  1  0  0  0
 61133  1  0  0  0
 61134  1  0  0  0
 61135  1  0  0  0
 62136  1  0  0  0
 62137  1  0  0  0
 62138  1  0  0  0
 63 65  1  0  0  0
 63139  1  0  0  0
 63140  1  0  0  0
 63141  1  0  0  0
 64142  1  0  0  0
 65143  1  0  0  0
 68 80  1  0  0  0
 71 73  2  0  0  0
 71 83  1  0  0  0
 71144  1  0  0  0
 72 73  1  0  0  0
 72 74  2  0  0  0
 72 75  1  0  0  0
 73 79  1  0  0  0
 74 76  1  0  0  0
 74 83  1  0  0  0
 75 77  1  0  0  0
 75145  1  0  0  0
 75146  1  0  0  0
 76 78  1  0  0  0
 76147  1  0  0  0
 76148  1  0  0  0
 77 78  1  0  0  0
 77149  1  0  0  0
 77150  1  0  0  0
 78 80  1  0  0  0
 78151  1  0  0  0
 79152  1  0  0  0
 79153  1  0  0  0
 79154  1  0  0  0
 80155  1  0  0  0
 80156  1  0  0  0
 81 82  1  0  0  0
 81 83  1  0  0  0
 81157  1  0  0  0
 81158  1  0  0  0
 82 84  1  0  0  0
 82159  1  0  0  0
 82160  1  0  0  0
 84161  1  0  0  0
M  ISO  4   1 100  68 101  80 101  84 100
M  END
> <chiral flag>
0

> <version>
0

> <s_m_source_file>
/data/baiqing/PycharmProjects/Reinvent-master-3.2/result/LINK_invent/BTK/process_docking_weight1_custom_sum_contain_oxygen_bond_distance_aromatic_linkinvent_7_9_3/rearranged_h_0120.sdf

> <i_m_source_file_index>
7

> <r_mmod_Potential_Energy-OPLS-2005>
131.704864501953

> <r_mmod_Stretch_Energy-OPLS-2005>
125.166793823242

> <r_mmod_Bend_Energy-OPLS-2005>
196.807632446289

> <r_mmod_Torsional_Energy-OPLS-2005>
230.49348449707

> <r_mmod_Improper_Torsional_Energy-OPLS-2005>
4.84239339828491

> <r_mmod_Van_der_Waal_Energy-OPLS-2005>
130.832565307617

> <r_mmod_Electrostatic_Energy-OPLS-2005>
-407.762268066406

> <r_mmod_Solvation_Energy-OPLS-2005>
-221.253829956055

> <b_mmod_Minimization_Converged-OPLS-2005>
0

> <r_mmod_RMS_Derivative-OPLS-2005>
0.504021108150482

$$$$
7
                    3D
 Structure written by MMmdl.
155163  0  0  1  0            999 V2000
  -30.6583  -14.5503   20.5448 C   0  0  0  0  0  0
  -30.4327  -12.3470   19.4277 C   0  0  0  0  0  0
  -29.5021  -12.5070   18.2056 C   0  0  0  0  0  0
  -28.0220  -12.3585   18.6180 C   0  0  0  0  0  0
  -27.6592  -13.2081   19.8651 C   0  0  2  0  0  0
  -28.7034  -13.0191   20.9887 C   0  0  0  0  0  0
  -25.2599  -13.8140   20.5651 C   0  0  0  0  0  0
  -24.1857  -13.0427   20.9173 C   0  0  0  0  0  0
  -24.6409  -11.6896   20.8715 C   0  0  0  0  0  0
  -23.9071  -10.4286   21.0402 C   0  0  0  0  0  0
  -24.3621   -9.4201   21.9182 C   0  0  0  0  0  0
  -23.6294   -8.2241   22.0760 C   0  0  0  0  0  0
  -22.4273   -8.0282   21.3549 C   0  0  0  0  0  0
  -21.9915   -9.0254   20.4647 C   0  0  0  0  0  0
  -22.7248  -10.2125   20.3056 C   0  0  0  0  0  0
  -21.6852   -6.0737   22.5274 C   0  0  0  0  0  0
  -21.4017   -6.5642   23.8210 C   0  0  0  0  0  0
  -21.3658   -5.6791   24.9166 C   0  0  0  0  0  0
  -21.6047   -4.3058   24.7219 C   0  0  0  0  0  0
  -21.8824   -3.8149   23.4344 C   0  0  0  0  0  0
  -21.9199   -4.6964   22.3396 C   0  0  0  0  0  0
  -22.7881  -13.5238   21.1835 C   0  0  0  0  0  0
  -22.1668   -4.2151   21.0975 F   0  0  0  0  0  0
  -21.5630   -3.4542   25.7735 F   0  0  0  0  0  0
  -30.0257  -13.3461   20.4308 N   0  0  0  0  0  0
  -26.3015  -12.9315   20.3302 N   0  0  0  0  0  0
  -25.9338  -11.6472   20.5742 N   0  0  0  0  0  0
  -22.0525  -12.8220   22.0378 N   0  0  0  0  0  0
  -25.4330  -15.1855   20.4035 N   0  0  0  0  0  0
  -31.8010  -14.7416   20.1222 O   0  0  0  0  0  0
  -21.6641   -6.8876   21.4239 O   0  0  0  0  0  0
  -22.3577  -14.5557   20.6700 O   0  0  0  0  0  0
  -24.6180  -31.8640   23.2078 C   0  0  0  0  0  0
  -25.9063  -32.4800   23.8371 C   0  0  1  0  0  0
  -27.2352  -27.3868   20.1071 C   0  0  0  0  0  0
  -25.5899  -33.8594   24.2291 N   0  0  0  0  0  0
  -23.4111  -30.4853   21.5499 C   0  0  2  0  0  0
  -24.8590  -28.9444   20.1186 C   0  0  0  0  0  0
  -22.7438  -29.4628   22.4983 C   0  0  0  0  0  0
  -18.0274  -28.1371   22.8469 C   0  0  0  0  0  0
  -24.1498  -36.7306   23.2640 C   0  0  0  0  0  0
  -25.9436  -30.8155   21.3674 C   0  0  0  0  0  0
  -26.0229  -29.4458   20.7142 C   0  0  0  0  0  0
  -27.2164  -28.6784   20.6979 C   0  0  0  0  0  0
  -26.0509  -26.9066   19.5124 C   0  0  0  0  0  0
  -24.8705  -27.6762   19.5132 C   0  0  0  0  0  0
  -23.6226  -29.8160   20.1658 C   0  0  0  0  0  0
  -25.4125  -36.3090   24.0325 C   0  0  1  0  0  0
  -20.5873  -28.3666   23.1292 C   0  0  2  0  0  0
  -20.6761  -26.9389   22.5416 C   0  0  0  0  0  0
  -19.5744  -26.6382   21.5202 C   0  0  0  0  0  0
  -18.1916  -26.7921   22.1601 C   0  0  0  0  0  0
  -19.1528  -28.8834   23.2866 C   0  0  0  0  0  0
  -18.9454  -30.1433   23.8888 C   0  0  0  0  0  0
  -17.6459  -30.6569   24.0559 C   0  0  0  0  0  0
  -25.9049  -34.9456   23.5105 C   0  0  0  0  0  0
  -16.5346  -29.9073   23.6330 C   0  0  0  0  0  0
  -16.7264  -28.6497   23.0335 C   0  0  0  0  0  0
  -26.4464  -31.6596   25.0721 C   0  0  0  0  0  0
  -25.3699  -31.3732   26.1453 C   0  0  0  0  0  0
  -27.0281  -30.3025   24.6125 C   0  0  0  0  0  0
  -27.6045  -32.4316   25.7479 C   0  0  0  0  0  0
  -27.5584  -37.1799   24.8457 C   0  0  0  0  0  0
  -21.4166  -29.3030   22.3701 N   0  0  0  0  0  0
  -26.4302  -37.3781   23.9402 N   0  0  0  0  0  0
  -24.6768  -31.0693   22.1012 N   0  0  0  0  0  0
  -23.4187  -28.8155   23.3032 O   0  0  0  0  0  0
  -28.3891  -26.6168   20.0666 O   0  0  0  0  0  0
  -26.5620  -34.8914   22.4670 O   0  0  0  0  0  0
  -23.5356  -32.1431   23.7435 O   0  0  0  0  0  0
  -28.3671  -21.6692   18.5323 C   0  0  0  0  0  0
  -29.2006  -22.8972   20.4304 C   0  0  0  0  0  0
  -27.6796  -22.8346   18.1498 C   0  0  0  0  0  0
  -29.1634  -21.6765   19.6930 C   0  0  0  0  0  0
  -28.4695  -24.0384   19.9776 C   0  0  0  0  0  0
  -29.9470  -20.3946   20.0717 C   0  0  0  0  0  0
  -28.3796  -25.3547   20.7968 C   0  0  0  0  0  0
  -30.1902  -17.0222   21.1411 C   0  0  0  0  0  0
  -29.1514  -17.9443   20.4077 C   0  0  0  0  0  0
  -27.7265  -23.9872   18.8499 N   0  0  0  0  0  0
  -29.8892  -15.5685   21.0020 N   0  0  0  0  0  0
  -29.1074  -19.3993   20.7914 N   0  3  0  0  0  0
  -31.4761  -12.4604   19.1258 H   0  0  0  0  0  0
  -30.3473  -11.3407   19.8413 H   0  0  0  0  0  0
  -29.7483  -11.7657   17.4436 H   0  0  0  0  0  0
  -29.6604  -13.4824   17.7433 H   0  0  0  0  0  0
  -27.8426  -11.3029   18.8235 H   0  0  0  0  0  0
  -27.3714  -12.6200   17.7819 H   0  0  0  0  0  0
  -27.6934  -14.2509   19.5495 H   0  0  0  0  0  0
  -28.6997  -11.9884   21.3481 H   0  0  0  0  0  0
  -28.4567  -13.6314   21.8569 H   0  0  0  0  0  0
  -25.2780   -9.5678   22.4741 H   0  0  0  0  0  0
  -24.0005   -7.4646   22.7491 H   0  0  0  0  0  0
  -21.0849   -8.8779   19.8958 H   0  0  0  0  0  0
  -22.3725  -10.9661   19.6152 H   0  0  0  0  0  0
  -21.2010   -7.6150   23.9709 H   0  0  0  0  0  0
  -21.1471   -6.0522   25.9066 H   0  0  0  0  0  0
  -22.0605   -2.7612   23.2838 H   0  0  0  0  0  0
  -22.4149  -11.9861   22.4713 H   0  0  0  0  0  0
  -21.1152  -13.1236   22.2610 H   0  0  0  0  0  0
  -24.6587  -15.8358   20.4978 H   0  0  0  0  0  0
  -26.2711  -15.6154   20.0352 H   0  0  0  0  0  0
  -26.7140  -32.5493   23.1135 H   0  0  0  0  0  0
  -25.0019  -33.9763   25.0409 H   0  0  0  0  0  0
  -22.7023  -31.3033   21.4055 H   0  0  0  0  0  0
  -23.3747  -35.9646   23.3315 H   0  0  0  0  0  0
  -24.3582  -36.8919   22.2052 H   0  0  0  0  0  0
  -23.7263  -37.6511   23.6659 H   0  0  0  0  0  0
  -26.0609  -31.5831   20.6012 H   0  0  0  0  0  0
  -26.8289  -30.8655   21.9901 H   0  0  0  0  0  0
  -28.1189  -29.0645   21.1515 H   0  0  0  0  0  0
  -26.0381  -25.9366   19.0374 H   0  0  0  0  0  0
  -23.9786  -27.2835   19.0469 H   0  0  0  0  0  0
  -23.7352  -30.5900   19.4057 H   0  0  0  0  0  0
  -22.7482  -29.2344   19.8691 H   0  0  0  0  0  0
  -25.1293  -36.1964   25.0817 H   0  0  0  0  0  0
  -20.9934  -28.3240   24.1430 H   0  0  0  0  0  0
  -20.5667  -26.2252   23.3598 H   0  0  0  0  0  0
  -21.6626  -26.7437   22.1190 H   0  0  0  0  0  0
  -19.6928  -25.6306   21.1204 H   0  0  0  0  0  0
  -19.6713  -27.3213   20.6751 H   0  0  0  0  0  0
  -17.4191  -26.6662   21.4007 H   0  0  0  0  0  0
  -18.0312  -26.0066   22.9004 H   0  0  0  0  0  0
  -19.7943  -30.7206   24.2288 H   0  0  0  0  0  0
  -17.5034  -31.6273   24.5120 H   0  0  0  0  0  0
  -15.5345  -30.2953   23.7692 H   0  0  0  0  0  0
  -15.8665  -28.0816   22.7052 H   0  0  0  0  0  0
  -24.5938  -30.7005   25.7794 H   0  0  0  0  0  0
  -24.8810  -32.2884   26.4801 H   0  0  0  0  0  0
  -25.8031  -30.9004   27.0280 H   0  0  0  0  0  0
  -26.2835  -29.6806   24.1145 H   0  0  0  0  0  0
  -27.3975  -29.7259   25.4607 H   0  0  0  0  0  0
  -27.8701  -30.4296   23.9316 H   0  0  0  0  0  0
  -27.2688  -33.3646   26.2020 H   0  0  0  0  0  0
  -28.3862  -32.6828   25.0299 H   0  0  0  0  0  0
  -28.0685  -31.8460   26.5424 H   0  0  0  0  0  0
  -28.2578  -38.0116   24.7492 H   0  0  0  0  0  0
  -28.1097  -36.2632   24.6287 H   0  0  0  0  0  0
  -27.2284  -37.1436   25.8855 H   0  0  0  0  0  0
  -20.9339  -29.8756   21.6918 H   0  0  0  0  0  0
  -26.0189  -38.2854   24.1433 H   0  0  0  0  0  0
  -28.2886  -20.7848   17.9142 H   0  0  0  0  0  0
  -29.7900  -22.9646   21.3362 H   0  0  0  0  0  0
  -27.0643  -22.8369   17.2621 H   0  0  0  0  0  0
  -30.8192  -20.6400   20.6790 H   0  0  0  0  0  0
  -30.3399  -19.9531   19.1538 H   0  0  0  0  0  0
  -29.2212  -25.3809   21.4900 H   0  0  0  0  0  0
  -27.4894  -25.2875   21.4258 H   0  0  0  0  0  0
  -30.1851  -17.2438   22.2088 H   0  0  0  0  0  0
  -31.2014  -17.2407   20.7916 H   0  0  0  0  0  0
  -28.1556  -17.5606   20.6404 H   0  0  0  0  0  0
  -29.2536  -17.8419   19.3262 H   0  0  0  0  0  0
  -28.9690  -15.2829   21.3045 H   0  0  0  0  0  0
  -28.1698  -19.7025   20.5855 H   0  0  0  0  0  0
  -29.2249  -19.5209   21.7827 H   0  0  0  0  0  0
  1 25  1  0  0  0
  1 30  2  0  0  0
  1 81  1  0  0  0
  2  3  1  0  0  0
  2 25  1  0  0  0
  2 83  1  0  0  0
  2 84  1  0  0  0
  3  4  1  0  0  0
  3 85  1  0  0  0
  3 86  1  0  0  0
  4  5  1  0  0  0
  4 87  1  0  0  0
  4 88  1  0  0  0
  5  6  1  0  0  0
  5 26  1  0  0  0
  5 89  1  0  0  0
  6 25  1  0  0  0
  6 90  1  0  0  0
  6 91  1  0  0  0
  7  8  2  0  0  0
  7 26  1  0  0  0
  7 29  1  0  0  0
  8  9  1  0  0  0
  8 22  1  0  0  0
  9 10  1  0  0  0
  9 27  2  0  0  0
 10 11  2  0  0  0
 10 15  1  0  0  0
 11 12  1  0  0  0
 11 92  1  0  0  0
 12 13  2  0  0  0
 12 93  1  0  0  0
 13 14  1  0  0  0
 13 31  1  0  0  0
 14 15  2  0  0  0
 14 94  1  0  0  0
 15 95  1  0  0  0
 16 17  2  0  0  0
 16 21  1  0  0  0
 16 31  1  0  0  0
 17 18  1  0  0  0
 17 96  1  0  0  0
 18 19  2  0  0  0
 18 97  1  0  0  0
 19 20  1  0  0  0
 19 24  1  0  0  0
 20 21  2  0  0  0
 20 98  1  0  0  0
 21 23  1  0  0  0
 22 28  1  0  0  0
 22 32  2  0  0  0
 26 27  1  0  0  0
 28 99  1  0  0  0
 28100  1  0  0  0
 29101  1  0  0  0
 29102  1  0  0  0
 33 34  1  0  0  0
 33 66  1  0  0  0
 33 70  2  0  0  0
 34 36  1  0  0  0
 34 59  1  0  0  0
 34103  1  0  0  0
 35 44  2  0  0  0
 35 45  1  0  0  0
 35 68  1  0  0  0
 36 56  1  0  0  0
 36104  1  0  0  0
 37 39  1  0  0  0
 37 47  1  0  0  0
 37 66  1  0  0  0
 37105  1  0  0  0
 38 43  2  0  0  0
 38 46  1  0  0  0
 38 47  1  0  0  0
 39 64  1  0  0  0
 39 67  2  0  0  0
 40 52  1  0  0  0
 40 53  2  0  0  0
 40 58  1  0  0  0
 41106  1  0  0  0
 41107  1  0  0  0
 41108  1  0  0  0
 41 48  1  0  0  0
 42 43  1  0  0  0
 42 66  1  0  0  0
 42109  1  0  0  0
 42110  1  0  0  0
 43 44  1  0  0  0
 44111  1  0  0  0
 45 46  2  0  0  0
 45112  1  0  0  0
 46113  1  0  0  0
 47114  1  0  0  0
 47115  1  0  0  0
 48 56  1  0  0  0
 48 65  1  0  0  0
 48116  1  0  0  0
 49 50  1  0  0  0
 49 53  1  0  0  0
 49 64  1  0  0  0
 49117  1  0  0  0
 50 51  1  0  0  0
 50118  1  0  0  0
 50119  1  0  0  0
 51 52  1  0  0  0
 51120  1  0  0  0
 51121  1  0  0  0
 52122  1  0  0  0
 52123  1  0  0  0
 53 54  1  0  0  0
 54 55  2  0  0  0
 54124  1  0  0  0
 55 57  1  0  0  0
 55125  1  0  0  0
 56 69  2  0  0  0
 57 58  2  0  0  0
 57126  1  0  0  0
 58127  1  0  0  0
 59 60  1  0  0  0
 59 61  1  0  0  0
 59 62  1  0  0  0
 60128  1  0  0  0
 60129  1  0  0  0
 60130  1  0  0  0
 61131  1  0  0  0
 61132  1  0  0  0
 61133  1  0  0  0
 62134  1  0  0  0
 62135  1  0  0  0
 62136  1  0  0  0
 63 65  1  0  0  0
 63137  1  0  0  0
 63138  1  0  0  0
 63139  1  0  0  0
 64140  1  0  0  0
 65141  1  0  0  0
 68 77  1  0  0  0
 71 73  2  0  0  0
 71 74  1  0  0  0
 71142  1  0  0  0
 72 74  2  0  0  0
 72 75  1  0  0  0
 72143  1  0  0  0
 73 80  1  0  0  0
 73144  1  0  0  0
 74 76  1  0  0  0
 75 77  1  0  0  0
 75 80  2  0  0  0
 76 82  1  0  0  0
 76145  1  0  0  0
 76146  1  0  0  0
 77147  1  0  0  0
 77148  1  0  0  0
 78 79  1  0  0  0
 78 81  1  0  0  0
 78149  1  0  0  0
 78150  1  0  0  0
 79 82  1  0  0  0
 79151  1  0  0  0
 79152  1  0  0  0
 81153  1  0  0  0
 82154  1  0  0  0
 82155  1  0  0  0
M  CHG  1  82   1
M  ISO  4   1 100  68 101  77 101  81 100
M  END
> <chiral flag>
0

> <version>
0

> <s_m_source_file>
/data/baiqing/PycharmProjects/Reinvent-master-3.2/result/LINK_invent/BTK/process_docking_weight1_custom_sum_contain_oxygen_bond_distance_aromatic_linkinvent_7_9_3/rearranged_h_0120.sdf

> <i_m_source_file_index>
8

> <r_mmod_Potential_Energy-OPLS-2005>
-454.30029296875

> <r_mmod_Stretch_Energy-OPLS-2005>
50.9880905151367

> <r_mmod_Bend_Energy-OPLS-2005>
113.121612548828

> <r_mmod_Torsional_Energy-OPLS-2005>
229.032241821289

> <r_mmod_Improper_Torsional_Energy-OPLS-2005>
4.06486368179321

> <r_mmod_Van_der_Waal_Energy-OPLS-2005>
141.332107543945

> <r_mmod_Electrostatic_Energy-OPLS-2005>
-482.066314697266

> <r_mmod_Solvation_Energy-OPLS-2005>
-533.133666992188

> <b_mmod_Minimization_Converged-OPLS-2005>
0

> <r_mmod_RMS_Derivative-OPLS-2005>
2.73086595535278

$$$$
8
                    3D
 Structure written by MMmdl.
167176  0  0  1  0            999 V2000
  -30.7008  -14.6781   20.4783 C   0  0  0  0  0  0
  -30.4053  -12.4293   19.4551 C   0  0  0  0  0  0
  -29.4853  -12.4915   18.2203 C   0  0  0  0  0  0
  -28.0166  -12.3130   18.6451 C   0  0  0  0  0  0
  -27.6335  -13.2113   19.8498 C   0  0  2  0  0  0
  -28.6886  -13.1402   20.9807 C   0  0  0  0  0  0
  -25.2474  -13.8143   20.5679 C   0  0  0  0  0  0
  -24.1762  -13.0414   20.9209 C   0  0  0  0  0  0
  -24.6346  -11.6887   20.8787 C   0  0  0  0  0  0
  -23.9026  -10.4276   21.0437 C   0  0  0  0  0  0
  -24.3592   -9.4192   21.9202 C   0  0  0  0  0  0
  -23.6277   -8.2225   22.0759 C   0  0  0  0  0  0
  -22.4263   -8.0264   21.3541 C   0  0  0  0  0  0
  -21.9894   -9.0238   20.4645 C   0  0  0  0  0  0
  -22.7212  -10.2120   20.3070 C   0  0  0  0  0  0
  -21.6840   -6.0726   22.5281 C   0  0  0  0  0  0
  -21.4010   -6.5635   23.8212 C   0  0  0  0  0  0
  -21.3656   -5.6792   24.9175 C   0  0  0  0  0  0
  -21.6044   -4.3054   24.7230 C   0  0  0  0  0  0
  -21.8820   -3.8142   23.4354 C   0  0  0  0  0  0
  -21.9188   -4.6954   22.3408 C   0  0  0  0  0  0
  -22.7791  -13.5213   21.1862 C   0  0  0  0  0  0
  -22.1661   -4.2140   21.0985 F   0  0  0  0  0  0
  -21.5630   -3.4544   25.7745 F   0  0  0  0  0  0
  -29.9757  -13.5081   20.3807 N   0  0  0  0  0  0
  -26.2887  -12.9312   20.3323 N   0  0  0  0  0  0
  -25.9269  -11.6476   20.5820 N   0  0  0  0  0  0
  -22.0443  -12.8213   22.0425 N   0  0  0  0  0  0
  -25.4142  -15.1857   20.4024 N   0  0  0  0  0  0
  -31.9010  -14.6223   20.1920 O   0  0  0  0  0  0
  -21.6627   -6.8865   21.4240 O   0  0  0  0  0  0
  -22.3480  -14.5521   20.6705 O   0  0  0  0  0  0
  -24.6219  -31.8587   23.2006 C   0  0  0  0  0  0
  -25.9068  -32.4769   23.8332 C   0  0  1  0  0  0
  -27.2281  -27.3339   20.1190 C   0  0  0  0  0  0
  -25.5884  -33.8571   24.2257 N   0  0  0  0  0  0
  -23.4153  -30.4788   21.5422 C   0  0  2  0  0  0
  -24.8615  -28.9284   20.1092 C   0  0  0  0  0  0
  -22.7447  -29.4611   22.4943 C   0  0  0  0  0  0
  -18.0279  -28.1382   22.8491 C   0  0  0  0  0  0
  -24.1485  -36.7308   23.2642 C   0  0  0  0  0  0
  -25.9504  -30.7931   21.3672 C   0  0  0  0  0  0
  -26.0240  -29.4202   20.7138 C   0  0  0  0  0  0
  -27.2061  -28.6314   20.7106 C   0  0  0  0  0  0
  -26.0471  -26.8816   19.4930 C   0  0  0  0  0  0
  -24.8736  -27.6647   19.4918 C   0  0  0  0  0  0
  -23.6277  -29.8058   20.1588 C   0  0  0  0  0  0
  -25.4108  -36.3080   24.0330 C   0  0  1  0  0  0
  -20.5874  -28.3685   23.1306 C   0  0  2  0  0  0
  -20.6774  -26.9411   22.5425 C   0  0  0  0  0  0
  -19.5758  -26.6380   21.5221 C   0  0  0  0  0  0
  -18.1935  -26.7924   22.1627 C   0  0  0  0  0  0
  -19.1530  -28.8851   23.2894 C   0  0  0  0  0  0
  -18.9450  -30.1453   23.8910 C   0  0  0  0  0  0
  -17.6453  -30.6589   24.0571 C   0  0  0  0  0  0
  -25.9044  -34.9448   23.5104 C   0  0  0  0  0  0
  -16.5345  -29.9093   23.6325 C   0  0  0  0  0  0
  -16.7268  -28.6508   23.0353 C   0  0  0  0  0  0
  -26.4466  -31.6587   25.0707 C   0  0  0  0  0  0
  -25.3711  -31.3722   26.1445 C   0  0  0  0  0  0
  -27.0310  -30.3014   24.6151 C   0  0  0  0  0  0
  -27.6021  -32.4330   25.7482 C   0  0  0  0  0  0
  -27.5579  -37.1809   24.8463 C   0  0  0  0  0  0
  -21.4161  -29.3046   22.3701 N   0  0  0  0  0  0
  -26.4290  -37.3776   23.9407 N   0  0  0  0  0  0
  -24.6811  -31.0610   22.0941 N   0  0  0  0  0  0
  -23.4177  -28.8156   23.3018 O   0  0  0  0  0  0
  -28.3832  -26.5535   20.1957 O   0  0  0  0  0  0
  -26.5634  -34.8919   22.4686 O   0  0  0  0  0  0
  -23.5391  -32.1386   23.7343 O   0  0  0  0  0  0
  -28.3423  -22.1866   22.2920 C   0  0  0  0  0  0
  -28.2032  -22.6251   20.9473 C   0  0  0  0  0  0
  -28.6770  -20.8607   22.3433 C   0  0  0  0  0  0
  -28.5376  -21.5004   20.1966 C   0  0  0  0  0  0
  -28.3183  -17.8063   21.0920 C   0  0  0  0  0  0
  -30.6315  -18.5280   21.0269 C   0  0  0  0  0  0
  -28.7123  -16.3741   20.5633 C   0  0  0  0  0  0
  -31.0590  -17.1228   20.4900 C   0  0  0  0  0  0
  -29.2183  -18.9730   20.6050 C   0  0  0  0  0  0
  -28.8198  -20.0416   23.5901 C   0  0  0  0  0  0
  -28.5709  -21.3705   18.7068 C   0  0  0  0  0  0
  -29.9756  -24.8334   19.7970 C   0  0  0  0  0  0
  -27.6469  -24.0531   20.5803 C   0  0  0  0  0  0
  -28.4731  -25.1424   19.7744 C   0  0  1  0  0  0
  -28.8273  -20.3833   21.0362 N   0  0  0  0  0  0
  -30.1384  -15.9502   20.6783 N   0  0  0  0  0  0
  -31.4463  -12.5148   19.1400 H   0  0  0  0  0  0
  -30.3318  -11.4553   19.9412 H   0  0  0  0  0  0
  -29.7619  -11.7186   17.5016 H   0  0  0  0  0  0
  -29.6110  -13.4462   17.7060 H   0  0  0  0  0  0
  -27.8763  -11.2635   18.9079 H   0  0  0  0  0  0
  -27.3522  -12.5073   17.8019 H   0  0  0  0  0  0
  -27.6170  -14.2180   19.4424 H   0  0  0  0  0  0
  -28.7354  -12.1293   21.3882 H   0  0  0  0  0  0
  -28.4437  -13.7729   21.8322 H   0  0  0  0  0  0
  -25.2742   -9.5668   22.4770 H   0  0  0  0  0  0
  -23.9986   -7.4617   22.7482 H   0  0  0  0  0  0
  -21.0824   -8.8753   19.8950 H   0  0  0  0  0  0
  -22.3680  -10.9660   19.6176 H   0  0  0  0  0  0
  -21.2009   -7.6147   23.9712 H   0  0  0  0  0  0
  -21.1474   -6.0524   25.9074 H   0  0  0  0  0  0
  -22.0604   -2.7604   23.2858 H   0  0  0  0  0  0
  -22.4056  -11.9876   22.4820 H   0  0  0  0  0  0
  -21.1068  -13.1241   22.2644 H   0  0  0  0  0  0
  -24.6444  -15.8378   20.5074 H   0  0  0  0  0  0
  -26.2634  -15.6250   20.0741 H   0  0  0  0  0  0
  -26.7131  -32.5443   23.1077 H   0  0  0  0  0  0
  -24.9965  -33.9712   25.0356 H   0  0  0  0  0  0
  -22.7082  -31.2981   21.3959 H   0  0  0  0  0  0
  -23.3742  -35.9651   23.3303 H   0  0  0  0  0  0
  -24.3567  -36.8933   22.2054 H   0  0  0  0  0  0
  -23.7247  -37.6512   23.6671 H   0  0  0  0  0  0
  -26.0754  -31.5528   20.5946 H   0  0  0  0  0  0
  -26.8340  -30.8465   21.9922 H   0  0  0  0  0  0
  -28.1008  -29.0020   21.1912 H   0  0  0  0  0  0
  -26.0121  -25.9146   19.0139 H   0  0  0  0  0  0
  -23.9794  -27.2836   19.0182 H   0  0  0  0  0  0
  -23.7430  -30.5785   19.3980 H   0  0  0  0  0  0
  -22.7488  -29.2304   19.8628 H   0  0  0  0  0  0
  -25.1288  -36.1928   25.0825 H   0  0  0  0  0  0
  -20.9961  -28.3260   24.1429 H   0  0  0  0  0  0
  -20.5673  -26.2298   23.3621 H   0  0  0  0  0  0
  -21.6646  -26.7443   22.1224 H   0  0  0  0  0  0
  -19.6926  -25.6292   21.1253 H   0  0  0  0  0  0
  -19.6698  -27.3191   20.6752 H   0  0  0  0  0  0
  -17.4204  -26.6674   21.4026 H   0  0  0  0  0  0
  -18.0334  -26.0060   22.9018 H   0  0  0  0  0  0
  -19.7925  -30.7268   24.2286 H   0  0  0  0  0  0
  -17.5008  -31.6268   24.5173 H   0  0  0  0  0  0
  -15.5353  -30.3007   23.7635 H   0  0  0  0  0  0
  -15.8664  -28.0833   22.7067 H   0  0  0  0  0  0
  -24.5872  -30.7083   25.7776 H   0  0  0  0  0  0
  -24.8920  -32.2889   26.4891 H   0  0  0  0  0  0
  -25.8043  -30.8878   27.0202 H   0  0  0  0  0  0
  -26.2872  -29.6766   24.1188 H   0  0  0  0  0  0
  -27.4021  -29.7265   25.4643 H   0  0  0  0  0  0
  -27.8730  -30.4305   23.9351 H   0  0  0  0  0  0
  -27.2608  -33.3613   26.2076 H   0  0  0  0  0  0
  -28.3818  -32.6920   25.0309 H   0  0  0  0  0  0
  -28.0704  -31.8452   26.5386 H   0  0  0  0  0  0
  -28.2597  -38.0106   24.7499 H   0  0  0  0  0  0
  -28.1073  -36.2635   24.6296 H   0  0  0  0  0  0
  -27.2298  -37.1461   25.8867 H   0  0  0  0  0  0
  -20.9331  -29.8773   21.6920 H   0  0  0  0  0  0
  -26.0172  -38.2854   24.1410 H   0  0  0  0  0  0
  -28.1495  -22.7900   23.1695 H   0  0  0  0  0  0
  -28.3359  -17.7561   22.1777 H   0  0  0  0  0  0
  -27.2821  -18.0167   20.8232 H   0  0  0  0  0  0
  -31.3551  -19.2744   20.6971 H   0  0  0  0  0  0
  -30.7160  -18.5020   22.1090 H   0  0  0  0  0  0
  -28.4464  -16.3127   19.5074 H   0  0  0  0  0  0
  -28.0667  -15.6894   21.0991 H   0  0  0  0  0  0
  -32.0288  -16.9157   20.9463 H   0  0  0  0  0  0
  -31.2496  -17.2132   19.4193 H   0  0  0  0  0  0
  -29.1905  -18.9527   19.5165 H   0  0  0  0  0  0
  -28.7198  -20.6764   24.4711 H   0  0  0  0  0  0
  -29.7898  -19.5612   23.6736 H   0  0  0  0  0  0
  -28.0362  -19.2898   23.6697 H   0  0  0  0  0  0
  -28.3330  -22.3187   18.2252 H   0  0  0  0  0  0
  -27.8457  -20.6344   18.3596 H   0  0  0  0  0  0
  -29.5593  -21.0669   18.3614 H   0  0  0  0  0  0
  -30.1877  -23.8412   19.3993 H   0  0  0  0  0  0
  -30.3679  -24.8761   20.8136 H   0  0  0  0  0  0
  -30.5327  -25.5501   19.1935 H   0  0  0  0  0  0
  -27.3834  -24.5154   21.5317 H   0  0  0  0  0  0
  -26.6887  -23.9058   20.0809 H   0  0  0  0  0  0
  -28.1699  -25.0824   18.7279 H   0  0  0  0  0  0
  1 25  1  0  0  0
  1 30  2  0  0  0
  1 86  1  0  0  0
  2  3  1  0  0  0
  2 25  1  0  0  0
  2 87  1  0  0  0
  2 88  1  0  0  0
  3  4  1  0  0  0
  3 89  1  0  0  0
  3 90  1  0  0  0
  4  5  1  0  0  0
  4 91  1  0  0  0
  4 92  1  0  0  0
  5  6  1  0  0  0
  5 26  1  0  0  0
  5 93  1  0  0  0
  6 25  1  0  0  0
  6 94  1  0  0  0
  6 95  1  0  0  0
  7  8  2  0  0  0
  7 26  1  0  0  0
  7 29  1  0  0  0
  8  9  1  0  0  0
  8 22  1  0  0  0
  9 10  1  0  0  0
  9 27  2  0  0  0
 10 11  2  0  0  0
 10 15  1  0  0  0
 11 12  1  0  0  0
 11 96  1  0  0  0
 12 13  2  0  0  0
 12 97  1  0  0  0
 13 14  1  0  0  0
 13 31  1  0  0  0
 14 15  2  0  0  0
 14 98  1  0  0  0
 15 99  1  0  0  0
 16 17  2  0  0  0
 16 21  1  0  0  0
 16 31  1  0  0  0
 17 18  1  0  0  0
 17100  1  0  0  0
 18 19  2  0  0  0
 18101  1  0  0  0
 19 20  1  0  0  0
 19 24  1  0  0  0
 20 21  2  0  0  0
 20102  1  0  0  0
 21 23  1  0  0  0
 22 28  1  0  0  0
 22 32  2  0  0  0
 26 27  1  0  0  0
 28103  1  0  0  0
 28104  1  0  0  0
 29105  1  0  0  0
 29106  1  0  0  0
 33 34  1  0  0  0
 33 66  1  0  0  0
 33 70  2  0  0  0
 34 36  1  0  0  0
 34 59  1  0  0  0
 34107  1  0  0  0
 35 44  2  0  0  0
 35 45  1  0  0  0
 35 68  1  0  0  0
 36 56  1  0  0  0
 36108  1  0  0  0
 37 39  1  0  0  0
 37 47  1  0  0  0
 37 66  1  0  0  0
 37109  1  0  0  0
 38 43  2  0  0  0
 38 46  1  0  0  0
 38 47  1  0  0  0
 39 64  1  0  0  0
 39 67  2  0  0  0
 40 52  1  0  0  0
 40 53  2  0  0  0
 40 58  1  0  0  0
 41110  1  0  0  0
 41111  1  0  0  0
 41112  1  0  0  0
 41 48  1  0  0  0
 42 43  1  0  0  0
 42 66  1  0  0  0
 42113  1  0  0  0
 42114  1  0  0  0
 43 44  1  0  0  0
 44115  1  0  0  0
 45 46  2  0  0  0
 45116  1  0  0  0
 46117  1  0  0  0
 47118  1  0  0  0
 47119  1  0  0  0
 48 56  1  0  0  0
 48 65  1  0  0  0
 48120  1  0  0  0
 49 50  1  0  0  0
 49 53  1  0  0  0
 49 64  1  0  0  0
 49121  1  0  0  0
 50 51  1  0  0  0
 50122  1  0  0  0
 50123  1  0  0  0
 51 52  1  0  0  0
 51124  1  0  0  0
 51125  1  0  0  0
 52126  1  0  0  0
 52127  1  0  0  0
 53 54  1  0  0  0
 54 55  2  0  0  0
 54128  1  0  0  0
 55 57  1  0  0  0
 55129  1  0  0  0
 56 69  2  0  0  0
 57 58  2  0  0  0
 57130  1  0  0  0
 58131  1  0  0  0
 59 60  1  0  0  0
 59 61  1  0  0  0
 59 62  1  0  0  0
 60132  1  0  0  0
 60133  1  0  0  0
 60134  1  0  0  0
 61135  1  0  0  0
 61136  1  0  0  0
 61137  1  0  0  0
 62138  1  0  0  0
 62139  1  0  0  0
 62140  1  0  0  0
 63 65  1  0  0  0
 63141  1  0  0  0
 63142  1  0  0  0
 63143  1  0  0  0
 64144  1  0  0  0
 65145  1  0  0  0
 68 84  1  0  0  0
 71 72  1  0  0  0
 71 73  2  0  0  0
 71146  1  0  0  0
 72 74  2  0  0  0
 72 83  1  0  0  0
 73 80  1  0  0  0
 73 85  1  0  0  0
 74 81  1  0  0  0
 74 85  1  0  0  0
 75 77  1  0  0  0
 75 79  1  0  0  0
 75147  1  0  0  0
 75148  1  0  0  0
 76 78  1  0  0  0
 76 79  1  0  0  0
 76149  1  0  0  0
 76150  1  0  0  0
 77 86  1  0  0  0
 77151  1  0  0  0
 77152  1  0  0  0
 78 86  1  0  0  0
 78153  1  0  0  0
 78154  1  0  0  0
 79 85  1  0  0  0
 79155  1  0  0  0
 80156  1  0  0  0
 80157  1  0  0  0
 80158  1  0  0  0
 81159  1  0  0  0
 81160  1  0  0  0
 81161  1  0  0  0
 82162  1  0  0  0
 82163  1  0  0  0
 82164  1  0  0  0
 82 84  1  0  0  0
 83 84  1  0  0  0
 83165  1  0  0  0
 83166  1  0  0  0
 84167  1  0  0  0
M  ISO  4   1 100  68 101  84 101  86 100
M  END
> <chiral flag>
0

> <version>
0

> <s_m_source_file>
/data/baiqing/PycharmProjects/Reinvent-master-3.2/result/LINK_invent/BTK/process_docking_weight1_custom_sum_contain_oxygen_bond_distance_aromatic_linkinvent_7_9_3/rearranged_h_0120.sdf

> <i_m_source_file_index>
9

> <r_mmod_Potential_Energy-OPLS-2005>
307.165313720703

> <r_mmod_Stretch_Energy-OPLS-2005>
89.7687530517578

> <r_mmod_Bend_Energy-OPLS-2005>
210.069091796875

> <r_mmod_Torsional_Energy-OPLS-2005>
318.742431640625

> <r_mmod_Improper_Torsional_Energy-OPLS-2005>
6.1932373046875

> <r_mmod_Van_der_Waal_Energy-OPLS-2005>
131.753646850586

> <r_mmod_Electrostatic_Energy-OPLS-2005>
-304.298217773438

> <r_mmod_Solvation_Energy-OPLS-2005>
-202.059387207031

> <b_mmod_Minimization_Converged-OPLS-2005>
0

> <r_mmod_RMS_Derivative-OPLS-2005>
1.10030472278595

$$$$
9
                    3D
 Structure written by MMmdl.
180188  0  0  1  0            999 V2000
  -30.7346  -14.4579   20.5482 C   0  0  0  0  0  0
  -30.4172  -12.2986   19.4210 C   0  0  0  0  0  0
  -29.4907  -12.4797   18.2047 C   0  0  0  0  0  0
  -28.0092  -12.3667   18.6177 C   0  0  0  0  0  0
  -27.6559  -13.2141   19.8681 C   0  0  2  0  0  0
  -28.7066  -13.0177   20.9863 C   0  0  0  0  0  0
  -25.2540  -13.8162   20.5750 C   0  0  0  0  0  0
  -24.1820  -13.0444   20.9235 C   0  0  0  0  0  0
  -24.6362  -11.6887   20.8752 C   0  0  0  0  0  0
  -23.9027  -10.4272   21.0385 C   0  0  0  0  0  0
  -24.3565   -9.4185   21.9168 C   0  0  0  0  0  0
  -23.6262   -8.2205   22.0734 C   0  0  0  0  0  0
  -22.4262   -8.0233   21.3521 C   0  0  0  0  0  0
  -21.9864   -9.0195   20.4629 C   0  0  0  0  0  0
  -22.7173  -10.2082   20.3041 C   0  0  0  0  0  0
  -21.6817   -6.0691   22.5276 C   0  0  0  0  0  0
  -21.4012   -6.5609   23.8211 C   0  0  0  0  0  0
  -21.3683   -5.6770   24.9169 C   0  0  0  0  0  0
  -21.6037   -4.3036   24.7219 C   0  0  0  0  0  0
  -21.8834   -3.8112   23.4349 C   0  0  0  0  0  0
  -21.9183   -4.6924   22.3396 C   0  0  0  0  0  0
  -22.7818  -13.5211   21.1830 C   0  0  0  0  0  0
  -22.1646   -4.2118   21.0970 F   0  0  0  0  0  0
  -21.5608   -3.4524   25.7739 F   0  0  0  0  0  0
  -30.0324  -13.3024   20.4221 N   0  0  0  0  0  0
  -26.2999  -12.9357   20.3352 N   0  0  0  0  0  0
  -25.9305  -11.6506   20.5760 N   0  0  0  0  0  0
  -22.0418  -12.8269   22.0391 N   0  0  0  0  0  0
  -25.4153  -15.1935   20.4186 N   0  0  0  0  0  0
  -31.8646  -14.6053   20.0768 O   0  0  0  0  0  0
  -21.6613   -6.8839   21.4233 O   0  0  0  0  0  0
  -22.3501  -14.5483   20.6606 O   0  0  0  0  0  0
  -24.6122  -31.8689   23.2056 C   0  0  0  0  0  0
  -25.9030  -32.4814   23.8348 C   0  0  1  0  0  0
  -27.2369  -27.4332   20.0615 C   0  0  0  0  0  0
  -25.5919  -33.8620   24.2347 N   0  0  0  0  0  0
  -23.4016  -30.4914   21.5464 C   0  0  2  0  0  0
  -24.8463  -28.9558   20.1111 C   0  0  0  0  0  0
  -22.7413  -29.4653   22.4983 C   0  0  0  0  0  0
  -18.0287  -28.1335   22.8480 C   0  0  0  0  0  0
  -24.1505  -36.7288   23.2634 C   0  0  0  0  0  0
  -25.9295  -30.8243   21.3659 C   0  0  0  0  0  0
  -26.0034  -29.4571   20.7145 C   0  0  0  0  0  0
  -27.1932  -28.6928   20.7057 C   0  0  0  0  0  0
  -26.0583  -26.9521   19.4498 C   0  0  0  0  0  0
  -24.8666  -27.7002   19.4790 C   0  0  0  0  0  0
  -23.6092  -29.8214   20.1620 C   0  0  0  0  0  0
  -25.4120  -36.3105   24.0343 C   0  0  1  0  0  0
  -20.5874  -28.3624   23.1322 C   0  0  2  0  0  0
  -20.6771  -26.9381   22.5345 C   0  0  0  0  0  0
  -19.5746  -26.6393   21.5142 C   0  0  0  0  0  0
  -18.1930  -26.7915   22.1567 C   0  0  0  0  0  0
  -19.1537  -28.8791   23.2905 C   0  0  0  0  0  0
  -18.9458  -30.1391   23.8935 C   0  0  0  0  0  0
  -17.6464  -30.6533   24.0582 C   0  0  0  0  0  0
  -25.9044  -34.9482   23.5152 C   0  0  0  0  0  0
  -16.5345  -29.9045   23.6304 C   0  0  0  0  0  0
  -16.7276  -28.6449   23.0336 C   0  0  0  0  0  0
  -26.4475  -31.6561   25.0652 C   0  0  0  0  0  0
  -25.3742  -31.3617   26.1394 C   0  0  0  0  0  0
  -27.0292  -30.3016   24.5982 C   0  0  0  0  0  0
  -27.6082  -32.4258   25.7387 C   0  0  0  0  0  0
  -27.5595  -37.1804   24.8478 C   0  0  0  0  0  0
  -21.4146  -29.3015   22.3751 N   0  0  0  0  0  0
  -26.4312  -37.3788   23.9421 N   0  0  0  0  0  0
  -24.6656  -31.0796   22.0959 N   0  0  0  0  0  0
  -23.4202  -28.8204   23.3014 O   0  0  0  0  0  0
  -28.4268  -26.7333   20.0642 O   0  0  0  0  0  0
  -26.5565  -34.8955   22.4700 O   0  0  0  0  0  0
  -23.5323  -32.1445   23.7433 O   0  0  0  0  0  0
  -23.9164  -21.5810   21.8363 C   0  0  0  0  0  0
  -25.1177  -22.1420   22.0587 C   0  0  0  0  0  0
  -23.6571  -20.0879   21.9523 C   0  0  0  0  0  0
  -26.3506  -21.3472   22.4442 C   0  0  0  0  0  0
  -24.8410  -19.3225   22.5724 C   0  0  0  0  0  0
  -26.2005  -19.8539   22.0777 C   0  0  2  0  0  0
  -27.6417  -21.4881   17.5693 C   0  0  0  0  0  0
  -28.1179  -24.3098   19.3904 C   0  0  0  0  0  0
  -29.0198  -23.1394   18.9164 C   0  0  0  0  0  0
  -30.2146  -17.9339   20.4085 C   0  0  0  0  0  0
  -30.7038  -16.8112   21.3598 C   0  0  0  0  0  0
  -29.2107  -20.5882   19.3375 C   0  0  0  0  0  0
  -28.6470  -19.2165   22.0594 C   0  0  0  0  0  0
  -28.6868  -25.7194   19.0781 C   0  0  0  0  0  0
  -28.2973  -21.7699   18.9271 C   0  0  2  0  0  0
  -28.8001  -18.5086   20.6813 C   0  0  1  0  0  0
  -30.0948  -15.4917   21.1165 N   0  0  0  0  0  0
  -28.3798  -19.4052   19.5987 N   0  0  0  0  0  0
  -27.3015  -19.0520   22.6553 N   0  3  0  0  0  0
  -31.4619  -12.3865   19.1161 H   0  0  0  0  0  0
  -30.3096  -11.2990   19.8457 H   0  0  0  0  0  0
  -29.7275  -11.7415   17.4395 H   0  0  0  0  0  0
  -29.6720  -13.4553   17.7504 H   0  0  0  0  0  0
  -27.8082  -11.3161   18.8222 H   0  0  0  0  0  0
  -27.3652  -12.6480   17.7844 H   0  0  0  0  0  0
  -27.6855  -14.2580   19.5632 H   0  0  0  0  0  0
  -28.6890  -11.9896   21.3473 H   0  0  0  0  0  0
  -28.4851  -13.6401   21.8551 H   0  0  0  0  0  0
  -25.2687   -9.5658   22.4752 H   0  0  0  0  0  0
  -23.9963   -7.4618   22.7483 H   0  0  0  0  0  0
  -21.0764   -8.8709   19.8973 H   0  0  0  0  0  0
  -22.3610  -10.9621   19.6173 H   0  0  0  0  0  0
  -21.2030   -7.6129   23.9722 H   0  0  0  0  0  0
  -21.1487   -6.0475   25.9083 H   0  0  0  0  0  0
  -22.0606   -2.7577   23.2846 H   0  0  0  0  0  0
  -22.4018  -12.0029   22.4977 H   0  0  0  0  0  0
  -21.1021  -13.1316   22.2530 H   0  0  0  0  0  0
  -24.6036  -15.7988   20.4649 H   0  0  0  0  0  0
  -26.2174  -15.6364   19.9898 H   0  0  0  0  0  0
  -26.7085  -32.5558   23.1096 H   0  0  0  0  0  0
  -25.0131  -33.9806   25.0531 H   0  0  0  0  0  0
  -22.6830  -31.3025   21.4055 H   0  0  0  0  0  0
  -23.3791  -35.9598   23.3283 H   0  0  0  0  0  0
  -24.3595  -36.8889   22.2046 H   0  0  0  0  0  0
  -23.7248  -37.6496   23.6627 H   0  0  0  0  0  0
  -26.0527  -31.5892   20.5979 H   0  0  0  0  0  0
  -26.8145  -30.8736   21.9882 H   0  0  0  0  0  0
  -28.0863  -29.0785   21.1777 H   0  0  0  0  0  0
  -26.0395  -26.0106   18.9274 H   0  0  0  0  0  0
  -23.9804  -27.3157   18.9929 H   0  0  0  0  0  0
  -23.7092  -30.5909   19.3955 H   0  0  0  0  0  0
  -22.7367  -29.2307   19.8733 H   0  0  0  0  0  0
  -25.1313  -36.1945   25.0826 H   0  0  0  0  0  0
  -20.9953  -28.3151   24.1459 H   0  0  0  0  0  0
  -20.5678  -26.2205   23.3495 H   0  0  0  0  0  0
  -21.6641  -26.7430   22.1138 H   0  0  0  0  0  0
  -19.6908  -25.6329   21.1117 H   0  0  0  0  0  0
  -19.6679  -27.3257   20.6721 H   0  0  0  0  0  0
  -17.4221  -26.6703   21.3934 H   0  0  0  0  0  0
  -18.0288  -26.0007   22.8900 H   0  0  0  0  0  0
  -19.7925  -30.7178   24.2347 H   0  0  0  0  0  0
  -17.5003  -31.6228   24.5175 H   0  0  0  0  0  0
  -15.5327  -30.2941   23.7633 H   0  0  0  0  0  0
  -15.8673  -28.0777   22.7030 H   0  0  0  0  0  0
  -24.5978  -30.6904   25.7705 H   0  0  0  0  0  0
  -24.8859  -32.2732   26.4845 H   0  0  0  0  0  0
  -25.8117  -30.8788   27.0141 H   0  0  0  0  0  0
  -26.2785  -29.6771   24.1123 H   0  0  0  0  0  0
  -27.4178  -29.7256   25.4386 H   0  0  0  0  0  0
  -27.8588  -30.4356   23.9036 H   0  0  0  0  0  0
  -27.2753  -33.3588   26.1966 H   0  0  0  0  0  0
  -28.3881  -32.6759   25.0167 H   0  0  0  0  0  0
  -28.0757  -31.8350   26.5286 H   0  0  0  0  0  0
  -28.2632  -38.0086   24.7552 H   0  0  0  0  0  0
  -28.1085  -36.2634   24.6284 H   0  0  0  0  0  0
  -27.2316  -37.1428   25.8881 H   0  0  0  0  0  0
  -20.9255  -29.8782   21.7059 H   0  0  0  0  0  0
  -26.0199  -38.2877   24.1394 H   0  0  0  0  0  0
  -23.0751  -22.2006   21.5532 H   0  0  0  0  0  0
  -25.2338  -23.2121   21.9690 H   0  0  0  0  0  0
  -23.4335  -19.7036   20.9574 H   0  0  0  0  0  0
  -22.7620  -19.9194   22.5467 H   0  0  0  0  0  0
  -26.5165  -21.4687   23.5173 H   0  0  0  0  0  0
  -27.2134  -21.7829   21.9428 H   0  0  0  0  0  0
  -24.7313  -18.2578   22.3583 H   0  0  0  0  0  0
  -24.8047  -19.4238   23.6584 H   0  0  0  0  0  0
  -26.2009  -19.7537   20.9915 H   0  0  0  0  0  0
  -27.0055  -22.3118   17.2560 H   0  0  0  0  0  0
  -27.0112  -20.5989   17.6170 H   0  0  0  0  0  0
  -28.3899  -21.3296   16.7922 H   0  0  0  0  0  0
  -27.9609  -24.2047   20.4664 H   0  0  0  0  0  0
  -27.1359  -24.1959   18.9345 H   0  0  0  0  0  0
  -29.8919  -23.1023   19.5698 H   0  0  0  0  0  0
  -29.4081  -23.3402   17.9174 H   0  0  0  0  0  0
  -30.2702  -17.5582   19.3828 H   0  0  0  0  0  0
  -30.9368  -18.7451   20.4638 H   0  0  0  0  0  0
  -30.5376  -17.0686   22.4024 H   0  0  0  0  0  0
  -31.7906  -16.7560   21.2717 H   0  0  0  0  0  0
  -29.7804  -20.8771   20.2220 H   0  0  0  0  0  0
  -29.9418  -20.3672   18.5539 H   0  0  0  0  0  0
  -28.9317  -20.2659   22.0273 H   0  0  0  0  0  0
  -29.3300  -18.7885   22.7873 H   0  0  0  0  0  0
  -28.3810  -26.0614   18.0866 H   0  0  0  0  0  0
  -29.7755  -25.6504   19.0342 H   0  0  0  0  0  0
  -27.5059  -21.8412   19.6702 H   0  0  0  0  0  0
  -28.1089  -17.6638   20.6474 H   0  0  0  0  0  0
  -29.1591  -15.3326   21.4592 H   0  0  0  0  0  0
  -28.2821  -18.8893   18.7282 H   0  0  0  0  0  0
  -27.0522  -18.0780   22.6082 H   0  0  0  0  0  0
  -27.3720  -19.2965   23.6283 H   0  0  0  0  0  0
  1 25  1  0  0  0
  1 30  2  0  0  0
  1 87  1  0  0  0
  2  3  1  0  0  0
  2 25  1  0  0  0
  2 90  1  0  0  0
  2 91  1  0  0  0
  3  4  1  0  0  0
  3 92  1  0  0  0
  3 93  1  0  0  0
  4  5  1  0  0  0
  4 94  1  0  0  0
  4 95  1  0  0  0
  5  6  1  0  0  0
  5 26  1  0  0  0
  5 96  1  0  0  0
  6 25  1  0  0  0
  6 97  1  0  0  0
  6 98  1  0  0  0
  7  8  2  0  0  0
  7 26  1  0  0  0
  7 29  1  0  0  0
  8  9  1  0  0  0
  8 22  1  0  0  0
  9 10  1  0  0  0
  9 27  2  0  0  0
 10 11  2  0  0  0
 10 15  1  0  0  0
 11 12  1  0  0  0
 11 99  1  0  0  0
 12 13  2  0  0  0
 12100  1  0  0  0
 13 14  1  0  0  0
 13 31  1  0  0  0
 14 15  2  0  0  0
 14101  1  0  0  0
 15102  1  0  0  0
 16 17  2  0  0  0
 16 21  1  0  0  0
 16 31  1  0  0  0
 17 18  1  0  0  0
 17103  1  0  0  0
 18 19  2  0  0  0
 18104  1  0  0  0
 19 20  1  0  0  0
 19 24  1  0  0  0
 20 21  2  0  0  0
 20105  1  0  0  0
 21 23  1  0  0  0
 22 28  1  0  0  0
 22 32  2  0  0  0
 26 27  1  0  0  0
 28106  1  0  0  0
 28107  1  0  0  0
 29108  1  0  0  0
 29109  1  0  0  0
 33 34  1  0  0  0
 33 66  1  0  0  0
 33 70  2  0  0  0
 34 36  1  0  0  0
 34 59  1  0  0  0
 34110  1  0  0  0
 35 44  2  0  0  0
 35 45  1  0  0  0
 35 68  1  0  0  0
 36 56  1  0  0  0
 36111  1  0  0  0
 37 39  1  0  0  0
 37 47  1  0  0  0
 37 66  1  0  0  0
 37112  1  0  0  0
 38 43  2  0  0  0
 38 46  1  0  0  0
 38 47  1  0  0  0
 39 64  1  0  0  0
 39 67  2  0  0  0
 40 52  1  0  0  0
 40 53  2  0  0  0
 40 58  1  0  0  0
 41113  1  0  0  0
 41114  1  0  0  0
 41115  1  0  0  0
 41 48  1  0  0  0
 42 43  1  0  0  0
 42 66  1  0  0  0
 42116  1  0  0  0
 42117  1  0  0  0
 43 44  1  0  0  0
 44118  1  0  0  0
 45 46  2  0  0  0
 45119  1  0  0  0
 46120  1  0  0  0
 47121  1  0  0  0
 47122  1  0  0  0
 48 56  1  0  0  0
 48 65  1  0  0  0
 48123  1  0  0  0
 49 50  1  0  0  0
 49 53  1  0  0  0
 49 64  1  0  0  0
 49124  1  0  0  0
 50 51  1  0  0  0
 50125  1  0  0  0
 50126  1  0  0  0
 51 52  1  0  0  0
 51127  1  0  0  0
 51128  1  0  0  0
 52129  1  0  0  0
 52130  1  0  0  0
 53 54  1  0  0  0
 54 55  2  0  0  0
 54131  1  0  0  0
 55 57  1  0  0  0
 55132  1  0  0  0
 56 69  2  0  0  0
 57 58  2  0  0  0
 57133  1  0  0  0
 58134  1  0  0  0
 59 60  1  0  0  0
 59 61  1  0  0  0
 59 62  1  0  0  0
 60135  1  0  0  0
 60136  1  0  0  0
 60137  1  0  0  0
 61138  1  0  0  0
 61139  1  0  0  0
 61140  1  0  0  0
 62141  1  0  0  0
 62142  1  0  0  0
 62143  1  0  0  0
 63 65  1  0  0  0
 63144  1  0  0  0
 63145  1  0  0  0
 63146  1  0  0  0
 64147  1  0  0  0
 65148  1  0  0  0
 68 84  1  0  0  0
 71 72  2  0  0  0
 71 73  1  0  0  0
 71149  1  0  0  0
 72 74  1  0  0  0
 72150  1  0  0  0
 73 75  1  0  0  0
 73151  1  0  0  0
 73152  1  0  0  0
 74 76  1  0  0  0
 74153  1  0  0  0
 74154  1  0  0  0
 75 76  1  0  0  0
 75155  1  0  0  0
 75156  1  0  0  0
 76 89  1  0  0  0
 76157  1  0  0  0
 77158  1  0  0  0
 77159  1  0  0  0
 77160  1  0  0  0
 77 85  1  0  0  0
 78 79  1  0  0  0
 78 84  1  0  0  0
 78161  1  0  0  0
 78162  1  0  0  0
 79 85  1  0  0  0
 79163  1  0  0  0
 79164  1  0  0  0
 80 81  1  0  0  0
 80165  1  0  0  0
 80166  1  0  0  0
 80 86  1  0  0  0
 81 87  1  0  0  0
 81167  1  0  0  0
 81168  1  0  0  0
 82 85  1  0  0  0
 82 88  1  0  0  0
 82169  1  0  0  0
 82170  1  0  0  0
 83 86  1  0  0  0
 83 89  1  0  0  0
 83171  1  0  0  0
 83172  1  0  0  0
 84173  1  0  0  0
 84174  1  0  0  0
 85175  1  0  0  0
 86 88  1  0  0  0
 86176  1  0  0  0
 87177  1  0  0  0
 88178  1  0  0  0
 89179  1  0  0  0
 89180  1  0  0  0
M  CHG  1  89   1
M  ISO  4   1 100  68 101  84 101  87 100
M  END
> <chiral flag>
0

> <version>
0

> <s_m_source_file>
/data/baiqing/PycharmProjects/Reinvent-master-3.2/result/LINK_invent/BTK/process_docking_weight1_custom_sum_contain_oxygen_bond_distance_aromatic_linkinvent_7_9_3/rearranged_h_0120.sdf

> <i_m_source_file_index>
10

> <r_mmod_Potential_Energy-OPLS-2005>
-174.494705200195

> <r_mmod_Stretch_Energy-OPLS-2005>
37.9905815124512

> <r_mmod_Bend_Energy-OPLS-2005>
118.916618347168

> <r_mmod_Torsional_Energy-OPLS-2005>
246.071395874023

> <r_mmod_Improper_Torsional_Energy-OPLS-2005>
3.44999432563782

> <r_mmod_Van_der_Waal_Energy-OPLS-2005>
138.930816650391

> <r_mmod_Electrostatic_Energy-OPLS-2005>
-290.141387939453

> <r_mmod_Solvation_Energy-OPLS-2005>
-444.130249023438

> <b_mmod_Minimization_Converged-OPLS-2005>
0

> <r_mmod_RMS_Derivative-OPLS-2005>
5.90182447433472

$$$$
10
                    3D
 Structure written by MMmdl.
162170  0  0  1  0            999 V2000
  -30.5926  -14.7341   20.4723 C   0  0  0  0  0  0
  -30.4462  -12.4501   19.4595 C   0  0  0  0  0  0
  -29.5132  -12.5033   18.2290 C   0  0  0  0  0  0
  -28.0375  -12.3291   18.6448 C   0  0  0  0  0  0
  -27.6461  -13.2222   19.8518 C   0  0  2  0  0  0
  -28.6944  -13.1326   20.9821 C   0  0  0  0  0  0
  -25.2526  -13.8171   20.5668 C   0  0  0  0  0  0
  -24.1808  -13.0437   20.9205 C   0  0  0  0  0  0
  -24.6388  -11.6907   20.8740 C   0  0  0  0  0  0
  -23.9059  -10.4289   21.0413 C   0  0  0  0  0  0
  -24.3613   -9.4201   21.9183 C   0  0  0  0  0  0
  -23.6292   -8.2233   22.0750 C   0  0  0  0  0  0
  -22.4270   -8.0272   21.3540 C   0  0  0  0  0  0
  -21.9908   -9.0245   20.4637 C   0  0  0  0  0  0
  -22.7238  -10.2130   20.3051 C   0  0  0  0  0  0
  -21.6852   -6.0727   22.5270 C   0  0  0  0  0  0
  -21.4018   -6.5634   23.8207 C   0  0  0  0  0  0
  -21.3663   -5.6787   24.9164 C   0  0  0  0  0  0
  -21.6050   -4.3048   24.7217 C   0  0  0  0  0  0
  -21.8825   -3.8141   23.4336 C   0  0  0  0  0  0
  -21.9197   -4.6954   22.3396 C   0  0  0  0  0  0
  -22.7830  -13.5220   21.1876 C   0  0  0  0  0  0
  -22.1661   -4.2144   21.0969 F   0  0  0  0  0  0
  -21.5637   -3.4534   25.7729 F   0  0  0  0  0  0
  -29.9943  -13.4978   20.3988 N   0  0  0  0  0  0
  -26.2955  -12.9358   20.3284 N   0  0  0  0  0  0
  -25.9315  -11.6520   20.5756 N   0  0  0  0  0  0
  -22.0480  -12.8188   22.0420 N   0  0  0  0  0  0
  -25.4254  -15.1885   20.4023 N   0  0  0  0  0  0
  -31.7836  -14.8804   20.1852 O   0  0  0  0  0  0
  -21.6638   -6.8864   21.4230 O   0  0  0  0  0  0
  -22.3515  -14.5541   20.6745 O   0  0  0  0  0  0
  -24.6319  -31.8550   23.1978 C   0  0  0  0  0  0
  -25.9134  -32.4759   23.8333 C   0  0  1  0  0  0
  -27.2220  -27.2549   20.1158 C   0  0  0  0  0  0
  -25.5945  -33.8562   24.2265 N   0  0  0  0  0  0
  -23.4307  -30.4794   21.5413 C   0  0  2  0  0  0
  -24.8798  -28.9348   20.1064 C   0  0  0  0  0  0
  -22.7515  -29.4593   22.4879 C   0  0  0  0  0  0
  -18.0315  -28.1375   22.8501 C   0  0  0  0  0  0
  -24.1495  -36.7274   23.2639 C   0  0  0  0  0  0
  -25.9806  -30.7683   21.3787 C   0  0  0  0  0  0
  -26.0552  -29.3918   20.7166 C   0  0  0  0  0  0
  -27.2297  -28.5661   20.7086 C   0  0  0  0  0  0
  -26.0149  -26.8786   19.4743 C   0  0  0  0  0  0
  -24.8660  -27.6857   19.4752 C   0  0  0  0  0  0
  -23.6511  -29.8220   20.1560 C   0  0  0  0  0  0
  -25.4119  -36.3077   24.0341 C   0  0  1  0  0  0
  -20.5917  -28.3676   23.1269 C   0  0  2  0  0  0
  -20.6786  -26.9385   22.5399 C   0  0  0  0  0  0
  -19.5750  -26.6377   21.5200 C   0  0  0  0  0  0
  -18.1943  -26.7929   22.1624 C   0  0  0  0  0  0
  -19.1570  -28.8841   23.2885 C   0  0  0  0  0  0
  -18.9482  -30.1448   23.8889 C   0  0  0  0  0  0
  -17.6477  -30.6577   24.0554 C   0  0  0  0  0  0
  -25.9058  -34.9449   23.5101 C   0  0  0  0  0  0
  -16.5367  -29.9074   23.6326 C   0  0  0  0  0  0
  -16.7295  -28.6489   23.0352 C   0  0  0  0  0  0
  -26.4499  -31.6575   25.0723 C   0  0  0  0  0  0
  -25.3732  -31.3711   26.1449 C   0  0  0  0  0  0
  -27.0317  -30.2999   24.6158 C   0  0  0  0  0  0
  -27.6060  -32.4298   25.7504 C   0  0  0  0  0  0
  -27.5581  -37.1798   24.8474 C   0  0  0  0  0  0
  -21.4216  -29.3047   22.3660 N   0  0  0  0  0  0
  -26.4286  -37.3783   23.9428 N   0  0  0  0  0  0
  -24.7012  -31.0523   22.0962 N   0  0  0  0  0  0
  -23.4216  -28.8113   23.2950 O   0  0  0  0  0  0
  -28.3022  -26.3296   20.1709 O   0  0  0  0  0  0
  -26.5602  -34.8934   22.4658 O   0  0  0  0  0  0
  -23.5466  -32.1360   23.7269 O   0  0  0  0  0  0
  -28.6365  -22.3252   20.5206 C   0  0  0  0  0  0
  -28.9812  -23.6565   20.2377 C   0  0  0  0  0  0
  -27.2032  -21.9353   20.8772 C   0  0  0  0  0  0
  -27.1471  -21.4153   22.3301 C   0  0  0  0  0  0
  -29.4630  -20.6847   22.2280 C   0  0  0  0  0  0
  -29.5486  -21.0164   20.7263 C   0  0  1  0  0  0
  -30.4174  -24.0953   20.0068 C   0  0  0  0  0  0
  -27.9444  -24.8656   20.0760 C   0  0  0  0  0  0
  -29.9252  -17.3024   20.9968 C   0  0  0  0  0  0
  -29.8487  -18.4232   19.8404 C   0  0  0  0  0  0
  -28.0762  -20.2998   22.5363 N   0  0  0  0  0  0
  -29.7551  -15.8123   20.6850 N   0  0  0  0  0  0
  -29.0629  -19.7366   20.0401 N   0  3  0  0  0  0
  -31.4839  -12.5969   19.1545 H   0  0  0  0  0  0
  -30.4079  -11.4694   19.9374 H   0  0  0  0  0  0
  -29.7930  -11.7290   17.5135 H   0  0  0  0  0  0
  -29.6378  -13.4573   17.7145 H   0  0  0  0  0  0
  -27.8913  -11.2790   18.9014 H   0  0  0  0  0  0
  -27.3807  -12.5300   17.7978 H   0  0  0  0  0  0
  -27.6456  -14.2466   19.4787 H   0  0  0  0  0  0
  -28.7325  -12.1248   21.3983 H   0  0  0  0  0  0
  -28.4312  -13.7924   21.8104 H   0  0  0  0  0  0
  -25.2762   -9.5682   22.4748 H   0  0  0  0  0  0
  -24.0010   -7.4628   22.7466 H   0  0  0  0  0  0
  -21.0851   -8.8761   19.8931 H   0  0  0  0  0  0
  -22.3707  -10.9661   19.6148 H   0  0  0  0  0  0
  -21.2005   -7.6143   23.9706 H   0  0  0  0  0  0
  -21.1484   -6.0514   25.9072 H   0  0  0  0  0  0
  -22.0603   -2.7602   23.2834 H   0  0  0  0  0  0
  -22.4104  -11.9824   22.4757 H   0  0  0  0  0  0
  -21.1096  -13.1191   22.2645 H   0  0  0  0  0  0
  -24.6614  -15.8461   20.5088 H   0  0  0  0  0  0
  -26.2645  -15.6173   20.0357 H   0  0  0  0  0  0
  -26.7200  -32.5401   23.1070 H   0  0  0  0  0  0
  -25.0143  -33.9709   25.0448 H   0  0  0  0  0  0
  -22.7272  -31.3019   21.3967 H   0  0  0  0  0  0
  -23.3776  -35.9586   23.3295 H   0  0  0  0  0  0
  -24.3582  -36.8891   22.2053 H   0  0  0  0  0  0
  -23.7243  -37.6478   23.6652 H   0  0  0  0  0  0
  -26.1191  -31.5334   20.6132 H   0  0  0  0  0  0
  -26.8589  -30.8175   22.0091 H   0  0  0  0  0  0
  -28.1281  -28.9127   21.2014 H   0  0  0  0  0  0
  -25.9053  -25.9317   18.9715 H   0  0  0  0  0  0
  -23.9664  -27.3329   18.9890 H   0  0  0  0  0  0
  -23.7734  -30.6037   19.4047 H   0  0  0  0  0  0
  -22.7722  -29.2538   19.8481 H   0  0  0  0  0  0
  -25.1293  -36.1910   25.0833 H   0  0  0  0  0  0
  -21.0023  -28.3233   24.1375 H   0  0  0  0  0  0
  -20.5662  -26.2261   23.3588 H   0  0  0  0  0  0
  -21.6655  -26.7383   22.1182 H   0  0  0  0  0  0
  -19.6889  -25.6288   21.1219 H   0  0  0  0  0  0
  -19.6713  -27.3205   20.6749 H   0  0  0  0  0  0
  -17.4208  -26.6704   21.4033 H   0  0  0  0  0  0
  -18.0332  -26.0069   22.9015 H   0  0  0  0  0  0
  -19.7953  -30.7285   24.2245 H   0  0  0  0  0  0
  -17.5024  -31.6258   24.5158 H   0  0  0  0  0  0
  -15.5364  -30.2960   23.7659 H   0  0  0  0  0  0
  -15.8703  -28.0803   22.7052 H   0  0  0  0  0  0
  -24.5958  -30.6996   25.7797 H   0  0  0  0  0  0
  -24.8863  -32.2862   26.4823 H   0  0  0  0  0  0
  -25.8085  -30.8957   27.0250 H   0  0  0  0  0  0
  -26.2880  -29.6803   24.1141 H   0  0  0  0  0  0
  -27.3988  -29.7209   25.4638 H   0  0  0  0  0  0
  -27.8772  -30.4307   23.9408 H   0  0  0  0  0  0
  -27.2684  -33.3632   26.2025 H   0  0  0  0  0  0
  -28.3905  -32.6794   25.0349 H   0  0  0  0  0  0
  -28.0669  -31.8438   26.5460 H   0  0  0  0  0  0
  -28.2586  -38.0106   24.7509 H   0  0  0  0  0  0
  -28.1091  -36.2634   24.6300 H   0  0  0  0  0  0
  -27.2289  -37.1424   25.8875 H   0  0  0  0  0  0
  -20.9358  -29.8823   21.6945 H   0  0  0  0  0  0
  -26.0162  -38.2858   24.1431 H   0  0  0  0  0  0
  -26.8449  -21.1736   20.1847 H   0  0  0  0  0  0
  -26.4919  -22.7478   20.7616 H   0  0  0  0  0  0
  -26.1335  -21.0851   22.5692 H   0  0  0  0  0  0
  -27.3779  -22.2253   23.0253 H   0  0  0  0  0  0
  -29.7766  -21.5359   22.8372 H   0  0  0  0  0  0
  -30.1325  -19.8597   22.4792 H   0  0  0  0  0  0
  -30.5784  -21.2114   20.4280 H   0  0  0  0  0  0
  -31.1457  -23.2991   20.1453 H   0  0  0  0  0  0
  -30.6728  -24.8901   20.7077 H   0  0  0  0  0  0
  -30.5344  -24.4920   18.9980 H   0  0  0  0  0  0
  -27.1243  -24.7167   20.7752 H   0  0  0  0  0  0
  -27.5539  -24.6986   19.0732 H   0  0  0  0  0  0
  -29.1510  -17.5329   21.7274 H   0  0  0  0  0  0
  -30.8633  -17.4304   21.5388 H   0  0  0  0  0  0
  -29.3686  -17.9453   18.9858 H   0  0  0  0  0  0
  -30.8548  -18.6622   19.4947 H   0  0  0  0  0  0
  -28.0255  -20.0136   23.5139 H   0  0  0  0  0  0
  -28.8001  -15.5049   20.7928 H   0  0  0  0  0  0
  -28.7688  -20.0206   19.1205 H   0  0  0  0  0  0
  -28.2344  -19.5118   20.5750 H   0  0  0  0  0  0
  1 25  1  0  0  0
  1 30  2  0  0  0
  1 82  1  0  0  0
  2  3  1  0  0  0
  2 25  1  0  0  0
  2 84  1  0  0  0
  2 85  1  0  0  0
  3  4  1  0  0  0
  3 86  1  0  0  0
  3 87  1  0  0  0
  4  5  1  0  0  0
  4 88  1  0  0  0
  4 89  1  0  0  0
  5  6  1  0  0  0
  5 26  1  0  0  0
  5 90  1  0  0  0
  6 25  1  0  0  0
  6 91  1  0  0  0
  6 92  1  0  0  0
  7  8  2  0  0  0
  7 26  1  0  0  0
  7 29  1  0  0  0
  8  9  1  0  0  0
  8 22  1  0  0  0
  9 10  1  0  0  0
  9 27  2  0  0  0
 10 11  2  0  0  0
 10 15  1  0  0  0
 11 12  1  0  0  0
 11 93  1  0  0  0
 12 13  2  0  0  0
 12 94  1  0  0  0
 13 14  1  0  0  0
 13 31  1  0  0  0
 14 15  2  0  0  0
 14 95  1  0  0  0
 15 96  1  0  0  0
 16 17  2  0  0  0
 16 21  1  0  0  0
 16 31  1  0  0  0
 17 18  1  0  0  0
 17 97  1  0  0  0
 18 19  2  0  0  0
 18 98  1  0  0  0
 19 20  1  0  0  0
 19 24  1  0  0  0
 20 21  2  0  0  0
 20 99  1  0  0  0
 21 23  1  0  0  0
 22 28  1  0  0  0
 22 32  2  0  0  0
 26 27  1  0  0  0
 28100  1  0  0  0
 28101  1  0  0  0
 29102  1  0  0  0
 29103  1  0  0  0
 33 34  1  0  0  0
 33 66  1  0  0  0
 33 70  2  0  0  0
 34 36  1  0  0  0
 34 59  1  0  0  0
 34104  1  0  0  0
 35 44  2  0  0  0
 35 45  1  0  0  0
 35 68  1  0  0  0
 36 56  1  0  0  0
 36105  1  0  0  0
 37 39  1  0  0  0
 37 47  1  0  0  0
 37 66  1  0  0  0
 37106  1  0  0  0
 38 43  2  0  0  0
 38 46  1  0  0  0
 38 47  1  0  0  0
 39 64  1  0  0  0
 39 67  2  0  0  0
 40 52  1  0  0  0
 40 53  2  0  0  0
 40 58  1  0  0  0
 41107  1  0  0  0
 41108  1  0  0  0
 41109  1  0  0  0
 41 48  1  0  0  0
 42 43  1  0  0  0
 42 66  1  0  0  0
 42110  1  0  0  0
 42111  1  0  0  0
 43 44  1  0  0  0
 44112  1  0  0  0
 45 46  2  0  0  0
 45113  1  0  0  0
 46114  1  0  0  0
 47115  1  0  0  0
 47116  1  0  0  0
 48 56  1  0  0  0
 48 65  1  0  0  0
 48117  1  0  0  0
 49 50  1  0  0  0
 49 53  1  0  0  0
 49 64  1  0  0  0
 49118  1  0  0  0
 50 51  1  0  0  0
 50119  1  0  0  0
 50120  1  0  0  0
 51 52  1  0  0  0
 51121  1  0  0  0
 51122  1  0  0  0
 52123  1  0  0  0
 52124  1  0  0  0
 53 54  1  0  0  0
 54 55  2  0  0  0
 54125  1  0  0  0
 55 57  1  0  0  0
 55126  1  0  0  0
 56 69  2  0  0  0
 57 58  2  0  0  0
 57127  1  0  0  0
 58128  1  0  0  0
 59 60  1  0  0  0
 59 61  1  0  0  0
 59 62  1  0  0  0
 60129  1  0  0  0
 60130  1  0  0  0
 60131  1  0  0  0
 61132  1  0  0  0
 61133  1  0  0  0
 61134  1  0  0  0
 62135  1  0  0  0
 62136  1  0  0  0
 62137  1  0  0  0
 63 65  1  0  0  0
 63138  1  0  0  0
 63139  1  0  0  0
 63140  1  0  0  0
 64141  1  0  0  0
 65142  1  0  0  0
 68 78  1  0  0  0
 71 72  2  0  0  0
 71 73  1  0  0  0
 71 76  1  0  0  0
 72 77  1  0  0  0
 72 78  1  0  0  0
 73 74  1  0  0  0
 73143  1  0  0  0
 73144  1  0  0  0
 74 81  1  0  0  0
 74145  1  0  0  0
 74146  1  0  0  0
 75 76  1  0  0  0
 75 81  1  0  0  0
 75147  1  0  0  0
 75148  1  0  0  0
 76 83  1  0  0  0
 76149  1  0  0  0
 77150  1  0  0  0
 77151  1  0  0  0
 77152  1  0  0  0
 78153  1  0  0  0
 78154  1  0  0  0
 79 80  1  0  0  0
 79 82  1  0  0  0
 79155  1  0  0  0
 79156  1  0  0  0
 80 83  1  0  0  0
 80157  1  0  0  0
 80158  1  0  0  0
 81159  1  0  0  0
 82160  1  0  0  0
 83161  1  0  0  0
 83162  1  0  0  0
M  CHG  1  83   1
M  ISO  4   1 100  68 101  78 101  82 100
M  END
> <chiral flag>
0

> <version>
0

> <s_m_source_file>
/data/baiqing/PycharmProjects/Reinvent-master-3.2/result/LINK_invent/BTK/process_docking_weight1_custom_sum_contain_oxygen_bond_distance_aromatic_linkinvent_7_9_3/rearranged_h_0120.sdf

> <i_m_source_file_index>
11

> <r_mmod_Potential_Energy-OPLS-2005>
25.3470973968506

> <r_mmod_Stretch_Energy-OPLS-2005>
130.366134643555

> <r_mmod_Bend_Energy-OPLS-2005>
217.159133911133

> <r_mmod_Torsional_Energy-OPLS-2005>
239.713256835938

> <r_mmod_Improper_Torsional_Energy-OPLS-2005>
4.71043252944946

> <r_mmod_Van_der_Waal_Energy-OPLS-2005>
143.450607299805

> <r_mmod_Electrostatic_Energy-OPLS-2005>
-345.247802734375

> <r_mmod_Solvation_Energy-OPLS-2005>
-452.499481201172

> <b_mmod_Minimization_Converged-OPLS-2005>
0

> <r_mmod_RMS_Derivative-OPLS-2005>
2.4002468585968

$$$$
11
                    3D
 Structure written by MMmdl.
169177  0  0  1  0            999 V2000
  -30.7282  -14.4007   20.6529 C   0  0  0  0  0  0
  -30.4257  -12.2956   19.3948 C   0  0  0  0  0  0
  -29.4870  -12.5178   18.1917 C   0  0  0  0  0  0
  -28.0097  -12.3776   18.6074 C   0  0  0  0  0  0
  -27.6684  -13.1970   19.8793 C   0  0  2  0  0  0
  -28.7076  -12.9301   20.9906 C   0  0  0  0  0  0
  -25.2630  -13.8139   20.5659 C   0  0  0  0  0  0
  -24.1863  -13.0433   20.9150 C   0  0  0  0  0  0
  -24.6399  -11.6895   20.8723 C   0  0  0  0  0  0
  -23.9064  -10.4287   21.0402 C   0  0  0  0  0  0
  -24.3623   -9.4207   21.9182 C   0  0  0  0  0  0
  -23.6293   -8.2247   22.0757 C   0  0  0  0  0  0
  -22.4275   -8.0284   21.3542 C   0  0  0  0  0  0
  -21.9915   -9.0260   20.4646 C   0  0  0  0  0  0
  -22.7244  -10.2131   20.3052 C   0  0  0  0  0  0
  -21.6849   -6.0740   22.5276 C   0  0  0  0  0  0
  -21.4010   -6.5644   23.8212 C   0  0  0  0  0  0
  -21.3657   -5.6791   24.9173 C   0  0  0  0  0  0
  -21.6044   -4.3057   24.7218 C   0  0  0  0  0  0
  -21.8826   -3.8152   23.4341 C   0  0  0  0  0  0
  -21.9194   -4.6969   22.3398 C   0  0  0  0  0  0
  -22.7891  -13.5245   21.1810 C   0  0  0  0  0  0
  -22.1666   -4.2162   21.0973 F   0  0  0  0  0  0
  -21.5629   -3.4537   25.7730 F   0  0  0  0  0  0
  -30.0453  -13.2429   20.4535 N   0  0  0  0  0  0
  -26.3061  -12.9292   20.3370 N   0  0  0  0  0  0
  -25.9322  -11.6459   20.5759 N   0  0  0  0  0  0
  -22.0535  -12.8235   22.0364 N   0  0  0  0  0  0
  -25.4390  -15.1852   20.4055 N   0  0  0  0  0  0
  -31.7894  -14.6722   20.0827 O   0  0  0  0  0  0
  -21.6633   -6.8880   21.4237 O   0  0  0  0  0  0
  -22.3579  -14.5553   20.6661 O   0  0  0  0  0  0
  -24.6121  -31.8677   23.2087 C   0  0  0  0  0  0
  -25.8988  -32.4843   23.8395 C   0  0  1  0  0  0
  -27.2392  -27.4349   20.1020 C   0  0  0  0  0  0
  -25.5828  -33.8628   24.2328 N   0  0  0  0  0  0
  -23.4014  -30.4887   21.5508 C   0  0  2  0  0  0
  -24.8490  -28.9557   20.1181 C   0  0  0  0  0  0
  -22.7412  -29.4628   22.5000 C   0  0  0  0  0  0
  -18.0259  -28.1371   22.8487 C   0  0  0  0  0  0
  -24.1477  -36.7344   23.2636 C   0  0  0  0  0  0
  -25.9278  -30.8377   21.3582 C   0  0  0  0  0  0
  -26.0083  -29.4706   20.7092 C   0  0  0  0  0  0
  -27.2056  -28.7180   20.6952 C   0  0  0  0  0  0
  -26.0543  -26.9318   19.5116 C   0  0  0  0  0  0
  -24.8669  -27.6861   19.5179 C   0  0  0  0  0  0
  -23.6094  -29.8199   20.1662 C   0  0  0  0  0  0
  -25.4096  -36.3126   24.0335 C   0  0  1  0  0  0
  -20.5857  -28.3635   23.1347 C   0  0  2  0  0  0
  -20.6762  -26.9378   22.5431 C   0  0  0  0  0  0
  -19.5737  -26.6383   21.5223 C   0  0  0  0  0  0
  -18.1906  -26.7917   22.1635 C   0  0  0  0  0  0
  -19.1520  -28.8824   23.2909 C   0  0  0  0  0  0
  -18.9447  -30.1437   23.8912 C   0  0  0  0  0  0
  -17.6452  -30.6582   24.0557 C   0  0  0  0  0  0
  -25.9018  -34.9485   23.5152 C   0  0  0  0  0  0
  -16.5340  -29.9089   23.6330 C   0  0  0  0  0  0
  -16.7256  -28.6517   23.0334 C   0  0  0  0  0  0
  -26.4413  -31.6607   25.0718 C   0  0  0  0  0  0
  -25.3669  -31.3704   26.1467 C   0  0  0  0  0  0
  -27.0240  -30.3059   24.6051 C   0  0  0  0  0  0
  -27.5994  -32.4313   25.7474 C   0  0  0  0  0  0
  -27.5579  -37.1823   24.8455 C   0  0  0  0  0  0
  -21.4135  -29.2999   22.3753 N   0  0  0  0  0  0
  -26.4287  -37.3803   23.9404 N   0  0  0  0  0  0
  -24.6658  -31.0781   22.0995 N   0  0  0  0  0  0
  -23.4176  -28.8178   23.3043 O   0  0  0  0  0  0
  -28.4278  -26.7286   20.1200 O   0  0  0  0  0  0
  -26.5619  -34.8945   22.4730 O   0  0  0  0  0  0
  -23.5314  -32.1421   23.7507 O   0  0  0  0  0  0
  -29.9851  -22.5621   21.8113 C   0  0  0  0  0  0
  -28.4486  -20.8247   21.1654 C   0  0  0  0  0  0
  -28.6721  -22.1929   21.4563 C   0  0  0  0  0  0
  -30.9922  -21.5762   21.8695 C   0  0  0  0  0  0
  -29.5093  -19.9057   21.2303 C   0  0  0  0  0  0
  -26.4062  -22.8824   20.4452 C   0  0  0  0  0  0
  -32.7848  -21.2666   23.6339 C   0  0  0  0  0  0
  -33.4290  -21.5771   21.1843 C   0  0  0  0  0  0
  -27.8761  -24.7147   21.4454 C   0  0  0  0  0  0
  -30.3566  -17.6121   20.6658 C   0  0  0  0  0  0
  -30.5851  -16.6160   21.8229 C   0  0  0  0  0  0
  -28.3958  -25.2903   20.1042 C   0  0  0  0  0  0
  -27.5088  -23.2020   21.4733 C   0  0  2  0  0  0
  -32.4231  -21.9209   22.2916 C   0  0  0  0  0  0
  -30.7517  -20.2749   21.5829 N   0  0  0  0  0  0
  -29.2726  -18.5546   20.9428 N   0  0  0  0  0  0
  -30.1354  -15.2651   21.4884 N   0  0  0  0  0  0
  -32.5354  -23.2390   22.4872 F   0  0  0  0  0  0
  -31.4672  -12.4111   19.0868 H   0  0  0  0  0  0
  -30.3397  -11.2729   19.7643 H   0  0  0  0  0  0
  -29.7192  -11.8080   17.3969 H   0  0  0  0  0  0
  -29.6556  -13.5118   17.7731 H   0  0  0  0  0  0
  -27.8110  -11.3191   18.7824 H   0  0  0  0  0  0
  -27.3591  -12.6745   17.7845 H   0  0  0  0  0  0
  -27.7285  -14.2516   19.6085 H   0  0  0  0  0  0
  -28.6791  -11.8809   21.2873 H   0  0  0  0  0  0
  -28.4569  -13.4846   21.8947 H   0  0  0  0  0  0
  -25.2778   -9.5677   22.4748 H   0  0  0  0  0  0
  -24.0005   -7.4639   22.7480 H   0  0  0  0  0  0
  -21.0850   -8.8774   19.8953 H   0  0  0  0  0  0
  -22.3714  -10.9667   19.6154 H   0  0  0  0  0  0
  -21.2000   -7.6154   23.9716 H   0  0  0  0  0  0
  -21.1469   -6.0523   25.9073 H   0  0  0  0  0  0
  -22.0608   -2.7617   23.2831 H   0  0  0  0  0  0
  -22.4160  -11.9891   22.4733 H   0  0  0  0  0  0
  -21.1154  -13.1264   22.2569 H   0  0  0  0  0  0
  -24.6783  -15.8472   20.5140 H   0  0  0  0  0  0
  -26.2988  -15.6168   20.0919 H   0  0  0  0  0  0
  -26.7063  -32.5573   23.1166 H   0  0  0  0  0  0
  -24.9854  -33.9759   25.0392 H   0  0  0  0  0  0
  -22.6909  -31.3048   21.4132 H   0  0  0  0  0  0
  -23.3740  -35.9681   23.3309 H   0  0  0  0  0  0
  -24.3561  -36.8948   22.2045 H   0  0  0  0  0  0
  -23.7235  -37.6548   23.6671 H   0  0  0  0  0  0
  -26.0227  -31.5998   20.5851 H   0  0  0  0  0  0
  -26.8225  -30.9045   21.9674 H   0  0  0  0  0  0
  -28.1025  -29.1078   21.1567 H   0  0  0  0  0  0
  -26.0224  -25.9624   19.0373 H   0  0  0  0  0  0
  -23.9738  -27.2824   19.0600 H   0  0  0  0  0  0
  -23.7134  -30.5939   19.4046 H   0  0  0  0  0  0
  -22.7358  -29.2323   19.8777 H   0  0  0  0  0  0
  -25.1268  -36.1993   25.0830 H   0  0  0  0  0  0
  -20.9929  -28.3199   24.1484 H   0  0  0  0  0  0
  -20.5687  -26.2228   23.3596 H   0  0  0  0  0  0
  -21.6624  -26.7440   22.1210 H   0  0  0  0  0  0
  -19.6903  -25.6305   21.1231 H   0  0  0  0  0  0
  -19.6703  -27.3212   20.6767 H   0  0  0  0  0  0
  -17.4182  -26.6654   21.4029 H   0  0  0  0  0  0
  -18.0312  -26.0061   22.9047 H   0  0  0  0  0  0
  -19.7928  -30.7226   24.2301 H   0  0  0  0  0  0
  -17.5016  -31.6263   24.5139 H   0  0  0  0  0  0
  -15.5339  -30.2983   23.7659 H   0  0  0  0  0  0
  -15.8660  -28.0840   22.7034 H   0  0  0  0  0  0
  -24.5842  -30.7049   25.7796 H   0  0  0  0  0  0
  -24.8842  -32.2850   26.4919 H   0  0  0  0  0  0
  -25.7994  -30.8871   27.0230 H   0  0  0  0  0  0
  -26.2780  -29.6845   24.1079 H   0  0  0  0  0  0
  -27.3988  -29.7253   25.4480 H   0  0  0  0  0  0
  -27.8627  -30.4409   23.9219 H   0  0  0  0  0  0
  -27.2637  -33.3609   26.2092 H   0  0  0  0  0  0
  -28.3798  -32.6850   25.0290 H   0  0  0  0  0  0
  -28.0683  -31.8403   26.5356 H   0  0  0  0  0  0
  -28.2593  -38.0125   24.7504 H   0  0  0  0  0  0
  -28.1086  -36.2655   24.6296 H   0  0  0  0  0  0
  -27.2298  -37.1442   25.8854 H   0  0  0  0  0  0
  -20.9296  -29.8745   21.6988 H   0  0  0  0  0  0
  -26.0201  -38.2891   24.1408 H   0  0  0  0  0  0
  -30.2322  -23.5818   22.0637 H   0  0  0  0  0  0
  -27.4631  -20.4685   20.9066 H   0  0  0  0  0  0
  -25.8981  -21.9445   20.6675 H   0  0  0  0  0  0
  -26.8134  -22.8077   19.4367 H   0  0  0  0  0  0
  -25.6369  -23.6546   20.4429 H   0  0  0  0  0  0
  -32.7269  -20.1801   23.5748 H   0  0  0  0  0  0
  -32.1012  -21.5898   24.4185 H   0  0  0  0  0  0
  -33.7958  -21.5318   23.9415 H   0  0  0  0  0  0
  -33.4248  -20.5096   20.9661 H   0  0  0  0  0  0
  -34.4427  -21.8569   21.4703 H   0  0  0  0  0  0
  -33.1793  -22.1011   20.2618 H   0  0  0  0  0  0
  -26.9709  -25.2575   21.7139 H   0  0  0  0  0  0
  -28.5725  -24.9583   22.2459 H   0  0  0  0  0  0
  -30.1325  -17.0887   19.7350 H   0  0  0  0  0  0
  -31.2863  -18.1479   20.4675 H   0  0  0  0  0  0
  -30.0825  -16.9436   22.7338 H   0  0  0  0  0  0
  -31.6477  -16.5800   22.0671 H   0  0  0  0  0  0
  -27.8396  -24.9170   19.2471 H   0  0  0  0  0  0
  -29.4144  -24.9379   19.9451 H   0  0  0  0  0  0
  -27.0555  -23.0417   22.4523 H   0  0  0  0  0  0
  -28.3388  -18.2852   20.6503 H   0  0  0  0  0  0
  -29.2785  -14.9493   21.9179 H   0  0  0  0  0  0
  1 25  1  0  0  0
  1 30  2  0  0  0
  1 87  1  0  0  0
  2  3  1  0  0  0
  2 25  1  0  0  0
  2 89  1  0  0  0
  2 90  1  0  0  0
  3  4  1  0  0  0
  3 91  1  0  0  0
  3 92  1  0  0  0
  4  5  1  0  0  0
  4 93  1  0  0  0
  4 94  1  0  0  0
  5  6  1  0  0  0
  5 26  1  0  0  0
  5 95  1  0  0  0
  6 25  1  0  0  0
  6 96  1  0  0  0
  6 97  1  0  0  0
  7  8  2  0  0  0
  7 26  1  0  0  0
  7 29  1  0  0  0
  8  9  1  0  0  0
  8 22  1  0  0  0
  9 10  1  0  0  0
  9 27  2  0  0  0
 10 11  2  0  0  0
 10 15  1  0  0  0
 11 12  1  0  0  0
 11 98  1  0  0  0
 12 13  2  0  0  0
 12 99  1  0  0  0
 13 14  1  0  0  0
 13 31  1  0  0  0
 14 15  2  0  0  0
 14100  1  0  0  0
 15101  1  0  0  0
 16 17  2  0  0  0
 16 21  1  0  0  0
 16 31  1  0  0  0
 17 18  1  0  0  0
 17102  1  0  0  0
 18 19  2  0  0  0
 18103  1  0  0  0
 19 20  1  0  0  0
 19 24  1  0  0  0
 20 21  2  0  0  0
 20104  1  0  0  0
 21 23  1  0  0  0
 22 28  1  0  0  0
 22 32  2  0  0  0
 26 27  1  0  0  0
 28105  1  0  0  0
 28106  1  0  0  0
 29107  1  0  0  0
 29108  1  0  0  0
 33 34  1  0  0  0
 33 66  1  0  0  0
 33 70  2  0  0  0
 34 36  1  0  0  0
 34 59  1  0  0  0
 34109  1  0  0  0
 35 44  2  0  0  0
 35 45  1  0  0  0
 35 68  1  0  0  0
 36 56  1  0  0  0
 36110  1  0  0  0
 37 39  1  0  0  0
 37 47  1  0  0  0
 37 66  1  0  0  0
 37111  1  0  0  0
 38 43  2  0  0  0
 38 46  1  0  0  0
 38 47  1  0  0  0
 39 64  1  0  0  0
 39 67  2  0  0  0
 40 52  1  0  0  0
 40 53  2  0  0  0
 40 58  1  0  0  0
 41112  1  0  0  0
 41113  1  0  0  0
 41114  1  0  0  0
 41 48  1  0  0  0
 42 43  1  0  0  0
 42 66  1  0  0  0
 42115  1  0  0  0
 42116  1  0  0  0
 43 44  1  0  0  0
 44117  1  0  0  0
 45 46  2  0  0  0
 45118  1  0  0  0
 46119  1  0  0  0
 47120  1  0  0  0
 47121  1  0  0  0
 48 56  1  0  0  0
 48 65  1  0  0  0
 48122  1  0  0  0
 49 50  1  0  0  0
 49 53  1  0  0  0
 49 64  1  0  0  0
 49123  1  0  0  0
 50 51  1  0  0  0
 50124  1  0  0  0
 50125  1  0  0  0
 51 52  1  0  0  0
 51126  1  0  0  0
 51127  1  0  0  0
 52128  1  0  0  0
 52129  1  0  0  0
 53 54  1  0  0  0
 54 55  2  0  0  0
 54130  1  0  0  0
 55 57  1  0  0  0
 55131  1  0  0  0
 56 69  2  0  0  0
 57 58  2  0  0  0
 57132  1  0  0  0
 58133  1  0  0  0
 59 60  1  0  0  0
 59 61  1  0  0  0
 59 62  1  0  0  0
 60134  1  0  0  0
 60135  1  0  0  0
 60136  1  0  0  0
 61137  1  0  0  0
 61138  1  0  0  0
 61139  1  0  0  0
 62140  1  0  0  0
 62141  1  0  0  0
 62142  1  0  0  0
 63 65  1  0  0  0
 63143  1  0  0  0
 63144  1  0  0  0
 63145  1  0  0  0
 64146  1  0  0  0
 65147  1  0  0  0
 68 82  1  0  0  0
 71 73  2  0  0  0
 71 74  1  0  0  0
 71148  1  0  0  0
 72 73  1  0  0  0
 72 75  2  0  0  0
 72149  1  0  0  0
 73 83  1  0  0  0
 74 84  1  0  0  0
 74 85  2  0  0  0
 75 85  1  0  0  0
 75 86  1  0  0  0
 76150  1  0  0  0
 76151  1  0  0  0
 76152  1  0  0  0
 76 83  1  0  0  0
 77153  1  0  0  0
 77154  1  0  0  0
 77155  1  0  0  0
 77 84  1  0  0  0
 78 84  1  0  0  0
 78156  1  0  0  0
 78157  1  0  0  0
 78158  1  0  0  0
 79 82  1  0  0  0
 79 83  1  0  0  0
 79159  1  0  0  0
 79160  1  0  0  0
 80 81  1  0  0  0
 80 86  1  0  0  0
 80161  1  0  0  0
 80162  1  0  0  0
 81 87  1  0  0  0
 81163  1  0  0  0
 81164  1  0  0  0
 82165  1  0  0  0
 82166  1  0  0  0
 83167  1  0  0  0
 84 88  1  0  0  0
 86168  1  0  0  0
 87169  1  0  0  0
M  ISO  4   1 100  68 101  82 101  87 100
M  END
> <chiral flag>
0

> <version>
0

> <s_m_source_file>
/data/baiqing/PycharmProjects/Reinvent-master-3.2/result/LINK_invent/BTK/process_docking_weight1_custom_sum_contain_oxygen_bond_distance_aromatic_linkinvent_7_9_3/rearranged_h_0120.sdf

> <i_m_source_file_index>
12

> <r_mmod_Potential_Energy-OPLS-2005>
-418.718292236328

> <r_mmod_Stretch_Energy-OPLS-2005>
36.8805770874023

> <r_mmod_Bend_Energy-OPLS-2005>
115.554061889648

> <r_mmod_Torsional_Energy-OPLS-2005>
186.987380981445

> <r_mmod_Improper_Torsional_Energy-OPLS-2005>
2.96920561790466

> <r_mmod_Van_der_Waal_Energy-OPLS-2005>
167.908462524414

> <r_mmod_Electrostatic_Energy-OPLS-2005>
-717.957458496094

> <r_mmod_Solvation_Energy-OPLS-2005>
-219.976425170898

> <b_mmod_Minimization_Converged-OPLS-2005>
0

> <r_mmod_RMS_Derivative-OPLS-2005>
2.39369344711304

$$$$
12
                    3D
 Structure written by MMmdl.
159167  0  0  1  0            999 V2000
  -30.4339  -15.2001   20.3874 C   0  0  0  0  0  0
  -30.4497  -12.7569   19.5321 C   0  0  0  0  0  0
  -29.5400  -12.5718   18.2902 C   0  0  0  0  0  0
  -28.0855  -12.3013   18.7142 C   0  0  0  0  0  0
  -27.6227  -13.2646   19.8354 C   0  0  2  0  0  0
  -28.6566  -13.3907   20.9760 C   0  0  0  0  0  0
  -25.2439  -13.8231   20.5733 C   0  0  0  0  0  0
  -24.1773  -13.0437   20.9242 C   0  0  0  0  0  0
  -24.6409  -11.6927   20.8751 C   0  0  0  0  0  0
  -23.9092  -10.4293   21.0399 C   0  0  0  0  0  0
  -24.3634   -9.4205   21.9179 C   0  0  0  0  0  0
  -23.6296   -8.2245   22.0755 C   0  0  0  0  0  0
  -22.4281   -8.0284   21.3543 C   0  0  0  0  0  0
  -21.9921   -9.0262   20.4643 C   0  0  0  0  0  0
  -22.7263  -10.2134   20.3051 C   0  0  0  0  0  0
  -21.6856   -6.0735   22.5279 C   0  0  0  0  0  0
  -21.4018   -6.5635   23.8209 C   0  0  0  0  0  0
  -21.3660   -5.6789   24.9169 C   0  0  0  0  0  0
  -21.6046   -4.3051   24.7220 C   0  0  0  0  0  0
  -21.8820   -3.8145   23.4342 C   0  0  0  0  0  0
  -21.9192   -4.6961   22.3398 C   0  0  0  0  0  0
  -22.7790  -13.5196   21.1883 C   0  0  0  0  0  0
  -22.1662   -4.2146   21.0977 F   0  0  0  0  0  0
  -21.5625   -3.4537   25.7735 F   0  0  0  0  0  0
  -29.9047  -13.8832   20.3713 N   0  0  0  0  0  0
  -26.2866  -12.9484   20.3244 N   0  0  0  0  0  0
  -25.9346  -11.6602   20.5734 N   0  0  0  0  0  0
  -22.0439  -12.8180   22.0430 N   0  0  0  0  0  0
  -25.4075  -15.1965   20.4160 N   0  0  0  0  0  0
  -31.6387  -15.2513   20.0914 O   0  0  0  0  0  0
  -21.6644   -6.8882   21.4242 O   0  0  0  0  0  0
  -22.3480  -14.5504   20.6725 O   0  0  0  0  0  0
  -24.6583  -31.8272   23.1725 C   0  0  0  0  0  0
  -25.9286  -32.4604   23.8173 C   0  0  1  0  0  0
  -27.2252  -26.9740   20.1905 C   0  0  0  0  0  0
  -25.5975  -33.8417   24.2085 N   0  0  0  0  0  0
  -23.4701  -30.4374   21.5202 C   0  0  2  0  0  0
  -24.9265  -28.8301   20.1135 C   0  0  0  0  0  0
  -22.7639  -29.4450   22.4796 C   0  0  0  0  0  0
  -18.0316  -28.1389   22.8440 C   0  0  0  0  0  0
  -24.1496  -36.7226   23.2642 C   0  0  0  0  0  0
  -26.0363  -30.6494   21.3956 C   0  0  0  0  0  0
  -26.1070  -29.2433   20.7427 C   0  0  0  0  0  0
  -27.2529  -28.3357   20.7552 C   0  0  0  0  0  0
  -26.0154  -26.6978   19.5154 C   0  0  0  0  0  0
  -24.9024  -27.5762   19.4802 C   0  0  0  0  0  0
  -23.7082  -29.7496   20.1471 C   0  0  0  0  0  0
  -25.4133  -36.2977   24.0301 C   0  0  1  0  0  0
  -20.5934  -28.3731   23.1189 C   0  0  2  0  0  0
  -20.6796  -26.9417   22.5394 C   0  0  0  0  0  0
  -19.5779  -26.6365   21.5196 C   0  0  0  0  0  0
  -18.1953  -26.7920   22.1595 C   0  0  0  0  0  0
  -19.1578  -28.8882   23.2792 C   0  0  0  0  0  0
  -18.9500  -30.1472   23.8830 C   0  0  0  0  0  0
  -17.6502  -30.6585   24.0542 C   0  0  0  0  0  0
  -25.9095  -34.9359   23.5016 C   0  0  0  0  0  0
  -16.5386  -29.9070   23.6340 C   0  0  0  0  0  0
  -16.7303  -28.6493   23.0349 C   0  0  0  0  0  0
  -26.4553  -31.6538   25.0688 C   0  0  0  0  0  0
  -25.3684  -31.3800   26.1350 C   0  0  0  0  0  0
  -27.0455  -30.2909   24.6398 C   0  0  0  0  0  0
  -27.6036  -32.4364   25.7494 C   0  0  0  0  0  0
  -27.5574  -37.1765   24.8458 C   0  0  0  0  0  0
  -21.4315  -29.3035   22.3551 N   0  0  0  0  0  0
  -26.4277  -37.3710   23.9416 N   0  0  0  0  0  0
  -24.7421  -30.9972   22.0836 N   0  0  0  0  0  0
  -23.4216  -28.8008   23.3005 O   0  0  0  0  0  0
  -28.2480  -25.9057   20.2762 O   0  0  0  0  0  0
  -26.5689  -34.8886   22.4598 O   0  0  0  0  0  0
  -23.5665  -32.1226   23.6843 O   0  0  0  0  0  0
  -28.8328  -18.8016   21.4884 C   0  0  0  0  0  0
  -29.7621  -20.2952   19.4883 C   0  0  0  0  0  0
  -29.0590  -21.1719   20.4254 C   0  0  0  0  0  0
  -28.6229  -20.2648   21.4717 C   0  0  0  0  0  0
  -29.5500  -17.9966   20.5147 C   0  0  0  0  0  0
  -26.9123  -23.1142   25.8202 C   0  0  0  0  0  0
  -29.1090  -22.9160   20.4675 C   0  0  0  0  0  0
  -26.2843  -21.6652   23.9019 C   0  0  0  0  0  0
  -28.0201  -24.2915   20.1697 C   0  0  0  0  0  0
  -26.7235  -21.2072   22.5029 C   0  0  0  0  0  0
  -29.9828  -18.8818   19.5239 N   0  0  0  0  0  0
  -29.6050  -16.3930   20.6235 N   0  0  0  0  0  0
  -27.1082  -22.7956   24.3922 N   0  3  0  0  0  0
  -28.0820  -20.8043   22.6093 O   0  0  0  0  0  0
  -31.4717  -12.9562   19.2073 H   0  0  0  0  0  0
  -30.5044  -11.8348   20.1127 H   0  0  0  0  0  0
  -29.9084  -11.7566   17.6658 H   0  0  0  0  0  0
  -29.5788  -13.4719   17.6752 H   0  0  0  0  0  0
  -28.0343  -11.2728   19.0738 H   0  0  0  0  0  0
  -27.4171  -12.3597   17.8547 H   0  0  0  0  0  0
  -27.5554  -14.2433   19.3586 H   0  0  0  0  0  0
  -28.8052  -12.4385   21.4876 H   0  0  0  0  0  0
  -28.3074  -14.0941   21.7329 H   0  0  0  0  0  0
  -25.2780   -9.5675   22.4756 H   0  0  0  0  0  0
  -23.9997   -7.4643   22.7486 H   0  0  0  0  0  0
  -21.0849   -8.8788   19.8957 H   0  0  0  0  0  0
  -22.3724  -10.9671   19.6158 H   0  0  0  0  0  0
  -21.2021   -7.6144   23.9711 H   0  0  0  0  0  0
  -21.1479   -6.0518   25.9072 H   0  0  0  0  0  0
  -22.0599   -2.7604   23.2844 H   0  0  0  0  0  0
  -22.4064  -11.9837   22.4800 H   0  0  0  0  0  0
  -21.1062  -13.1202   22.2643 H   0  0  0  0  0  0
  -24.6287  -15.8381   20.5198 H   0  0  0  0  0  0
  -26.2317  -15.6369   20.0300 H   0  0  0  0  0  0
  -26.7346  -32.5164   23.0880 H   0  0  0  0  0  0
  -25.0124  -33.9515   25.0235 H   0  0  0  0  0  0
  -22.7796  -31.2658   21.3470 H   0  0  0  0  0  0
  -23.3772  -35.9538   23.3261 H   0  0  0  0  0  0
  -24.3564  -36.8911   22.2060 H   0  0  0  0  0  0
  -23.7247  -37.6400   23.6728 H   0  0  0  0  0  0
  -26.2089  -31.3913   20.6153 H   0  0  0  0  0  0
  -26.9000  -30.7074   22.0458 H   0  0  0  0  0  0
  -28.1477  -28.6489   21.2750 H   0  0  0  0  0  0
  -25.8963  -25.7371   19.0365 H   0  0  0  0  0  0
  -24.0031  -27.2521   18.9743 H   0  0  0  0  0  0
  -23.8563  -30.5146   19.3844 H   0  0  0  0  0  0
  -22.8215  -29.1959   19.8323 H   0  0  0  0  0  0
  -25.1322  -36.1772   25.0789 H   0  0  0  0  0  0
  -21.0011  -28.3334   24.1317 H   0  0  0  0  0  0
  -20.5682  -26.2340   23.3621 H   0  0  0  0  0  0
  -21.6661  -26.7398   22.1202 H   0  0  0  0  0  0
  -19.6958  -25.6267   21.1250 H   0  0  0  0  0  0
  -19.6743  -27.3142   20.6696 H   0  0  0  0  0  0
  -17.4230  -26.6654   21.3993 H   0  0  0  0  0  0
  -18.0355  -26.0063   22.8992 H   0  0  0  0  0  0
  -19.7987  -30.7278   24.2178 H   0  0  0  0  0  0
  -17.5065  -31.6260   24.5146 H   0  0  0  0  0  0
  -15.5387  -30.2954   23.7717 H   0  0  0  0  0  0
  -15.8690  -28.0797   22.7111 H   0  0  0  0  0  0
  -24.5862  -30.7153   25.7666 H   0  0  0  0  0  0
  -24.8888  -32.3016   26.4656 H   0  0  0  0  0  0
  -25.7906  -30.9042   27.0209 H   0  0  0  0  0  0
  -26.3125  -29.6582   24.1380 H   0  0  0  0  0  0
  -27.3982  -29.7267   25.5045 H   0  0  0  0  0  0
  -27.9051  -30.4101   23.9799 H   0  0  0  0  0  0
  -27.2587  -33.3711   26.1927 H   0  0  0  0  0  0
  -28.3914  -32.6859   25.0376 H   0  0  0  0  0  0
  -28.0621  -31.8599   26.5539 H   0  0  0  0  0  0
  -28.2545  -38.0100   24.7515 H   0  0  0  0  0  0
  -28.1121  -36.2630   24.6272 H   0  0  0  0  0  0
  -27.2291  -37.1363   25.8856 H   0  0  0  0  0  0
  -20.9573  -29.8751   21.6699 H   0  0  0  0  0  0
  -26.0131  -38.2767   24.1442 H   0  0  0  0  0  0
  -28.4343  -18.2723   22.3433 H   0  0  0  0  0  0
  -30.2506  -20.7730   18.6521 H   0  0  0  0  0  0
  -27.5298  -23.9653   26.1081 H   0  0  0  0  0  0
  -27.1929  -22.2692   26.4494 H   0  0  0  0  0  0
  -25.8730  -23.3667   26.0293 H   0  0  0  0  0  0
  -29.9742  -23.1387   19.8426 H   0  0  0  0  0  0
  -29.4738  -23.1035   21.4773 H   0  0  0  0  0  0
  -26.3707  -20.8259   24.5932 H   0  0  0  0  0  0
  -25.2341  -21.9587   23.8881 H   0  0  0  0  0  0
  -27.1515  -24.1157   20.8036 H   0  0  0  0  0  0
  -27.6515  -24.1417   19.1557 H   0  0  0  0  0  0
  -26.6020  -22.0068   21.7729 H   0  0  0  0  0  0
  -26.1087  -20.3673   22.1745 H   0  0  0  0  0  0
  -28.7316  -16.0578   20.9966 H   0  0  0  0  0  0
  -28.0811  -22.5629   24.2574 H   0  0  0  0  0  0
  -26.9160  -23.6242   23.8504 H   0  0  0  0  0  0
  1 25  1  0  0  0
  1 30  2  0  0  0
  1 82  1  0  0  0
  2  3  1  0  0  0
  2 25  1  0  0  0
  2 85  1  0  0  0
  2 86  1  0  0  0
  3  4  1  0  0  0
  3 87  1  0  0  0
  3 88  1  0  0  0
  4  5  1  0  0  0
  4 89  1  0  0  0
  4 90  1  0  0  0
  5  6  1  0  0  0
  5 26  1  0  0  0
  5 91  1  0  0  0
  6 25  1  0  0  0
  6 92  1  0  0  0
  6 93  1  0  0  0
  7  8  2  0  0  0
  7 26  1  0  0  0
  7 29  1  0  0  0
  8  9  1  0  0  0
  8 22  1  0  0  0
  9 10  1  0  0  0
  9 27  2  0  0  0
 10 11  2  0  0  0
 10 15  1  0  0  0
 11 12  1  0  0  0
 11 94  1  0  0  0
 12 13  2  0  0  0
 12 95  1  0  0  0
 13 14  1  0  0  0
 13 31  1  0  0  0
 14 15  2  0  0  0
 14 96  1  0  0  0
 15 97  1  0  0  0
 16 17  2  0  0  0
 16 21  1  0  0  0
 16 31  1  0  0  0
 17 18  1  0  0  0
 17 98  1  0  0  0
 18 19  2  0  0  0
 18 99  1  0  0  0
 19 20  1  0  0  0
 19 24  1  0  0  0
 20 21  2  0  0  0
 20100  1  0  0  0
 21 23  1  0  0  0
 22 28  1  0  0  0
 22 32  2  0  0  0
 26 27  1  0  0  0
 28101  1  0  0  0
 28102  1  0  0  0
 29103  1  0  0  0
 29104  1  0  0  0
 33 34  1  0  0  0
 33 66  1  0  0  0
 33 70  2  0  0  0
 34 36  1  0  0  0
 34 59  1  0  0  0
 34105  1  0  0  0
 35 44  2  0  0  0
 35 45  1  0  0  0
 35 68  1  0  0  0
 36 56  1  0  0  0
 36106  1  0  0  0
 37 39  1  0  0  0
 37 47  1  0  0  0
 37 66  1  0  0  0
 37107  1  0  0  0
 38 43  2  0  0  0
 38 46  1  0  0  0
 38 47  1  0  0  0
 39 64  1  0  0  0
 39 67  2  0  0  0
 40 52  1  0  0  0
 40 53  2  0  0  0
 40 58  1  0  0  0
 41108  1  0  0  0
 41109  1  0  0  0
 41110  1  0  0  0
 41 48  1  0  0  0
 42 43  1  0  0  0
 42 66  1  0  0  0
 42111  1  0  0  0
 42112  1  0  0  0
 43 44  1  0  0  0
 44113  1  0  0  0
 45 46  2  0  0  0
 45114  1  0  0  0
 46115  1  0  0  0
 47116  1  0  0  0
 47117  1  0  0  0
 48 56  1  0  0  0
 48 65  1  0  0  0
 48118  1  0  0  0
 49 50  1  0  0  0
 49 53  1  0  0  0
 49 64  1  0  0  0
 49119  1  0  0  0
 50 51  1  0  0  0
 50120  1  0  0  0
 50121  1  0  0  0
 51 52  1  0  0  0
 51122  1  0  0  0
 51123  1  0  0  0
 52124  1  0  0  0
 52125  1  0  0  0
 53 54  1  0  0  0
 54 55  2  0  0  0
 54126  1  0  0  0
 55 57  1  0  0  0
 55127  1  0  0  0
 56 69  2  0  0  0
 57 58  2  0  0  0
 57128  1  0  0  0
 58129  1  0  0  0
 59 60  1  0  0  0
 59 61  1  0  0  0
 59 62  1  0  0  0
 60130  1  0  0  0
 60131  1  0  0  0
 60132  1  0  0  0
 61133  1  0  0  0
 61134  1  0  0  0
 61135  1  0  0  0
 62136  1  0  0  0
 62137  1  0  0  0
 62138  1  0  0  0
 63 65  1  0  0  0
 63139  1  0  0  0
 63140  1  0  0  0
 63141  1  0  0  0
 64142  1  0  0  0
 65143  1  0  0  0
 68 79  1  0  0  0
 71 74  2  0  0  0
 71 75  1  0  0  0
 71144  1  0  0  0
 72 73  2  0  0  0
 72 81  1  0  0  0
 72145  1  0  0  0
 73 74  1  0  0  0
 73 77  1  0  0  0
 74 84  1  0  0  0
 75 81  2  0  0  0
 75 82  1  0  0  0
 76 83  1  0  0  0
 76146  1  0  0  0
 76147  1  0  0  0
 76148  1  0  0  0
 77 79  1  0  0  0
 77149  1  0  0  0
 77150  1  0  0  0
 78 80  1  0  0  0
 78 83  1  0  0  0
 78151  1  0  0  0
 78152  1  0  0  0
 79153  1  0  0  0
 79154  1  0  0  0
 80 84  1  0  0  0
 80155  1  0  0  0
 80156  1  0  0  0
 82157  1  0  0  0
 83158  1  0  0  0
 83159  1  0  0  0
M  CHG  1  83   1
M  ISO  4   1 100  68 101  79 101  82 100
M  END
> <chiral flag>
0

> <version>
0

> <s_m_source_file>
/data/baiqing/PycharmProjects/Reinvent-master-3.2/result/LINK_invent/BTK/process_docking_weight1_custom_sum_contain_oxygen_bond_distance_aromatic_linkinvent_7_9_3/rearranged_h_0120.sdf

> <i_m_source_file_index>
13

> <r_mmod_Potential_Energy-OPLS-2005>
747.129638671875

> <r_mmod_Stretch_Energy-OPLS-2005>
465.865753173828

> <r_mmod_Bend_Energy-OPLS-2005>
417.777069091797

> <r_mmod_Torsional_Energy-OPLS-2005>
261.921752929688

> <r_mmod_Improper_Torsional_Energy-OPLS-2005>
6.53685426712036

> <r_mmod_Van_der_Waal_Energy-OPLS-2005>
124.468704223633

> <r_mmod_Electrostatic_Energy-OPLS-2005>
-430.817504882812

> <r_mmod_Solvation_Energy-OPLS-2005>
-490.113677978516

> <b_mmod_Minimization_Converged-OPLS-2005>
0

> <r_mmod_RMS_Derivative-OPLS-2005>
1.48066067695618

$$$$
13
                    3D
 Structure written by MMmdl.
169177  0  0  1  0            999 V2000
  -30.5571  -14.7785   20.4575 C   0  0  0  0  0  0
  -30.4485  -12.4795   19.4572 C   0  0  0  0  0  0
  -29.5092  -12.5021   18.2296 C   0  0  0  0  0  0
  -28.0374  -12.3171   18.6518 C   0  0  0  0  0  0
  -27.6405  -13.2227   19.8468 C   0  0  2  0  0  0
  -28.6903  -13.1460   20.9748 C   0  0  0  0  0  0
  -25.2526  -13.8177   20.5697 C   0  0  0  0  0  0
  -24.1817  -13.0434   20.9212 C   0  0  0  0  0  0
  -24.6396  -11.6905   20.8764 C   0  0  0  0  0  0
  -23.9081  -10.4283   21.0431 C   0  0  0  0  0  0
  -24.3625   -9.4194   21.9205 C   0  0  0  0  0  0
  -23.6289   -8.2237   22.0764 C   0  0  0  0  0  0
  -22.4278   -8.0283   21.3553 C   0  0  0  0  0  0
  -21.9926   -9.0260   20.4655 C   0  0  0  0  0  0
  -22.7257  -10.2133   20.3067 C   0  0  0  0  0  0
  -21.6846   -6.0745   22.5280 C   0  0  0  0  0  0
  -21.4005   -6.5644   23.8216 C   0  0  0  0  0  0
  -21.3654   -5.6795   24.9180 C   0  0  0  0  0  0
  -21.6043   -4.3062   24.7229 C   0  0  0  0  0  0
  -21.8820   -3.8156   23.4347 C   0  0  0  0  0  0
  -21.9188   -4.6971   22.3402 C   0  0  0  0  0  0
  -22.7836  -13.5220   21.1855 C   0  0  0  0  0  0
  -22.1660   -4.2159   21.0982 F   0  0  0  0  0  0
  -21.5629   -3.4539   25.7740 F   0  0  0  0  0  0
  -29.9814  -13.5287   20.3886 N   0  0  0  0  0  0
  -26.2935  -12.9359   20.3273 N   0  0  0  0  0  0
  -25.9319  -11.6514   20.5767 N   0  0  0  0  0  0
  -22.0477  -12.8206   22.0408 N   0  0  0  0  0  0
  -25.4225  -15.1903   20.4095 N   0  0  0  0  0  0
  -31.7547  -14.9260   20.1984 O   0  0  0  0  0  0
  -21.6637   -6.8888   21.4245 O   0  0  0  0  0  0
  -22.3530  -14.5536   20.6710 O   0  0  0  0  0  0
  -24.6307  -31.8514   23.1965 C   0  0  0  0  0  0
  -25.9123  -32.4739   23.8294 C   0  0  1  0  0  0
  -27.2225  -27.2408   20.1226 C   0  0  0  0  0  0
  -25.5911  -33.8539   24.2201 N   0  0  0  0  0  0
  -23.4266  -30.4715   21.5434 C   0  0  2  0  0  0
  -24.8719  -28.9130   20.1129 C   0  0  0  0  0  0
  -22.7487  -29.4562   22.4939 C   0  0  0  0  0  0
  -18.0286  -28.1385   22.8476 C   0  0  0  0  0  0
  -24.1489  -36.7283   23.2635 C   0  0  0  0  0  0
  -25.9730  -30.7596   21.3762 C   0  0  0  0  0  0
  -26.0467  -29.3801   20.7165 C   0  0  0  0  0  0
  -27.2207  -28.5580   20.7060 C   0  0  0  0  0  0
  -26.0143  -26.8365   19.5117 C   0  0  0  0  0  0
  -24.8619  -27.6491   19.5035 C   0  0  0  0  0  0
  -23.6421  -29.7990   20.1622 C   0  0  0  0  0  0
  -25.4115  -36.3040   24.0293 C   0  0  1  0  0  0
  -20.5882  -28.3680   23.1277 C   0  0  2  0  0  0
  -20.6791  -26.9398   22.5421 C   0  0  0  0  0  0
  -19.5756  -26.6377   21.5234 C   0  0  0  0  0  0
  -18.1930  -26.7929   22.1625 C   0  0  0  0  0  0
  -19.1542  -28.8855   23.2858 C   0  0  0  0  0  0
  -18.9467  -30.1469   23.8854 C   0  0  0  0  0  0
  -17.6470  -30.6595   24.0559 C   0  0  0  0  0  0
  -25.9053  -34.9422   23.5049 C   0  0  0  0  0  0
  -16.5353  -29.9077   23.6356 C   0  0  0  0  0  0
  -16.7279  -28.6514   23.0340 C   0  0  0  0  0  0
  -26.4483  -31.6597   25.0706 C   0  0  0  0  0  0
  -25.3682  -31.3747   26.1403 C   0  0  0  0  0  0
  -27.0353  -30.3007   24.6234 C   0  0  0  0  0  0
  -27.5987  -32.4383   25.7520 C   0  0  0  0  0  0
  -27.5564  -37.1770   24.8445 C   0  0  0  0  0  0
  -21.4202  -29.3018   22.3685 N   0  0  0  0  0  0
  -26.4284  -37.3747   23.9391 N   0  0  0  0  0  0
  -24.6964  -31.0439   22.0970 N   0  0  0  0  0  0
  -23.4209  -28.8101   23.3023 O   0  0  0  0  0  0
  -28.3502  -26.3795   20.1855 O   0  0  0  0  0  0
  -26.5641  -34.8904   22.4633 O   0  0  0  0  0  0
  -23.5453  -32.1362   23.7242 O   0  0  0  0  0  0
  -27.7815  -21.5744   19.1836 C   0  0  0  0  0  0
  -28.6131  -22.1575   20.1802 C   0  0  0  0  0  0
  -28.0773  -20.2445   18.9980 C   0  0  0  0  0  0
  -29.4300  -21.0713   20.5643 C   0  0  0  0  0  0
  -30.5201  -21.0413   21.5885 C   0  0  0  0  0  0
  -28.1692  -19.2979   16.6617 C   0  0  0  0  0  0
  -25.7691  -22.8524   23.5228 C   0  0  0  0  0  0
  -27.4339  -19.3187   18.0079 C   0  0  0  0  0  0
  -27.0500  -22.6829   22.6978 C   0  0  0  0  0  0
  -27.2022  -23.7746   21.6228 C   0  0  0  0  0  0
  -29.8457  -18.4891   19.7687 C   0  0  0  0  0  0
  -29.8150  -17.3618   20.9282 C   0  0  0  0  0  0
  -28.3925  -24.9402   19.7069 C   0  0  0  0  0  0
  -28.4581  -23.6709   20.7262 C   0  0  2  0  0  0
  -29.1303  -19.8683   19.8393 N   0  0  0  0  0  0
  -29.6930  -15.8539   20.6246 N   0  0  0  0  0  0
  -31.4807  -12.6448   19.1449 H   0  0  0  0  0  0
  -30.4334  -11.5040   19.9457 H   0  0  0  0  0  0
  -29.7931  -11.7211   17.5230 H   0  0  0  0  0  0
  -29.6201  -13.4492   17.7000 H   0  0  0  0  0  0
  -27.9026  -11.2705   18.9269 H   0  0  0  0  0  0
  -27.3733  -12.4953   17.8049 H   0  0  0  0  0  0
  -27.6338  -14.2420   19.4604 H   0  0  0  0  0  0
  -28.7406  -12.1382   21.3889 H   0  0  0  0  0  0
  -28.4233  -13.8010   21.8056 H   0  0  0  0  0  0
  -25.2765   -9.5660   22.4787 H   0  0  0  0  0  0
  -23.9988   -7.4630   22.7491 H   0  0  0  0  0  0
  -21.0857   -8.8794   19.8958 H   0  0  0  0  0  0
  -22.3737  -10.9679   19.6181 H   0  0  0  0  0  0
  -21.1994   -7.6154   23.9723 H   0  0  0  0  0  0
  -21.1474   -6.0528   25.9085 H   0  0  0  0  0  0
  -22.0602   -2.7614   23.2847 H   0  0  0  0  0  0
  -22.4087  -11.9849   22.4763 H   0  0  0  0  0  0
  -21.1101  -13.1249   22.2635 H   0  0  0  0  0  0
  -24.6528  -15.8401   20.5221 H   0  0  0  0  0  0
  -26.2595  -15.6292   20.0490 H   0  0  0  0  0  0
  -26.7172  -32.5378   23.1012 H   0  0  0  0  0  0
  -24.9995  -33.9668   25.0297 H   0  0  0  0  0  0
  -22.7217  -31.2923   21.3949 H   0  0  0  0  0  0
  -23.3756  -35.9612   23.3293 H   0  0  0  0  0  0
  -24.3543  -36.8943   22.2052 H   0  0  0  0  0  0
  -23.7275  -37.6471   23.6714 H   0  0  0  0  0  0
  -26.1017  -31.5218   20.6063 H   0  0  0  0  0  0
  -26.8534  -30.8136   22.0051 H   0  0  0  0  0  0
  -28.1235  -28.9128   21.1832 H   0  0  0  0  0  0
  -25.9121  -25.8639   19.0574 H   0  0  0  0  0  0
  -23.9546  -27.2786   19.0458 H   0  0  0  0  0  0
  -23.7537  -30.5708   19.4005 H   0  0  0  0  0  0
  -22.7623  -29.2232   19.8670 H   0  0  0  0  0  0
  -25.1321  -36.1857   25.0785 H   0  0  0  0  0  0
  -20.9951  -28.3291   24.1397 H   0  0  0  0  0  0
  -20.5733  -26.2274   23.3622 H   0  0  0  0  0  0
  -21.6640  -26.7454   22.1162 H   0  0  0  0  0  0
  -19.6907  -25.6294   21.1244 H   0  0  0  0  0  0
  -19.6701  -27.3212   20.6787 H   0  0  0  0  0  0
  -17.4203  -26.6676   21.4028 H   0  0  0  0  0  0
  -18.0286  -26.0091   22.9026 H   0  0  0  0  0  0
  -19.7950  -30.7300   24.2183 H   0  0  0  0  0  0
  -17.5030  -31.6268   24.5167 H   0  0  0  0  0  0
  -15.5343  -30.2953   23.7764 H   0  0  0  0  0  0
  -15.8663  -28.0859   22.7026 H   0  0  0  0  0  0
  -24.5846  -30.7130   25.7708 H   0  0  0  0  0  0
  -24.8867  -32.2911   26.4823 H   0  0  0  0  0  0
  -25.7942  -30.8902   27.0198 H   0  0  0  0  0  0
  -26.2959  -29.6718   24.1253 H   0  0  0  0  0  0
  -27.4014  -29.7307   25.4783 H   0  0  0  0  0  0
  -27.8841  -30.4266   23.9504 H   0  0  0  0  0  0
  -27.2559  -33.3707   26.2032 H   0  0  0  0  0  0
  -28.3857  -32.6919   25.0409 H   0  0  0  0  0  0
  -28.0603  -31.8567   26.5508 H   0  0  0  0  0  0
  -28.2543  -38.0105   24.7530 H   0  0  0  0  0  0
  -28.1102  -36.2615   24.6268 H   0  0  0  0  0  0
  -27.2240  -37.1422   25.8835 H   0  0  0  0  0  0
  -20.9413  -29.8717   21.6842 H   0  0  0  0  0  0
  -26.0143  -38.2793   24.1476 H   0  0  0  0  0  0
  -27.0053  -22.0932   18.6377 H   0  0  0  0  0  0
  -30.4542  -21.8920   22.2669 H   0  0  0  0  0  0
  -31.5022  -21.0650   21.1155 H   0  0  0  0  0  0
  -30.4659  -20.1370   22.1970 H   0  0  0  0  0  0
  -27.6846  -18.6260   15.9544 H   0  0  0  0  0  0
  -29.2035  -18.9733   16.7753 H   0  0  0  0  0  0
  -28.1869  -20.2895   16.2098 H   0  0  0  0  0  0
  -25.6705  -22.0479   24.2514 H   0  0  0  0  0  0
  -24.8830  -22.8324   22.8854 H   0  0  0  0  0  0
  -25.7720  -23.7976   24.0674 H   0  0  0  0  0  0
  -26.4061  -19.6415   17.8353 H   0  0  0  0  0  0
  -27.3489  -18.3113   18.4143 H   0  0  0  0  0  0
  -27.0320  -21.6933   22.2398 H   0  0  0  0  0  0
  -27.9151  -22.6999   23.3599 H   0  0  0  0  0  0
  -27.1979  -24.7526   22.1053 H   0  0  0  0  0  0
  -26.3169  -23.7620   20.9846 H   0  0  0  0  0  0
  -29.5194  -17.9924   18.8603 H   0  0  0  0  0  0
  -30.8943  -18.7007   19.5610 H   0  0  0  0  0  0
  -28.9560  -17.5920   21.5591 H   0  0  0  0  0  0
  -30.6792  -17.5080   21.5768 H   0  0  0  0  0  0
  -27.6226  -24.7469   18.9654 H   0  0  0  0  0  0
  -29.3117  -24.8879   19.1226 H   0  0  0  0  0  0
  -29.3240  -23.8344   21.3674 H   0  0  0  0  0  0
  -28.7406  -15.5338   20.7030 H   0  0  0  0  0  0
  1 25  1  0  0  0
  1 30  2  0  0  0
  1 86  1  0  0  0
  2  3  1  0  0  0
  2 25  1  0  0  0
  2 87  1  0  0  0
  2 88  1  0  0  0
  3  4  1  0  0  0
  3 89  1  0  0  0
  3 90  1  0  0  0
  4  5  1  0  0  0
  4 91  1  0  0  0
  4 92  1  0  0  0
  5  6  1  0  0  0
  5 26  1  0  0  0
  5 93  1  0  0  0
  6 25  1  0  0  0
  6 94  1  0  0  0
  6 95  1  0  0  0
  7  8  2  0  0  0
  7 26  1  0  0  0
  7 29  1  0  0  0
  8  9  1  0  0  0
  8 22  1  0  0  0
  9 10  1  0  0  0
  9 27  2  0  0  0
 10 11  2  0  0  0
 10 15  1  0  0  0
 11 12  1  0  0  0
 11 96  1  0  0  0
 12 13  2  0  0  0
 12 97  1  0  0  0
 13 14  1  0  0  0
 13 31  1  0  0  0
 14 15  2  0  0  0
 14 98  1  0  0  0
 15 99  1  0  0  0
 16 17  2  0  0  0
 16 21  1  0  0  0
 16 31  1  0  0  0
 17 18  1  0  0  0
 17100  1  0  0  0
 18 19  2  0  0  0
 18101  1  0  0  0
 19 20  1  0  0  0
 19 24  1  0  0  0
 20 21  2  0  0  0
 20102  1  0  0  0
 21 23  1  0  0  0
 22 28  1  0  0  0
 22 32  2  0  0  0
 26 27  1  0  0  0
 28103  1  0  0  0
 28104  1  0  0  0
 29105  1  0  0  0
 29106  1  0  0  0
 33 34  1  0  0  0
 33 66  1  0  0  0
 33 70  2  0  0  0
 34 36  1  0  0  0
 34 59  1  0  0  0
 34107  1  0  0  0
 35 44  2  0  0  0
 35 45  1  0  0  0
 35 68  1  0  0  0
 36 56  1  0  0  0
 36108  1  0  0  0
 37 39  1  0  0  0
 37 47  1  0  0  0
 37 66  1  0  0  0
 37109  1  0  0  0
 38 43  2  0  0  0
 38 46  1  0  0  0
 38 47  1  0  0  0
 39 64  1  0  0  0
 39 67  2  0  0  0
 40 52  1  0  0  0
 40 53  2  0  0  0
 40 58  1  0  0  0
 41110  1  0  0  0
 41111  1  0  0  0
 41112  1  0  0  0
 41 48  1  0  0  0
 42 43  1  0  0  0
 42 66  1  0  0  0
 42113  1  0  0  0
 42114  1  0  0  0
 43 44  1  0  0  0
 44115  1  0  0  0
 45 46  2  0  0  0
 45116  1  0  0  0
 46117  1  0  0  0
 47118  1  0  0  0
 47119  1  0  0  0
 48 56  1  0  0  0
 48 65  1  0  0  0
 48120  1  0  0  0
 49 50  1  0  0  0
 49 53  1  0  0  0
 49 64  1  0  0  0
 49121  1  0  0  0
 50 51  1  0  0  0
 50122  1  0  0  0
 50123  1  0  0  0
 51 52  1  0  0  0
 51124  1  0  0  0
 51125  1  0  0  0
 52126  1  0  0  0
 52127  1  0  0  0
 53 54  1  0  0  0
 54 55  2  0  0  0
 54128  1  0  0  0
 55 57  1  0  0  0
 55129  1  0  0  0
 56 69  2  0  0  0
 57 58  2  0  0  0
 57130  1  0  0  0
 58131  1  0  0  0
 59 60  1  0  0  0
 59 61  1  0  0  0
 59 62  1  0  0  0
 60132  1  0  0  0
 60133  1  0  0  0
 60134  1  0  0  0
 61135  1  0  0  0
 61136  1  0  0  0
 61137  1  0  0  0
 62138  1  0  0  0
 62139  1  0  0  0
 62140  1  0  0  0
 63 65  1  0  0  0
 63141  1  0  0  0
 63142  1  0  0  0
 63143  1  0  0  0
 64144  1  0  0  0
 65145  1  0  0  0
 68 83  1  0  0  0
 71 72  1  0  0  0
 71 73  2  0  0  0
 71146  1  0  0  0
 72 74  2  0  0  0
 72 84  1  0  0  0
 73 78  1  0  0  0
 73 85  1  0  0  0
 74 75  1  0  0  0
 74 85  1  0  0  0
 75147  1  0  0  0
 75148  1  0  0  0
 75149  1  0  0  0
 76 78  1  0  0  0
 76150  1  0  0  0
 76151  1  0  0  0
 76152  1  0  0  0
 77 79  1  0  0  0
 77153  1  0  0  0
 77154  1  0  0  0
 77155  1  0  0  0
 78156  1  0  0  0
 78157  1  0  0  0
 79 80  1  0  0  0
 79158  1  0  0  0
 79159  1  0  0  0
 80160  1  0  0  0
 80161  1  0  0  0
 80 84  1  0  0  0
 81 82  1  0  0  0
 81 85  1  0  0  0
 81162  1  0  0  0
 81163  1  0  0  0
 82 86  1  0  0  0
 82164  1  0  0  0
 82165  1  0  0  0
 83 84  1  0  0  0
 83166  1  0  0  0
 83167  1  0  0  0
 84168  1  0  0  0
 86169  1  0  0  0
M  ISO  4   1 100  68 101  83 101  86 100
M  END
> <chiral flag>
0

> <version>
0

> <s_m_source_file>
/data/baiqing/PycharmProjects/Reinvent-master-3.2/result/LINK_invent/BTK/process_docking_weight1_custom_sum_contain_oxygen_bond_distance_aromatic_linkinvent_7_9_3/rearranged_h_0120.sdf

> <i_m_source_file_index>
14

> <r_mmod_Potential_Energy-OPLS-2005>
198.857788085938

> <r_mmod_Stretch_Energy-OPLS-2005>
142.486999511719

> <r_mmod_Bend_Energy-OPLS-2005>
217.140670776367

> <r_mmod_Torsional_Energy-OPLS-2005>
227.828948974609

> <r_mmod_Improper_Torsional_Energy-OPLS-2005>
6.08522272109985

> <r_mmod_Van_der_Waal_Energy-OPLS-2005>
103.420921325684

> <r_mmod_Electrostatic_Energy-OPLS-2005>
-391.912048339844

> <r_mmod_Solvation_Energy-OPLS-2005>
-204.315322875977

> <b_mmod_Minimization_Converged-OPLS-2005>
0

> <r_mmod_RMS_Derivative-OPLS-2005>
2.53916144371033

$$$$
14
                    3D
 Structure written by MMmdl.
168176  0  0  1  0            999 V2000
  -30.7960  -14.3437   20.6749 C   0  0  0  0  0  0
  -30.4102  -12.2767   19.4003 C   0  0  0  0  0  0
  -29.4826  -12.5184   18.1960 C   0  0  0  0  0  0
  -28.0077  -12.3804   18.6130 C   0  0  0  0  0  0
  -27.6669  -13.2051   19.8817 C   0  0  2  0  0  0
  -28.7063  -12.9623   21.0003 C   0  0  0  0  0  0
  -25.2601  -13.8158   20.5694 C   0  0  0  0  0  0
  -24.1850  -13.0446   20.9179 C   0  0  0  0  0  0
  -24.6394  -11.6907   20.8733 C   0  0  0  0  0  0
  -23.9062  -10.4295   21.0407 C   0  0  0  0  0  0
  -24.3611   -9.4206   21.9183 C   0  0  0  0  0  0
  -23.6286   -8.2244   22.0753 C   0  0  0  0  0  0
  -22.4274   -8.0277   21.3539 C   0  0  0  0  0  0
  -21.9907   -9.0255   20.4642 C   0  0  0  0  0  0
  -22.7236  -10.2137   20.3052 C   0  0  0  0  0  0
  -21.6848   -6.0734   22.5276 C   0  0  0  0  0  0
  -21.4015   -6.5641   23.8210 C   0  0  0  0  0  0
  -21.3653   -5.6793   24.9174 C   0  0  0  0  0  0
  -21.6050   -4.3056   24.7226 C   0  0  0  0  0  0
  -21.8816   -3.8145   23.4346 C   0  0  0  0  0  0
  -21.9195   -4.6963   22.3403 C   0  0  0  0  0  0
  -22.7866  -13.5239   21.1840 C   0  0  0  0  0  0
  -22.1663   -4.2149   21.0981 F   0  0  0  0  0  0
  -21.5627   -3.4535   25.7740 F   0  0  0  0  0  0
  -30.0530  -13.2292   20.4611 N   0  0  0  0  0  0
  -26.3048  -12.9335   20.3387 N   0  0  0  0  0  0
  -25.9325  -11.6493   20.5762 N   0  0  0  0  0  0
  -22.0502  -12.8235   22.0388 N   0  0  0  0  0  0
  -25.4334  -15.1880   20.4094 N   0  0  0  0  0  0
  -31.7998  -14.6278   20.0181 O   0  0  0  0  0  0
  -21.6636   -6.8880   21.4241 O   0  0  0  0  0  0
  -22.3561  -14.5556   20.6691 O   0  0  0  0  0  0
  -24.6118  -31.8710   23.2132 C   0  0  0  0  0  0
  -25.9018  -32.4843   23.8423 C   0  0  1  0  0  0
  -27.2330  -27.4567   20.0818 C   0  0  0  0  0  0
  -25.5854  -33.8635   24.2350 N   0  0  0  0  0  0
  -23.3980  -30.4968   21.5548 C   0  0  2  0  0  0
  -24.8421  -28.9660   20.1178 C   0  0  0  0  0  0
  -22.7415  -29.4665   22.5014 C   0  0  0  0  0  0
  -18.0277  -28.1387   22.8495 C   0  0  0  0  0  0
  -24.1487  -36.7339   23.2636 C   0  0  0  0  0  0
  -25.9254  -30.8444   21.3626 C   0  0  0  0  0  0
  -26.0016  -29.4791   20.7110 C   0  0  0  0  0  0
  -27.1973  -28.7295   20.6908 C   0  0  0  0  0  0
  -26.0494  -26.9490   19.4924 C   0  0  0  0  0  0
  -24.8600  -27.6994   19.5091 C   0  0  0  0  0  0
  -23.6054  -29.8336   20.1673 C   0  0  0  0  0  0
  -25.4103  -36.3127   24.0336 C   0  0  1  0  0  0
  -20.5864  -28.3669   23.1333 C   0  0  2  0  0  0
  -20.6766  -26.9404   22.5431 C   0  0  0  0  0  0
  -19.5750  -26.6393   21.5221 C   0  0  0  0  0  0
  -18.1916  -26.7934   22.1620 C   0  0  0  0  0  0
  -19.1526  -28.8845   23.2910 C   0  0  0  0  0  0
  -18.9456  -30.1445   23.8934 C   0  0  0  0  0  0
  -17.6456  -30.6593   24.0576 C   0  0  0  0  0  0
  -25.9018  -34.9482   23.5152 C   0  0  0  0  0  0
  -16.5349  -29.9102   23.6316 C   0  0  0  0  0  0
  -16.7260  -28.6518   23.0335 C   0  0  0  0  0  0
  -26.4453  -31.6612   25.0740 C   0  0  0  0  0  0
  -25.3716  -31.3719   26.1502 C   0  0  0  0  0  0
  -27.0254  -30.3051   24.6084 C   0  0  0  0  0  0
  -27.6068  -32.4300   25.7482 C   0  0  0  0  0  0
  -27.5589  -37.1818   24.8456 C   0  0  0  0  0  0
  -21.4148  -29.3034   22.3757 N   0  0  0  0  0  0
  -26.4304  -37.3801   23.9396 N   0  0  0  0  0  0
  -24.6636  -31.0843   22.1017 N   0  0  0  0  0  0
  -23.4215  -28.8182   23.3011 O   0  0  0  0  0  0
  -28.4329  -26.7782   20.0781 O   0  0  0  0  0  0
  -26.5614  -34.8924   22.4735 O   0  0  0  0  0  0
  -23.5313  -32.1450   23.7536 O   0  0  0  0  0  0
  -29.2930  -20.1754   20.1453 C   0  0  0  0  0  0
  -29.5689  -18.7674   19.6254 C   0  0  0  0  0  0
  -29.0311  -18.6251   21.9460 C   0  0  0  0  0  0
  -28.4445  -19.9481   21.4058 C   0  0  1  0  0  0
  -27.9576  -20.6596   23.8354 C   0  0  0  0  0  0
  -27.8893  -24.5670   20.9744 C   0  0  0  0  0  0
  -31.1356  -16.3172   22.1326 C   0  0  0  0  0  0
  -31.0782  -17.4942   21.1307 C   0  0  0  0  0  0
  -28.1685  -23.0594   20.8563 C   0  0  0  0  0  0
  -28.4581  -25.3791   19.7950 C   0  0  0  0  0  0
  -28.4722  -21.1091   22.4510 C   0  0  2  0  0  0
  -30.3957  -15.1346   21.6779 N   0  0  0  0  0  0
  -29.6863  -17.9100   20.8237 N   0  3  2  0  0  0
  -27.6965  -22.3120   22.0449 N   0  3  0  0  0  0
  -31.4552  -12.3598   19.0953 H   0  0  0  0  0  0
  -30.2932  -11.2566   19.7704 H   0  0  0  0  0  0
  -29.7111  -11.8113   17.3973 H   0  0  0  0  0  0
  -29.6599  -13.5140   17.7849 H   0  0  0  0  0  0
  -27.8117  -11.3228   18.7942 H   0  0  0  0  0  0
  -27.3554  -12.6721   17.7889 H   0  0  0  0  0  0
  -27.7217  -14.2572   19.6014 H   0  0  0  0  0  0
  -28.6575  -11.9272   21.3409 H   0  0  0  0  0  0
  -28.4595  -13.5653   21.8741 H   0  0  0  0  0  0
  -25.2752   -9.5688   22.4754 H   0  0  0  0  0  0
  -23.9996   -7.4639   22.7472 H   0  0  0  0  0  0
  -21.0834   -8.8772   19.8944 H   0  0  0  0  0  0
  -22.3688  -10.9675   19.6158 H   0  0  0  0  0  0
  -21.2003   -7.6147   23.9717 H   0  0  0  0  0  0
  -21.1479   -6.0521   25.9079 H   0  0  0  0  0  0
  -22.0601   -2.7607   23.2848 H   0  0  0  0  0  0
  -22.4105  -11.9885   22.4770 H   0  0  0  0  0  0
  -21.1108  -13.1250   22.2574 H   0  0  0  0  0  0
  -24.6656  -15.8423   20.5098 H   0  0  0  0  0  0
  -26.2781  -15.6177   20.0578 H   0  0  0  0  0  0
  -26.7106  -32.5591   23.1203 H   0  0  0  0  0  0
  -24.9918  -33.9802   25.0438 H   0  0  0  0  0  0
  -22.6845  -31.3134   21.4205 H   0  0  0  0  0  0
  -23.3735  -35.9687   23.3293 H   0  0  0  0  0  0
  -24.3568  -36.8959   22.2050 H   0  0  0  0  0  0
  -23.7262  -37.6544   23.6671 H   0  0  0  0  0  0
  -26.0341  -31.6120   20.5940 H   0  0  0  0  0  0
  -26.8126  -30.8980   21.9823 H   0  0  0  0  0  0
  -28.0969  -29.1227   21.1457 H   0  0  0  0  0  0
  -26.0231  -25.9859   19.0068 H   0  0  0  0  0  0
  -23.9676  -27.3031   19.0452 H   0  0  0  0  0  0
  -23.7178  -30.6137   19.4131 H   0  0  0  0  0  0
  -22.7282  -29.2565   19.8671 H   0  0  0  0  0  0
  -25.1279  -36.2012   25.0829 H   0  0  0  0  0  0
  -20.9962  -28.3264   24.1451 H   0  0  0  0  0  0
  -20.5680  -26.2270   23.3617 H   0  0  0  0  0  0
  -21.6633  -26.7455   22.1215 H   0  0  0  0  0  0
  -19.6907  -25.6317   21.1218 H   0  0  0  0  0  0
  -19.6705  -27.3235   20.6780 H   0  0  0  0  0  0
  -17.4188  -26.6699   21.4014 H   0  0  0  0  0  0
  -18.0297  -26.0079   22.9015 H   0  0  0  0  0  0
  -19.7936  -30.7233   24.2337 H   0  0  0  0  0  0
  -17.5017  -31.6273   24.5184 H   0  0  0  0  0  0
  -15.5350  -30.3013   23.7619 H   0  0  0  0  0  0
  -15.8658  -28.0853   22.7023 H   0  0  0  0  0  0
  -24.5871  -30.7104   25.7819 H   0  0  0  0  0  0
  -24.8929  -32.2868   26.5009 H   0  0  0  0  0  0
  -25.8038  -30.8837   27.0243 H   0  0  0  0  0  0
  -26.2782  -29.6844   24.1124 H   0  0  0  0  0  0
  -27.4002  -29.7274   25.4540 H   0  0  0  0  0  0
  -27.8635  -30.4353   23.9227 H   0  0  0  0  0  0
  -27.2738  -33.3598   26.2108 H   0  0  0  0  0  0
  -28.3838  -32.6837   25.0261 H   0  0  0  0  0  0
  -28.0770  -31.8376   26.5343 H   0  0  0  0  0  0
  -28.2606  -38.0117   24.7478 H   0  0  0  0  0  0
  -28.1072  -36.2631   24.6296 H   0  0  0  0  0  0
  -27.2290  -37.1492   25.8857 H   0  0  0  0  0  0
  -20.9320  -29.8765   21.6986 H   0  0  0  0  0  0
  -26.0200  -38.2881   24.1394 H   0  0  0  0  0  0
  -28.8009  -20.7809   19.3860 H   0  0  0  0  0  0
  -30.2396  -20.6562   20.3959 H   0  0  0  0  0  0
  -30.4374  -18.7281   18.9652 H   0  0  0  0  0  0
  -28.7133  -18.4213   19.0432 H   0  0  0  0  0  0
  -28.2606  -18.0010   22.4004 H   0  0  0  0  0  0
  -29.7697  -18.8339   22.7210 H   0  0  0  0  0  0
  -27.4155  -19.7488   21.0997 H   0  0  0  0  0  0
  -28.5471  -19.8531   24.2706 H   0  0  0  0  0  0
  -26.9241  -20.3157   23.7855 H   0  0  0  0  0  0
  -28.0029  -21.4778   24.5544 H   0  0  0  0  0  0
  -28.3427  -24.9423   21.8929 H   0  0  0  0  0  0
  -26.8160  -24.7356   21.0631 H   0  0  0  0  0  0
  -30.7444  -16.6204   23.1039 H   0  0  0  0  0  0
  -32.1790  -16.0478   22.3083 H   0  0  0  0  0  0
  -31.5843  -17.2053   20.2093 H   0  0  0  0  0  0
  -31.6440  -18.3460   21.5133 H   0  0  0  0  0  0
  -29.2416  -22.9163   20.7283 H   0  0  0  0  0  0
  -27.6739  -22.6611   19.9696 H   0  0  0  0  0  0
  -27.9784  -25.1312   18.8479 H   0  0  0  0  0  0
  -29.5075  -25.1147   19.6579 H   0  0  0  0  0  0
  -29.5108  -21.4194   22.5881 H   0  0  0  0  0  0
  -29.6165  -14.8138   22.2350 H   0  0  0  0  0  0
  -29.1685  -17.0657   20.6332 H   0  0  0  0  0  0
  -26.7211  -22.0806   21.9375 H   0  0  0  0  0  0
  -27.7575  -22.9506   22.8219 H   0  0  0  0  0  0
  1 25  1  0  0  0
  1 30  2  0  0  0
  1 82  1  0  0  0
  2  3  1  0  0  0
  2 25  1  0  0  0
  2 85  1  0  0  0
  2 86  1  0  0  0
  3  4  1  0  0  0
  3 87  1  0  0  0
  3 88  1  0  0  0
  4  5  1  0  0  0
  4 89  1  0  0  0
  4 90  1  0  0  0
  5  6  1  0  0  0
  5 26  1  0  0  0
  5 91  1  0  0  0
  6 25  1  0  0  0
  6 92  1  0  0  0
  6 93  1  0  0  0
  7  8  2  0  0  0
  7 26  1  0  0  0
  7 29  1  0  0  0
  8  9  1  0  0  0
  8 22  1  0  0  0
  9 10  1  0  0  0
  9 27  2  0  0  0
 10 11  2  0  0  0
 10 15  1  0  0  0
 11 12  1  0  0  0
 11 94  1  0  0  0
 12 13  2  0  0  0
 12 95  1  0  0  0
 13 14  1  0  0  0
 13 31  1  0  0  0
 14 15  2  0  0  0
 14 96  1  0  0  0
 15 97  1  0  0  0
 16 17  2  0  0  0
 16 21  1  0  0  0
 16 31  1  0  0  0
 17 18  1  0  0  0
 17 98  1  0  0  0
 18 19  2  0  0  0
 18 99  1  0  0  0
 19 20  1  0  0  0
 19 24  1  0  0  0
 20 21  2  0  0  0
 20100  1  0  0  0
 21 23  1  0  0  0
 22 28  1  0  0  0
 22 32  2  0  0  0
 26 27  1  0  0  0
 28101  1  0  0  0
 28102  1  0  0  0
 29103  1  0  0  0
 29104  1  0  0  0
 33 34  1  0  0  0
 33 66  1  0  0  0
 33 70  2  0  0  0
 34 36  1  0  0  0
 34 59  1  0  0  0
 34105  1  0  0  0
 35 44  2  0  0  0
 35 45  1  0  0  0
 35 68  1  0  0  0
 36 56  1  0  0  0
 36106  1  0  0  0
 37 39  1  0  0  0
 37 47  1  0  0  0
 37 66  1  0  0  0
 37107  1  0  0  0
 38 43  2  0  0  0
 38 46  1  0  0  0
 38 47  1  0  0  0
 39 64  1  0  0  0
 39 67  2  0  0  0
 40 52  1  0  0  0
 40 53  2  0  0  0
 40 58  1  0  0  0
 41108  1  0  0  0
 41109  1  0  0  0
 41110  1  0  0  0
 41 48  1  0  0  0
 42 43  1  0  0  0
 42 66  1  0  0  0
 42111  1  0  0  0
 42112  1  0  0  0
 43 44  1  0  0  0
 44113  1  0  0  0
 45 46  2  0  0  0
 45114  1  0  0  0
 46115  1  0  0  0
 47116  1  0  0  0
 47117  1  0  0  0
 48 56  1  0  0  0
 48 65  1  0  0  0
 48118  1  0  0  0
 49 50  1  0  0  0
 49 53  1  0  0  0
 49 64  1  0  0  0
 49119  1  0  0  0
 50 51  1  0  0  0
 50120  1  0  0  0
 50121  1  0  0  0
 51 52  1  0  0  0
 51122  1  0  0  0
 51123  1  0  0  0
 52124  1  0  0  0
 52125  1  0  0  0
 53 54  1  0  0  0
 54 55  2  0  0  0
 54126  1  0  0  0
 55 57  1  0  0  0
 55127  1  0  0  0
 56 69  2  0  0  0
 57 58  2  0  0  0
 57128  1  0  0  0
 58129  1  0  0  0
 59 60  1  0  0  0
 59 61  1  0  0  0
 59 62  1  0  0  0
 60130  1  0  0  0
 60131  1  0  0  0
 60132  1  0  0  0
 61133  1  0  0  0
 61134  1  0  0  0
 61135  1  0  0  0
 62136  1  0  0  0
 62137  1  0  0  0
 62138  1  0  0  0
 63 65  1  0  0  0
 63139  1  0  0  0
 63140  1  0  0  0
 63141  1  0  0  0
 64142  1  0  0  0
 65143  1  0  0  0
 68 80  1  0  0  0
 71 72  1  0  0  0
 71144  1  0  0  0
 71145  1  0  0  0
 71 74  1  0  0  0
 72 83  1  0  0  0
 72146  1  0  0  0
 72147  1  0  0  0
 73 74  1  0  0  0
 73 83  1  0  0  0
 73148  1  0  0  0
 73149  1  0  0  0
 74 81  1  0  0  0
 74150  1  0  0  0
 75151  1  0  0  0
 75152  1  0  0  0
 75153  1  0  0  0
 75 81  1  0  0  0
 76 79  1  0  0  0
 76 80  1  0  0  0
 76154  1  0  0  0
 76155  1  0  0  0
 77 78  1  0  0  0
 77 82  1  0  0  0
 77156  1  0  0  0
 77157  1  0  0  0
 78158  1  0  0  0
 78159  1  0  0  0
 78 83  1  0  0  0
 79 84  1  0  0  0
 79160  1  0  0  0
 79161  1  0  0  0
 80162  1  0  0  0
 80163  1  0  0  0
 81 84  1  0  0  0
 81164  1  0  0  0
 82165  1  0  0  0
 83166  1  0  0  0
 84167  1  0  0  0
 84168  1  0  0  0
M  CHG  2  83   1  84   1
M  ISO  4   1 100  68 101  80 101  82 100
M  END
> <chiral flag>
0

> <version>
0

> <s_m_source_file>
/data/baiqing/PycharmProjects/Reinvent-master-3.2/result/LINK_invent/BTK/process_docking_weight1_custom_sum_contain_oxygen_bond_distance_aromatic_linkinvent_7_9_3/rearranged_h_0120.sdf

> <i_m_source_file_index>
15

> <r_mmod_Potential_Energy-OPLS-2005>
-288.714721679688

> <r_mmod_Stretch_Energy-OPLS-2005>
33.3686447143555

> <r_mmod_Bend_Energy-OPLS-2005>
122.742904663086

> <r_mmod_Torsional_Energy-OPLS-2005>
301.697998046875

> <r_mmod_Improper_Torsional_Energy-OPLS-2005>
2.07622003555298

> <r_mmod_Van_der_Waal_Energy-OPLS-2005>
139.436386108398

> <r_mmod_Electrostatic_Energy-OPLS-2005>
69.4666213989258

> <r_mmod_Solvation_Energy-OPLS-2005>
-965.488098144531

> <b_mmod_Minimization_Converged-OPLS-2005>
0

> <r_mmod_RMS_Derivative-OPLS-2005>
2.43137383460999

$$$$
15
                    3D
 Structure written by MMmdl.
178186  0  0  1  0            999 V2000
  -30.6645  -14.4824   20.5397 C   0  0  0  0  0  0
  -30.4294  -12.2988   19.4333 C   0  0  0  0  0  0
  -29.5086  -12.5103   18.2131 C   0  0  0  0  0  0
  -28.0258  -12.3672   18.6127 C   0  0  0  0  0  0
  -27.6652  -13.1989   19.8740 C   0  0  2  0  0  0
  -28.7029  -12.9736   21.0010 C   0  0  0  0  0  0
  -25.2621  -13.8139   20.5661 C   0  0  0  0  0  0
  -24.1865  -13.0438   20.9186 C   0  0  0  0  0  0
  -24.6400  -11.6896   20.8733 C   0  0  0  0  0  0
  -23.9051  -10.4291   21.0414 C   0  0  0  0  0  0
  -24.3604   -9.4209   21.9193 C   0  0  0  0  0  0
  -23.6303   -8.2237   22.0752 C   0  0  0  0  0  0
  -22.4287   -8.0283   21.3546 C   0  0  0  0  0  0
  -21.9911   -9.0251   20.4642 C   0  0  0  0  0  0
  -22.7226  -10.2138   20.3062 C   0  0  0  0  0  0
  -21.6858   -6.0745   22.5293 C   0  0  0  0  0  0
  -21.4002   -6.5638   23.8223 C   0  0  0  0  0  0
  -21.3656   -5.6791   24.9181 C   0  0  0  0  0  0
  -21.6051   -4.3059   24.7223 C   0  0  0  0  0  0
  -21.8818   -3.8147   23.4341 C   0  0  0  0  0  0
  -21.9186   -4.6972   22.3398 C   0  0  0  0  0  0
  -22.7895  -13.5260   21.1843 C   0  0  0  0  0  0
  -22.1665   -4.2147   21.0986 F   0  0  0  0  0  0
  -21.5628   -3.4545   25.7731 F   0  0  0  0  0  0
  -30.0395  -13.2770   20.4579 N   0  0  0  0  0  0
  -26.3040  -12.9290   20.3321 N   0  0  0  0  0  0
  -25.9317  -11.6461   20.5713 N   0  0  0  0  0  0
  -22.0501  -12.8265   22.0379 N   0  0  0  0  0  0
  -25.4359  -15.1843   20.3992 N   0  0  0  0  0  0
  -31.7867  -14.7007   20.0757 O   0  0  0  0  0  0
  -21.6648   -6.8891   21.4258 O   0  0  0  0  0  0
  -22.3607  -14.5583   20.6695 O   0  0  0  0  0  0
  -24.6158  -31.8682   23.2106 C   0  0  0  0  0  0
  -25.9068  -32.4806   23.8407 C   0  0  1  0  0  0
  -27.2249  -27.4175   20.1012 C   0  0  0  0  0  0
  -25.5937  -33.8605   24.2335 N   0  0  0  0  0  0
  -23.4013  -30.4934   21.5510 C   0  0  2  0  0  0
  -24.8439  -28.9540   20.1158 C   0  0  0  0  0  0
  -22.7421  -29.4661   22.4987 C   0  0  0  0  0  0
  -18.0278  -28.1349   22.8493 C   0  0  0  0  0  0
  -24.1480  -36.7284   23.2635 C   0  0  0  0  0  0
  -25.9340  -30.8247   21.3700 C   0  0  0  0  0  0
  -26.0055  -29.4622   20.7102 C   0  0  0  0  0  0
  -27.1971  -28.7034   20.6924 C   0  0  0  0  0  0
  -26.0424  -26.9262   19.5027 C   0  0  0  0  0  0
  -24.8569  -27.6867   19.5112 C   0  0  0  0  0  0
  -23.6094  -29.8259   20.1655 C   0  0  0  0  0  0
  -25.4106  -36.3096   24.0341 C   0  0  1  0  0  0
  -20.5873  -28.3647   23.1302 C   0  0  2  0  0  0
  -20.6766  -26.9380   22.5407 C   0  0  0  0  0  0
  -19.5738  -26.6369   21.5203 C   0  0  0  0  0  0
  -18.1919  -26.7902   22.1617 C   0  0  0  0  0  0
  -19.1530  -28.8820   23.2893 C   0  0  0  0  0  0
  -18.9456  -30.1433   23.8892 C   0  0  0  0  0  0
  -17.6456  -30.6567   24.0560 C   0  0  0  0  0  0
  -25.9046  -34.9460   23.5130 C   0  0  0  0  0  0
  -16.5345  -29.9062   23.6333 C   0  0  0  0  0  0
  -16.7268  -28.6475   23.0361 C   0  0  0  0  0  0
  -26.4505  -31.6584   25.0733 C   0  0  0  0  0  0
  -25.3792  -31.3691   26.1499 C   0  0  0  0  0  0
  -27.0348  -30.3026   24.6122 C   0  0  0  0  0  0
  -27.6074  -32.4311   25.7488 C   0  0  0  0  0  0
  -27.5576  -37.1797   24.8467 C   0  0  0  0  0  0
  -21.4153  -29.3025   22.3716 N   0  0  0  0  0  0
  -26.4278  -37.3799   23.9425 N   0  0  0  0  0  0
  -24.6681  -31.0776   22.1013 N   0  0  0  0  0  0
  -23.4194  -28.8218   23.3037 O   0  0  0  0  0  0
  -28.4046  -26.6963   20.1332 O   0  0  0  0  0  0
  -26.5577  -34.8910   22.4669 O   0  0  0  0  0  0
  -23.5355  -32.1431   23.7512 O   0  0  0  0  0  0
  -26.4200  -22.7162   18.9968 C   0  0  0  0  0  0
  -26.3691  -21.9125   17.9031 C   0  0  0  0  0  0
  -27.4484  -22.2431   19.8618 C   0  0  0  0  0  0
  -27.9356  -21.0739   19.2967 C   0  0  0  0  0  0
  -26.5076  -20.4391   23.9433 C   0  0  0  0  0  0
  -27.9972  -20.5669   15.7021 C   0  0  0  0  0  0
  -26.3433  -18.9950   16.8202 C   0  0  0  0  0  0
  -28.9155  -20.0394   19.8275 C   0  0  0  0  0  0
  -27.2381  -20.8968   22.6740 C   0  0  0  0  0  0
  -27.0865  -22.4011   22.3901 C   0  0  0  0  0  0
  -27.6953  -24.4997   21.1081 C   0  0  0  0  0  0
  -29.8487  -16.8341   20.3341 C   0  0  0  0  0  0
  -28.8024  -17.7576   21.0142 C   0  0  0  0  0  0
  -28.3873  -25.2661   19.9488 C   0  0  0  0  0  0
  -27.8593  -22.9445   21.1574 C   0  0  2  0  0  0
  -27.5678  -19.9029   17.0201 C   0  0  0  0  0  0
  -27.3165  -20.9177   18.0486 N   0  0  0  0  0  0
  -29.8621  -15.4871   20.9285 N   0  0  0  0  0  0
  -28.1934  -18.7767   20.1178 N   0  3  0  0  0  0
  -31.4772  -12.3957   19.1417 H   0  0  0  0  0  0
  -30.3256  -11.2870   19.8257 H   0  0  0  0  0  0
  -29.7590  -11.7977   17.4261 H   0  0  0  0  0  0
  -29.6812  -13.5025   17.7903 H   0  0  0  0  0  0
  -27.8323  -11.3111   18.7994 H   0  0  0  0  0  0
  -27.3829  -12.6466   17.7766 H   0  0  0  0  0  0
  -27.7091  -14.2455   19.5773 H   0  0  0  0  0  0
  -28.6725  -11.9395   21.3458 H   0  0  0  0  0  0
  -28.4624  -13.5781   21.8766 H   0  0  0  0  0  0
  -25.2747   -9.5697   22.4767 H   0  0  0  0  0  0
  -24.0011   -7.4630   22.7475 H   0  0  0  0  0  0
  -21.0843   -8.8770   19.8947 H   0  0  0  0  0  0
  -22.3690  -10.9683   19.6165 H   0  0  0  0  0  0
  -21.1992   -7.6146   23.9728 H   0  0  0  0  0  0
  -21.1493   -6.0520   25.9089 H   0  0  0  0  0  0
  -22.0597   -2.7611   23.2845 H   0  0  0  0  0  0
  -22.4077  -11.9914   22.4783 H   0  0  0  0  0  0
  -21.1116  -13.1314   22.2534 H   0  0  0  0  0  0
  -24.6440  -15.8165   20.4461 H   0  0  0  0  0  0
  -26.2324  -15.5782   19.9191 H   0  0  0  0  0  0
  -26.7134  -32.5505   23.1165 H   0  0  0  0  0  0
  -25.0166  -33.9766   25.0535 H   0  0  0  0  0  0
  -22.6896  -31.3100   21.4149 H   0  0  0  0  0  0
  -23.3758  -35.9606   23.3296 H   0  0  0  0  0  0
  -24.3561  -36.8883   22.2046 H   0  0  0  0  0  0
  -23.7216  -37.6481   23.6644 H   0  0  0  0  0  0
  -26.0590  -31.5921   20.6053 H   0  0  0  0  0  0
  -26.8179  -30.8637   21.9958 H   0  0  0  0  0  0
  -28.0958  -29.0919   21.1507 H   0  0  0  0  0  0
  -26.0118  -25.9565   19.0309 H   0  0  0  0  0  0
  -23.9606  -27.2855   19.0581 H   0  0  0  0  0  0
  -23.7301  -30.6015   19.4091 H   0  0  0  0  0  0
  -22.7314  -29.2528   19.8622 H   0  0  0  0  0  0
  -25.1284  -36.1954   25.0840 H   0  0  0  0  0  0
  -20.9965  -28.3200   24.1420 H   0  0  0  0  0  0
  -20.5657  -26.2252   23.3588 H   0  0  0  0  0  0
  -21.6638  -26.7414   22.1209 H   0  0  0  0  0  0
  -19.6891  -25.6289   21.1202 H   0  0  0  0  0  0
  -19.6676  -27.3199   20.6746 H   0  0  0  0  0  0
  -17.4206  -26.6674   21.4000 H   0  0  0  0  0  0
  -18.0313  -26.0021   22.8989 H   0  0  0  0  0  0
  -19.7936  -30.7259   24.2234 H   0  0  0  0  0  0
  -17.5018  -31.6242   24.5169 H   0  0  0  0  0  0
  -15.5346  -30.2966   23.7668 H   0  0  0  0  0  0
  -15.8666  -28.0798   22.7077 H   0  0  0  0  0  0
  -24.5947  -30.7046   25.7857 H   0  0  0  0  0  0
  -24.9020  -32.2855   26.4985 H   0  0  0  0  0  0
  -25.8174  -30.8843   27.0234 H   0  0  0  0  0  0
  -26.2888  -29.6755   24.1229 H   0  0  0  0  0  0
  -27.4168  -29.7290   25.4576 H   0  0  0  0  0  0
  -27.8710  -30.4322   23.9243 H   0  0  0  0  0  0
  -27.2688  -33.3603   26.2080 H   0  0  0  0  0  0
  -28.3889  -32.6878   25.0324 H   0  0  0  0  0  0
  -28.0759  -31.8439   26.5394 H   0  0  0  0  0  0
  -28.2613  -38.0081   24.7535 H   0  0  0  0  0  0
  -28.1054  -36.2618   24.6285 H   0  0  0  0  0  0
  -27.2284  -37.1432   25.8864 H   0  0  0  0  0  0
  -20.9299  -29.8742   21.6939 H   0  0  0  0  0  0
  -26.0156  -38.2866   24.1466 H   0  0  0  0  0  0
  -25.7939  -23.5857   19.1442 H   0  0  0  0  0  0
  -25.7459  -21.9662   17.0192 H   0  0  0  0  0  0
  -26.5750  -19.3562   24.0636 H   0  0  0  0  0  0
  -25.4494  -20.7008   23.9106 H   0  0  0  0  0  0
  -26.9420  -20.8942   24.8328 H   0  0  0  0  0  0
  -28.2441  -19.8188   14.9485 H   0  0  0  0  0  0
  -28.8811  -21.1887   15.8468 H   0  0  0  0  0  0
  -27.2106  -21.1985   15.2889 H   0  0  0  0  0  0
  -26.5422  -18.2283   16.0700 H   0  0  0  0  0  0
  -25.4730  -19.5591   16.4853 H   0  0  0  0  0  0
  -26.0689  -18.4816   17.7409 H   0  0  0  0  0  0
  -29.3954  -20.4122   20.7315 H   0  0  0  0  0  0
  -29.7196  -19.8595   19.1136 H   0  0  0  0  0  0
  -26.8375  -20.3312   21.8368 H   0  0  0  0  0  0
  -28.2947  -20.6429   22.7671 H   0  0  0  0  0  0
  -27.4140  -22.9456   23.2767 H   0  0  0  0  0  0
  -26.0259  -22.6293   22.2730 H   0  0  0  0  0  0
  -26.6321  -24.7363   21.0979 H   0  0  0  0  0  0
  -28.0692  -24.9115   22.0462 H   0  0  0  0  0  0
  -30.8423  -17.2827   20.3878 H   0  0  0  0  0  0
  -29.6178  -16.7207   19.2742 H   0  0  0  0  0  0
  -29.2180  -18.2305   21.9059 H   0  0  0  0  0  0
  -27.9704  -17.1472   21.3665 H   0  0  0  0  0  0
  -27.9703  -25.0058   18.9770 H   0  0  0  0  0  0
  -29.4296  -24.9483   19.9057 H   0  0  0  0  0  0
  -28.9193  -22.7407   21.3063 H   0  0  0  0  0  0
  -28.3981  -19.2720   17.3323 H   0  0  0  0  0  0
  -28.9981  -15.1805   21.3504 H   0  0  0  0  0  0
  -27.9222  -18.3375   19.2548 H   0  0  0  0  0  0
  -27.3379  -19.0691   20.5622 H   0  0  0  0  0  0
  1 25  1  0  0  0
  1 30  2  0  0  0
  1 88  1  0  0  0
  2  3  1  0  0  0
  2 25  1  0  0  0
  2 90  1  0  0  0
  2 91  1  0  0  0
  3  4  1  0  0  0
  3 92  1  0  0  0
  3 93  1  0  0  0
  4  5  1  0  0  0
  4 94  1  0  0  0
  4 95  1  0  0  0
  5  6  1  0  0  0
  5 26  1  0  0  0
  5 96  1  0  0  0
  6 25  1  0  0  0
  6 97  1  0  0  0
  6 98  1  0  0  0
  7  8  2  0  0  0
  7 26  1  0  0  0
  7 29  1  0  0  0
  8  9  1  0  0  0
  8 22  1  0  0  0
  9 10  1  0  0  0
  9 27  2  0  0  0
 10 11  2  0  0  0
 10 15  1  0  0  0
 11 12  1  0  0  0
 11 99  1  0  0  0
 12 13  2  0  0  0
 12100  1  0  0  0
 13 14  1  0  0  0
 13 31  1  0  0  0
 14 15  2  0  0  0
 14101  1  0  0  0
 15102  1  0  0  0
 16 17  2  0  0  0
 16 21  1  0  0  0
 16 31  1  0  0  0
 17 18  1  0  0  0
 17103  1  0  0  0
 18 19  2  0  0  0
 18104  1  0  0  0
 19 20  1  0  0  0
 19 24  1  0  0  0
 20 21  2  0  0  0
 20105  1  0  0  0
 21 23  1  0  0  0
 22 28  1  0  0  0
 22 32  2  0  0  0
 26 27  1  0  0  0
 28106  1  0  0  0
 28107  1  0  0  0
 29108  1  0  0  0
 29109  1  0  0  0
 33 34  1  0  0  0
 33 66  1  0  0  0
 33 70  2  0  0  0
 34 36  1  0  0  0
 34 59  1  0  0  0
 34110  1  0  0  0
 35 44  2  0  0  0
 35 45  1  0  0  0
 35 68  1  0  0  0
 36 56  1  0  0  0
 36111  1  0  0  0
 37 39  1  0  0  0
 37 47  1  0  0  0
 37 66  1  0  0  0
 37112  1  0  0  0
 38 43  2  0  0  0
 38 46  1  0  0  0
 38 47  1  0  0  0
 39 64  1  0  0  0
 39 67  2  0  0  0
 40 52  1  0  0  0
 40 53  2  0  0  0
 40 58  1  0  0  0
 41113  1  0  0  0
 41114  1  0  0  0
 41115  1  0  0  0
 41 48  1  0  0  0
 42 43  1  0  0  0
 42 66  1  0  0  0
 42116  1  0  0  0
 42117  1  0  0  0
 43 44  1  0  0  0
 44118  1  0  0  0
 45 46  2  0  0  0
 45119  1  0  0  0
 46120  1  0  0  0
 47121  1  0  0  0
 47122  1  0  0  0
 48 56  1  0  0  0
 48 65  1  0  0  0
 48123  1  0  0  0
 49 50  1  0  0  0
 49 53  1  0  0  0
 49 64  1  0  0  0
 49124  1  0  0  0
 50 51  1  0  0  0
 50125  1  0  0  0
 50126  1  0  0  0
 51 52  1  0  0  0
 51127  1  0  0  0
 51128  1  0  0  0
 52129  1  0  0  0
 52130  1  0  0  0
 53 54  1  0  0  0
 54 55  2  0  0  0
 54131  1  0  0  0
 55 57  1  0  0  0
 55132  1  0  0  0
 56 69  2  0  0  0
 57 58  2  0  0  0
 57133  1  0  0  0
 58134  1  0  0  0
 59 60  1  0  0  0
 59 61  1  0  0  0
 59 62  1  0  0  0
 60135  1  0  0  0
 60136  1  0  0  0
 60137  1  0  0  0
 61138  1  0  0  0
 61139  1  0  0  0
 61140  1  0  0  0
 62141  1  0  0  0
 62142  1  0  0  0
 62143  1  0  0  0
 63 65  1  0  0  0
 63144  1  0  0  0
 63145  1  0  0  0
 63146  1  0  0  0
 64147  1  0  0  0
 65148  1  0  0  0
 68 84  1  0  0  0
 71 72  2  0  0  0
 71 73  1  0  0  0
 71149  1  0  0  0
 72 87  1  0  0  0
 72150  1  0  0  0
 73 74  2  0  0  0
 73 85  1  0  0  0
 74 78  1  0  0  0
 74 87  1  0  0  0
 75 79  1  0  0  0
 75151  1  0  0  0
 75152  1  0  0  0
 75153  1  0  0  0
 76154  1  0  0  0
 76155  1  0  0  0
 76156  1  0  0  0
 76 86  1  0  0  0
 77 86  1  0  0  0
 77157  1  0  0  0
 77158  1  0  0  0
 77159  1  0  0  0
 78 89  1  0  0  0
 78160  1  0  0  0
 78161  1  0  0  0
 79 80  1  0  0  0
 79162  1  0  0  0
 79163  1  0  0  0
 80164  1  0  0  0
 80165  1  0  0  0
 80 85  1  0  0  0
 81 84  1  0  0  0
 81 85  1  0  0  0
 81166  1  0  0  0
 81167  1  0  0  0
 82 83  1  0  0  0
 82 88  1  0  0  0
 82168  1  0  0  0
 82169  1  0  0  0
 83 89  1  0  0  0
 83170  1  0  0  0
 83171  1  0  0  0
 84172  1  0  0  0
 84173  1  0  0  0
 85174  1  0  0  0
 86 87  1  0  0  0
 86175  1  0  0  0
 88176  1  0  0  0
 89177  1  0  0  0
 89178  1  0  0  0
M  CHG  1  89   1
M  ISO  4   1 100  68 101  84 101  88 100
M  END
> <chiral flag>
0

> <version>
0

> <s_m_source_file>
/data/baiqing/PycharmProjects/Reinvent-master-3.2/result/LINK_invent/BTK/process_docking_weight1_custom_sum_contain_oxygen_bond_distance_aromatic_linkinvent_7_9_3/rearranged_h_0120.sdf

> <i_m_source_file_index>
16

> <r_mmod_Potential_Energy-OPLS-2005>
-275.355560302734

> <r_mmod_Stretch_Energy-OPLS-2005>
41.6406631469727

> <r_mmod_Bend_Energy-OPLS-2005>
114.820678710938

> <r_mmod_Torsional_Energy-OPLS-2005>
254.019546508789

> <r_mmod_Improper_Torsional_Energy-OPLS-2005>
9.05568027496338

> <r_mmod_Van_der_Waal_Energy-OPLS-2005>
114.059097290039

> <r_mmod_Electrostatic_Energy-OPLS-2005>
-351.456176757812

> <r_mmod_Solvation_Energy-OPLS-2005>
-472.586242675781

> <b_mmod_Minimization_Converged-OPLS-2005>
0

> <r_mmod_RMS_Derivative-OPLS-2005>
2.58323216438293

$$$$
16
                    3D
 Structure written by MMmdl.
165173  0  0  1  0            999 V2000
  -30.6197  -14.6973   20.5064 C   0  0  0  0  0  0
  -30.4456  -12.4461   19.4386 C   0  0  0  0  0  0
  -29.5116  -12.5104   18.2110 C   0  0  0  0  0  0
  -28.0365  -12.3394   18.6272 C   0  0  0  0  0  0
  -27.6497  -13.2196   19.8475 C   0  0  2  0  0  0
  -28.6983  -13.1150   20.9754 C   0  0  0  0  0  0
  -25.2566  -13.8171   20.5609 C   0  0  0  0  0  0
  -24.1848  -13.0433   20.9167 C   0  0  0  0  0  0
  -24.6407  -11.6911   20.8729 C   0  0  0  0  0  0
  -23.9075  -10.4288   21.0401 C   0  0  0  0  0  0
  -24.3625   -9.4201   21.9168 C   0  0  0  0  0  0
  -23.6283   -8.2243   22.0757 C   0  0  0  0  0  0
  -22.4269   -8.0275   21.3544 C   0  0  0  0  0  0
  -21.9903   -9.0253   20.4655 C   0  0  0  0  0  0
  -22.7249  -10.2119   20.3048 C   0  0  0  0  0  0
  -21.6852   -6.0732   22.5273 C   0  0  0  0  0  0
  -21.4017   -6.5636   23.8206 C   0  0  0  0  0  0
  -21.3647   -5.6782   24.9164 C   0  0  0  0  0  0
  -21.6057   -4.3051   24.7212 C   0  0  0  0  0  0
  -21.8831   -3.8141   23.4330 C   0  0  0  0  0  0
  -21.9202   -4.6965   22.3392 C   0  0  0  0  0  0
  -22.7863  -13.5219   21.1821 C   0  0  0  0  0  0
  -22.1657   -4.2149   21.0967 F   0  0  0  0  0  0
  -21.5629   -3.4538   25.7726 F   0  0  0  0  0  0
  -29.9986  -13.4777   20.3941 N   0  0  0  0  0  0
  -26.2995  -12.9344   20.3257 N   0  0  0  0  0  0
  -25.9348  -11.6507   20.5757 N   0  0  0  0  0  0
  -22.0483  -12.8227   22.0365 N   0  0  0  0  0  0
  -25.4239  -15.1884   20.3983 N   0  0  0  0  0  0
  -31.8080  -14.8377   20.2117 O   0  0  0  0  0  0
  -21.6628   -6.8871   21.4236 O   0  0  0  0  0  0
  -22.3547  -14.5512   20.6631 O   0  0  0  0  0  0
  -24.6237  -31.8561   23.2040 C   0  0  0  0  0  0
  -25.9091  -32.4756   23.8345 C   0  0  1  0  0  0
  -27.2310  -27.3179   20.0979 C   0  0  0  0  0  0
  -25.5923  -33.8570   24.2275 N   0  0  0  0  0  0
  -23.4189  -30.4787   21.5439 C   0  0  2  0  0  0
  -24.8694  -28.9322   20.1113 C   0  0  0  0  0  0
  -22.7435  -29.4596   22.4915 C   0  0  0  0  0  0
  -18.0301  -28.1409   22.8513 C   0  0  0  0  0  0
  -24.1495  -36.7296   23.2622 C   0  0  0  0  0  0
  -25.9589  -30.7828   21.3780 C   0  0  0  0  0  0
  -26.0373  -29.4085   20.7201 C   0  0  0  0  0  0
  -27.2206  -28.6101   20.7074 C   0  0  0  0  0  0
  -26.0434  -26.8986   19.4590 C   0  0  0  0  0  0
  -24.8731  -27.6806   19.4752 C   0  0  0  0  0  0
  -23.6359  -29.8115   20.1607 C   0  0  0  0  0  0
  -25.4124  -36.3067   24.0301 C   0  0  1  0  0  0
  -20.5886  -28.3680   23.1293 C   0  0  2  0  0  0
  -20.6772  -26.9408   22.5426 C   0  0  0  0  0  0
  -19.5751  -26.6411   21.5210 C   0  0  0  0  0  0
  -18.1951  -26.7957   22.1649 C   0  0  0  0  0  0
  -19.1544  -28.8867   23.2913 C   0  0  0  0  0  0
  -18.9472  -30.1460   23.8937 C   0  0  0  0  0  0
  -17.6485  -30.6603   24.0635 C   0  0  0  0  0  0
  -25.9045  -34.9434   23.5063 C   0  0  0  0  0  0
  -16.5378  -29.9111   23.6376 C   0  0  0  0  0  0
  -16.7277  -28.6545   23.0364 C   0  0  0  0  0  0
  -26.4522  -31.6569   25.0695 C   0  0  0  0  0  0
  -25.3772  -31.3723   26.1422 C   0  0  0  0  0  0
  -27.0355  -30.2986   24.6150 C   0  0  0  0  0  0
  -27.6064  -32.4315   25.7489 C   0  0  0  0  0  0
  -27.5582  -37.1798   24.8449 C   0  0  0  0  0  0
  -21.4162  -29.3005   22.3639 N   0  0  0  0  0  0
  -26.4300  -37.3763   23.9386 N   0  0  0  0  0  0
  -24.6850  -31.0556   22.0994 N   0  0  0  0  0  0
  -23.4156  -28.8123   23.2996 O   0  0  0  0  0  0
  -28.3520  -26.4742   20.0778 O   0  0  0  0  0  0
  -26.5595  -34.8878   22.4626 O   0  0  0  0  0  0
  -23.5394  -32.1375   23.7344 O   0  0  0  0  0  0
  -29.4616  -21.2610   22.9417 C   0  0  0  0  0  0
  -29.4994  -22.5791   22.1468 C   0  0  0  0  0  0
  -30.1907  -20.1052   22.2275 C   0  0  0  0  0  0
  -28.9855  -22.4283   20.6954 C   0  0  2  0  0  0
  -29.7268  -21.1384   20.0559 C   0  0  2  0  0  0
  -27.9701  -20.7693   18.1538 C   0  0  0  0  0  0
  -29.0532  -23.8655   19.9592 C   0  0  0  0  0  0
  -29.4449  -20.9304   18.5452 C   0  0  0  0  0  0
  -30.0974  -17.1984   21.2484 C   0  0  0  0  0  0
  -29.8815  -18.4738   20.2809 C   0  0  0  0  0  0
  -28.1755  -25.0772   20.5483 C   0  0  0  0  0  0
  -29.8157  -15.7791   20.7802 N   0  0  0  0  0  0
  -29.5788  -19.8587   20.8961 N   0  3  1  0  0  0
  -31.4776  -12.6080   19.1273 H   0  0  0  0  0  0
  -30.4105  -11.4579   19.8993 H   0  0  0  0  0  0
  -29.7872  -11.7413   17.4887 H   0  0  0  0  0  0
  -29.6377  -13.4640   17.6979 H   0  0  0  0  0  0
  -27.8812  -11.2863   18.8665 H   0  0  0  0  0  0
  -27.3830  -12.5590   17.7824 H   0  0  0  0  0  0
  -27.6550  -14.2489   19.4928 H   0  0  0  0  0  0
  -28.7354  -12.1044   21.3842 H   0  0  0  0  0  0
  -28.4364  -13.7691   21.8091 H   0  0  0  0  0  0
  -25.2770   -9.5681   22.4734 H   0  0  0  0  0  0
  -24.0011   -7.4632   22.7458 H   0  0  0  0  0  0
  -21.0847   -8.8765   19.8934 H   0  0  0  0  0  0
  -22.3709  -10.9655   19.6155 H   0  0  0  0  0  0
  -21.1984   -7.6135   23.9704 H   0  0  0  0  0  0
  -21.1465   -6.0500   25.9065 H   0  0  0  0  0  0
  -22.0620   -2.7600   23.2828 H   0  0  0  0  0  0
  -22.4093  -11.9939   22.4856 H   0  0  0  0  0  0
  -21.1082  -13.1261   22.2496 H   0  0  0  0  0  0
  -24.6542  -15.8410   20.5109 H   0  0  0  0  0  0
  -26.2668  -15.6329   20.0572 H   0  0  0  0  0  0
  -26.7130  -32.5436   23.1060 H   0  0  0  0  0  0
  -25.0157  -33.9753   25.0475 H   0  0  0  0  0  0
  -22.7130  -31.2983   21.3983 H   0  0  0  0  0  0
  -23.3741  -35.9643   23.3287 H   0  0  0  0  0  0
  -24.3571  -36.8929   22.2035 H   0  0  0  0  0  0
  -23.7274  -37.6495   23.6671 H   0  0  0  0  0  0
  -26.0805  -31.5468   20.6086 H   0  0  0  0  0  0
  -26.8404  -30.8371   22.0038 H   0  0  0  0  0  0
  -28.1178  -28.9728   21.1888 H   0  0  0  0  0  0
  -26.0155  -25.9561   18.9314 H   0  0  0  0  0  0
  -23.9791  -27.3236   18.9806 H   0  0  0  0  0  0
  -23.7538  -30.5848   19.4016 H   0  0  0  0  0  0
  -22.7565  -29.2365   19.8627 H   0  0  0  0  0  0
  -25.1322  -36.1904   25.0795 H   0  0  0  0  0  0
  -21.0043  -28.3284   24.1381 H   0  0  0  0  0  0
  -20.5654  -26.2295   23.3629 H   0  0  0  0  0  0
  -21.6660  -26.7438   22.1263 H   0  0  0  0  0  0
  -19.6915  -25.6329   21.1220 H   0  0  0  0  0  0
  -19.6683  -27.3239   20.6756 H   0  0  0  0  0  0
  -17.4205  -26.6672   21.4092 H   0  0  0  0  0  0
  -18.0393  -26.0107   22.9048 H   0  0  0  0  0  0
  -19.7945  -30.7265   24.2328 H   0  0  0  0  0  0
  -17.5035  -31.6265   24.5280 H   0  0  0  0  0  0
  -15.5377  -30.3043   23.7695 H   0  0  0  0  0  0
  -15.8661  -28.0895   22.7055 H   0  0  0  0  0  0
  -24.5932  -30.7091   25.7754 H   0  0  0  0  0  0
  -24.8993  -32.2903   26.4841 H   0  0  0  0  0  0
  -25.8089  -30.8896   27.0194 H   0  0  0  0  0  0
  -26.2914  -29.6735   24.1196 H   0  0  0  0  0  0
  -27.4060  -29.7242   25.4647 H   0  0  0  0  0  0
  -27.8786  -30.4251   23.9358 H   0  0  0  0  0  0
  -27.2656  -33.3607   26.2080 H   0  0  0  0  0  0
  -28.3903  -32.6900   25.0355 H   0  0  0  0  0  0
  -28.0717  -31.8439   26.5413 H   0  0  0  0  0  0
  -28.2584  -38.0113   24.7498 H   0  0  0  0  0  0
  -28.1103  -36.2626   24.6303 H   0  0  0  0  0  0
  -27.2273  -37.1471   25.8846 H   0  0  0  0  0  0
  -20.9286  -29.8695   21.6857 H   0  0  0  0  0  0
  -26.0162  -38.2817   24.1422 H   0  0  0  0  0  0
  -28.4250  -20.9817   23.1363 H   0  0  0  0  0  0
  -29.9047  -21.4170   23.9272 H   0  0  0  0  0  0
  -30.5185  -22.9648   22.1338 H   0  0  0  0  0  0
  -28.9054  -23.3142   22.6867 H   0  0  0  0  0  0
  -30.1297  -19.2316   22.8692 H   0  0  0  0  0  0
  -31.2559  -20.3210   22.1203 H   0  0  0  0  0  0
  -27.9268  -22.1725   20.7566 H   0  0  0  0  0  0
  -30.7936  -21.3662   20.0914 H   0  0  0  0  0  0
  -27.8774  -20.7420   17.0670 H   0  0  0  0  0  0
  -27.3670  -21.6053   18.5076 H   0  0  0  0  0  0
  -27.5440  -19.8432   18.5390 H   0  0  0  0  0  0
  -28.7506  -23.7318   18.9189 H   0  0  0  0  0  0
  -30.0951  -24.1821   19.9183 H   0  0  0  0  0  0
  -30.0113  -20.0833   18.1569 H   0  0  0  0  0  0
  -29.8593  -21.7792   18.0020 H   0  0  0  0  0  0
  -29.4332  -17.3106   22.1048 H   0  0  0  0  0  0
  -31.1083  -17.2353   21.6562 H   0  0  0  0  0  0
  -29.0782  -18.2488   19.5793 H   0  0  0  0  0  0
  -30.7876  -18.5802   19.6819 H   0  0  0  0  0  0
  -27.1322  -24.7736   20.4866 H   0  0  0  0  0  0
  -28.3741  -25.1425   21.6148 H   0  0  0  0  0  0
  -28.8411  -15.5255   20.8529 H   0  0  0  0  0  0
  -28.5904  -19.8002   21.0898 H   0  0  0  0  0  0
  1 25  1  0  0  0
  1 30  2  0  0  0
  1 82  1  0  0  0
  2  3  1  0  0  0
  2 25  1  0  0  0
  2 84  1  0  0  0
  2 85  1  0  0  0
  3  4  1  0  0  0
  3 86  1  0  0  0
  3 87  1  0  0  0
  4  5  1  0  0  0
  4 88  1  0  0  0
  4 89  1  0  0  0
  5  6  1  0  0  0
  5 26  1  0  0  0
  5 90  1  0  0  0
  6 25  1  0  0  0
  6 91  1  0  0  0
  6 92  1  0  0  0
  7  8  2  0  0  0
  7 26  1  0  0  0
  7 29  1  0  0  0
  8  9  1  0  0  0
  8 22  1  0  0  0
  9 10  1  0  0  0
  9 27  2  0  0  0
 10 11  2  0  0  0
 10 15  1  0  0  0
 11 12  1  0  0  0
 11 93  1  0  0  0
 12 13  2  0  0  0
 12 94  1  0  0  0
 13 14  1  0  0  0
 13 31  1  0  0  0
 14 15  2  0  0  0
 14 95  1  0  0  0
 15 96  1  0  0  0
 16 17  2  0  0  0
 16 21  1  0  0  0
 16 31  1  0  0  0
 17 18  1  0  0  0
 17 97  1  0  0  0
 18 19  2  0  0  0
 18 98  1  0  0  0
 19 20  1  0  0  0
 19 24  1  0  0  0
 20 21  2  0  0  0
 20 99  1  0  0  0
 21 23  1  0  0  0
 22 28  1  0  0  0
 22 32  2  0  0  0
 26 27  1  0  0  0
 28100  1  0  0  0
 28101  1  0  0  0
 29102  1  0  0  0
 29103  1  0  0  0
 33 34  1  0  0  0
 33 66  1  0  0  0
 33 70  2  0  0  0
 34 36  1  0  0  0
 34 59  1  0  0  0
 34104  1  0  0  0
 35 44  2  0  0  0
 35 45  1  0  0  0
 35 68  1  0  0  0
 36 56  1  0  0  0
 36105  1  0  0  0
 37 39  1  0  0  0
 37 47  1  0  0  0
 37 66  1  0  0  0
 37106  1  0  0  0
 38 43  2  0  0  0
 38 46  1  0  0  0
 38 47  1  0  0  0
 39 64  1  0  0  0
 39 67  2  0  0  0
 40 52  1  0  0  0
 40 53  2  0  0  0
 40 58  1  0  0  0
 41107  1  0  0  0
 41108  1  0  0  0
 41109  1  0  0  0
 41 48  1  0  0  0
 42 43  1  0  0  0
 42 66  1  0  0  0
 42110  1  0  0  0
 42111  1  0  0  0
 43 44  1  0  0  0
 44112  1  0  0  0
 45 46  2  0  0  0
 45113  1  0  0  0
 46114  1  0  0  0
 47115  1  0  0  0
 47116  1  0  0  0
 48 56  1  0  0  0
 48 65  1  0  0  0
 48117  1  0  0  0
 49 50  1  0  0  0
 49 53  1  0  0  0
 49 64  1  0  0  0
 49118  1  0  0  0
 50 51  1  0  0  0
 50119  1  0  0  0
 50120  1  0  0  0
 51 52  1  0  0  0
 51121  1  0  0  0
 51122  1  0  0  0
 52123  1  0  0  0
 52124  1  0  0  0
 53 54  1  0  0  0
 54 55  2  0  0  0
 54125  1  0  0  0
 55 57  1  0  0  0
 55126  1  0  0  0
 56 69  2  0  0  0
 57 58  2  0  0  0
 57127  1  0  0  0
 58128  1  0  0  0
 59 60  1  0  0  0
 59 61  1  0  0  0
 59 62  1  0  0  0
 60129  1  0  0  0
 60130  1  0  0  0
 60131  1  0  0  0
 61132  1  0  0  0
 61133  1  0  0  0
 61134  1  0  0  0
 62135  1  0  0  0
 62136  1  0  0  0
 62137  1  0  0  0
 63 65  1  0  0  0
 63138  1  0  0  0
 63139  1  0  0  0
 63140  1  0  0  0
 64141  1  0  0  0
 65142  1  0  0  0
 68 81  1  0  0  0
 71 72  1  0  0  0
 71 73  1  0  0  0
 71143  1  0  0  0
 71144  1  0  0  0
 72 74  1  0  0  0
 72145  1  0  0  0
 72146  1  0  0  0
 73 83  1  0  0  0
 73147  1  0  0  0
 73148  1  0  0  0
 74 75  1  0  0  0
 74 77  1  0  0  0
 74149  1  0  0  0
 75 78  1  0  0  0
 75 83  1  0  0  0
 75150  1  0  0  0
 76 78  1  0  0  0
 76151  1  0  0  0
 76152  1  0  0  0
 76153  1  0  0  0
 77 81  1  0  0  0
 77154  1  0  0  0
 77155  1  0  0  0
 78156  1  0  0  0
 78157  1  0  0  0
 79 80  1  0  0  0
 79 82  1  0  0  0
 79158  1  0  0  0
 79159  1  0  0  0
 80160  1  0  0  0
 80161  1  0  0  0
 80 83  1  0  0  0
 81162  1  0  0  0
 81163  1  0  0  0
 82164  1  0  0  0
 83165  1  0  0  0
M  CHG  1  83   1
M  ISO  4   1 100  68 101  81 101  82 100
M  END
> <chiral flag>
0

> <version>
0

> <s_m_source_file>
/data/baiqing/PycharmProjects/Reinvent-master-3.2/result/LINK_invent/BTK/process_docking_weight1_custom_sum_contain_oxygen_bond_distance_aromatic_linkinvent_7_9_3/rearranged_h_0120.sdf

> <i_m_source_file_index>
17

> <r_mmod_Potential_Energy-OPLS-2005>
62.915283203125

> <r_mmod_Stretch_Energy-OPLS-2005>
105.47607421875

> <r_mmod_Bend_Energy-OPLS-2005>
171.704696655273

> <r_mmod_Torsional_Energy-OPLS-2005>
287.868530273438

> <r_mmod_Improper_Torsional_Energy-OPLS-2005>
4.17663669586182

> <r_mmod_Van_der_Waal_Energy-OPLS-2005>
127.293312072754

> <r_mmod_Electrostatic_Energy-OPLS-2005>
-248.767868041992

> <r_mmod_Solvation_Energy-OPLS-2005>
-445.270416259766

> <b_mmod_Minimization_Converged-OPLS-2005>
0

> <r_mmod_RMS_Derivative-OPLS-2005>
4.34478569030762

$$$$
17
                    3D
 Structure written by MMmdl.
164172  0  0  1  0            999 V2000
  -30.6413  -14.5865   20.5156 C   0  0  0  0  0  0
  -30.4331  -12.3603   19.4480 C   0  0  0  0  0  0
  -29.5010  -12.4926   18.2230 C   0  0  0  0  0  0
  -28.0246  -12.3372   18.6379 C   0  0  0  0  0  0
  -27.6544  -13.2086   19.8673 C   0  0  2  0  0  0
  -28.6975  -13.0484   20.9972 C   0  0  0  0  0  0
  -25.2568  -13.8155   20.5684 C   0  0  0  0  0  0
  -24.1826  -13.0431   20.9178 C   0  0  0  0  0  0
  -24.6381  -11.6899   20.8735 C   0  0  0  0  0  0
  -23.9049  -10.4282   21.0399 C   0  0  0  0  0  0
  -24.3605   -9.4202   21.9178 C   0  0  0  0  0  0
  -23.6281   -8.2234   22.0754 C   0  0  0  0  0  0
  -22.4265   -8.0272   21.3537 C   0  0  0  0  0  0
  -21.9897   -9.0241   20.4642 C   0  0  0  0  0  0
  -22.7221  -10.2122   20.3047 C   0  0  0  0  0  0
  -21.6852   -6.0725   22.5272 C   0  0  0  0  0  0
  -21.4011   -6.5628   23.8203 C   0  0  0  0  0  0
  -21.3661   -5.6784   24.9166 C   0  0  0  0  0  0
  -21.6042   -4.3046   24.7219 C   0  0  0  0  0  0
  -21.8825   -3.8136   23.4342 C   0  0  0  0  0  0
  -21.9195   -4.6955   22.3396 C   0  0  0  0  0  0
  -22.7849  -13.5226   21.1847 C   0  0  0  0  0  0
  -22.1664   -4.2139   21.0975 F   0  0  0  0  0  0
  -21.5633   -3.4535   25.7735 F   0  0  0  0  0  0
  -30.0176  -13.3738   20.4358 N   0  0  0  0  0  0
  -26.2991  -12.9322   20.3343 N   0  0  0  0  0  0
  -25.9310  -11.6484   20.5773 N   0  0  0  0  0  0
  -22.0505  -12.8211   22.0410 N   0  0  0  0  0  0
  -25.4279  -15.1880   20.4106 N   0  0  0  0  0  0
  -31.7967  -14.7535   20.1150 O   0  0  0  0  0  0
  -21.6637   -6.8868   21.4233 O   0  0  0  0  0  0
  -22.3529  -14.5540   20.6708 O   0  0  0  0  0  0
  -24.6192  -31.8642   23.2025 C   0  0  0  0  0  0
  -25.9062  -32.4802   23.8345 C   0  0  1  0  0  0
  -27.2270  -27.3709   20.1181 C   0  0  0  0  0  0
  -25.5898  -33.8600   24.2279 N   0  0  0  0  0  0
  -23.4098  -30.4850   21.5448 C   0  0  2  0  0  0
  -24.8585  -28.9416   20.1137 C   0  0  0  0  0  0
  -22.7437  -29.4631   22.4961 C   0  0  0  0  0  0
  -18.0275  -28.1382   22.8488 C   0  0  0  0  0  0
  -24.1487  -36.7283   23.2648 C   0  0  0  0  0  0
  -25.9438  -30.8140   21.3618 C   0  0  0  0  0  0
  -26.0227  -29.4424   20.7100 C   0  0  0  0  0  0
  -27.2140  -28.6682   20.6986 C   0  0  0  0  0  0
  -26.0449  -26.8977   19.5135 C   0  0  0  0  0  0
  -24.8683  -27.6727   19.5079 C   0  0  0  0  0  0
  -23.6210  -29.8139   20.1611 C   0  0  0  0  0  0
  -25.4121  -36.3093   24.0332 C   0  0  1  0  0  0
  -20.5871  -28.3667   23.1312 C   0  0  2  0  0  0
  -20.6779  -26.9401   22.5423 C   0  0  0  0  0  0
  -19.5753  -26.6379   21.5223 C   0  0  0  0  0  0
  -18.1922  -26.7925   22.1621 C   0  0  0  0  0  0
  -19.1526  -28.8839   23.2892 C   0  0  0  0  0  0
  -18.9465  -30.1441   23.8905 C   0  0  0  0  0  0
  -17.6474  -30.6594   24.0559 C   0  0  0  0  0  0
  -25.9051  -34.9471   23.5107 C   0  0  0  0  0  0
  -16.5357  -29.9089   23.6345 C   0  0  0  0  0  0
  -16.7270  -28.6505   23.0362 C   0  0  0  0  0  0
  -26.4479  -31.6600   25.0688 C   0  0  0  0  0  0
  -25.3720  -31.3720   26.1416 C   0  0  0  0  0  0
  -27.0315  -30.3049   24.6068 C   0  0  0  0  0  0
  -27.6056  -32.4326   25.7445 C   0  0  0  0  0  0
  -27.5575  -37.1801   24.8474 C   0  0  0  0  0  0
  -21.4161  -29.3024   22.3701 N   0  0  0  0  0  0
  -26.4300  -37.3786   23.9404 N   0  0  0  0  0  0
  -24.6760  -31.0691   22.0948 N   0  0  0  0  0  0
  -23.4198  -28.8199   23.3034 O   0  0  0  0  0  0
  -28.3645  -26.5742   20.1129 O   0  0  0  0  0  0
  -26.5618  -34.8927   22.4669 O   0  0  0  0  0  0
  -23.5368  -32.1417   23.7391 O   0  0  0  0  0  0
  -28.7786  -20.1799   22.6579 C   0  0  0  0  0  0
  -29.6087  -17.6131   23.0471 C   0  0  0  0  0  0
  -29.6072  -18.0995   21.7198 C   0  0  0  0  0  0
  -29.2108  -19.4763   21.5085 C   0  0  0  0  0  0
  -28.7798  -19.5713   23.9208 C   0  0  0  0  0  0
  -28.9762  -21.2908   19.8015 C   0  0  0  0  0  0
  -28.2775  -20.3250   25.1349 C   0  0  0  0  0  0
  -29.2383  -20.2704   17.4254 C   0  0  0  0  0  0
  -30.0738  -17.1054   20.6120 C   0  0  0  0  0  0
  -28.9972  -21.5251   18.2873 C   0  0  0  0  0  0
  -28.6470  -22.6027   20.6089 C   0  0  0  0  0  0
  -28.5808  -23.9971   19.8474 C   0  0  0  0  0  0
  -28.2604  -25.2554   20.7358 C   0  0  0  0  0  0
  -29.2057  -18.3143   24.1224 N   0  0  0  0  0  0
  -29.2124  -20.0714   20.2149 N   0  0  0  0  0  0
  -29.8470  -15.6412   20.8561 N   0  0  0  0  0  0
  -31.4744  -12.4799   19.1440 H   0  0  0  0  0  0
  -30.3626  -11.3620   19.8814 H   0  0  0  0  0  0
  -29.7568  -11.7419   17.4742 H   0  0  0  0  0  0
  -29.6482  -13.4630   17.7471 H   0  0  0  0  0  0
  -27.8594  -11.2840   18.8716 H   0  0  0  0  0  0
  -27.3676  -12.5669   17.7986 H   0  0  0  0  0  0
  -27.6786  -14.2443   19.5294 H   0  0  0  0  0  0
  -28.6970  -12.0259   21.3774 H   0  0  0  0  0  0
  -28.4510  -13.6813   21.8510 H   0  0  0  0  0  0
  -25.2751   -9.5682   22.4746 H   0  0  0  0  0  0
  -23.9994   -7.4633   22.7476 H   0  0  0  0  0  0
  -21.0828   -8.8750   19.8946 H   0  0  0  0  0  0
  -22.3676  -10.9655   19.6153 H   0  0  0  0  0  0
  -21.1998   -7.6136   23.9703 H   0  0  0  0  0  0
  -21.1479   -6.0512   25.9067 H   0  0  0  0  0  0
  -22.0606   -2.7601   23.2843 H   0  0  0  0  0  0
  -22.4127  -11.9858   22.4765 H   0  0  0  0  0  0
  -21.1131  -13.1235   22.2659 H   0  0  0  0  0  0
  -24.6586  -15.8400   20.5172 H   0  0  0  0  0  0
  -26.2773  -15.6312   20.0844 H   0  0  0  0  0  0
  -26.7124  -32.5516   23.1097 H   0  0  0  0  0  0
  -25.0063  -33.9769   25.0434 H   0  0  0  0  0  0
  -22.6987  -31.3015   21.4011 H   0  0  0  0  0  0
  -23.3766  -35.9595   23.3327 H   0  0  0  0  0  0
  -24.3574  -36.8887   22.2056 H   0  0  0  0  0  0
  -23.7228  -37.6485   23.6665 H   0  0  0  0  0  0
  -26.0563  -31.5769   20.5905 H   0  0  0  0  0  0
  -26.8302  -30.8722   21.9811 H   0  0  0  0  0  0
  -28.1148  -29.0508   21.1580 H   0  0  0  0  0  0
  -26.0296  -25.9219   19.0487 H   0  0  0  0  0  0
  -23.9728  -27.2841   19.0443 H   0  0  0  0  0  0
  -23.7283  -30.5862   19.3986 H   0  0  0  0  0  0
  -22.7444  -29.2336   19.8681 H   0  0  0  0  0  0
  -25.1304  -36.1949   25.0825 H   0  0  0  0  0  0
  -20.9960  -28.3244   24.1435 H   0  0  0  0  0  0
  -20.5715  -26.2269   23.3612 H   0  0  0  0  0  0
  -21.6647  -26.7462   22.1191 H   0  0  0  0  0  0
  -19.6924  -25.6286   21.1251 H   0  0  0  0  0  0
  -19.6707  -27.3196   20.6756 H   0  0  0  0  0  0
  -17.4208  -26.6688   21.4009 H   0  0  0  0  0  0
  -18.0300  -26.0050   22.8999 H   0  0  0  0  0  0
  -19.7943  -30.7238   24.2291 H   0  0  0  0  0  0
  -17.5036  -31.6284   24.5134 H   0  0  0  0  0  0
  -15.5365  -30.2999   23.7668 H   0  0  0  0  0  0
  -15.8662  -28.0830   22.7092 H   0  0  0  0  0  0
  -24.5879  -30.7097   25.7730 H   0  0  0  0  0  0
  -24.8929  -32.2884   26.4875 H   0  0  0  0  0  0
  -25.8030  -30.8861   27.0175 H   0  0  0  0  0  0
  -26.2854  -29.6791   24.1157 H   0  0  0  0  0  0
  -27.4145  -29.7304   25.4512 H   0  0  0  0  0  0
  -27.8654  -30.4385   23.9169 H   0  0  0  0  0  0
  -27.2702  -33.3659   26.1979 H   0  0  0  0  0  0
  -28.3879  -32.6831   25.0265 H   0  0  0  0  0  0
  -28.0692  -31.8466   26.5388 H   0  0  0  0  0  0
  -28.2617  -38.0074   24.7509 H   0  0  0  0  0  0
  -28.1045  -36.2611   24.6333 H   0  0  0  0  0  0
  -27.2279  -37.1487   25.8874 H   0  0  0  0  0  0
  -20.9334  -29.8721   21.6896 H   0  0  0  0  0  0
  -26.0182  -38.2858   24.1418 H   0  0  0  0  0  0
  -28.4126  -21.1889   22.6282 H   0  0  0  0  0  0
  -29.9383  -16.6082   23.2663 H   0  0  0  0  0  0
  -27.2690  -20.7003   24.9562 H   0  0  0  0  0  0
  -28.9213  -21.1783   25.3470 H   0  0  0  0  0  0
  -28.2473  -19.6906   26.0213 H   0  0  0  0  0  0
  -29.2329  -20.5291   16.3672 H   0  0  0  0  0  0
  -28.4603  -19.5221   17.5836 H   0  0  0  0  0  0
  -30.2017  -19.8092   17.6457 H   0  0  0  0  0  0
  -31.1348  -17.2852   20.4321 H   0  0  0  0  0  0
  -29.5661  -17.3614   19.6816 H   0  0  0  0  0  0
  -29.7680  -22.2589   18.0509 H   0  0  0  0  0  0
  -28.0440  -21.9597   17.9895 H   0  0  0  0  0  0
  -29.3886  -22.7005   21.4013 H   0  0  0  0  0  0
  -27.6791  -22.4582   21.0875 H   0  0  0  0  0  0
  -27.8234  -23.9518   19.0652 H   0  0  0  0  0  0
  -29.5316  -24.1731   19.3451 H   0  0  0  0  0  0
  -28.9774  -25.2657   21.5569 H   0  0  0  0  0  0
  -27.2870  -25.1224   21.2127 H   0  0  0  0  0  0
  -28.9125  -15.3818   21.1320 H   0  0  0  0  0  0
  1 25  1  0  0  0
  1 30  2  0  0  0
  1 86  1  0  0  0
  2  3  1  0  0  0
  2 25  1  0  0  0
  2 87  1  0  0  0
  2 88  1  0  0  0
  3  4  1  0  0  0
  3 89  1  0  0  0
  3 90  1  0  0  0
  4  5  1  0  0  0
  4 91  1  0  0  0
  4 92  1  0  0  0
  5  6  1  0  0  0
  5 26  1  0  0  0
  5 93  1  0  0  0
  6 25  1  0  0  0
  6 94  1  0  0  0
  6 95  1  0  0  0
  7  8  2  0  0  0
  7 26  1  0  0  0
  7 29  1  0  0  0
  8  9  1  0  0  0
  8 22  1  0  0  0
  9 10  1  0  0  0
  9 27  2  0  0  0
 10 11  2  0  0  0
 10 15  1  0  0  0
 11 12  1  0  0  0
 11 96  1  0  0  0
 12 13  2  0  0  0
 12 97  1  0  0  0
 13 14  1  0  0  0
 13 31  1  0  0  0
 14 15  2  0  0  0
 14 98  1  0  0  0
 15 99  1  0  0  0
 16 17  2  0  0  0
 16 21  1  0  0  0
 16 31  1  0  0  0
 17 18  1  0  0  0
 17100  1  0  0  0
 18 19  2  0  0  0
 18101  1  0  0  0
 19 20  1  0  0  0
 19 24  1  0  0  0
 20 21  2  0  0  0
 20102  1  0  0  0
 21 23  1  0  0  0
 22 28  1  0  0  0
 22 32  2  0  0  0
 26 27  1  0  0  0
 28103  1  0  0  0
 28104  1  0  0  0
 29105  1  0  0  0
 29106  1  0  0  0
 33 34  1  0  0  0
 33 66  1  0  0  0
 33 70  2  0  0  0
 34 36  1  0  0  0
 34 59  1  0  0  0
 34107  1  0  0  0
 35 44  2  0  0  0
 35 45  1  0  0  0
 35 68  1  0  0  0
 36 56  1  0  0  0
 36108  1  0  0  0
 37 39  1  0  0  0
 37 47  1  0  0  0
 37 66  1  0  0  0
 37109  1  0  0  0
 38 43  2  0  0  0
 38 46  1  0  0  0
 38 47  1  0  0  0
 39 64  1  0  0  0
 39 67  2  0  0  0
 40 52  1  0  0  0
 40 53  2  0  0  0
 40 58  1  0  0  0
 41110  1  0  0  0
 41111  1  0  0  0
 41112  1  0  0  0
 41 48  1  0  0  0
 42 43  1  0  0  0
 42 66  1  0  0  0
 42113  1  0  0  0
 42114  1  0  0  0
 43 44  1  0  0  0
 44115  1  0  0  0
 45 46  2  0  0  0
 45116  1  0  0  0
 46117  1  0  0  0
 47118  1  0  0  0
 47119  1  0  0  0
 48 56  1  0  0  0
 48 65  1  0  0  0
 48120  1  0  0  0
 49 50  1  0  0  0
 49 53  1  0  0  0
 49 64  1  0  0  0
 49121  1  0  0  0
 50 51  1  0  0  0
 50122  1  0  0  0
 50123  1  0  0  0
 51 52  1  0  0  0
 51124  1  0  0  0
 51125  1  0  0  0
 52126  1  0  0  0
 52127  1  0  0  0
 53 54  1  0  0  0
 54 55  2  0  0  0
 54128  1  0  0  0
 55 57  1  0  0  0
 55129  1  0  0  0
 56 69  2  0  0  0
 57 58  2  0  0  0
 57130  1  0  0  0
 58131  1  0  0  0
 59 60  1  0  0  0
 59 61  1  0  0  0
 59 62  1  0  0  0
 60132  1  0  0  0
 60133  1  0  0  0
 60134  1  0  0  0
 61135  1  0  0  0
 61136  1  0  0  0
 61137  1  0  0  0
 62138  1  0  0  0
 62139  1  0  0  0
 62140  1  0  0  0
 63 65  1  0  0  0
 63141  1  0  0  0
 63142  1  0  0  0
 63143  1  0  0  0
 64144  1  0  0  0
 65145  1  0  0  0
 68 83  1  0  0  0
 71 74  2  0  0  0
 71 75  1  0  0  0
 71146  1  0  0  0
 72 73  2  0  0  0
 72 84  1  0  0  0
 72147  1  0  0  0
 73 74  1  0  0  0
 73 79  1  0  0  0
 74 85  1  0  0  0
 75 77  1  0  0  0
 75 84  2  0  0  0
 76 80  1  0  0  0
 76 81  1  0  0  0
 76 85  2  0  0  0
 77148  1  0  0  0
 77149  1  0  0  0
 77150  1  0  0  0
 78 80  1  0  0  0
 78151  1  0  0  0
 78152  1  0  0  0
 78153  1  0  0  0
 79 86  1  0  0  0
 79154  1  0  0  0
 79155  1  0  0  0
 80156  1  0  0  0
 80157  1  0  0  0
 81 82  1  0  0  0
 81158  1  0  0  0
 81159  1  0  0  0
 82 83  1  0  0  0
 82160  1  0  0  0
 82161  1  0  0  0
 83162  1  0  0  0
 83163  1  0  0  0
 86164  1  0  0  0
M  ISO  4   1 100  68 101  83 101  86 100
M  END
> <chiral flag>
0

> <version>
0

> <s_m_source_file>
/data/baiqing/PycharmProjects/Reinvent-master-3.2/result/LINK_invent/BTK/process_docking_weight1_custom_sum_contain_oxygen_bond_distance_aromatic_linkinvent_7_9_3/rearranged_h_0120.sdf

> <i_m_source_file_index>
18

> <r_mmod_Potential_Energy-OPLS-2005>
-104.390129089355

> <r_mmod_Stretch_Energy-OPLS-2005>
70.5107955932617

> <r_mmod_Bend_Energy-OPLS-2005>
153.922470092773

> <r_mmod_Torsional_Energy-OPLS-2005>
221.27131652832

> <r_mmod_Improper_Torsional_Energy-OPLS-2005>
5.36345958709717

> <r_mmod_Van_der_Waal_Energy-OPLS-2005>
159.597564697266

> <r_mmod_Electrostatic_Energy-OPLS-2005>
-522.894653320312

> <r_mmod_Solvation_Energy-OPLS-2005>
-222.51643371582

> <b_mmod_Minimization_Converged-OPLS-2005>
0

> <r_mmod_RMS_Derivative-OPLS-2005>
1.59475910663605

$$$$
18
                    3D
 Structure written by MMmdl.
151159  0  0  1  0            999 V2000
  -30.5053  -14.9951   20.4688 C   0  0  0  0  0  0
  -30.4478  -12.6320   19.4843 C   0  0  0  0  0  0
  -29.5196  -12.5258   18.2513 C   0  0  0  0  0  0
  -28.0498  -12.3188   18.6703 C   0  0  0  0  0  0
  -27.6241  -13.2491   19.8338 C   0  0  2  0  0  0
  -28.6693  -13.2720   20.9655 C   0  0  0  0  0  0
  -25.2416  -13.8242   20.5690 C   0  0  0  0  0  0
  -24.1751  -13.0438   20.9294 C   0  0  0  0  0  0
  -24.6378  -11.6926   20.8796 C   0  0  0  0  0  0
  -23.9045  -10.4299   21.0455 C   0  0  0  0  0  0
  -24.3636   -9.4198   21.9214 C   0  0  0  0  0  0
  -23.6307   -8.2226   22.0745 C   0  0  0  0  0  0
  -22.4268   -8.0305   21.3560 C   0  0  0  0  0  0
  -21.9932   -9.0265   20.4629 C   0  0  0  0  0  0
  -22.7260  -10.2149   20.3058 C   0  0  0  0  0  0
  -21.6842   -6.0746   22.5290 C   0  0  0  0  0  0
  -21.4002   -6.5629   23.8219 C   0  0  0  0  0  0
  -21.3644   -5.6785   24.9185 C   0  0  0  0  0  0
  -21.6053   -4.3049   24.7223 C   0  0  0  0  0  0
  -21.8817   -3.8148   23.4352 C   0  0  0  0  0  0
  -21.9196   -4.6970   22.3401 C   0  0  0  0  0  0
  -22.7760  -13.5171   21.1978 C   0  0  0  0  0  0
  -22.1659   -4.2144   21.0992 F   0  0  0  0  0  0
  -21.5649   -3.4539   25.7744 F   0  0  0  0  0  0
  -29.9283  -13.7235   20.3635 N   0  0  0  0  0  0
  -26.2831  -12.9446   20.3203 N   0  0  0  0  0  0
  -25.9313  -11.6569   20.5767 N   0  0  0  0  0  0
  -22.0413  -12.8124   22.0527 N   0  0  0  0  0  0
  -25.4024  -15.1977   20.4004 N   0  0  0  0  0  0
  -31.7204  -15.0648   20.2526 O   0  0  0  0  0  0
  -21.6636   -6.8908   21.4246 O   0  0  0  0  0  0
  -22.3393  -14.5468   20.6858 O   0  0  0  0  0  0
  -24.6478  -31.8365   23.1772 C   0  0  0  0  0  0
  -25.9209  -32.4656   23.8189 C   0  0  1  0  0  0
  -27.2548  -27.0847   20.2036 C   0  0  0  0  0  0
  -25.5896  -33.8448   24.2105 N   0  0  0  0  0  0
  -23.4522  -30.4499   21.5260 C   0  0  2  0  0  0
  -24.9189  -28.8623   20.1065 C   0  0  0  0  0  0
  -22.7545  -29.4517   22.4875 C   0  0  0  0  0  0
  -18.0293  -28.1325   22.8598 C   0  0  0  0  0  0
  -24.1492  -36.7238   23.2661 C   0  0  0  0  0  0
  -26.0105  -30.6983   21.3823 C   0  0  0  0  0  0
  -26.0875  -29.3005   20.7372 C   0  0  0  0  0  0
  -27.2494  -28.4318   20.7626 C   0  0  0  0  0  0
  -26.0695  -26.7679   19.4981 C   0  0  0  0  0  0
  -24.9326  -27.6169   19.4550 C   0  0  0  0  0  0
  -23.6772  -29.7502   20.1548 C   0  0  0  0  0  0
  -25.4130  -36.3013   24.0325 C   0  0  1  0  0  0
  -20.5911  -28.3663   23.1250 C   0  0  2  0  0  0
  -20.6801  -26.9362   22.5426 C   0  0  0  0  0  0
  -19.5720  -26.6312   21.5274 C   0  0  0  0  0  0
  -18.1910  -26.7851   22.1749 C   0  0  0  0  0  0
  -19.1571  -28.8820   23.2915 C   0  0  0  0  0  0
  -18.9517  -30.1434   23.8913 C   0  0  0  0  0  0
  -17.6536  -30.6603   24.0553 C   0  0  0  0  0  0
  -25.9088  -34.9375   23.5043 C   0  0  0  0  0  0
  -16.5432  -29.9069   23.6382 C   0  0  0  0  0  0
  -16.7292  -28.6453   23.0478 C   0  0  0  0  0  0
  -26.4500  -31.6580   25.0654 C   0  0  0  0  0  0
  -25.3616  -31.3775   26.1291 C   0  0  0  0  0  0
  -27.0357  -30.2984   24.6233 C   0  0  0  0  0  0
  -27.6054  -32.4329   25.7436 C   0  0  0  0  0  0
  -27.5567  -37.1770   24.8475 C   0  0  0  0  0  0
  -21.4227  -29.3011   22.3639 N   0  0  0  0  0  0
  -26.4303  -37.3726   23.9394 N   0  0  0  0  0  0
  -24.7239  -31.0181   22.0814 N   0  0  0  0  0  0
  -23.4153  -28.8131   23.3087 O   0  0  0  0  0  0
  -28.3178  -26.0977   20.3621 O   0  0  0  0  0  0
  -26.5715  -34.8887   22.4631 O   0  0  0  0  0  0
  -23.5594  -32.1229   23.7032 O   0  0  0  0  0  0
  -28.4015  -21.3300   19.0260 C   0  0  0  0  0  0
  -28.3298  -20.0121   18.5336 C   0  0  0  0  0  0
  -28.9345  -21.5776   20.2939 C   0  0  0  0  0  0
  -29.3455  -19.0876   20.3855 C   0  0  0  0  0  0
  -30.3594  -23.4757   21.4004 C   0  0  0  0  0  0
  -30.0129  -17.6942   21.0090 C   0  0  0  0  0  0
  -28.2594  -24.5348   20.0629 C   0  0  0  0  0  0
  -28.9367  -23.1604   20.8791 C   0  0  1  0  0  0
  -28.7810  -18.9196   19.1951 N   0  0  0  0  0  0
  -29.4111  -20.3876   20.9417 N   0  0  0  0  0  0
  -29.7093  -16.1727   20.6268 N   0  0  0  0  0  0
  -31.4662  -12.8350   19.1456 H   0  0  0  0  0  0
  -30.4973  -11.6875   20.0263 H   0  0  0  0  0  0
  -29.8415  -11.7127   17.6004 H   0  0  0  0  0  0
  -29.6031  -13.4419   17.6604 H   0  0  0  0  0  0
  -27.9406  -11.2767   18.9782 H   0  0  0  0  0  0
  -27.3860  -12.4535   17.8131 H   0  0  0  0  0  0
  -27.5884  -14.2522   19.4050 H   0  0  0  0  0  0
  -28.7760  -12.2818   21.4111 H   0  0  0  0  0  0
  -28.3585  -13.9456   21.7628 H   0  0  0  0  0  0
  -25.2786   -9.5639   22.4796 H   0  0  0  0  0  0
  -24.0017   -7.4564   22.7449 H   0  0  0  0  0  0
  -21.0859   -8.8773   19.8921 H   0  0  0  0  0  0
  -22.3739  -10.9680   19.6160 H   0  0  0  0  0  0
  -21.1972   -7.6139   23.9717 H   0  0  0  0  0  0
  -21.1475   -6.0522   25.9079 H   0  0  0  0  0  0
  -22.0616   -2.7604   23.2853 H   0  0  0  0  0  0
  -22.4003  -11.9755   22.4849 H   0  0  0  0  0  0
  -21.1010  -13.1126   22.2722 H   0  0  0  0  0  0
  -24.6296  -15.8448   20.5087 H   0  0  0  0  0  0
  -26.2117  -15.6228   19.9668 H   0  0  0  0  0  0
  -26.7286  -32.5336   23.0930 H   0  0  0  0  0  0
  -24.9830  -33.9479   25.0104 H   0  0  0  0  0  0
  -22.7608  -31.2816   21.3584 H   0  0  0  0  0  0
  -23.3747  -35.9573   23.3361 H   0  0  0  0  0  0
  -24.3574  -36.8832   22.2068 H   0  0  0  0  0  0
  -23.7215  -37.6430   23.6681 H   0  0  0  0  0  0
  -26.1606  -31.4530   20.6092 H   0  0  0  0  0  0
  -26.8765  -30.7596   22.0293 H   0  0  0  0  0  0
  -28.1436  -28.7572   21.2745 H   0  0  0  0  0  0
  -25.9969  -25.8200   18.9871 H   0  0  0  0  0  0
  -24.0471  -27.2986   18.9178 H   0  0  0  0  0  0
  -23.7688  -30.5067   19.3770 H   0  0  0  0  0  0
  -22.8044  -29.1603   19.8763 H   0  0  0  0  0  0
  -25.1337  -36.1841   25.0829 H   0  0  0  0  0  0
  -20.9977  -28.3178   24.1342 H   0  0  0  0  0  0
  -20.5730  -26.2369   23.3734 H   0  0  0  0  0  0
  -21.6658  -26.7364   22.1178 H   0  0  0  0  0  0
  -19.6902  -25.6271   21.1182 H   0  0  0  0  0  0
  -19.6554  -27.3193   20.6875 H   0  0  0  0  0  0
  -17.4104  -26.6665   21.4235 H   0  0  0  0  0  0
  -18.0288  -25.9983   22.9139 H   0  0  0  0  0  0
  -19.8025  -30.7288   24.2245 H   0  0  0  0  0  0
  -17.5111  -31.6370   24.4968 H   0  0  0  0  0  0
  -15.5497  -30.3053   23.7679 H   0  0  0  0  0  0
  -15.8640  -28.0815   22.7233 H   0  0  0  0  0  0
  -24.5875  -30.7056   25.7555 H   0  0  0  0  0  0
  -24.8676  -32.2947   26.4552 H   0  0  0  0  0  0
  -25.7799  -30.9046   27.0181 H   0  0  0  0  0  0
  -26.2941  -29.6725   24.1260 H   0  0  0  0  0  0
  -27.3986  -29.7287   25.4798 H   0  0  0  0  0  0
  -27.8867  -30.4230   23.9522 H   0  0  0  0  0  0
  -27.2702  -33.3714   26.1881 H   0  0  0  0  0  0
  -28.3924  -32.6734   25.0267 H   0  0  0  0  0  0
  -28.0627  -31.8480   26.5429 H   0  0  0  0  0  0
  -28.2641  -38.0026   24.7512 H   0  0  0  0  0  0
  -28.1003  -36.2545   24.6361 H   0  0  0  0  0  0
  -27.2281  -37.1534   25.8882 H   0  0  0  0  0  0
  -20.9372  -29.8780   21.6935 H   0  0  0  0  0  0
  -26.0197  -38.2826   24.1287 H   0  0  0  0  0  0
  -28.0396  -22.1459   18.4202 H   0  0  0  0  0  0
  -27.9155  -19.8310   17.5534 H   0  0  0  0  0  0
  -30.7055  -22.6823   22.0692 H   0  0  0  0  0  0
  -30.3820  -24.3905   21.9918 H   0  0  0  0  0  0
  -31.0931  -23.5636   20.6004 H   0  0  0  0  0  0
  -29.7990  -17.7374   22.0809 H   0  0  0  0  0  0
  -31.0900  -17.8320   20.9548 H   0  0  0  0  0  0
  -27.2129  -24.2697   19.9669 H   0  0  0  0  0  0
  -28.6537  -24.4788   19.0439 H   0  0  0  0  0  0
  -28.3346  -23.0930   21.7867 H   0  0  0  0  0  0
  -28.7199  -15.9927   20.5903 H   0  0  0  0  0  0
  1 25  1  0  0  0
  1 30  2  0  0  0
  1 81  1  0  0  0
  2  3  1  0  0  0
  2 25  1  0  0  0
  2 82  1  0  0  0
  2 83  1  0  0  0
  3  4  1  0  0  0
  3 84  1  0  0  0
  3 85  1  0  0  0
  4  5  1  0  0  0
  4 86  1  0  0  0
  4 87  1  0  0  0
  5  6  1  0  0  0
  5 26  1  0  0  0
  5 88  1  0  0  0
  6 25  1  0  0  0
  6 89  1  0  0  0
  6 90  1  0  0  0
  7  8  2  0  0  0
  7 26  1  0  0  0
  7 29  1  0  0  0
  8  9  1  0  0  0
  8 22  1  0  0  0
  9 10  1  0  0  0
  9 27  2  0  0  0
 10 11  2  0  0  0
 10 15  1  0  0  0
 11 12  1  0  0  0
 11 91  1  0  0  0
 12 13  2  0  0  0
 12 92  1  0  0  0
 13 14  1  0  0  0
 13 31  1  0  0  0
 14 15  2  0  0  0
 14 93  1  0  0  0
 15 94  1  0  0  0
 16 17  2  0  0  0
 16 21  1  0  0  0
 16 31  1  0  0  0
 17 18  1  0  0  0
 17 95  1  0  0  0
 18 19  2  0  0  0
 18 96  1  0  0  0
 19 20  1  0  0  0
 19 24  1  0  0  0
 20 21  2  0  0  0
 20 97  1  0  0  0
 21 23  1  0  0  0
 22 28  1  0  0  0
 22 32  2  0  0  0
 26 27  1  0  0  0
 28 98  1  0  0  0
 28 99  1  0  0  0
 29100  1  0  0  0
 29101  1  0  0  0
 33 34  1  0  0  0
 33 66  1  0  0  0
 33 70  2  0  0  0
 34 36  1  0  0  0
 34 59  1  0  0  0
 34102  1  0  0  0
 35 44  2  0  0  0
 35 45  1  0  0  0
 35 68  1  0  0  0
 36 56  1  0  0  0
 36103  1  0  0  0
 37 39  1  0  0  0
 37 47  1  0  0  0
 37 66  1  0  0  0
 37104  1  0  0  0
 38 43  2  0  0  0
 38 46  1  0  0  0
 38 47  1  0  0  0
 39 64  1  0  0  0
 39 67  2  0  0  0
 40 52  1  0  0  0
 40 53  2  0  0  0
 40 58  1  0  0  0
 41105  1  0  0  0
 41106  1  0  0  0
 41107  1  0  0  0
 41 48  1  0  0  0
 42 43  1  0  0  0
 42 66  1  0  0  0
 42108  1  0  0  0
 42109  1  0  0  0
 43 44  1  0  0  0
 44110  1  0  0  0
 45 46  2  0  0  0
 45111  1  0  0  0
 46112  1  0  0  0
 47113  1  0  0  0
 47114  1  0  0  0
 48 56  1  0  0  0
 48 65  1  0  0  0
 48115  1  0  0  0
 49 50  1  0  0  0
 49 53  1  0  0  0
 49 64  1  0  0  0
 49116  1  0  0  0
 50 51  1  0  0  0
 50117  1  0  0  0
 50118  1  0  0  0
 51 52  1  0  0  0
 51119  1  0  0  0
 51120  1  0  0  0
 52121  1  0  0  0
 52122  1  0  0  0
 53 54  1  0  0  0
 54 55  2  0  0  0
 54123  1  0  0  0
 55 57  1  0  0  0
 55124  1  0  0  0
 56 69  2  0  0  0
 57 58  2  0  0  0
 57125  1  0  0  0
 58126  1  0  0  0
 59 60  1  0  0  0
 59 61  1  0  0  0
 59 62  1  0  0  0
 60127  1  0  0  0
 60128  1  0  0  0
 60129  1  0  0  0
 61130  1  0  0  0
 61131  1  0  0  0
 61132  1  0  0  0
 62133  1  0  0  0
 62134  1  0  0  0
 62135  1  0  0  0
 63 65  1  0  0  0
 63136  1  0  0  0
 63137  1  0  0  0
 63138  1  0  0  0
 64139  1  0  0  0
 65140  1  0  0  0
 68 77  1  0  0  0
 71 72  2  0  0  0
 71 73  1  0  0  0
 71141  1  0  0  0
 72 79  1  0  0  0
 72142  1  0  0  0
 73 78  1  0  0  0
 73 80  2  0  0  0
 74 76  1  0  0  0
 74 79  2  0  0  0
 74 80  1  0  0  0
 75143  1  0  0  0
 75144  1  0  0  0
 75145  1  0  0  0
 75 78  1  0  0  0
 76 81  1  0  0  0
 76146  1  0  0  0
 76147  1  0  0  0
 77 78  1  0  0  0
 77148  1  0  0  0
 77149  1  0  0  0
 78150  1  0  0  0
 81151  1  0  0  0
M  ISO  4   1 100  68 101  77 101  81 100
M  END
> <chiral flag>
0

> <version>
0

> <s_m_source_file>
/data/baiqing/PycharmProjects/Reinvent-master-3.2/result/LINK_invent/BTK/process_docking_weight1_custom_sum_contain_oxygen_bond_distance_aromatic_linkinvent_7_9_3/rearranged_h_0120.sdf

> <i_m_source_file_index>
19

> <r_mmod_Potential_Energy-OPLS-2005>
52.436897277832

> <r_mmod_Stretch_Energy-OPLS-2005>
327.580444335938

> <r_mmod_Bend_Energy-OPLS-2005>
298.333587646484

> <r_mmod_Torsional_Energy-OPLS-2005>
209.508819580078

> <r_mmod_Improper_Torsional_Energy-OPLS-2005>
4.56333017349243

> <r_mmod_Van_der_Waal_Energy-OPLS-2005>
130.543640136719

> <r_mmod_Electrostatic_Energy-OPLS-2005>
-914.408508300781

> <r_mmod_Solvation_Energy-OPLS-2005>
-241.490020751953

> <b_mmod_Minimization_Converged-OPLS-2005>
0

> <r_mmod_RMS_Derivative-OPLS-2005>
8.19648456573486

$$$$
19
                    3D
 Structure written by MMmdl.
148157  0  0  1  0            999 V2000
  -30.5556  -14.9158   20.4314 C   0  0  0  0  0  0
  -30.4433  -12.5665   19.5007 C   0  0  0  0  0  0
  -29.5250  -12.5292   18.2563 C   0  0  0  0  0  0
  -28.0553  -12.3226   18.6693 C   0  0  0  0  0  0
  -27.6349  -13.2464   19.8426 C   0  0  2  0  0  0
  -28.6775  -13.2563   20.9822 C   0  0  0  0  0  0
  -25.2480  -13.8217   20.5699 C   0  0  0  0  0  0
  -24.1786  -13.0448   20.9219 C   0  0  0  0  0  0
  -24.6397  -11.6931   20.8748 C   0  0  0  0  0  0
  -23.9079  -10.4299   21.0402 C   0  0  0  0  0  0
  -24.3627   -9.4214   21.9181 C   0  0  0  0  0  0
  -23.6299   -8.2252   22.0751 C   0  0  0  0  0  0
  -22.4284   -8.0284   21.3538 C   0  0  0  0  0  0
  -21.9916   -9.0263   20.4647 C   0  0  0  0  0  0
  -22.7248  -10.2141   20.3054 C   0  0  0  0  0  0
  -21.6854   -6.0734   22.5274 C   0  0  0  0  0  0
  -21.4019   -6.5635   23.8208 C   0  0  0  0  0  0
  -21.3664   -5.6790   24.9169 C   0  0  0  0  0  0
  -21.6045   -4.3052   24.7218 C   0  0  0  0  0  0
  -21.8819   -3.8144   23.4341 C   0  0  0  0  0  0
  -21.9196   -4.6962   22.3401 C   0  0  0  0  0  0
  -22.7803  -13.5220   21.1872 C   0  0  0  0  0  0
  -22.1661   -4.2142   21.0979 F   0  0  0  0  0  0
  -21.5630   -3.4544   25.7741 F   0  0  0  0  0  0
  -29.9605  -13.6578   20.3917 N   0  0  0  0  0  0
  -26.2911  -12.9442   20.3253 N   0  0  0  0  0  0
  -25.9332  -11.6573   20.5726 N   0  0  0  0  0  0
  -22.0447  -12.8223   22.0428 N   0  0  0  0  0  0
  -25.4154  -15.1940   20.4097 N   0  0  0  0  0  0
  -31.7538  -14.9919   20.1407 O   0  0  0  0  0  0
  -21.6643   -6.8885   21.4242 O   0  0  0  0  0  0
  -22.3500  -14.5528   20.6706 O   0  0  0  0  0  0
  -24.6437  -31.8461   23.1931 C   0  0  0  0  0  0
  -25.9214  -32.4708   23.8310 C   0  0  1  0  0  0
  -27.2096  -27.1382   20.1383 C   0  0  0  0  0  0
  -25.5973  -33.8512   24.2225 N   0  0  0  0  0  0
  -23.4474  -30.4710   21.5384 C   0  0  2  0  0  0
  -24.8967  -28.9089   20.1079 C   0  0  0  0  0  0
  -22.7572  -29.4565   22.4852 C   0  0  0  0  0  0
  -18.0307  -28.1396   22.8476 C   0  0  0  0  0  0
  -24.1498  -36.7257   23.2635 C   0  0  0  0  0  0
  -26.0065  -30.7178   21.3974 C   0  0  0  0  0  0
  -26.0755  -29.3317   20.7352 C   0  0  0  0  0  0
  -27.2314  -28.4608   20.7421 C   0  0  0  0  0  0
  -26.0089  -26.8389   19.4484 C   0  0  0  0  0  0
  -24.8770  -27.6748   19.4497 C   0  0  0  0  0  0
  -23.6755  -29.8118   20.1544 C   0  0  0  0  0  0
  -25.4124  -36.3041   24.0322 C   0  0  1  0  0  0
  -20.5921  -28.3729   23.1231 C   0  0  2  0  0  0
  -20.6801  -26.9436   22.5390 C   0  0  0  0  0  0
  -19.5766  -26.6383   21.5209 C   0  0  0  0  0  0
  -18.1950  -26.7933   22.1629 C   0  0  0  0  0  0
  -19.1563  -28.8880   23.2849 C   0  0  0  0  0  0
  -18.9475  -30.1475   23.8873 C   0  0  0  0  0  0
  -17.6474  -30.6597   24.0553 C   0  0  0  0  0  0
  -25.9075  -34.9416   23.5078 C   0  0  0  0  0  0
  -16.5363  -29.9090   23.6336 C   0  0  0  0  0  0
  -16.7291  -28.6507   23.0356 C   0  0  0  0  0  0
  -26.4532  -31.6557   25.0740 C   0  0  0  0  0  0
  -25.3730  -31.3755   26.1450 C   0  0  0  0  0  0
  -27.0373  -30.2942   24.6321 C   0  0  0  0  0  0
  -27.6083  -32.4300   25.7509 C   0  0  0  0  0  0
  -27.5584  -37.1786   24.8465 C   0  0  0  0  0  0
  -21.4262  -29.3062   22.3604 N   0  0  0  0  0  0
  -26.4289  -37.3754   23.9414 N   0  0  0  0  0  0
  -24.7192  -31.0324   22.0976 N   0  0  0  0  0  0
  -23.4218  -28.8086   23.2981 O   0  0  0  0  0  0
  -28.2269  -26.1102   20.2338 O   0  0  0  0  0  0
  -26.5646  -34.8905   22.4645 O   0  0  0  0  0  0
  -23.5558  -32.1332   23.7150 O   0  0  0  0  0  0
  -30.1092  -21.4773   21.0129 C   0  0  0  0  0  0
  -29.8110  -22.9218   20.8771 C   0  0  0  0  0  0
  -29.1914  -20.5683   20.4928 C   0  0  0  0  0  0
  -28.6266  -23.2693   20.2423 C   0  0  0  0  0  0
  -29.2596  -18.2155   19.2283 C   0  0  0  0  0  0
  -29.0769  -18.9296   20.5391 C   0  0  1  0  0  0
  -30.0637  -17.5918   20.3466 C   0  0  1  0  0  0
  -27.8351  -24.6526   19.8705 C   0  0  0  0  0  0
  -29.7634  -16.0838   20.5670 N   0  0  0  0  0  0
  -27.9288  -21.6538   19.7820 S   0  0  0  0  0  0
  -31.4788  -12.7183   19.1931 H   0  0  0  0  0  0
  -30.4269  -11.6092   20.0248 H   0  0  0  0  0  0
  -29.8411  -11.7366   17.5773 H   0  0  0  0  0  0
  -29.6217  -13.4641   17.7011 H   0  0  0  0  0  0
  -27.9420  -11.2785   18.9641 H   0  0  0  0  0  0
  -27.3958  -12.4701   17.8128 H   0  0  0  0  0  0
  -27.6056  -14.2532   19.4239 H   0  0  0  0  0  0
  -28.7538  -12.2759   21.4550 H   0  0  0  0  0  0
  -28.3810  -13.9550   21.7664 H   0  0  0  0  0  0
  -25.2764   -9.5700   22.4762 H   0  0  0  0  0  0
  -24.0010   -7.4646   22.7475 H   0  0  0  0  0  0
  -21.0840   -8.8787   19.8959 H   0  0  0  0  0  0
  -22.3700  -10.9680   19.6174 H   0  0  0  0  0  0
  -21.2011   -7.6147   23.9713 H   0  0  0  0  0  0
  -21.1486   -6.0517   25.9074 H   0  0  0  0  0  0
  -22.0595   -2.7609   23.2838 H   0  0  0  0  0  0
  -22.4060  -11.9899   22.4841 H   0  0  0  0  0  0
  -21.1060  -13.1251   22.2622 H   0  0  0  0  0  0
  -24.6433  -15.8432   20.5114 H   0  0  0  0  0  0
  -26.2525  -15.6313   20.0478 H   0  0  0  0  0  0
  -26.7275  -32.5314   23.1034 H   0  0  0  0  0  0
  -25.0127  -33.9629   25.0379 H   0  0  0  0  0  0
  -22.7505  -31.2985   21.3898 H   0  0  0  0  0  0
  -23.3773  -35.9574   23.3269 H   0  0  0  0  0  0
  -24.3598  -36.8910   22.2056 H   0  0  0  0  0  0
  -23.7232  -37.6440   23.6680 H   0  0  0  0  0  0
  -26.1677  -31.4736   20.6273 H   0  0  0  0  0  0
  -26.8752  -30.7626   22.0422 H   0  0  0  0  0  0
  -28.1207  -28.7748   21.2705 H   0  0  0  0  0  0
  -25.8850  -25.9126   18.9100 H   0  0  0  0  0  0
  -23.9816  -27.3501   18.9377 H   0  0  0  0  0  0
  -23.8190  -30.5930   19.4071 H   0  0  0  0  0  0
  -22.7882  -29.2624   19.8356 H   0  0  0  0  0  0
  -25.1304  -36.1875   25.0813 H   0  0  0  0  0  0
  -21.0014  -28.3315   24.1352 H   0  0  0  0  0  0
  -20.5716  -26.2338   23.3605 H   0  0  0  0  0  0
  -21.6666  -26.7464   22.1172 H   0  0  0  0  0  0
  -19.6934  -25.6286   21.1264 H   0  0  0  0  0  0
  -19.6697  -27.3170   20.6720 H   0  0  0  0  0  0
  -17.4211  -26.6653   21.4044 H   0  0  0  0  0  0
  -18.0375  -26.0092   22.9047 H   0  0  0  0  0  0
  -19.7949  -30.7298   24.2238 H   0  0  0  0  0  0
  -17.5025  -31.6280   24.5152 H   0  0  0  0  0  0
  -15.5362  -30.2979   23.7682 H   0  0  0  0  0  0
  -15.8693  -28.0825   22.7077 H   0  0  0  0  0  0
  -24.5823  -30.7221   25.7745 H   0  0  0  0  0  0
  -24.9036  -32.2955   26.4942 H   0  0  0  0  0  0
  -25.8001  -30.8822   27.0193 H   0  0  0  0  0  0
  -26.2976  -29.6670   24.1331 H   0  0  0  0  0  0
  -27.3968  -29.7238   25.4896 H   0  0  0  0  0  0
  -27.8913  -30.4151   23.9652 H   0  0  0  0  0  0
  -27.2698  -33.3611   26.2064 H   0  0  0  0  0  0
  -28.3906  -32.6833   25.0343 H   0  0  0  0  0  0
  -28.0741  -31.8436   26.5440 H   0  0  0  0  0  0
  -28.2580  -38.0104   24.7538 H   0  0  0  0  0  0
  -28.1107  -36.2635   24.6265 H   0  0  0  0  0  0
  -27.2314  -37.1404   25.8872 H   0  0  0  0  0  0
  -20.9461  -29.8790   21.6802 H   0  0  0  0  0  0
  -26.0161  -38.2827   24.1405 H   0  0  0  0  0  0
  -31.0061  -21.1615   21.5278 H   0  0  0  0  0  0
  -30.4939  -23.6583   21.2775 H   0  0  0  0  0  0
  -29.8317  -18.7266   18.4562 H   0  0  0  0  0  0
  -28.3912  -17.6780   18.8521 H   0  0  0  0  0  0
  -28.1647  -18.6983   21.0872 H   0  0  0  0  0  0
  -31.1245  -17.8360   20.3740 H   0  0  0  0  0  0
  -26.8346  -24.4992   20.2748 H   0  0  0  0  0  0
  -27.7154  -24.6462   18.7865 H   0  0  0  0  0  0
  -28.8006  -15.8855   20.7920 H   0  0  0  0  0  0
  1 25  1  0  0  0
  1 30  2  0  0  0
  1 79  1  0  0  0
  2  3  1  0  0  0
  2 25  1  0  0  0
  2 81  1  0  0  0
  2 82  1  0  0  0
  3  4  1  0  0  0
  3 83  1  0  0  0
  3 84  1  0  0  0
  4  5  1  0  0  0
  4 85  1  0  0  0
  4 86  1  0  0  0
  5  6  1  0  0  0
  5 26  1  0  0  0
  5 87  1  0  0  0
  6 25  1  0  0  0
  6 88  1  0  0  0
  6 89  1  0  0  0
  7  8  2  0  0  0
  7 26  1  0  0  0
  7 29  1  0  0  0
  8  9  1  0  0  0
  8 22  1  0  0  0
  9 10  1  0  0  0
  9 27  2  0  0  0
 10 11  2  0  0  0
 10 15  1  0  0  0
 11 12  1  0  0  0
 11 90  1  0  0  0
 12 13  2  0  0  0
 12 91  1  0  0  0
 13 14  1  0  0  0
 13 31  1  0  0  0
 14 15  2  0  0  0
 14 92  1  0  0  0
 15 93  1  0  0  0
 16 17  2  0  0  0
 16 21  1  0  0  0
 16 31  1  0  0  0
 17 18  1  0  0  0
 17 94  1  0  0  0
 18 19  2  0  0  0
 18 95  1  0  0  0
 19 20  1  0  0  0
 19 24  1  0  0  0
 20 21  2  0  0  0
 20 96  1  0  0  0
 21 23  1  0  0  0
 22 28  1  0  0  0
 22 32  2  0  0  0
 26 27  1  0  0  0
 28 97  1  0  0  0
 28 98  1  0  0  0
 29 99  1  0  0  0
 29100  1  0  0  0
 33 34  1  0  0  0
 33 66  1  0  0  0
 33 70  2  0  0  0
 34 36  1  0  0  0
 34 59  1  0  0  0
 34101  1  0  0  0
 35 44  2  0  0  0
 35 45  1  0  0  0
 35 68  1  0  0  0
 36 56  1  0  0  0
 36102  1  0  0  0
 37 39  1  0  0  0
 37 47  1  0  0  0
 37 66  1  0  0  0
 37103  1  0  0  0
 38 43  2  0  0  0
 38 46  1  0  0  0
 38 47  1  0  0  0
 39 64  1  0  0  0
 39 67  2  0  0  0
 40 52  1  0  0  0
 40 53  2  0  0  0
 40 58  1  0  0  0
 41104  1  0  0  0
 41105  1  0  0  0
 41106  1  0  0  0
 41 48  1  0  0  0
 42 43  1  0  0  0
 42 66  1  0  0  0
 42107  1  0  0  0
 42108  1  0  0  0
 43 44  1  0  0  0
 44109  1  0  0  0
 45 46  2  0  0  0
 45110  1  0  0  0
 46111  1  0  0  0
 47112  1  0  0  0
 47113  1  0  0  0
 48 56  1  0  0  0
 48 65  1  0  0  0
 48114  1  0  0  0
 49 50  1  0  0  0
 49 53  1  0  0  0
 49 64  1  0  0  0
 49115  1  0  0  0
 50 51  1  0  0  0
 50116  1  0  0  0
 50117  1  0  0  0
 51 52  1  0  0  0
 51118  1  0  0  0
 51119  1  0  0  0
 52120  1  0  0  0
 52121  1  0  0  0
 53 54  1  0  0  0
 54 55  2  0  0  0
 54122  1  0  0  0
 55 57  1  0  0  0
 55123  1  0  0  0
 56 69  2  0  0  0
 57 58  2  0  0  0
 57124  1  0  0  0
 58125  1  0  0  0
 59 60  1  0  0  0
 59 61  1  0  0  0
 59 62  1  0  0  0
 60126  1  0  0  0
 60127  1  0  0  0
 60128  1  0  0  0
 61129  1  0  0  0
 61130  1  0  0  0
 61131  1  0  0  0
 62132  1  0  0  0
 62133  1  0  0  0
 62134  1  0  0  0
 63 65  1  0  0  0
 63135  1  0  0  0
 63136  1  0  0  0
 63137  1  0  0  0
 64138  1  0  0  0
 65139  1  0  0  0
 68 78  1  0  0  0
 71 72  1  0  0  0
 71 73  2  0  0  0
 71140  1  0  0  0
 72 74  2  0  0  0
 72141  1  0  0  0
 73 80  1  0  0  0
 73 76  1  0  0  0
 74 78  1  0  0  0
 74 80  1  0  0  0
 75 76  1  0  0  0
 75 77  1  0  0  0
 75142  1  0  0  0
 75143  1  0  0  0
 76 77  1  0  0  0
 76144  1  0  0  0
 77 79  1  0  0  0
 77145  1  0  0  0
 78146  1  0  0  0
 78147  1  0  0  0
 79148  1  0  0  0
M  ISO  4   1 100  68 101  78 101  79 100
M  END
> <chiral flag>
0

> <version>
0

> <s_m_source_file>
/data/baiqing/PycharmProjects/Reinvent-master-3.2/result/LINK_invent/BTK/process_docking_weight1_custom_sum_contain_oxygen_bond_distance_aromatic_linkinvent_7_9_3/rearranged_h_0120.sdf

> <i_m_source_file_index>
20

> <r_mmod_Potential_Energy-OPLS-2005>
487.102844238281

> <r_mmod_Stretch_Energy-OPLS-2005>
232.861877441406

> <r_mmod_Bend_Energy-OPLS-2005>
269.204254150391

> <r_mmod_Torsional_Energy-OPLS-2005>
242.008102416992

> <r_mmod_Improper_Torsional_Energy-OPLS-2005>
5.6258339881897

> <r_mmod_Van_der_Waal_Energy-OPLS-2005>
116.937034606934

> <r_mmod_Electrostatic_Energy-OPLS-2005>
-353.979064941406

> <r_mmod_Solvation_Energy-OPLS-2005>
-211.738327026367

> <b_mmod_Minimization_Converged-OPLS-2005>
0

> <r_mmod_RMS_Derivative-OPLS-2005>
1.36802387237549

$$$$
20
                    3D
 Structure written by MMmdl.
172181  0  0  1  0            999 V2000
  -30.5904  -15.1517   20.6104 C   0  0  0  0  0  0
  -30.4252  -12.7235   19.5256 C   0  0  0  0  0  0
  -29.5266  -12.6229   18.2652 C   0  0  0  0  0  0
  -28.0671  -12.3381   18.6553 C   0  0  0  0  0  0
  -27.6272  -13.2424   19.8254 C   0  0  2  0  0  0
  -28.6569  -13.2322   20.9639 C   0  0  0  0  0  0
  -25.2514  -13.8169   20.5713 C   0  0  0  0  0  0
  -24.1793  -13.0416   20.9150 C   0  0  0  0  0  0
  -24.6386  -11.6914   20.8682 C   0  0  0  0  0  0
  -23.9051  -10.4295   21.0393 C   0  0  0  0  0  0
  -24.3596   -9.4242   21.9210 C   0  0  0  0  0  0
  -23.6278   -8.2281   22.0795 C   0  0  0  0  0  0
  -22.4271   -8.0290   21.3562 C   0  0  0  0  0  0
  -21.9891   -9.0264   20.4660 C   0  0  0  0  0  0
  -22.7225  -10.2139   20.3060 C   0  0  0  0  0  0
  -21.6864   -6.0737   22.5269 C   0  0  0  0  0  0
  -21.4044   -6.5648   23.8203 C   0  0  0  0  0  0
  -21.3656   -5.6796   24.9157 C   0  0  0  0  0  0
  -21.6041   -4.3058   24.7211 C   0  0  0  0  0  0
  -21.8824   -3.8153   23.4333 C   0  0  0  0  0  0
  -21.9207   -4.6965   22.3390 C   0  0  0  0  0  0
  -22.7829  -13.5227   21.1835 C   0  0  0  0  0  0
  -22.1677   -4.2147   21.0967 F   0  0  0  0  0  0
  -21.5600   -3.4548   25.7725 F   0  0  0  0  0  0
  -29.9292  -13.8408   20.4451 N   0  0  0  0  0  0
  -26.2843  -12.9379   20.3099 N   0  0  0  0  0  0
  -25.9306  -11.6510   20.5621 N   0  0  0  0  0  0
  -22.0477  -12.8230   22.0378 N   0  0  0  0  0  0
  -25.4287  -15.1927   20.4450 N   0  0  0  0  0  0
  -31.6099  -14.9878   19.8819 O   0  0  0  0  0  0
  -21.6674   -6.8875   21.4228 O   0  0  0  0  0  0
  -22.3550  -14.5566   20.6717 O   0  0  0  0  0  0
  -24.6487  -31.8316   23.1786 C   0  0  0  0  0  0
  -25.9255  -32.4683   23.8239 C   0  0  1  0  0  0
  -27.2327  -27.0736   20.1509 C   0  0  0  0  0  0
  -25.5916  -33.8485   24.2139 N   0  0  0  0  0  0
  -23.4583  -30.4423   21.5232 C   0  0  2  0  0  0
  -24.9142  -28.8589   20.1010 C   0  0  0  0  0  0
  -22.7629  -29.4440   22.4803 C   0  0  0  0  0  0
  -18.0283  -28.1413   22.8460 C   0  0  0  0  0  0
  -24.1448  -36.7229   23.2648 C   0  0  0  0  0  0
  -26.0164  -30.6872   21.3877 C   0  0  0  0  0  0
  -26.0880  -29.2910   20.7277 C   0  0  0  0  0  0
  -27.2433  -28.4136   20.7343 C   0  0  0  0  0  0
  -26.0354  -26.7490   19.4764 C   0  0  0  0  0  0
  -24.9070  -27.6065   19.4564 C   0  0  0  0  0  0
  -23.6935  -29.7669   20.1441 C   0  0  0  0  0  0
  -25.4101  -36.3040   24.0314 C   0  0  1  0  0  0
  -20.5903  -28.3711   23.1233 C   0  0  2  0  0  0
  -20.6767  -26.9399   22.5426 C   0  0  0  0  0  0
  -19.5754  -26.6354   21.5233 C   0  0  0  0  0  0
  -18.1919  -26.7939   22.1625 C   0  0  0  0  0  0
  -19.1545  -28.8895   23.2825 C   0  0  0  0  0  0
  -18.9469  -30.1492   23.8855 C   0  0  0  0  0  0
  -17.6469  -30.6609   24.0549 C   0  0  0  0  0  0
  -25.9073  -34.9415   23.5052 C   0  0  0  0  0  0
  -16.5354  -29.9092   23.6345 C   0  0  0  0  0  0
  -16.7269  -28.6513   23.0357 C   0  0  0  0  0  0
  -26.4523  -31.6615   25.0747 C   0  0  0  0  0  0
  -25.3682  -31.3832   26.1437 C   0  0  0  0  0  0
  -27.0448  -30.3011   24.6430 C   0  0  0  0  0  0
  -27.6003  -32.4426   25.7571 C   0  0  0  0  0  0
  -27.5565  -37.1768   24.8469 C   0  0  0  0  0  0
  -21.4299  -29.3003   22.3624 N   0  0  0  0  0  0
  -26.4261  -37.3762   23.9438 N   0  0  0  0  0  0
  -24.7291  -31.0119   22.0853 N   0  0  0  0  0  0
  -23.4242  -28.8021   23.3026 O   0  0  0  0  0  0
  -28.2953  -26.0857   20.2789 O   0  0  0  0  0  0
  -26.5693  -34.8914   22.4651 O   0  0  0  0  0  0
  -23.5609  -32.1239   23.6939 O   0  0  0  0  0  0
  -29.8733  -15.0595   22.8067 C   0  0  0  0  0  0
  -29.8850  -17.4218   20.5041 C   0  0  0  0  0  0
  -31.6923  -17.1746   20.9786 C   0  0  0  0  0  0
  -29.3732  -19.5655   18.6522 C   0  0  0  0  0  0
  -28.6530  -20.9809   18.7217 C   0  0  0  0  0  0
  -29.2500  -20.3754   20.8861 C   0  0  0  0  0  0
  -29.2124  -18.9196   20.0551 C   0  0  2  0  0  0
  -32.6896  -19.1194   19.6911 C   0  0  0  0  0  0
  -34.0571  -17.0891   20.1361 C   0  0  0  0  0  0
  -32.2857  -16.2225   23.6853 C   0  0  0  0  0  0
  -31.3271  -17.4362   23.7035 C   0  0  0  0  0  0
  -28.3296  -23.0361   20.4561 C   0  0  0  0  0  0
  -28.4439  -24.6006   19.7241 C   0  0  0  0  0  0
  -32.9288  -17.9750   20.6721 C   0  0  0  0  0  0
  -28.7271  -16.0676   21.6215 N   0  0  0  0  0  0
  -31.7044  -15.7051   22.5208 N   0  0  0  0  0  0
  -30.2894  -17.1748   22.6419 N   0  0  0  0  0  0
  -29.0572  -21.6601   19.9875 N   0  3  2  0  0  0
  -31.4621  -12.8274   19.2069 H   0  0  0  0  0  0
  -30.4447  -11.7664   20.0487 H   0  0  0  0  0  0
  -29.9008  -11.8517   17.5894 H   0  0  0  0  0  0
  -29.5820  -13.5661   17.7188 H   0  0  0  0  0  0
  -27.9919  -11.2909   18.9520 H   0  0  0  0  0  0
  -27.4075  -12.4662   17.7977 H   0  0  0  0  0  0
  -27.5963  -14.2572   19.4291 H   0  0  0  0  0  0
  -28.8111  -12.2175   21.3382 H   0  0  0  0  0  0
  -28.1780  -13.7186   21.8069 H   0  0  0  0  0  0
  -25.2726   -9.5769   22.4804 H   0  0  0  0  0  0
  -23.9983   -7.4703   22.7555 H   0  0  0  0  0  0
  -21.0812   -8.8782   19.8972 H   0  0  0  0  0  0
  -22.3676  -10.9678   19.6174 H   0  0  0  0  0  0
  -21.2081   -7.6169   23.9693 H   0  0  0  0  0  0
  -21.1454   -6.0540   25.9051 H   0  0  0  0  0  0
  -22.0608   -2.7613   23.2840 H   0  0  0  0  0  0
  -22.4017  -11.9829   22.4719 H   0  0  0  0  0  0
  -21.1116  -13.1331   22.2571 H   0  0  0  0  0  0
  -24.7065  -15.8457   20.7256 H   0  0  0  0  0  0
  -26.3535  -15.6089   20.4123 H   0  0  0  0  0  0
  -26.7330  -32.5280   23.0973 H   0  0  0  0  0  0
  -25.0042  -33.9582   25.0284 H   0  0  0  0  0  0
  -22.7638  -31.2682   21.3592 H   0  0  0  0  0  0
  -23.3759  -35.9513   23.3296 H   0  0  0  0  0  0
  -24.3507  -36.8898   22.2068 H   0  0  0  0  0  0
  -23.7148  -37.6378   23.6711 H   0  0  0  0  0  0
  -26.1829  -31.4334   20.6113 H   0  0  0  0  0  0
  -26.8874  -30.7394   22.0324 H   0  0  0  0  0  0
  -28.1427  -28.7387   21.2435 H   0  0  0  0  0  0
  -25.9508  -25.7825   18.9946 H   0  0  0  0  0  0
  -24.0157  -27.2756   18.9411 H   0  0  0  0  0  0
  -23.8336  -30.5398   19.3867 H   0  0  0  0  0  0
  -22.8112  -29.2054   19.8327 H   0  0  0  0  0  0
  -25.1275  -36.1834   25.0801 H   0  0  0  0  0  0
  -20.9952  -28.3294   24.1376 H   0  0  0  0  0  0
  -20.5634  -26.2317   23.3648 H   0  0  0  0  0  0
  -21.6631  -26.7389   22.1243 H   0  0  0  0  0  0
  -19.6899  -25.6242   21.1311 H   0  0  0  0  0  0
  -19.6724  -27.3133   20.6736 H   0  0  0  0  0  0
  -17.4186  -26.6666   21.4020 H   0  0  0  0  0  0
  -18.0310  -26.0107   22.9048 H   0  0  0  0  0  0
  -19.7945  -30.7307   24.2212 H   0  0  0  0  0  0
  -17.5019  -31.6289   24.5155 H   0  0  0  0  0  0
  -15.5352  -30.2996   23.7703 H   0  0  0  0  0  0
  -15.8651  -28.0836   22.7108 H   0  0  0  0  0  0
  -24.5794  -30.7265   25.7752 H   0  0  0  0  0  0
  -24.8967  -32.3045   26.4852 H   0  0  0  0  0  0
  -25.7934  -30.8975   27.0233 H   0  0  0  0  0  0
  -26.3122  -29.6663   24.1440 H   0  0  0  0  0  0
  -27.4061  -29.7386   25.5052 H   0  0  0  0  0  0
  -27.9005  -30.4267   23.9812 H   0  0  0  0  0  0
  -27.2548  -33.3740   26.2058 H   0  0  0  0  0  0
  -28.3884  -32.6971   25.0485 H   0  0  0  0  0  0
  -28.0606  -31.8635   26.5577 H   0  0  0  0  0  0
  -28.2528  -38.0108   24.7571 H   0  0  0  0  0  0
  -28.1090  -36.2636   24.6205 H   0  0  0  0  0  0
  -27.2291  -37.1333   25.8867 H   0  0  0  0  0  0
  -20.9547  -29.8728   21.6793 H   0  0  0  0  0  0
  -26.0108  -38.2808   24.1484 H   0  0  0  0  0  0
  -29.5192  -14.4783   23.6497 H   0  0  0  0  0  0
  -30.4199  -19.7263   18.4081 H   0  0  0  0  0  0
  -28.9630  -18.9423   17.8571 H   0  0  0  0  0  0
  -27.5747  -20.8187   18.7359 H   0  0  0  0  0  0
  -28.8588  -21.6048   17.8536 H   0  0  0  0  0  0
  -30.1955  -20.4841   21.4189 H   0  0  0  0  0  0
  -28.4808  -20.3757   21.6590 H   0  0  0  0  0  0
  -28.1489  -18.6841   20.0469 H   0  0  0  0  0  0
  -31.9616  -19.8245   20.0864 H   0  0  0  0  0  0
  -32.3503  -18.7409   18.7269 H   0  0  0  0  0  0
  -33.6053  -19.6820   19.5152 H   0  0  0  0  0  0
  -34.3482  -16.3366   20.8706 H   0  0  0  0  0  0
  -34.9422  -17.6815   19.8910 H   0  0  0  0  0  0
  -33.7529  -16.5708   19.2262 H   0  0  0  0  0  0
  -32.1527  -15.5310   24.5186 H   0  0  0  0  0  0
  -33.3366  -16.4682   23.5231 H   0  0  0  0  0  0
  -31.8588  -18.3633   23.4893 H   0  0  0  0  0  0
  -30.8489  -17.5497   24.6794 H   0  0  0  0  0  0
  -27.2649  -22.8050   20.4985 H   0  0  0  0  0  0
  -28.6314  -23.1674   21.4955 H   0  0  0  0  0  0
  -27.9096  -24.5600   18.7775 H   0  0  0  0  0  0
  -29.4902  -24.6269   19.4171 H   0  0  0  0  0  0
  -33.2783  -18.4264   21.6026 H   0  0  0  0  0  0
  -29.3271  -17.1727   22.9533 H   0  0  0  0  0  0
  -30.0046  -21.9634   19.8060 H   0  0  0  0  0  0
  1 25  1  0  0  0
  1 30  2  0  0  0
  1 87  1  0  0  0
  2  3  1  0  0  0
  2 25  1  0  0  0
  2 89  1  0  0  0
  2 90  1  0  0  0
  3  4  1  0  0  0
  3 91  1  0  0  0
  3 92  1  0  0  0
  4  5  1  0  0  0
  4 93  1  0  0  0
  4 94  1  0  0  0
  5  6  1  0  0  0
  5 26  1  0  0  0
  5 95  1  0  0  0
  6 25  1  0  0  0
  6 96  1  0  0  0
  6 97  1  0  0  0
  7  8  2  0  0  0
  7 26  1  0  0  0
  7 29  1  0  0  0
  8  9  1  0  0  0
  8 22  1  0  0  0
  9 10  1  0  0  0
  9 27  2  0  0  0
 10 11  2  0  0  0
 10 15  1  0  0  0
 11 12  1  0  0  0
 11 98  1  0  0  0
 12 13  2  0  0  0
 12 99  1  0  0  0
 13 14  1  0  0  0
 13 31  1  0  0  0
 14 15  2  0  0  0
 14100  1  0  0  0
 15101  1  0  0  0
 16 17  2  0  0  0
 16 21  1  0  0  0
 16 31  1  0  0  0
 17 18  1  0  0  0
 17102  1  0  0  0
 18 19  2  0  0  0
 18103  1  0  0  0
 19 20  1  0  0  0
 19 24  1  0  0  0
 20 21  2  0  0  0
 20104  1  0  0  0
 21 23  1  0  0  0
 22 28  1  0  0  0
 22 32  2  0  0  0
 26 27  1  0  0  0
 28105  1  0  0  0
 28106  1  0  0  0
 29107  1  0  0  0
 29108  1  0  0  0
 33 34  1  0  0  0
 33 66  1  0  0  0
 33 70  2  0  0  0
 34 36  1  0  0  0
 34 59  1  0  0  0
 34109  1  0  0  0
 35 44  2  0  0  0
 35 45  1  0  0  0
 35 68  1  0  0  0
 36 56  1  0  0  0
 36110  1  0  0  0
 37 39  1  0  0  0
 37 47  1  0  0  0
 37 66  1  0  0  0
 37111  1  0  0  0
 38 43  2  0  0  0
 38 46  1  0  0  0
 38 47  1  0  0  0
 39 64  1  0  0  0
 39 67  2  0  0  0
 40 52  1  0  0  0
 40 53  2  0  0  0
 40 58  1  0  0  0
 41112  1  0  0  0
 41113  1  0  0  0
 41114  1  0  0  0
 41 48  1  0  0  0
 42 43  1  0  0  0
 42 66  1  0  0  0
 42115  1  0  0  0
 42116  1  0  0  0
 43 44  1  0  0  0
 44117  1  0  0  0
 45 46  2  0  0  0
 45118  1  0  0  0
 46119  1  0  0  0
 47120  1  0  0  0
 47121  1  0  0  0
 48 56  1  0  0  0
 48 65  1  0  0  0
 48122  1  0  0  0
 49 50  1  0  0  0
 49 53  1  0  0  0
 49 64  1  0  0  0
 49123  1  0  0  0
 50 51  1  0  0  0
 50124  1  0  0  0
 50125  1  0  0  0
 51 52  1  0  0  0
 51126  1  0  0  0
 51127  1  0  0  0
 52128  1  0  0  0
 52129  1  0  0  0
 53 54  1  0  0  0
 54 55  2  0  0  0
 54130  1  0  0  0
 55 57  1  0  0  0
 55131  1  0  0  0
 56 69  2  0  0  0
 57 58  2  0  0  0
 57132  1  0  0  0
 58133  1  0  0  0
 59 60  1  0  0  0
 59 61  1  0  0  0
 59 62  1  0  0  0
 60134  1  0  0  0
 60135  1  0  0  0
 60136  1  0  0  0
 61137  1  0  0  0
 61138  1  0  0  0
 61139  1  0  0  0
 62140  1  0  0  0
 62141  1  0  0  0
 62142  1  0  0  0
 63 65  1  0  0  0
 63143  1  0  0  0
 63144  1  0  0  0
 63145  1  0  0  0
 64146  1  0  0  0
 65147  1  0  0  0
 68 83  1  0  0  0
 71 85  2  0  0  0
 71 86  1  0  0  0
 71148  1  0  0  0
 72 73  2  0  0  0
 72 85  1  0  0  0
 72 77  1  0  0  0
 73 84  1  0  0  0
 73 86  1  0  0  0
 74 75  1  0  0  0
 74 77  1  0  0  0
 74149  1  0  0  0
 74150  1  0  0  0
 75 88  1  0  0  0
 75151  1  0  0  0
 75152  1  0  0  0
 76 77  1  0  0  0
 76 88  1  0  0  0
 76153  1  0  0  0
 76154  1  0  0  0
 77155  1  0  0  0
 78156  1  0  0  0
 78157  1  0  0  0
 78158  1  0  0  0
 78 84  1  0  0  0
 79 84  1  0  0  0
 79159  1  0  0  0
 79160  1  0  0  0
 79161  1  0  0  0
 80 81  1  0  0  0
 80 86  1  0  0  0
 80162  1  0  0  0
 80163  1  0  0  0
 81 87  1  0  0  0
 81164  1  0  0  0
 81165  1  0  0  0
 82 83  1  0  0  0
 82166  1  0  0  0
 82167  1  0  0  0
 82 88  1  0  0  0
 83168  1  0  0  0
 83169  1  0  0  0
 84170  1  0  0  0
 87171  1  0  0  0
 88172  1  0  0  0
M  CHG  1  88   1
M  ISO  4   1 100  68 101  83 101  87 100
M  END
> <chiral flag>
0

> <version>
0

> <s_m_source_file>
/data/baiqing/PycharmProjects/Reinvent-master-3.2/result/LINK_invent/BTK/process_docking_weight1_custom_sum_contain_oxygen_bond_distance_aromatic_linkinvent_7_9_3/rearranged_h_0120.sdf

> <i_m_source_file_index>
21

> <r_mmod_Potential_Energy-OPLS-2005>
13220.1552734375

> <r_mmod_Stretch_Energy-OPLS-2005>
9204.1435546875

> <r_mmod_Bend_Energy-OPLS-2005>
565.569885253906

> <r_mmod_Torsional_Energy-OPLS-2005>
413.558807373047

> <r_mmod_Improper_Torsional_Energy-OPLS-2005>
58.2171745300293

> <r_mmod_Van_der_Waal_Energy-OPLS-2005>
3442.18994140625

> <r_mmod_Electrostatic_Energy-OPLS-2005>
-298.468200683594

> <r_mmod_Solvation_Energy-OPLS-2005>
-436.417327880859

> <b_mmod_Minimization_Converged-OPLS-2005>
0

> <r_mmod_RMS_Derivative-OPLS-2005>
12.8019008636475

$$$$
21
                    3D
 Structure written by MMmdl.
166174  0  0  1  0            999 V2000
  -30.4442  -15.2039   20.3770 C   0  0  0  0  0  0
  -30.4571  -12.7562   19.5207 C   0  0  0  0  0  0
  -29.5416  -12.5701   18.2822 C   0  0  0  0  0  0
  -28.0838  -12.3076   18.7053 C   0  0  0  0  0  0
  -27.6244  -13.2683   19.8287 C   0  0  2  0  0  0
  -28.6631  -13.3909   20.9607 C   0  0  0  0  0  0
  -25.2454  -13.8225   20.5747 C   0  0  0  0  0  0
  -24.1789  -13.0437   20.9235 C   0  0  0  0  0  0
  -24.6424  -11.6927   20.8728 C   0  0  0  0  0  0
  -23.9098  -10.4292   21.0375 C   0  0  0  0  0  0
  -24.3629   -9.4211   21.9160 C   0  0  0  0  0  0
  -23.6296   -8.2244   22.0754 C   0  0  0  0  0  0
  -22.4282   -8.0276   21.3555 C   0  0  0  0  0  0
  -21.9913   -9.0243   20.4641 C   0  0  0  0  0  0
  -22.7252  -10.2119   20.3032 C   0  0  0  0  0  0
  -21.6858   -6.0730   22.5285 C   0  0  0  0  0  0
  -21.4023   -6.5637   23.8207 C   0  0  0  0  0  0
  -21.3660   -5.6790   24.9174 C   0  0  0  0  0  0
  -21.6031   -4.3049   24.7234 C   0  0  0  0  0  0
  -21.8821   -3.8143   23.4358 C   0  0  0  0  0  0
  -21.9196   -4.6954   22.3411 C   0  0  0  0  0  0
  -22.7800  -13.5191   21.1888 C   0  0  0  0  0  0
  -22.1665   -4.2136   21.0988 F   0  0  0  0  0  0
  -21.5617   -3.4531   25.7748 F   0  0  0  0  0  0
  -29.9161  -13.8844   20.3598 N   0  0  0  0  0  0
  -26.2893  -12.9502   20.3224 N   0  0  0  0  0  0
  -25.9366  -11.6616   20.5703 N   0  0  0  0  0  0
  -22.0456  -12.8163   22.0427 N   0  0  0  0  0  0
  -25.4097  -15.1966   20.4211 N   0  0  0  0  0  0
  -31.6537  -15.2346   20.1095 O   0  0  0  0  0  0
  -21.6643   -6.8871   21.4250 O   0  0  0  0  0  0
  -22.3481  -14.5499   20.6733 O   0  0  0  0  0  0
  -24.6610  -31.8254   23.1757 C   0  0  0  0  0  0
  -25.9315  -32.4593   23.8187 C   0  0  1  0  0  0
  -27.2297  -26.9854   20.1373 C   0  0  0  0  0  0
  -25.5978  -33.8407   24.2102 N   0  0  0  0  0  0
  -23.4703  -30.4429   21.5284 C   0  0  2  0  0  0
  -24.9206  -28.8438   20.1174 C   0  0  0  0  0  0
  -22.7654  -29.4432   22.4817 C   0  0  0  0  0  0
  -18.0321  -28.1367   22.8448 C   0  0  0  0  0  0
  -24.1492  -36.7246   23.2636 C   0  0  0  0  0  0
  -26.0398  -30.6558   21.3910 C   0  0  0  0  0  0
  -26.1120  -29.2515   20.7282 C   0  0  0  0  0  0
  -27.2642  -28.3463   20.7086 C   0  0  0  0  0  0
  -25.9777  -26.7048   19.5394 C   0  0  0  0  0  0
  -24.8746  -27.5861   19.5075 C   0  0  0  0  0  0
  -23.7026  -29.7624   20.1540 C   0  0  0  0  0  0
  -25.4129  -36.2980   24.0284 C   0  0  1  0  0  0
  -20.5950  -28.3715   23.1180 C   0  0  2  0  0  0
  -20.6808  -26.9402   22.5382 C   0  0  0  0  0  0
  -19.5784  -26.6352   21.5191 C   0  0  0  0  0  0
  -18.1954  -26.7906   22.1584 C   0  0  0  0  0  0
  -19.1580  -28.8865   23.2784 C   0  0  0  0  0  0
  -18.9489  -30.1472   23.8803 C   0  0  0  0  0  0
  -17.6484  -30.6564   24.0535 C   0  0  0  0  0  0
  -25.9082  -34.9350   23.5007 C   0  0  0  0  0  0
  -16.5376  -29.9048   23.6338 C   0  0  0  0  0  0
  -16.7303  -28.6476   23.0341 C   0  0  0  0  0  0
  -26.4571  -31.6524   25.0703 C   0  0  0  0  0  0
  -25.3688  -31.3739   26.1357 C   0  0  0  0  0  0
  -27.0483  -30.2880   24.6416 C   0  0  0  0  0  0
  -27.6007  -32.4381   25.7536 C   0  0  0  0  0  0
  -27.5582  -37.1769   24.8450 C   0  0  0  0  0  0
  -21.4327  -29.3018   22.3550 N   0  0  0  0  0  0
  -26.4288  -37.3704   23.9394 N   0  0  0  0  0  0
  -24.7464  -30.9969   22.0862 N   0  0  0  0  0  0
  -23.4215  -28.7943   23.2993 O   0  0  0  0  0  0
  -28.2673  -25.9186   20.1577 O   0  0  0  0  0  0
  -26.5673  -34.8874   22.4588 O   0  0  0  0  0  0
  -23.5705  -32.1187   23.6902 O   0  0  0  0  0  0
  -26.7556  -20.6115   19.8397 C   0  0  0  0  0  0
  -27.3966  -21.2612   21.0748 C   0  0  0  0  0  0
  -27.7272  -19.4999   19.4071 C   0  0  0  0  0  0
  -28.8960  -21.2744   20.7456 C   0  0  2  0  0  0
  -31.2294  -21.4912   21.8623 C   0  0  0  0  0  0
  -29.0645  -16.7252   22.0498 C   0  0  0  0  0  0
  -27.8838  -24.4394   18.2404 C   0  0  0  0  0  0
  -29.7080  -21.3868   22.0555 C   0  0  0  0  0  0
  -29.0395  -22.8291   19.8971 C   0  0  0  0  0  0
  -29.9793  -18.4126   20.2402 C   0  0  0  0  0  0
  -29.5831  -16.7093   20.5959 C   0  0  1  0  0  0
  -28.0702  -24.3395   19.7786 C   0  0  1  0  0  0
  -28.9389  -19.6996   20.2242 N   0  3  2  0  0  0
  -31.4775  -12.9515   19.1895 H   0  0  0  0  0  0
  -30.5121  -11.8327   20.1005 H   0  0  0  0  0  0
  -29.9030  -11.7507   17.6593 H   0  0  0  0  0  0
  -29.5848  -13.4682   17.6636 H   0  0  0  0  0  0
  -28.0251  -11.2773   19.0606 H   0  0  0  0  0  0
  -27.4171  -12.3726   17.8452 H   0  0  0  0  0  0
  -27.5556  -14.2488   19.3571 H   0  0  0  0  0  0
  -28.8138  -12.4338   21.4649 H   0  0  0  0  0  0
  -28.3074  -14.0824   21.7214 H   0  0  0  0  0  0
  -25.2769   -9.5682   22.4740 H   0  0  0  0  0  0
  -23.9992   -7.4648   22.7489 H   0  0  0  0  0  0
  -21.0836   -8.8760   19.8958 H   0  0  0  0  0  0
  -22.3699  -10.9648   19.6137 H   0  0  0  0  0  0
  -21.2031   -7.6142   23.9716 H   0  0  0  0  0  0
  -21.1470   -6.0515   25.9070 H   0  0  0  0  0  0
  -22.0600   -2.7599   23.2866 H   0  0  0  0  0  0
  -22.4098  -11.9832   22.4806 H   0  0  0  0  0  0
  -21.1067  -13.1163   22.2626 H   0  0  0  0  0  0
  -24.6374  -15.8434   20.5356 H   0  0  0  0  0  0
  -26.2524  -15.6383   20.0805 H   0  0  0  0  0  0
  -26.7400  -32.5146   23.0924 H   0  0  0  0  0  0
  -25.0088  -33.9479   25.0230 H   0  0  0  0  0  0
  -22.7814  -31.2731   21.3656 H   0  0  0  0  0  0
  -23.3755  -35.9574   23.3262 H   0  0  0  0  0  0
  -24.3561  -36.8959   22.2062 H   0  0  0  0  0  0
  -23.7293  -37.6420   23.6745 H   0  0  0  0  0  0
  -26.2129  -31.4032   20.6155 H   0  0  0  0  0  0
  -26.9033  -30.7053   22.0416 H   0  0  0  0  0  0
  -28.1771  -28.6644   21.1942 H   0  0  0  0  0  0
  -25.7902  -25.7319   19.1206 H   0  0  0  0  0  0
  -23.9588  -27.2500   19.0415 H   0  0  0  0  0  0
  -23.8434  -30.5344   19.3976 H   0  0  0  0  0  0
  -22.8122  -29.2105   19.8440 H   0  0  0  0  0  0
  -25.1335  -36.1759   25.0777 H   0  0  0  0  0  0
  -21.0009  -28.3338   24.1313 H   0  0  0  0  0  0
  -20.5730  -26.2302   23.3596 H   0  0  0  0  0  0
  -21.6661  -26.7404   22.1160 H   0  0  0  0  0  0
  -19.6936  -25.6245   21.1249 H   0  0  0  0  0  0
  -19.6749  -27.3134   20.6699 H   0  0  0  0  0  0
  -17.4228  -26.6641   21.3990 H   0  0  0  0  0  0
  -18.0350  -26.0056   22.8987 H   0  0  0  0  0  0
  -19.7977  -30.7298   24.2123 H   0  0  0  0  0  0
  -17.5045  -31.6237   24.5139 H   0  0  0  0  0  0
  -15.5363  -30.2895   23.7766 H   0  0  0  0  0  0
  -15.8705  -28.0792   22.7072 H   0  0  0  0  0  0
  -24.5871  -30.7093   25.7681 H   0  0  0  0  0  0
  -24.8864  -32.2918   26.4695 H   0  0  0  0  0  0
  -25.7902  -30.8963   27.0214 H   0  0  0  0  0  0
  -26.3152  -29.6524   24.1417 H   0  0  0  0  0  0
  -27.4020  -29.7267   25.5086 H   0  0  0  0  0  0
  -27.9101  -30.4068   23.9843 H   0  0  0  0  0  0
  -27.2508  -33.3736   26.1929 H   0  0  0  0  0  0
  -28.3908  -32.6877   25.0441 H   0  0  0  0  0  0
  -28.0561  -31.8637   26.5618 H   0  0  0  0  0  0
  -28.2525  -38.0133   24.7526 H   0  0  0  0  0  0
  -28.1162  -36.2645   24.6262 H   0  0  0  0  0  0
  -27.2268  -37.1396   25.8840 H   0  0  0  0  0  0
  -20.9551  -29.8771   21.6767 H   0  0  0  0  0  0
  -26.0137  -38.2752   24.1415 H   0  0  0  0  0  0
  -26.6582  -21.3495   19.0403 H   0  0  0  0  0  0
  -25.7561  -20.2319   20.0503 H   0  0  0  0  0  0
  -27.2021  -20.6376   21.9491 H   0  0  0  0  0  0
  -26.9849  -22.2398   21.3084 H   0  0  0  0  0  0
  -27.9486  -19.5492   18.3404 H   0  0  0  0  0  0
  -27.2978  -18.5216   19.6232 H   0  0  0  0  0  0
  -31.7494  -21.2753   22.7954 H   0  0  0  0  0  0
  -31.5306  -22.4940   21.5647 H   0  0  0  0  0  0
  -31.6038  -20.8006   21.1082 H   0  0  0  0  0  0
  -27.9744  -16.7021   22.0735 H   0  0  0  0  0  0
  -29.3827  -17.6199   22.5849 H   0  0  0  0  0  0
  -29.4255  -15.8812   22.6373 H   0  0  0  0  0  0
  -27.2848  -23.6095   17.8607 H   0  0  0  0  0  0
  -28.8442  -24.4097   17.7268 H   0  0  0  0  0  0
  -27.4205  -25.3532   17.8848 H   0  0  0  0  0  0
  -29.4924  -20.5352   22.7028 H   0  0  0  0  0  0
  -29.3782  -22.2657   22.6098 H   0  0  0  0  0  0
  -29.1369  -22.4726   18.8715 H   0  0  0  0  0  0
  -30.0479  -23.1955   20.0778 H   0  0  0  0  0  0
  -30.4384  -18.4148   19.2514 H   0  0  0  0  0  0
  -30.7974  -18.6846   20.9070 H   0  0  0  0  0  0
  -28.7195  -16.5190   19.9607 H   0  0  0  0  0  0
  -27.0966  -24.1027   20.2019 H   0  0  0  0  0  0
  -28.5423  -19.3973   21.1011 H   0  0  0  0  0  0
  1 25  1  0  0  0
  1 30  2  0  0  0
  1 81  1  0  0  0
  2  3  1  0  0  0
  2 25  1  0  0  0
  2 84  1  0  0  0
  2 85  1  0  0  0
  3  4  1  0  0  0
  3 86  1  0  0  0
  3 87  1  0  0  0
  4  5  1  0  0  0
  4 88  1  0  0  0
  4 89  1  0  0  0
  5  6  1  0  0  0
  5 26  1  0  0  0
  5 90  1  0  0  0
  6 25  1  0  0  0
  6 91  1  0  0  0
  6 92  1  0  0  0
  7  8  2  0  0  0
  7 26  1  0  0  0
  7 29  1  0  0  0
  8  9  1  0  0  0
  8 22  1  0  0  0
  9 10  1  0  0  0
  9 27  2  0  0  0
 10 11  2  0  0  0
 10 15  1  0  0  0
 11 12  1  0  0  0
 11 93  1  0  0  0
 12 13  2  0  0  0
 12 94  1  0  0  0
 13 14  1  0  0  0
 13 31  1  0  0  0
 14 15  2  0  0  0
 14 95  1  0  0  0
 15 96  1  0  0  0
 16 17  2  0  0  0
 16 21  1  0  0  0
 16 31  1  0  0  0
 17 18  1  0  0  0
 17 97  1  0  0  0
 18 19  2  0  0  0
 18 98  1  0  0  0
 19 20  1  0  0  0
 19 24  1  0  0  0
 20 21  2  0  0  0
 20 99  1  0  0  0
 21 23  1  0  0  0
 22 28  1  0  0  0
 22 32  2  0  0  0
 26 27  1  0  0  0
 28100  1  0  0  0
 28101  1  0  0  0
 29102  1  0  0  0
 29103  1  0  0  0
 33 34  1  0  0  0
 33 66  1  0  0  0
 33 70  2  0  0  0
 34 36  1  0  0  0
 34 59  1  0  0  0
 34104  1  0  0  0
 35 44  2  0  0  0
 35 45  1  0  0  0
 35 68  1  0  0  0
 36 56  1  0  0  0
 36105  1  0  0  0
 37 39  1  0  0  0
 37 47  1  0  0  0
 37 66  1  0  0  0
 37106  1  0  0  0
 38 43  2  0  0  0
 38 46  1  0  0  0
 38 47  1  0  0  0
 39 64  1  0  0  0
 39 67  2  0  0  0
 40 52  1  0  0  0
 40 53  2  0  0  0
 40 58  1  0  0  0
 41107  1  0  0  0
 41108  1  0  0  0
 41109  1  0  0  0
 41 48  1  0  0  0
 42 43  1  0  0  0
 42 66  1  0  0  0
 42110  1  0  0  0
 42111  1  0  0  0
 43 44  1  0  0  0
 44112  1  0  0  0
 45 46  2  0  0  0
 45113  1  0  0  0
 46114  1  0  0  0
 47115  1  0  0  0
 47116  1  0  0  0
 48 56  1  0  0  0
 48 65  1  0  0  0
 48117  1  0  0  0
 49 50  1  0  0  0
 49 53  1  0  0  0
 49 64  1  0  0  0
 49118  1  0  0  0
 50 51  1  0  0  0
 50119  1  0  0  0
 50120  1  0  0  0
 51 52  1  0  0  0
 51121  1  0  0  0
 51122  1  0  0  0
 52123  1  0  0  0
 52124  1  0  0  0
 53 54  1  0  0  0
 54 55  2  0  0  0
 54125  1  0  0  0
 55 57  1  0  0  0
 55126  1  0  0  0
 56 69  2  0  0  0
 57 58  2  0  0  0
 57127  1  0  0  0
 58128  1  0  0  0
 59 60  1  0  0  0
 59 61  1  0  0  0
 59 62  1  0  0  0
 60129  1  0  0  0
 60130  1  0  0  0
 60131  1  0  0  0
 61132  1  0  0  0
 61133  1  0  0  0
 61134  1  0  0  0
 62135  1  0  0  0
 62136  1  0  0  0
 62137  1  0  0  0
 63 65  1  0  0  0
 63138  1  0  0  0
 63139  1  0  0  0
 63140  1  0  0  0
 64141  1  0  0  0
 65142  1  0  0  0
 68 82  1  0  0  0
 71 72  1  0  0  0
 71 73  1  0  0  0
 71143  1  0  0  0
 71144  1  0  0  0
 72 74  1  0  0  0
 72145  1  0  0  0
 72146  1  0  0  0
 73 83  1  0  0  0
 73147  1  0  0  0
 73148  1  0  0  0
 74 78  1  0  0  0
 74 79  1  0  0  0
 74 83  1  0  0  0
 75 78  1  0  0  0
 75149  1  0  0  0
 75150  1  0  0  0
 75151  1  0  0  0
 76152  1  0  0  0
 76153  1  0  0  0
 76154  1  0  0  0
 76 81  1  0  0  0
 77155  1  0  0  0
 77156  1  0  0  0
 77157  1  0  0  0
 77 82  1  0  0  0
 78158  1  0  0  0
 78159  1  0  0  0
 79 82  1  0  0  0
 79160  1  0  0  0
 79161  1  0  0  0
 80 81  1  0  0  0
 80162  1  0  0  0
 80163  1  0  0  0
 80 83  1  0  0  0
 81164  1  0  0  0
 82165  1  0  0  0
 83166  1  0  0  0
M  CHG  1  83   1
M  ISO  4   1 100  68 101  81 100  82 101
M  END
> <chiral flag>
0

> <version>
0

> <s_m_source_file>
/data/baiqing/PycharmProjects/Reinvent-master-3.2/result/LINK_invent/BTK/process_docking_weight1_custom_sum_contain_oxygen_bond_distance_aromatic_linkinvent_7_9_3/rearranged_h_0120.sdf

> <i_m_source_file_index>
22

> <r_mmod_Potential_Energy-OPLS-2005>
1332.35949707031

> <r_mmod_Stretch_Energy-OPLS-2005>
572.31201171875

> <r_mmod_Bend_Energy-OPLS-2005>
577.226867675781

> <r_mmod_Torsional_Energy-OPLS-2005>
303.750640869141

> <r_mmod_Improper_Torsional_Energy-OPLS-2005>
2.50269436836243

> <r_mmod_Van_der_Waal_Energy-OPLS-2005>
112.444793701172

> <r_mmod_Electrostatic_Energy-OPLS-2005>
-193.051071166992

> <r_mmod_Solvation_Energy-OPLS-2005>
-420.918426513672

> <b_mmod_Minimization_Converged-OPLS-2005>
0

> <r_mmod_RMS_Derivative-OPLS-2005>
3.58832216262817

$$$$
22
                    3D
 Structure written by MMmdl.
157165  0  0  1  0            999 V2000
  -30.5414  -14.9718   20.4114 C   0  0  0  0  0  0
  -30.4369  -12.6023   19.5061 C   0  0  0  0  0  0
  -29.5221  -12.5330   18.2611 C   0  0  0  0  0  0
  -28.0558  -12.3167   18.6779 C   0  0  0  0  0  0
  -27.6280  -13.2530   19.8382 C   0  0  2  0  0  0
  -28.6690  -13.2960   20.9774 C   0  0  0  0  0  0
  -25.2451  -13.8226   20.5718 C   0  0  0  0  0  0
  -24.1774  -13.0442   20.9232 C   0  0  0  0  0  0
  -24.6397  -11.6930   20.8756 C   0  0  0  0  0  0
  -23.9083  -10.4296   21.0408 C   0  0  0  0  0  0
  -24.3631   -9.4208   21.9185 C   0  0  0  0  0  0
  -23.6301   -8.2244   22.0754 C   0  0  0  0  0  0
  -22.4282   -8.0283   21.3545 C   0  0  0  0  0  0
  -21.9922   -9.0258   20.4646 C   0  0  0  0  0  0
  -22.7255  -10.2135   20.3057 C   0  0  0  0  0  0
  -21.6855   -6.0738   22.5279 C   0  0  0  0  0  0
  -21.4015   -6.5642   23.8212 C   0  0  0  0  0  0
  -21.3659   -5.6794   24.9174 C   0  0  0  0  0  0
  -21.6044   -4.3057   24.7225 C   0  0  0  0  0  0
  -21.8819   -3.8149   23.4346 C   0  0  0  0  0  0
  -21.9193   -4.6965   22.3402 C   0  0  0  0  0  0
  -22.7792  -13.5206   21.1885 C   0  0  0  0  0  0
  -22.1662   -4.2151   21.0980 F   0  0  0  0  0  0
  -21.5628   -3.4540   25.7738 F   0  0  0  0  0  0
  -29.9430  -13.7101   20.3773 N   0  0  0  0  0  0
  -26.2878  -12.9467   20.3247 N   0  0  0  0  0  0
  -25.9331  -11.6591   20.5742 N   0  0  0  0  0  0
  -22.0447  -12.8189   22.0440 N   0  0  0  0  0  0
  -25.4109  -15.1955   20.4140 N   0  0  0  0  0  0
  -31.7429  -15.0224   20.1287 O   0  0  0  0  0  0
  -21.6644   -6.8882   21.4242 O   0  0  0  0  0  0
  -22.3470  -14.5509   20.6729 O   0  0  0  0  0  0
  -24.6456  -31.8415   23.1862 C   0  0  0  0  0  0
  -25.9219  -32.4680   23.8258 C   0  0  1  0  0  0
  -27.2150  -27.1092   20.1535 C   0  0  0  0  0  0
  -25.5960  -33.8488   24.2173 N   0  0  0  0  0  0
  -23.4507  -30.4605   21.5318 C   0  0  2  0  0  0
  -24.9010  -28.8844   20.1074 C   0  0  0  0  0  0
  -22.7582  -29.4532   22.4841 C   0  0  0  0  0  0
  -18.0310  -28.1395   22.8473 C   0  0  0  0  0  0
  -24.1494  -36.7248   23.2643 C   0  0  0  0  0  0
  -26.0088  -30.7054   21.3908 C   0  0  0  0  0  0
  -26.0785  -29.3147   20.7316 C   0  0  0  0  0  0
  -27.2348  -28.4429   20.7390 C   0  0  0  0  0  0
  -26.0144  -26.7928   19.4790 C   0  0  0  0  0  0
  -24.8838  -27.6382   19.4644 C   0  0  0  0  0  0
  -23.6790  -29.7898   20.1510 C   0  0  0  0  0  0
  -25.4127  -36.3021   24.0312 C   0  0  1  0  0  0
  -20.5925  -28.3725   23.1226 C   0  0  2  0  0  0
  -20.6793  -26.9424   22.5401 C   0  0  0  0  0  0
  -19.5767  -26.6378   21.5211 C   0  0  0  0  0  0
  -18.1947  -26.7932   22.1621 C   0  0  0  0  0  0
  -19.1568  -28.8877   23.2841 C   0  0  0  0  0  0
  -18.9483  -30.1472   23.8869 C   0  0  0  0  0  0
  -17.6480  -30.6590   24.0556 C   0  0  0  0  0  0
  -25.9079  -34.9398   23.5052 C   0  0  0  0  0  0
  -16.5371  -29.9081   23.6336 C   0  0  0  0  0  0
  -16.7295  -28.6501   23.0355 C   0  0  0  0  0  0
  -26.4534  -31.6559   25.0711 C   0  0  0  0  0  0
  -25.3709  -31.3756   26.1399 C   0  0  0  0  0  0
  -27.0408  -30.2951   24.6316 C   0  0  0  0  0  0
  -27.6055  -32.4336   25.7499 C   0  0  0  0  0  0
  -27.5576  -37.1781   24.8467 C   0  0  0  0  0  0
  -21.4271  -29.3047   22.3592 N   0  0  0  0  0  0
  -26.4287  -37.3738   23.9407 N   0  0  0  0  0  0
  -24.7215  -31.0246   22.0910 N   0  0  0  0  0  0
  -23.4213  -28.8079   23.3001 O   0  0  0  0  0  0
  -28.2520  -26.0998   20.2467 O   0  0  0  0  0  0
  -26.5665  -34.8901   22.4631 O   0  0  0  0  0  0
  -23.5569  -32.1306   23.7065 O   0  0  0  0  0  0
  -29.0304  -21.1567   17.3371 C   0  0  0  0  0  0
  -29.0691  -22.2414   18.1404 C   0  0  0  0  0  0
  -28.9419  -19.9976   18.1409 C   0  0  0  0  0  0
  -29.0875  -20.3587   19.4711 C   0  0  0  0  0  0
  -27.7654  -18.5879   16.3659 C   0  0  0  0  0  0
  -28.7425  -18.6120   17.5496 C   0  0  0  0  0  0
  -29.2259  -19.1137   20.5362 C   0  0  0  0  0  0
  -28.8327  -23.1492   20.4155 C   0  0  0  0  0  0
  -30.1578  -17.6981   20.2651 C   0  0  0  0  0  0
  -27.9898  -24.5774   19.9574 C   0  0  0  0  0  0
  -28.9502  -21.8771   19.4724 N   0  0  0  0  0  0
  -29.7822  -16.1757   20.5444 N   0  0  0  0  0  0
  -31.4715  -12.7550   19.1953 H   0  0  0  0  0  0
  -30.4281  -11.6548   20.0471 H   0  0  0  0  0  0
  -29.8453  -11.7311   17.5960 H   0  0  0  0  0  0
  -29.6087  -13.4592   17.6907 H   0  0  0  0  0  0
  -27.9542  -11.2765   18.9893 H   0  0  0  0  0  0
  -27.3932  -12.4441   17.8211 H   0  0  0  0  0  0
  -27.5871  -14.2524   19.4040 H   0  0  0  0  0  0
  -28.7600  -12.3253   21.4672 H   0  0  0  0  0  0
  -28.3652  -14.0057   21.7484 H   0  0  0  0  0  0
  -25.2773   -9.5683   22.4764 H   0  0  0  0  0  0
  -24.0008   -7.4635   22.7475 H   0  0  0  0  0  0
  -21.0853   -8.8780   19.8952 H   0  0  0  0  0  0
  -22.3713  -10.9676   19.6168 H   0  0  0  0  0  0
  -21.2008   -7.6150   23.9716 H   0  0  0  0  0  0
  -21.1481   -6.0525   25.9077 H   0  0  0  0  0  0
  -22.0598   -2.7611   23.2847 H   0  0  0  0  0  0
  -22.4077  -11.9856   22.4827 H   0  0  0  0  0  0
  -21.1060  -13.1200   22.2648 H   0  0  0  0  0  0
  -24.6394  -15.8448   20.5224 H   0  0  0  0  0  0
  -26.2493  -15.6355   20.0583 H   0  0  0  0  0  0
  -26.7280  -32.5276   23.0979 H   0  0  0  0  0  0
  -25.0092  -33.9602   25.0311 H   0  0  0  0  0  0
  -22.7545  -31.2872   21.3758 H   0  0  0  0  0  0
  -23.3761  -35.9575   23.3291 H   0  0  0  0  0  0
  -24.3576  -36.8896   22.2059 H   0  0  0  0  0  0
  -23.7246  -37.6438   23.6693 H   0  0  0  0  0  0
  -26.1696  -31.4586   20.6184 H   0  0  0  0  0  0
  -26.8772  -30.7545   22.0359 H   0  0  0  0  0  0
  -28.1281  -28.7647   21.2556 H   0  0  0  0  0  0
  -25.9107  -25.8437   18.9752 H   0  0  0  0  0  0
  -23.9874  -27.3061   18.9588 H   0  0  0  0  0  0
  -23.8183  -30.5648   19.3963 H   0  0  0  0  0  0
  -22.7931  -29.2342   19.8384 H   0  0  0  0  0  0
  -25.1316  -36.1843   25.0804 H   0  0  0  0  0  0
  -21.0020  -28.3319   24.1346 H   0  0  0  0  0  0
  -20.5685  -26.2340   23.3624 H   0  0  0  0  0  0
  -21.6658  -26.7421   22.1200 H   0  0  0  0  0  0
  -19.6929  -25.6281   21.1258 H   0  0  0  0  0  0
  -19.6705  -27.3172   20.6728 H   0  0  0  0  0  0
  -17.4217  -26.6675   21.4024 H   0  0  0  0  0  0
  -18.0346  -26.0079   22.9022 H   0  0  0  0  0  0
  -19.7960  -30.7294   24.2226 H   0  0  0  0  0  0
  -17.5034  -31.6268   24.5161 H   0  0  0  0  0  0
  -15.5370  -30.2973   23.7678 H   0  0  0  0  0  0
  -15.8696  -28.0811   22.7083 H   0  0  0  0  0  0
  -24.5902  -30.7089   25.7719 H   0  0  0  0  0  0
  -24.8881  -32.2940   26.4751 H   0  0  0  0  0  0
  -25.7982  -30.8980   27.0223 H   0  0  0  0  0  0
  -26.3036  -29.6661   24.1316 H   0  0  0  0  0  0
  -27.4004  -29.7265   25.4904 H   0  0  0  0  0  0
  -27.8950  -30.4181   23.9654 H   0  0  0  0  0  0
  -27.2644  -33.3665   26.2003 H   0  0  0  0  0  0
  -28.3905  -32.6854   25.0355 H   0  0  0  0  0  0
  -28.0681  -31.8511   26.5477 H   0  0  0  0  0  0
  -28.2582  -38.0088   24.7509 H   0  0  0  0  0  0
  -28.1082  -36.2614   24.6299 H   0  0  0  0  0  0
  -27.2291  -37.1433   25.8869 H   0  0  0  0  0  0
  -20.9485  -29.8761   21.6770 H   0  0  0  0  0  0
  -26.0150  -38.2803   24.1411 H   0  0  0  0  0  0
  -29.0306  -21.2011   16.2563 H   0  0  0  0  0  0
  -29.1351  -23.2767   17.8387 H   0  0  0  0  0  0
  -27.6173  -17.5676   16.0111 H   0  0  0  0  0  0
  -28.1348  -19.1725   15.5235 H   0  0  0  0  0  0
  -26.7900  -18.9831   16.6511 H   0  0  0  0  0  0
  -28.3522  -17.9332   18.3068 H   0  0  0  0  0  0
  -29.7066  -18.2212   17.2228 H   0  0  0  0  0  0
  -28.2105  -18.7722   20.7381 H   0  0  0  0  0  0
  -29.5477  -19.5317   21.4905 H   0  0  0  0  0  0
  -28.4445  -22.8102   21.3760 H   0  0  0  0  0  0
  -29.8594  -23.4500   20.6245 H   0  0  0  0  0  0
  -31.0843  -17.8582   20.8174 H   0  0  0  0  0  0
  -30.5111  -17.7124   19.2378 H   0  0  0  0  0  0
  -26.9821  -24.3931   20.3295 H   0  0  0  0  0  0
  -27.8633  -24.5572   18.8782 H   0  0  0  0  0  0
  -28.8095  -16.0184   20.7633 H   0  0  0  0  0  0
  1 25  1  0  0  0
  1 30  2  0  0  0
  1 82  1  0  0  0
  2  3  1  0  0  0
  2 25  1  0  0  0
  2 83  1  0  0  0
  2 84  1  0  0  0
  3  4  1  0  0  0
  3 85  1  0  0  0
  3 86  1  0  0  0
  4  5  1  0  0  0
  4 87  1  0  0  0
  4 88  1  0  0  0
  5  6  1  0  0  0
  5 26  1  0  0  0
  5 89  1  0  0  0
  6 25  1  0  0  0
  6 90  1  0  0  0
  6 91  1  0  0  0
  7  8  2  0  0  0
  7 26  1  0  0  0
  7 29  1  0  0  0
  8  9  1  0  0  0
  8 22  1  0  0  0
  9 10  1  0  0  0
  9 27  2  0  0  0
 10 11  2  0  0  0
 10 15  1  0  0  0
 11 12  1  0  0  0
 11 92  1  0  0  0
 12 13  2  0  0  0
 12 93  1  0  0  0
 13 14  1  0  0  0
 13 31  1  0  0  0
 14 15  2  0  0  0
 14 94  1  0  0  0
 15 95  1  0  0  0
 16 17  2  0  0  0
 16 21  1  0  0  0
 16 31  1  0  0  0
 17 18  1  0  0  0
 17 96  1  0  0  0
 18 19  2  0  0  0
 18 97  1  0  0  0
 19 20  1  0  0  0
 19 24  1  0  0  0
 20 21  2  0  0  0
 20 98  1  0  0  0
 21 23  1  0  0  0
 22 28  1  0  0  0
 22 32  2  0  0  0
 26 27  1  0  0  0
 28 99  1  0  0  0
 28100  1  0  0  0
 29101  1  0  0  0
 29102  1  0  0  0
 33 34  1  0  0  0
 33 66  1  0  0  0
 33 70  2  0  0  0
 34 36  1  0  0  0
 34 59  1  0  0  0
 34103  1  0  0  0
 35 44  2  0  0  0
 35 45  1  0  0  0
 35 68  1  0  0  0
 36 56  1  0  0  0
 36104  1  0  0  0
 37 39  1  0  0  0
 37 47  1  0  0  0
 37 66  1  0  0  0
 37105  1  0  0  0
 38 43  2  0  0  0
 38 46  1  0  0  0
 38 47  1  0  0  0
 39 64  1  0  0  0
 39 67  2  0  0  0
 40 52  1  0  0  0
 40 53  2  0  0  0
 40 58  1  0  0  0
 41106  1  0  0  0
 41107  1  0  0  0
 41108  1  0  0  0
 41 48  1  0  0  0
 42 43  1  0  0  0
 42 66  1  0  0  0
 42109  1  0  0  0
 42110  1  0  0  0
 43 44  1  0  0  0
 44111  1  0  0  0
 45 46  2  0  0  0
 45112  1  0  0  0
 46113  1  0  0  0
 47114  1  0  0  0
 47115  1  0  0  0
 48 56  1  0  0  0
 48 65  1  0  0  0
 48116  1  0  0  0
 49 50  1  0  0  0
 49 53  1  0  0  0
 49 64  1  0  0  0
 49117  1  0  0  0
 50 51  1  0  0  0
 50118  1  0  0  0
 50119  1  0  0  0
 51 52  1  0  0  0
 51120  1  0  0  0
 51121  1  0  0  0
 52122  1  0  0  0
 52123  1  0  0  0
 53 54  1  0  0  0
 54 55  2  0  0  0
 54124  1  0  0  0
 55 57  1  0  0  0
 55125  1  0  0  0
 56 69  2  0  0  0
 57 58  2  0  0  0
 57126  1  0  0  0
 58127  1  0  0  0
 59 60  1  0  0  0
 59 61  1  0  0  0
 59 62  1  0  0  0
 60128  1  0  0  0
 60129  1  0  0  0
 60130  1  0  0  0
 61131  1  0  0  0
 61132  1  0  0  0
 61133  1  0  0  0
 62134  1  0  0  0
 62135  1  0  0  0
 62136  1  0  0  0
 63 65  1  0  0  0
 63137  1  0  0  0
 63138  1  0  0  0
 63139  1  0  0  0
 64140  1  0  0  0
 65141  1  0  0  0
 68 80  1  0  0  0
 71 72  2  0  0  0
 71 73  1  0  0  0
 71142  1  0  0  0
 72 81  1  0  0  0
 72143  1  0  0  0
 73 74  2  0  0  0
 73 76  1  0  0  0
 74 77  1  0  0  0
 74 81  1  0  0  0
 75 76  1  0  0  0
 75144  1  0  0  0
 75145  1  0  0  0
 75146  1  0  0  0
 76147  1  0  0  0
 76148  1  0  0  0
 77 79  1  0  0  0
 77149  1  0  0  0
 77150  1  0  0  0
 78 80  1  0  0  0
 78 81  1  0  0  0
 78151  1  0  0  0
 78152  1  0  0  0
 79 82  1  0  0  0
 79153  1  0  0  0
 79154  1  0  0  0
 80155  1  0  0  0
 80156  1  0  0  0
 82157  1  0  0  0
M  ISO  4   1 100  68 101  80 101  82 100
M  END
> <chiral flag>
0

> <version>
0

> <s_m_source_file>
/data/baiqing/PycharmProjects/Reinvent-master-3.2/result/LINK_invent/BTK/process_docking_weight1_custom_sum_contain_oxygen_bond_distance_aromatic_linkinvent_7_9_3/rearranged_h_0120.sdf

> <i_m_source_file_index>
23

> <r_mmod_Potential_Energy-OPLS-2005>
645.737915039062

> <r_mmod_Stretch_Energy-OPLS-2005>
326.155090332031

> <r_mmod_Bend_Energy-OPLS-2005>
335.737609863281

> <r_mmod_Torsional_Energy-OPLS-2005>
245.84504699707

> <r_mmod_Improper_Torsional_Energy-OPLS-2005>
5.63529825210571

> <r_mmod_Van_der_Waal_Energy-OPLS-2005>
120.668647766113

> <r_mmod_Electrostatic_Energy-OPLS-2005>
-383.920043945312

> <r_mmod_Solvation_Energy-OPLS-2005>
-219.332931518555

> <b_mmod_Minimization_Converged-OPLS-2005>
0

> <r_mmod_RMS_Derivative-OPLS-2005>
0.255512714385986

$$$$
23
                    3D
 Structure written by MMmdl.
172181  0  0  1  0            999 V2000
  -30.6286  -13.7518   20.5569 C   0  0  0  0  0  0
  -30.5819  -11.4432   19.2541 C   0  0  0  0  0  0
  -29.3466  -11.9894   17.8668 C   0  0  0  0  0  0
  -27.8921  -13.1492   18.3005 C   0  0  0  0  0  0
  -27.5213  -13.8448   20.1015 C   0  0  2  0  0  0
  -28.6495  -13.2910   21.6097 C   0  0  0  0  0  0
  -25.3685  -14.6886   21.0448 C   0  0  0  0  0  0
  -24.3445  -13.9250   21.4528 C   0  0  0  0  0  0
  -25.0157  -12.7099   21.1045 C   0  0  0  0  0  0
  -24.2952  -10.1455   20.1089 C   0  0  0  0  0  0
  -24.6032   -8.8232   20.7712 C   0  0  0  0  0  0
  -23.7298   -8.0235   21.5578 C   0  0  0  0  0  0
  -22.4039   -7.9789   21.1479 C   0  0  0  0  0  0
  -22.0704   -8.8332   20.0834 C   0  0  0  0  0  0
  -23.0210   -9.7246   19.4942 C   0  0  0  0  0  0
  -21.6706   -6.1264   22.5452 C   0  0  0  0  0  0
  -21.4091   -6.5905   23.8512 C   0  0  0  0  0  0
  -21.3863   -5.6882   24.9340 C   0  0  0  0  0  0
  -21.6201   -4.3178   24.7162 C   0  0  0  0  0  0
  -21.8927   -3.8495   23.4182 C   0  0  0  0  0  0
  -21.9200   -4.7485   22.3349 C   0  0  0  0  0  0
  -22.8924  -14.2953   21.6993 C   0  0  0  0  0  0
  -22.1473   -4.2729   21.0855 F   0  0  0  0  0  0
  -21.5786   -3.4509   25.7554 F   0  0  0  0  0  0
  -30.1839  -12.5731   20.7719 N   0  0  0  0  0  0
  -26.2660  -13.8240   20.5922 N   0  0  0  0  0  0
  -26.1160  -13.1043   21.6078 N   0  0  0  0  0  0
  -22.2500  -13.6240   22.6571 N   0  0  0  0  0  0
  -25.6671  -15.9982   21.0184 N   0  0  0  0  0  0
  -31.5997  -14.3270   20.0340 O   0  0  0  0  0  0
  -21.5152   -6.9755   21.4732 O   0  0  0  0  0  0
  -22.2673  -14.9462   20.8805 O   0  0  0  0  0  0
  -24.6915  -31.8010   23.1635 C   0  0  0  0  0  0
  -25.9537  -32.4419   23.8082 C   0  0  1  0  0  0
  -26.7318  -26.5633   20.0470 C   0  0  0  0  0  0
  -25.6123  -33.8266   24.1950 N   0  0  0  0  0  0
  -23.4822  -30.4529   21.5335 C   0  0  2  0  0  0
  -24.8278  -28.8307   20.0565 C   0  0  0  0  0  0
  -22.7677  -29.4412   22.4699 C   0  0  0  0  0  0
  -18.0326  -28.1412   22.8450 C   0  0  0  0  0  0
  -24.1514  -36.7139   23.2647 C   0  0  0  0  0  0
  -26.0698  -30.4544   21.4408 C   0  0  0  0  0  0
  -26.0329  -29.0365   20.7354 C   0  0  0  0  0  0
  -27.0078  -27.9024   20.7223 C   0  0  0  0  0  0
  -25.6043  -26.6508   19.2527 C   0  0  0  0  0  0
  -24.6641  -27.6815   19.2917 C   0  0  0  0  0  0
  -23.6929  -29.8388   20.1337 C   0  0  0  0  0  0
  -25.4171  -36.2881   24.0273 C   0  0  1  0  0  0
  -20.5951  -28.3774   23.1138 C   0  0  2  0  0  0
  -20.6803  -26.9449   22.5380 C   0  0  0  0  0  0
  -19.5775  -26.6377   21.5194 C   0  0  0  0  0  0
  -18.1958  -26.7943   22.1608 C   0  0  0  0  0  0
  -19.1590  -28.8909   23.2784 C   0  0  0  0  0  0
  -18.9505  -30.1488   23.8841 C   0  0  0  0  0  0
  -17.6501  -30.6599   24.0555 C   0  0  0  0  0  0
  -25.9177  -34.9269   23.4938 C   0  0  0  0  0  0
  -16.5387  -29.9093   23.6340 C   0  0  0  0  0  0
  -16.7310  -28.6509   23.0362 C   0  0  0  0  0  0
  -26.4647  -31.6493   25.0751 C   0  0  0  0  0  0
  -25.3682  -31.3872   26.1355 C   0  0  0  0  0  0
  -27.0556  -30.2794   24.6773 C   0  0  0  0  0  0
  -27.6101  -32.4365   25.7544 C   0  0  0  0  0  0
  -27.5577  -37.1743   24.8463 C   0  0  0  0  0  0
  -21.4339  -29.3063   22.3472 N   0  0  0  0  0  0
  -26.4286  -37.3657   23.9401 N   0  0  0  0  0  0
  -24.7800  -30.9406   22.0927 N   0  0  0  0  0  0
  -23.4195  -28.7906   23.2911 O   0  0  0  0  0  0
  -27.2350  -25.1085   20.0302 O   0  0  0  0  0  0
  -26.5789  -34.8857   22.4540 O   0  0  0  0  0  0
  -23.5973  -32.1195   23.6619 O   0  0  0  0  0  0
  -25.4475  -11.8368   18.9706 C   0  0  0  0  0  0
  -25.6446  -10.6964   21.9181 C   0  0  0  0  0  0
  -26.4933  -11.0975   20.2538 C   0  0  0  0  0  0
  -23.8066  -12.4847   19.1926 C   0  0  0  0  0  0
  -22.9230  -11.8665   20.7341 C   0  0  0  0  0  0
  -24.2759  -18.8824   19.7578 C   0  0  0  0  0  0
  -26.0863  -18.4408   18.5662 C   0  0  0  0  0  0
  -23.5479  -17.3596   19.2112 C   0  0  0  0  0  0
  -25.3945  -16.8928   18.0375 C   0  0  0  0  0  0
  -25.3808  -19.9481   18.9989 C   0  0  2  0  0  0
  -20.8440  -11.1297   21.7309 C   0  0  0  0  0  0
  -28.2734  -11.4855   20.0912 C   0  0  0  0  0  0
  -23.7262  -14.3104   18.5484 C   0  0  0  0  0  0
  -26.3010  -21.6152   19.6078 C   0  0  0  0  0  0
  -26.3389  -23.6018   19.5712 C   0  0  0  0  0  0
  -23.8479  -11.0809   22.1232 N   0  0  0  0  0  0
  -29.7046  -13.2833   19.7775 N   0  0  0  0  0  0
  -24.3357  -16.0116   18.8424 N   0  3  2  0  0  0
  -21.5383  -11.8928   20.7486 O   0  0  0  0  0  0
  -31.6085  -11.6193   18.9270 H   0  0  0  0  0  0
  -30.5372  -10.3841   19.5080 H   0  0  0  0  0  0
  -28.9543  -11.1057   17.3598 H   0  0  0  0  0  0
  -29.9295  -12.4825   17.0854 H   0  0  0  0  0  0
  -27.1277  -13.2334   17.5377 H   0  0  0  0  0  0
  -28.3338  -14.0680   17.9041 H   0  0  0  0  0  0
  -27.7397  -14.9075   19.9729 H   0  0  0  0  0  0
  -28.2792  -12.5584   22.3325 H   0  0  0  0  0  0
  -28.8631  -14.1582   22.2402 H   0  0  0  0  0  0
  -25.6380   -8.5804   20.9787 H   0  0  0  0  0  0
  -24.1288   -7.2709   22.2230 H   0  0  0  0  0  0
  -21.0884   -8.7470   19.6368 H   0  0  0  0  0  0
  -22.5940  -10.3319   18.7089 H   0  0  0  0  0  0
  -21.1847   -7.6340   24.0222 H   0  0  0  0  0  0
  -21.1762   -6.0435   25.9323 H   0  0  0  0  0  0
  -22.0675   -2.7983   23.2500 H   0  0  0  0  0  0
  -22.7469  -12.9361   23.2102 H   0  0  0  0  0  0
  -21.2692  -13.7913   22.8276 H   0  0  0  0  0  0
  -25.2066  -16.5408   21.7445 H   0  0  0  0  0  0
  -26.6648  -16.1804   21.0672 H   0  0  0  0  0  0
  -26.7570  -32.4728   23.0718 H   0  0  0  0  0  0
  -25.0178  -33.9286   25.0041 H   0  0  0  0  0  0
  -22.8122  -31.3046   21.4006 H   0  0  0  0  0  0
  -23.3806  -35.9434   23.3237 H   0  0  0  0  0  0
  -24.3584  -36.8877   22.2074 H   0  0  0  0  0  0
  -23.7231  -37.6285   23.6765 H   0  0  0  0  0  0
  -26.3340  -31.1842   20.6749 H   0  0  0  0  0  0
  -26.9143  -30.4496   22.1166 H   0  0  0  0  0  0
  -27.8998  -27.9914   21.3253 H   0  0  0  0  0  0
  -25.3266  -25.8082   18.6389 H   0  0  0  0  0  0
  -23.7560  -27.5561   18.7170 H   0  0  0  0  0  0
  -23.9123  -30.6347   19.4207 H   0  0  0  0  0  0
  -22.7649  -29.3833   19.7827 H   0  0  0  0  0  0
  -25.1371  -36.1653   25.0762 H   0  0  0  0  0  0
  -21.0043  -28.3403   24.1257 H   0  0  0  0  0  0
  -20.5668  -26.2402   23.3628 H   0  0  0  0  0  0
  -21.6668  -26.7408   22.1194 H   0  0  0  0  0  0
  -19.6942  -25.6266   21.1269 H   0  0  0  0  0  0
  -19.6717  -27.3143   20.6684 H   0  0  0  0  0  0
  -17.4221  -26.6660   21.4025 H   0  0  0  0  0  0
  -18.0382  -26.0101   22.9022 H   0  0  0  0  0  0
  -19.7984  -30.7308   24.2200 H   0  0  0  0  0  0
  -17.5062  -31.6276   24.5171 H   0  0  0  0  0  0
  -15.5387  -30.2991   23.7701 H   0  0  0  0  0  0
  -15.8701  -28.0815   22.7124 H   0  0  0  0  0  0
  -24.5936  -30.7120   25.7698 H   0  0  0  0  0  0
  -24.8788  -32.3100   26.4481 H   0  0  0  0  0  0
  -25.7854  -30.9272   27.0322 H   0  0  0  0  0  0
  -26.3248  -29.6357   24.1872 H   0  0  0  0  0  0
  -27.3971  -29.7334   25.5577 H   0  0  0  0  0  0
  -27.9267  -30.3845   24.0306 H   0  0  0  0  0  0
  -27.2669  -33.3776   26.1856 H   0  0  0  0  0  0
  -28.4041  -32.6744   25.0450 H   0  0  0  0  0  0
  -28.0621  -31.8666   26.5673 H   0  0  0  0  0  0
  -28.2558  -38.0076   24.7531 H   0  0  0  0  0  0
  -28.1117  -36.2599   24.6274 H   0  0  0  0  0  0
  -27.2293  -37.1363   25.8867 H   0  0  0  0  0  0
  -20.9579  -29.8829   21.6672 H   0  0  0  0  0  0
  -26.0110  -38.2707   24.1401 H   0  0  0  0  0  0
  -25.8105  -11.9681   17.9769 H   0  0  0  0  0  0
  -26.2002  -10.3917   22.7913 H   0  0  0  0  0  0
  -24.7145  -18.6478   20.7279 H   0  0  0  0  0  0
  -23.4259  -19.5136   20.0187 H   0  0  0  0  0  0
  -26.7742  -18.7023   17.7626 H   0  0  0  0  0  0
  -26.7571  -18.1893   19.3883 H   0  0  0  0  0  0
  -22.9287  -17.5891   18.3423 H   0  0  0  0  0  0
  -22.8244  -17.1072   19.9789 H   0  0  0  0  0  0
  -26.2312  -16.2259   17.8310 H   0  0  0  0  0  0
  -24.9455  -17.0716   17.0589 H   0  0  0  0  0  0
  -24.8735  -20.2847   18.0941 H   0  0  0  0  0  0
  -20.1040  -10.5176   21.2152 H   0  0  0  0  0  0
  -20.2928  -11.7881   22.3981 H   0  0  0  0  0  0
  -21.4623  -10.4696   22.3394 H   0  0  0  0  0  0
  -28.4007  -10.6299   19.4289 H   0  0  0  0  0  0
  -28.5848  -10.9137   20.9767 H   0  0  0  0  0  0
  -22.6521  -14.4627   18.4402 H   0  0  0  0  0  0
  -24.0370  -14.1757   17.5133 H   0  0  0  0  0  0
  -27.2822  -21.4289   19.1705 H   0  0  0  0  0  0
  -26.4665  -21.4059   20.6653 H   0  0  0  0  0  0
  -25.3476  -23.8349   19.9617 H   0  0  0  0  0  0
  -26.2448  -23.7723   18.4988 H   0  0  0  0  0  0
  -29.6928  -13.6790   18.8516 H   0  0  0  0  0  0
  -24.8515  -15.8842   19.7233 H   0  0  0  0  0  0
  1 25  1  0  0  0
  1 30  2  0  0  0
  1 87  1  0  0  0
  2  3  1  0  0  0
  2 25  1  0  0  0
  2 90  1  0  0  0
  2 91  1  0  0  0
  3  4  1  0  0  0
  3 92  1  0  0  0
  3 93  1  0  0  0
  4  5  1  0  0  0
  4 94  1  0  0  0
  4 95  1  0  0  0
  5  6  1  0  0  0
  5 26  1  0  0  0
  5 96  1  0  0  0
  6 25  1  0  0  0
  6 97  1  0  0  0
  6 98  1  0  0  0
  7  8  2  0  0  0
  7 26  1  0  0  0
  7 29  1  0  0  0
  8  9  1  0  0  0
  8 22  1  0  0  0
  9 10  1  0  0  0
  9 27  2  0  0  0
 10 11  2  0  0  0
 10 15  1  0  0  0
 11 12  1  0  0  0
 11 99  1  0  0  0
 12 13  2  0  0  0
 12100  1  0  0  0
 13 14  1  0  0  0
 13 31  1  0  0  0
 14 15  2  0  0  0
 14101  1  0  0  0
 15102  1  0  0  0
 16 17  2  0  0  0
 16 21  1  0  0  0
 16 31  1  0  0  0
 17 18  1  0  0  0
 17103  1  0  0  0
 18 19  2  0  0  0
 18104  1  0  0  0
 19 20  1  0  0  0
 19 24  1  0  0  0
 20 21  2  0  0  0
 20105  1  0  0  0
 21 23  1  0  0  0
 22 28  1  0  0  0
 22 32  2  0  0  0
 26 27  1  0  0  0
 28106  1  0  0  0
 28107  1  0  0  0
 29108  1  0  0  0
 29109  1  0  0  0
 33 34  1  0  0  0
 33 66  1  0  0  0
 33 70  2  0  0  0
 34 36  1  0  0  0
 34 59  1  0  0  0
 34110  1  0  0  0
 35 44  2  0  0  0
 35 45  1  0  0  0
 35 68  1  0  0  0
 36 56  1  0  0  0
 36111  1  0  0  0
 37 39  1  0  0  0
 37 47  1  0  0  0
 37 66  1  0  0  0
 37112  1  0  0  0
 38 43  2  0  0  0
 38 46  1  0  0  0
 38 47  1  0  0  0
 39 64  1  0  0  0
 39 67  2  0  0  0
 40 52  1  0  0  0
 40 53  2  0  0  0
 40 58  1  0  0  0
 41113  1  0  0  0
 41114  1  0  0  0
 41115  1  0  0  0
 41 48  1  0  0  0
 42 43  1  0  0  0
 42 66  1  0  0  0
 42116  1  0  0  0
 42117  1  0  0  0
 43 44  1  0  0  0
 44118  1  0  0  0
 45 46  2  0  0  0
 45119  1  0  0  0
 46120  1  0  0  0
 47121  1  0  0  0
 47122  1  0  0  0
 48 56  1  0  0  0
 48 65  1  0  0  0
 48123  1  0  0  0
 49 50  1  0  0  0
 49 53  1  0  0  0
 49 64  1  0  0  0
 49124  1  0  0  0
 50 51  1  0  0  0
 50125  1  0  0  0
 50126  1  0  0  0
 51 52  1  0  0  0
 51127  1  0  0  0
 51128  1  0  0  0
 52129  1  0  0  0
 52130  1  0  0  0
 53 54  1  0  0  0
 54 55  2  0  0  0
 54131  1  0  0  0
 55 57  1  0  0  0
 55132  1  0  0  0
 56 69  2  0  0  0
 57 58  2  0  0  0
 57133  1  0  0  0
 58134  1  0  0  0
 59 60  1  0  0  0
 59 61  1  0  0  0
 59 62  1  0  0  0
 60135  1  0  0  0
 60136  1  0  0  0
 60137  1  0  0  0
 61138  1  0  0  0
 61139  1  0  0  0
 61140  1  0  0  0
 62141  1  0  0  0
 62142  1  0  0  0
 62143  1  0  0  0
 63 65  1  0  0  0
 63144  1  0  0  0
 63145  1  0  0  0
 63146  1  0  0  0
 64147  1  0  0  0
 65148  1  0  0  0
 68 85  1  0  0  0
 71 73  2  0  0  0
 71 74  1  0  0  0
 71149  1  0  0  0
 72 73  1  0  0  0
 72 86  2  0  0  0
 72150  1  0  0  0
 73 82  1  0  0  0
 74 75  2  0  0  0
 74 83  1  0  0  0
 75 86  1  0  0  0
 75 89  1  0  0  0
 76 78  1  0  0  0
 76 80  1  0  0  0
 76151  1  0  0  0
 76152  1  0  0  0
 77 79  1  0  0  0
 77 80  1  0  0  0
 77153  1  0  0  0
 77154  1  0  0  0
 78 88  1  0  0  0
 78155  1  0  0  0
 78156  1  0  0  0
 79 88  1  0  0  0
 79157  1  0  0  0
 79158  1  0  0  0
 80 84  1  0  0  0
 80159  1  0  0  0
 81 89  1  0  0  0
 81160  1  0  0  0
 81161  1  0  0  0
 81162  1  0  0  0
 82 87  1  0  0  0
 82163  1  0  0  0
 82164  1  0  0  0
 83165  1  0  0  0
 83166  1  0  0  0
 83 88  1  0  0  0
 84 85  1  0  0  0
 84167  1  0  0  0
 84168  1  0  0  0
 85169  1  0  0  0
 85170  1  0  0  0
 87171  1  0  0  0
 88172  1  0  0  0
M  CHG  1  88   1
M  ISO  4   1 100  68 101  85 101  87 100
M  END
> <chiral flag>
0

> <version>
0

> <s_m_source_file>
/data/baiqing/PycharmProjects/Reinvent-master-3.2/result/LINK_invent/BTK/process_docking_weight1_custom_sum_contain_oxygen_bond_distance_aromatic_linkinvent_7_9_3/rearranged_h_0120.sdf

> <i_m_source_file_index>
24

> <r_mmod_Potential_Energy-OPLS-2005>
18308.037109375

> <r_mmod_Stretch_Energy-OPLS-2005>
9518.9169921875

> <r_mmod_Bend_Energy-OPLS-2005>
1799.11682128906

> <r_mmod_Torsional_Energy-OPLS-2005>
834.733825683594

> <r_mmod_Improper_Torsional_Energy-OPLS-2005>
116.096549987793

> <r_mmod_Van_der_Waal_Energy-OPLS-2005>
4362.728515625

> <r_mmod_Electrostatic_Energy-OPLS-2005>
-503.093414306641

> <r_mmod_Solvation_Energy-OPLS-2005>
-404.636291503906

> <b_mmod_Minimization_Converged-OPLS-2005>
0

> <r_mmod_RMS_Derivative-OPLS-2005>
4.71915006637573

$$$$
24
                    3D
 Structure written by MMmdl.
160169  0  0  1  0            999 V2000
  -30.7121  -14.4934   20.5888 C   0  0  0  0  0  0
  -30.4192  -12.3301   19.4244 C   0  0  0  0  0  0
  -29.4910  -12.5074   18.2064 C   0  0  0  0  0  0
  -28.0143  -12.3622   18.6220 C   0  0  0  0  0  0
  -27.6561  -13.2129   19.8703 C   0  0  2  0  0  0
  -28.6986  -13.0177   20.9934 C   0  0  0  0  0  0
  -25.2527  -13.8148   20.5623 C   0  0  0  0  0  0
  -24.1816  -13.0424   20.9195 C   0  0  0  0  0  0
  -24.6392  -11.6902   20.8760 C   0  0  0  0  0  0
  -23.9063  -10.4286   21.0417 C   0  0  0  0  0  0
  -24.3615   -9.4199   21.9191 C   0  0  0  0  0  0
  -23.6289   -8.2236   22.0757 C   0  0  0  0  0  0
  -22.4272   -8.0277   21.3546 C   0  0  0  0  0  0
  -21.9909   -9.0251   20.4649 C   0  0  0  0  0  0
  -22.7238  -10.2129   20.3062 C   0  0  0  0  0  0
  -21.6851   -6.0732   22.5278 C   0  0  0  0  0  0
  -21.4012   -6.5637   23.8211 C   0  0  0  0  0  0
  -21.3659   -5.6790   24.9175 C   0  0  0  0  0  0
  -21.6045   -4.3053   24.7225 C   0  0  0  0  0  0
  -21.8820   -3.8144   23.4347 C   0  0  0  0  0  0
  -21.9192   -4.6960   22.3402 C   0  0  0  0  0  0
  -22.7839  -13.5221   21.1854 C   0  0  0  0  0  0
  -22.1661   -4.2146   21.0980 F   0  0  0  0  0  0
  -21.5630   -3.4538   25.7738 F   0  0  0  0  0  0
  -30.0254  -13.3264   20.4351 N   0  0  0  0  0  0
  -26.2990  -12.9350   20.3345 N   0  0  0  0  0  0
  -25.9322  -11.6506   20.5793 N   0  0  0  0  0  0
  -22.0484  -12.8218   22.0416 N   0  0  0  0  0  0
  -25.4150  -15.1843   20.3868 N   0  0  0  0  0  0
  -31.8328  -14.6671   20.1040 O   0  0  0  0  0  0
  -21.6638   -6.8873   21.4240 O   0  0  0  0  0  0
  -22.3526  -14.5528   20.6702 O   0  0  0  0  0  0
  -24.6161  -31.8658   23.2069 C   0  0  0  0  0  0
  -25.9042  -32.4814   23.8377 C   0  0  1  0  0  0
  -27.2340  -27.4117   20.1109 C   0  0  0  0  0  0
  -25.5893  -33.8613   24.2312 N   0  0  0  0  0  0
  -23.4054  -30.4877   21.5477 C   0  0  2  0  0  0
  -24.8522  -28.9461   20.1165 C   0  0  0  0  0  0
  -22.7419  -29.4648   22.4979 C   0  0  0  0  0  0
  -18.0274  -28.1376   22.8493 C   0  0  0  0  0  0
  -24.1487  -36.7311   23.2639 C   0  0  0  0  0  0
  -25.9347  -30.8270   21.3601 C   0  0  0  0  0  0
  -26.0132  -29.4585   20.7089 C   0  0  0  0  0  0
  -27.2094  -28.7022   20.6936 C   0  0  0  0  0  0
  -26.0562  -26.9139   19.5147 C   0  0  0  0  0  0
  -24.8698  -27.6749   19.5138 C   0  0  0  0  0  0
  -23.6149  -29.8160   20.1638 C   0  0  0  0  0  0
  -25.4109  -36.3109   24.0338 C   0  0  1  0  0  0
  -20.5865  -28.3664   23.1316 C   0  0  2  0  0  0
  -20.6764  -26.9400   22.5417 C   0  0  0  0  0  0
  -19.5746  -26.6384   21.5212 C   0  0  0  0  0  0
  -18.1923  -26.7922   22.1621 C   0  0  0  0  0  0
  -19.1524  -28.8837   23.2902 C   0  0  0  0  0  0
  -18.9452  -30.1441   23.8913 C   0  0  0  0  0  0
  -17.6455  -30.6584   24.0566 C   0  0  0  0  0  0
  -25.9035  -34.9474   23.5124 C   0  0  0  0  0  0
  -16.5346  -29.9087   23.6324 C   0  0  0  0  0  0
  -16.7264  -28.6503   23.0347 C   0  0  0  0  0  0
  -26.4467  -31.6600   25.0713 C   0  0  0  0  0  0
  -25.3732  -31.3708   26.1462 C   0  0  0  0  0  0
  -27.0296  -30.3044   24.6086 C   0  0  0  0  0  0
  -27.6045  -32.4319   25.7473 C   0  0  0  0  0  0
  -27.5582  -37.1811   24.8467 C   0  0  0  0  0  0
  -21.4145  -29.3031   22.3721 N   0  0  0  0  0  0
  -26.4296  -37.3794   23.9410 N   0  0  0  0  0  0
  -24.6706  -31.0749   22.0969 N   0  0  0  0  0  0
  -23.4185  -28.8194   23.3030 O   0  0  0  0  0  0
  -28.4025  -26.6749   20.1014 O   0  0  0  0  0  0
  -26.5604  -34.8928   22.4689 O   0  0  0  0  0  0
  -23.5348  -32.1413   23.7455 O   0  0  0  0  0  0
  -28.1514  -19.6694   21.1722 C   0  0  0  0  0  0
  -30.3423  -20.2382   20.3926 C   0  0  0  0  0  0
  -28.6308  -18.3736   21.4941 C   0  0  0  0  0  0
  -29.0089  -20.6535   20.6318 C   0  0  0  0  0  0
  -29.9898  -18.0775   21.2257 C   0  0  0  0  0  0
  -26.6497  -17.7579   23.1261 C   0  0  0  0  0  0
  -27.8510  -16.9548   23.5635 C   0  0  0  0  0  0
  -27.7066  -17.3674   22.1171 C   0  0  0  0  0  0
  -30.6756  -16.7648   21.6606 C   0  0  0  0  0  0
  -28.7046  -24.2778   19.4429 C   0  0  0  0  0  0
  -28.3453  -25.3010   20.5534 C   0  0  0  0  0  0
  -29.3896  -22.9453   19.8836 C   0  0  0  0  0  0
  -30.8117  -18.9976   20.6713 N   0  0  0  0  0  0
  -30.0727  -15.4862   21.2364 N   0  0  0  0  0  0
  -28.5017  -21.9300   20.3832 O   0  0  0  0  0  0
  -31.4631  -12.4288   19.1209 H   0  0  0  0  0  0
  -30.3252  -11.3238   19.8356 H   0  0  0  0  0  0
  -29.7355  -11.7742   17.4367 H   0  0  0  0  0  0
  -29.6524  -13.4885   17.7573 H   0  0  0  0  0  0
  -27.8325  -11.3071   18.8298 H   0  0  0  0  0  0
  -27.3605  -12.6226   17.7889 H   0  0  0  0  0  0
  -27.6928  -14.2580   19.5618 H   0  0  0  0  0  0
  -28.6835  -11.9874   21.3519 H   0  0  0  0  0  0
  -28.4529  -13.6309   21.8613 H   0  0  0  0  0  0
  -25.2760   -9.5674   22.4767 H   0  0  0  0  0  0
  -23.9997   -7.4624   22.7474 H   0  0  0  0  0  0
  -21.0841   -8.8770   19.8952 H   0  0  0  0  0  0
  -22.3698  -10.9670   19.6171 H   0  0  0  0  0  0
  -21.2003   -7.6145   23.9713 H   0  0  0  0  0  0
  -21.1481   -6.0522   25.9077 H   0  0  0  0  0  0
  -22.0600   -2.7606   23.2848 H   0  0  0  0  0  0
  -22.4098  -11.9877   22.4801 H   0  0  0  0  0  0
  -21.1105  -13.1248   22.2625 H   0  0  0  0  0  0
  -24.6353  -15.8274   20.4689 H   0  0  0  0  0  0
  -26.2405  -15.6121   19.9890 H   0  0  0  0  0  0
  -26.7114  -32.5520   23.1140 H   0  0  0  0  0  0
  -25.0052  -33.9775   25.0463 H   0  0  0  0  0  0
  -22.6952  -31.3046   21.4057 H   0  0  0  0  0  0
  -23.3749  -35.9645   23.3313 H   0  0  0  0  0  0
  -24.3581  -36.8910   22.2051 H   0  0  0  0  0  0
  -23.7236  -37.6519   23.6646 H   0  0  0  0  0  0
  -26.0473  -31.5915   20.5900 H   0  0  0  0  0  0
  -26.8223  -30.8823   21.9789 H   0  0  0  0  0  0
  -28.1091  -29.0973   21.1446 H   0  0  0  0  0  0
  -26.0549  -25.9404   19.0454 H   0  0  0  0  0  0
  -23.9776  -27.2753   19.0516 H   0  0  0  0  0  0
  -23.7256  -30.5891   19.4026 H   0  0  0  0  0  0
  -22.7383  -29.2367   19.8681 H   0  0  0  0  0  0
  -25.1286  -36.1974   25.0832 H   0  0  0  0  0  0
  -20.9961  -28.3225   24.1434 H   0  0  0  0  0  0
  -20.5665  -26.2271   23.3603 H   0  0  0  0  0  0
  -21.6636  -26.7440   22.1210 H   0  0  0  0  0  0
  -19.6913  -25.6298   21.1229 H   0  0  0  0  0  0
  -19.6688  -27.3205   20.6751 H   0  0  0  0  0  0
  -17.4196  -26.6673   21.4020 H   0  0  0  0  0  0
  -18.0324  -26.0057   22.9011 H   0  0  0  0  0  0
  -19.7929  -30.7250   24.2292 H   0  0  0  0  0  0
  -17.5012  -31.6267   24.5160 H   0  0  0  0  0  0
  -15.5348  -30.2997   23.7639 H   0  0  0  0  0  0
  -15.8661  -28.0828   22.7055 H   0  0  0  0  0  0
  -24.5906  -30.7052   25.7801 H   0  0  0  0  0  0
  -24.8921  -32.2862   26.4918 H   0  0  0  0  0  0
  -25.8082  -30.8874   27.0218 H   0  0  0  0  0  0
  -26.2837  -29.6810   24.1140 H   0  0  0  0  0  0
  -27.4071  -29.7276   25.4539 H   0  0  0  0  0  0
  -27.8670  -30.4370   23.9230 H   0  0  0  0  0  0
  -27.2671  -33.3612   26.2076 H   0  0  0  0  0  0
  -28.3841  -32.6887   25.0288 H   0  0  0  0  0  0
  -28.0731  -31.8426   26.5366 H   0  0  0  0  0  0
  -28.2608  -38.0100   24.7509 H   0  0  0  0  0  0
  -28.1067  -36.2632   24.6297 H   0  0  0  0  0  0
  -27.2301  -37.1462   25.8870 H   0  0  0  0  0  0
  -20.9307  -29.8754   21.6943 H   0  0  0  0  0  0
  -26.0186  -38.2873   24.1407 H   0  0  0  0  0  0
  -27.1202  -19.9246   21.3676 H   0  0  0  0  0  0
  -31.0765  -20.9123   19.9786 H   0  0  0  0  0  0
  -26.5998  -18.7911   23.4644 H   0  0  0  0  0  0
  -25.6963  -17.2336   23.0877 H   0  0  0  0  0  0
  -27.6751  -15.9108   23.8165 H   0  0  0  0  0  0
  -28.5927  -17.4659   24.1749 H   0  0  0  0  0  0
  -27.4490  -16.5947   21.3985 H   0  0  0  0  0  0
  -30.6955  -16.7612   22.7505 H   0  0  0  0  0  0
  -31.7264  -16.8079   21.3685 H   0  0  0  0  0  0
  -29.4120  -24.7780   18.7805 H   0  0  0  0  0  0
  -27.8318  -24.0692   18.8243 H   0  0  0  0  0  0
  -29.0796  -25.2208   21.3553 H   0  0  0  0  0  0
  -27.3872  -25.0484   21.0107 H   0  0  0  0  0  0
  -30.1690  -23.1525   20.6188 H   0  0  0  0  0  0
  -29.8908  -22.5489   18.9994 H   0  0  0  0  0  0
  -29.1360  -15.3003   21.5554 H   0  0  0  0  0  0
  1 25  1  0  0  0
  1 30  2  0  0  0
  1 84  1  0  0  0
  2  3  1  0  0  0
  2 25  1  0  0  0
  2 86  1  0  0  0
  2 87  1  0  0  0
  3  4  1  0  0  0
  3 88  1  0  0  0
  3 89  1  0  0  0
  4  5  1  0  0  0
  4 90  1  0  0  0
  4 91  1  0  0  0
  5  6  1  0  0  0
  5 26  1  0  0  0
  5 92  1  0  0  0
  6 25  1  0  0  0
  6 93  1  0  0  0
  6 94  1  0  0  0
  7  8  2  0  0  0
  7 26  1  0  0  0
  7 29  1  0  0  0
  8  9  1  0  0  0
  8 22  1  0  0  0
  9 10  1  0  0  0
  9 27  2  0  0  0
 10 11  2  0  0  0
 10 15  1  0  0  0
 11 12  1  0  0  0
 11 95  1  0  0  0
 12 13  2  0  0  0
 12 96  1  0  0  0
 13 14  1  0  0  0
 13 31  1  0  0  0
 14 15  2  0  0  0
 14 97  1  0  0  0
 15 98  1  0  0  0
 16 17  2  0  0  0
 16 21  1  0  0  0
 16 31  1  0  0  0
 17 18  1  0  0  0
 17 99  1  0  0  0
 18 19  2  0  0  0
 18100  1  0  0  0
 19 20  1  0  0  0
 19 24  1  0  0  0
 20 21  2  0  0  0
 20101  1  0  0  0
 21 23  1  0  0  0
 22 28  1  0  0  0
 22 32  2  0  0  0
 26 27  1  0  0  0
 28102  1  0  0  0
 28103  1  0  0  0
 29104  1  0  0  0
 29105  1  0  0  0
 33 34  1  0  0  0
 33 66  1  0  0  0
 33 70  2  0  0  0
 34 36  1  0  0  0
 34 59  1  0  0  0
 34106  1  0  0  0
 35 44  2  0  0  0
 35 45  1  0  0  0
 35 68  1  0  0  0
 36 56  1  0  0  0
 36107  1  0  0  0
 37 39  1  0  0  0
 37 47  1  0  0  0
 37 66  1  0  0  0
 37108  1  0  0  0
 38 43  2  0  0  0
 38 46  1  0  0  0
 38 47  1  0  0  0
 39 64  1  0  0  0
 39 67  2  0  0  0
 40 52  1  0  0  0
 40 53  2  0  0  0
 40 58  1  0  0  0
 41109  1  0  0  0
 41110  1  0  0  0
 41111  1  0  0  0
 41 48  1  0  0  0
 42 43  1  0  0  0
 42 66  1  0  0  0
 42112  1  0  0  0
 42113  1  0  0  0
 43 44  1  0  0  0
 44114  1  0  0  0
 45 46  2  0  0  0
 45115  1  0  0  0
 46116  1  0  0  0
 47117  1  0  0  0
 47118  1  0  0  0
 48 56  1  0  0  0
 48 65  1  0  0  0
 48119  1  0  0  0
 49 50  1  0  0  0
 49 53  1  0  0  0
 49 64  1  0  0  0
 49120  1  0  0  0
 50 51  1  0  0  0
 50121  1  0  0  0
 50122  1  0  0  0
 51 52  1  0  0  0
 51123  1  0  0  0
 51124  1  0  0  0
 52125  1  0  0  0
 52126  1  0  0  0
 53 54  1  0  0  0
 54 55  2  0  0  0
 54127  1  0  0  0
 55 57  1  0  0  0
 55128  1  0  0  0
 56 69  2  0  0  0
 57 58  2  0  0  0
 57129  1  0  0  0
 58130  1  0  0  0
 59 60  1  0  0  0
 59 61  1  0  0  0
 59 62  1  0  0  0
 60131  1  0  0  0
 60132  1  0  0  0
 60133  1  0  0  0
 61134  1  0  0  0
 61135  1  0  0  0
 61136  1  0  0  0
 62137  1  0  0  0
 62138  1  0  0  0
 62139  1  0  0  0
 63 65  1  0  0  0
 63140  1  0  0  0
 63141  1  0  0  0
 63142  1  0  0  0
 64143  1  0  0  0
 65144  1  0  0  0
 68 81  1  0  0  0
 71 73  2  0  0  0
 71 74  1  0  0  0
 71145  1  0  0  0
 72 74  2  0  0  0
 72 83  1  0  0  0
 72146  1  0  0  0
 73 75  1  0  0  0
 73 78  1  0  0  0
 74 85  1  0  0  0
 75 79  1  0  0  0
 75 83  2  0  0  0
 76 77  1  0  0  0
 76 78  1  0  0  0
 76147  1  0  0  0
 76148  1  0  0  0
 77 78  1  0  0  0
 77149  1  0  0  0
 77150  1  0  0  0
 78151  1  0  0  0
 79 84  1  0  0  0
 79152  1  0  0  0
 79153  1  0  0  0
 80 81  1  0  0  0
 80 82  1  0  0  0
 80154  1  0  0  0
 80155  1  0  0  0
 81156  1  0  0  0
 81157  1  0  0  0
 82 85  1  0  0  0
 82158  1  0  0  0
 82159  1  0  0  0
 84160  1  0  0  0
M  ISO  4   1 100  68 101  81 101  84 100
M  END
> <chiral flag>
0

> <version>
0

> <s_m_source_file>
/data/baiqing/PycharmProjects/Reinvent-master-3.2/result/LINK_invent/BTK/process_docking_weight1_custom_sum_contain_oxygen_bond_distance_aromatic_linkinvent_7_9_3/rearranged_h_0120.sdf

> <i_m_source_file_index>
25

> <r_mmod_Potential_Energy-OPLS-2005>
-224.763534545898

> <r_mmod_Stretch_Energy-OPLS-2005>
43.0351486206055

> <r_mmod_Bend_Energy-OPLS-2005>
112.251647949219

> <r_mmod_Torsional_Energy-OPLS-2005>
243.6474609375

> <r_mmod_Improper_Torsional_Energy-OPLS-2005>
2.95499682426453

> <r_mmod_Van_der_Waal_Energy-OPLS-2005>
145.898971557617

> <r_mmod_Electrostatic_Energy-OPLS-2005>
-565.549743652344

> <r_mmod_Solvation_Energy-OPLS-2005>
-222.220916748047

> <b_mmod_Minimization_Converged-OPLS-2005>
0

> <r_mmod_RMS_Derivative-OPLS-2005>
0.400556951761246

$$$$
25
                    3D
 Structure written by MMmdl.
163172  0  0  1  0            999 V2000
  -30.7404  -14.4506   20.6215 C   0  0  0  0  0  0
  -30.4149  -12.3113   19.4274 C   0  0  0  0  0  0
  -29.4933  -12.5138   18.2076 C   0  0  0  0  0  0
  -28.0147  -12.3694   18.6144 C   0  0  0  0  0  0
  -27.6589  -13.2083   19.8694 C   0  0  2  0  0  0
  -28.6939  -12.9923   20.9931 C   0  0  0  0  0  0
  -25.2585  -13.8169   20.5680 C   0  0  0  0  0  0
  -24.1842  -13.0446   20.9192 C   0  0  0  0  0  0
  -24.6392  -11.6912   20.8734 C   0  0  0  0  0  0
  -23.9056  -10.4298   21.0405 C   0  0  0  0  0  0
  -24.3610   -9.4212   21.9181 C   0  0  0  0  0  0
  -23.6288   -8.2246   22.0754 C   0  0  0  0  0  0
  -22.4269   -8.0281   21.3545 C   0  0  0  0  0  0
  -21.9904   -9.0256   20.4648 C   0  0  0  0  0  0
  -22.7229  -10.2138   20.3055 C   0  0  0  0  0  0
  -21.6853   -6.0734   22.5279 C   0  0  0  0  0  0
  -21.4016   -6.5638   23.8212 C   0  0  0  0  0  0
  -21.3659   -5.6792   24.9175 C   0  0  0  0  0  0
  -21.6045   -4.3055   24.7226 C   0  0  0  0  0  0
  -21.8819   -3.8146   23.4347 C   0  0  0  0  0  0
  -21.9194   -4.6963   22.3403 C   0  0  0  0  0  0
  -22.7867  -13.5249   21.1856 C   0  0  0  0  0  0
  -22.1664   -4.2149   21.0981 F   0  0  0  0  0  0
  -21.5627   -3.4537   25.7737 F   0  0  0  0  0  0
  -30.0319  -13.2960   20.4553 N   0  0  0  0  0  0
  -26.3002  -12.9335   20.3315 N   0  0  0  0  0  0
  -25.9312  -11.6497   20.5736 N   0  0  0  0  0  0
  -22.0503  -12.8236   22.0403 N   0  0  0  0  0  0
  -25.4327  -15.1886   20.4088 N   0  0  0  0  0  0
  -31.8242  -14.6404   20.0593 O   0  0  0  0  0  0
  -21.6637   -6.8876   21.4240 O   0  0  0  0  0  0
  -22.3561  -14.5558   20.6705 O   0  0  0  0  0  0
  -24.6155  -31.8677   23.2107 C   0  0  0  0  0  0
  -25.9046  -32.4821   23.8401 C   0  0  1  0  0  0
  -27.2304  -27.4221   20.0883 C   0  0  0  0  0  0
  -25.5902  -33.8621   24.2327 N   0  0  0  0  0  0
  -23.4030  -30.4931   21.5521 C   0  0  2  0  0  0
  -24.8468  -28.9607   20.1139 C   0  0  0  0  0  0
  -22.7413  -29.4656   22.4990 C   0  0  0  0  0  0
  -18.0272  -28.1375   22.8494 C   0  0  0  0  0  0
  -24.1486  -36.7316   23.2637 C   0  0  0  0  0  0
  -25.9343  -30.8282   21.3672 C   0  0  0  0  0  0
  -26.0087  -29.4630   20.7117 C   0  0  0  0  0  0
  -27.2008  -28.7005   20.6973 C   0  0  0  0  0  0
  -26.0434  -26.9408   19.4838 C   0  0  0  0  0  0
  -24.8596  -27.6991   19.4988 C   0  0  0  0  0  0
  -23.6107  -29.8294   20.1655 C   0  0  0  0  0  0
  -25.4106  -36.3112   24.0336 C   0  0  1  0  0  0
  -20.5863  -28.3662   23.1320 C   0  0  2  0  0  0
  -20.6759  -26.9398   22.5421 C   0  0  0  0  0  0
  -19.5740  -26.6384   21.5214 C   0  0  0  0  0  0
  -18.1918  -26.7923   22.1624 C   0  0  0  0  0  0
  -19.1521  -28.8835   23.2904 C   0  0  0  0  0  0
  -18.9449  -30.1443   23.8910 C   0  0  0  0  0  0
  -17.6451  -30.6583   24.0564 C   0  0  0  0  0  0
  -25.9037  -34.9476   23.5129 C   0  0  0  0  0  0
  -16.5342  -29.9085   23.6325 C   0  0  0  0  0  0
  -16.7261  -28.6502   23.0346 C   0  0  0  0  0  0
  -26.4469  -31.6602   25.0733 C   0  0  0  0  0  0
  -25.3736  -31.3705   26.1483 C   0  0  0  0  0  0
  -27.0301  -30.3043   24.6118 C   0  0  0  0  0  0
  -27.6047  -32.4320   25.7493 C   0  0  0  0  0  0
  -27.5585  -37.1807   24.8457 C   0  0  0  0  0  0
  -21.4140  -29.3031   22.3729 N   0  0  0  0  0  0
  -26.4289  -37.3801   23.9412 N   0  0  0  0  0  0
  -24.6693  -31.0772   22.1014 N   0  0  0  0  0  0
  -23.4186  -28.8194   23.3029 O   0  0  0  0  0  0
  -28.4052  -26.6882   20.1106 O   0  0  0  0  0  0
  -26.5601  -34.8927   22.4691 O   0  0  0  0  0  0
  -23.5345  -32.1434   23.7497 O   0  0  0  0  0  0
  -28.2853  -19.9568   20.0314 C   0  0  0  0  0  0
  -30.5638  -19.9716   20.8715 C   0  0  0  0  0  0
  -28.4483  -21.2791   19.5578 C   0  0  0  0  0  0
  -30.7260  -21.2938   20.4002 C   0  0  0  0  0  0
  -29.3466  -19.2767   20.6758 C   0  0  0  0  0  0
  -29.6776  -21.9528   19.7216 C   0  0  0  0  0  0
  -30.0597  -15.5182   22.7039 C   0  0  0  0  0  0
  -30.2787  -16.8480   20.6841 C   0  0  0  0  0  0
  -28.8985  -16.4140   23.1833 C   0  0  0  0  0  0
  -29.1634  -17.8247   21.1556 C   0  0  1  0  0  0
  -29.9201  -23.3156   19.0673 C   0  0  0  0  0  0
  -29.6846  -24.5779   19.9387 C   0  0  0  0  0  0
  -28.3679  -25.3287   19.6408 C   0  0  0  0  0  0
  -30.1094  -15.4840   21.2357 N   0  0  0  0  0  0
  -28.9988  -17.7809   22.6231 N   0  3  0  0  0  0
  -31.4610  -12.3970   19.1278 H   0  0  0  0  0  0
  -30.3068  -11.3003   19.8235 H   0  0  0  0  0  0
  -29.7373  -11.7931   17.4259 H   0  0  0  0  0  0
  -29.6617  -13.5021   17.7763 H   0  0  0  0  0  0
  -27.8257  -11.3132   18.8093 H   0  0  0  0  0  0
  -27.3658  -12.6443   17.7821 H   0  0  0  0  0  0
  -27.7040  -14.2569   19.5745 H   0  0  0  0  0  0
  -28.6672  -11.9591   21.3431 H   0  0  0  0  0  0
  -28.4216  -13.5959   21.8555 H   0  0  0  0  0  0
  -25.2757   -9.5688   22.4752 H   0  0  0  0  0  0
  -24.0001   -7.4636   22.7470 H   0  0  0  0  0  0
  -21.0837   -8.8773   19.8953 H   0  0  0  0  0  0
  -22.3686  -10.9675   19.6163 H   0  0  0  0  0  0
  -21.2008   -7.6146   23.9715 H   0  0  0  0  0  0
  -21.1482   -6.0522   25.9079 H   0  0  0  0  0  0
  -22.0598   -2.7608   23.2847 H   0  0  0  0  0  0
  -22.4106  -11.9881   22.4772 H   0  0  0  0  0  0
  -21.1126  -13.1268   22.2616 H   0  0  0  0  0  0
  -24.6551  -15.8357   20.4829 H   0  0  0  0  0  0
  -26.2616  -15.6086   20.0102 H   0  0  0  0  0  0
  -26.7116  -32.5526   23.1163 H   0  0  0  0  0  0
  -25.0048  -33.9783   25.0469 H   0  0  0  0  0  0
  -22.6917  -31.3104   21.4156 H   0  0  0  0  0  0
  -23.3753  -35.9644   23.3290 H   0  0  0  0  0  0
  -24.3584  -36.8943   22.2054 H   0  0  0  0  0  0
  -23.7231  -37.6513   23.6660 H   0  0  0  0  0  0
  -26.0515  -31.5954   20.6006 H   0  0  0  0  0  0
  -26.8206  -30.8772   21.9882 H   0  0  0  0  0  0
  -28.0977  -29.0856   21.1626 H   0  0  0  0  0  0
  -26.0022  -25.9804   18.9921 H   0  0  0  0  0  0
  -23.9660  -27.3070   19.0328 H   0  0  0  0  0  0
  -23.7200  -30.6060   19.4075 H   0  0  0  0  0  0
  -22.7334  -29.2515   19.8691 H   0  0  0  0  0  0
  -25.1279  -36.1976   25.0829 H   0  0  0  0  0  0
  -20.9954  -28.3227   24.1441 H   0  0  0  0  0  0
  -20.5664  -26.2266   23.3604 H   0  0  0  0  0  0
  -21.6630  -26.7442   22.1216 H   0  0  0  0  0  0
  -19.6901  -25.6302   21.1227 H   0  0  0  0  0  0
  -19.6681  -27.3205   20.6753 H   0  0  0  0  0  0
  -17.4192  -26.6680   21.4021 H   0  0  0  0  0  0
  -18.0313  -26.0061   22.9015 H   0  0  0  0  0  0
  -19.7925  -30.7254   24.2287 H   0  0  0  0  0  0
  -17.5007  -31.6263   24.5166 H   0  0  0  0  0  0
  -15.5343  -30.2989   23.7643 H   0  0  0  0  0  0
  -15.8661  -28.0827   22.7048 H   0  0  0  0  0  0
  -24.5904  -30.7057   25.7818 H   0  0  0  0  0  0
  -24.8932  -32.2860   26.4947 H   0  0  0  0  0  0
  -25.8092  -30.8862   27.0232 H   0  0  0  0  0  0
  -26.2849  -29.6809   24.1161 H   0  0  0  0  0  0
  -27.4054  -29.7275   25.4581 H   0  0  0  0  0  0
  -27.8694  -30.4358   23.9284 H   0  0  0  0  0  0
  -27.2667  -33.3607   26.2104 H   0  0  0  0  0  0
  -28.3837  -32.6899   25.0308 H   0  0  0  0  0  0
  -28.0737  -31.8425   26.5381 H   0  0  0  0  0  0
  -28.2586  -38.0123   24.7538 H   0  0  0  0  0  0
  -28.1100  -36.2655   24.6241 H   0  0  0  0  0  0
  -27.2310  -37.1410   25.8862 H   0  0  0  0  0  0
  -20.9295  -29.8765   21.6965 H   0  0  0  0  0  0
  -26.0178  -38.2875   24.1434 H   0  0  0  0  0  0
  -27.3381  -19.4594   19.8721 H   0  0  0  0  0  0
  -31.3959  -19.4925   21.3682 H   0  0  0  0  0  0
  -27.6336  -21.7599   19.0333 H   0  0  0  0  0  0
  -31.6789  -21.7885   20.5307 H   0  0  0  0  0  0
  -29.9582  -14.5198   23.1321 H   0  0  0  0  0  0
  -31.0092  -15.8995   23.0848 H   0  0  0  0  0  0
  -31.2638  -17.2171   20.9730 H   0  0  0  0  0  0
  -30.2743  -16.8153   19.5926 H   0  0  0  0  0  0
  -28.8877  -16.4720   24.2723 H   0  0  0  0  0  0
  -27.9440  -15.9761   22.8864 H   0  0  0  0  0  0
  -28.2262  -17.4593   20.7308 H   0  0  0  0  0  0
  -29.3439  -23.3769   18.1434 H   0  0  0  0  0  0
  -30.9603  -23.3223   18.7377 H   0  0  0  0  0  0
  -30.4943  -25.2727   19.7124 H   0  0  0  0  0  0
  -29.7840  -24.3519   21.0008 H   0  0  0  0  0  0
  -27.5478  -24.7759   20.1021 H   0  0  0  0  0  0
  -28.1933  -25.3468   18.5640 H   0  0  0  0  0  0
  -29.7807  -18.2498   23.0488 H   0  0  0  0  0  0
  -28.1727  -18.3007   22.8720 H   0  0  0  0  0  0
  1 25  1  0  0  0
  1 30  2  0  0  0
  1 84  1  0  0  0
  2  3  1  0  0  0
  2 25  1  0  0  0
  2 86  1  0  0  0
  2 87  1  0  0  0
  3  4  1  0  0  0
  3 88  1  0  0  0
  3 89  1  0  0  0
  4  5  1  0  0  0
  4 90  1  0  0  0
  4 91  1  0  0  0
  5  6  1  0  0  0
  5 26  1  0  0  0
  5 92  1  0  0  0
  6 25  1  0  0  0
  6 93  1  0  0  0
  6 94  1  0  0  0
  7  8  2  0  0  0
  7 26  1  0  0  0
  7 29  1  0  0  0
  8  9  1  0  0  0
  8 22  1  0  0  0
  9 10  1  0  0  0
  9 27  2  0  0  0
 10 11  2  0  0  0
 10 15  1  0  0  0
 11 12  1  0  0  0
 11 95  1  0  0  0
 12 13  2  0  0  0
 12 96  1  0  0  0
 13 14  1  0  0  0
 13 31  1  0  0  0
 14 15  2  0  0  0
 14 97  1  0  0  0
 15 98  1  0  0  0
 16 17  2  0  0  0
 16 21  1  0  0  0
 16 31  1  0  0  0
 17 18  1  0  0  0
 17 99  1  0  0  0
 18 19  2  0  0  0
 18100  1  0  0  0
 19 20  1  0  0  0
 19 24  1  0  0  0
 20 21  2  0  0  0
 20101  1  0  0  0
 21 23  1  0  0  0
 22 28  1  0  0  0
 22 32  2  0  0  0
 26 27  1  0  0  0
 28102  1  0  0  0
 28103  1  0  0  0
 29104  1  0  0  0
 29105  1  0  0  0
 33 34  1  0  0  0
 33 66  1  0  0  0
 33 70  2  0  0  0
 34 36  1  0  0  0
 34 59  1  0  0  0
 34106  1  0  0  0
 35 44  2  0  0  0
 35 45  1  0  0  0
 35 68  1  0  0  0
 36 56  1  0  0  0
 36107  1  0  0  0
 37 39  1  0  0  0
 37 47  1  0  0  0
 37 66  1  0  0  0
 37108  1  0  0  0
 38 43  2  0  0  0
 38 46  1  0  0  0
 38 47  1  0  0  0
 39 64  1  0  0  0
 39 67  2  0  0  0
 40 52  1  0  0  0
 40 53  2  0  0  0
 40 58  1  0  0  0
 41109  1  0  0  0
 41110  1  0  0  0
 41111  1  0  0  0
 41 48  1  0  0  0
 42 43  1  0  0  0
 42 66  1  0  0  0
 42112  1  0  0  0
 42113  1  0  0  0
 43 44  1  0  0  0
 44114  1  0  0  0
 45 46  2  0  0  0
 45115  1  0  0  0
 46116  1  0  0  0
 47117  1  0  0  0
 47118  1  0  0  0
 48 56  1  0  0  0
 48 65  1  0  0  0
 48119  1  0  0  0
 49 50  1  0  0  0
 49 53  1  0  0  0
 49 64  1  0  0  0
 49120  1  0  0  0
 50 51  1  0  0  0
 50121  1  0  0  0
 50122  1  0  0  0
 51 52  1  0  0  0
 51123  1  0  0  0
 51124  1  0  0  0
 52125  1  0  0  0
 52126  1  0  0  0
 53 54  1  0  0  0
 54 55  2  0  0  0
 54127  1  0  0  0
 55 57  1  0  0  0
 55128  1  0  0  0
 56 69  2  0  0  0
 57 58  2  0  0  0
 57129  1  0  0  0
 58130  1  0  0  0
 59 60  1  0  0  0
 59 61  1  0  0  0
 59 62  1  0  0  0
 60131  1  0  0  0
 60132  1  0  0  0
 60133  1  0  0  0
 61134  1  0  0  0
 61135  1  0  0  0
 61136  1  0  0  0
 62137  1  0  0  0
 62138  1  0  0  0
 62139  1  0  0  0
 63 65  1  0  0  0
 63140  1  0  0  0
 63141  1  0  0  0
 63142  1  0  0  0
 64143  1  0  0  0
 65144  1  0  0  0
 68 83  1  0  0  0
 71 73  2  0  0  0
 71 75  1  0  0  0
 71145  1  0  0  0
 72 74  1  0  0  0
 72 75  2  0  0  0
 72146  1  0  0  0
 73 76  1  0  0  0
 73147  1  0  0  0
 74 76  2  0  0  0
 74148  1  0  0  0
 75 80  1  0  0  0
 76 81  1  0  0  0
 77 79  1  0  0  0
 77 84  1  0  0  0
 77149  1  0  0  0
 77150  1  0  0  0
 78 80  1  0  0  0
 78 84  1  0  0  0
 78151  1  0  0  0
 78152  1  0  0  0
 79 85  1  0  0  0
 79153  1  0  0  0
 79154  1  0  0  0
 80 85  1  0  0  0
 80155  1  0  0  0
 81 82  1  0  0  0
 81156  1  0  0  0
 81157  1  0  0  0
 82 83  1  0  0  0
 82158  1  0  0  0
 82159  1  0  0  0
 83160  1  0  0  0
 83161  1  0  0  0
 85162  1  0  0  0
 85163  1  0  0  0
M  CHG  1  85   1
M  ISO  4   1 100  68 101  83 101  84 100
M  END
> <chiral flag>
0

> <version>
0

> <s_m_source_file>
/data/baiqing/PycharmProjects/Reinvent-master-3.2/result/LINK_invent/BTK/process_docking_weight1_custom_sum_contain_oxygen_bond_distance_aromatic_linkinvent_7_9_3/rearranged_h_0120.sdf

> <i_m_source_file_index>
26

> <r_mmod_Potential_Energy-OPLS-2005>
-75.6280517578125

> <r_mmod_Stretch_Energy-OPLS-2005>
41.2487678527832

> <r_mmod_Bend_Energy-OPLS-2005>
101.537467956543

> <r_mmod_Torsional_Energy-OPLS-2005>
358.321929931641

> <r_mmod_Improper_Torsional_Energy-OPLS-2005>
9.26396751403809

> <r_mmod_Van_der_Waal_Energy-OPLS-2005>
156.713897705078

> <r_mmod_Electrostatic_Energy-OPLS-2005>
-293.614013671875

> <r_mmod_Solvation_Energy-OPLS-2005>
-461.151092529297

> <b_mmod_Minimization_Converged-OPLS-2005>
0

> <r_mmod_RMS_Derivative-OPLS-2005>
0.447261065244675

$$$$
26
                    3D
 Structure written by MMmdl.
166175  0  0  1  0            999 V2000
  -30.6012  -14.8484   20.4509 C   0  0  0  0  0  0
  -30.4238  -12.5279   19.4922 C   0  0  0  0  0  0
  -29.5128  -12.5257   18.2461 C   0  0  0  0  0  0
  -28.0402  -12.3363   18.6570 C   0  0  0  0  0  0
  -27.6291  -13.2526   19.8425 C   0  0  2  0  0  0
  -28.6710  -13.2480   20.9793 C   0  0  0  0  0  0
  -25.2462  -13.8236   20.5730 C   0  0  0  0  0  0
  -24.1777  -13.0441   20.9223 C   0  0  0  0  0  0
  -24.6393  -11.6926   20.8739 C   0  0  0  0  0  0
  -23.9081  -10.4285   21.0397 C   0  0  0  0  0  0
  -24.3636   -9.4201   21.9173 C   0  0  0  0  0  0
  -23.6313   -8.2240   22.0741 C   0  0  0  0  0  0
  -22.4291   -8.0272   21.3538 C   0  0  0  0  0  0
  -21.9922   -9.0244   20.4638 C   0  0  0  0  0  0
  -22.7254  -10.2123   20.3044 C   0  0  0  0  0  0
  -21.6866   -6.0732   22.5274 C   0  0  0  0  0  0
  -21.4009   -6.5636   23.8203 C   0  0  0  0  0  0
  -21.3662   -5.6791   24.9166 C   0  0  0  0  0  0
  -21.6059   -4.3056   24.7223 C   0  0  0  0  0  0
  -21.8832   -3.8144   23.4345 C   0  0  0  0  0  0
  -21.9196   -4.6959   22.3398 C   0  0  0  0  0  0
  -22.7796  -13.5198   21.1888 C   0  0  0  0  0  0
  -22.1670   -4.2145   21.0977 F   0  0  0  0  0  0
  -21.5627   -3.4535   25.7734 F   0  0  0  0  0  0
  -29.9550  -13.6236   20.3831 N   0  0  0  0  0  0
  -26.2882  -12.9476   20.3274 N   0  0  0  0  0  0
  -25.9334  -11.6588   20.5747 N   0  0  0  0  0  0
  -22.0466  -12.8155   22.0434 N   0  0  0  0  0  0
  -25.4171  -15.1968   20.4185 N   0  0  0  0  0  0
  -31.8021  -14.8759   20.1594 O   0  0  0  0  0  0
  -21.6653   -6.8868   21.4235 O   0  0  0  0  0  0
  -22.3469  -14.5500   20.6722 O   0  0  0  0  0  0
  -24.6388  -31.8496   23.1955 C   0  0  0  0  0  0
  -25.9167  -32.4736   23.8327 C   0  0  1  0  0  0
  -27.2125  -27.1936   20.1354 C   0  0  0  0  0  0
  -25.5932  -33.8544   24.2239 N   0  0  0  0  0  0
  -23.4391  -30.4707   21.5423 C   0  0  2  0  0  0
  -24.8869  -28.9154   20.1042 C   0  0  0  0  0  0
  -22.7540  -29.4547   22.4907 C   0  0  0  0  0  0
  -18.0290  -28.1386   22.8495 C   0  0  0  0  0  0
  -24.1482  -36.7279   23.2637 C   0  0  0  0  0  0
  -25.9917  -30.7406   21.3864 C   0  0  0  0  0  0
  -26.0620  -29.3592   20.7254 C   0  0  0  0  0  0
  -27.2245  -28.5107   20.7302 C   0  0  0  0  0  0
  -26.0186  -26.8490   19.4592 C   0  0  0  0  0  0
  -24.8763  -27.6735   19.4550 C   0  0  0  0  0  0
  -23.6614  -29.8094   20.1569 C   0  0  0  0  0  0
  -25.4110  -36.3061   24.0324 C   0  0  1  0  0  0
  -20.5901  -28.3696   23.1281 C   0  0  2  0  0  0
  -20.6779  -26.9412   22.5420 C   0  0  0  0  0  0
  -19.5747  -26.6380   21.5230 C   0  0  0  0  0  0
  -18.1927  -26.7921   22.1639 C   0  0  0  0  0  0
  -19.1543  -28.8863   23.2880 C   0  0  0  0  0  0
  -18.9453  -30.1458   23.8907 C   0  0  0  0  0  0
  -17.6448  -30.6589   24.0557 C   0  0  0  0  0  0
  -25.9054  -34.9428   23.5083 C   0  0  0  0  0  0
  -16.5343  -29.9080   23.6335 C   0  0  0  0  0  0
  -16.7274  -28.6494   23.0372 C   0  0  0  0  0  0
  -26.4499  -31.6587   25.0744 C   0  0  0  0  0  0
  -25.3703  -31.3764   26.1454 C   0  0  0  0  0  0
  -27.0339  -30.2992   24.6270 C   0  0  0  0  0  0
  -27.6038  -32.4341   25.7530 C   0  0  0  0  0  0
  -27.5578  -37.1795   24.8459 C   0  0  0  0  0  0
  -21.4238  -29.3027   22.3669 N   0  0  0  0  0  0
  -26.4282  -37.3762   23.9408 N   0  0  0  0  0  0
  -24.7098  -31.0388   22.0975 N   0  0  0  0  0  0
  -23.4207  -28.8080   23.3021 O   0  0  0  0  0  0
  -28.2705  -26.2337   20.2331 O   0  0  0  0  0  0
  -26.5640  -34.8911   22.4662 O   0  0  0  0  0  0
  -23.5517  -32.1341   23.7202 O   0  0  0  0  0  0
  -29.6962  -23.8676   21.5780 C   0  0  0  0  0  0
  -28.8685  -23.5376   20.5657 C   0  0  0  0  0  0
  -29.1284  -18.4339   19.4814 C   0  0  0  0  0  0
  -29.3738  -18.3729   21.8580 C   0  0  0  0  0  0
  -29.9374  -17.0455   19.4092 C   0  0  0  0  0  0
  -30.1283  -16.9588   21.7502 C   0  0  0  0  0  0
  -27.9282  -21.8193   18.9370 C   0  0  0  0  0  0
  -26.7400  -21.0111   19.4624 C   0  0  0  0  0  0
  -29.4611  -19.4129   20.6695 C   0  0  0  0  0  0
  -28.5980  -20.8272   20.9188 C   0  0  1  0  0  0
  -30.6183  -22.9508   22.3593 C   0  0  0  0  0  0
  -28.0294  -24.7565   19.8970 C   0  0  0  0  0  0
  -28.7349  -22.1375   20.1107 N   0  0  0  0  0  0
  -29.8886  -16.0737   20.5625 N   0  0  0  0  0  0
  -27.1636  -20.5299   20.7856 N   0  3  0  0  0  0
  -31.4649  -12.6495   19.1916 H   0  0  0  0  0  0
  -30.3752  -11.5669   20.0077 H   0  0  0  0  0  0
  -29.8132  -11.7383   17.5549 H   0  0  0  0  0  0
  -29.6265  -13.4694   17.7083 H   0  0  0  0  0  0
  -27.9098  -11.2894   18.9337 H   0  0  0  0  0  0
  -27.3875  -12.5087   17.8016 H   0  0  0  0  0  0
  -27.6013  -14.2636   19.4365 H   0  0  0  0  0  0
  -28.7335  -12.2682   21.4509 H   0  0  0  0  0  0
  -28.3886  -13.9565   21.7617 H   0  0  0  0  0  0
  -25.2772   -9.5685   22.4756 H   0  0  0  0  0  0
  -24.0031   -7.4623   22.7447 H   0  0  0  0  0  0
  -21.0861   -8.8754   19.8932 H   0  0  0  0  0  0
  -22.3706  -10.9660   19.6156 H   0  0  0  0  0  0
  -21.1991   -7.6139   23.9710 H   0  0  0  0  0  0
  -21.1482   -6.0511   25.9071 H   0  0  0  0  0  0
  -22.0611   -2.7604   23.2851 H   0  0  0  0  0  0
  -22.4110  -11.9826   22.4828 H   0  0  0  0  0  0
  -21.1062  -13.1126   22.2625 H   0  0  0  0  0  0
  -24.6560  -15.8554   20.5366 H   0  0  0  0  0  0
  -26.2813  -15.6345   20.1260 H   0  0  0  0  0  0
  -26.7239  -32.5357   23.1068 H   0  0  0  0  0  0
  -25.0059  -33.9687   25.0368 H   0  0  0  0  0  0
  -22.7364  -31.2933   21.3940 H   0  0  0  0  0  0
  -23.3755  -35.9603   23.3280 H   0  0  0  0  0  0
  -24.3571  -36.8923   22.2056 H   0  0  0  0  0  0
  -23.7222  -37.6465   23.6680 H   0  0  0  0  0  0
  -26.1346  -31.4960   20.6132 H   0  0  0  0  0  0
  -26.8671  -30.7917   22.0224 H   0  0  0  0  0  0
  -28.1185  -28.8406   21.2404 H   0  0  0  0  0  0
  -25.9250  -25.9094   18.9370 H   0  0  0  0  0  0
  -23.9826  -27.3356   18.9470 H   0  0  0  0  0  0
  -23.7909  -30.5876   19.4040 H   0  0  0  0  0  0
  -22.7782  -29.2473   19.8497 H   0  0  0  0  0  0
  -25.1291  -36.1907   25.0818 H   0  0  0  0  0  0
  -20.9981  -28.3256   24.1404 H   0  0  0  0  0  0
  -20.5691  -26.2294   23.3619 H   0  0  0  0  0  0
  -21.6642  -26.7437   22.1196 H   0  0  0  0  0  0
  -19.6903  -25.6286   21.1268 H   0  0  0  0  0  0
  -19.6696  -27.3193   20.6763 H   0  0  0  0  0  0
  -17.4200  -26.6690   21.4031 H   0  0  0  0  0  0
  -18.0309  -26.0066   22.9035 H   0  0  0  0  0  0
  -19.7921  -30.7275   24.2300 H   0  0  0  0  0  0
  -17.4990  -31.6276   24.5133 H   0  0  0  0  0  0
  -15.5337  -30.2984   23.7647 H   0  0  0  0  0  0
  -15.8666  -28.0797   22.7122 H   0  0  0  0  0  0
  -24.5884  -30.7106   25.7784 H   0  0  0  0  0  0
  -24.8902  -32.2950   26.4841 H   0  0  0  0  0  0
  -25.8009  -30.8968   27.0254 H   0  0  0  0  0  0
  -26.2940  -29.6752   24.1252 H   0  0  0  0  0  0
  -27.3932  -29.7244   25.4811 H   0  0  0  0  0  0
  -27.8852  -30.4230   23.9578 H   0  0  0  0  0  0
  -27.2626  -33.3641   26.2088 H   0  0  0  0  0  0
  -28.3871  -32.6902   25.0387 H   0  0  0  0  0  0
  -28.0680  -31.8485   26.5472 H   0  0  0  0  0  0
  -28.2574  -38.0110   24.7523 H   0  0  0  0  0  0
  -28.1095  -36.2639   24.6263 H   0  0  0  0  0  0
  -27.2301  -37.1413   25.8863 H   0  0  0  0  0  0
  -20.9436  -29.8767   21.6887 H   0  0  0  0  0  0
  -26.0156  -38.2833   24.1430 H   0  0  0  0  0  0
  -29.7206  -24.9006   21.8993 H   0  0  0  0  0  0
  -28.0656  -18.1944   19.4941 H   0  0  0  0  0  0
  -29.2902  -18.9719   18.5464 H   0  0  0  0  0  0
  -29.7309  -18.8654   22.7631 H   0  0  0  0  0  0
  -28.3229  -18.1644   22.0583 H   0  0  0  0  0  0
  -30.9866  -17.2852   19.2207 H   0  0  0  0  0  0
  -29.6028  -16.5087   18.5187 H   0  0  0  0  0  0
  -29.8781  -16.3790   22.6395 H   0  0  0  0  0  0
  -31.2037  -17.1365   21.8235 H   0  0  0  0  0  0
  -27.5890  -22.6793   18.3635 H   0  0  0  0  0  0
  -28.5265  -21.2135   18.2551 H   0  0  0  0  0  0
  -26.4881  -20.1872   18.7940 H   0  0  0  0  0  0
  -25.8551  -21.6385   19.5748 H   0  0  0  0  0  0
  -30.5081  -19.7024   20.5781 H   0  0  0  0  0  0
  -28.7554  -21.0935   21.9636 H   0  0  0  0  0  0
  -30.8697  -22.0399   21.8167 H   0  0  0  0  0  0
  -30.1639  -22.6854   23.3146 H   0  0  0  0  0  0
  -31.5537  -23.4689   22.5685 H   0  0  0  0  0  0
  -26.9960  -24.5049   20.1334 H   0  0  0  0  0  0
  -28.1326  -24.6836   18.8146 H   0  0  0  0  0  0
  -26.9603  -19.5535   20.9203 H   0  0  0  0  0  0
  -26.6687  -21.0570   21.4863 H   0  0  0  0  0  0
  1 25  1  0  0  0
  1 30  2  0  0  0
  1 84  1  0  0  0
  2  3  1  0  0  0
  2 25  1  0  0  0
  2 86  1  0  0  0
  2 87  1  0  0  0
  3  4  1  0  0  0
  3 88  1  0  0  0
  3 89  1  0  0  0
  4  5  1  0  0  0
  4 90  1  0  0  0
  4 91  1  0  0  0
  5  6  1  0  0  0
  5 26  1  0  0  0
  5 92  1  0  0  0
  6 25  1  0  0  0
  6 93  1  0  0  0
  6 94  1  0  0  0
  7  8  2  0  0  0
  7 26  1  0  0  0
  7 29  1  0  0  0
  8  9  1  0  0  0
  8 22  1  0  0  0
  9 10  1  0  0  0
  9 27  2  0  0  0
 10 11  2  0  0  0
 10 15  1  0  0  0
 11 12  1  0  0  0
 11 95  1  0  0  0
 12 13  2  0  0  0
 12 96  1  0  0  0
 13 14  1  0  0  0
 13 31  1  0  0  0
 14 15  2  0  0  0
 14 97  1  0  0  0
 15 98  1  0  0  0
 16 17  2  0  0  0
 16 21  1  0  0  0
 16 31  1  0  0  0
 17 18  1  0  0  0
 17 99  1  0  0  0
 18 19  2  0  0  0
 18100  1  0  0  0
 19 20  1  0  0  0
 19 24  1  0  0  0
 20 21  2  0  0  0
 20101  1  0  0  0
 21 23  1  0  0  0
 22 28  1  0  0  0
 22 32  2  0  0  0
 26 27  1  0  0  0
 28102  1  0  0  0
 28103  1  0  0  0
 29104  1  0  0  0
 29105  1  0  0  0
 33 34  1  0  0  0
 33 66  1  0  0  0
 33 70  2  0  0  0
 34 36  1  0  0  0
 34 59  1  0  0  0
 34106  1  0  0  0
 35 44  2  0  0  0
 35 45  1  0  0  0
 35 68  1  0  0  0
 36 56  1  0  0  0
 36107  1  0  0  0
 37 39  1  0  0  0
 37 47  1  0  0  0
 37 66  1  0  0  0
 37108  1  0  0  0
 38 43  2  0  0  0
 38 46  1  0  0  0
 38 47  1  0  0  0
 39 64  1  0  0  0
 39 67  2  0  0  0
 40 52  1  0  0  0
 40 53  2  0  0  0
 40 58  1  0  0  0
 41109  1  0  0  0
 41110  1  0  0  0
 41111  1  0  0  0
 41 48  1  0  0  0
 42 43  1  0  0  0
 42 66  1  0  0  0
 42112  1  0  0  0
 42113  1  0  0  0
 43 44  1  0  0  0
 44114  1  0  0  0
 45 46  2  0  0  0
 45115  1  0  0  0
 46116  1  0  0  0
 47117  1  0  0  0
 47118  1  0  0  0
 48 56  1  0  0  0
 48 65  1  0  0  0
 48119  1  0  0  0
 49 50  1  0  0  0
 49 53  1  0  0  0
 49 64  1  0  0  0
 49120  1  0  0  0
 50 51  1  0  0  0
 50121  1  0  0  0
 50122  1  0  0  0
 51 52  1  0  0  0
 51123  1  0  0  0
 51124  1  0  0  0
 52125  1  0  0  0
 52126  1  0  0  0
 53 54  1  0  0  0
 54 55  2  0  0  0
 54127  1  0  0  0
 55 57  1  0  0  0
 55128  1  0  0  0
 56 69  2  0  0  0
 57 58  2  0  0  0
 57129  1  0  0  0
 58130  1  0  0  0
 59 60  1  0  0  0
 59 61  1  0  0  0
 59 62  1  0  0  0
 60131  1  0  0  0
 60132  1  0  0  0
 60133  1  0  0  0
 61134  1  0  0  0
 61135  1  0  0  0
 61136  1  0  0  0
 62137  1  0  0  0
 62138  1  0  0  0
 62139  1  0  0  0
 63 65  1  0  0  0
 63140  1  0  0  0
 63141  1  0  0  0
 63142  1  0  0  0
 64143  1  0  0  0
 65144  1  0  0  0
 68 82  1  0  0  0
 71 72  2  0  0  0
 71 81  1  0  0  0
 71145  1  0  0  0
 72 82  1  0  0  0
 72 83  1  0  0  0
 73 75  1  0  0  0
 73146  1  0  0  0
 73147  1  0  0  0
 73 79  1  0  0  0
 74 76  1  0  0  0
 74 79  1  0  0  0
 74148  1  0  0  0
 74149  1  0  0  0
 75 84  1  0  0  0
 75150  1  0  0  0
 75151  1  0  0  0
 76 84  1  0  0  0
 76152  1  0  0  0
 76153  1  0  0  0
 77 78  1  0  0  0
 77 83  1  0  0  0
 77154  1  0  0  0
 77155  1  0  0  0
 78 85  1  0  0  0
 78156  1  0  0  0
 78157  1  0  0  0
 79 80  1  0  0  0
 79158  1  0  0  0
 80 83  1  0  0  0
 80 85  1  0  0  0
 80159  1  0  0  0
 81160  1  0  0  0
 81161  1  0  0  0
 81162  1  0  0  0
 82163  1  0  0  0
 82164  1  0  0  0
 85165  1  0  0  0
 85166  1  0  0  0
M  CHG  1  85   1
M  ISO  4   1 100  68 101  82 101  84 100
M  END
> <chiral flag>
0

> <version>
0

> <s_m_source_file>
/data/baiqing/PycharmProjects/Reinvent-master-3.2/result/LINK_invent/BTK/process_docking_weight1_custom_sum_contain_oxygen_bond_distance_aromatic_linkinvent_7_9_3/rearranged_h_0120.sdf

> <i_m_source_file_index>
27

> <r_mmod_Potential_Energy-OPLS-2005>
465.865936279297

> <r_mmod_Stretch_Energy-OPLS-2005>
191.284545898438

> <r_mmod_Bend_Energy-OPLS-2005>
275.092163085938

> <r_mmod_Torsional_Energy-OPLS-2005>
401.935455322266

> <r_mmod_Improper_Torsional_Energy-OPLS-2005>
14.9434595108032

> <r_mmod_Van_der_Waal_Energy-OPLS-2005>
120.07691192627

> <r_mmod_Electrostatic_Energy-OPLS-2005>
-209.131866455078

> <r_mmod_Solvation_Energy-OPLS-2005>
-467.136505126953

> <b_mmod_Minimization_Converged-OPLS-2005>
0

> <r_mmod_RMS_Derivative-OPLS-2005>
2.34437084197998

$$$$
27
                    3D
 Structure written by MMmdl.
169177  0  0  1  0            999 V2000
  -30.7019  -14.4315   20.6133 C   0  0  0  0  0  0
  -30.4267  -12.3009   19.3980 C   0  0  0  0  0  0
  -29.4920  -12.5166   18.1908 C   0  0  0  0  0  0
  -28.0111  -12.3801   18.6067 C   0  0  0  0  0  0
  -27.6656  -13.1998   19.8768 C   0  0  2  0  0  0
  -28.7059  -12.9402   20.9873 C   0  0  0  0  0  0
  -25.2596  -13.8142   20.5679 C   0  0  0  0  0  0
  -24.1832  -13.0432   20.9169 C   0  0  0  0  0  0
  -24.6368  -11.6890   20.8718 C   0  0  0  0  0  0
  -23.9024  -10.4279   21.0400 C   0  0  0  0  0  0
  -24.3578   -9.4202   21.9188 C   0  0  0  0  0  0
  -23.6271   -8.2226   22.0746 C   0  0  0  0  0  0
  -22.4254   -8.0259   21.3540 C   0  0  0  0  0  0
  -21.9884   -9.0232   20.4652 C   0  0  0  0  0  0
  -22.7199  -10.2116   20.3053 C   0  0  0  0  0  0
  -21.6858   -6.0717   22.5276 C   0  0  0  0  0  0
  -21.4008   -6.5620   23.8207 C   0  0  0  0  0  0
  -21.3661   -5.6772   24.9169 C   0  0  0  0  0  0
  -21.6043   -4.3035   24.7228 C   0  0  0  0  0  0
  -21.8817   -3.8131   23.4349 C   0  0  0  0  0  0
  -21.9196   -4.6944   22.3403 C   0  0  0  0  0  0
  -22.7853  -13.5247   21.1836 C   0  0  0  0  0  0
  -22.1658   -4.2124   21.0986 F   0  0  0  0  0  0
  -21.5650   -3.4519   25.7747 F   0  0  0  0  0  0
  -30.0389  -13.2581   20.4419 N   0  0  0  0  0  0
  -26.3030  -12.9297   20.3369 N   0  0  0  0  0  0
  -25.9296  -11.6456   20.5731 N   0  0  0  0  0  0
  -22.0465  -12.8255   22.0393 N   0  0  0  0  0  0
  -25.4345  -15.1855   20.4052 N   0  0  0  0  0  0
  -31.8168  -14.6587   20.1321 O   0  0  0  0  0  0
  -21.6630   -6.8851   21.4233 O   0  0  0  0  0  0
  -22.3539  -14.5563   20.6689 O   0  0  0  0  0  0
  -24.6122  -31.8655   23.2130 C   0  0  0  0  0  0
  -25.9024  -32.4801   23.8397 C   0  0  1  0  0  0
  -27.2347  -27.4371   20.0785 C   0  0  0  0  0  0
  -25.5864  -33.8594   24.2306 N   0  0  0  0  0  0
  -23.4006  -30.4910   21.5543 C   0  0  2  0  0  0
  -24.8455  -28.9624   20.1179 C   0  0  0  0  0  0
  -22.7410  -29.4615   22.4997 C   0  0  0  0  0  0
  -18.0260  -28.1367   22.8455 C   0  0  0  0  0  0
  -24.1477  -36.7342   23.2641 C   0  0  0  0  0  0
  -25.9325  -30.8272   21.3731 C   0  0  0  0  0  0
  -26.0062  -29.4608   20.7226 C   0  0  0  0  0  0
  -27.1978  -28.6977   20.7180 C   0  0  0  0  0  0
  -26.0430  -26.9489   19.4879 C   0  0  0  0  0  0
  -24.8589  -27.7002   19.5037 C   0  0  0  0  0  0
  -23.6068  -29.8276   20.1665 C   0  0  0  0  0  0
  -25.4088  -36.3099   24.0330 C   0  0  1  0  0  0
  -20.5834  -28.3631   23.1338 C   0  0  2  0  0  0
  -20.6725  -26.9360   22.5438 C   0  0  0  0  0  0
  -19.5731  -26.6350   21.5201 C   0  0  0  0  0  0
  -18.1907  -26.7912   22.1597 C   0  0  0  0  0  0
  -19.1510  -28.8828   23.2876 C   0  0  0  0  0  0
  -18.9432  -30.1446   23.8866 C   0  0  0  0  0  0
  -17.6432  -30.6557   24.0563 C   0  0  0  0  0  0
  -25.9018  -34.9454   23.5121 C   0  0  0  0  0  0
  -16.5332  -29.9057   23.6343 C   0  0  0  0  0  0
  -16.7253  -28.6505   23.0319 C   0  0  0  0  0  0
  -26.4449  -31.6612   25.0746 C   0  0  0  0  0  0
  -25.3743  -31.3762   26.1526 C   0  0  0  0  0  0
  -27.0236  -30.3032   24.6156 C   0  0  0  0  0  0
  -27.6034  -32.4327   25.7501 C   0  0  0  0  0  0
  -27.5585  -37.1802   24.8432 C   0  0  0  0  0  0
  -21.4130  -29.2993   22.3763 N   0  0  0  0  0  0
  -26.4282  -37.3784   23.9397 N   0  0  0  0  0  0
  -24.6659  -31.0758   22.1033 N   0  0  0  0  0  0
  -23.4204  -28.8117   23.2996 O   0  0  0  0  0  0
  -28.4061  -26.7022   20.0642 O   0  0  0  0  0  0
  -26.5607  -34.8898   22.4692 O   0  0  0  0  0  0
  -23.5322  -32.1401   23.7531 O   0  0  0  0  0  0
  -29.2481  -20.1522   19.9097 C   0  0  0  0  0  0
  -29.8308  -19.1873   20.6513 C   0  0  0  0  0  0
  -30.3512  -22.3812   19.4331 C   0  0  0  0  0  0
  -27.8489  -22.2446   19.8434 C   0  0  0  0  0  0
  -30.2687  -23.9220   19.5407 C   0  0  0  0  0  0
  -27.8047  -23.7825   19.9369 C   0  0  0  0  0  0
  -29.2299  -21.6507   20.2049 C   0  0  1  0  0  0
  -28.8919  -24.4375   19.0558 C   0  0  1  0  0  0
  -30.2287  -26.3330   16.7858 C   0  0  0  0  0  0
  -30.5027  -17.4335   18.9570 C   0  0  0  0  0  0
  -29.9442  -26.7124   18.2476 C   0  0  0  0  0  0
  -30.3370  -16.7957   21.4296 C   0  0  0  0  0  0
  -29.7887  -17.7009   20.2941 C   0  0  1  0  0  0
  -28.7272  -25.9861   18.8595 C   0  0  2  0  0  0
  -29.9926  -15.3828   21.2396 N   0  0  0  0  0  0
  -31.4678  -12.4191   19.0907 H   0  0  0  0  0  0
  -30.3371  -11.2811   19.7752 H   0  0  0  0  0  0
  -29.7241  -11.7972   17.4027 H   0  0  0  0  0  0
  -29.6656  -13.5049   17.7625 H   0  0  0  0  0  0
  -27.8158  -11.3222   18.7896 H   0  0  0  0  0  0
  -27.3613  -12.6730   17.7822 H   0  0  0  0  0  0
  -27.7233  -14.2538   19.6026 H   0  0  0  0  0  0
  -28.6849  -11.8909   21.2829 H   0  0  0  0  0  0
  -28.4658  -13.4988   21.8927 H   0  0  0  0  0  0
  -25.2713   -9.5704   22.4755 H   0  0  0  0  0  0
  -23.9996   -7.4626   22.7456 H   0  0  0  0  0  0
  -21.0814   -8.8741   19.8973 H   0  0  0  0  0  0
  -22.3647  -10.9639   19.6147 H   0  0  0  0  0  0
  -21.1978   -7.6119   23.9682 H   0  0  0  0  0  0
  -21.1496   -6.0514   25.9068 H   0  0  0  0  0  0
  -22.0600   -2.7591   23.2849 H   0  0  0  0  0  0
  -22.4019  -11.9906   22.4802 H   0  0  0  0  0  0
  -21.1088  -13.1302   22.2567 H   0  0  0  0  0  0
  -24.6740  -15.8488   20.5163 H   0  0  0  0  0  0
  -26.2934  -15.6185   20.0899 H   0  0  0  0  0  0
  -26.7086  -32.5497   23.1154 H   0  0  0  0  0  0
  -25.0000  -33.9730   25.0441 H   0  0  0  0  0  0
  -22.6856  -31.3050   21.4168 H   0  0  0  0  0  0
  -23.3726  -35.9686   23.3243 H   0  0  0  0  0  0
  -24.3627  -36.9028   22.2082 H   0  0  0  0  0  0
  -23.7224  -37.6520   23.6701 H   0  0  0  0  0  0
  -26.0499  -31.5933   20.6046 H   0  0  0  0  0  0
  -26.8175  -30.8750   21.9947 H   0  0  0  0  0  0
  -28.0915  -29.0734   21.1963 H   0  0  0  0  0  0
  -26.0033  -25.9839   19.0102 H   0  0  0  0  0  0
  -23.9674  -27.3025   19.0395 H   0  0  0  0  0  0
  -23.7101  -30.5989   19.4027 H   0  0  0  0  0  0
  -22.7309  -29.2459   19.8745 H   0  0  0  0  0  0
  -25.1266  -36.1963   25.0830 H   0  0  0  0  0  0
  -20.9931  -28.3178   24.1457 H   0  0  0  0  0  0
  -20.5610  -26.2216   23.3610 H   0  0  0  0  0  0
  -21.6596  -26.7407   22.1254 H   0  0  0  0  0  0
  -19.6892  -25.6262   21.1211 H   0  0  0  0  0  0
  -19.6688  -27.3164   20.6730 H   0  0  0  0  0  0
  -17.4184  -26.6668   21.3980 H   0  0  0  0  0  0
  -18.0307  -26.0058   22.9006 H   0  0  0  0  0  0
  -19.7919  -30.7258   24.2206 H   0  0  0  0  0  0
  -17.5001  -31.6238   24.5173 H   0  0  0  0  0  0
  -15.5322  -30.2940   23.7710 H   0  0  0  0  0  0
  -15.8653  -28.0840   22.7002 H   0  0  0  0  0  0
  -24.5859  -30.7150   25.7918 H   0  0  0  0  0  0
  -24.9011  -32.2940   26.5028 H   0  0  0  0  0  0
  -25.8137  -30.8911   27.0254 H   0  0  0  0  0  0
  -26.2769  -29.6829   24.1192 H   0  0  0  0  0  0
  -27.3924  -29.7246   25.4635 H   0  0  0  0  0  0
  -27.8648  -30.4290   23.9342 H   0  0  0  0  0  0
  -27.2662  -33.3602   26.2141 H   0  0  0  0  0  0
  -28.3835  -32.6933   25.0341 H   0  0  0  0  0  0
  -28.0713  -31.8419   26.5384 H   0  0  0  0  0  0
  -28.2566  -38.0138   24.7511 H   0  0  0  0  0  0
  -28.1112  -36.2659   24.6182 H   0  0  0  0  0  0
  -27.2337  -37.1417   25.8850 H   0  0  0  0  0  0
  -20.9276  -29.8798   21.7069 H   0  0  0  0  0  0
  -26.0161  -38.2858   24.1402 H   0  0  0  0  0  0
  -28.7320  -19.8582   19.0071 H   0  0  0  0  0  0
  -30.3637  -19.4593   21.5513 H   0  0  0  0  0  0
  -31.3242  -22.0421   19.7930 H   0  0  0  0  0  0
  -30.3094  -22.0983   18.3796 H   0  0  0  0  0  0
  -27.5756  -21.9506   18.8279 H   0  0  0  0  0  0
  -27.0809  -21.8192   20.4888 H   0  0  0  0  0  0
  -31.0743  -24.3366   18.9354 H   0  0  0  0  0  0
  -30.4556  -24.2451   20.5662 H   0  0  0  0  0  0
  -27.9319  -24.0876   20.9779 H   0  0  0  0  0  0
  -26.8117  -24.1095   19.6403 H   0  0  0  0  0  0
  -29.4041  -21.7963   21.2738 H   0  0  0  0  0  0
  -28.7624  -24.0247   18.0549 H   0  0  0  0  0  0
  -31.1970  -26.7204   16.4678 H   0  0  0  0  0  0
  -29.4735  -26.7469   16.1164 H   0  0  0  0  0  0
  -30.2517  -25.2524   16.6422 H   0  0  0  0  0  0
  -30.2169  -18.1525   18.1896 H   0  0  0  0  0  0
  -30.2641  -16.4432   18.5698 H   0  0  0  0  0  0
  -31.5854  -17.4859   19.0749 H   0  0  0  0  0  0
  -29.7694  -27.7903   18.2843 H   0  0  0  0  0  0
  -30.8281  -26.5451   18.8626 H   0  0  0  0  0  0
  -29.9022  -17.0980   22.3814 H   0  0  0  0  0  0
  -31.4163  -16.9179   21.5400 H   0  0  0  0  0  0
  -28.7305  -17.4676   20.1585 H   0  0  0  0  0  0
  -27.9414  -26.1107   18.1143 H   0  0  0  0  0  0
  -29.0806  -15.0970   21.5655 H   0  0  0  0  0  0
  1 25  1  0  0  0
  1 30  2  0  0  0
  1 85  1  0  0  0
  2  3  1  0  0  0
  2 25  1  0  0  0
  2 86  1  0  0  0
  2 87  1  0  0  0
  3  4  1  0  0  0
  3 88  1  0  0  0
  3 89  1  0  0  0
  4  5  1  0  0  0
  4 90  1  0  0  0
  4 91  1  0  0  0
  5  6  1  0  0  0
  5 26  1  0  0  0
  5 92  1  0  0  0
  6 25  1  0  0  0
  6 93  1  0  0  0
  6 94  1  0  0  0
  7  8  2  0  0  0
  7 26  1  0  0  0
  7 29  1  0  0  0
  8  9  1  0  0  0
  8 22  1  0  0  0
  9 10  1  0  0  0
  9 27  2  0  0  0
 10 11  2  0  0  0
 10 15  1  0  0  0
 11 12  1  0  0  0
 11 95  1  0  0  0
 12 13  2  0  0  0
 12 96  1  0  0  0
 13 14  1  0  0  0
 13 31  1  0  0  0
 14 15  2  0  0  0
 14 97  1  0  0  0
 15 98  1  0  0  0
 16 17  2  0  0  0
 16 21  1  0  0  0
 16 31  1  0  0  0
 17 18  1  0  0  0
 17 99  1  0  0  0
 18 19  2  0  0  0
 18100  1  0  0  0
 19 20  1  0  0  0
 19 24  1  0  0  0
 20 21  2  0  0  0
 20101  1  0  0  0
 21 23  1  0  0  0
 22 28  1  0  0  0
 22 32  2  0  0  0
 26 27  1  0  0  0
 28102  1  0  0  0
 28103  1  0  0  0
 29104  1  0  0  0
 29105  1  0  0  0
 33 34  1  0  0  0
 33 66  1  0  0  0
 33 70  2  0  0  0
 34 36  1  0  0  0
 34 59  1  0  0  0
 34106  1  0  0  0
 35 44  2  0  0  0
 35 45  1  0  0  0
 35 68  1  0  0  0
 36 56  1  0  0  0
 36107  1  0  0  0
 37 39  1  0  0  0
 37 47  1  0  0  0
 37 66  1  0  0  0
 37108  1  0  0  0
 38 43  2  0  0  0
 38 46  1  0  0  0
 38 47  1  0  0  0
 39 64  1  0  0  0
 39 67  2  0  0  0
 40 52  1  0  0  0
 40 53  2  0  0  0
 40 58  1  0  0  0
 41109  1  0  0  0
 41110  1  0  0  0
 41111  1  0  0  0
 41 48  1  0  0  0
 42 43  1  0  0  0
 42 66  1  0  0  0
 42112  1  0  0  0
 42113  1  0  0  0
 43 44  1  0  0  0
 44114  1  0  0  0
 45 46  2  0  0  0
 45115  1  0  0  0
 46116  1  0  0  0
 47117  1  0  0  0
 47118  1  0  0  0
 48 56  1  0  0  0
 48 65  1  0  0  0
 48119  1  0  0  0
 49 50  1  0  0  0
 49 53  1  0  0  0
 49 64  1  0  0  0
 49120  1  0  0  0
 50 51  1  0  0  0
 50121  1  0  0  0
 50122  1  0  0  0
 51 52  1  0  0  0
 51123  1  0  0  0
 51124  1  0  0  0
 52125  1  0  0  0
 52126  1  0  0  0
 53 54  1  0  0  0
 54 55  2  0  0  0
 54127  1  0  0  0
 55 57  1  0  0  0
 55128  1  0  0  0
 56 69  2  0  0  0
 57 58  2  0  0  0
 57129  1  0  0  0
 58130  1  0  0  0
 59 60  1  0  0  0
 59 61  1  0  0  0
 59 62  1  0  0  0
 60131  1  0  0  0
 60132  1  0  0  0
 60133  1  0  0  0
 61134  1  0  0  0
 61135  1  0  0  0
 61136  1  0  0  0
 62137  1  0  0  0
 62138  1  0  0  0
 62139  1  0  0  0
 63 65  1  0  0  0
 63140  1  0  0  0
 63141  1  0  0  0
 63142  1  0  0  0
 64143  1  0  0  0
 65144  1  0  0  0
 68 84  1  0  0  0
 71 72  2  0  0  0
 71145  1  0  0  0
 71 77  1  0  0  0
 72 83  1  0  0  0
 72146  1  0  0  0
 73 75  1  0  0  0
 73 77  1  0  0  0
 73147  1  0  0  0
 73148  1  0  0  0
 74 76  1  0  0  0
 74 77  1  0  0  0
 74149  1  0  0  0
 74150  1  0  0  0
 75151  1  0  0  0
 75152  1  0  0  0
 75 78  1  0  0  0
 76 78  1  0  0  0
 76153  1  0  0  0
 76154  1  0  0  0
 77155  1  0  0  0
 78 84  1  0  0  0
 78156  1  0  0  0
 79 81  1  0  0  0
 79157  1  0  0  0
 79158  1  0  0  0
 79159  1  0  0  0
 80160  1  0  0  0
 80161  1  0  0  0
 80162  1  0  0  0
 80 83  1  0  0  0
 81163  1  0  0  0
 81164  1  0  0  0
 81 84  1  0  0  0
 82 83  1  0  0  0
 82 85  1  0  0  0
 82165  1  0  0  0
 82166  1  0  0  0
 83167  1  0  0  0
 84168  1  0  0  0
 85169  1  0  0  0
M  ISO  4   1 100  68 101  84 101  85 100
M  END
> <chiral flag>
0

> <version>
0

> <s_m_source_file>
/data/baiqing/PycharmProjects/Reinvent-master-3.2/result/LINK_invent/BTK/process_docking_weight1_custom_sum_contain_oxygen_bond_distance_aromatic_linkinvent_7_9_3/rearranged_h_0120.sdf

> <i_m_source_file_index>
28

> <r_mmod_Potential_Energy-OPLS-2005>
-38.4035682678223

> <r_mmod_Stretch_Energy-OPLS-2005>
37.0384407043457

> <r_mmod_Bend_Energy-OPLS-2005>
106.882438659668

> <r_mmod_Torsional_Energy-OPLS-2005>
241.75244140625

> <r_mmod_Improper_Torsional_Energy-OPLS-2005>
2.92743754386902

> <r_mmod_Van_der_Waal_Energy-OPLS-2005>
138.238311767578

> <r_mmod_Electrostatic_Energy-OPLS-2005>
-387.721984863281

> <r_mmod_Solvation_Energy-OPLS-2005>
-188.080490112305

> <b_mmod_Minimization_Converged-OPLS-2005>
0

> <r_mmod_RMS_Derivative-OPLS-2005>
4.02204275131226

$$$$
28
                    3D
 Structure written by MMmdl.
161169  0  0  1  0            999 V2000
  -30.6213  -14.6918   20.4551 C   0  0  0  0  0  0
  -30.4271  -12.4123   19.4755 C   0  0  0  0  0  0
  -29.5084  -12.5068   18.2363 C   0  0  0  0  0  0
  -28.0331  -12.3375   18.6471 C   0  0  0  0  0  0
  -27.6475  -13.2256   19.8598 C   0  0  2  0  0  0
  -28.6910  -13.1370   20.9982 C   0  0  0  0  0  0
  -25.2547  -13.8189   20.5710 C   0  0  0  0  0  0
  -24.1816  -13.0447   20.9204 C   0  0  0  0  0  0
  -24.6390  -11.6922   20.8741 C   0  0  0  0  0  0
  -23.9065  -10.4303   21.0398 C   0  0  0  0  0  0
  -24.3616   -9.4225   21.9178 C   0  0  0  0  0  0
  -23.6295   -8.2256   22.0754 C   0  0  0  0  0  0
  -22.4279   -8.0288   21.3540 C   0  0  0  0  0  0
  -21.9914   -9.0257   20.4640 C   0  0  0  0  0  0
  -22.7238  -10.2140   20.3046 C   0  0  0  0  0  0
  -21.6859   -6.0740   22.5274 C   0  0  0  0  0  0
  -21.4016   -6.5645   23.8202 C   0  0  0  0  0  0
  -21.3663   -5.6797   24.9167 C   0  0  0  0  0  0
  -21.6045   -4.3058   24.7220 C   0  0  0  0  0  0
  -21.8819   -3.8152   23.4338 C   0  0  0  0  0  0
  -21.9194   -4.6967   22.3397 C   0  0  0  0  0  0
  -22.7844  -13.5231   21.1880 C   0  0  0  0  0  0
  -22.1663   -4.2155   21.0973 F   0  0  0  0  0  0
  -21.5635   -3.4545   25.7733 F   0  0  0  0  0  0
  -30.0030  -13.4657   20.4246 N   0  0  0  0  0  0
  -26.2966  -12.9381   20.3311 N   0  0  0  0  0  0
  -25.9323  -11.6530   20.5759 N   0  0  0  0  0  0
  -22.0497  -12.8191   22.0415 N   0  0  0  0  0  0
  -25.4278  -15.1914   20.4147 N   0  0  0  0  0  0
  -31.7903  -14.8156   20.0817 O   0  0  0  0  0  0
  -21.6646   -6.8882   21.4229 O   0  0  0  0  0  0
  -22.3531  -14.5550   20.6755 O   0  0  0  0  0  0
  -24.6303  -31.8569   23.1989 C   0  0  0  0  0  0
  -25.9128  -32.4768   23.8337 C   0  0  1  0  0  0
  -27.2244  -27.2796   20.1144 C   0  0  0  0  0  0
  -25.5930  -33.8568   24.2269 N   0  0  0  0  0  0
  -23.4255  -30.4786   21.5425 C   0  0  2  0  0  0
  -24.8721  -28.9266   20.1106 C   0  0  0  0  0  0
  -22.7497  -29.4600   22.4923 C   0  0  0  0  0  0
  -18.0290  -28.1371   22.8499 C   0  0  0  0  0  0
  -24.1478  -36.7291   23.2644 C   0  0  0  0  0  0
  -25.9701  -30.7737   21.3764 C   0  0  0  0  0  0
  -26.0412  -29.3976   20.7177 C   0  0  0  0  0  0
  -27.2172  -28.5844   20.7099 C   0  0  0  0  0  0
  -26.0243  -26.8610   19.4980 C   0  0  0  0  0  0
  -24.8678  -27.6656   19.4940 C   0  0  0  0  0  0
  -23.6413  -29.8104   20.1592 C   0  0  0  0  0  0
  -25.4110  -36.3088   24.0328 C   0  0  1  0  0  0
  -20.5901  -28.3681   23.1278 C   0  0  2  0  0  0
  -20.6770  -26.9397   22.5412 C   0  0  0  0  0  0
  -19.5737  -26.6371   21.5219 C   0  0  0  0  0  0
  -18.1912  -26.7918   22.1629 C   0  0  0  0  0  0
  -19.1548  -28.8842   23.2877 C   0  0  0  0  0  0
  -18.9471  -30.1443   23.8890 C   0  0  0  0  0  0
  -17.6470  -30.6578   24.0557 C   0  0  0  0  0  0
  -25.9048  -34.9452   23.5101 C   0  0  0  0  0  0
  -16.5360  -29.9072   23.6339 C   0  0  0  0  0  0
  -16.7280  -28.6490   23.0364 C   0  0  0  0  0  0
  -26.4497  -31.6609   25.0733 C   0  0  0  0  0  0
  -25.3703  -31.3747   26.1441 C   0  0  0  0  0  0
  -27.0394  -30.3046   24.6219 C   0  0  0  0  0  0
  -27.6044  -32.4376   25.7514 C   0  0  0  0  0  0
  -27.5576  -37.1802   24.8468 C   0  0  0  0  0  0
  -21.4207  -29.3036   22.3677 N   0  0  0  0  0  0
  -26.4296  -37.3779   23.9400 N   0  0  0  0  0  0
  -24.6941  -31.0539   22.0961 N   0  0  0  0  0  0
  -23.4210  -28.8137   23.3004 O   0  0  0  0  0  0
  -28.3589  -26.4441   20.1726 O   0  0  0  0  0  0
  -26.5612  -34.8925   22.4666 O   0  0  0  0  0  0
  -23.5449  -32.1406   23.7284 O   0  0  0  0  0  0
  -26.9654  -20.6253   20.9408 C   0  0  0  0  0  0
  -30.2013  -21.9945   19.6187 C   0  0  0  0  0  0
  -30.3797  -20.4392   19.5633 C   0  0  0  0  0  0
  -28.4596  -20.9667   20.8271 C   0  0  2  0  0  0
  -28.7289  -22.2846   19.9737 C   0  0  1  0  0  0
  -26.4257  -20.3074   22.3305 C   0  0  0  0  0  0
  -28.4066  -23.7593   20.5726 C   0  0  0  0  0  0
  -30.0075  -17.2125   20.1131 C   0  0  0  0  0  0
  -29.3396  -18.4622   20.8855 C   0  0  0  0  0  0
  -28.4268  -25.0554   19.6178 C   0  0  0  0  0  0
  -29.8301  -15.8017   20.6654 N   0  0  0  0  0  0
  -29.1677  -19.8088   20.1484 N   0  3  2  0  0  0
  -26.2184  -20.5411   19.9634 O   0  0  0  0  0  0
  -31.4742  -12.5120   19.1840 H   0  0  0  0  0  0
  -30.3409  -11.4286   19.9404 H   0  0  0  0  0  0
  -29.7807  -11.7484   17.5014 H   0  0  0  0  0  0
  -29.6462  -13.4724   17.7464 H   0  0  0  0  0  0
  -27.8802  -11.2865   18.8955 H   0  0  0  0  0  0
  -27.3771  -12.5475   17.8017 H   0  0  0  0  0  0
  -27.6501  -14.2512   19.4910 H   0  0  0  0  0  0
  -28.7072  -12.1392   21.4387 H   0  0  0  0  0  0
  -28.4355  -13.8213   21.8092 H   0  0  0  0  0  0
  -25.2759   -9.5711   22.4756 H   0  0  0  0  0  0
  -24.0019   -7.4650   22.7475 H   0  0  0  0  0  0
  -21.0854   -8.8761   19.8937 H   0  0  0  0  0  0
  -22.3690  -10.9673   19.6160 H   0  0  0  0  0  0
  -21.2003   -7.6154   23.9705 H   0  0  0  0  0  0
  -21.1488   -6.0530   25.9067 H   0  0  0  0  0  0
  -22.0592   -2.7617   23.2834 H   0  0  0  0  0  0
  -22.4132  -11.9824   22.4734 H   0  0  0  0  0  0
  -21.1117  -13.1187   22.2659 H   0  0  0  0  0  0
  -24.6593  -15.8449   20.5183 H   0  0  0  0  0  0
  -26.2710  -15.6242   20.0624 H   0  0  0  0  0  0
  -26.7198  -32.5429   23.1082 H   0  0  0  0  0  0
  -25.0116  -33.9711   25.0442 H   0  0  0  0  0  0
  -22.7212  -31.2997   21.3945 H   0  0  0  0  0  0
  -23.3759  -35.9605   23.3309 H   0  0  0  0  0  0
  -24.3568  -36.8926   22.2064 H   0  0  0  0  0  0
  -23.7228  -37.6483   23.6676 H   0  0  0  0  0  0
  -26.1028  -31.5344   20.6055 H   0  0  0  0  0  0
  -26.8493  -30.8253   22.0072 H   0  0  0  0  0  0
  -28.1157  -28.9405   21.1950 H   0  0  0  0  0  0
  -25.9346  -25.8924   19.0349 H   0  0  0  0  0  0
  -23.9682  -27.2948   19.0231 H   0  0  0  0  0  0
  -23.7579  -30.5846   19.3999 H   0  0  0  0  0  0
  -22.7618  -29.2378   19.8607 H   0  0  0  0  0  0
  -25.1288  -36.1943   25.0823 H   0  0  0  0  0  0
  -20.9987  -28.3249   24.1403 H   0  0  0  0  0  0
  -20.5676  -26.2279   23.3611 H   0  0  0  0  0  0
  -21.6626  -26.7408   22.1191 H   0  0  0  0  0  0
  -19.6884  -25.6280   21.1245 H   0  0  0  0  0  0
  -19.6678  -27.3182   20.6747 H   0  0  0  0  0  0
  -17.4190  -26.6718   21.4008 H   0  0  0  0  0  0
  -18.0272  -26.0031   22.8994 H   0  0  0  0  0  0
  -19.7943  -30.7256   24.2259 H   0  0  0  0  0  0
  -17.5025  -31.6265   24.5139 H   0  0  0  0  0  0
  -15.5358  -30.2963   23.7665 H   0  0  0  0  0  0
  -15.8687  -28.0803   22.7085 H   0  0  0  0  0  0
  -24.5882  -30.7094   25.7761 H   0  0  0  0  0  0
  -24.8865  -32.2905   26.4849 H   0  0  0  0  0  0
  -25.7989  -30.8943   27.0242 H   0  0  0  0  0  0
  -26.3011  -29.6755   24.1230 H   0  0  0  0  0  0
  -27.4113  -29.7340   25.4742 H   0  0  0  0  0  0
  -27.8843  -30.4380   23.9458 H   0  0  0  0  0  0
  -27.2659  -33.3717   26.2011 H   0  0  0  0  0  0
  -28.3879  -32.6885   25.0349 H   0  0  0  0  0  0
  -28.0665  -31.8550   26.5493 H   0  0  0  0  0  0
  -28.2588  -38.0101   24.7522 H   0  0  0  0  0  0
  -28.1083  -36.2639   24.6297 H   0  0  0  0  0  0
  -27.2284  -37.1451   25.8865 H   0  0  0  0  0  0
  -20.9384  -29.8822   21.6944 H   0  0  0  0  0  0
  -26.0186  -38.2859   24.1386 H   0  0  0  0  0  0
  -30.5014  -22.4727   18.6855 H   0  0  0  0  0  0
  -30.8455  -22.3984   20.4005 H   0  0  0  0  0  0
  -31.2738  -20.1445   20.1151 H   0  0  0  0  0  0
  -30.5044  -20.0927   18.5368 H   0  0  0  0  0  0
  -28.8890  -21.0936   21.8222 H   0  0  0  0  0  0
  -28.1507  -22.1949   19.0515 H   0  0  0  0  0  0
  -27.1265  -20.6238   23.1028 H   0  0  0  0  0  0
  -26.2584  -19.2361   22.4355 H   0  0  0  0  0  0
  -25.4813  -20.8245   22.4969 H   0  0  0  0  0  0
  -29.0859  -23.9420   21.4047 H   0  0  0  0  0  0
  -27.4124  -23.7237   21.0192 H   0  0  0  0  0  0
  -31.0748  -17.4092   19.9966 H   0  0  0  0  0  0
  -29.6090  -17.1814   19.0980 H   0  0  0  0  0  0
  -29.9072  -18.6441   21.7991 H   0  0  0  0  0  0
  -28.3526  -18.1408   21.2169 H   0  0  0  0  0  0
  -27.7232  -24.9088   18.8022 H   0  0  0  0  0  0
  -29.3902  -25.0254   19.1085 H   0  0  0  0  0  0
  -28.9048  -15.5841   21.0050 H   0  0  0  0  0  0
  -28.5655  -19.6020   19.3638 H   0  0  0  0  0  0
  1 25  1  0  0  0
  1 30  2  0  0  0
  1 81  1  0  0  0
  2  3  1  0  0  0
  2 25  1  0  0  0
  2 84  1  0  0  0
  2 85  1  0  0  0
  3  4  1  0  0  0
  3 86  1  0  0  0
  3 87  1  0  0  0
  4  5  1  0  0  0
  4 88  1  0  0  0
  4 89  1  0  0  0
  5  6  1  0  0  0
  5 26  1  0  0  0
  5 90  1  0  0  0
  6 25  1  0  0  0
  6 91  1  0  0  0
  6 92  1  0  0  0
  7  8  2  0  0  0
  7 26  1  0  0  0
  7 29  1  0  0  0
  8  9  1  0  0  0
  8 22  1  0  0  0
  9 10  1  0  0  0
  9 27  2  0  0  0
 10 11  2  0  0  0
 10 15  1  0  0  0
 11 12  1  0  0  0
 11 93  1  0  0  0
 12 13  2  0  0  0
 12 94  1  0  0  0
 13 14  1  0  0  0
 13 31  1  0  0  0
 14 15  2  0  0  0
 14 95  1  0  0  0
 15 96  1  0  0  0
 16 17  2  0  0  0
 16 21  1  0  0  0
 16 31  1  0  0  0
 17 18  1  0  0  0
 17 97  1  0  0  0
 18 19  2  0  0  0
 18 98  1  0  0  0
 19 20  1  0  0  0
 19 24  1  0  0  0
 20 21  2  0  0  0
 20 99  1  0  0  0
 21 23  1  0  0  0
 22 28  1  0  0  0
 22 32  2  0  0  0
 26 27  1  0  0  0
 28100  1  0  0  0
 28101  1  0  0  0
 29102  1  0  0  0
 29103  1  0  0  0
 33 34  1  0  0  0
 33 66  1  0  0  0
 33 70  2  0  0  0
 34 36  1  0  0  0
 34 59  1  0  0  0
 34104  1  0  0  0
 35 44  2  0  0  0
 35 45  1  0  0  0
 35 68  1  0  0  0
 36 56  1  0  0  0
 36105  1  0  0  0
 37 39  1  0  0  0
 37 47  1  0  0  0
 37 66  1  0  0  0
 37106  1  0  0  0
 38 43  2  0  0  0
 38 46  1  0  0  0
 38 47  1  0  0  0
 39 64  1  0  0  0
 39 67  2  0  0  0
 40 52  1  0  0  0
 40 53  2  0  0  0
 40 58  1  0  0  0
 41107  1  0  0  0
 41108  1  0  0  0
 41109  1  0  0  0
 41 48  1  0  0  0
 42 43  1  0  0  0
 42 66  1  0  0  0
 42110  1  0  0  0
 42111  1  0  0  0
 43 44  1  0  0  0
 44112  1  0  0  0
 45 46  2  0  0  0
 45113  1  0  0  0
 46114  1  0  0  0
 47115  1  0  0  0
 47116  1  0  0  0
 48 56  1  0  0  0
 48 65  1  0  0  0
 48117  1  0  0  0
 49 50  1  0  0  0
 49 53  1  0  0  0
 49 64  1  0  0  0
 49118  1  0  0  0
 50 51  1  0  0  0
 50119  1  0  0  0
 50120  1  0  0  0
 51 52  1  0  0  0
 51121  1  0  0  0
 51122  1  0  0  0
 52123  1  0  0  0
 52124  1  0  0  0
 53 54  1  0  0  0
 54 55  2  0  0  0
 54125  1  0  0  0
 55 57  1  0  0  0
 55126  1  0  0  0
 56 69  2  0  0  0
 57 58  2  0  0  0
 57127  1  0  0  0
 58128  1  0  0  0
 59 60  1  0  0  0
 59 61  1  0  0  0
 59 62  1  0  0  0
 60129  1  0  0  0
 60130  1  0  0  0
 60131  1  0  0  0
 61132  1  0  0  0
 61133  1  0  0  0
 61134  1  0  0  0
 62135  1  0  0  0
 62136  1  0  0  0
 62137  1  0  0  0
 63 65  1  0  0  0
 63138  1  0  0  0
 63139  1  0  0  0
 63140  1  0  0  0
 64141  1  0  0  0
 65142  1  0  0  0
 68 80  1  0  0  0
 71 76  1  0  0  0
 71 83  2  0  0  0
 71 74  1  0  0  0
 72 73  1  0  0  0
 72 75  1  0  0  0
 72143  1  0  0  0
 72144  1  0  0  0
 73 82  1  0  0  0
 73145  1  0  0  0
 73146  1  0  0  0
 74 75  1  0  0  0
 74 82  1  0  0  0
 74147  1  0  0  0
 75 77  1  0  0  0
 75148  1  0  0  0
 76149  1  0  0  0
 76150  1  0  0  0
 76151  1  0  0  0
 77 80  1  0  0  0
 77152  1  0  0  0
 77153  1  0  0  0
 78 79  1  0  0  0
 78 81  1  0  0  0
 78154  1  0  0  0
 78155  1  0  0  0
 79156  1  0  0  0
 79157  1  0  0  0
 79 82  1  0  0  0
 80158  1  0  0  0
 80159  1  0  0  0
 81160  1  0  0  0
 82161  1  0  0  0
M  CHG  1  82   1
M  ISO  4   1 100  68 101  80 101  81 100
M  END
> <chiral flag>
0

> <version>
0

> <s_m_source_file>
/data/baiqing/PycharmProjects/Reinvent-master-3.2/result/LINK_invent/BTK/process_docking_weight1_custom_sum_contain_oxygen_bond_distance_aromatic_linkinvent_7_9_3/rearranged_h_0120.sdf

> <i_m_source_file_index>
29

> <r_mmod_Potential_Energy-OPLS-2005>
-30.2314853668213

> <r_mmod_Stretch_Energy-OPLS-2005>
107.146842956543

> <r_mmod_Bend_Energy-OPLS-2005>
194.897583007812

> <r_mmod_Torsional_Energy-OPLS-2005>
268.145233154297

> <r_mmod_Improper_Torsional_Energy-OPLS-2005>
7.13131952285767

> <r_mmod_Van_der_Waal_Energy-OPLS-2005>
111.717712402344

> <r_mmod_Electrostatic_Energy-OPLS-2005>
-301.884948730469

> <r_mmod_Solvation_Energy-OPLS-2005>
-483.09765625

> <b_mmod_Minimization_Converged-OPLS-2005>
0

> <r_mmod_RMS_Derivative-OPLS-2005>
1.81800961494446

$$$$
29
                    3D
 Structure written by MMmdl.
166174  0  0  1  0            999 V2000
  -30.6435  -14.7228   20.4379 C   0  0  0  0  0  0
  -30.4210  -12.4408   19.4689 C   0  0  0  0  0  0
  -29.5032  -12.4933   18.2302 C   0  0  0  0  0  0
  -28.0296  -12.3260   18.6470 C   0  0  0  0  0  0
  -27.6363  -13.2355   19.8425 C   0  0  2  0  0  0
  -28.6824  -13.1904   20.9761 C   0  0  0  0  0  0
  -25.2490  -13.8209   20.5699 C   0  0  0  0  0  0
  -24.1788  -13.0443   20.9215 C   0  0  0  0  0  0
  -24.6388  -11.6924   20.8755 C   0  0  0  0  0  0
  -23.9070  -10.4295   21.0411 C   0  0  0  0  0  0
  -24.3622   -9.4208   21.9187 C   0  0  0  0  0  0
  -23.6296   -8.2243   22.0754 C   0  0  0  0  0  0
  -22.4279   -8.0282   21.3545 C   0  0  0  0  0  0
  -21.9916   -9.0255   20.4647 C   0  0  0  0  0  0
  -22.7244  -10.2135   20.3058 C   0  0  0  0  0  0
  -21.6853   -6.0737   22.5278 C   0  0  0  0  0  0
  -21.4015   -6.5641   23.8211 C   0  0  0  0  0  0
  -21.3659   -5.6793   24.9174 C   0  0  0  0  0  0
  -21.6044   -4.3056   24.7225 C   0  0  0  0  0  0
  -21.8819   -3.8148   23.4346 C   0  0  0  0  0  0
  -21.9193   -4.6964   22.3402 C   0  0  0  0  0  0
  -22.7810  -13.5220   21.1874 C   0  0  0  0  0  0
  -22.1661   -4.2149   21.0980 F   0  0  0  0  0  0
  -21.5628   -3.4540   25.7738 F   0  0  0  0  0  0
  -29.9805  -13.5203   20.3807 N   0  0  0  0  0  0
  -26.2911  -12.9422   20.3263 N   0  0  0  0  0  0
  -25.9316  -11.6561   20.5752 N   0  0  0  0  0  0
  -22.0461  -12.8205   22.0431 N   0  0  0  0  0  0
  -25.4168  -15.1933   20.4118 N   0  0  0  0  0  0
  -31.8566  -14.7451   20.2233 O   0  0  0  0  0  0
  -21.6641   -6.8880   21.4240 O   0  0  0  0  0  0
  -22.3489  -14.5521   20.6720 O   0  0  0  0  0  0
  -24.6293  -31.8561   23.1981 C   0  0  0  0  0  0
  -25.9126  -32.4763   23.8328 C   0  0  1  0  0  0
  -27.2225  -27.2825   20.1381 C   0  0  0  0  0  0
  -25.5925  -33.8562   24.2256 N   0  0  0  0  0  0
  -23.4256  -30.4760   21.5416 C   0  0  2  0  0  0
  -24.8729  -28.9169   20.1178 C   0  0  0  0  0  0
  -22.7489  -29.4601   22.4928 C   0  0  0  0  0  0
  -18.0289  -28.1379   22.8484 C   0  0  0  0  0  0
  -24.1491  -36.7288   23.2641 C   0  0  0  0  0  0
  -25.9675  -30.7768   21.3721 C   0  0  0  0  0  0
  -26.0428  -29.3975   20.7210 C   0  0  0  0  0  0
  -27.2249  -28.5936   20.7148 C   0  0  0  0  0  0
  -26.0318  -26.8510   19.5225 C   0  0  0  0  0  0
  -24.8699  -27.6501   19.5087 C   0  0  0  0  0  0
  -23.6437  -29.8041   20.1596 C   0  0  0  0  0  0
  -25.4117  -36.3074   24.0325 C   0  0  1  0  0  0
  -20.5890  -28.3690   23.1276 C   0  0  2  0  0  0
  -20.6779  -26.9410   22.5410 C   0  0  0  0  0  0
  -19.5756  -26.6379   21.5211 C   0  0  0  0  0  0
  -18.1934  -26.7923   22.1619 C   0  0  0  0  0  0
  -19.1541  -28.8851   23.2877 C   0  0  0  0  0  0
  -18.9464  -30.1452   23.8894 C   0  0  0  0  0  0
  -17.6465  -30.6584   24.0556 C   0  0  0  0  0  0
  -25.9053  -34.9443   23.5096 C   0  0  0  0  0  0
  -16.5357  -29.9080   23.6325 C   0  0  0  0  0  0
  -16.7278  -28.6495   23.0350 C   0  0  0  0  0  0
  -26.4501  -31.6586   25.0711 C   0  0  0  0  0  0
  -25.3723  -31.3728   26.1431 C   0  0  0  0  0  0
  -27.0348  -30.3009   24.6180 C   0  0  0  0  0  0
  -27.6054  -32.4327   25.7486 C   0  0  0  0  0  0
  -27.5580  -37.1799   24.8464 C   0  0  0  0  0  0
  -21.4199  -29.3039   22.3670 N   0  0  0  0  0  0
  -26.4294  -37.3770   23.9406 N   0  0  0  0  0  0
  -24.6932  -31.0541   22.0945 N   0  0  0  0  0  0
  -23.4194  -28.8149   23.3031 O   0  0  0  0  0  0
  -28.3338  -26.4238   20.1097 O   0  0  0  0  0  0
  -26.5627  -34.8917   22.4666 O   0  0  0  0  0  0
  -23.5446  -32.1371   23.7292 O   0  0  0  0  0  0
  -28.0388  -20.2579   19.7510 C   0  0  0  0  0  0
  -28.3844  -18.8710   19.6366 C   0  0  0  0  0  0
  -28.9572  -20.9113   20.5296 C   0  0  0  0  0  0
  -29.5474  -18.6139   20.3143 C   0  0  0  0  0  0
  -28.2724  -22.4398   22.4119 C   0  0  0  0  0  0
  -31.1406  -17.3943   18.8550 C   0  0  0  0  0  0
  -32.3659  -20.0547   21.1112 C   0  0  0  0  0  0
  -30.9343  -19.2495   23.1068 C   0  0  0  0  0  0
  -28.4339  -23.6565   20.1348 C   0  0  0  0  0  0
  -28.2751  -25.1162   20.8281 C   0  0  0  0  0  0
  -28.9649  -22.4147   21.0383 C   0  0  2  0  0  0
  -30.4633  -17.3232   20.2427 C   0  0  2  0  0  0
  -31.0079  -20.1066   21.8307 C   0  0  0  0  0  0
  -29.8708  -19.8741   20.9249 N   0  0  0  0  0  0
  -29.9202  -15.9100   20.4758 N   0  0  0  0  0  0
  -31.4636  -12.5485   19.1646 H   0  0  0  0  0  0
  -30.3527  -11.4709   19.9640 H   0  0  0  0  0  0
  -29.7813  -11.7140   17.5194 H   0  0  0  0  0  0
  -29.6350  -13.4443   17.7114 H   0  0  0  0  0  0
  -27.8848  -11.2791   18.9174 H   0  0  0  0  0  0
  -27.3720  -12.5128   17.7972 H   0  0  0  0  0  0
  -27.6244  -14.2529   19.4507 H   0  0  0  0  0  0
  -28.7131  -12.2046   21.4423 H   0  0  0  0  0  0
  -28.4272  -13.8998   21.7651 H   0  0  0  0  0  0
  -25.2766   -9.5683   22.4764 H   0  0  0  0  0  0
  -24.0004   -7.4634   22.7474 H   0  0  0  0  0  0
  -21.0847   -8.8776   19.8953 H   0  0  0  0  0  0
  -22.3702  -10.9675   19.6169 H   0  0  0  0  0  0
  -21.2008   -7.6149   23.9714 H   0  0  0  0  0  0
  -21.1480   -6.0525   25.9076 H   0  0  0  0  0  0
  -22.0600   -2.7610   23.2847 H   0  0  0  0  0  0
  -22.4086  -11.9869   22.4816 H   0  0  0  0  0  0
  -21.1077  -13.1220   22.2640 H   0  0  0  0  0  0
  -24.6500  -15.8467   20.5290 H   0  0  0  0  0  0
  -26.2638  -15.6359   20.0800 H   0  0  0  0  0  0
  -26.7193  -32.5422   23.1071 H   0  0  0  0  0  0
  -25.0061  -33.9698   25.0396 H   0  0  0  0  0  0
  -22.7214  -31.2972   21.3929 H   0  0  0  0  0  0
  -23.3751  -35.9624   23.3305 H   0  0  0  0  0  0
  -24.3580  -36.8912   22.2057 H   0  0  0  0  0  0
  -23.7245  -37.6489   23.6667 H   0  0  0  0  0  0
  -26.0981  -31.5363   20.5998 H   0  0  0  0  0  0
  -26.8477  -30.8309   22.0010 H   0  0  0  0  0  0
  -28.1289  -28.9617   21.1797 H   0  0  0  0  0  0
  -26.0004  -25.8771   19.0543 H   0  0  0  0  0  0
  -23.9728  -27.2751   19.0350 H   0  0  0  0  0  0
  -23.7687  -30.5772   19.4005 H   0  0  0  0  0  0
  -22.7624  -29.2363   19.8570 H   0  0  0  0  0  0
  -25.1299  -36.1923   25.0817 H   0  0  0  0  0  0
  -20.9979  -28.3270   24.1396 H   0  0  0  0  0  0
  -20.5679  -26.2300   23.3613 H   0  0  0  0  0  0
  -21.6648  -26.7435   22.1203 H   0  0  0  0  0  0
  -19.6916  -25.6288   21.1244 H   0  0  0  0  0  0
  -19.6695  -27.3187   20.6740 H   0  0  0  0  0  0
  -17.4204  -26.6673   21.4022 H   0  0  0  0  0  0
  -18.0330  -26.0065   22.9014 H   0  0  0  0  0  0
  -19.7944  -30.7262   24.2267 H   0  0  0  0  0  0
  -17.5021  -31.6265   24.5157 H   0  0  0  0  0  0
  -15.5355  -30.2979   23.7653 H   0  0  0  0  0  0
  -15.8678  -28.0812   22.7066 H   0  0  0  0  0  0
  -24.5903  -30.7072   25.7759 H   0  0  0  0  0  0
  -24.8904  -32.2892   26.4849 H   0  0  0  0  0  0
  -25.8039  -30.8912   27.0215 H   0  0  0  0  0  0
  -26.2925  -29.6751   24.1210 H   0  0  0  0  0  0
  -27.4049  -29.7278   25.4693 H   0  0  0  0  0  0
  -27.8793  -30.4298   23.9403 H   0  0  0  0  0  0
  -27.2662  -33.3632   26.2054 H   0  0  0  0  0  0
  -28.3870  -32.6880   25.0315 H   0  0  0  0  0  0
  -28.0715  -31.8453   26.5411 H   0  0  0  0  0  0
  -28.2595  -38.0100   24.7506 H   0  0  0  0  0  0
  -28.1076  -36.2626   24.6294 H   0  0  0  0  0  0
  -27.2292  -37.1452   25.8866 H   0  0  0  0  0  0
  -20.9385  -29.8761   21.6874 H   0  0  0  0  0  0
  -26.0173  -38.2842   24.1409 H   0  0  0  0  0  0
  -27.1782  -20.7344   19.3013 H   0  0  0  0  0  0
  -27.8556  -18.1357   19.0453 H   0  0  0  0  0  0
  -28.6964  -21.6899   23.0801 H   0  0  0  0  0  0
  -27.2078  -22.2263   22.3161 H   0  0  0  0  0  0
  -28.3781  -23.3997   22.9152 H   0  0  0  0  0  0
  -31.5950  -18.3729   18.6970 H   0  0  0  0  0  0
  -30.4134  -17.2466   18.0563 H   0  0  0  0  0  0
  -31.9377  -16.6675   18.7147 H   0  0  0  0  0  0
  -33.1569  -20.4302   21.7607 H   0  0  0  0  0  0
  -32.3559  -20.6821   20.2194 H   0  0  0  0  0  0
  -32.6566  -19.0525   20.8076 H   0  0  0  0  0  0
  -31.7238  -19.5316   23.8038 H   0  0  0  0  0  0
  -31.0327  -18.1825   22.9281 H   0  0  0  0  0  0
  -29.9840  -19.4048   23.6182 H   0  0  0  0  0  0
  -29.1105  -23.7538   19.2858 H   0  0  0  0  0  0
  -27.4688  -23.3895   19.7047 H   0  0  0  0  0  0
  -29.0907  -25.1964   21.5470 H   0  0  0  0  0  0
  -27.3748  -25.0998   21.4440 H   0  0  0  0  0  0
  -30.0023  -22.6933   21.2125 H   0  0  0  0  0  0
  -31.2609  -17.4114   20.9725 H   0  0  0  0  0  0
  -30.9345  -21.1216   22.2085 H   0  0  0  0  0  0
  -28.9246  -15.8301   20.6113 H   0  0  0  0  0  0
  1 25  1  0  0  0
  1 30  2  0  0  0
  1 85  1  0  0  0
  2  3  1  0  0  0
  2 25  1  0  0  0
  2 86  1  0  0  0
  2 87  1  0  0  0
  3  4  1  0  0  0
  3 88  1  0  0  0
  3 89  1  0  0  0
  4  5  1  0  0  0
  4 90  1  0  0  0
  4 91  1  0  0  0
  5  6  1  0  0  0
  5 26  1  0  0  0
  5 92  1  0  0  0
  6 25  1  0  0  0
  6 93  1  0  0  0
  6 94  1  0  0  0
  7  8  2  0  0  0
  7 26  1  0  0  0
  7 29  1  0  0  0
  8  9  1  0  0  0
  8 22  1  0  0  0
  9 10  1  0  0  0
  9 27  2  0  0  0
 10 11  2  0  0  0
 10 15  1  0  0  0
 11 12  1  0  0  0
 11 95  1  0  0  0
 12 13  2  0  0  0
 12 96  1  0  0  0
 13 14  1  0  0  0
 13 31  1  0  0  0
 14 15  2  0  0  0
 14 97  1  0  0  0
 15 98  1  0  0  0
 16 17  2  0  0  0
 16 21  1  0  0  0
 16 31  1  0  0  0
 17 18  1  0  0  0
 17 99  1  0  0  0
 18 19  2  0  0  0
 18100  1  0  0  0
 19 20  1  0  0  0
 19 24  1  0  0  0
 20 21  2  0  0  0
 20101  1  0  0  0
 21 23  1  0  0  0
 22 28  1  0  0  0
 22 32  2  0  0  0
 26 27  1  0  0  0
 28102  1  0  0  0
 28103  1  0  0  0
 29104  1  0  0  0
 29105  1  0  0  0
 33 34  1  0  0  0
 33 66  1  0  0  0
 33 70  2  0  0  0
 34 36  1  0  0  0
 34 59  1  0  0  0
 34106  1  0  0  0
 35 44  2  0  0  0
 35 45  1  0  0  0
 35 68  1  0  0  0
 36 56  1  0  0  0
 36107  1  0  0  0
 37 39  1  0  0  0
 37 47  1  0  0  0
 37 66  1  0  0  0
 37108  1  0  0  0
 38 43  2  0  0  0
 38 46  1  0  0  0
 38 47  1  0  0  0
 39 64  1  0  0  0
 39 67  2  0  0  0
 40 52  1  0  0  0
 40 53  2  0  0  0
 40 58  1  0  0  0
 41109  1  0  0  0
 41110  1  0  0  0
 41111  1  0  0  0
 41 48  1  0  0  0
 42 43  1  0  0  0
 42 66  1  0  0  0
 42112  1  0  0  0
 42113  1  0  0  0
 43 44  1  0  0  0
 44114  1  0  0  0
 45 46  2  0  0  0
 45115  1  0  0  0
 46116  1  0  0  0
 47117  1  0  0  0
 47118  1  0  0  0
 48 56  1  0  0  0
 48 65  1  0  0  0
 48119  1  0  0  0
 49 50  1  0  0  0
 49 53  1  0  0  0
 49 64  1  0  0  0
 49120  1  0  0  0
 50 51  1  0  0  0
 50121  1  0  0  0
 50122  1  0  0  0
 51 52  1  0  0  0
 51123  1  0  0  0
 51124  1  0  0  0
 52125  1  0  0  0
 52126  1  0  0  0
 53 54  1  0  0  0
 54 55  2  0  0  0
 54127  1  0  0  0
 55 57  1  0  0  0
 55128  1  0  0  0
 56 69  2  0  0  0
 57 58  2  0  0  0
 57129  1  0  0  0
 58130  1  0  0  0
 59 60  1  0  0  0
 59 61  1  0  0  0
 59 62  1  0  0  0
 60131  1  0  0  0
 60132  1  0  0  0
 60133  1  0  0  0
 61134  1  0  0  0
 61135  1  0  0  0
 61136  1  0  0  0
 62137  1  0  0  0
 62138  1  0  0  0
 62139  1  0  0  0
 63 65  1  0  0  0
 63140  1  0  0  0
 63141  1  0  0  0
 63142  1  0  0  0
 64143  1  0  0  0
 65144  1  0  0  0
 68 80  1  0  0  0
 71 72  1  0  0  0
 71 73  2  0  0  0
 71145  1  0  0  0
 72 74  2  0  0  0
 72146  1  0  0  0
 73 81  1  0  0  0
 73 84  1  0  0  0
 74 82  1  0  0  0
 74 84  1  0  0  0
 75147  1  0  0  0
 75148  1  0  0  0
 75149  1  0  0  0
 75 81  1  0  0  0
 76150  1  0  0  0
 76151  1  0  0  0
 76152  1  0  0  0
 76 82  1  0  0  0
 77153  1  0  0  0
 77154  1  0  0  0
 77155  1  0  0  0
 77 83  1  0  0  0
 78 83  1  0  0  0
 78156  1  0  0  0
 78157  1  0  0  0
 78158  1  0  0  0
 79 80  1  0  0  0
 79 81  1  0  0  0
 79159  1  0  0  0
 79160  1  0  0  0
 80161  1  0  0  0
 80162  1  0  0  0
 81163  1  0  0  0
 82 85  1  0  0  0
 82164  1  0  0  0
 83 84  1  0  0  0
 83165  1  0  0  0
 85166  1  0  0  0
M  ISO  4   1 100  68 101  80 101  85 100
M  END
> <chiral flag>
0

> <version>
0

> <s_m_source_file>
/data/baiqing/PycharmProjects/Reinvent-master-3.2/result/LINK_invent/BTK/process_docking_weight1_custom_sum_contain_oxygen_bond_distance_aromatic_linkinvent_7_9_3/rearranged_h_0120.sdf

> <i_m_source_file_index>
30

> <r_mmod_Potential_Energy-OPLS-2005>
130.146377563477

> <r_mmod_Stretch_Energy-OPLS-2005>
121.18106842041

> <r_mmod_Bend_Energy-OPLS-2005>
181.356460571289

> <r_mmod_Torsional_Energy-OPLS-2005>
274.30517578125

> <r_mmod_Improper_Torsional_Energy-OPLS-2005>
7.15417861938477

> <r_mmod_Van_der_Waal_Energy-OPLS-2005>
115.558921813965

> <r_mmod_Electrostatic_Energy-OPLS-2005>
-452.653350830078

> <r_mmod_Solvation_Energy-OPLS-2005>
-193.527938842773

> <b_mmod_Minimization_Converged-OPLS-2005>
0

> <r_mmod_RMS_Derivative-OPLS-2005>
0.552242994308472

$$$$
30
                    3D
 Structure written by MMmdl.
179187  0  0  1  0            999 V2000
  -30.7966  -14.4142   20.6628 C   0  0  0  0  0  0
  -30.4107  -12.3086   19.4339 C   0  0  0  0  0  0
  -29.4950  -12.5194   18.2124 C   0  0  0  0  0  0
  -28.0149  -12.3767   18.6104 C   0  0  0  0  0  0
  -27.6611  -13.2104   19.8674 C   0  0  2  0  0  0
  -28.6925  -12.9717   20.9866 C   0  0  0  0  0  0
  -25.2598  -13.8178   20.5682 C   0  0  0  0  0  0
  -24.1849  -13.0469   20.9180 C   0  0  0  0  0  0
  -24.6398  -11.6921   20.8723 C   0  0  0  0  0  0
  -23.9063  -10.4318   21.0406 C   0  0  0  0  0  0
  -24.3621   -9.4231   21.9183 C   0  0  0  0  0  0
  -23.6303   -8.2256   22.0751 C   0  0  0  0  0  0
  -22.4275   -8.0295   21.3548 C   0  0  0  0  0  0
  -21.9912   -9.0268   20.4646 C   0  0  0  0  0  0
  -22.7236  -10.2149   20.3057 C   0  0  0  0  0  0
  -21.6859   -6.0742   22.5284 C   0  0  0  0  0  0
  -21.4019   -6.5646   23.8224 C   0  0  0  0  0  0
  -21.3658   -5.6792   24.9183 C   0  0  0  0  0  0
  -21.6043   -4.3057   24.7221 C   0  0  0  0  0  0
  -21.8820   -3.8150   23.4345 C   0  0  0  0  0  0
  -21.9202   -4.6973   22.3403 C   0  0  0  0  0  0
  -22.7859  -13.5256   21.1821 C   0  0  0  0  0  0
  -22.1664   -4.2170   21.0977 F   0  0  0  0  0  0
  -21.5624   -3.4527   25.7728 F   0  0  0  0  0  0
  -30.0353  -13.2922   20.4692 N   0  0  0  0  0  0
  -26.3020  -12.9358   20.3290 N   0  0  0  0  0  0
  -25.9324  -11.6516   20.5729 N   0  0  0  0  0  0
  -22.0492  -12.8275   22.0385 N   0  0  0  0  0  0
  -25.4361  -15.1902   20.4107 N   0  0  0  0  0  0
  -31.8744  -14.5463   20.0737 O   0  0  0  0  0  0
  -21.6646   -6.8880   21.4240 O   0  0  0  0  0  0
  -22.3546  -14.5573   20.6670 O   0  0  0  0  0  0
  -24.6121  -31.8747   23.2117 C   0  0  0  0  0  0
  -25.9053  -32.4843   23.8393 C   0  0  1  0  0  0
  -27.2339  -27.4687   20.0871 C   0  0  0  0  0  0
  -25.5918  -33.8635   24.2333 N   0  0  0  0  0  0
  -23.3964  -30.5025   21.5486 C   0  0  2  0  0  0
  -24.8416  -28.9722   20.1116 C   0  0  0  0  0  0
  -22.7385  -29.4735   22.4969 C   0  0  0  0  0  0
  -18.0299  -28.1390   22.8520 C   0  0  0  0  0  0
  -24.1493  -36.7319   23.2636 C   0  0  0  0  0  0
  -25.9228  -30.8550   21.3540 C   0  0  0  0  0  0
  -26.0017  -29.4922   20.6981 C   0  0  0  0  0  0
  -27.2031  -28.7518   20.6737 C   0  0  0  0  0  0
  -26.0525  -26.9581   19.5024 C   0  0  0  0  0  0
  -24.8598  -27.7026   19.5101 C   0  0  0  0  0  0
  -23.6037  -29.8366   20.1617 C   0  0  0  0  0  0
  -25.4109  -36.3116   24.0340 C   0  0  1  0  0  0
  -20.5889  -28.3678   23.1318 C   0  0  2  0  0  0
  -20.6777  -26.9415   22.5413 C   0  0  0  0  0  0
  -19.5744  -26.6403   21.5217 C   0  0  0  0  0  0
  -18.1927  -26.7947   22.1637 C   0  0  0  0  0  0
  -19.1547  -28.8846   23.2928 C   0  0  0  0  0  0
  -18.9458  -30.1454   23.8936 C   0  0  0  0  0  0
  -17.6460  -30.6587   24.0582 C   0  0  0  0  0  0
  -25.9021  -34.9481   23.5125 C   0  0  0  0  0  0
  -16.5352  -29.9094   23.6319 C   0  0  0  0  0  0
  -16.7281  -28.6518   23.0339 C   0  0  0  0  0  0
  -26.4489  -31.6617   25.0714 C   0  0  0  0  0  0
  -25.3760  -31.3700   26.1449 C   0  0  0  0  0  0
  -27.0286  -30.3065   24.6062 C   0  0  0  0  0  0
  -27.6080  -32.4314   25.7481 C   0  0  0  0  0  0
  -27.5581  -37.1813   24.8465 C   0  0  0  0  0  0
  -21.4124  -29.3065   22.3714 N   0  0  0  0  0  0
  -26.4298  -37.3794   23.9397 N   0  0  0  0  0  0
  -24.6619  -31.0910   22.0970 N   0  0  0  0  0  0
  -23.4176  -28.8269   23.2981 O   0  0  0  0  0  0
  -28.4125  -26.7541   20.0926 O   0  0  0  0  0  0
  -26.5565  -34.8942   22.4674 O   0  0  0  0  0  0
  -23.5330  -32.1471   23.7543 O   0  0  0  0  0  0
  -29.7424  -15.3795   22.7218 C   0  0  0  0  0  0
  -30.3543  -16.3926   23.7174 C   0  0  0  0  0  0
  -32.0238  -17.1203   22.0186 C   0  0  0  0  0  0
  -30.8311  -16.8355   21.0592 C   0  0  1  0  0  0
  -30.7186  -20.6974   23.0793 C   0  0  0  0  0  0
  -30.1207  -18.8406   18.7883 C   0  0  0  0  0  0
  -26.9373  -22.7062   17.8838 C   0  0  0  0  0  0
  -30.3488  -21.2878   21.7100 C   0  0  0  0  0  0
  -28.2897  -24.4677   19.1565 C   0  0  0  0  0  0
  -28.8209  -21.2569   19.6988 C   0  0  0  0  0  0
  -28.3064  -25.3635   20.4117 C   0  0  0  0  0  0
  -29.4526  -20.3842   20.8223 C   0  0  1  0  0  0
  -30.2637  -19.1396   20.3027 C   0  0  1  0  0  0
  -27.3237  -23.2608   19.2695 C   0  0  1  0  0  0
  -30.2875  -15.4816   21.3500 N   0  0  0  0  0  0
  -29.8671  -17.9509   21.0776 N   0  0  0  0  0  0
  -31.7715  -16.6698   23.4066 N   0  3  0  0  0  0
  -27.8070  -22.2118   20.2107 N   0  3  0  0  0  0
  -31.4563  -12.3819   19.1298 H   0  0  0  0  0  0
  -30.2991  -11.2971   19.8267 H   0  0  0  0  0  0
  -29.7406  -11.7988   17.4320 H   0  0  0  0  0  0
  -29.6699  -13.5083   17.7848 H   0  0  0  0  0  0
  -27.8252  -11.3206   18.8031 H   0  0  0  0  0  0
  -27.3686  -12.6557   17.7767 H   0  0  0  0  0  0
  -27.7124  -14.2623   19.5838 H   0  0  0  0  0  0
  -28.6715  -11.9268   21.3008 H   0  0  0  0  0  0
  -28.3875  -13.5215   21.8654 H   0  0  0  0  0  0
  -25.2775   -9.5707   22.4745 H   0  0  0  0  0  0
  -24.0031   -7.4641   22.7463 H   0  0  0  0  0  0
  -21.0844   -8.8782   19.8945 H   0  0  0  0  0  0
  -22.3709  -10.9680   19.6151 H   0  0  0  0  0  0
  -21.2014   -7.6154   23.9739 H   0  0  0  0  0  0
  -21.1467   -6.0512   25.9090 H   0  0  0  0  0  0
  -22.0599   -2.7610   23.2835 H   0  0  0  0  0  0
  -22.4098  -11.9953   22.4818 H   0  0  0  0  0  0
  -21.1099  -13.1294   22.2554 H   0  0  0  0  0  0
  -24.6759  -15.8508   20.5243 H   0  0  0  0  0  0
  -26.2979  -15.6220   20.0994 H   0  0  0  0  0  0
  -26.7127  -32.5588   23.1152 H   0  0  0  0  0  0
  -25.0107  -33.9784   25.0508 H   0  0  0  0  0  0
  -22.6836  -31.3187   21.4076 H   0  0  0  0  0  0
  -23.3736  -35.9673   23.3316 H   0  0  0  0  0  0
  -24.3601  -36.8900   22.2047 H   0  0  0  0  0  0
  -23.7254  -37.6539   23.6628 H   0  0  0  0  0  0
  -26.0289  -31.6279   20.5920 H   0  0  0  0  0  0
  -26.8139  -30.9108   21.9664 H   0  0  0  0  0  0
  -28.1008  -29.1615   21.1125 H   0  0  0  0  0  0
  -26.0392  -25.9923   19.0276 H   0  0  0  0  0  0
  -23.9701  -27.2943   19.0478 H   0  0  0  0  0  0
  -23.7110  -30.6121   19.4030 H   0  0  0  0  0  0
  -22.7291  -29.2557   19.8620 H   0  0  0  0  0  0
  -25.1290  -36.1977   25.0833 H   0  0  0  0  0  0
  -21.0014  -28.3231   24.1424 H   0  0  0  0  0  0
  -20.5671  -26.2284   23.3595 H   0  0  0  0  0  0
  -21.6644  -26.7448   22.1199 H   0  0  0  0  0  0
  -19.6884  -25.6317   21.1233 H   0  0  0  0  0  0
  -19.6663  -27.3224   20.6750 H   0  0  0  0  0  0
  -17.4195  -26.6725   21.4036 H   0  0  0  0  0  0
  -18.0313  -26.0090   22.9029 H   0  0  0  0  0  0
  -19.7927  -30.7287   24.2287 H   0  0  0  0  0  0
  -17.5000  -31.6265   24.5180 H   0  0  0  0  0  0
  -15.5344  -30.2984   23.7619 H   0  0  0  0  0  0
  -15.8702  -28.0833   22.6990 H   0  0  0  0  0  0
  -24.5954  -30.7036   25.7757 H   0  0  0  0  0  0
  -24.8930  -32.2840   26.4919 H   0  0  0  0  0  0
  -25.8138  -30.8848   27.0176 H   0  0  0  0  0  0
  -26.2798  -29.6844   24.1150 H   0  0  0  0  0  0
  -27.4068  -29.7298   25.4504 H   0  0  0  0  0  0
  -27.8639  -30.4356   23.9178 H   0  0  0  0  0  0
  -27.2718  -33.3582   26.2135 H   0  0  0  0  0  0
  -28.3881  -32.6915   25.0317 H   0  0  0  0  0  0
  -28.0767  -31.8385   26.5335 H   0  0  0  0  0  0
  -28.2607  -38.0101   24.7506 H   0  0  0  0  0  0
  -28.1063  -36.2631   24.6298 H   0  0  0  0  0  0
  -27.2308  -37.1489   25.8872 H   0  0  0  0  0  0
  -20.9242  -29.8767   21.6957 H   0  0  0  0  0  0
  -26.0186  -38.2879   24.1370 H   0  0  0  0  0  0
  -28.6602  -15.5130   22.7023 H   0  0  0  0  0  0
  -29.9440  -14.3844   23.1244 H   0  0  0  0  0  0
  -30.2685  -16.0172   24.7378 H   0  0  0  0  0  0
  -29.7956  -17.3298   23.6965 H   0  0  0  0  0  0
  -32.3227  -18.1654   22.0140 H   0  0  0  0  0  0
  -32.9078  -16.5840   21.6726 H   0  0  0  0  0  0
  -31.2498  -16.8290   20.0554 H   0  0  0  0  0  0
  -29.8338  -20.5120   23.6862 H   0  0  0  0  0  0
  -31.3646  -21.3821   23.6312 H   0  0  0  0  0  0
  -31.2531  -19.7580   22.9884 H   0  0  0  0  0  0
  -29.1197  -18.4947   18.5242 H   0  0  0  0  0  0
  -30.8234  -18.0856   18.4362 H   0  0  0  0  0  0
  -30.3436  -19.7189   18.1825 H   0  0  0  0  0  0
  -26.4357  -23.4725   17.2913 H   0  0  0  0  0  0
  -26.2405  -21.8736   17.9669 H   0  0  0  0  0  0
  -27.8084  -22.3770   17.3158 H   0  0  0  0  0  0
  -31.2599  -21.5471   21.1671 H   0  0  0  0  0  0
  -29.8525  -22.2386   21.9030 H   0  0  0  0  0  0
  -29.2999  -24.1468   18.8983 H   0  0  0  0  0  0
  -27.9733  -25.0805   18.3125 H   0  0  0  0  0  0
  -28.3021  -20.6224   18.9810 H   0  0  0  0  0  0
  -29.6108  -21.7855   19.1637 H   0  0  0  0  0  0
  -27.4325  -25.1819   21.0432 H   0  0  0  0  0  0
  -29.1606  -25.0909   21.0318 H   0  0  0  0  0  0
  -28.6203  -20.0281   21.4329 H   0  0  0  0  0  0
  -31.3216  -19.3460   20.4774 H   0  0  0  0  0  0
  -26.3952  -23.6341   19.7051 H   0  0  0  0  0  0
  -28.9805  -17.6206   20.7099 H   0  0  0  0  0  0
  -32.2964  -15.8247   23.5581 H   0  0  0  0  0  0
  -32.1284  -17.3568   24.0506 H   0  0  0  0  0  0
  -28.1631  -22.6562   21.0411 H   0  0  0  0  0  0
  -27.0092  -21.6648   20.5001 H   0  0  0  0  0  0
  1 25  1  0  0  0
  1 30  2  0  0  0
  1 85  1  0  0  0
  2  3  1  0  0  0
  2 25  1  0  0  0
  2 89  1  0  0  0
  2 90  1  0  0  0
  3  4  1  0  0  0
  3 91  1  0  0  0
  3 92  1  0  0  0
  4  5  1  0  0  0
  4 93  1  0  0  0
  4 94  1  0  0  0
  5  6  1  0  0  0
  5 26  1  0  0  0
  5 95  1  0  0  0
  6 25  1  0  0  0
  6 96  1  0  0  0
  6 97  1  0  0  0
  7  8  2  0  0  0
  7 26  1  0  0  0
  7 29  1  0  0  0
  8  9  1  0  0  0
  8 22  1  0  0  0
  9 10  1  0  0  0
  9 27  2  0  0  0
 10 11  2  0  0  0
 10 15  1  0  0  0
 11 12  1  0  0  0
 11 98  1  0  0  0
 12 13  2  0  0  0
 12 99  1  0  0  0
 13 14  1  0  0  0
 13 31  1  0  0  0
 14 15  2  0  0  0
 14100  1  0  0  0
 15101  1  0  0  0
 16 17  2  0  0  0
 16 21  1  0  0  0
 16 31  1  0  0  0
 17 18  1  0  0  0
 17102  1  0  0  0
 18 19  2  0  0  0
 18103  1  0  0  0
 19 20  1  0  0  0
 19 24  1  0  0  0
 20 21  2  0  0  0
 20104  1  0  0  0
 21 23  1  0  0  0
 22 28  1  0  0  0
 22 32  2  0  0  0
 26 27  1  0  0  0
 28105  1  0  0  0
 28106  1  0  0  0
 29107  1  0  0  0
 29108  1  0  0  0
 33 34  1  0  0  0
 33 66  1  0  0  0
 33 70  2  0  0  0
 34 36  1  0  0  0
 34 59  1  0  0  0
 34109  1  0  0  0
 35 44  2  0  0  0
 35 45  1  0  0  0
 35 68  1  0  0  0
 36 56  1  0  0  0
 36110  1  0  0  0
 37 39  1  0  0  0
 37 47  1  0  0  0
 37 66  1  0  0  0
 37111  1  0  0  0
 38 43  2  0  0  0
 38 46  1  0  0  0
 38 47  1  0  0  0
 39 64  1  0  0  0
 39 67  2  0  0  0
 40 52  1  0  0  0
 40 53  2  0  0  0
 40 58  1  0  0  0
 41112  1  0  0  0
 41113  1  0  0  0
 41114  1  0  0  0
 41 48  1  0  0  0
 42 43  1  0  0  0
 42 66  1  0  0  0
 42115  1  0  0  0
 42116  1  0  0  0
 43 44  1  0  0  0
 44117  1  0  0  0
 45 46  2  0  0  0
 45118  1  0  0  0
 46119  1  0  0  0
 47120  1  0  0  0
 47121  1  0  0  0
 48 56  1  0  0  0
 48 65  1  0  0  0
 48122  1  0  0  0
 49 50  1  0  0  0
 49 53  1  0  0  0
 49 64  1  0  0  0
 49123  1  0  0  0
 50 51  1  0  0  0
 50124  1  0  0  0
 50125  1  0  0  0
 51 52  1  0  0  0
 51126  1  0  0  0
 51127  1  0  0  0
 52128  1  0  0  0
 52129  1  0  0  0
 53 54  1  0  0  0
 54 55  2  0  0  0
 54130  1  0  0  0
 55 57  1  0  0  0
 55131  1  0  0  0
 56 69  2  0  0  0
 57 58  2  0  0  0
 57132  1  0  0  0
 58133  1  0  0  0
 59 60  1  0  0  0
 59 61  1  0  0  0
 59 62  1  0  0  0
 60134  1  0  0  0
 60135  1  0  0  0
 60136  1  0  0  0
 61137  1  0  0  0
 61138  1  0  0  0
 61139  1  0  0  0
 62140  1  0  0  0
 62141  1  0  0  0
 62142  1  0  0  0
 63 65  1  0  0  0
 63143  1  0  0  0
 63144  1  0  0  0
 63145  1  0  0  0
 64146  1  0  0  0
 65147  1  0  0  0
 68 81  1  0  0  0
 71 72  1  0  0  0
 71 85  1  0  0  0
 71148  1  0  0  0
 71149  1  0  0  0
 72 87  1  0  0  0
 72150  1  0  0  0
 72151  1  0  0  0
 73 74  1  0  0  0
 73 87  1  0  0  0
 73152  1  0  0  0
 73153  1  0  0  0
 74 85  1  0  0  0
 74 86  1  0  0  0
 74154  1  0  0  0
 75 78  1  0  0  0
 75155  1  0  0  0
 75156  1  0  0  0
 75157  1  0  0  0
 76158  1  0  0  0
 76159  1  0  0  0
 76160  1  0  0  0
 76 83  1  0  0  0
 77161  1  0  0  0
 77162  1  0  0  0
 77163  1  0  0  0
 77 84  1  0  0  0
 78164  1  0  0  0
 78165  1  0  0  0
 78 82  1  0  0  0
 79 81  1  0  0  0
 79 84  1  0  0  0
 79166  1  0  0  0
 79167  1  0  0  0
 80 82  1  0  0  0
 80 88  1  0  0  0
 80168  1  0  0  0
 80169  1  0  0  0
 81170  1  0  0  0
 81171  1  0  0  0
 82 83  1  0  0  0
 82172  1  0  0  0
 83 86  1  0  0  0
 83173  1  0  0  0
 84 88  1  0  0  0
 84174  1  0  0  0
 86175  1  0  0  0
 87176  1  0  0  0
 87177  1  0  0  0
 88178  1  0  0  0
 88179  1  0  0  0
M  CHG  2  87   1  88   1
M  ISO  4   1 100  68 101  81 101  85 100
M  END
> <chiral flag>
0

> <version>
0

> <s_m_source_file>
/data/baiqing/PycharmProjects/Reinvent-master-3.2/result/LINK_invent/BTK/process_docking_weight1_custom_sum_contain_oxygen_bond_distance_aromatic_linkinvent_7_9_3/rearranged_h_0120.sdf

> <i_m_source_file_index>
31

> <r_mmod_Potential_Energy-OPLS-2005>
-44.3184471130371

> <r_mmod_Stretch_Energy-OPLS-2005>
46.7115097045898

> <r_mmod_Bend_Energy-OPLS-2005>
125.148704528809

> <r_mmod_Torsional_Energy-OPLS-2005>
417.141998291016

> <r_mmod_Improper_Torsional_Energy-OPLS-2005>
6.02426338195801

> <r_mmod_Van_der_Waal_Energy-OPLS-2005>
173.074127197266

> <r_mmod_Electrostatic_Energy-OPLS-2005>
41.5698471069336

> <r_mmod_Solvation_Energy-OPLS-2005>
-865.594848632812

> <b_mmod_Minimization_Converged-OPLS-2005>
0

> <r_mmod_RMS_Derivative-OPLS-2005>
3.36427998542786

$$$$
31
                    3D
 Structure written by MMmdl.
172180  0  0  1  0            999 V2000
  -30.7856  -14.5068   20.5038 C   0  0  0  0  0  0
  -30.3998  -12.3289   19.4232 C   0  0  0  0  0  0
  -29.4750  -12.4742   18.2010 C   0  0  0  0  0  0
  -28.0044  -12.3135   18.6284 C   0  0  0  0  0  0
  -27.6445  -13.1835   19.8605 C   0  0  2  0  0  0
  -28.7094  -13.0420   20.9806 C   0  0  0  0  0  0
  -25.2575  -13.8080   20.5722 C   0  0  0  0  0  0
  -24.1807  -13.0388   20.9200 C   0  0  0  0  0  0
  -24.6346  -11.6853   20.8784 C   0  0  0  0  0  0
  -23.9007  -10.4257   21.0444 C   0  0  0  0  0  0
  -24.3571   -9.4179   21.9216 C   0  0  0  0  0  0
  -23.6257   -8.2215   22.0767 C   0  0  0  0  0  0
  -22.4247   -8.0261   21.3546 C   0  0  0  0  0  0
  -21.9871   -9.0238   20.4661 C   0  0  0  0  0  0
  -22.7185  -10.2122   20.3082 C   0  0  0  0  0  0
  -21.6831   -6.0721   22.5282 C   0  0  0  0  0  0
  -21.4009   -6.5635   23.8214 C   0  0  0  0  0  0
  -21.3653   -5.6796   24.9182 C   0  0  0  0  0  0
  -21.6039   -4.3052   24.7240 C   0  0  0  0  0  0
  -21.8816   -3.8134   23.4363 C   0  0  0  0  0  0
  -21.9194   -4.6950   22.3416 C   0  0  0  0  0  0
  -22.7841  -13.5228   21.1821 C   0  0  0  0  0  0
  -22.1662   -4.2126   21.0995 F   0  0  0  0  0  0
  -21.5636   -3.4549   25.7761 F   0  0  0  0  0  0
  -30.0078  -13.3834   20.3841 N   0  0  0  0  0  0
  -26.2956  -12.9192   20.3384 N   0  0  0  0  0  0
  -25.9257  -11.6377   20.5821 N   0  0  0  0  0  0
  -22.0457  -12.8261   22.0403 N   0  0  0  0  0  0
  -25.4305  -15.1797   20.4123 N   0  0  0  0  0  0
  -31.9780  -14.4260   20.1994 O   0  0  0  0  0  0
  -21.6615   -6.8857   21.4239 O   0  0  0  0  0  0
  -22.3569  -14.5540   20.6648 O   0  0  0  0  0  0
  -24.6133  -31.8692   23.2103 C   0  0  0  0  0  0
  -25.9029  -32.4827   23.8404 C   0  0  1  0  0  0
  -27.2363  -27.4439   20.0835 C   0  0  0  0  0  0
  -25.5889  -33.8623   24.2336 N   0  0  0  0  0  0
  -23.4011  -30.4942   21.5506 C   0  0  2  0  0  0
  -24.8453  -28.9599   20.1176 C   0  0  0  0  0  0
  -22.7414  -29.4670   22.4979 C   0  0  0  0  0  0
  -18.0287  -28.1349   22.8537 C   0  0  0  0  0  0
  -24.1490  -36.7324   23.2638 C   0  0  0  0  0  0
  -25.9299  -30.8362   21.3636 C   0  0  0  0  0  0
  -26.0040  -29.4711   20.7112 C   0  0  0  0  0  0
  -27.1977  -28.7178   20.6943 C   0  0  0  0  0  0
  -26.0522  -26.9415   19.4935 C   0  0  0  0  0  0
  -24.8626  -27.6927   19.5114 C   0  0  0  0  0  0
  -23.6096  -29.8281   20.1648 C   0  0  0  0  0  0
  -25.4108  -36.3119   24.0342 C   0  0  1  0  0  0
  -20.5882  -28.3649   23.1303 C   0  0  2  0  0  0
  -20.6809  -26.9427   22.5318 C   0  0  0  0  0  0
  -19.5719  -26.6434   21.5176 C   0  0  0  0  0  0
  -18.1969  -26.7868   22.1757 C   0  0  0  0  0  0
  -19.1540  -28.8815   23.2914 C   0  0  0  0  0  0
  -18.9472  -30.1427   23.8924 C   0  0  0  0  0  0
  -17.6475  -30.6576   24.0555 C   0  0  0  0  0  0
  -25.9028  -34.9481   23.5141 C   0  0  0  0  0  0
  -16.5366  -29.9075   23.6307 C   0  0  0  0  0  0
  -16.7271  -28.6470   23.0380 C   0  0  0  0  0  0
  -26.4462  -31.6596   25.0727 C   0  0  0  0  0  0
  -25.3728  -31.3693   26.1477 C   0  0  0  0  0  0
  -27.0278  -30.3039   24.6085 C   0  0  0  0  0  0
  -27.6051  -32.4294   25.7487 C   0  0  0  0  0  0
  -27.5589  -37.1820   24.8466 C   0  0  0  0  0  0
  -21.4144  -29.3038   22.3718 N   0  0  0  0  0  0
  -26.4301  -37.3796   23.9405 N   0  0  0  0  0  0
  -24.6665  -31.0808   22.0996 N   0  0  0  0  0  0
  -23.4196  -28.8229   23.3026 O   0  0  0  0  0  0
  -28.4386  -26.7636   20.0851 O   0  0  0  0  0  0
  -26.5592  -34.8916   22.4700 O   0  0  0  0  0  0
  -23.5322  -32.1438   23.7498 O   0  0  0  0  0  0
  -28.5405  -17.6124   21.1507 C   0  0  0  0  0  0
  -28.8469  -16.1842   20.6617 C   0  0  0  0  0  0
  -31.2176  -16.8848   20.3739 C   0  0  0  0  0  0
  -30.8591  -18.3316   20.7948 C   0  0  2  0  0  0
  -29.3986  -18.6737   20.4455 C   0  0  2  0  0  0
  -33.2065  -19.2570   21.1826 C   0  0  0  0  0  0
  -27.9942  -24.3793   20.5611 C   0  0  0  0  0  0
  -27.6160  -21.9582   21.0023 C   0  0  0  0  0  0
  -32.3447  -19.3410   18.8251 C   0  0  0  0  0  0
  -28.5290  -25.4325   19.5619 C   0  0  0  0  0  0
  -27.8128  -20.5056   20.5162 C   0  0  0  0  0  0
  -31.9299  -19.3749   20.3242 C   0  0  1  0  0  0
  -30.2668  -15.7764   20.6874 N   0  0  0  0  0  0
  -31.2686  -19.6857   17.8802 N   0  3  0  0  0  0
  -28.2695  -22.9776   20.1412 N   0  3  0  0  0  0
  -29.1018  -20.0044   20.8903 O   0  0  0  0  0  0
  -31.4404  -12.3856   19.1004 H   0  0  0  0  0  0
  -30.2961  -11.3376   19.8672 H   0  0  0  0  0  0
  -29.7279  -11.7282   17.4458 H   0  0  0  0  0  0
  -29.6220  -13.4492   17.7340 H   0  0  0  0  0  0
  -27.8396  -11.2592   18.8578 H   0  0  0  0  0  0
  -27.3401  -12.5476   17.7958 H   0  0  0  0  0  0
  -27.6409  -14.1964   19.4788 H   0  0  0  0  0  0
  -28.7284  -12.0107   21.3359 H   0  0  0  0  0  0
  -28.4944  -13.6214   21.8761 H   0  0  0  0  0  0
  -25.2728   -9.5664   22.4765 H   0  0  0  0  0  0
  -23.9969   -7.4610   22.7485 H   0  0  0  0  0  0
  -21.0797   -8.8760   19.8967 H   0  0  0  0  0  0
  -22.3652  -10.9671   19.6186 H   0  0  0  0  0  0
  -21.1989   -7.6143   23.9709 H   0  0  0  0  0  0
  -21.1477   -6.0534   25.9085 H   0  0  0  0  0  0
  -22.0595   -2.7594   23.2877 H   0  0  0  0  0  0
  -22.4034  -11.9917   22.4803 H   0  0  0  0  0  0
  -21.1075  -13.1305   22.2576 H   0  0  0  0  0  0
  -24.6648  -15.8342   20.5322 H   0  0  0  0  0  0
  -26.2860  -15.6211   20.1030 H   0  0  0  0  0  0
  -26.7112  -32.5537   23.1178 H   0  0  0  0  0  0
  -25.0059  -33.9797   25.0497 H   0  0  0  0  0  0
  -22.6899  -31.3118   21.4123 H   0  0  0  0  0  0
  -23.3748  -35.9662   23.3314 H   0  0  0  0  0  0
  -24.3594  -36.8922   22.2051 H   0  0  0  0  0  0
  -23.7248  -37.6539   23.6636 H   0  0  0  0  0  0
  -26.0426  -31.6039   20.5970 H   0  0  0  0  0  0
  -26.8176  -30.8884   21.9818 H   0  0  0  0  0  0
  -28.0971  -29.1127   21.1464 H   0  0  0  0  0  0
  -26.0162  -25.9768   19.0109 H   0  0  0  0  0  0
  -23.9686  -27.2933   19.0520 H   0  0  0  0  0  0
  -23.7250  -30.6062   19.4095 H   0  0  0  0  0  0
  -22.7318  -29.2547   19.8623 H   0  0  0  0  0  0
  -25.1280  -36.2009   25.0838 H   0  0  0  0  0  0
  -21.0000  -28.3173   24.1408 H   0  0  0  0  0  0
  -20.5829  -26.2243   23.3462 H   0  0  0  0  0  0
  -21.6664  -26.7560   22.1023 H   0  0  0  0  0  0
  -19.6525  -27.3341   20.6773 H   0  0  0  0  0  0
  -19.6885  -25.6397   21.1091 H   0  0  0  0  0  0
  -17.4086  -26.6419   21.4343 H   0  0  0  0  0  0
  -18.0618  -26.0083   22.9278 H   0  0  0  0  0  0
  -19.7949  -30.7247   24.2276 H   0  0  0  0  0  0
  -17.5043  -31.6263   24.5143 H   0  0  0  0  0  0
  -15.5374  -30.3006   23.7604 H   0  0  0  0  0  0
  -15.8661  -28.0790   22.7121 H   0  0  0  0  0  0
  -24.5913  -30.7022   25.7825 H   0  0  0  0  0  0
  -24.8895  -32.2836   26.4929 H   0  0  0  0  0  0
  -25.8086  -30.8873   27.0240 H   0  0  0  0  0  0
  -26.2811  -29.6824   24.1123 H   0  0  0  0  0  0
  -27.4047  -29.7249   25.4531 H   0  0  0  0  0  0
  -27.8651  -30.4371   23.9226 H   0  0  0  0  0  0
  -27.2697  -33.3596   26.2088 H   0  0  0  0  0  0
  -28.3852  -32.6851   25.0302 H   0  0  0  0  0  0
  -28.0725  -31.8392   26.5383 H   0  0  0  0  0  0
  -28.2613  -38.0113   24.7501 H   0  0  0  0  0  0
  -28.1079  -36.2643   24.6303 H   0  0  0  0  0  0
  -27.2299  -37.1481   25.8867 H   0  0  0  0  0  0
  -20.9300  -29.8745   21.6939 H   0  0  0  0  0  0
  -26.0205  -38.2885   24.1383 H   0  0  0  0  0  0
  -28.6882  -17.6713   22.2303 H   0  0  0  0  0  0
  -27.4796  -17.7897   20.9830 H   0  0  0  0  0  0
  -28.5102  -16.1123   19.6283 H   0  0  0  0  0  0
  -28.2191  -15.5456   21.2686 H   0  0  0  0  0  0
  -32.1902  -16.6809   20.8230 H   0  0  0  0  0  0
  -31.3593  -16.8460   19.2936 H   0  0  0  0  0  0
  -30.8995  -18.3477   21.8857 H   0  0  0  0  0  0
  -29.2472  -18.6072   19.3673 H   0  0  0  0  0  0
  -32.9886  -19.3332   22.2489 H   0  0  0  0  0  0
  -33.9177  -20.0495   20.9471 H   0  0  0  0  0  0
  -33.7240  -18.3106   21.0181 H   0  0  0  0  0  0
  -26.9209  -24.5153   20.6944 H   0  0  0  0  0  0
  -28.4494  -24.5488   21.5377 H   0  0  0  0  0  0
  -27.9535  -22.0583   22.0348 H   0  0  0  0  0  0
  -26.5448  -22.1669   21.0045 H   0  0  0  0  0  0
  -32.7758  -18.3781   18.5512 H   0  0  0  0  0  0
  -33.1442  -20.0669   18.6636 H   0  0  0  0  0  0
  -28.0579  -25.3496   18.5821 H   0  0  0  0  0  0
  -29.5878  -25.2455   19.3856 H   0  0  0  0  0  0
  -27.6553  -20.4253   19.4401 H   0  0  0  0  0  0
  -27.0399  -19.9029   20.9896 H   0  0  0  0  0  0
  -31.5385  -20.3704   20.5339 H   0  0  0  0  0  0
  -30.5382  -18.9986   17.8818 H   0  0  0  0  0  0
  -31.6502  -19.7120   16.9508 H   0  0  0  0  0  0
  -30.8858  -20.5920   18.0786 H   0  0  0  0  0  0
  -27.9553  -22.8533   19.1892 H   0  0  0  0  0  0
  -29.2667  -22.8185   20.1533 H   0  0  0  0  0  0
  1 25  1  0  0  0
  1 30  2  0  0  0
  1 83  1  0  0  0
  2  3  1  0  0  0
  2 25  1  0  0  0
  2 87  1  0  0  0
  2 88  1  0  0  0
  3  4  1  0  0  0
  3 89  1  0  0  0
  3 90  1  0  0  0
  4  5  1  0  0  0
  4 91  1  0  0  0
  4 92  1  0  0  0
  5  6  1  0  0  0
  5 26  1  0  0  0
  5 93  1  0  0  0
  6 25  1  0  0  0
  6 94  1  0  0  0
  6 95  1  0  0  0
  7  8  2  0  0  0
  7 26  1  0  0  0
  7 29  1  0  0  0
  8  9  1  0  0  0
  8 22  1  0  0  0
  9 10  1  0  0  0
  9 27  2  0  0  0
 10 11  2  0  0  0
 10 15  1  0  0  0
 11 12  1  0  0  0
 11 96  1  0  0  0
 12 13  2  0  0  0
 12 97  1  0  0  0
 13 14  1  0  0  0
 13 31  1  0  0  0
 14 15  2  0  0  0
 14 98  1  0  0  0
 15 99  1  0  0  0
 16 17  2  0  0  0
 16 21  1  0  0  0
 16 31  1  0  0  0
 17 18  1  0  0  0
 17100  1  0  0  0
 18 19  2  0  0  0
 18101  1  0  0  0
 19 20  1  0  0  0
 19 24  1  0  0  0
 20 21  2  0  0  0
 20102  1  0  0  0
 21 23  1  0  0  0
 22 28  1  0  0  0
 22 32  2  0  0  0
 26 27  1  0  0  0
 28103  1  0  0  0
 28104  1  0  0  0
 29105  1  0  0  0
 29106  1  0  0  0
 33 34  1  0  0  0
 33 66  1  0  0  0
 33 70  2  0  0  0
 34 36  1  0  0  0
 34 59  1  0  0  0
 34107  1  0  0  0
 35 44  2  0  0  0
 35 45  1  0  0  0
 35 68  1  0  0  0
 36 56  1  0  0  0
 36108  1  0  0  0
 37 39  1  0  0  0
 37 47  1  0  0  0
 37 66  1  0  0  0
 37109  1  0  0  0
 38 43  2  0  0  0
 38 46  1  0  0  0
 38 47  1  0  0  0
 39 64  1  0  0  0
 39 67  2  0  0  0
 40 52  1  0  0  0
 40 53  2  0  0  0
 40 58  1  0  0  0
 41110  1  0  0  0
 41111  1  0  0  0
 41112  1  0  0  0
 41 48  1  0  0  0
 42 43  1  0  0  0
 42 66  1  0  0  0
 42113  1  0  0  0
 42114  1  0  0  0
 43 44  1  0  0  0
 44115  1  0  0  0
 45 46  2  0  0  0
 45116  1  0  0  0
 46117  1  0  0  0
 47118  1  0  0  0
 47119  1  0  0  0
 48 56  1  0  0  0
 48 65  1  0  0  0
 48120  1  0  0  0
 49 50  1  0  0  0
 49 53  1  0  0  0
 49 64  1  0  0  0
 49121  1  0  0  0
 50 51  1  0  0  0
 50122  1  0  0  0
 50123  1  0  0  0
 51 52  1  0  0  0
 51124  1  0  0  0
 51125  1  0  0  0
 52126  1  0  0  0
 52127  1  0  0  0
 53 54  1  0  0  0
 54 55  2  0  0  0
 54128  1  0  0  0
 55 57  1  0  0  0
 55129  1  0  0  0
 56 69  2  0  0  0
 57 58  2  0  0  0
 57130  1  0  0  0
 58131  1  0  0  0
 59 60  1  0  0  0
 59 61  1  0  0  0
 59 62  1  0  0  0
 60132  1  0  0  0
 60133  1  0  0  0
 60134  1  0  0  0
 61135  1  0  0  0
 61136  1  0  0  0
 61137  1  0  0  0
 62138  1  0  0  0
 62139  1  0  0  0
 62140  1  0  0  0
 63 65  1  0  0  0
 63141  1  0  0  0
 63142  1  0  0  0
 63143  1  0  0  0
 64144  1  0  0  0
 65145  1  0  0  0
 68 80  1  0  0  0
 71 72  1  0  0  0
 71 75  1  0  0  0
 71146  1  0  0  0
 71147  1  0  0  0
 72 83  1  0  0  0
 72148  1  0  0  0
 72149  1  0  0  0
 73 83  1  0  0  0
 73150  1  0  0  0
 73151  1  0  0  0
 73 74  1  0  0  0
 74 75  1  0  0  0
 74 82  1  0  0  0
 74152  1  0  0  0
 75 86  1  0  0  0
 75153  1  0  0  0
 76154  1  0  0  0
 76155  1  0  0  0
 76156  1  0  0  0
 76 82  1  0  0  0
 77 80  1  0  0  0
 77 85  1  0  0  0
 77157  1  0  0  0
 77158  1  0  0  0
 78 81  1  0  0  0
 78 85  1  0  0  0
 78159  1  0  0  0
 78160  1  0  0  0
 79 82  1  0  0  0
 79 84  1  0  0  0
 79161  1  0  0  0
 79162  1  0  0  0
 80163  1  0  0  0
 80164  1  0  0  0
 81 86  1  0  0  0
 81165  1  0  0  0
 81166  1  0  0  0
 82167  1  0  0  0
 84168  1  0  0  0
 84169  1  0  0  0
 84170  1  0  0  0
 85171  1  0  0  0
 85172  1  0  0  0
M  CHG  2  84   1  85   1
M  ISO  4   1 100  68 101  80 101  83 100
M  END
> <chiral flag>
0

> <version>
0

> <s_m_source_file>
/data/baiqing/PycharmProjects/Reinvent-master-3.2/result/LINK_invent/BTK/process_docking_weight1_custom_sum_contain_oxygen_bond_distance_aromatic_linkinvent_7_9_3/rearranged_h_0120.sdf

> <i_m_source_file_index>
32

> <r_mmod_Potential_Energy-OPLS-2005>
-100.119148254395

> <r_mmod_Stretch_Energy-OPLS-2005>
47.1920394897461

> <r_mmod_Bend_Energy-OPLS-2005>
164.625045776367

> <r_mmod_Torsional_Energy-OPLS-2005>
311.685852050781

> <r_mmod_Improper_Torsional_Energy-OPLS-2005>
7.23527956008911

> <r_mmod_Van_der_Waal_Energy-OPLS-2005>
161.875915527344

> <r_mmod_Electrostatic_Energy-OPLS-2005>
150.757858276367

> <r_mmod_Solvation_Energy-OPLS-2005>
-974.793884277344

> <b_mmod_Minimization_Converged-OPLS-2005>
0

> <r_mmod_RMS_Derivative-OPLS-2005>
2.53992342948914

$$$$
32
                    3D
 Structure written by MMmdl.
172181  0  0  1  0            999 V2000
  -30.7573  -14.4067   20.6253 C   0  0  0  0  0  0
  -30.4106  -12.2920   19.4034 C   0  0  0  0  0  0
  -29.4842  -12.5095   18.1928 C   0  0  0  0  0  0
  -28.0071  -12.3739   18.6093 C   0  0  0  0  0  0
  -27.6596  -13.2088   19.8711 C   0  0  2  0  0  0
  -28.7002  -12.9791   20.9875 C   0  0  0  0  0  0
  -25.2565  -13.8164   20.5666 C   0  0  0  0  0  0
  -24.1818  -13.0439   20.9160 C   0  0  0  0  0  0
  -24.6378  -11.6907   20.8723 C   0  0  0  0  0  0
  -23.9050  -10.4294   21.0402 C   0  0  0  0  0  0
  -24.3606   -9.4208   21.9184 C   0  0  0  0  0  0
  -23.6279   -8.2243   22.0759 C   0  0  0  0  0  0
  -22.4258   -8.0281   21.3555 C   0  0  0  0  0  0
  -21.9885   -9.0256   20.4658 C   0  0  0  0  0  0
  -22.7220  -10.2132   20.3059 C   0  0  0  0  0  0
  -21.6852   -6.0726   22.5275 C   0  0  0  0  0  0
  -21.4015   -6.5632   23.8209 C   0  0  0  0  0  0
  -21.3664   -5.6782   24.9169 C   0  0  0  0  0  0
  -21.6046   -4.3046   24.7224 C   0  0  0  0  0  0
  -21.8820   -3.8141   23.4343 C   0  0  0  0  0  0
  -21.9191   -4.6955   22.3399 C   0  0  0  0  0  0
  -22.7841  -13.5242   21.1824 C   0  0  0  0  0  0
  -22.1660   -4.2143   21.0975 F   0  0  0  0  0  0
  -21.5633   -3.4532   25.7740 F   0  0  0  0  0  0
  -30.0334  -13.2726   20.4332 N   0  0  0  0  0  0
  -26.3005  -12.9345   20.3343 N   0  0  0  0  0  0
  -25.9305  -11.6498   20.5740 N   0  0  0  0  0  0
  -22.0482  -12.8248   22.0392 N   0  0  0  0  0  0
  -25.4291  -15.1880   20.4088 N   0  0  0  0  0  0
  -31.8768  -14.5627   20.1353 O   0  0  0  0  0  0
  -21.6632   -6.8871   21.4241 O   0  0  0  0  0  0
  -22.3532  -14.5553   20.6677 O   0  0  0  0  0  0
  -24.6125  -31.8705   23.2125 C   0  0  0  0  0  0
  -25.9024  -32.4834   23.8408 C   0  0  1  0  0  0
  -27.2317  -27.4569   20.0660 C   0  0  0  0  0  0
  -25.5887  -33.8635   24.2336 N   0  0  0  0  0  0
  -23.3985  -30.4964   21.5529 C   0  0  2  0  0  0
  -24.8419  -28.9658   20.1155 C   0  0  0  0  0  0
  -22.7385  -29.4681   22.4993 C   0  0  0  0  0  0
  -18.0269  -28.1378   22.8492 C   0  0  0  0  0  0
  -24.1484  -36.7327   23.2635 C   0  0  0  0  0  0
  -25.9265  -30.8375   21.3659 C   0  0  0  0  0  0
  -26.0004  -29.4723   20.7150 C   0  0  0  0  0  0
  -27.1936  -28.7173   20.7026 C   0  0  0  0  0  0
  -26.0465  -26.9529   19.4808 C   0  0  0  0  0  0
  -24.8563  -27.7015   19.5046 C   0  0  0  0  0  0
  -23.6060  -29.8336   20.1656 C   0  0  0  0  0  0
  -25.4103  -36.3116   24.0332 C   0  0  1  0  0  0
  -20.5856  -28.3664   23.1321 C   0  0  2  0  0  0
  -20.6761  -26.9403   22.5418 C   0  0  0  0  0  0
  -19.5748  -26.6391   21.5207 C   0  0  0  0  0  0
  -18.1922  -26.7927   22.1617 C   0  0  0  0  0  0
  -19.1517  -28.8835   23.2909 C   0  0  0  0  0  0
  -18.9450  -30.1436   23.8926 C   0  0  0  0  0  0
  -17.6457  -30.6585   24.0571 C   0  0  0  0  0  0
  -25.9031  -34.9483   23.5130 C   0  0  0  0  0  0
  -16.5348  -29.9094   23.6322 C   0  0  0  0  0  0
  -16.7260  -28.6511   23.0345 C   0  0  0  0  0  0
  -26.4466  -31.6604   25.0724 C   0  0  0  0  0  0
  -25.3742  -31.3717   26.1480 C   0  0  0  0  0  0
  -27.0283  -30.3042   24.6090 C   0  0  0  0  0  0
  -27.6049  -32.4319   25.7481 C   0  0  0  0  0  0
  -27.5578  -37.1816   24.8459 C   0  0  0  0  0  0
  -21.4117  -29.3038   22.3728 N   0  0  0  0  0  0
  -26.4289  -37.3800   23.9405 N   0  0  0  0  0  0
  -24.6638  -31.0819   22.1023 N   0  0  0  0  0  0
  -23.4164  -28.8222   23.3031 O   0  0  0  0  0  0
  -28.4147  -26.7515   20.0536 O   0  0  0  0  0  0
  -26.5606  -34.8927   22.4697 O   0  0  0  0  0  0
  -23.5317  -32.1462   23.7521 O   0  0  0  0  0  0
  -30.4969  -18.9368   21.0305 C   0  0  0  0  0  0
  -31.0684  -19.6433   20.0026 C   0  0  0  0  0  0
  -31.8701  -18.6704   19.3326 C   0  0  0  0  0  0
  -29.6742  -21.4627   18.8897 C   0  0  0  0  0  0
  -31.0635  -22.0458   20.8620 C   0  0  0  0  0  0
  -29.7183  -22.9342   18.4268 C   0  0  0  0  0  0
  -31.1256  -23.5128   20.3899 C   0  0  0  0  0  0
  -30.9587  -21.1124   19.6502 C   0  0  1  0  0  0
  -32.4492  -17.8309   17.0215 C   0  0  0  0  0  0
  -34.2561  -18.8031   18.5420 C   0  0  0  0  0  0
  -30.0741  -25.3033   19.0602 C   0  0  0  0  0  0
  -28.7113  -25.9940   18.8784 C   0  0  0  0  0  0
  -30.8048  -16.5496   21.9321 C   0  0  0  0  0  0
  -32.7756  -18.8422   18.1315 C   0  0  0  0  0  0
  -31.8245  -17.4954   19.9376 N   0  0  0  0  0  0
  -30.9798  -17.6429   20.9771 N   0  0  0  0  0  0
  -30.1640  -15.3588   21.3602 N   0  0  0  0  0  0
  -29.9603  -23.8966   19.5448 N   0  3  1  0  0  0
  -31.4551  -12.3762   19.0997 H   0  0  0  0  0  0
  -30.2997  -11.2793   19.7932 H   0  0  0  0  0  0
  -29.7153  -11.7917   17.4042 H   0  0  0  0  0  0
  -29.6590  -13.4980   17.7649 H   0  0  0  0  0  0
  -27.8122  -11.3179   18.7983 H   0  0  0  0  0  0
  -27.3575  -12.6605   17.7821 H   0  0  0  0  0  0
  -27.7099  -14.2590   19.5804 H   0  0  0  0  0  0
  -28.6673  -11.9421   21.3264 H   0  0  0  0  0  0
  -28.4607  -13.5751   21.8683 H   0  0  0  0  0  0
  -25.2760   -9.5674   22.4744 H   0  0  0  0  0  0
  -24.0000   -7.4621   22.7458 H   0  0  0  0  0  0
  -21.0824   -8.8763   19.8955 H   0  0  0  0  0  0
  -22.3688  -10.9658   19.6153 H   0  0  0  0  0  0
  -21.2011   -7.6139   23.9709 H   0  0  0  0  0  0
  -21.1485   -6.0514   25.9069 H   0  0  0  0  0  0
  -22.0597   -2.7603   23.2842 H   0  0  0  0  0  0
  -22.4096  -11.9931   22.4812 H   0  0  0  0  0  0
  -21.1103  -13.1283   22.2589 H   0  0  0  0  0  0
  -24.6654  -15.8459   20.5204 H   0  0  0  0  0  0
  -26.2877  -15.6269   20.0998 H   0  0  0  0  0  0
  -26.7097  -32.5552   23.1175 H   0  0  0  0  0  0
  -25.0013  -33.9810   25.0461 H   0  0  0  0  0  0
  -22.6864  -31.3126   21.4164 H   0  0  0  0  0  0
  -23.3732  -35.9674   23.3309 H   0  0  0  0  0  0
  -24.3578  -36.8938   22.2048 H   0  0  0  0  0  0
  -23.7255  -37.6540   23.6651 H   0  0  0  0  0  0
  -26.0356  -31.6030   20.5964 H   0  0  0  0  0  0
  -26.8154  -30.8917   21.9820 H   0  0  0  0  0  0
  -28.0905  -29.1068   21.1637 H   0  0  0  0  0  0
  -26.0063  -25.9815   19.0123 H   0  0  0  0  0  0
  -23.9606  -27.3021   19.0500 H   0  0  0  0  0  0
  -23.7171  -30.6113   19.4090 H   0  0  0  0  0  0
  -22.7290  -29.2566   19.8673 H   0  0  0  0  0  0
  -25.1276  -36.1984   25.0827 H   0  0  0  0  0  0
  -20.9949  -28.3230   24.1440 H   0  0  0  0  0  0
  -20.5659  -26.2270   23.3600 H   0  0  0  0  0  0
  -21.6638  -26.7452   22.1221 H   0  0  0  0  0  0
  -19.6915  -25.6306   21.1228 H   0  0  0  0  0  0
  -19.6688  -27.3207   20.6743 H   0  0  0  0  0  0
  -17.4189  -26.6665   21.4022 H   0  0  0  0  0  0
  -18.0333  -26.0063   22.9012 H   0  0  0  0  0  0
  -19.7925  -30.7239   24.2315 H   0  0  0  0  0  0
  -17.5017  -31.6269   24.5161 H   0  0  0  0  0  0
  -15.5354  -30.3015   23.7627 H   0  0  0  0  0  0
  -15.8655  -28.0844   22.7048 H   0  0  0  0  0  0
  -24.5890  -30.7094   25.7820 H   0  0  0  0  0  0
  -24.8964  -32.2881   26.4957 H   0  0  0  0  0  0
  -25.8095  -30.8858   27.0220 H   0  0  0  0  0  0
  -26.2819  -29.6818   24.1141 H   0  0  0  0  0  0
  -27.4045  -29.7267   25.4544 H   0  0  0  0  0  0
  -27.8662  -30.4353   23.9239 H   0  0  0  0  0  0
  -27.2670  -33.3609   26.2089 H   0  0  0  0  0  0
  -28.3839  -32.6899   25.0293 H   0  0  0  0  0  0
  -28.0737  -31.8423   26.5371 H   0  0  0  0  0  0
  -28.2597  -38.0110   24.7495 H   0  0  0  0  0  0
  -28.1069  -36.2641   24.6288 H   0  0  0  0  0  0
  -27.2299  -37.1476   25.8863 H   0  0  0  0  0  0
  -20.9256  -29.8769   21.6971 H   0  0  0  0  0  0
  -26.0175  -38.2876   24.1408 H   0  0  0  0  0  0
  -29.8293  -19.2557   21.8200 H   0  0  0  0  0  0
  -29.5706  -20.8160   18.0173 H   0  0  0  0  0  0
  -28.7950  -21.2850   19.5106 H   0  0  0  0  0  0
  -30.2207  -21.9004   21.5399 H   0  0  0  0  0  0
  -31.9645  -21.8148   21.4325 H   0  0  0  0  0  0
  -28.7879  -23.1773   17.9145 H   0  0  0  0  0  0
  -30.5097  -23.0412   17.6832 H   0  0  0  0  0  0
  -32.0453  -23.6741   19.8247 H   0  0  0  0  0  0
  -31.1782  -24.1677   21.2599 H   0  0  0  0  0  0
  -31.7952  -21.3734   19.0020 H   0  0  0  0  0  0
  -31.4053  -17.9114   16.7157 H   0  0  0  0  0  0
  -32.6186  -16.8059   17.3536 H   0  0  0  0  0  0
  -33.0672  -18.0010   16.1393 H   0  0  0  0  0  0
  -34.4757  -19.5766   19.2787 H   0  0  0  0  0  0
  -34.9081  -18.9694   17.6845 H   0  0  0  0  0  0
  -34.5237  -17.8420   18.9832 H   0  0  0  0  0  0
  -30.6781  -25.9042   19.7420 H   0  0  0  0  0  0
  -30.6175  -25.3127   18.1141 H   0  0  0  0  0  0
  -27.9483  -25.2537   18.6401 H   0  0  0  0  0  0
  -28.7617  -26.6824   18.0328 H   0  0  0  0  0  0
  -30.2042  -16.9081   22.7692 H   0  0  0  0  0  0
  -31.7827  -16.2888   22.3420 H   0  0  0  0  0  0
  -32.6001  -19.8247   17.6956 H   0  0  0  0  0  0
  -29.2220  -15.1682   21.6636 H   0  0  0  0  0  0
  -29.1551  -23.8648   20.1554 H   0  0  0  0  0  0
  1 25  1  0  0  0
  1 30  2  0  0  0
  1 87  1  0  0  0
  2  3  1  0  0  0
  2 25  1  0  0  0
  2 89  1  0  0  0
  2 90  1  0  0  0
  3  4  1  0  0  0
  3 91  1  0  0  0
  3 92  1  0  0  0
  4  5  1  0  0  0
  4 93  1  0  0  0
  4 94  1  0  0  0
  5  6  1  0  0  0
  5 26  1  0  0  0
  5 95  1  0  0  0
  6 25  1  0  0  0
  6 96  1  0  0  0
  6 97  1  0  0  0
  7  8  2  0  0  0
  7 26  1  0  0  0
  7 29  1  0  0  0
  8  9  1  0  0  0
  8 22  1  0  0  0
  9 10  1  0  0  0
  9 27  2  0  0  0
 10 11  2  0  0  0
 10 15  1  0  0  0
 11 12  1  0  0  0
 11 98  1  0  0  0
 12 13  2  0  0  0
 12 99  1  0  0  0
 13 14  1  0  0  0
 13 31  1  0  0  0
 14 15  2  0  0  0
 14100  1  0  0  0
 15101  1  0  0  0
 16 17  2  0  0  0
 16 21  1  0  0  0
 16 31  1  0  0  0
 17 18  1  0  0  0
 17102  1  0  0  0
 18 19  2  0  0  0
 18103  1  0  0  0
 19 20  1  0  0  0
 19 24  1  0  0  0
 20 21  2  0  0  0
 20104  1  0  0  0
 21 23  1  0  0  0
 22 28  1  0  0  0
 22 32  2  0  0  0
 26 27  1  0  0  0
 28105  1  0  0  0
 28106  1  0  0  0
 29107  1  0  0  0
 29108  1  0  0  0
 33 34  1  0  0  0
 33 66  1  0  0  0
 33 70  2  0  0  0
 34 36  1  0  0  0
 34 59  1  0  0  0
 34109  1  0  0  0
 35 44  2  0  0  0
 35 45  1  0  0  0
 35 68  1  0  0  0
 36 56  1  0  0  0
 36110  1  0  0  0
 37 39  1  0  0  0
 37 47  1  0  0  0
 37 66  1  0  0  0
 37111  1  0  0  0
 38 43  2  0  0  0
 38 46  1  0  0  0
 38 47  1  0  0  0
 39 64  1  0  0  0
 39 67  2  0  0  0
 40 52  1  0  0  0
 40 53  2  0  0  0
 40 58  1  0  0  0
 41112  1  0  0  0
 41113  1  0  0  0
 41114  1  0  0  0
 41 48  1  0  0  0
 42 43  1  0  0  0
 42 66  1  0  0  0
 42115  1  0  0  0
 42116  1  0  0  0
 43 44  1  0  0  0
 44117  1  0  0  0
 45 46  2  0  0  0
 45118  1  0  0  0
 46119  1  0  0  0
 47120  1  0  0  0
 47121  1  0  0  0
 48 56  1  0  0  0
 48 65  1  0  0  0
 48122  1  0  0  0
 49 50  1  0  0  0
 49 53  1  0  0  0
 49 64  1  0  0  0
 49123  1  0  0  0
 50 51  1  0  0  0
 50124  1  0  0  0
 50125  1  0  0  0
 51 52  1  0  0  0
 51126  1  0  0  0
 51127  1  0  0  0
 52128  1  0  0  0
 52129  1  0  0  0
 53 54  1  0  0  0
 54 55  2  0  0  0
 54130  1  0  0  0
 55 57  1  0  0  0
 55131  1  0  0  0
 56 69  2  0  0  0
 57 58  2  0  0  0
 57132  1  0  0  0
 58133  1  0  0  0
 59 60  1  0  0  0
 59 61  1  0  0  0
 59 62  1  0  0  0
 60134  1  0  0  0
 60135  1  0  0  0
 60136  1  0  0  0
 61137  1  0  0  0
 61138  1  0  0  0
 61139  1  0  0  0
 62140  1  0  0  0
 62141  1  0  0  0
 62142  1  0  0  0
 63 65  1  0  0  0
 63143  1  0  0  0
 63144  1  0  0  0
 63145  1  0  0  0
 64146  1  0  0  0
 65147  1  0  0  0
 68 82  1  0  0  0
 71 72  2  0  0  0
 71 86  1  0  0  0
 71148  1  0  0  0
 72 73  1  0  0  0
 72 78  1  0  0  0
 73 84  1  0  0  0
 73 85  2  0  0  0
 74 76  1  0  0  0
 74 78  1  0  0  0
 74149  1  0  0  0
 74150  1  0  0  0
 75 77  1  0  0  0
 75 78  1  0  0  0
 75151  1  0  0  0
 75152  1  0  0  0
 76 88  1  0  0  0
 76153  1  0  0  0
 76154  1  0  0  0
 77 88  1  0  0  0
 77155  1  0  0  0
 77156  1  0  0  0
 78157  1  0  0  0
 79158  1  0  0  0
 79159  1  0  0  0
 79160  1  0  0  0
 79 84  1  0  0  0
 80 84  1  0  0  0
 80161  1  0  0  0
 80162  1  0  0  0
 80163  1  0  0  0
 81 82  1  0  0  0
 81164  1  0  0  0
 81165  1  0  0  0
 81 88  1  0  0  0
 82166  1  0  0  0
 82167  1  0  0  0
 83 86  1  0  0  0
 83 87  1  0  0  0
 83168  1  0  0  0
 83169  1  0  0  0
 84170  1  0  0  0
 85 86  1  0  0  0
 87171  1  0  0  0
 88172  1  0  0  0
M  CHG  1  88   1
M  ISO  4   1 100  68 101  82 101  87 100
M  END
> <chiral flag>
0

> <version>
0

> <s_m_source_file>
/data/baiqing/PycharmProjects/Reinvent-master-3.2/result/LINK_invent/BTK/process_docking_weight1_custom_sum_contain_oxygen_bond_distance_aromatic_linkinvent_7_9_3/rearranged_h_0120.sdf

> <i_m_source_file_index>
33

> <r_mmod_Potential_Energy-OPLS-2005>
-253.865936279297

> <r_mmod_Stretch_Energy-OPLS-2005>
33.841926574707

> <r_mmod_Bend_Energy-OPLS-2005>
100.97891998291

> <r_mmod_Torsional_Energy-OPLS-2005>
239.933212280273

> <r_mmod_Improper_Torsional_Energy-OPLS-2005>
2.5035502910614

> <r_mmod_Van_der_Waal_Energy-OPLS-2005>
136.910781860352

> <r_mmod_Electrostatic_Energy-OPLS-2005>
-318.4140625

> <r_mmod_Solvation_Energy-OPLS-2005>
-460.76025390625

> <b_mmod_Minimization_Converged-OPLS-2005>
0

> <r_mmod_RMS_Derivative-OPLS-2005>
1.63115179538727

$$$$
33
                    3D
 Structure written by MMmdl.
156164  0  0  1  0            999 V2000
  -30.5951  -14.7524   20.4637 C   0  0  0  0  0  0
  -30.4299  -12.4678   19.4540 C   0  0  0  0  0  0
  -29.4956  -12.5056   18.2240 C   0  0  0  0  0  0
  -28.0266  -12.3185   18.6474 C   0  0  0  0  0  0
  -27.6348  -13.2247   19.8443 C   0  0  2  0  0  0
  -28.6821  -13.1535   20.9748 C   0  0  0  0  0  0
  -25.2490  -13.8181   20.5718 C   0  0  0  0  0  0
  -24.1782  -13.0435   20.9247 C   0  0  0  0  0  0
  -24.6359  -11.6909   20.8753 C   0  0  0  0  0  0
  -23.9034  -10.4291   21.0396 C   0  0  0  0  0  0
  -24.3599   -9.4216   21.9167 C   0  0  0  0  0  0
  -23.6297   -8.2240   22.0731 C   0  0  0  0  0  0
  -22.4275   -8.0272   21.3535 C   0  0  0  0  0  0
  -21.9907   -9.0226   20.4624 C   0  0  0  0  0  0
  -22.7211  -10.2119   20.3035 C   0  0  0  0  0  0
  -21.6857   -6.0728   22.5278 C   0  0  0  0  0  0
  -21.4007   -6.5630   23.8210 C   0  0  0  0  0  0
  -21.3665   -5.6789   24.9175 C   0  0  0  0  0  0
  -21.6054   -4.3051   24.7230 C   0  0  0  0  0  0
  -21.8816   -3.8139   23.4350 C   0  0  0  0  0  0
  -21.9193   -4.6954   22.3407 C   0  0  0  0  0  0
  -22.7804  -13.5215   21.1914 C   0  0  0  0  0  0
  -22.1660   -4.2143   21.0983 F   0  0  0  0  0  0
  -21.5640   -3.4532   25.7740 F   0  0  0  0  0  0
  -29.9769  -13.5237   20.3899 N   0  0  0  0  0  0
  -26.2884  -12.9365   20.3251 N   0  0  0  0  0  0
  -25.9280  -11.6519   20.5740 N   0  0  0  0  0  0
  -22.0460  -12.8181   22.0457 N   0  0  0  0  0  0
  -25.4213  -15.1901   20.4134 N   0  0  0  0  0  0
  -31.7886  -14.8573   20.1697 O   0  0  0  0  0  0
  -21.6647   -6.8858   21.4238 O   0  0  0  0  0  0
  -22.3483  -14.5520   20.6762 O   0  0  0  0  0  0
  -24.6332  -31.8519   23.1949 C   0  0  0  0  0  0
  -25.9151  -32.4734   23.8304 C   0  0  1  0  0  0
  -27.2241  -27.2512   20.1407 C   0  0  0  0  0  0
  -25.5926  -33.8537   24.2217 N   0  0  0  0  0  0
  -23.4295  -30.4734   21.5380 C   0  0  2  0  0  0
  -24.8757  -28.9040   20.1218 C   0  0  0  0  0  0
  -22.7502  -29.4597   22.4899 C   0  0  0  0  0  0
  -18.0294  -28.1406   22.8480 C   0  0  0  0  0  0
  -24.1484  -36.7285   23.2644 C   0  0  0  0  0  0
  -25.9751  -30.7600   21.3750 C   0  0  0  0  0  0
  -26.0456  -29.3758   20.7320 C   0  0  0  0  0  0
  -27.2236  -28.5621   20.7269 C   0  0  0  0  0  0
  -26.0397  -26.8514   19.4929 C   0  0  0  0  0  0
  -24.8755  -27.6484   19.4948 C   0  0  0  0  0  0
  -23.6498  -29.7968   20.1588 C   0  0  0  0  0  0
  -25.4104  -36.3046   24.0318 C   0  0  1  0  0  0
  -20.5903  -28.3706   23.1260 C   0  0  2  0  0  0
  -20.6772  -26.9416   22.5407 C   0  0  0  0  0  0
  -19.5748  -26.6390   21.5216 C   0  0  0  0  0  0
  -18.1930  -26.7949   22.1619 C   0  0  0  0  0  0
  -19.1549  -28.8869   23.2875 C   0  0  0  0  0  0
  -18.9477  -30.1475   23.8886 C   0  0  0  0  0  0
  -17.6472  -30.6606   24.0567 C   0  0  0  0  0  0
  -25.9041  -34.9429   23.5066 C   0  0  0  0  0  0
  -16.5366  -29.9103   23.6343 C   0  0  0  0  0  0
  -16.7279  -28.6523   23.0350 C   0  0  0  0  0  0
  -26.4512  -31.6582   25.0710 C   0  0  0  0  0  0
  -25.3738  -31.3755   26.1434 C   0  0  0  0  0  0
  -27.0361  -30.2986   24.6228 C   0  0  0  0  0  0
  -27.6039  -32.4346   25.7502 C   0  0  0  0  0  0
  -27.5564  -37.1786   24.8464 C   0  0  0  0  0  0
  -21.4206  -29.3047   22.3643 N   0  0  0  0  0  0
  -26.4268  -37.3758   23.9408 N   0  0  0  0  0  0
  -24.6990  -31.0484   22.0927 N   0  0  0  0  0  0
  -23.4200  -28.8160   23.3026 O   0  0  0  0  0  0
  -28.3561  -26.4144   20.0603 O   0  0  0  0  0  0
  -26.5647  -34.8916   22.4654 O   0  0  0  0  0  0
  -23.5480  -32.1344   23.7244 O   0  0  0  0  0  0
  -30.1972  -22.1367   20.9420 C   0  0  0  0  0  0
  -28.8768  -22.2784   20.4233 C   0  0  0  0  0  0
  -30.4783  -20.7841   21.0116 C   0  0  0  0  0  0
  -31.7428  -20.1466   21.4806 C   0  0  0  0  0  0
  -26.5777  -23.3472   20.3995 C   0  0  0  0  0  0
  -29.0777  -18.5398   20.5202 C   0  0  0  0  0  0
  -30.2159  -17.3730   20.6408 C   0  0  0  0  0  0
  -28.4706  -25.0517   20.6990 C   0  0  0  0  0  0
  -28.0553  -23.6100   20.0538 C   0  0  1  0  0  0
  -28.4258  -21.0055   20.1848 N   0  0  0  0  0  0
  -29.3792  -20.0548   20.5594 N   0  0  0  0  0  0
  -29.8137  -15.8860   20.6589 N   0  0  0  0  0  0
  -31.4638  -12.6117   19.1368 H   0  0  0  0  0  0
  -30.3951  -11.4888   19.9352 H   0  0  0  0  0  0
  -29.7758  -11.7299   17.5094 H   0  0  0  0  0  0
  -29.6069  -13.4573   17.7016 H   0  0  0  0  0  0
  -27.8953  -11.2703   18.9194 H   0  0  0  0  0  0
  -27.3606  -12.4950   17.8018 H   0  0  0  0  0  0
  -27.6276  -14.2442   19.4592 H   0  0  0  0  0  0
  -28.7287  -12.1452   21.3902 H   0  0  0  0  0  0
  -28.4147  -13.8159   21.7992 H   0  0  0  0  0  0
  -25.2734   -9.5704   22.4755 H   0  0  0  0  0  0
  -24.0019   -7.4620   22.7432 H   0  0  0  0  0  0
  -21.0847   -8.8701   19.8920 H   0  0  0  0  0  0
  -22.3630  -10.9648   19.6151 H   0  0  0  0  0  0
  -21.1979   -7.6135   23.9704 H   0  0  0  0  0  0
  -21.1504   -6.0522   25.9076 H   0  0  0  0  0  0
  -22.0593   -2.7604   23.2850 H   0  0  0  0  0  0
  -22.4101  -11.9855   22.4850 H   0  0  0  0  0  0
  -21.1044  -13.1121   22.2617 H   0  0  0  0  0  0
  -24.6590  -15.8479   20.5336 H   0  0  0  0  0  0
  -26.2575  -15.6228   20.0444 H   0  0  0  0  0  0
  -26.7209  -32.5374   23.1042 H   0  0  0  0  0  0
  -25.0021  -33.9663   25.0323 H   0  0  0  0  0  0
  -22.7285  -31.2965   21.3846 H   0  0  0  0  0  0
  -23.3731  -35.9635   23.3302 H   0  0  0  0  0  0
  -24.3569  -36.8916   22.2059 H   0  0  0  0  0  0
  -23.7269  -37.6491   23.6679 H   0  0  0  0  0  0
  -26.1106  -31.5113   20.5954 H   0  0  0  0  0  0
  -26.8556  -30.8163   22.0034 H   0  0  0  0  0  0
  -28.1279  -28.9320   21.1897 H   0  0  0  0  0  0
  -26.0181  -25.9169   18.9543 H   0  0  0  0  0  0
  -23.9847  -27.2855   19.0007 H   0  0  0  0  0  0
  -23.7823  -30.5661   19.3980 H   0  0  0  0  0  0
  -22.7672  -29.2317   19.8518 H   0  0  0  0  0  0
  -25.1294  -36.1862   25.0810 H   0  0  0  0  0  0
  -20.9996  -28.3283   24.1381 H   0  0  0  0  0  0
  -20.5657  -26.2320   23.3619 H   0  0  0  0  0  0
  -21.6637  -26.7430   22.1198 H   0  0  0  0  0  0
  -19.6897  -25.6299   21.1245 H   0  0  0  0  0  0
  -19.6680  -27.3197   20.6748 H   0  0  0  0  0  0
  -17.4190  -26.6709   21.4027 H   0  0  0  0  0  0
  -18.0314  -26.0109   22.9027 H   0  0  0  0  0  0
  -19.7959  -30.7304   24.2229 H   0  0  0  0  0  0
  -17.5036  -31.6277   24.5188 H   0  0  0  0  0  0
  -15.5364  -30.3003   23.7688 H   0  0  0  0  0  0
  -15.8680  -28.0854   22.7057 H   0  0  0  0  0  0
  -24.5912  -30.7096   25.7785 H   0  0  0  0  0  0
  -24.8948  -32.2941   26.4825 H   0  0  0  0  0  0
  -25.8067  -30.8965   27.0227 H   0  0  0  0  0  0
  -26.2944  -29.6714   24.1268 H   0  0  0  0  0  0
  -27.4038  -29.7269   25.4765 H   0  0  0  0  0  0
  -27.8827  -30.4236   23.9475 H   0  0  0  0  0  0
  -27.2602  -33.3644   26.2053 H   0  0  0  0  0  0
  -28.3879  -32.6913   25.0367 H   0  0  0  0  0  0
  -28.0680  -31.8500   26.5456 H   0  0  0  0  0  0
  -28.2576  -38.0085   24.7486 H   0  0  0  0  0  0
  -28.1058  -36.2609   24.6299 H   0  0  0  0  0  0
  -27.2286  -37.1454   25.8872 H   0  0  0  0  0  0
  -20.9399  -29.8762   21.6826 H   0  0  0  0  0  0
  -26.0132  -38.2818   24.1432 H   0  0  0  0  0  0
  -30.8739  -22.9334   21.2176 H   0  0  0  0  0  0
  -32.4842  -20.9014   21.7420 H   0  0  0  0  0  0
  -32.1782  -19.5235   20.7002 H   0  0  0  0  0  0
  -31.5740  -19.5363   22.3661 H   0  0  0  0  0  0
  -26.1801  -22.5071   19.8296 H   0  0  0  0  0  0
  -25.9388  -24.1981   20.1895 H   0  0  0  0  0  0
  -26.4659  -23.1104   21.4580 H   0  0  0  0  0  0
  -28.3511  -18.3624   21.3141 H   0  0  0  0  0  0
  -28.5292  -18.3644   19.5943 H   0  0  0  0  0  0
  -30.7798  -17.5322   21.5600 H   0  0  0  0  0  0
  -30.9352  -17.5059   19.8320 H   0  0  0  0  0  0
  -29.5471  -24.9826   20.8535 H   0  0  0  0  0  0
  -28.0682  -25.1185   21.7093 H   0  0  0  0  0  0
  -28.1323  -23.7423   18.9738 H   0  0  0  0  0  0
  -28.8344  -15.7000   20.8125 H   0  0  0  0  0  0
  1 25  1  0  0  0
  1 30  2  0  0  0
  1 82  1  0  0  0
  2  3  1  0  0  0
  2 25  1  0  0  0
  2 83  1  0  0  0
  2 84  1  0  0  0
  3  4  1  0  0  0
  3 85  1  0  0  0
  3 86  1  0  0  0
  4  5  1  0  0  0
  4 87  1  0  0  0
  4 88  1  0  0  0
  5  6  1  0  0  0
  5 26  1  0  0  0
  5 89  1  0  0  0
  6 25  1  0  0  0
  6 90  1  0  0  0
  6 91  1  0  0  0
  7  8  2  0  0  0
  7 26  1  0  0  0
  7 29  1  0  0  0
  8  9  1  0  0  0
  8 22  1  0  0  0
  9 10  1  0  0  0
  9 27  2  0  0  0
 10 11  2  0  0  0
 10 15  1  0  0  0
 11 12  1  0  0  0
 11 92  1  0  0  0
 12 13  2  0  0  0
 12 93  1  0  0  0
 13 14  1  0  0  0
 13 31  1  0  0  0
 14 15  2  0  0  0
 14 94  1  0  0  0
 15 95  1  0  0  0
 16 17  2  0  0  0
 16 21  1  0  0  0
 16 31  1  0  0  0
 17 18  1  0  0  0
 17 96  1  0  0  0
 18 19  2  0  0  0
 18 97  1  0  0  0
 19 20  1  0  0  0
 19 24  1  0  0  0
 20 21  2  0  0  0
 20 98  1  0  0  0
 21 23  1  0  0  0
 22 28  1  0  0  0
 22 32  2  0  0  0
 26 27  1  0  0  0
 28 99  1  0  0  0
 28100  1  0  0  0
 29101  1  0  0  0
 29102  1  0  0  0
 33 34  1  0  0  0
 33 66  1  0  0  0
 33 70  2  0  0  0
 34 36  1  0  0  0
 34 59  1  0  0  0
 34103  1  0  0  0
 35 44  2  0  0  0
 35 45  1  0  0  0
 35 68  1  0  0  0
 36 56  1  0  0  0
 36104  1  0  0  0
 37 39  1  0  0  0
 37 47  1  0  0  0
 37 66  1  0  0  0
 37105  1  0  0  0
 38 43  2  0  0  0
 38 46  1  0  0  0
 38 47  1  0  0  0
 39 64  1  0  0  0
 39 67  2  0  0  0
 40 52  1  0  0  0
 40 53  2  0  0  0
 40 58  1  0  0  0
 41106  1  0  0  0
 41107  1  0  0  0
 41108  1  0  0  0
 41 48  1  0  0  0
 42 43  1  0  0  0
 42 66  1  0  0  0
 42109  1  0  0  0
 42110  1  0  0  0
 43 44  1  0  0  0
 44111  1  0  0  0
 45 46  2  0  0  0
 45112  1  0  0  0
 46113  1  0  0  0
 47114  1  0  0  0
 47115  1  0  0  0
 48 56  1  0  0  0
 48 65  1  0  0  0
 48116  1  0  0  0
 49 50  1  0  0  0
 49 53  1  0  0  0
 49 64  1  0  0  0
 49117  1  0  0  0
 50 51  1  0  0  0
 50118  1  0  0  0
 50119  1  0  0  0
 51 52  1  0  0  0
 51120  1  0  0  0
 51121  1  0  0  0
 52122  1  0  0  0
 52123  1  0  0  0
 53 54  1  0  0  0
 54 55  2  0  0  0
 54124  1  0  0  0
 55 57  1  0  0  0
 55125  1  0  0  0
 56 69  2  0  0  0
 57 58  2  0  0  0
 57126  1  0  0  0
 58127  1  0  0  0
 59 60  1  0  0  0
 59 61  1  0  0  0
 59 62  1  0  0  0
 60128  1  0  0  0
 60129  1  0  0  0
 60130  1  0  0  0
 61131  1  0  0  0
 61132  1  0  0  0
 61133  1  0  0  0
 62134  1  0  0  0
 62135  1  0  0  0
 62136  1  0  0  0
 63 65  1  0  0  0
 63137  1  0  0  0
 63138  1  0  0  0
 63139  1  0  0  0
 64140  1  0  0  0
 65141  1  0  0  0
 68 78  1  0  0  0
 71 72  1  0  0  0
 71 73  2  0  0  0
 71142  1  0  0  0
 72 79  1  0  0  0
 72 80  2  0  0  0
 73 74  1  0  0  0
 73 81  1  0  0  0
 74143  1  0  0  0
 74144  1  0  0  0
 74145  1  0  0  0
 75146  1  0  0  0
 75147  1  0  0  0
 75148  1  0  0  0
 75 79  1  0  0  0
 76 77  1  0  0  0
 76 81  1  0  0  0
 76149  1  0  0  0
 76150  1  0  0  0
 77 82  1  0  0  0
 77151  1  0  0  0
 77152  1  0  0  0
 78 79  1  0  0  0
 78153  1  0  0  0
 78154  1  0  0  0
 79155  1  0  0  0
 80 81  1  0  0  0
 82156  1  0  0  0
M  ISO  4   1 100  68 101  78 101  82 100
M  END
> <chiral flag>
0

> <version>
0

> <s_m_source_file>
/data/baiqing/PycharmProjects/Reinvent-master-3.2/result/LINK_invent/BTK/process_docking_weight1_custom_sum_contain_oxygen_bond_distance_aromatic_linkinvent_7_9_3/rearranged_h_0120.sdf

> <i_m_source_file_index>
34

> <r_mmod_Potential_Energy-OPLS-2005>
153.899353027344

> <r_mmod_Stretch_Energy-OPLS-2005>
136.103164672852

> <r_mmod_Bend_Energy-OPLS-2005>
199.105422973633

> <r_mmod_Torsional_Energy-OPLS-2005>
236.683731079102

> <r_mmod_Improper_Torsional_Energy-OPLS-2005>
5.39721393585205

> <r_mmod_Van_der_Waal_Energy-OPLS-2005>
109.611778259277

> <r_mmod_Electrostatic_Energy-OPLS-2005>
-395.274780273438

> <r_mmod_Solvation_Energy-OPLS-2005>
-221.181259155273

> <b_mmod_Minimization_Converged-OPLS-2005>
0

> <r_mmod_RMS_Derivative-OPLS-2005>
2.27445220947266

$$$$
34
                    3D
 Structure written by MMmdl.
159167  0  0  1  0            999 V2000
  -30.5426  -14.8826   20.5128 C   0  0  0  0  0  0
  -30.4389  -12.5571   19.5068 C   0  0  0  0  0  0
  -29.5275  -12.5406   18.2553 C   0  0  0  0  0  0
  -28.0560  -12.3190   18.6552 C   0  0  0  0  0  0
  -27.6342  -13.2247   19.8393 C   0  0  2  0  0  0
  -28.6595  -13.1632   20.9833 C   0  0  0  0  0  0
  -25.2488  -13.8148   20.5632 C   0  0  0  0  0  0
  -24.1779  -13.0414   20.9147 C   0  0  0  0  0  0
  -24.6357  -11.6883   20.8673 C   0  0  0  0  0  0
  -23.9025  -10.4275   21.0357 C   0  0  0  0  0  0
  -24.3593   -9.4207   21.9146 C   0  0  0  0  0  0
  -23.6273   -8.2241   22.0757 C   0  0  0  0  0  0
  -22.4252   -8.0262   21.3545 C   0  0  0  0  0  0
  -21.9872   -9.0219   20.4634 C   0  0  0  0  0  0
  -22.7197  -10.2092   20.3015 C   0  0  0  0  0  0
  -21.6852   -6.0708   22.5293 C   0  0  0  0  0  0
  -21.4012   -6.5619   23.8219 C   0  0  0  0  0  0
  -21.3661   -5.6781   24.9184 C   0  0  0  0  0  0
  -21.6045   -4.3043   24.7243 C   0  0  0  0  0  0
  -21.8814   -3.8129   23.4368 C   0  0  0  0  0  0
  -21.9192   -4.6938   22.3422 C   0  0  0  0  0  0
  -22.7808  -13.5205   21.1847 C   0  0  0  0  0  0
  -22.1655   -4.2117   21.0998 F   0  0  0  0  0  0
  -21.5628   -3.4537   25.7760 F   0  0  0  0  0  0
  -29.9489  -13.6197   20.4360 N   0  0  0  0  0  0
  -26.2863  -12.9335   20.3121 N   0  0  0  0  0  0
  -25.9267  -11.6478   20.5611 N   0  0  0  0  0  0
  -22.0489  -12.8195   22.0408 N   0  0  0  0  0  0
  -25.4204  -15.1884   20.4115 N   0  0  0  0  0  0
  -31.6888  -14.9895   20.0574 O   0  0  0  0  0  0
  -21.6635   -6.8851   21.4250 O   0  0  0  0  0  0
  -22.3502  -14.5528   20.6731 O   0  0  0  0  0  0
  -24.6389  -31.8499   23.1947 C   0  0  0  0  0  0
  -25.9157  -32.4733   23.8355 C   0  0  1  0  0  0
  -27.1984  -27.1939   20.1516 C   0  0  0  0  0  0
  -25.5921  -33.8550   24.2266 N   0  0  0  0  0  0
  -23.4381  -30.4725   21.5410 C   0  0  2  0  0  0
  -24.8842  -28.9073   20.1087 C   0  0  0  0  0  0
  -22.7560  -29.4562   22.4906 C   0  0  0  0  0  0
  -18.0299  -28.1387   22.8486 C   0  0  0  0  0  0
  -24.1485  -36.7278   23.2649 C   0  0  0  0  0  0
  -25.9901  -30.7432   21.3807 C   0  0  0  0  0  0
  -26.0595  -29.3591   20.7254 C   0  0  0  0  0  0
  -27.2246  -28.5164   20.7312 C   0  0  0  0  0  0
  -26.0073  -26.8266   19.4949 C   0  0  0  0  0  0
  -24.8672  -27.6529   19.4778 C   0  0  0  0  0  0
  -23.6588  -29.8028   20.1581 C   0  0  0  0  0  0
  -25.4093  -36.3061   24.0339 C   0  0  1  0  0  0
  -20.5917  -28.3690   23.1279 C   0  0  2  0  0  0
  -20.6796  -26.9405   22.5411 C   0  0  0  0  0  0
  -19.5745  -26.6379   21.5242 C   0  0  0  0  0  0
  -18.1921  -26.7939   22.1635 C   0  0  0  0  0  0
  -19.1559  -28.8863   23.2867 C   0  0  0  0  0  0
  -18.9474  -30.1475   23.8853 C   0  0  0  0  0  0
  -17.6460  -30.6585   24.0563 C   0  0  0  0  0  0
  -25.9039  -34.9418   23.5095 C   0  0  0  0  0  0
  -16.5358  -29.9060   23.6362 C   0  0  0  0  0  0
  -16.7290  -28.6488   23.0349 C   0  0  0  0  0  0
  -26.4483  -31.6587   25.0794 C   0  0  0  0  0  0
  -25.3642  -31.3719   26.1475 C   0  0  0  0  0  0
  -27.0376  -30.3015   24.6295 C   0  0  0  0  0  0
  -27.6052  -32.4339   25.7503 C   0  0  0  0  0  0
  -27.5556  -37.1783   24.8463 C   0  0  0  0  0  0
  -21.4253  -29.3022   22.3645 N   0  0  0  0  0  0
  -26.4271  -37.3761   23.9417 N   0  0  0  0  0  0
  -24.7098  -31.0409   22.0946 N   0  0  0  0  0  0
  -23.4238  -28.8108   23.3016 O   0  0  0  0  0  0
  -28.2354  -26.2201   20.1832 O   0  0  0  0  0  0
  -26.5617  -34.8881   22.4676 O   0  0  0  0  0  0
  -23.5510  -32.1352   23.7175 O   0  0  0  0  0  0
  -27.6590  -20.9969   20.3132 C   0  0  0  0  0  0
  -29.9602  -21.3663   20.7106 C   0  0  0  0  0  0
  -27.4180  -22.4242   20.3139 C   0  0  0  0  0  0
  -29.7169  -22.8000   20.7156 C   0  0  0  0  0  0
  -28.9298  -20.3788   20.5593 C   0  0  0  0  0  0
  -28.4270  -23.4102   20.5707 C   0  0  0  0  0  0
  -27.0094  -24.0975   23.2496 C   0  0  0  0  0  0
  -29.1842  -16.0544   22.2057 C   0  0  0  0  0  0
  -29.0301  -18.7907   20.9562 C   0  0  0  0  0  0
  -26.8942  -25.0143   22.0169 C   0  0  0  0  0  0
  -29.9217  -17.5270   20.3232 C   0  0  0  0  0  0
  -28.1008  -24.9506   21.0306 C   0  0  2  0  0  0
  -29.8012  -16.0494   20.8724 N   0  0  0  0  0  0
  -31.4778  -12.7100   19.2118 H   0  0  0  0  0  0
  -30.4204  -11.5833   19.9984 H   0  0  0  0  0  0
  -29.8501  -11.7580   17.5672 H   0  0  0  0  0  0
  -29.6257  -13.4836   17.7135 H   0  0  0  0  0  0
  -27.9505  -11.2708   18.9398 H   0  0  0  0  0  0
  -27.3980  -12.4700   17.7982 H   0  0  0  0  0  0
  -27.6256  -14.2454   19.4559 H   0  0  0  0  0  0
  -28.7442  -12.1487   21.3756 H   0  0  0  0  0  0
  -28.2921  -13.7502   21.8165 H   0  0  0  0  0  0
  -25.2737   -9.5700   22.4702 H   0  0  0  0  0  0
  -23.9977   -7.4652   22.7501 H   0  0  0  0  0  0
  -21.0791   -8.8703   19.8960 H   0  0  0  0  0  0
  -22.3630  -10.9603   19.6103 H   0  0  0  0  0  0
  -21.2007   -7.6127   23.9713 H   0  0  0  0  0  0
  -21.1484   -6.0516   25.9082 H   0  0  0  0  0  0
  -22.0593   -2.7587   23.2888 H   0  0  0  0  0  0
  -22.4119  -11.9840   22.4762 H   0  0  0  0  0  0
  -21.1099  -13.1200   22.2639 H   0  0  0  0  0  0
  -24.6583  -15.8435   20.5415 H   0  0  0  0  0  0
  -26.2740  -15.6294   20.0934 H   0  0  0  0  0  0
  -26.7230  -32.5366   23.1110 H   0  0  0  0  0  0
  -25.0138  -33.9702   25.0451 H   0  0  0  0  0  0
  -22.7368  -31.2969   21.3894 H   0  0  0  0  0  0
  -23.3752  -35.9609   23.3302 H   0  0  0  0  0  0
  -24.3581  -36.8919   22.2066 H   0  0  0  0  0  0
  -23.7218  -37.6458   23.6695 H   0  0  0  0  0  0
  -26.1375  -31.4989   20.6080 H   0  0  0  0  0  0
  -26.8641  -30.7966   22.0187 H   0  0  0  0  0  0
  -28.1206  -28.8508   21.2343 H   0  0  0  0  0  0
  -25.9486  -25.8561   19.0219 H   0  0  0  0  0  0
  -23.9680  -27.3033   18.9890 H   0  0  0  0  0  0
  -23.7833  -30.5798   19.4040 H   0  0  0  0  0  0
  -22.7771  -29.2383   19.8523 H   0  0  0  0  0  0
  -25.1273  -36.1921   25.0841 H   0  0  0  0  0  0
  -21.0001  -28.3256   24.1405 H   0  0  0  0  0  0
  -20.5745  -26.2281   23.3614 H   0  0  0  0  0  0
  -21.6657  -26.7447   22.1144 H   0  0  0  0  0  0
  -19.6903  -25.6296   21.1256 H   0  0  0  0  0  0
  -19.6697  -27.3219   20.6797 H   0  0  0  0  0  0
  -17.4207  -26.6761   21.3997 H   0  0  0  0  0  0
  -18.0240  -26.0085   22.9019 H   0  0  0  0  0  0
  -19.7934  -30.7323   24.2189 H   0  0  0  0  0  0
  -17.4993  -31.6264   24.5175 H   0  0  0  0  0  0
  -15.5340  -30.2918   23.7706 H   0  0  0  0  0  0
  -15.8704  -28.0788   22.7062 H   0  0  0  0  0  0
  -24.5857  -30.7054   25.7762 H   0  0  0  0  0  0
  -24.8759  -32.2870   26.4880 H   0  0  0  0  0  0
  -25.7890  -30.8905   27.0294 H   0  0  0  0  0  0
  -26.3028  -29.6738   24.1256 H   0  0  0  0  0  0
  -27.4023  -29.7319   25.4848 H   0  0  0  0  0  0
  -27.8883  -30.4359   23.9604 H   0  0  0  0  0  0
  -27.2757  -33.3741   26.1941 H   0  0  0  0  0  0
  -28.3866  -32.6738   25.0281 H   0  0  0  0  0  0
  -28.0700  -31.8534   26.5488 H   0  0  0  0  0  0
  -28.2565  -38.0088   24.7526 H   0  0  0  0  0  0
  -28.1056  -36.2623   24.6266 H   0  0  0  0  0  0
  -27.2282  -37.1383   25.8867 H   0  0  0  0  0  0
  -20.9451  -29.8761   21.6854 H   0  0  0  0  0  0
  -26.0152  -38.2835   24.1437 H   0  0  0  0  0  0
  -26.7934  -20.3530   20.2170 H   0  0  0  0  0  0
  -30.9657  -21.0364   20.9315 H   0  0  0  0  0  0
  -26.3892  -22.7510   20.2345 H   0  0  0  0  0  0
  -30.5457  -23.4549   20.9401 H   0  0  0  0  0  0
  -26.1340  -24.2016   23.8918 H   0  0  0  0  0  0
  -27.8791  -24.3534   23.8559 H   0  0  0  0  0  0
  -27.0895  -23.0466   22.9780 H   0  0  0  0  0  0
  -28.0963  -16.0969   22.1307 H   0  0  0  0  0  0
  -29.5229  -16.8941   22.8071 H   0  0  0  0  0  0
  -29.4599  -15.1891   22.8077 H   0  0  0  0  0  0
  -27.9956  -18.4498   20.9470 H   0  0  0  0  0  0
  -29.2833  -18.8531   22.0127 H   0  0  0  0  0  0
  -26.7689  -26.0264   22.4032 H   0  0  0  0  0  0
  -25.9668  -24.7809   21.4895 H   0  0  0  0  0  0
  -30.9739  -17.8028   20.3911 H   0  0  0  0  0  0
  -29.7062  -17.4704   19.2549 H   0  0  0  0  0  0
  -28.9498  -25.1292   21.6901 H   0  0  0  0  0  0
  1 25  1  0  0  0
  1 30  2  0  0  0
  1 83  1  0  0  0
  2  3  1  0  0  0
  2 25  1  0  0  0
  2 84  1  0  0  0
  2 85  1  0  0  0
  3  4  1  0  0  0
  3 86  1  0  0  0
  3 87  1  0  0  0
  4  5  1  0  0  0
  4 88  1  0  0  0
  4 89  1  0  0  0
  5  6  1  0  0  0
  5 26  1  0  0  0
  5 90  1  0  0  0
  6 25  1  0  0  0
  6 91  1  0  0  0
  6 92  1  0  0  0
  7  8  2  0  0  0
  7 26  1  0  0  0
  7 29  1  0  0  0
  8  9  1  0  0  0
  8 22  1  0  0  0
  9 10  1  0  0  0
  9 27  2  0  0  0
 10 11  2  0  0  0
 10 15  1  0  0  0
 11 12  1  0  0  0
 11 93  1  0  0  0
 12 13  2  0  0  0
 12 94  1  0  0  0
 13 14  1  0  0  0
 13 31  1  0  0  0
 14 15  2  0  0  0
 14 95  1  0  0  0
 15 96  1  0  0  0
 16 17  2  0  0  0
 16 21  1  0  0  0
 16 31  1  0  0  0
 17 18  1  0  0  0
 17 97  1  0  0  0
 18 19  2  0  0  0
 18 98  1  0  0  0
 19 20  1  0  0  0
 19 24  1  0  0  0
 20 21  2  0  0  0
 20 99  1  0  0  0
 21 23  1  0  0  0
 22 28  1  0  0  0
 22 32  2  0  0  0
 26 27  1  0  0  0
 28100  1  0  0  0
 28101  1  0  0  0
 29102  1  0  0  0
 29103  1  0  0  0
 33 34  1  0  0  0
 33 66  1  0  0  0
 33 70  2  0  0  0
 34 36  1  0  0  0
 34 59  1  0  0  0
 34104  1  0  0  0
 35 44  2  0  0  0
 35 45  1  0  0  0
 35 68  1  0  0  0
 36 56  1  0  0  0
 36105  1  0  0  0
 37 39  1  0  0  0
 37 47  1  0  0  0
 37 66  1  0  0  0
 37106  1  0  0  0
 38 43  2  0  0  0
 38 46  1  0  0  0
 38 47  1  0  0  0
 39 64  1  0  0  0
 39 67  2  0  0  0
 40 52  1  0  0  0
 40 53  2  0  0  0
 40 58  1  0  0  0
 41107  1  0  0  0
 41108  1  0  0  0
 41109  1  0  0  0
 41 48  1  0  0  0
 42 43  1  0  0  0
 42 66  1  0  0  0
 42110  1  0  0  0
 42111  1  0  0  0
 43 44  1  0  0  0
 44112  1  0  0  0
 45 46  2  0  0  0
 45113  1  0  0  0
 46114  1  0  0  0
 47115  1  0  0  0
 47116  1  0  0  0
 48 56  1  0  0  0
 48 65  1  0  0  0
 48117  1  0  0  0
 49 50  1  0  0  0
 49 53  1  0  0  0
 49 64  1  0  0  0
 49118  1  0  0  0
 50 51  1  0  0  0
 50119  1  0  0  0
 50120  1  0  0  0
 51 52  1  0  0  0
 51121  1  0  0  0
 51122  1  0  0  0
 52123  1  0  0  0
 52124  1  0  0  0
 53 54  1  0  0  0
 54 55  2  0  0  0
 54125  1  0  0  0
 55 57  1  0  0  0
 55126  1  0  0  0
 56 69  2  0  0  0
 57 58  2  0  0  0
 57127  1  0  0  0
 58128  1  0  0  0
 59 60  1  0  0  0
 59 61  1  0  0  0
 59 62  1  0  0  0
 60129  1  0  0  0
 60130  1  0  0  0
 60131  1  0  0  0
 61132  1  0  0  0
 61133  1  0  0  0
 61134  1  0  0  0
 62135  1  0  0  0
 62136  1  0  0  0
 62137  1  0  0  0
 63 65  1  0  0  0
 63138  1  0  0  0
 63139  1  0  0  0
 63140  1  0  0  0
 64141  1  0  0  0
 65142  1  0  0  0
 68 82  1  0  0  0
 71 73  2  0  0  0
 71 75  1  0  0  0
 71143  1  0  0  0
 72 74  1  0  0  0
 72 75  2  0  0  0
 72144  1  0  0  0
 73 76  1  0  0  0
 73145  1  0  0  0
 74 76  2  0  0  0
 74146  1  0  0  0
 75 79  1  0  0  0
 76 82  1  0  0  0
 77 80  1  0  0  0
 77147  1  0  0  0
 77148  1  0  0  0
 77149  1  0  0  0
 78 83  1  0  0  0
 78150  1  0  0  0
 78151  1  0  0  0
 78152  1  0  0  0
 79 81  1  0  0  0
 79153  1  0  0  0
 79154  1  0  0  0
 80155  1  0  0  0
 80156  1  0  0  0
 80 82  1  0  0  0
 81 83  1  0  0  0
 81157  1  0  0  0
 81158  1  0  0  0
 82159  1  0  0  0
M  ISO  4   1 100  68 101  82 101  83 100
M  END
> <chiral flag>
0

> <version>
0

> <s_m_source_file>
/data/baiqing/PycharmProjects/Reinvent-master-3.2/result/LINK_invent/BTK/process_docking_weight1_custom_sum_contain_oxygen_bond_distance_aromatic_linkinvent_7_9_3/rearranged_h_0120.sdf

> <i_m_source_file_index>
35

> <r_mmod_Potential_Energy-OPLS-2005>
612.410522460938

> <r_mmod_Stretch_Energy-OPLS-2005>
205.314468383789

> <r_mmod_Bend_Energy-OPLS-2005>
255.572967529297

> <r_mmod_Torsional_Energy-OPLS-2005>
326.4697265625

> <r_mmod_Improper_Torsional_Energy-OPLS-2005>
11.9999732971191

> <r_mmod_Van_der_Waal_Energy-OPLS-2005>
143.058486938477

> <r_mmod_Electrostatic_Energy-OPLS-2005>
-285.659790039062

> <r_mmod_Solvation_Energy-OPLS-2005>
-190.818603515625

> <b_mmod_Minimization_Converged-OPLS-2005>
0

> <r_mmod_RMS_Derivative-OPLS-2005>
4.10069704055786

$$$$
35
                    3D
 Structure written by MMmdl.
160168  0  0  1  0            999 V2000
  -30.0943  -15.7161   20.4061 C   0  0  0  0  0  0
  -30.3926  -13.1637   19.5575 C   0  0  0  0  0  0
  -29.5452  -12.6800   18.3414 C   0  0  0  0  0  0
  -28.1243  -12.2884   18.7762 C   0  0  0  0  0  0
  -27.5711  -13.2937   19.8097 C   0  0  2  0  0  0
  -28.5552  -13.6217   20.9468 C   0  0  0  0  0  0
  -25.2214  -13.8230   20.5761 C   0  0  0  0  0  0
  -24.1621  -13.0399   20.9308 C   0  0  0  0  0  0
  -24.6311  -11.6907   20.8774 C   0  0  0  0  0  0
  -23.9040  -10.4271   21.0421 C   0  0  0  0  0  0
  -24.3607   -9.4195   21.9195 C   0  0  0  0  0  0
  -23.6289   -8.2227   22.0758 C   0  0  0  0  0  0
  -22.4272   -8.0263   21.3544 C   0  0  0  0  0  0
  -21.9902   -9.0231   20.4646 C   0  0  0  0  0  0
  -22.7221  -10.2112   20.3060 C   0  0  0  0  0  0
  -21.6856   -6.0727   22.5278 C   0  0  0  0  0  0
  -21.4015   -6.5636   23.8209 C   0  0  0  0  0  0
  -21.3656   -5.6792   24.9173 C   0  0  0  0  0  0
  -21.6043   -4.3054   24.7228 C   0  0  0  0  0  0
  -21.8818   -3.8142   23.4351 C   0  0  0  0  0  0
  -21.9195   -4.6956   22.3405 C   0  0  0  0  0  0
  -22.7656  -13.5161   21.1946 C   0  0  0  0  0  0
  -22.1663   -4.2141   21.0983 F   0  0  0  0  0  0
  -21.5627   -3.4538   25.7742 F   0  0  0  0  0  0
  -29.6854  -14.3112   20.3028 N   0  0  0  0  0  0
  -26.2575  -12.9502   20.3114 N   0  0  0  0  0  0
  -25.9225  -11.6601   20.5654 N   0  0  0  0  0  0
  -22.0321  -12.8147   22.0499 N   0  0  0  0  0  0
  -25.3836  -15.1969   20.4185 N   0  0  0  0  0  0
  -31.3407  -15.7188   20.2765 O   0  0  0  0  0  0
  -21.6636   -6.8863   21.4239 O   0  0  0  0  0  0
  -22.3356  -14.5469   20.6784 O   0  0  0  0  0  0
  -24.6028  -31.8519   23.2133 C   0  0  0  0  0  0
  -25.8926  -32.4752   23.8453 C   0  0  1  0  0  0
  -28.1439  -26.5754   19.9386 C   0  0  0  0  0  0
  -25.5790  -33.8589   24.2315 N   0  0  0  0  0  0
  -23.3865  -30.4227   21.5694 C   0  0  2  0  0  0
  -24.5026  -28.4832   20.2761 C   0  0  0  0  0  0
  -22.7142  -29.4559   22.5534 C   0  0  0  0  0  0
  -18.0169  -28.1352   22.8513 C   0  0  0  0  0  0
  -24.1487  -36.7316   23.2642 C   0  0  0  0  0  0
  -25.9627  -30.6260   21.5673 C   0  0  0  0  0  0
  -26.0693  -29.1430   21.2687 C   0  0  0  0  0  0
  -27.8550  -28.2522   21.0621 C   0  0  0  0  0  0
  -26.3176  -25.7807   18.7274 C   0  0  0  0  0  0
  -24.5580  -26.7985   19.1283 C   0  0  0  0  0  0
  -23.4883  -29.6155   20.2236 C   0  0  0  0  0  0
  -25.4100  -36.3100   24.0345 C   0  0  1  0  0  0
  -20.5683  -28.3559   23.1532 C   0  0  2  0  0  0
  -20.6673  -26.9373   22.5463 C   0  0  0  0  0  0
  -19.5684  -26.6414   21.5216 C   0  0  0  0  0  0
  -18.1851  -26.7913   22.1618 C   0  0  0  0  0  0
  -19.1390  -28.8778   23.3009 C   0  0  0  0  0  0
  -18.9349  -30.1401   23.8993 C   0  0  0  0  0  0
  -17.6367  -30.6582   24.0580 C   0  0  0  0  0  0
  -25.9005  -34.9448   23.5142 C   0  0  0  0  0  0
  -16.5263  -29.9104   23.6291 C   0  0  0  0  0  0
  -16.7170  -28.6515   23.0313 C   0  0  0  0  0  0
  -26.4418  -31.6631   25.0856 C   0  0  0  0  0  0
  -25.3646  -31.3808   26.1573 C   0  0  0  0  0  0
  -27.0342  -30.2992   24.6601 C   0  0  0  0  0  0
  -27.5973  -32.4445   25.7542 C   0  0  0  0  0  0
  -27.5579  -37.1801   24.8469 C   0  0  0  0  0  0
  -21.3923  -29.2997   22.4105 N   0  0  0  0  0  0
  -26.4299  -37.3773   23.9402 N   0  0  0  0  0  0
  -24.6616  -31.0054   22.1427 N   0  0  0  0  0  0
  -23.3838  -28.8199   23.3709 O   0  0  0  0  0  0
  -29.3392  -26.3871   19.5030 O   0  0  0  0  0  0
  -26.5609  -34.8897   22.4730 O   0  0  0  0  0  0
  -23.5184  -32.1652   23.7229 O   0  0  0  0  0  0
  -28.1484  -20.4107   20.2929 C   0  0  0  0  0  0
  -26.4979  -28.7657   19.0783 C   0  0  0  0  0  0
  -26.0482  -26.9392   20.7866 C   0  0  0  0  0  0
  -25.7935  -28.4368   17.8508 C   0  0  0  0  0  0
  -26.6074  -27.8394   19.1512 C   0  0  0  0  0  0
  -29.0824  -18.8195   20.7875 C   0  0  0  0  0  0
  -26.5151  -25.3233   20.8783 C   0  0  0  0  0  0
  -28.0174  -27.5745   17.8430 C   0  0  0  0  0  0
  -27.2594  -23.5222   20.3107 C   0  0  0  0  0  0
  -29.1352  -26.5095   18.1187 C   0  0  0  0  0  0
  -27.8700  -21.8794   20.8204 N   0  0  0  0  0  0
  -29.1992  -17.0242   20.4933 N   0  0  0  0  0  0
  -27.6323  -20.2428   19.1878 O   0  0  0  0  0  0
  -31.3641  -13.4966   19.1902 H   0  0  0  0  0  0
  -30.6121  -12.3329   20.2302 H   0  0  0  0  0  0
  -30.0334  -11.8436   17.8395 H   0  0  0  0  0  0
  -29.4857  -13.4851   17.6075 H   0  0  0  0  0  0
  -28.1717  -11.2958   19.2260 H   0  0  0  0  0  0
  -27.4622  -12.2065   17.9134 H   0  0  0  0  0  0
  -27.4334  -14.2126   19.2373 H   0  0  0  0  0  0
  -28.8491  -12.7338   21.5091 H   0  0  0  0  0  0
  -28.0920  -14.3022   21.6633 H   0  0  0  0  0  0
  -25.2746   -9.5688   22.4774 H   0  0  0  0  0  0
  -23.9998   -7.4625   22.7485 H   0  0  0  0  0  0
  -21.0831   -8.8748   19.8958 H   0  0  0  0  0  0
  -22.3672  -10.9654   19.6176 H   0  0  0  0  0  0
  -21.2006   -7.6145   23.9710 H   0  0  0  0  0  0
  -21.1478   -6.0524   25.9076 H   0  0  0  0  0  0
  -22.0602   -2.7604   23.2854 H   0  0  0  0  0  0
  -22.3959  -11.9814   22.4880 H   0  0  0  0  0  0
  -21.0934  -13.1155   22.2705 H   0  0  0  0  0  0
  -24.6051  -15.8390   20.5221 H   0  0  0  0  0  0
  -26.1918  -15.6248   19.9886 H   0  0  0  0  0  0
  -26.6971  -32.5581   23.1205 H   0  0  0  0  0  0
  -24.9908  -33.9781   25.0432 H   0  0  0  0  0  0
  -22.7026  -31.2560   21.3955 H   0  0  0  0  0  0
  -23.3732  -35.9668   23.3325 H   0  0  0  0  0  0
  -24.3582  -36.8900   22.2051 H   0  0  0  0  0  0
  -23.7258  -37.6539   23.6635 H   0  0  0  0  0  0
  -26.0931  -31.2137   20.6599 H   0  0  0  0  0  0
  -26.8513  -30.8267   22.1439 H   0  0  0  0  0  0
  -28.7270  -28.7641   21.4430 H   0  0  0  0  0  0
  -26.3859  -25.0042   17.9785 H   0  0  0  0  0  0
  -23.6813  -26.5376   18.5536 H   0  0  0  0  0  0
  -23.7660  -30.3022   19.4248 H   0  0  0  0  0  0
  -22.5231  -29.2016   19.9284 H   0  0  0  0  0  0
  -25.1277  -36.1981   25.0840 H   0  0  0  0  0  0
  -20.9668  -28.3025   24.1691 H   0  0  0  0  0  0
  -20.5596  -26.2149   23.3566 H   0  0  0  0  0  0
  -21.6562  -26.7510   22.1250 H   0  0  0  0  0  0
  -19.6863  -25.6352   21.1182 H   0  0  0  0  0  0
  -19.6639  -27.3283   20.6795 H   0  0  0  0  0  0
  -17.4133  -26.6667   21.4008 H   0  0  0  0  0  0
  -18.0261  -26.0029   22.8987 H   0  0  0  0  0  0
  -19.7827  -30.7179   24.2424 H   0  0  0  0  0  0
  -17.4925  -31.6268   24.5171 H   0  0  0  0  0  0
  -15.5269  -30.3039   23.7554 H   0  0  0  0  0  0
  -15.8568  -28.0872   22.6965 H   0  0  0  0  0  0
  -24.5841  -30.7126   25.7914 H   0  0  0  0  0  0
  -24.8814  -32.2980   26.4947 H   0  0  0  0  0  0
  -25.7962  -30.9037   27.0382 H   0  0  0  0  0  0
  -26.2962  -29.6594   24.1758 H   0  0  0  0  0  0
  -27.3967  -29.7429   25.5256 H   0  0  0  0  0  0
  -27.8902  -30.4131   23.9947 H   0  0  0  0  0  0
  -27.2578  -33.3785   26.2033 H   0  0  0  0  0  0
  -28.3769  -32.6944   25.0334 H   0  0  0  0  0  0
  -28.0661  -31.8661   26.5514 H   0  0  0  0  0  0
  -28.2620  -38.0076   24.7489 H   0  0  0  0  0  0
  -28.1051  -36.2606   24.6332 H   0  0  0  0  0  0
  -27.2294  -37.1498   25.8873 H   0  0  0  0  0  0
  -20.9182  -29.8600   21.7163 H   0  0  0  0  0  0
  -26.0200  -38.2866   24.1362 H   0  0  0  0  0  0
  -27.3581  -29.6230   19.0765 H   0  0  0  0  0  0
  -25.9696  -29.7931   19.0866 H   0  0  0  0  0  0
  -25.0323  -26.7315   21.2805 H   0  0  0  0  0  0
  -26.2531  -27.1059   21.9041 H   0  0  0  0  0  0
  -24.7739  -28.8344   17.8756 H   0  0  0  0  0  0
  -26.3086  -29.0118   17.0776 H   0  0  0  0  0  0
  -28.9651  -18.8449   21.8710 H   0  0  0  0  0  0
  -30.1171  -19.1305   20.6429 H   0  0  0  0  0  0
  -25.5245  -24.8724   21.1175 H   0  0  0  0  0  0
  -27.0876  -25.3352   21.8334 H   0  0  0  0  0  0
  -28.5548  -28.5068   17.6483 H   0  0  0  0  0  0
  -27.6252  -27.2948   16.8611 H   0  0  0  0  0  0
  -28.1431  -23.8307   19.7531 H   0  0  0  0  0  0
  -26.5633  -23.2148   19.5302 H   0  0  0  0  0  0
  -30.0682  -26.7980   17.6336 H   0  0  0  0  0  0
  -28.8647  -25.5350   17.7050 H   0  0  0  0  0  0
  -28.2559  -21.9498   21.7546 H   0  0  0  0  0  0
  -28.2480  -16.6919   20.4363 H   0  0  0  0  0  0
  1 25  1  0  0  0
  1 30  2  0  0  0
  1 82  1  0  0  0
  2  3  1  0  0  0
  2 25  1  0  0  0
  2 84  1  0  0  0
  2 85  1  0  0  0
  3  4  1  0  0  0
  3 86  1  0  0  0
  3 87  1  0  0  0
  4  5  1  0  0  0
  4 88  1  0  0  0
  4 89  1  0  0  0
  5  6  1  0  0  0
  5 26  1  0  0  0
  5 90  1  0  0  0
  6 25  1  0  0  0
  6 91  1  0  0  0
  6 92  1  0  0  0
  7  8  2  0  0  0
  7 26  1  0  0  0
  7 29  1  0  0  0
  8  9  1  0  0  0
  8 22  1  0  0  0
  9 10  1  0  0  0
  9 27  2  0  0  0
 10 11  2  0  0  0
 10 15  1  0  0  0
 11 12  1  0  0  0
 11 93  1  0  0  0
 12 13  2  0  0  0
 12 94  1  0  0  0
 13 14  1  0  0  0
 13 31  1  0  0  0
 14 15  2  0  0  0
 14 95  1  0  0  0
 15 96  1  0  0  0
 16 17  2  0  0  0
 16 21  1  0  0  0
 16 31  1  0  0  0
 17 18  1  0  0  0
 17 97  1  0  0  0
 18 19  2  0  0  0
 18 98  1  0  0  0
 19 20  1  0  0  0
 19 24  1  0  0  0
 20 21  2  0  0  0
 20 99  1  0  0  0
 21 23  1  0  0  0
 22 28  1  0  0  0
 22 32  2  0  0  0
 26 27  1  0  0  0
 28100  1  0  0  0
 28101  1  0  0  0
 29102  1  0  0  0
 29103  1  0  0  0
 33 34  1  0  0  0
 33 66  1  0  0  0
 33 70  2  0  0  0
 34 36  1  0  0  0
 34 59  1  0  0  0
 34104  1  0  0  0
 35 44  2  0  0  0
 35 45  1  0  0  0
 35 68  1  0  0  0
 36 56  1  0  0  0
 36105  1  0  0  0
 37 39  1  0  0  0
 37 47  1  0  0  0
 37 66  1  0  0  0
 37106  1  0  0  0
 38 43  2  0  0  0
 38 46  1  0  0  0
 38 47  1  0  0  0
 39 64  1  0  0  0
 39 67  2  0  0  0
 40 52  1  0  0  0
 40 53  2  0  0  0
 40 58  1  0  0  0
 41107  1  0  0  0
 41108  1  0  0  0
 41109  1  0  0  0
 41 48  1  0  0  0
 42 43  1  0  0  0
 42 66  1  0  0  0
 42110  1  0  0  0
 42111  1  0  0  0
 43 44  1  0  0  0
 44112  1  0  0  0
 45 46  2  0  0  0
 45113  1  0  0  0
 46114  1  0  0  0
 47115  1  0  0  0
 47116  1  0  0  0
 48 56  1  0  0  0
 48 65  1  0  0  0
 48117  1  0  0  0
 49 50  1  0  0  0
 49 53  1  0  0  0
 49 64  1  0  0  0
 49118  1  0  0  0
 50 51  1  0  0  0
 50119  1  0  0  0
 50120  1  0  0  0
 51 52  1  0  0  0
 51121  1  0  0  0
 51122  1  0  0  0
 52123  1  0  0  0
 52124  1  0  0  0
 53 54  1  0  0  0
 54 55  2  0  0  0
 54125  1  0  0  0
 55 57  1  0  0  0
 55126  1  0  0  0
 56 69  2  0  0  0
 57 58  2  0  0  0
 57127  1  0  0  0
 58128  1  0  0  0
 59 60  1  0  0  0
 59 61  1  0  0  0
 59 62  1  0  0  0
 60129  1  0  0  0
 60130  1  0  0  0
 60131  1  0  0  0
 61132  1  0  0  0
 61133  1  0  0  0
 61134  1  0  0  0
 62135  1  0  0  0
 62136  1  0  0  0
 62137  1  0  0  0
 63 65  1  0  0  0
 63138  1  0  0  0
 63139  1  0  0  0
 63140  1  0  0  0
 64141  1  0  0  0
 65142  1  0  0  0
 68 80  1  0  0  0
 71 76  1  0  0  0
 71 81  1  0  0  0
 71 83  2  0  0  0
 72 73  1  0  0  0
 72 74  1  0  0  0
 72143  1  0  0  0
 72144  1  0  0  0
 73 75  1  0  0  0
 73145  1  0  0  0
 73146  1  0  0  0
 74 75  1  0  0  0
 74147  1  0  0  0
 74148  1  0  0  0
 75 77  1  0  0  0
 75 78  1  0  0  0
 76 82  1  0  0  0
 76149  1  0  0  0
 76150  1  0  0  0
 77 79  1  0  0  0
 77151  1  0  0  0
 77152  1  0  0  0
 78 80  1  0  0  0
 78153  1  0  0  0
 78154  1  0  0  0
 79 81  1  0  0  0
 79155  1  0  0  0
 79156  1  0  0  0
 80157  1  0  0  0
 80158  1  0  0  0
 81159  1  0  0  0
 82160  1  0  0  0
M  ISO  4   1 100  68 101  80 101  82 100
M  END
> <chiral flag>
0

> <version>
0

> <s_m_source_file>
/data/baiqing/PycharmProjects/Reinvent-master-3.2/result/LINK_invent/BTK/process_docking_weight1_custom_sum_contain_oxygen_bond_distance_aromatic_linkinvent_7_9_3/rearranged_h_0120.sdf

> <i_m_source_file_index>
36

> <r_mmod_Potential_Energy-OPLS-2005>
19065.89453125

> <r_mmod_Stretch_Energy-OPLS-2005>
10935.54296875

> <r_mmod_Bend_Energy-OPLS-2005>
2612.26342773438

> <r_mmod_Torsional_Energy-OPLS-2005>
321.298889160156

> <r_mmod_Improper_Torsional_Energy-OPLS-2005>
24.5553493499756

> <r_mmod_Van_der_Waal_Energy-OPLS-2005>
4397.21533203125

> <r_mmod_Electrostatic_Energy-OPLS-2005>
-438.029754638672

> <r_mmod_Solvation_Energy-OPLS-2005>
-247.497406005859

> <b_mmod_Minimization_Converged-OPLS-2005>
0

> <r_mmod_RMS_Derivative-OPLS-2005>
1.67728316783905

$$$$
36
                    3D
 Structure written by MMmdl.
160169  0  0  1  0            999 V2000
  -30.6393  -14.5397   20.5121 C   0  0  0  0  0  0
  -30.4253  -12.3285   19.4364 C   0  0  0  0  0  0
  -29.4968  -12.4858   18.2127 C   0  0  0  0  0  0
  -28.0187  -12.3419   18.6242 C   0  0  0  0  0  0
  -27.6540  -13.2024   19.8642 C   0  0  2  0  0  0
  -28.6933  -13.0123   20.9922 C   0  0  0  0  0  0
  -25.2579  -13.8173   20.5652 C   0  0  0  0  0  0
  -24.1847  -13.0449   20.9192 C   0  0  0  0  0  0
  -24.6389  -11.6921   20.8755 C   0  0  0  0  0  0
  -23.9054  -10.4306   21.0417 C   0  0  0  0  0  0
  -24.3624   -9.4228   21.9196 C   0  0  0  0  0  0
  -23.6314   -8.2252   22.0754 C   0  0  0  0  0  0
  -22.4295   -8.0291   21.3533 C   0  0  0  0  0  0
  -21.9923   -9.0270   20.4630 C   0  0  0  0  0  0
  -22.7234  -10.2162   20.3040 C   0  0  0  0  0  0
  -21.6864   -6.0755   22.5284 C   0  0  0  0  0  0
  -21.4029   -6.5652   23.8218 C   0  0  0  0  0  0
  -21.3663   -5.6793   24.9172 C   0  0  0  0  0  0
  -21.6049   -4.3049   24.7213 C   0  0  0  0  0  0
  -21.8817   -3.8154   23.4324 C   0  0  0  0  0  0
  -21.9199   -4.6982   22.3396 C   0  0  0  0  0  0
  -22.7873  -13.5247   21.1873 C   0  0  0  0  0  0
  -22.1660   -4.2170   21.0959 F   0  0  0  0  0  0
  -21.5625   -3.4512   25.7710 F   0  0  0  0  0  0
  -30.0166  -13.3299   20.4375 N   0  0  0  0  0  0
  -26.2985  -12.9309   20.3294 N   0  0  0  0  0  0
  -25.9296  -11.6487   20.5758 N   0  0  0  0  0  0
  -22.0513  -12.8245   22.0414 N   0  0  0  0  0  0
  -25.4311  -15.1884   20.4034 N   0  0  0  0  0  0
  -31.7929  -14.7154   20.1112 O   0  0  0  0  0  0
  -21.6638   -6.8906   21.4242 O   0  0  0  0  0  0
  -22.3571  -14.5562   20.6707 O   0  0  0  0  0  0
  -24.6113  -31.8634   23.2023 C   0  0  0  0  0  0
  -25.9022  -32.4788   23.8332 C   0  0  1  0  0  0
  -27.2607  -27.4183   20.1125 C   0  0  0  0  0  0
  -25.5892  -33.8588   24.2257 N   0  0  0  0  0  0
  -23.4029  -30.4787   21.5401 C   0  0  2  0  0  0
  -24.8618  -28.9395   20.1108 C   0  0  0  0  0  0
  -22.7398  -29.4615   22.4969 C   0  0  0  0  0  0
  -18.0262  -28.1350   22.8506 C   0  0  0  0  0  0
  -24.1502  -36.7306   23.2636 C   0  0  0  0  0  0
  -25.9288  -30.8289   21.3572 C   0  0  0  0  0  0
  -26.0146  -29.4580   20.7117 C   0  0  0  0  0  0
  -27.2103  -28.7021   20.7111 C   0  0  0  0  0  0
  -26.0929  -26.9207   19.4924 C   0  0  0  0  0  0
  -24.8984  -27.6737   19.4962 C   0  0  0  0  0  0
  -23.6149  -29.7964   20.1597 C   0  0  0  0  0  0
  -25.4122  -36.3067   24.0310 C   0  0  1  0  0  0
  -20.5850  -28.3618   23.1344 C   0  0  2  0  0  0
  -20.6753  -26.9359   22.5423 C   0  0  0  0  0  0
  -19.5729  -26.6353   21.5224 C   0  0  0  0  0  0
  -18.1912  -26.7898   22.1641 C   0  0  0  0  0  0
  -19.1512  -28.8800   23.2924 C   0  0  0  0  0  0
  -18.9444  -30.1413   23.8915 C   0  0  0  0  0  0
  -17.6451  -30.6567   24.0545 C   0  0  0  0  0  0
  -25.9040  -34.9446   23.5071 C   0  0  0  0  0  0
  -16.5340  -29.9066   23.6322 C   0  0  0  0  0  0
  -16.7253  -28.6479   23.0355 C   0  0  0  0  0  0
  -26.4454  -31.6592   25.0671 C   0  0  0  0  0  0
  -25.3712  -31.3777   26.1421 C   0  0  0  0  0  0
  -27.0284  -30.3016   24.6097 C   0  0  0  0  0  0
  -27.5996  -32.4336   25.7470 C   0  0  0  0  0  0
  -27.5581  -37.1798   24.8446 C   0  0  0  0  0  0
  -21.4121  -29.2985   22.3736 N   0  0  0  0  0  0
  -26.4289  -37.3766   23.9395 N   0  0  0  0  0  0
  -24.6652  -31.0718   22.0933 N   0  0  0  0  0  0
  -23.4182  -28.8175   23.3017 O   0  0  0  0  0  0
  -28.4567  -26.7193   20.1740 O   0  0  0  0  0  0
  -26.5606  -34.8909   22.4635 O   0  0  0  0  0  0
  -23.5303  -32.1408   23.7413 O   0  0  0  0  0  0
  -28.4842  -21.7164   20.3175 C   0  0  0  0  0  0
  -28.6703  -22.9862   20.9155 C   0  0  0  0  0  0
  -29.1597  -20.6137   20.8833 C   0  0  0  0  0  0
  -30.1100  -22.0176   22.4148 C   0  0  0  0  0  0
  -30.7652  -21.5229   24.8792 C   0  0  0  0  0  0
  -30.7676  -23.0237   24.7755 C   0  0  0  0  0  0
  -31.0735  -22.1807   23.5511 C   0  0  0  0  0  0
  -27.8668  -24.2465   20.5231 C   0  0  0  0  0  0
  -29.2302  -18.0783   21.1426 C   0  0  0  0  0  0
  -30.0896  -16.9966   20.4127 C   0  0  0  0  0  0
  -28.6127  -25.3538   19.7191 C   0  0  0  0  0  0
  -29.5073  -23.1153   21.9631 N   0  0  0  0  0  0
  -29.9698  -20.7849   21.9350 N   0  0  0  0  0  0
  -29.0455  -19.3137   20.3499 N   0  0  0  0  0  0
  -29.8347  -15.5910   20.8115 N   0  0  0  0  0  0
  -31.4665  -12.4419   19.1336 H   0  0  0  0  0  0
  -30.3422  -11.3215   19.8491 H   0  0  0  0  0  0
  -29.7463  -11.7376   17.4567 H   0  0  0  0  0  0
  -29.6618  -13.4580   17.7473 H   0  0  0  0  0  0
  -27.8455  -11.2873   18.8458 H   0  0  0  0  0  0
  -27.3674  -12.5830   17.7814 H   0  0  0  0  0  0
  -27.6845  -14.2436   19.5457 H   0  0  0  0  0  0
  -28.6811  -11.9783   21.3449 H   0  0  0  0  0  0
  -28.4527  -13.6268   21.8600 H   0  0  0  0  0  0
  -25.2773   -9.5705   22.4760 H   0  0  0  0  0  0
  -24.0027   -7.4639   22.7464 H   0  0  0  0  0  0
  -21.0862   -8.8776   19.8945 H   0  0  0  0  0  0
  -22.3695  -10.9694   19.6137 H   0  0  0  0  0  0
  -21.2012   -7.6158   23.9722 H   0  0  0  0  0  0
  -21.1500   -6.0518   25.9081 H   0  0  0  0  0  0
  -22.0594   -2.7614   23.2799 H   0  0  0  0  0  0
  -22.4114  -11.9891   22.4779 H   0  0  0  0  0  0
  -21.1134  -13.1283   22.2612 H   0  0  0  0  0  0
  -24.6599  -15.8400   20.4976 H   0  0  0  0  0  0
  -26.2674  -15.6185   20.0277 H   0  0  0  0  0  0
  -26.7099  -32.5502   23.1104 H   0  0  0  0  0  0
  -25.0032  -33.9779   25.0391 H   0  0  0  0  0  0
  -22.6897  -31.2918   21.3892 H   0  0  0  0  0  0
  -23.3741  -35.9660   23.3274 H   0  0  0  0  0  0
  -24.3592  -36.8954   22.2054 H   0  0  0  0  0  0
  -23.7297  -37.6514   23.6682 H   0  0  0  0  0  0
  -26.0337  -31.5978   20.5901 H   0  0  0  0  0  0
  -26.8167  -30.8899   21.9765 H   0  0  0  0  0  0
  -28.0991  -29.0967   21.1856 H   0  0  0  0  0  0
  -26.0926  -25.9572   19.0063 H   0  0  0  0  0  0
  -24.0128  -27.2737   19.0242 H   0  0  0  0  0  0
  -23.7077  -30.5582   19.3847 H   0  0  0  0  0  0
  -22.7478  -29.1962   19.8745 H   0  0  0  0  0  0
  -25.1315  -36.1895   25.0803 H   0  0  0  0  0  0
  -20.9953  -28.3159   24.1464 H   0  0  0  0  0  0
  -20.5665  -26.2206   23.3590 H   0  0  0  0  0  0
  -21.6618  -26.7405   22.1201 H   0  0  0  0  0  0
  -19.6877  -25.6268   21.1236 H   0  0  0  0  0  0
  -19.6671  -27.3176   20.6767 H   0  0  0  0  0  0
  -17.4178  -26.6637   21.4043 H   0  0  0  0  0  0
  -18.0310  -26.0032   22.9030 H   0  0  0  0  0  0
  -19.7918  -30.7215   24.2303 H   0  0  0  0  0  0
  -17.5004  -31.6261   24.5117 H   0  0  0  0  0  0
  -15.5338  -30.2971   23.7630 H   0  0  0  0  0  0
  -15.8657  -28.0795   22.7076 H   0  0  0  0  0  0
  -24.5819  -30.7202   25.7763 H   0  0  0  0  0  0
  -24.8995  -32.2985   26.4850 H   0  0  0  0  0  0
  -25.8027  -30.8928   27.0184 H   0  0  0  0  0  0
  -26.2847  -29.6786   24.1111 H   0  0  0  0  0  0
  -27.3979  -29.7249   25.4587 H   0  0  0  0  0  0
  -27.8704  -30.4279   23.9289 H   0  0  0  0  0  0
  -27.2552  -33.3605   26.2072 H   0  0  0  0  0  0
  -28.3815  -32.6962   25.0333 H   0  0  0  0  0  0
  -28.0655  -31.8458   26.5391 H   0  0  0  0  0  0
  -28.2559  -38.0134   24.7500 H   0  0  0  0  0  0
  -28.1113  -36.2650   24.6245 H   0  0  0  0  0  0
  -27.2290  -37.1411   25.8848 H   0  0  0  0  0  0
  -20.9268  -29.8697   21.6966 H   0  0  0  0  0  0
  -26.0148  -38.2823   24.1423 H   0  0  0  0  0  0
  -27.8187  -21.6079   19.4710 H   0  0  0  0  0  0
  -29.7991  -21.0344   24.9788 H   0  0  0  0  0  0
  -31.5896  -21.0383   25.3966 H   0  0  0  0  0  0
  -31.5964  -23.5583   25.2349 H   0  0  0  0  0  0
  -29.8060  -23.5297   24.8179 H   0  0  0  0  0  0
  -32.1024  -22.1753   23.1984 H   0  0  0  0  0  0
  -27.4694  -24.6807   21.4384 H   0  0  0  0  0  0
  -26.9978  -23.9273   19.9504 H   0  0  0  0  0  0
  -29.6387  -18.2808   22.1340 H   0  0  0  0  0  0
  -28.2289  -17.6778   21.3119 H   0  0  0  0  0  0
  -31.1479  -17.2378   20.5231 H   0  0  0  0  0  0
  -29.8767  -17.0473   19.3439 H   0  0  0  0  0  0
  -28.4097  -25.2756   18.6503 H   0  0  0  0  0  0
  -29.6817  -25.1598   19.8149 H   0  0  0  0  0  0
  -28.4042  -19.2355   19.5705 H   0  0  0  0  0  0
  -28.8951  -15.3598   21.0957 H   0  0  0  0  0  0
  1 25  1  0  0  0
  1 30  2  0  0  0
  1 85  1  0  0  0
  2  3  1  0  0  0
  2 25  1  0  0  0
  2 86  1  0  0  0
  2 87  1  0  0  0
  3  4  1  0  0  0
  3 88  1  0  0  0
  3 89  1  0  0  0
  4  5  1  0  0  0
  4 90  1  0  0  0
  4 91  1  0  0  0
  5  6  1  0  0  0
  5 26  1  0  0  0
  5 92  1  0  0  0
  6 25  1  0  0  0
  6 93  1  0  0  0
  6 94  1  0  0  0
  7  8  2  0  0  0
  7 26  1  0  0  0
  7 29  1  0  0  0
  8  9  1  0  0  0
  8 22  1  0  0  0
  9 10  1  0  0  0
  9 27  2  0  0  0
 10 11  2  0  0  0
 10 15  1  0  0  0
 11 12  1  0  0  0
 11 95  1  0  0  0
 12 13  2  0  0  0
 12 96  1  0  0  0
 13 14  1  0  0  0
 13 31  1  0  0  0
 14 15  2  0  0  0
 14 97  1  0  0  0
 15 98  1  0  0  0
 16 17  2  0  0  0
 16 21  1  0  0  0
 16 31  1  0  0  0
 17 18  1  0  0  0
 17 99  1  0  0  0
 18 19  2  0  0  0
 18100  1  0  0  0
 19 20  1  0  0  0
 19 24  1  0  0  0
 20 21  2  0  0  0
 20101  1  0  0  0
 21 23  1  0  0  0
 22 28  1  0  0  0
 22 32  2  0  0  0
 26 27  1  0  0  0
 28102  1  0  0  0
 28103  1  0  0  0
 29104  1  0  0  0
 29105  1  0  0  0
 33 34  1  0  0  0
 33 66  1  0  0  0
 33 70  2  0  0  0
 34 36  1  0  0  0
 34 59  1  0  0  0
 34106  1  0  0  0
 35 44  2  0  0  0
 35 45  1  0  0  0
 35 68  1  0  0  0
 36 56  1  0  0  0
 36107  1  0  0  0
 37 39  1  0  0  0
 37 47  1  0  0  0
 37 66  1  0  0  0
 37108  1  0  0  0
 38 43  2  0  0  0
 38 46  1  0  0  0
 38 47  1  0  0  0
 39 64  1  0  0  0
 39 67  2  0  0  0
 40 52  1  0  0  0
 40 53  2  0  0  0
 40 58  1  0  0  0
 41109  1  0  0  0
 41110  1  0  0  0
 41111  1  0  0  0
 41 48  1  0  0  0
 42 43  1  0  0  0
 42 66  1  0  0  0
 42112  1  0  0  0
 42113  1  0  0  0
 43 44  1  0  0  0
 44114  1  0  0  0
 45 46  2  0  0  0
 45115  1  0  0  0
 46116  1  0  0  0
 47117  1  0  0  0
 47118  1  0  0  0
 48 56  1  0  0  0
 48 65  1  0  0  0
 48119  1  0  0  0
 49 50  1  0  0  0
 49 53  1  0  0  0
 49 64  1  0  0  0
 49120  1  0  0  0
 50 51  1  0  0  0
 50121  1  0  0  0
 50122  1  0  0  0
 51 52  1  0  0  0
 51123  1  0  0  0
 51124  1  0  0  0
 52125  1  0  0  0
 52126  1  0  0  0
 53 54  1  0  0  0
 54 55  2  0  0  0
 54127  1  0  0  0
 55 57  1  0  0  0
 55128  1  0  0  0
 56 69  2  0  0  0
 57 58  2  0  0  0
 57129  1  0  0  0
 58130  1  0  0  0
 59 60  1  0  0  0
 59 61  1  0  0  0
 59 62  1  0  0  0
 60131  1  0  0  0
 60132  1  0  0  0
 60133  1  0  0  0
 61134  1  0  0  0
 61135  1  0  0  0
 61136  1  0  0  0
 62137  1  0  0  0
 62138  1  0  0  0
 62139  1  0  0  0
 63 65  1  0  0  0
 63140  1  0  0  0
 63141  1  0  0  0
 63142  1  0  0  0
 64143  1  0  0  0
 65144  1  0  0  0
 68 81  1  0  0  0
 71 72  2  0  0  0
 71 73  1  0  0  0
 71145  1  0  0  0
 72 78  1  0  0  0
 72 82  1  0  0  0
 73 83  2  0  0  0
 73 84  1  0  0  0
 74 82  2  0  0  0
 74 83  1  0  0  0
 74 77  1  0  0  0
 75 76  1  0  0  0
 75 77  1  0  0  0
 75146  1  0  0  0
 75147  1  0  0  0
 76 77  1  0  0  0
 76148  1  0  0  0
 76149  1  0  0  0
 77150  1  0  0  0
 78 81  1  0  0  0
 78151  1  0  0  0
 78152  1  0  0  0
 79 80  1  0  0  0
 79 84  1  0  0  0
 79153  1  0  0  0
 79154  1  0  0  0
 80 85  1  0  0  0
 80155  1  0  0  0
 80156  1  0  0  0
 81157  1  0  0  0
 81158  1  0  0  0
 84159  1  0  0  0
 85160  1  0  0  0
M  ISO  4   1 100  68 101  81 101  85 100
M  END
> <chiral flag>
0

> <version>
0

> <s_m_source_file>
/data/baiqing/PycharmProjects/Reinvent-master-3.2/result/LINK_invent/BTK/process_docking_weight1_custom_sum_contain_oxygen_bond_distance_aromatic_linkinvent_7_9_3/rearranged_h_0120.sdf

> <i_m_source_file_index>
37

> <r_mmod_Potential_Energy-OPLS-2005>
-617.524353027344

> <r_mmod_Stretch_Energy-OPLS-2005>
43.1797370910645

> <r_mmod_Bend_Energy-OPLS-2005>
128.602203369141

> <r_mmod_Torsional_Energy-OPLS-2005>
206.744476318359

> <r_mmod_Improper_Torsional_Energy-OPLS-2005>
9.31348419189453

> <r_mmod_Van_der_Waal_Energy-OPLS-2005>
152.431243896484

> <r_mmod_Electrostatic_Energy-OPLS-2005>
-926.058776855469

> <r_mmod_Solvation_Energy-OPLS-2005>
-253.546127319336

> <b_mmod_Minimization_Converged-OPLS-2005>
0

> <r_mmod_RMS_Derivative-OPLS-2005>
3.67853784561157

$$$$
37
                    3D
 Structure written by MMmdl.
169178  0  0  1  0            999 V2000
  -30.6436  -14.6454   20.4842 C   0  0  0  0  0  0
  -30.4274  -12.3848   19.4739 C   0  0  0  0  0  0
  -29.5106  -12.4896   18.2352 C   0  0  0  0  0  0
  -28.0284  -12.3509   18.6362 C   0  0  0  0  0  0
  -27.6498  -13.2201   19.8666 C   0  0  2  0  0  0
  -28.6935  -13.1008   21.0013 C   0  0  0  0  0  0
  -25.2535  -13.8190   20.5681 C   0  0  0  0  0  0
  -24.1807  -13.0452   20.9199 C   0  0  0  0  0  0
  -24.6389  -11.6920   20.8755 C   0  0  0  0  0  0
  -23.9058  -10.4303   21.0410 C   0  0  0  0  0  0
  -24.3609   -9.4212   21.9184 C   0  0  0  0  0  0
  -23.6290   -8.2250   22.0752 C   0  0  0  0  0  0
  -22.4271   -8.0285   21.3541 C   0  0  0  0  0  0
  -21.9906   -9.0257   20.4644 C   0  0  0  0  0  0
  -22.7236  -10.2137   20.3055 C   0  0  0  0  0  0
  -21.6842   -6.0739   22.5277 C   0  0  0  0  0  0
  -21.4014   -6.5646   23.8214 C   0  0  0  0  0  0
  -21.3657   -5.6794   24.9173 C   0  0  0  0  0  0
  -21.6042   -4.3060   24.7218 C   0  0  0  0  0  0
  -21.8817   -3.8154   23.4339 C   0  0  0  0  0  0
  -21.9188   -4.6973   22.3394 C   0  0  0  0  0  0
  -22.7827  -13.5244   21.1849 C   0  0  0  0  0  0
  -22.1647   -4.2157   21.0972 F   0  0  0  0  0  0
  -21.5627   -3.4541   25.7727 F   0  0  0  0  0  0
  -30.0125  -13.4257   20.4398 N   0  0  0  0  0  0
  -26.2967  -12.9370   20.3343 N   0  0  0  0  0  0
  -25.9322  -11.6527   20.5795 N   0  0  0  0  0  0
  -22.0465  -12.8239   22.0406 N   0  0  0  0  0  0
  -25.4266  -15.1918   20.4067 N   0  0  0  0  0  0
  -31.7990  -14.7735   20.0645 O   0  0  0  0  0  0
  -21.6632   -6.8884   21.4240 O   0  0  0  0  0  0
  -22.3517  -14.5552   20.6695 O   0  0  0  0  0  0
  -24.6260  -31.8607   23.2045 C   0  0  0  0  0  0
  -25.9114  -32.4782   23.8368 C   0  0  1  0  0  0
  -27.2182  -27.3257   20.1246 C   0  0  0  0  0  0
  -25.5939  -33.8582   24.2294 N   0  0  0  0  0  0
  -23.4193  -30.4856   21.5467 C   0  0  2  0  0  0
  -24.8676  -28.9483   20.1061 C   0  0  0  0  0  0
  -22.7480  -29.4627   22.4939 C   0  0  0  0  0  0
  -18.0289  -28.1383   22.8492 C   0  0  0  0  0  0
  -24.1490  -36.7290   23.2641 C   0  0  0  0  0  0
  -25.9609  -30.7948   21.3754 C   0  0  0  0  0  0
  -26.0361  -29.4240   20.7163 C   0  0  0  0  0  0
  -27.2179  -28.6250   20.7167 C   0  0  0  0  0  0
  -26.0390  -26.9151   19.4638 C   0  0  0  0  0  0
  -24.8713  -27.6995   19.4674 C   0  0  0  0  0  0
  -23.6332  -29.8245   20.1598 C   0  0  0  0  0  0
  -25.4113  -36.3087   24.0335 C   0  0  1  0  0  0
  -20.5891  -28.3680   23.1290 C   0  0  2  0  0  0
  -20.6781  -26.9402   22.5414 C   0  0  0  0  0  0
  -19.5753  -26.6379   21.5218 C   0  0  0  0  0  0
  -18.1932  -26.7933   22.1629 C   0  0  0  0  0  0
  -19.1542  -28.8849   23.2889 C   0  0  0  0  0  0
  -18.9467  -30.1456   23.8894 C   0  0  0  0  0  0
  -17.6462  -30.6582   24.0561 C   0  0  0  0  0  0
  -25.9051  -34.9452   23.5111 C   0  0  0  0  0  0
  -16.5351  -29.9078   23.6331 C   0  0  0  0  0  0
  -16.7276  -28.6501   23.0348 C   0  0  0  0  0  0
  -26.4502  -31.6581   25.0724 C   0  0  0  0  0  0
  -25.3739  -31.3702   26.1449 C   0  0  0  0  0  0
  -27.0347  -30.3012   24.6167 C   0  0  0  0  0  0
  -27.6067  -32.4314   25.7492 C   0  0  0  0  0  0
  -27.5577  -37.1800   24.8469 C   0  0  0  0  0  0
  -21.4194  -29.3037   22.3676 N   0  0  0  0  0  0
  -26.4290  -37.3777   23.9409 N   0  0  0  0  0  0
  -24.6873  -31.0634   22.0992 N   0  0  0  0  0  0
  -23.4213  -28.8168   23.3013 O   0  0  0  0  0  0
  -28.2972  -26.4312   20.1910 O   0  0  0  0  0  0
  -26.5608  -34.8915   22.4671 O   0  0  0  0  0  0
  -23.5423  -32.1401   23.7378 O   0  0  0  0  0  0
  -28.3797  -17.4815   17.9831 C   0  0  0  0  0  0
  -29.0524  -16.5452   18.7681 C   0  0  0  0  0  0
  -28.2070  -18.7897   18.4553 C   0  0  0  0  0  0
  -28.8155  -19.1734   19.6842 C   0  0  0  0  0  0
  -29.5362  -16.8876   20.0444 C   0  0  0  0  0  0
  -24.9930  -20.5382   17.6102 C   0  0  0  0  0  0
  -29.5566  -21.7165   19.2365 C   0  0  0  0  0  0
  -28.8471  -21.2048   21.5340 C   0  0  0  0  0  0
  -28.9313  -23.1556   19.2682 C   0  0  0  0  0  0
  -28.3168  -22.6856   21.6781 C   0  0  0  0  0  0
  -28.7211  -20.7085   20.0772 C   0  0  2  0  0  0
  -28.8543  -23.7924   20.6864 C   0  0  2  0  0  0
  -23.6369  -20.4727   18.2986 C   0  0  0  0  0  0
  -27.3274  -19.7102   17.6053 C   0  0  0  0  0  0
  -27.9600  -25.1164   20.7895 C   0  0  0  0  0  0
  -29.4506  -18.2135   20.4624 N   0  0  0  0  0  0
  -29.9100  -15.7417   20.8695 N   0  0  0  0  0  0
  -25.9681  -19.7831   18.1256 N   0  0  0  0  0  0
  -25.1552  -21.2659   16.6296 O   0  0  0  0  0  0
  -31.4726  -12.4860   19.1768 H   0  0  0  0  0  0
  -30.3441  -11.3954   19.9269 H   0  0  0  0  0  0
  -29.7734  -11.7180   17.5100 H   0  0  0  0  0  0
  -29.6748  -13.4415   17.7304 H   0  0  0  0  0  0
  -27.8470  -11.2988   18.8561 H   0  0  0  0  0  0
  -27.3845  -12.5968   17.7902 H   0  0  0  0  0  0
  -27.6540  -14.2520   19.5254 H   0  0  0  0  0  0
  -28.7001  -12.0915   21.4159 H   0  0  0  0  0  0
  -28.4381  -13.7622   21.8301 H   0  0  0  0  0  0
  -25.2753   -9.5684   22.4762 H   0  0  0  0  0  0
  -23.9993   -7.4637   22.7468 H   0  0  0  0  0  0
  -21.0835   -8.8777   19.8950 H   0  0  0  0  0  0
  -22.3698  -10.9672   19.6162 H   0  0  0  0  0  0
  -21.2021   -7.6154   23.9729 H   0  0  0  0  0  0
  -21.1473   -6.0513   25.9075 H   0  0  0  0  0  0
  -22.0605   -2.7619   23.2826 H   0  0  0  0  0  0
  -22.4054  -11.9883   22.4780 H   0  0  0  0  0  0
  -21.1085  -13.1265   22.2607 H   0  0  0  0  0  0
  -24.6663  -15.8513   20.5259 H   0  0  0  0  0  0
  -26.2796  -15.6269   20.0802 H   0  0  0  0  0  0
  -26.7186  -32.5458   23.1119 H   0  0  0  0  0  0
  -25.0100  -33.9727   25.0452 H   0  0  0  0  0  0
  -22.7126  -31.3062   21.4063 H   0  0  0  0  0  0
  -23.3753  -35.9621   23.3305 H   0  0  0  0  0  0
  -24.3581  -36.8902   22.2055 H   0  0  0  0  0  0
  -23.7240  -37.6493   23.6653 H   0  0  0  0  0  0
  -26.0919  -31.5600   20.6083 H   0  0  0  0  0  0
  -26.8419  -30.8424   22.0037 H   0  0  0  0  0  0
  -28.1110  -28.9816   21.2111 H   0  0  0  0  0  0
  -26.0029  -25.9638   18.9530 H   0  0  0  0  0  0
  -23.9814  -27.3354   18.9718 H   0  0  0  0  0  0
  -23.7472  -30.6036   19.4052 H   0  0  0  0  0  0
  -22.7544  -29.2526   19.8589 H   0  0  0  0  0  0
  -25.1292  -36.1936   25.0827 H   0  0  0  0  0  0
  -20.9989  -28.3254   24.1408 H   0  0  0  0  0  0
  -20.5695  -26.2287   23.3614 H   0  0  0  0  0  0
  -21.6647  -26.7441   22.1192 H   0  0  0  0  0  0
  -19.6907  -25.6295   21.1240 H   0  0  0  0  0  0
  -19.6686  -27.3198   20.6757 H   0  0  0  0  0  0
  -17.4207  -26.6690   21.4026 H   0  0  0  0  0  0
  -18.0316  -26.0070   22.9020 H   0  0  0  0  0  0
  -19.7935  -30.7280   24.2258 H   0  0  0  0  0  0
  -17.5006  -31.6259   24.5164 H   0  0  0  0  0  0
  -15.5350  -30.2971   23.7654 H   0  0  0  0  0  0
  -15.8685  -28.0814   22.7057 H   0  0  0  0  0  0
  -24.5934  -30.7030   25.7773 H   0  0  0  0  0  0
  -24.8908  -32.2860   26.4870 H   0  0  0  0  0  0
  -25.8072  -30.8889   27.0226 H   0  0  0  0  0  0
  -26.2921  -29.6759   24.1201 H   0  0  0  0  0  0
  -27.4069  -29.7261   25.4654 H   0  0  0  0  0  0
  -27.8777  -30.4305   23.9374 H   0  0  0  0  0  0
  -27.2689  -33.3624   26.2052 H   0  0  0  0  0  0
  -28.3885  -32.6854   25.0324 H   0  0  0  0  0  0
  -28.0724  -31.8448   26.5418 H   0  0  0  0  0  0
  -28.2597  -38.0096   24.7512 H   0  0  0  0  0  0
  -28.1069  -36.2625   24.6302 H   0  0  0  0  0  0
  -27.2289  -37.1460   25.8871 H   0  0  0  0  0  0
  -20.9371  -29.8759   21.6888 H   0  0  0  0  0  0
  -26.0171  -38.2851   24.1407 H   0  0  0  0  0  0
  -27.9527  -17.1730   17.0393 H   0  0  0  0  0  0
  -29.1193  -15.5381   18.3884 H   0  0  0  0  0  0
  -30.5856  -21.7365   19.5975 H   0  0  0  0  0  0
  -29.6360  -21.3879   18.2024 H   0  0  0  0  0  0
  -28.2710  -20.5541   22.1934 H   0  0  0  0  0  0
  -29.8845  -21.1312   21.8638 H   0  0  0  0  0  0
  -27.9260  -23.1098   18.8449 H   0  0  0  0  0  0
  -29.4961  -23.8151   18.6094 H   0  0  0  0  0  0
  -28.4864  -23.0195   22.7028 H   0  0  0  0  0  0
  -27.2315  -22.6430   21.5735 H   0  0  0  0  0  0
  -27.6757  -20.9260   19.8629 H   0  0  0  0  0  0
  -29.8701  -24.0440   20.9928 H   0  0  0  0  0  0
  -23.4542  -19.4826   18.7173 H   0  0  0  0  0  0
  -22.8363  -20.6906   17.5911 H   0  0  0  0  0  0
  -23.5885  -21.2022   19.1075 H   0  0  0  0  0  0
  -27.2843  -19.3311   16.5822 H   0  0  0  0  0  0
  -27.7369  -20.7127   17.5145 H   0  0  0  0  0  0
  -27.8581  -25.3345   21.8542 H   0  0  0  0  0  0
  -26.9620  -24.8020   20.4900 H   0  0  0  0  0  0
  -29.1865  -15.5005   21.5284 H   0  0  0  0  0  0
  -25.7448  -19.2116   18.9285 H   0  0  0  0  0  0
  1 25  1  0  0  0
  1 30  2  0  0  0
  1 87  1  0  0  0
  2  3  1  0  0  0
  2 25  1  0  0  0
  2 90  1  0  0  0
  2 91  1  0  0  0
  3  4  1  0  0  0
  3 92  1  0  0  0
  3 93  1  0  0  0
  4  5  1  0  0  0
  4 94  1  0  0  0
  4 95  1  0  0  0
  5  6  1  0  0  0
  5 26  1  0  0  0
  5 96  1  0  0  0
  6 25  1  0  0  0
  6 97  1  0  0  0
  6 98  1  0  0  0
  7  8  2  0  0  0
  7 26  1  0  0  0
  7 29  1  0  0  0
  8  9  1  0  0  0
  8 22  1  0  0  0
  9 10  1  0  0  0
  9 27  2  0  0  0
 10 11  2  0  0  0
 10 15  1  0  0  0
 11 12  1  0  0  0
 11 99  1  0  0  0
 12 13  2  0  0  0
 12100  1  0  0  0
 13 14  1  0  0  0
 13 31  1  0  0  0
 14 15  2  0  0  0
 14101  1  0  0  0
 15102  1  0  0  0
 16 17  2  0  0  0
 16 21  1  0  0  0
 16 31  1  0  0  0
 17 18  1  0  0  0
 17103  1  0  0  0
 18 19  2  0  0  0
 18104  1  0  0  0
 19 20  1  0  0  0
 19 24  1  0  0  0
 20 21  2  0  0  0
 20105  1  0  0  0
 21 23  1  0  0  0
 22 28  1  0  0  0
 22 32  2  0  0  0
 26 27  1  0  0  0
 28106  1  0  0  0
 28107  1  0  0  0
 29108  1  0  0  0
 29109  1  0  0  0
 33 34  1  0  0  0
 33 66  1  0  0  0
 33 70  2  0  0  0
 34 36  1  0  0  0
 34 59  1  0  0  0
 34110  1  0  0  0
 35 44  2  0  0  0
 35 45  1  0  0  0
 35 68  1  0  0  0
 36 56  1  0  0  0
 36111  1  0  0  0
 37 39  1  0  0  0
 37 47  1  0  0  0
 37 66  1  0  0  0
 37112  1  0  0  0
 38 43  2  0  0  0
 38 46  1  0  0  0
 38 47  1  0  0  0
 39 64  1  0  0  0
 39 67  2  0  0  0
 40 52  1  0  0  0
 40 53  2  0  0  0
 40 58  1  0  0  0
 41113  1  0  0  0
 41114  1  0  0  0
 41115  1  0  0  0
 41 48  1  0  0  0
 42 43  1  0  0  0
 42 66  1  0  0  0
 42116  1  0  0  0
 42117  1  0  0  0
 43 44  1  0  0  0
 44118  1  0  0  0
 45 46  2  0  0  0
 45119  1  0  0  0
 46120  1  0  0  0
 47121  1  0  0  0
 47122  1  0  0  0
 48 56  1  0  0  0
 48 65  1  0  0  0
 48123  1  0  0  0
 49 50  1  0  0  0
 49 53  1  0  0  0
 49 64  1  0  0  0
 49124  1  0  0  0
 50 51  1  0  0  0
 50125  1  0  0  0
 50126  1  0  0  0
 51 52  1  0  0  0
 51127  1  0  0  0
 51128  1  0  0  0
 52129  1  0  0  0
 52130  1  0  0  0
 53 54  1  0  0  0
 54 55  2  0  0  0
 54131  1  0  0  0
 55 57  1  0  0  0
 55132  1  0  0  0
 56 69  2  0  0  0
 57 58  2  0  0  0
 57133  1  0  0  0
 58134  1  0  0  0
 59 60  1  0  0  0
 59 61  1  0  0  0
 59 62  1  0  0  0
 60135  1  0  0  0
 60136  1  0  0  0
 60137  1  0  0  0
 61138  1  0  0  0
 61139  1  0  0  0
 61140  1  0  0  0
 62141  1  0  0  0
 62142  1  0  0  0
 62143  1  0  0  0
 63 65  1  0  0  0
 63144  1  0  0  0
 63145  1  0  0  0
 63146  1  0  0  0
 64147  1  0  0  0
 65148  1  0  0  0
 68 85  1  0  0  0
 71 72  2  0  0  0
 71 73  1  0  0  0
 71149  1  0  0  0
 72 75  1  0  0  0
 72150  1  0  0  0
 73 74  2  0  0  0
 73 84  1  0  0  0
 74 86  1  0  0  0
 74 81  1  0  0  0
 75 86  2  0  0  0
 75 87  1  0  0  0
 76 83  1  0  0  0
 76 88  1  0  0  0
 76 89  2  0  0  0
 77 79  1  0  0  0
 77 81  1  0  0  0
 77151  1  0  0  0
 77152  1  0  0  0
 78 80  1  0  0  0
 78 81  1  0  0  0
 78153  1  0  0  0
 78154  1  0  0  0
 79 82  1  0  0  0
 79155  1  0  0  0
 79156  1  0  0  0
 80 82  1  0  0  0
 80157  1  0  0  0
 80158  1  0  0  0
 81159  1  0  0  0
 82 85  1  0  0  0
 82160  1  0  0  0
 83161  1  0  0  0
 83162  1  0  0  0
 83163  1  0  0  0
 84 88  1  0  0  0
 84164  1  0  0  0
 84165  1  0  0  0
 85166  1  0  0  0
 85167  1  0  0  0
 87168  1  0  0  0
 88169  1  0  0  0
M  ISO  4   1 100  68 101  85 101  87 100
M  END
> <chiral flag>
0

> <version>
0

> <s_m_source_file>
/data/baiqing/PycharmProjects/Reinvent-master-3.2/result/LINK_invent/BTK/process_docking_weight1_custom_sum_contain_oxygen_bond_distance_aromatic_linkinvent_7_9_3/rearranged_h_0120.sdf

> <i_m_source_file_index>
38

> <r_mmod_Potential_Energy-OPLS-2005>
-20.7492523193359

> <r_mmod_Stretch_Energy-OPLS-2005>
89.1787338256836

> <r_mmod_Bend_Energy-OPLS-2005>
169.352874755859

> <r_mmod_Torsional_Energy-OPLS-2005>
311.106262207031

> <r_mmod_Improper_Torsional_Energy-OPLS-2005>
7.11224555969238

> <r_mmod_Van_der_Waal_Energy-OPLS-2005>
146.581878662109

> <r_mmod_Electrostatic_Energy-OPLS-2005>
-552.966552734375

> <r_mmod_Solvation_Energy-OPLS-2005>
-243.629684448242

> <b_mmod_Minimization_Converged-OPLS-2005>
0

> <r_mmod_RMS_Derivative-OPLS-2005>
1.43859899044037

$$$$
38
                    3D
 Structure written by MMmdl.
169177  0  0  1  0            999 V2000
  -30.6911  -14.4116   20.5889 C   0  0  0  0  0  0
  -30.4322  -12.2730   19.4103 C   0  0  0  0  0  0
  -29.4936  -12.5009   18.2055 C   0  0  0  0  0  0
  -28.0139  -12.3645   18.6185 C   0  0  0  0  0  0
  -27.6681  -13.1924   19.8847 C   0  0  2  0  0  0
  -28.7075  -12.9218   20.9978 C   0  0  0  0  0  0
  -25.2616  -13.8137   20.5686 C   0  0  0  0  0  0
  -24.1844  -13.0425   20.9208 C   0  0  0  0  0  0
  -24.6389  -11.6894   20.8760 C   0  0  0  0  0  0
  -23.9058  -10.4285   21.0420 C   0  0  0  0  0  0
  -24.3602   -9.4198   21.9196 C   0  0  0  0  0  0
  -23.6280   -8.2234   22.0751 C   0  0  0  0  0  0
  -22.4267   -8.0284   21.3540 C   0  0  0  0  0  0
  -21.9912   -9.0266   20.4647 C   0  0  0  0  0  0
  -22.7239  -10.2147   20.3062 C   0  0  0  0  0  0
  -21.6849   -6.0758   22.5295 C   0  0  0  0  0  0
  -21.4013   -6.5657   23.8235 C   0  0  0  0  0  0
  -21.3644   -5.6797   24.9187 C   0  0  0  0  0  0
  -21.6035   -4.3063   24.7237 C   0  0  0  0  0  0
  -21.8807   -3.8169   23.4353 C   0  0  0  0  0  0
  -21.9186   -4.6990   22.3414 C   0  0  0  0  0  0
  -22.7866  -13.5245   21.1861 C   0  0  0  0  0  0
  -22.1646   -4.2175   21.0990 F   0  0  0  0  0  0
  -21.5618   -3.4536   25.7747 F   0  0  0  0  0  0
  -30.0473  -13.2228   20.4631 N   0  0  0  0  0  0
  -26.3045  -12.9272   20.3410 N   0  0  0  0  0  0
  -25.9307  -11.6449   20.5795 N   0  0  0  0  0  0
  -22.0496  -12.8244   22.0420 N   0  0  0  0  0  0
  -25.4337  -15.1849   20.4031 N   0  0  0  0  0  0
  -31.7888  -14.6567   20.0817 O   0  0  0  0  0  0
  -21.6613   -6.8902   21.4259 O   0  0  0  0  0  0
  -22.3543  -14.5545   20.6721 O   0  0  0  0  0  0
  -24.6116  -31.8688   23.2112 C   0  0  0  0  0  0
  -25.9022  -32.4832   23.8404 C   0  0  1  0  0  0
  -27.2539  -27.4792   20.0814 C   0  0  0  0  0  0
  -25.5880  -33.8632   24.2340 N   0  0  0  0  0  0
  -23.3987  -30.4883   21.5503 C   0  0  2  0  0  0
  -24.8495  -28.9553   20.1158 C   0  0  0  0  0  0
  -22.7390  -29.4660   22.5023 C   0  0  0  0  0  0
  -18.0263  -28.1376   22.8500 C   0  0  0  0  0  0
  -24.1482  -36.7340   23.2638 C   0  0  0  0  0  0
  -25.9202  -30.8443   21.3583 C   0  0  0  0  0  0
  -26.0026  -29.4769   20.7163 C   0  0  0  0  0  0
  -27.2035  -28.7379   20.7117 C   0  0  0  0  0  0
  -26.0889  -26.9546   19.4824 C   0  0  0  0  0  0
  -24.8835  -27.6871   19.5047 C   0  0  0  0  0  0
  -23.6058  -29.8144   20.1664 C   0  0  0  0  0  0
  -25.4094  -36.3117   24.0340 C   0  0  1  0  0  0
  -20.5848  -28.3653   23.1334 C   0  0  2  0  0  0
  -20.6744  -26.9394   22.5421 C   0  0  0  0  0  0
  -19.5728  -26.6384   21.5212 C   0  0  0  0  0  0
  -18.1908  -26.7921   22.1629 C   0  0  0  0  0  0
  -19.1511  -28.8831   23.2910 C   0  0  0  0  0  0
  -18.9438  -30.1438   23.8916 C   0  0  0  0  0  0
  -17.6444  -30.6579   24.0568 C   0  0  0  0  0  0
  -25.9012  -34.9483   23.5133 C   0  0  0  0  0  0
  -16.5337  -29.9084   23.6330 C   0  0  0  0  0  0
  -16.7252  -28.6503   23.0347 C   0  0  0  0  0  0
  -26.4462  -31.6599   25.0722 C   0  0  0  0  0  0
  -25.3743  -31.3699   26.1482 C   0  0  0  0  0  0
  -27.0286  -30.3044   24.6075 C   0  0  0  0  0  0
  -27.6037  -32.4319   25.7491 C   0  0  0  0  0  0
  -27.5573  -37.1818   24.8460 C   0  0  0  0  0  0
  -21.4118  -29.3031   22.3751 N   0  0  0  0  0  0
  -26.4285  -37.3790   23.9403 N   0  0  0  0  0  0
  -24.6610  -31.0817   22.0993 N   0  0  0  0  0  0
  -23.4175  -28.8235   23.3082 O   0  0  0  0  0  0
  -28.4224  -26.7618   20.0942 O   0  0  0  0  0  0
  -26.5575  -34.8936   22.4698 O   0  0  0  0  0  0
  -23.5310  -32.1423   23.7509 O   0  0  0  0  0  0
  -28.6647  -23.0447   20.6852 C   0  0  0  0  0  0
  -28.6726  -21.8429   21.4309 C   0  0  0  0  0  0
  -29.9538  -23.3626   20.3584 C   0  0  0  0  0  0
  -29.9706  -21.4408   21.5671 C   0  0  0  0  0  0
  -32.9049  -23.4641   21.6720 C   0  0  0  0  0  0
  -32.8175  -22.1729   19.4496 C   0  0  0  0  0  0
  -30.4462  -24.5626   19.5871 C   0  0  0  0  0  0
  -30.4598  -20.1951   22.2499 C   0  0  0  0  0  0
  -29.4337  -25.1640   18.5822 C   0  0  0  0  0  0
  -30.0027  -16.7877   20.7222 C   0  0  0  0  0  0
  -30.5874  -17.7328   21.7847 C   0  0  0  0  0  0
  -29.0927  -26.6383   18.8451 C   0  0  0  0  0  0
  -32.2559  -22.3235   20.8750 C   0  0  0  0  0  0
  -30.7850  -22.3807   20.9221 N   0  0  0  0  0  0
  -29.9407  -15.3824   21.1264 N   0  0  0  0  0  0
  -30.6095  -19.1152   21.2578 N   0  3  0  0  0  0
  -31.4721  -12.3956   19.0999 H   0  0  0  0  0  0
  -30.3535  -11.2491   19.7785 H   0  0  0  0  0  0
  -29.7231  -11.7929   17.4078 H   0  0  0  0  0  0
  -29.6666  -13.4956   17.7916 H   0  0  0  0  0  0
  -27.8137  -11.3081   18.8024 H   0  0  0  0  0  0
  -27.3641  -12.6508   17.7922 H   0  0  0  0  0  0
  -27.7250  -14.2450   19.6065 H   0  0  0  0  0  0
  -28.6683  -11.8728   21.2936 H   0  0  0  0  0  0
  -28.4752  -13.4831   21.9034 H   0  0  0  0  0  0
  -25.2739   -9.5664   22.4769 H   0  0  0  0  0  0
  -23.9991   -7.4612   22.7443 H   0  0  0  0  0  0
  -21.0855   -8.8808   19.8932 H   0  0  0  0  0  0
  -22.3720  -10.9696   19.6172 H   0  0  0  0  0  0
  -21.2008   -7.6160   23.9764 H   0  0  0  0  0  0
  -21.1465   -6.0516   25.9098 H   0  0  0  0  0  0
  -22.0599   -2.7634   23.2859 H   0  0  0  0  0  0
  -22.4078  -11.9870   22.4761 H   0  0  0  0  0  0
  -21.1122  -13.1293   22.2623 H   0  0  0  0  0  0
  -24.6707  -15.8450   20.5082 H   0  0  0  0  0  0
  -26.2831  -15.6206   20.0660 H   0  0  0  0  0  0
  -26.7110  -32.5552   23.1186 H   0  0  0  0  0  0
  -25.0013  -33.9800   25.0470 H   0  0  0  0  0  0
  -22.6864  -31.3024   21.4104 H   0  0  0  0  0  0
  -23.3714  -35.9703   23.3304 H   0  0  0  0  0  0
  -24.3576  -36.8944   22.2047 H   0  0  0  0  0  0
  -23.7274  -37.6571   23.6645 H   0  0  0  0  0  0
  -26.0182  -31.6076   20.5841 H   0  0  0  0  0  0
  -26.8134  -30.9076   21.9686 H   0  0  0  0  0  0
  -28.0944  -29.1357   21.1785 H   0  0  0  0  0  0
  -26.1166  -25.9863   19.0017 H   0  0  0  0  0  0
  -23.9965  -27.2757   19.0432 H   0  0  0  0  0  0
  -23.7018  -30.5843   19.4005 H   0  0  0  0  0  0
  -22.7323  -29.2248   19.8835 H   0  0  0  0  0  0
  -25.1268  -36.1977   25.0832 H   0  0  0  0  0  0
  -20.9929  -28.3199   24.1458 H   0  0  0  0  0  0
  -20.5631  -26.2256   23.3594 H   0  0  0  0  0  0
  -21.6615  -26.7425   22.1227 H   0  0  0  0  0  0
  -19.6881  -25.6298   21.1226 H   0  0  0  0  0  0
  -19.6671  -27.3203   20.6747 H   0  0  0  0  0  0
  -17.4173  -26.6667   21.4034 H   0  0  0  0  0  0
  -18.0316  -26.0061   22.9024 H   0  0  0  0  0  0
  -19.7913  -30.7247   24.2294 H   0  0  0  0  0  0
  -17.4996  -31.6257   24.5164 H   0  0  0  0  0  0
  -15.5334  -30.2987   23.7632 H   0  0  0  0  0  0
  -15.8652  -28.0818   22.7054 H   0  0  0  0  0  0
  -24.5916  -30.7043   25.7833 H   0  0  0  0  0  0
  -24.8937  -32.2847   26.4955 H   0  0  0  0  0  0
  -25.8109  -30.8864   27.0226 H   0  0  0  0  0  0
  -26.2821  -29.6824   24.1124 H   0  0  0  0  0  0
  -27.4047  -29.7267   25.4528 H   0  0  0  0  0  0
  -27.8657  -30.4366   23.9219 H   0  0  0  0  0  0
  -27.2649  -33.3590   26.2130 H   0  0  0  0  0  0
  -28.3825  -32.6922   25.0314 H   0  0  0  0  0  0
  -28.0737  -31.8410   26.5363 H   0  0  0  0  0  0
  -28.2593  -38.0105   24.7473 H   0  0  0  0  0  0
  -28.1060  -36.2634   24.6312 H   0  0  0  0  0  0
  -27.2293  -37.1506   25.8864 H   0  0  0  0  0  0
  -20.9262  -29.8745   21.6975 H   0  0  0  0  0  0
  -26.0171  -38.2875   24.1385 H   0  0  0  0  0  0
  -27.7908  -23.6199   20.4134 H   0  0  0  0  0  0
  -27.8114  -21.3202   21.8260 H   0  0  0  0  0  0
  -33.9887  -23.3526   21.6888 H   0  0  0  0  0  0
  -32.5603  -23.4562   22.7062 H   0  0  0  0  0  0
  -32.6867  -24.4447   21.2523 H   0  0  0  0  0  0
  -33.7248  -21.5695   19.4630 H   0  0  0  0  0  0
  -33.0954  -23.1255   19.0030 H   0  0  0  0  0  0
  -32.1095  -21.6812   18.7817 H   0  0  0  0  0  0
  -30.7584  -25.3298   20.2947 H   0  0  0  0  0  0
  -31.3431  -24.3257   19.0258 H   0  0  0  0  0  0
  -29.7105  -19.9014   22.9866 H   0  0  0  0  0  0
  -31.3771  -20.3583   22.8149 H   0  0  0  0  0  0
  -28.5134  -24.5840   18.5263 H   0  0  0  0  0  0
  -29.8636  -25.0953   17.5826 H   0  0  0  0  0  0
  -28.9763  -17.0934   20.5119 H   0  0  0  0  0  0
  -30.5438  -16.8928   19.7799 H   0  0  0  0  0  0
  -31.5992  -17.4403   22.0647 H   0  0  0  0  0  0
  -29.9734  -17.6754   22.6852 H   0  0  0  0  0  0
  -28.5014  -27.0320   18.0167 H   0  0  0  0  0  0
  -30.0035  -27.2384   18.8814 H   0  0  0  0  0  0
  -32.5675  -21.4144   21.3827 H   0  0  0  0  0  0
  -29.0789  -15.0764   21.5549 H   0  0  0  0  0  0
  -31.4452  -19.2621   20.7149 H   0  0  0  0  0  0
  -29.8268  -19.2194   20.6349 H   0  0  0  0  0  0
  1 25  1  0  0  0
  1 30  2  0  0  0
  1 85  1  0  0  0
  2  3  1  0  0  0
  2 25  1  0  0  0
  2 87  1  0  0  0
  2 88  1  0  0  0
  3  4  1  0  0  0
  3 89  1  0  0  0
  3 90  1  0  0  0
  4  5  1  0  0  0
  4 91  1  0  0  0
  4 92  1  0  0  0
  5  6  1  0  0  0
  5 26  1  0  0  0
  5 93  1  0  0  0
  6 25  1  0  0  0
  6 94  1  0  0  0
  6 95  1  0  0  0
  7  8  2  0  0  0
  7 26  1  0  0  0
  7 29  1  0  0  0
  8  9  1  0  0  0
  8 22  1  0  0  0
  9 10  1  0  0  0
  9 27  2  0  0  0
 10 11  2  0  0  0
 10 15  1  0  0  0
 11 12  1  0  0  0
 11 96  1  0  0  0
 12 13  2  0  0  0
 12 97  1  0  0  0
 13 14  1  0  0  0
 13 31  1  0  0  0
 14 15  2  0  0  0
 14 98  1  0  0  0
 15 99  1  0  0  0
 16 17  2  0  0  0
 16 21  1  0  0  0
 16 31  1  0  0  0
 17 18  1  0  0  0
 17100  1  0  0  0
 18 19  2  0  0  0
 18101  1  0  0  0
 19 20  1  0  0  0
 19 24  1  0  0  0
 20 21  2  0  0  0
 20102  1  0  0  0
 21 23  1  0  0  0
 22 28  1  0  0  0
 22 32  2  0  0  0
 26 27  1  0  0  0
 28103  1  0  0  0
 28104  1  0  0  0
 29105  1  0  0  0
 29106  1  0  0  0
 33 34  1  0  0  0
 33 66  1  0  0  0
 33 70  2  0  0  0
 34 36  1  0  0  0
 34 59  1  0  0  0
 34107  1  0  0  0
 35 44  2  0  0  0
 35 45  1  0  0  0
 35 68  1  0  0  0
 36 56  1  0  0  0
 36108  1  0  0  0
 37 39  1  0  0  0
 37 47  1  0  0  0
 37 66  1  0  0  0
 37109  1  0  0  0
 38 43  2  0  0  0
 38 46  1  0  0  0
 38 47  1  0  0  0
 39 64  1  0  0  0
 39 67  2  0  0  0
 40 52  1  0  0  0
 40 53  2  0  0  0
 40 58  1  0  0  0
 41110  1  0  0  0
 41111  1  0  0  0
 41112  1  0  0  0
 41 48  1  0  0  0
 42 43  1  0  0  0
 42 66  1  0  0  0
 42113  1  0  0  0
 42114  1  0  0  0
 43 44  1  0  0  0
 44115  1  0  0  0
 45 46  2  0  0  0
 45116  1  0  0  0
 46117  1  0  0  0
 47118  1  0  0  0
 47119  1  0  0  0
 48 56  1  0  0  0
 48 65  1  0  0  0
 48120  1  0  0  0
 49 50  1  0  0  0
 49 53  1  0  0  0
 49 64  1  0  0  0
 49121  1  0  0  0
 50 51  1  0  0  0
 50122  1  0  0  0
 50123  1  0  0  0
 51 52  1  0  0  0
 51124  1  0  0  0
 51125  1  0  0  0
 52126  1  0  0  0
 52127  1  0  0  0
 53 54  1  0  0  0
 54 55  2  0  0  0
 54128  1  0  0  0
 55 57  1  0  0  0
 55129  1  0  0  0
 56 69  2  0  0  0
 57 58  2  0  0  0
 57130  1  0  0  0
 58131  1  0  0  0
 59 60  1  0  0  0
 59 61  1  0  0  0
 59 62  1  0  0  0
 60132  1  0  0  0
 60133  1  0  0  0
 60134  1  0  0  0
 61135  1  0  0  0
 61136  1  0  0  0
 61137  1  0  0  0
 62138  1  0  0  0
 62139  1  0  0  0
 62140  1  0  0  0
 63 65  1  0  0  0
 63141  1  0  0  0
 63142  1  0  0  0
 63143  1  0  0  0
 64144  1  0  0  0
 65145  1  0  0  0
 68 82  1  0  0  0
 71 72  1  0  0  0
 71 73  2  0  0  0
 71146  1  0  0  0
 72 74  2  0  0  0
 72147  1  0  0  0
 73 77  1  0  0  0
 73 84  1  0  0  0
 74 78  1  0  0  0
 74 84  1  0  0  0
 75148  1  0  0  0
 75149  1  0  0  0
 75150  1  0  0  0
 75 83  1  0  0  0
 76 83  1  0  0  0
 76151  1  0  0  0
 76152  1  0  0  0
 76153  1  0  0  0
 77 79  1  0  0  0
 77154  1  0  0  0
 77155  1  0  0  0
 78 86  1  0  0  0
 78156  1  0  0  0
 78157  1  0  0  0
 79 82  1  0  0  0
 79158  1  0  0  0
 79159  1  0  0  0
 80 81  1  0  0  0
 80 85  1  0  0  0
 80160  1  0  0  0
 80161  1  0  0  0
 81 86  1  0  0  0
 81162  1  0  0  0
 81163  1  0  0  0
 82164  1  0  0  0
 82165  1  0  0  0
 83 84  1  0  0  0
 83166  1  0  0  0
 85167  1  0  0  0
 86168  1  0  0  0
 86169  1  0  0  0
M  CHG  1  86   1
M  ISO  4   1 100  68 101  82 101  85 100
M  END
> <chiral flag>
0

> <version>
0

> <s_m_source_file>
/data/baiqing/PycharmProjects/Reinvent-master-3.2/result/LINK_invent/BTK/process_docking_weight1_custom_sum_contain_oxygen_bond_distance_aromatic_linkinvent_7_9_3/rearranged_h_0120.sdf

> <i_m_source_file_index>
39

> <r_mmod_Potential_Energy-OPLS-2005>
-292.579406738281

> <r_mmod_Stretch_Energy-OPLS-2005>
33.6226501464844

> <r_mmod_Bend_Energy-OPLS-2005>
100.718551635742

> <r_mmod_Torsional_Energy-OPLS-2005>
275.472351074219

> <r_mmod_Improper_Torsional_Energy-OPLS-2005>
6.50482606887817

> <r_mmod_Van_der_Waal_Energy-OPLS-2005>
132.472229003906

> <r_mmod_Electrostatic_Energy-OPLS-2005>
-387.9814453125

> <r_mmod_Solvation_Energy-OPLS-2005>
-461.847503662109

> <b_mmod_Minimization_Converged-OPLS-2005>
0

> <r_mmod_RMS_Derivative-OPLS-2005>
3.1334867477417

$$$$
39
                    3D
 Structure written by MMmdl.
184193  0  0  1  0            999 V2000
  -30.6945  -14.4214   20.5813 C   0  0  0  0  0  0
  -30.4170  -12.2738   19.4078 C   0  0  0  0  0  0
  -29.4924  -12.5213   18.1962 C   0  0  0  0  0  0
  -28.0091  -12.4018   18.5988 C   0  0  0  0  0  0
  -27.6673  -13.2020   19.8820 C   0  0  2  0  0  0
  -28.7058  -12.9362   20.9949 C   0  0  0  0  0  0
  -25.2637  -13.8155   20.5730 C   0  0  0  0  0  0
  -24.1862  -13.0438   20.9158 C   0  0  0  0  0  0
  -24.6382  -11.6902   20.8675 C   0  0  0  0  0  0
  -23.9040  -10.4305   21.0350 C   0  0  0  0  0  0
  -24.3576   -9.4219   21.9125 C   0  0  0  0  0  0
  -23.6265   -8.2250   22.0699 C   0  0  0  0  0  0
  -22.4248   -8.0284   21.3503 C   0  0  0  0  0  0
  -21.9875   -9.0268   20.4613 C   0  0  0  0  0  0
  -22.7196  -10.2144   20.3024 C   0  0  0  0  0  0
  -21.6859   -6.0721   22.5275 C   0  0  0  0  0  0
  -21.4036   -6.5633   23.8205 C   0  0  0  0  0  0
  -21.3652   -5.6777   24.9176 C   0  0  0  0  0  0
  -21.6037   -4.3034   24.7232 C   0  0  0  0  0  0
  -21.8823   -3.8129   23.4360 C   0  0  0  0  0  0
  -21.9203   -4.6951   22.3403 C   0  0  0  0  0  0
  -22.7905  -13.5255   21.1894 C   0  0  0  0  0  0
  -22.1689   -4.2128   21.0986 F   0  0  0  0  0  0
  -21.5604   -3.4523   25.7747 F   0  0  0  0  0  0
  -30.0458  -13.2334   20.4594 N   0  0  0  0  0  0
  -26.3059  -12.9299   20.3359 N   0  0  0  0  0  0
  -25.9313  -11.6459   20.5690 N   0  0  0  0  0  0
  -22.0578  -12.8258   22.0498 N   0  0  0  0  0  0
  -25.4411  -15.1867   20.4306 N   0  0  0  0  0  0
  -31.7980  -14.6500   20.0721 O   0  0  0  0  0  0
  -21.6628   -6.8861   21.4229 O   0  0  0  0  0  0
  -22.3578  -14.5554   20.6748 O   0  0  0  0  0  0
  -24.6134  -31.8698   23.2125 C   0  0  0  0  0  0
  -25.9023  -32.4838   23.8429 C   0  0  1  0  0  0
  -27.2377  -27.4593   20.0752 C   0  0  0  0  0  0
  -25.5891  -33.8637   24.2386 N   0  0  0  0  0  0
  -23.4006  -30.4943   21.5539 C   0  0  2  0  0  0
  -24.8441  -28.9637   20.1122 C   0  0  0  0  0  0
  -22.7417  -29.4657   22.5003 C   0  0  0  0  0  0
  -18.0277  -28.1373   22.8481 C   0  0  0  0  0  0
  -24.1471  -36.7315   23.2641 C   0  0  0  0  0  0
  -25.9253  -30.8438   21.3572 C   0  0  0  0  0  0
  -26.0026  -29.4764   20.7104 C   0  0  0  0  0  0
  -27.1963  -28.7244   20.7014 C   0  0  0  0  0  0
  -26.0539  -26.9453   19.4964 C   0  0  0  0  0  0
  -24.8627  -27.6946   19.5089 C   0  0  0  0  0  0
  -23.6054  -29.8289   20.1661 C   0  0  0  0  0  0
  -25.4084  -36.3137   24.0371 C   0  0  1  0  0  0
  -20.5871  -28.3656   23.1314 C   0  0  2  0  0  0
  -20.6756  -26.9397   22.5393 C   0  0  0  0  0  0
  -19.5746  -26.6433   21.5162 C   0  0  0  0  0  0
  -18.1927  -26.7937   22.1581 C   0  0  0  0  0  0
  -19.1526  -28.8830   23.2907 C   0  0  0  0  0  0
  -18.9451  -30.1431   23.8929 C   0  0  0  0  0  0
  -17.6452  -30.6566   24.0582 C   0  0  0  0  0  0
  -25.9010  -34.9489   23.5179 C   0  0  0  0  0  0
  -16.5347  -29.9077   23.6316 C   0  0  0  0  0  0
  -16.7268  -28.6499   23.0329 C   0  0  0  0  0  0
  -26.4458  -31.6595   25.0736 C   0  0  0  0  0  0
  -25.3735  -31.3648   26.1490 C   0  0  0  0  0  0
  -27.0282  -30.3069   24.6022 C   0  0  0  0  0  0
  -27.6064  -32.4281   25.7488 C   0  0  0  0  0  0
  -27.5578  -37.1818   24.8471 C   0  0  0  0  0  0
  -21.4145  -29.3031   22.3741 N   0  0  0  0  0  0
  -26.4282  -37.3814   23.9432 N   0  0  0  0  0  0
  -24.6659  -31.0819   22.1015 N   0  0  0  0  0  0
  -23.4203  -28.8188   23.3017 O   0  0  0  0  0  0
  -28.4164  -26.7481   20.0912 O   0  0  0  0  0  0
  -26.5558  -34.8934   22.4729 O   0  0  0  0  0  0
  -23.5330  -32.1432   23.7533 O   0  0  0  0  0  0
  -27.7515  -18.4129   19.3749 C   0  0  0  0  0  0
  -29.3960  -16.6638   19.1677 C   0  0  0  0  0  0
  -28.5908  -17.6420   18.5543 C   0  0  0  0  0  0
  -27.8084  -18.2327   20.7653 C   0  0  0  0  0  0
  -29.3447  -16.4781   20.5719 C   0  0  0  0  0  0
  -29.6551  -22.1667   21.8013 C   0  0  0  0  0  0
  -30.2936  -23.1138   20.7691 C   0  0  0  0  0  0
  -28.3161  -22.9943   19.3349 C   0  0  0  0  0  0
  -28.6114  -21.2289   21.1597 C   0  0  2  0  0  0
  -27.6029  -22.0558   20.3285 C   0  0  1  0  0  0
  -28.5173  -19.3129   16.6291 C   0  0  0  0  0  0
  -27.5253  -16.9975   16.3634 C   0  0  0  0  0  0
  -26.3222  -18.4400   22.8265 C   0  0  0  0  0  0
  -25.4696  -22.9614   20.8545 C   0  0  0  0  0  0
  -27.9274  -20.3297   22.2249 C   0  0  0  0  0  0
  -29.8308  -24.9904   19.2220 C   0  0  0  0  0  0
  -28.8179  -26.1007   18.8822 C   0  0  0  0  0  0
  -28.6152  -17.8345   17.0430 C   0  0  0  0  0  0
  -27.0420  -19.1800   21.6856 C   0  0  1  0  0  0
  -28.5910  -17.2925   21.3433 N   0  0  0  0  0  0
  -29.9956  -15.3836   21.2024 N   0  0  0  0  0  0
  -29.2523  -23.9001   20.0581 N   0  3  2  0  0  0
  -26.8425  -22.8762   21.2092 O   0  0  0  0  0  0
  -31.4633  -12.3616   19.1127 H   0  0  0  0  0  0
  -30.2939  -11.2531   19.7718 H   0  0  0  0  0  0
  -29.7172  -11.8170   17.3935 H   0  0  0  0  0  0
  -29.6786  -13.5158   17.7880 H   0  0  0  0  0  0
  -27.7817  -11.3456   18.7439 H   0  0  0  0  0  0
  -27.3736  -12.7386   17.7789 H   0  0  0  0  0  0
  -27.7212  -14.2571   19.6151 H   0  0  0  0  0  0
  -28.6650  -11.8920   21.3065 H   0  0  0  0  0  0
  -28.4666  -13.5089   21.8917 H   0  0  0  0  0  0
  -25.2715   -9.5715   22.4702 H   0  0  0  0  0  0
  -23.9989   -7.4656   22.7414 H   0  0  0  0  0  0
  -21.0781   -8.8781   19.8961 H   0  0  0  0  0  0
  -22.3622  -10.9679   19.6143 H   0  0  0  0  0  0
  -21.2072   -7.6152   23.9710 H   0  0  0  0  0  0
  -21.1446   -6.0507   25.9053 H   0  0  0  0  0  0
  -22.0614   -2.7596   23.2877 H   0  0  0  0  0  0
  -22.4211  -11.9929   22.4912 H   0  0  0  0  0  0
  -21.1251  -13.1360   22.2843 H   0  0  0  0  0  0
  -24.6765  -15.8352   20.5760 H   0  0  0  0  0  0
  -26.3069  -15.6418   20.1684 H   0  0  0  0  0  0
  -26.7102  -32.5570   23.1214 H   0  0  0  0  0  0
  -25.0112  -33.9791   25.0583 H   0  0  0  0  0  0
  -22.6892  -31.3119   21.4189 H   0  0  0  0  0  0
  -23.3749  -35.9629   23.3298 H   0  0  0  0  0  0
  -24.3590  -36.8909   22.2055 H   0  0  0  0  0  0
  -23.7177  -37.6517   23.6619 H   0  0  0  0  0  0
  -26.0196  -31.6030   20.5799 H   0  0  0  0  0  0
  -26.8214  -30.9109   21.9624 H   0  0  0  0  0  0
  -28.0918  -29.1173   21.1633 H   0  0  0  0  0  0
  -26.0244  -25.9615   19.0520 H   0  0  0  0  0  0
  -23.9672  -27.2856   19.0602 H   0  0  0  0  0  0
  -23.7137  -30.6063   19.4089 H   0  0  0  0  0  0
  -22.7271  -29.2518   19.8691 H   0  0  0  0  0  0
  -25.1240  -36.2042   25.0865 H   0  0  0  0  0  0
  -20.9968  -28.3200   24.1434 H   0  0  0  0  0  0
  -20.5614  -26.2255   23.3564 H   0  0  0  0  0  0
  -21.6632  -26.7423   22.1208 H   0  0  0  0  0  0
  -19.6908  -25.6385   21.1094 H   0  0  0  0  0  0
  -19.6677  -27.3321   20.6753 H   0  0  0  0  0  0
  -17.4202  -26.6722   21.3973 H   0  0  0  0  0  0
  -18.0326  -26.0052   22.8945 H   0  0  0  0  0  0
  -19.7928  -30.7233   24.2322 H   0  0  0  0  0  0
  -17.5005  -31.6232   24.5209 H   0  0  0  0  0  0
  -15.5348  -30.2980   23.7621 H   0  0  0  0  0  0
  -15.8675  -28.0828   22.7010 H   0  0  0  0  0  0
  -24.5965  -30.6925   25.7837 H   0  0  0  0  0  0
  -24.8841  -32.2759   26.4941 H   0  0  0  0  0  0
  -25.8115  -30.8854   27.0252 H   0  0  0  0  0  0
  -26.2801  -29.6853   24.1088 H   0  0  0  0  0  0
  -27.4135  -29.7273   25.4420 H   0  0  0  0  0  0
  -27.8591  -30.4468   23.9104 H   0  0  0  0  0  0
  -27.2749  -33.3615   26.2053 H   0  0  0  0  0  0
  -28.3876  -32.6763   25.0292 H   0  0  0  0  0  0
  -28.0711  -31.8386   26.5404 H   0  0  0  0  0  0
  -28.2592  -38.0122   24.7549 H   0  0  0  0  0  0
  -28.1081  -36.2660   24.6256 H   0  0  0  0  0  0
  -27.2317  -37.1424   25.8880 H   0  0  0  0  0  0
  -20.9311  -29.8787   21.6992 H   0  0  0  0  0  0
  -26.0192  -38.2910   24.1419 H   0  0  0  0  0  0
  -27.0966  -19.1592   18.9509 H   0  0  0  0  0  0
  -30.0155  -16.0406   18.5386 H   0  0  0  0  0  0
  -29.1913  -22.7549   22.5940 H   0  0  0  0  0  0
  -30.4400  -21.5799   22.2792 H   0  0  0  0  0  0
  -30.8875  -22.5494   20.0474 H   0  0  0  0  0  0
  -30.9858  -23.7824   21.2808 H   0  0  0  0  0  0
  -27.5678  -23.5599   18.7824 H   0  0  0  0  0  0
  -28.8590  -22.4028   18.5953 H   0  0  0  0  0  0
  -29.1578  -20.5888   20.4675 H   0  0  0  0  0  0
  -26.9594  -21.3709   19.7720 H   0  0  0  0  0  0
  -29.2856  -19.9085   17.1220 H   0  0  0  0  0  0
  -27.5483  -19.7460   16.8783 H   0  0  0  0  0  0
  -28.6460  -19.4269   15.5530 H   0  0  0  0  0  0
  -27.6725  -15.9344   16.5573 H   0  0  0  0  0  0
  -27.5343  -17.1397   15.2821 H   0  0  0  0  0  0
  -26.5344  -17.2730   16.7254 H   0  0  0  0  0  0
  -25.7107  -17.6227   22.4442 H   0  0  0  0  0  0
  -25.6660  -19.1164   23.3758 H   0  0  0  0  0  0
  -27.0340  -18.0200   23.5388 H   0  0  0  0  0  0
  -24.9750  -23.7137   21.4695 H   0  0  0  0  0  0
  -24.9686  -22.0067   21.0227 H   0  0  0  0  0  0
  -25.3384  -23.2421   19.8085 H   0  0  0  0  0  0
  -27.3225  -20.9602   22.8763 H   0  0  0  0  0  0
  -28.6933  -19.8929   22.8667 H   0  0  0  0  0  0
  -30.6588  -25.4568   19.7570 H   0  0  0  0  0  0
  -30.2553  -24.5736   18.3078 H   0  0  0  0  0  0
  -27.9994  -25.7012   18.2876 H   0  0  0  0  0  0
  -29.3017  -26.8521   18.2567 H   0  0  0  0  0  0
  -29.5811  -17.4724   16.6896 H   0  0  0  0  0  0
  -26.2441  -19.6203   21.0871 H   0  0  0  0  0  0
  -29.4666  -15.0438   21.9883 H   0  0  0  0  0  0
  -28.7055  -24.3552   20.7801 H   0  0  0  0  0  0
  1 25  1  0  0  0
  1 30  2  0  0  0
  1 91  1  0  0  0
  2  3  1  0  0  0
  2 25  1  0  0  0
  2 94  1  0  0  0
  2 95  1  0  0  0
  3  4  1  0  0  0
  3 96  1  0  0  0
  3 97  1  0  0  0
  4  5  1  0  0  0
  4 98  1  0  0  0
  4 99  1  0  0  0
  5  6  1  0  0  0
  5 26  1  0  0  0
  5100  1  0  0  0
  6 25  1  0  0  0
  6101  1  0  0  0
  6102  1  0  0  0
  7  8  2  0  0  0
  7 26  1  0  0  0
  7 29  1  0  0  0
  8  9  1  0  0  0
  8 22  1  0  0  0
  9 10  1  0  0  0
  9 27  2  0  0  0
 10 11  2  0  0  0
 10 15  1  0  0  0
 11 12  1  0  0  0
 11103  1  0  0  0
 12 13  2  0  0  0
 12104  1  0  0  0
 13 14  1  0  0  0
 13 31  1  0  0  0
 14 15  2  0  0  0
 14105  1  0  0  0
 15106  1  0  0  0
 16 17  2  0  0  0
 16 21  1  0  0  0
 16 31  1  0  0  0
 17 18  1  0  0  0
 17107  1  0  0  0
 18 19  2  0  0  0
 18108  1  0  0  0
 19 20  1  0  0  0
 19 24  1  0  0  0
 20 21  2  0  0  0
 20109  1  0  0  0
 21 23  1  0  0  0
 22 28  1  0  0  0
 22 32  2  0  0  0
 26 27  1  0  0  0
 28110  1  0  0  0
 28111  1  0  0  0
 29112  1  0  0  0
 29113  1  0  0  0
 33 34  1  0  0  0
 33 66  1  0  0  0
 33 70  2  0  0  0
 34 36  1  0  0  0
 34 59  1  0  0  0
 34114  1  0  0  0
 35 44  2  0  0  0
 35 45  1  0  0  0
 35 68  1  0  0  0
 36 56  1  0  0  0
 36115  1  0  0  0
 37 39  1  0  0  0
 37 47  1  0  0  0
 37 66  1  0  0  0
 37116  1  0  0  0
 38 43  2  0  0  0
 38 46  1  0  0  0
 38 47  1  0  0  0
 39 64  1  0  0  0
 39 67  2  0  0  0
 40 52  1  0  0  0
 40 53  2  0  0  0
 40 58  1  0  0  0
 41117  1  0  0  0
 41118  1  0  0  0
 41119  1  0  0  0
 41 48  1  0  0  0
 42 43  1  0  0  0
 42 66  1  0  0  0
 42120  1  0  0  0
 42121  1  0  0  0
 43 44  1  0  0  0
 44122  1  0  0  0
 45 46  2  0  0  0
 45123  1  0  0  0
 46124  1  0  0  0
 47125  1  0  0  0
 47126  1  0  0  0
 48 56  1  0  0  0
 48 65  1  0  0  0
 48127  1  0  0  0
 49 50  1  0  0  0
 49 53  1  0  0  0
 49 64  1  0  0  0
 49128  1  0  0  0
 50 51  1  0  0  0
 50129  1  0  0  0
 50130  1  0  0  0
 51 52  1  0  0  0
 51131  1  0  0  0
 51132  1  0  0  0
 52133  1  0  0  0
 52134  1  0  0  0
 53 54  1  0  0  0
 54 55  2  0  0  0
 54135  1  0  0  0
 55 57  1  0  0  0
 55136  1  0  0  0
 56 69  2  0  0  0
 57 58  2  0  0  0
 57137  1  0  0  0
 58138  1  0  0  0
 59 60  1  0  0  0
 59 61  1  0  0  0
 59 62  1  0  0  0
 60139  1  0  0  0
 60140  1  0  0  0
 60141  1  0  0  0
 61142  1  0  0  0
 61143  1  0  0  0
 61144  1  0  0  0
 62145  1  0  0  0
 62146  1  0  0  0
 62147  1  0  0  0
 63 65  1  0  0  0
 63148  1  0  0  0
 63149  1  0  0  0
 63150  1  0  0  0
 64151  1  0  0  0
 65152  1  0  0  0
 68 87  1  0  0  0
 71 73  2  0  0  0
 71 74  1  0  0  0
 71153  1  0  0  0
 72 73  1  0  0  0
 72 75  2  0  0  0
 72154  1  0  0  0
 73 88  1  0  0  0
 74 89  1  0  0  0
 74 90  2  0  0  0
 75 90  1  0  0  0
 75 91  1  0  0  0
 76 77  1  0  0  0
 76 79  1  0  0  0
 76155  1  0  0  0
 76156  1  0  0  0
 77 92  1  0  0  0
 77157  1  0  0  0
 77158  1  0  0  0
 78 80  1  0  0  0
 78 92  1  0  0  0
 78159  1  0  0  0
 78160  1  0  0  0
 79 80  1  0  0  0
 79 85  1  0  0  0
 79161  1  0  0  0
 80 93  1  0  0  0
 80162  1  0  0  0
 81163  1  0  0  0
 81164  1  0  0  0
 81165  1  0  0  0
 81 88  1  0  0  0
 82 88  1  0  0  0
 82166  1  0  0  0
 82167  1  0  0  0
 82168  1  0  0  0
 83169  1  0  0  0
 83170  1  0  0  0
 83171  1  0  0  0
 83 89  1  0  0  0
 84 93  1  0  0  0
 84172  1  0  0  0
 84173  1  0  0  0
 84174  1  0  0  0
 85 89  1  0  0  0
 85175  1  0  0  0
 85176  1  0  0  0
 86 87  1  0  0  0
 86177  1  0  0  0
 86178  1  0  0  0
 86 92  1  0  0  0
 87179  1  0  0  0
 87180  1  0  0  0
 88181  1  0  0  0
 89182  1  0  0  0
 91183  1  0  0  0
 92184  1  0  0  0
M  CHG  1  92   1
M  ISO  4   1 100  68 101  87 101  91 100
M  END
> <chiral flag>
0

> <version>
0

> <s_m_source_file>
/data/baiqing/PycharmProjects/Reinvent-master-3.2/result/LINK_invent/BTK/process_docking_weight1_custom_sum_contain_oxygen_bond_distance_aromatic_linkinvent_7_9_3/rearranged_h_0120.sdf

> <i_m_source_file_index>
40

> <r_mmod_Potential_Energy-OPLS-2005>
-247.048797607422

> <r_mmod_Stretch_Energy-OPLS-2005>
36.3891944885254

> <r_mmod_Bend_Energy-OPLS-2005>
110.524673461914

> <r_mmod_Torsional_Energy-OPLS-2005>
307.683563232422

> <r_mmod_Improper_Torsional_Energy-OPLS-2005>
6.35097074508667

> <r_mmod_Van_der_Waal_Energy-OPLS-2005>
141.845321655273

> <r_mmod_Electrostatic_Energy-OPLS-2005>
-474.981567382812

> <r_mmod_Solvation_Energy-OPLS-2005>
-384.119232177734

> <b_mmod_Minimization_Converged-OPLS-2005>
0

> <r_mmod_RMS_Derivative-OPLS-2005>
3.13143181800842

$$$$
40
                    3D
 Structure written by MMmdl.
163171  0  0  1  0            999 V2000
  -30.7071  -14.4599   20.4977 C   0  0  0  0  0  0
  -30.4131  -12.2740   19.4307 C   0  0  0  0  0  0
  -29.4918  -12.4648   18.2082 C   0  0  0  0  0  0
  -28.0122  -12.3388   18.6220 C   0  0  0  0  0  0
  -27.6547  -13.1984   19.8645 C   0  0  2  0  0  0
  -28.7009  -13.0163   20.9897 C   0  0  0  0  0  0
  -25.2572  -13.8147   20.5650 C   0  0  0  0  0  0
  -24.1828  -13.0450   20.9216 C   0  0  0  0  0  0
  -24.6372  -11.6911   20.8764 C   0  0  0  0  0  0
  -23.9036  -10.4289   21.0425 C   0  0  0  0  0  0
  -24.3594   -9.4195   21.9187 C   0  0  0  0  0  0
  -23.6270   -8.2230   22.0753 C   0  0  0  0  0  0
  -22.4257   -8.0269   21.3540 C   0  0  0  0  0  0
  -21.9889   -9.0245   20.4644 C   0  0  0  0  0  0
  -22.7216  -10.2129   20.3060 C   0  0  0  0  0  0
  -21.6848   -6.0723   22.5275 C   0  0  0  0  0  0
  -21.4004   -6.5633   23.8204 C   0  0  0  0  0  0
  -21.3654   -5.6796   24.9174 C   0  0  0  0  0  0
  -21.6047   -4.3055   24.7234 C   0  0  0  0  0  0
  -21.8814   -3.8137   23.4355 C   0  0  0  0  0  0
  -21.9184   -4.6951   22.3407 C   0  0  0  0  0  0
  -22.7858  -13.5260   21.1876 C   0  0  0  0  0  0
  -22.1654   -4.2134   21.0986 F   0  0  0  0  0  0
  -21.5619   -3.4542   25.7746 F   0  0  0  0  0  0
  -30.0239  -13.2904   20.4165 N   0  0  0  0  0  0
  -26.2987  -12.9291   20.3340 N   0  0  0  0  0  0
  -25.9284  -11.6473   20.5784 N   0  0  0  0  0  0
  -22.0485  -12.8234   22.0403 N   0  0  0  0  0  0
  -25.4299  -15.1843   20.3909 N   0  0  0  0  0  0
  -31.8940  -14.5707   20.1958 O   0  0  0  0  0  0
  -21.6625   -6.8860   21.4236 O   0  0  0  0  0  0
  -22.3549  -14.5583   20.6741 O   0  0  0  0  0  0
  -24.6139  -31.8686   23.2105 C   0  0  0  0  0  0
  -25.9038  -32.4828   23.8387 C   0  0  1  0  0  0
  -27.2274  -27.4396   20.0878 C   0  0  0  0  0  0
  -25.5888  -33.8620   24.2324 N   0  0  0  0  0  0
  -23.3993  -30.4952   21.5518 C   0  0  2  0  0  0
  -24.8400  -28.9602   20.1165 C   0  0  0  0  0  0
  -22.7383  -29.4690   22.4999 C   0  0  0  0  0  0
  -18.0274  -28.1368   22.8529 C   0  0  0  0  0  0
  -24.1492  -36.7325   23.2636 C   0  0  0  0  0  0
  -25.9261  -30.8368   21.3587 C   0  0  0  0  0  0
  -26.0002  -29.4700   20.7104 C   0  0  0  0  0  0
  -27.1943  -28.7160   20.6942 C   0  0  0  0  0  0
  -26.0448  -26.9436   19.4902 C   0  0  0  0  0  0
  -24.8557  -27.6945   19.5076 C   0  0  0  0  0  0
  -23.6046  -29.8289   20.1659 C   0  0  0  0  0  0
  -25.4109  -36.3113   24.0339 C   0  0  1  0  0  0
  -20.5859  -28.3686   23.1316 C   0  0  2  0  0  0
  -20.6782  -26.9436   22.5381 C   0  0  0  0  0  0
  -19.5727  -26.6376   21.5225 C   0  0  0  0  0  0
  -18.1930  -26.7899   22.1695 C   0  0  0  0  0  0
  -19.1518  -28.8850   23.2918 C   0  0  0  0  0  0
  -18.9447  -30.1460   23.8911 C   0  0  0  0  0  0
  -17.6442  -30.6596   24.0567 C   0  0  0  0  0  0
  -25.9030  -34.9478   23.5126 C   0  0  0  0  0  0
  -16.5335  -29.9088   23.6328 C   0  0  0  0  0  0
  -16.7254  -28.6498   23.0363 C   0  0  0  0  0  0
  -26.4481  -31.6584   25.0692 C   0  0  0  0  0  0
  -25.3761  -31.3667   26.1446 C   0  0  0  0  0  0
  -27.0307  -30.3041   24.6016 C   0  0  0  0  0  0
  -27.6062  -32.4283   25.7455 C   0  0  0  0  0  0
  -27.5586  -37.1818   24.8463 C   0  0  0  0  0  0
  -21.4113  -29.3073   22.3736 N   0  0  0  0  0  0
  -26.4299  -37.3791   23.9403 N   0  0  0  0  0  0
  -24.6659  -31.0802   22.0999 N   0  0  0  0  0  0
  -23.4151  -28.8216   23.3043 O   0  0  0  0  0  0
  -28.4219  -26.7470   20.0928 O   0  0  0  0  0  0
  -26.5596  -34.8926   22.4691 O   0  0  0  0  0  0
  -23.5337  -32.1435   23.7511 O   0  0  0  0  0  0
  -27.9239  -19.5604   22.0466 C   0  0  0  0  0  0
  -26.4635  -23.9881   20.9557 C   0  0  0  0  0  0
  -28.2928  -22.9884   21.0112 C   0  0  0  0  0  0
  -26.9421  -22.7290   21.7011 C   0  0  2  0  0  0
  -27.9199  -24.4809   20.9324 C   0  0  1  0  0  0
  -26.1762  -21.4043   21.5158 C   0  0  0  0  0  0
  -28.4508  -25.3480   19.7821 C   0  0  0  0  0  0
  -29.0560  -17.7603   20.7378 C   0  0  0  0  0  0
  -29.1311  -16.2936   21.2175 C   0  0  0  0  0  0
  -26.5805  -20.2054   22.4257 C   0  0  2  0  0  0
  -27.8939  -18.4729   21.2617 N   0  0  0  0  0  0
  -29.9617  -15.5487   20.2778 N   0  0  0  0  0  0
  -26.6069  -20.5722   23.8503 N   0  3  0  0  0  0
  -28.9754  -20.0342   22.4844 O   0  0  0  0  0  0
  -31.4611  -12.3523   19.1332 H   0  0  0  0  0  0
  -30.2959  -11.2738   19.8531 H   0  0  0  0  0  0
  -29.7286  -11.7249   17.4429 H   0  0  0  0  0  0
  -29.6702  -13.4423   17.7560 H   0  0  0  0  0  0
  -27.8262  -11.2864   18.8362 H   0  0  0  0  0  0
  -27.3617  -12.5964   17.7849 H   0  0  0  0  0  0
  -27.6826  -14.2350   19.5329 H   0  0  0  0  0  0
  -28.6726  -11.9977   21.3805 H   0  0  0  0  0  0
  -28.4891  -13.6673   21.8379 H   0  0  0  0  0  0
  -25.2733   -9.5664   22.4768 H   0  0  0  0  0  0
  -23.9973   -7.4622   22.7477 H   0  0  0  0  0  0
  -21.0815   -8.8765   19.8961 H   0  0  0  0  0  0
  -22.3664  -10.9670   19.6171 H   0  0  0  0  0  0
  -21.1993   -7.6137   23.9698 H   0  0  0  0  0  0
  -21.1488   -6.0533   25.9078 H   0  0  0  0  0  0
  -22.0599   -2.7601   23.2868 H   0  0  0  0  0  0
  -22.4091  -11.9877   22.4760 H   0  0  0  0  0  0
  -21.1117  -13.1271   22.2640 H   0  0  0  0  0  0
  -24.6452  -15.8254   20.4221 H   0  0  0  0  0  0
  -26.2507  -15.5765   19.9495 H   0  0  0  0  0  0
  -26.7102  -32.5550   23.1141 H   0  0  0  0  0  0
  -25.0055  -33.9780   25.0481 H   0  0  0  0  0  0
  -22.6894  -31.3133   21.4133 H   0  0  0  0  0  0
  -23.3741  -35.9672   23.3313 H   0  0  0  0  0  0
  -24.3585  -36.8921   22.2046 H   0  0  0  0  0  0
  -23.7266  -37.6541   23.6650 H   0  0  0  0  0  0
  -26.0287  -31.5987   20.5847 H   0  0  0  0  0  0
  -26.8206  -30.8988   21.9671 H   0  0  0  0  0  0
  -28.0929  -29.1080   21.1502 H   0  0  0  0  0  0
  -26.0129  -25.9827   19.0026 H   0  0  0  0  0  0
  -23.9626  -27.2945   19.0468 H   0  0  0  0  0  0
  -23.7187  -30.6036   19.4075 H   0  0  0  0  0  0
  -22.7294  -29.2487   19.8680 H   0  0  0  0  0  0
  -25.1291  -36.1978   25.0836 H   0  0  0  0  0  0
  -20.9968  -28.3231   24.1426 H   0  0  0  0  0  0
  -20.5752  -26.2286   23.3560 H   0  0  0  0  0  0
  -21.6636  -26.7535   22.1121 H   0  0  0  0  0  0
  -19.6898  -25.6283   21.1274 H   0  0  0  0  0  0
  -19.6581  -27.3178   20.6737 H   0  0  0  0  0  0
  -17.4152  -26.6587   21.4162 H   0  0  0  0  0  0
  -18.0439  -26.0062   22.9136 H   0  0  0  0  0  0
  -19.7922  -30.7293   24.2259 H   0  0  0  0  0  0
  -17.4996  -31.6297   24.5135 H   0  0  0  0  0  0
  -15.5331  -30.2997   23.7625 H   0  0  0  0  0  0
  -15.8652  -28.0829   22.7051 H   0  0  0  0  0  0
  -24.5930  -30.7022   25.7771 H   0  0  0  0  0  0
  -24.8960  -32.2819   26.4925 H   0  0  0  0  0  0
  -25.8127  -30.8804   27.0181 H   0  0  0  0  0  0
  -26.2824  -29.6778   24.1139 H   0  0  0  0  0  0
  -27.4194  -29.7284   25.4424 H   0  0  0  0  0  0
  -27.8611  -30.4378   23.9075 H   0  0  0  0  0  0
  -27.2695  -33.3569   26.2080 H   0  0  0  0  0  0
  -28.3864  -32.6855   25.0275 H   0  0  0  0  0  0
  -28.0753  -31.8369   26.5329 H   0  0  0  0  0  0
  -28.2611  -38.0105   24.7501 H   0  0  0  0  0  0
  -28.1080  -36.2641   24.6313 H   0  0  0  0  0  0
  -27.2310  -37.1495   25.8867 H   0  0  0  0  0  0
  -20.9259  -29.8782   21.6946 H   0  0  0  0  0  0
  -26.0196  -38.2874   24.1384 H   0  0  0  0  0  0
  -25.7757  -24.6234   21.5148 H   0  0  0  0  0  0
  -26.0744  -23.7676   19.9587 H   0  0  0  0  0  0
  -29.1683  -22.7725   21.6256 H   0  0  0  0  0  0
  -28.3725  -22.5170   20.0285 H   0  0  0  0  0  0
  -27.0222  -22.9931   22.7587 H   0  0  0  0  0  0
  -28.1644  -24.9406   21.8927 H   0  0  0  0  0  0
  -26.2361  -21.0868   20.4731 H   0  0  0  0  0  0
  -25.1147  -21.5968   21.6771 H   0  0  0  0  0  0
  -27.9593  -25.1230   18.8344 H   0  0  0  0  0  0
  -29.4982  -25.1001   19.6131 H   0  0  0  0  0  0
  -28.9550  -17.7875   19.6509 H   0  0  0  0  0  0
  -29.9904  -18.2791   20.9611 H   0  0  0  0  0  0
  -28.1336  -15.8580   21.2470 H   0  0  0  0  0  0
  -29.5370  -16.2381   22.2296 H   0  0  0  0  0  0
  -25.8086  -19.4421   22.3136 H   0  0  0  0  0  0
  -26.9858  -18.1498   20.9513 H   0  0  0  0  0  0
  -30.4744  -16.1790   19.6789 H   0  0  0  0  0  0
  -25.7645  -21.0381   24.1314 H   0  0  0  0  0  0
  -27.4055  -21.1587   24.0176 H   0  0  0  0  0  0
  -26.7237  -19.7408   24.4010 H   0  0  0  0  0  0
  1 25  1  0  0  0
  1 30  2  0  0  0
  1 82  1  0  0  0
  2  3  1  0  0  0
  2 25  1  0  0  0
  2 85  1  0  0  0
  2 86  1  0  0  0
  3  4  1  0  0  0
  3 87  1  0  0  0
  3 88  1  0  0  0
  4  5  1  0  0  0
  4 89  1  0  0  0
  4 90  1  0  0  0
  5  6  1  0  0  0
  5 26  1  0  0  0
  5 91  1  0  0  0
  6 25  1  0  0  0
  6 92  1  0  0  0
  6 93  1  0  0  0
  7  8  2  0  0  0
  7 26  1  0  0  0
  7 29  1  0  0  0
  8  9  1  0  0  0
  8 22  1  0  0  0
  9 10  1  0  0  0
  9 27  2  0  0  0
 10 11  2  0  0  0
 10 15  1  0  0  0
 11 12  1  0  0  0
 11 94  1  0  0  0
 12 13  2  0  0  0
 12 95  1  0  0  0
 13 14  1  0  0  0
 13 31  1  0  0  0
 14 15  2  0  0  0
 14 96  1  0  0  0
 15 97  1  0  0  0
 16 17  2  0  0  0
 16 21  1  0  0  0
 16 31  1  0  0  0
 17 18  1  0  0  0
 17 98  1  0  0  0
 18 19  2  0  0  0
 18 99  1  0  0  0
 19 20  1  0  0  0
 19 24  1  0  0  0
 20 21  2  0  0  0
 20100  1  0  0  0
 21 23  1  0  0  0
 22 28  1  0  0  0
 22 32  2  0  0  0
 26 27  1  0  0  0
 28101  1  0  0  0
 28102  1  0  0  0
 29103  1  0  0  0
 29104  1  0  0  0
 33 34  1  0  0  0
 33 66  1  0  0  0
 33 70  2  0  0  0
 34 36  1  0  0  0
 34 59  1  0  0  0
 34105  1  0  0  0
 35 44  2  0  0  0
 35 45  1  0  0  0
 35 68  1  0  0  0
 36 56  1  0  0  0
 36106  1  0  0  0
 37 39  1  0  0  0
 37 47  1  0  0  0
 37 66  1  0  0  0
 37107  1  0  0  0
 38 43  2  0  0  0
 38 46  1  0  0  0
 38 47  1  0  0  0
 39 64  1  0  0  0
 39 67  2  0  0  0
 40 52  1  0  0  0
 40 53  2  0  0  0
 40 58  1  0  0  0
 41108  1  0  0  0
 41109  1  0  0  0
 41110  1  0  0  0
 41 48  1  0  0  0
 42 43  1  0  0  0
 42 66  1  0  0  0
 42111  1  0  0  0
 42112  1  0  0  0
 43 44  1  0  0  0
 44113  1  0  0  0
 45 46  2  0  0  0
 45114  1  0  0  0
 46115  1  0  0  0
 47116  1  0  0  0
 47117  1  0  0  0
 48 56  1  0  0  0
 48 65  1  0  0  0
 48118  1  0  0  0
 49 50  1  0  0  0
 49 53  1  0  0  0
 49 64  1  0  0  0
 49119  1  0  0  0
 50 51  1  0  0  0
 50120  1  0  0  0
 50121  1  0  0  0
 51 52  1  0  0  0
 51122  1  0  0  0
 51123  1  0  0  0
 52124  1  0  0  0
 52125  1  0  0  0
 53 54  1  0  0  0
 54 55  2  0  0  0
 54126  1  0  0  0
 55 57  1  0  0  0
 55127  1  0  0  0
 56 69  2  0  0  0
 57 58  2  0  0  0
 57128  1  0  0  0
 58129  1  0  0  0
 59 60  1  0  0  0
 59 61  1  0  0  0
 59 62  1  0  0  0
 60130  1  0  0  0
 60131  1  0  0  0
 60132  1  0  0  0
 61133  1  0  0  0
 61134  1  0  0  0
 61135  1  0  0  0
 62136  1  0  0  0
 62137  1  0  0  0
 62138  1  0  0  0
 63 65  1  0  0  0
 63139  1  0  0  0
 63140  1  0  0  0
 63141  1  0  0  0
 64142  1  0  0  0
 65143  1  0  0  0
 68 77  1  0  0  0
 71 80  1  0  0  0
 71 81  1  0  0  0
 71 84  2  0  0  0
 72 74  1  0  0  0
 72 75  1  0  0  0
 72144  1  0  0  0
 72145  1  0  0  0
 73 74  1  0  0  0
 73 75  1  0  0  0
 73146  1  0  0  0
 73147  1  0  0  0
 74 76  1  0  0  0
 74148  1  0  0  0
 75 77  1  0  0  0
 75149  1  0  0  0
 76 80  1  0  0  0
 76150  1  0  0  0
 76151  1  0  0  0
 77152  1  0  0  0
 77153  1  0  0  0
 78 79  1  0  0  0
 78 81  1  0  0  0
 78154  1  0  0  0
 78155  1  0  0  0
 79 82  1  0  0  0
 79156  1  0  0  0
 79157  1  0  0  0
 80 83  1  0  0  0
 80158  1  0  0  0
 81159  1  0  0  0
 82160  1  0  0  0
 83161  1  0  0  0
 83162  1  0  0  0
 83163  1  0  0  0
M  CHG  1  83   1
M  ISO  4   1 100  68 101  77 101  82 100
M  END
> <chiral flag>
0

> <version>
0

> <s_m_source_file>
/data/baiqing/PycharmProjects/Reinvent-master-3.2/result/LINK_invent/BTK/process_docking_weight1_custom_sum_contain_oxygen_bond_distance_aromatic_linkinvent_7_9_3/rearranged_h_0120.sdf

> <i_m_source_file_index>
41

> <r_mmod_Potential_Energy-OPLS-2005>
-383.767181396484

> <r_mmod_Stretch_Energy-OPLS-2005>
32.8253402709961

> <r_mmod_Bend_Energy-OPLS-2005>
131.47526550293

> <r_mmod_Torsional_Energy-OPLS-2005>
274.822540283203

> <r_mmod_Improper_Torsional_Energy-OPLS-2005>
26.8625965118408

> <r_mmod_Van_der_Waal_Energy-OPLS-2005>
126.736557006836

> <r_mmod_Electrostatic_Energy-OPLS-2005>
-476.814178466797

> <r_mmod_Solvation_Energy-OPLS-2005>
-518.150085449219

> <b_mmod_Minimization_Converged-OPLS-2005>
0

> <r_mmod_RMS_Derivative-OPLS-2005>
2.16498684883118

$$$$
41
                    3D
 Structure written by MMmdl.
157165  0  0  1  0            999 V2000
  -30.6590  -14.5326   20.5194 C   0  0  0  0  0  0
  -30.4270  -12.3234   19.4427 C   0  0  0  0  0  0
  -29.5005  -12.5015   18.2197 C   0  0  0  0  0  0
  -28.0212  -12.3570   18.6311 C   0  0  0  0  0  0
  -27.6608  -13.2073   19.8791 C   0  0  2  0  0  0
  -28.7053  -13.0131   21.0036 C   0  0  0  0  0  0
  -25.2598  -13.8152   20.5738 C   0  0  0  0  0  0
  -24.1842  -13.0428   20.9207 C   0  0  0  0  0  0
  -24.6390  -11.6895   20.8750 C   0  0  0  0  0  0
  -23.9049  -10.4283   21.0403 C   0  0  0  0  0  0
  -24.3598   -9.4200   21.9185 C   0  0  0  0  0  0
  -23.6276   -8.2235   22.0756 C   0  0  0  0  0  0
  -22.4263   -8.0270   21.3544 C   0  0  0  0  0  0
  -21.9894   -9.0241   20.4651 C   0  0  0  0  0  0
  -22.7215  -10.2125   20.3061 C   0  0  0  0  0  0
  -21.6840   -6.0729   22.5277 C   0  0  0  0  0  0
  -21.4006   -6.5636   23.8212 C   0  0  0  0  0  0
  -21.3671   -5.6798   24.9179 C   0  0  0  0  0  0
  -21.6045   -4.3059   24.7234 C   0  0  0  0  0  0
  -21.8812   -3.8145   23.4354 C   0  0  0  0  0  0
  -21.9187   -4.6956   22.3407 C   0  0  0  0  0  0
  -22.7870  -13.5234   21.1858 C   0  0  0  0  0  0
  -22.1658   -4.2141   21.0986 F   0  0  0  0  0  0
  -21.5631   -3.4544   25.7748 F   0  0  0  0  0  0
  -30.0302  -13.3256   20.4458 N   0  0  0  0  0  0
  -26.3028  -12.9320   20.3417 N   0  0  0  0  0  0
  -25.9323  -11.6478   20.5805 N   0  0  0  0  0  0
  -22.0505  -12.8236   22.0415 N   0  0  0  0  0  0
  -25.4334  -15.1871   20.4149 N   0  0  0  0  0  0
  -31.8018  -14.7139   20.0907 O   0  0  0  0  0  0
  -21.6633   -6.8864   21.4237 O   0  0  0  0  0  0
  -22.3567  -14.5543   20.6703 O   0  0  0  0  0  0
  -24.6188  -31.8608   23.2070 C   0  0  0  0  0  0
  -25.9070  -32.4766   23.8370 C   0  0  1  0  0  0
  -27.2329  -27.3857   20.0960 C   0  0  0  0  0  0
  -25.5912  -33.8569   24.2293 N   0  0  0  0  0  0
  -23.4075  -30.4841   21.5488 C   0  0  2  0  0  0
  -24.8508  -28.9415   20.1120 C   0  0  0  0  0  0
  -22.7413  -29.4622   22.4986 C   0  0  0  0  0  0
  -18.0260  -28.1369   22.8484 C   0  0  0  0  0  0
  -24.1485  -36.7308   23.2638 C   0  0  0  0  0  0
  -25.9396  -30.8102   21.3668 C   0  0  0  0  0  0
  -26.0128  -29.4420   20.7110 C   0  0  0  0  0  0
  -27.2000  -28.6694   20.7018 C   0  0  0  0  0  0
  -26.0453  -26.9039   19.4997 C   0  0  0  0  0  0
  -24.8643  -27.6730   19.5057 C   0  0  0  0  0  0
  -23.6152  -29.8137   20.1640 C   0  0  0  0  0  0
  -25.4103  -36.3070   24.0329 C   0  0  1  0  0  0
  -20.5852  -28.3657   23.1317 C   0  0  2  0  0  0
  -20.6745  -26.9394   22.5419 C   0  0  0  0  0  0
  -19.5732  -26.6380   21.5206 C   0  0  0  0  0  0
  -18.1912  -26.7911   22.1620 C   0  0  0  0  0  0
  -19.1511  -28.8836   23.2887 C   0  0  0  0  0  0
  -18.9433  -30.1442   23.8894 C   0  0  0  0  0  0
  -17.6436  -30.6579   24.0560 C   0  0  0  0  0  0
  -25.9032  -34.9439   23.5108 C   0  0  0  0  0  0
  -16.5330  -29.9072   23.6329 C   0  0  0  0  0  0
  -16.7247  -28.6492   23.0344 C   0  0  0  0  0  0
  -26.4480  -31.6562   25.0724 C   0  0  0  0  0  0
  -25.3758  -31.3664   26.1481 C   0  0  0  0  0  0
  -27.0307  -30.2992   24.6140 C   0  0  0  0  0  0
  -27.6039  -32.4298   25.7495 C   0  0  0  0  0  0
  -27.5568  -37.1804   24.8459 C   0  0  0  0  0  0
  -21.4140  -29.3015   22.3721 N   0  0  0  0  0  0
  -26.4274  -37.3770   23.9406 N   0  0  0  0  0  0
  -24.6741  -31.0675   22.0985 N   0  0  0  0  0  0
  -23.4159  -28.8175   23.3057 O   0  0  0  0  0  0
  -28.4112  -26.6516   20.1482 O   0  0  0  0  0  0
  -26.5594  -34.8907   22.4666 O   0  0  0  0  0  0
  -23.5379  -32.1380   23.7455 O   0  0  0  0  0  0
  -27.4834  -20.8156   20.0091 C   0  0  0  0  0  0
  -27.5833  -19.5319   20.4738 C   0  0  0  0  0  0
  -29.6090  -20.4619   20.5847 C   0  0  0  0  0  0
  -28.7697  -21.4285   20.0615 C   0  0  0  0  0  0
  -30.0442  -25.6237   18.8314 C   0  0  0  0  0  0
  -29.1280  -22.8306   19.5342 C   0  0  0  0  0  0
  -28.4828  -24.0934   20.2098 C   0  0  0  0  0  0
  -29.3723  -18.0224   21.4447 C   0  0  0  0  0  0
  -30.0602  -16.9995   20.4857 C   0  0  0  0  0  0
  -28.6261  -25.4325   19.3882 C   0  0  2  0  0  0
  -28.8950  -19.2871   20.8379 N   0  0  0  0  0  0
  -29.8710  -15.5752   20.8717 N   0  0  0  0  0  0
  -31.4734  -12.4193   19.1493 H   0  0  0  0  0  0
  -30.3249  -11.3190   19.8566 H   0  0  0  0  0  0
  -29.7442  -11.7679   17.4504 H   0  0  0  0  0  0
  -29.6632  -13.4832   17.7718 H   0  0  0  0  0  0
  -27.8391  -11.3017   18.8387 H   0  0  0  0  0  0
  -27.3683  -12.6170   17.7970 H   0  0  0  0  0  0
  -27.6953  -14.2517   19.5674 H   0  0  0  0  0  0
  -28.6933  -11.9834   21.3636 H   0  0  0  0  0  0
  -28.4738  -13.6280   21.8740 H   0  0  0  0  0  0
  -25.2732   -9.5678   22.4778 H   0  0  0  0  0  0
  -23.9975   -7.4628   22.7481 H   0  0  0  0  0  0
  -21.0820   -8.8752   19.8967 H   0  0  0  0  0  0
  -22.3649  -10.9666   19.6187 H   0  0  0  0  0  0
  -21.1994   -7.6144   23.9706 H   0  0  0  0  0  0
  -21.1509   -6.0537   25.9081 H   0  0  0  0  0  0
  -22.0582   -2.7605   23.2860 H   0  0  0  0  0  0
  -22.4099  -11.9875   22.4779 H   0  0  0  0  0  0
  -21.1139  -13.1294   22.2643 H   0  0  0  0  0  0
  -24.6650  -15.8402   20.5209 H   0  0  0  0  0  0
  -26.2799  -15.6233   20.0725 H   0  0  0  0  0  0
  -26.7138  -32.5443   23.1120 H   0  0  0  0  0  0
  -25.0062  -33.9709   25.0437 H   0  0  0  0  0  0
  -22.6999  -31.3042   21.4088 H   0  0  0  0  0  0
  -23.3722  -35.9665   23.3298 H   0  0  0  0  0  0
  -24.3580  -36.8926   22.2055 H   0  0  0  0  0  0
  -23.7276  -37.6528   23.6658 H   0  0  0  0  0  0
  -26.0649  -31.5771   20.6013 H   0  0  0  0  0  0
  -26.8230  -30.8564   21.9917 H   0  0  0  0  0  0
  -28.0947  -29.0503   21.1742 H   0  0  0  0  0  0
  -25.9999  -25.9243   19.0485 H   0  0  0  0  0  0
  -23.9667  -27.2745   19.0515 H   0  0  0  0  0  0
  -23.7262  -30.5878   19.4043 H   0  0  0  0  0  0
  -22.7367  -29.2371   19.8677 H   0  0  0  0  0  0
  -25.1286  -36.1917   25.0824 H   0  0  0  0  0  0
  -20.9929  -28.3220   24.1440 H   0  0  0  0  0  0
  -20.5635  -26.2267   23.3601 H   0  0  0  0  0  0
  -21.6617  -26.7430   22.1224 H   0  0  0  0  0  0
  -19.6899  -25.6295   21.1222 H   0  0  0  0  0  0
  -19.6670  -27.3200   20.6747 H   0  0  0  0  0  0
  -17.4176  -26.6647   21.4024 H   0  0  0  0  0  0
  -18.0322  -26.0049   22.9017 H   0  0  0  0  0  0
  -19.7913  -30.7258   24.2255 H   0  0  0  0  0  0
  -17.4991  -31.6254   24.5162 H   0  0  0  0  0  0
  -15.5330  -30.2970   23.7661 H   0  0  0  0  0  0
  -15.8643  -28.0817   22.7054 H   0  0  0  0  0  0
  -24.5956  -30.6967   25.7847 H   0  0  0  0  0  0
  -24.8927  -32.2809   26.4939 H   0  0  0  0  0  0
  -25.8149  -30.8859   27.0237 H   0  0  0  0  0  0
  -26.2856  -29.6759   24.1186 H   0  0  0  0  0  0
  -27.4028  -29.7232   25.4623 H   0  0  0  0  0  0
  -27.8720  -30.4276   23.9324 H   0  0  0  0  0  0
  -27.2634  -33.3592   26.2074 H   0  0  0  0  0  0
  -28.3854  -32.6861   25.0328 H   0  0  0  0  0  0
  -28.0698  -31.8423   26.5415 H   0  0  0  0  0  0
  -28.2577  -38.0105   24.7482 H   0  0  0  0  0  0
  -28.1064  -36.2631   24.6297 H   0  0  0  0  0  0
  -27.2282  -37.1476   25.8859 H   0  0  0  0  0  0
  -20.9312  -29.8726   21.6926 H   0  0  0  0  0  0
  -26.0149  -38.2837   24.1411 H   0  0  0  0  0  0
  -26.5695  -21.2645   19.6436 H   0  0  0  0  0  0
  -26.8264  -18.7654   20.5866 H   0  0  0  0  0  0
  -30.6721  -20.4977   20.7906 H   0  0  0  0  0  0
  -30.7834  -25.6407   19.6325 H   0  0  0  0  0  0
  -30.1206  -26.5652   18.2867 H   0  0  0  0  0  0
  -30.3183  -24.8342   18.1327 H   0  0  0  0  0  0
  -28.8603  -22.8354   18.4769 H   0  0  0  0  0  0
  -30.2134  -22.9240   19.5642 H   0  0  0  0  0  0
  -28.9224  -24.2185   21.1997 H   0  0  0  0  0  0
  -27.4210  -23.9113   20.3770 H   0  0  0  0  0  0
  -30.0476  -18.2662   22.2656 H   0  0  0  0  0  0
  -28.5067  -17.5487   21.9103 H   0  0  0  0  0  0
  -29.6535  -17.1180   19.4804 H   0  0  0  0  0  0
  -31.1225  -17.2400   20.4096 H   0  0  0  0  0  0
  -27.9759  -25.3837   18.5165 H   0  0  0  0  0  0
  -28.9579  -15.3226   21.2191 H   0  0  0  0  0  0
  1 25  1  0  0  0
  1 30  2  0  0  0
  1 82  1  0  0  0
  2  3  1  0  0  0
  2 25  1  0  0  0
  2 83  1  0  0  0
  2 84  1  0  0  0
  3  4  1  0  0  0
  3 85  1  0  0  0
  3 86  1  0  0  0
  4  5  1  0  0  0
  4 87  1  0  0  0
  4 88  1  0  0  0
  5  6  1  0  0  0
  5 26  1  0  0  0
  5 89  1  0  0  0
  6 25  1  0  0  0
  6 90  1  0  0  0
  6 91  1  0  0  0
  7  8  2  0  0  0
  7 26  1  0  0  0
  7 29  1  0  0  0
  8  9  1  0  0  0
  8 22  1  0  0  0
  9 10  1  0  0  0
  9 27  2  0  0  0
 10 11  2  0  0  0
 10 15  1  0  0  0
 11 12  1  0  0  0
 11 92  1  0  0  0
 12 13  2  0  0  0
 12 93  1  0  0  0
 13 14  1  0  0  0
 13 31  1  0  0  0
 14 15  2  0  0  0
 14 94  1  0  0  0
 15 95  1  0  0  0
 16 17  2  0  0  0
 16 21  1  0  0  0
 16 31  1  0  0  0
 17 18  1  0  0  0
 17 96  1  0  0  0
 18 19  2  0  0  0
 18 97  1  0  0  0
 19 20  1  0  0  0
 19 24  1  0  0  0
 20 21  2  0  0  0
 20 98  1  0  0  0
 21 23  1  0  0  0
 22 28  1  0  0  0
 22 32  2  0  0  0
 26 27  1  0  0  0
 28 99  1  0  0  0
 28100  1  0  0  0
 29101  1  0  0  0
 29102  1  0  0  0
 33 34  1  0  0  0
 33 66  1  0  0  0
 33 70  2  0  0  0
 34 36  1  0  0  0
 34 59  1  0  0  0
 34103  1  0  0  0
 35 44  2  0  0  0
 35 45  1  0  0  0
 35 68  1  0  0  0
 36 56  1  0  0  0
 36104  1  0  0  0
 37 39  1  0  0  0
 37 47  1  0  0  0
 37 66  1  0  0  0
 37105  1  0  0  0
 38 43  2  0  0  0
 38 46  1  0  0  0
 38 47  1  0  0  0
 39 64  1  0  0  0
 39 67  2  0  0  0
 40 52  1  0  0  0
 40 53  2  0  0  0
 40 58  1  0  0  0
 41106  1  0  0  0
 41107  1  0  0  0
 41108  1  0  0  0
 41 48  1  0  0  0
 42 43  1  0  0  0
 42 66  1  0  0  0
 42109  1  0  0  0
 42110  1  0  0  0
 43 44  1  0  0  0
 44111  1  0  0  0
 45 46  2  0  0  0
 45112  1  0  0  0
 46113  1  0  0  0
 47114  1  0  0  0
 47115  1  0  0  0
 48 56  1  0  0  0
 48 65  1  0  0  0
 48116  1  0  0  0
 49 50  1  0  0  0
 49 53  1  0  0  0
 49 64  1  0  0  0
 49117  1  0  0  0
 50 51  1  0  0  0
 50118  1  0  0  0
 50119  1  0  0  0
 51 52  1  0  0  0
 51120  1  0  0  0
 51121  1  0  0  0
 52122  1  0  0  0
 52123  1  0  0  0
 53 54  1  0  0  0
 54 55  2  0  0  0
 54124  1  0  0  0
 55 57  1  0  0  0
 55125  1  0  0  0
 56 69  2  0  0  0
 57 58  2  0  0  0
 57126  1  0  0  0
 58127  1  0  0  0
 59 60  1  0  0  0
 59 61  1  0  0  0
 59 62  1  0  0  0
 60128  1  0  0  0
 60129  1  0  0  0
 60130  1  0  0  0
 61131  1  0  0  0
 61132  1  0  0  0
 61133  1  0  0  0
 62134  1  0  0  0
 62135  1  0  0  0
 62136  1  0  0  0
 63 65  1  0  0  0
 63137  1  0  0  0
 63138  1  0  0  0
 63139  1  0  0  0
 64140  1  0  0  0
 65141  1  0  0  0
 68 80  1  0  0  0
 71 72  2  0  0  0
 71 74  1  0  0  0
 71142  1  0  0  0
 72 81  1  0  0  0
 72143  1  0  0  0
 73 74  2  0  0  0
 73 81  1  0  0  0
 73144  1  0  0  0
 74 76  1  0  0  0
 75145  1  0  0  0
 75146  1  0  0  0
 75147  1  0  0  0
 75 80  1  0  0  0
 76 77  1  0  0  0
 76148  1  0  0  0
 76149  1  0  0  0
 77 80  1  0  0  0
 77150  1  0  0  0
 77151  1  0  0  0
 78 79  1  0  0  0
 78 81  1  0  0  0
 78152  1  0  0  0
 78153  1  0  0  0
 79 82  1  0  0  0
 79154  1  0  0  0
 79155  1  0  0  0
 80156  1  0  0  0
 82157  1  0  0  0
M  ISO  4   1 100  68 101  80 101  82 100
M  END
> <chiral flag>
0

> <version>
0

> <s_m_source_file>
/data/baiqing/PycharmProjects/Reinvent-master-3.2/result/LINK_invent/BTK/process_docking_weight1_custom_sum_contain_oxygen_bond_distance_aromatic_linkinvent_7_9_3/rearranged_h_0120.sdf

> <i_m_source_file_index>
42

> <r_mmod_Potential_Energy-OPLS-2005>
-66.4386138916016

> <r_mmod_Stretch_Energy-OPLS-2005>
47.7180633544922

> <r_mmod_Bend_Energy-OPLS-2005>
119.325820922852

> <r_mmod_Torsional_Energy-OPLS-2005>
221.044281005859

> <r_mmod_Improper_Torsional_Energy-OPLS-2005>
6.62942028045654

> <r_mmod_Van_der_Waal_Energy-OPLS-2005>
122.202690124512

> <r_mmod_Electrostatic_Energy-OPLS-2005>
-390.706237792969

> <r_mmod_Solvation_Energy-OPLS-2005>
-214.731552124023

> <b_mmod_Minimization_Converged-OPLS-2005>
0

> <r_mmod_RMS_Derivative-OPLS-2005>
1.6080219745636

$$$$
42
                    3D
 Structure written by MMmdl.
153161  0  0  1  0            999 V2000
  -30.6934  -14.4932   20.5541 C   0  0  0  0  0  0
  -30.4228  -12.3096   19.4357 C   0  0  0  0  0  0
  -29.4949  -12.4913   18.2152 C   0  0  0  0  0  0
  -28.0166  -12.3530   18.6289 C   0  0  0  0  0  0
  -27.6585  -13.2058   19.8746 C   0  0  2  0  0  0
  -28.7002  -13.0039   20.9992 C   0  0  0  0  0  0
  -25.2571  -13.8155   20.5689 C   0  0  0  0  0  0
  -24.1828  -13.0431   20.9195 C   0  0  0  0  0  0
  -24.6379  -11.6892   20.8757 C   0  0  0  0  0  0
  -23.9045  -10.4285   21.0416 C   0  0  0  0  0  0
  -24.3597   -9.4202   21.9195 C   0  0  0  0  0  0
  -23.6287   -8.2233   22.0757 C   0  0  0  0  0  0
  -22.4279   -8.0263   21.3537 C   0  0  0  0  0  0
  -21.9899   -9.0238   20.4640 C   0  0  0  0  0  0
  -22.7219  -10.2125   20.3063 C   0  0  0  0  0  0
  -21.6851   -6.0726   22.5273 C   0  0  0  0  0  0
  -21.4004   -6.5634   23.8202 C   0  0  0  0  0  0
  -21.3663   -5.6795   24.9163 C   0  0  0  0  0  0
  -21.6059   -4.3057   24.7220 C   0  0  0  0  0  0
  -21.8818   -3.8142   23.4336 C   0  0  0  0  0  0
  -21.9191   -4.6958   22.3393 C   0  0  0  0  0  0
  -22.7854  -13.5231   21.1867 C   0  0  0  0  0  0
  -22.1667   -4.2140   21.0973 F   0  0  0  0  0  0
  -21.5635   -3.4542   25.7728 F   0  0  0  0  0  0
  -30.0317  -13.3061   20.4460 N   0  0  0  0  0  0
  -26.2999  -12.9319   20.3374 N   0  0  0  0  0  0
  -25.9305  -11.6483   20.5788 N   0  0  0  0  0  0
  -22.0502  -12.8208   22.0415 N   0  0  0  0  0  0
  -25.4302  -15.1870   20.4052 N   0  0  0  0  0  0
  -31.8358  -14.6427   20.1067 O   0  0  0  0  0  0
  -21.6640   -6.8865   21.4232 O   0  0  0  0  0  0
  -22.3549  -14.5547   20.6740 O   0  0  0  0  0  0
  -24.6134  -31.8655   23.2072 C   0  0  0  0  0  0
  -25.9014  -32.4822   23.8394 C   0  0  1  0  0  0
  -27.2510  -27.4339   20.1004 C   0  0  0  0  0  0
  -25.5838  -33.8617   24.2322 N   0  0  0  0  0  0
  -23.4030  -30.4884   21.5468 C   0  0  2  0  0  0
  -24.8518  -28.9496   20.1123 C   0  0  0  0  0  0
  -22.7415  -29.4637   22.4977 C   0  0  0  0  0  0
  -18.0262  -28.1375   22.8525 C   0  0  0  0  0  0
  -24.1476  -36.7318   23.2649 C   0  0  0  0  0  0
  -25.9291  -30.8350   21.3545 C   0  0  0  0  0  0
  -26.0093  -29.4677   20.7058 C   0  0  0  0  0  0
  -27.2071  -28.7178   20.6927 C   0  0  0  0  0  0
  -26.0716  -26.9270   19.5065 C   0  0  0  0  0  0
  -24.8790  -27.6784   19.5103 C   0  0  0  0  0  0
  -23.6110  -29.8143   20.1622 C   0  0  0  0  0  0
  -25.4090  -36.3118   24.0358 C   0  0  1  0  0  0
  -20.5859  -28.3646   23.1336 C   0  0  2  0  0  0
  -20.6756  -26.9388   22.5427 C   0  0  0  0  0  0
  -19.5725  -26.6379   21.5231 C   0  0  0  0  0  0
  -18.1903  -26.7931   22.1637 C   0  0  0  0  0  0
  -19.1522  -28.8830   23.2932 C   0  0  0  0  0  0
  -18.9449  -30.1450   23.8911 C   0  0  0  0  0  0
  -17.6456  -30.6587   24.0587 C   0  0  0  0  0  0
  -25.9009  -34.9484   23.5144 C   0  0  0  0  0  0
  -16.5346  -29.9100   23.6342 C   0  0  0  0  0  0
  -16.7254  -28.6520   23.0348 C   0  0  0  0  0  0
  -26.4420  -31.6605   25.0725 C   0  0  0  0  0  0
  -25.3700  -31.3763   26.1516 C   0  0  0  0  0  0
  -27.0227  -30.3059   24.6069 C   0  0  0  0  0  0
  -27.6029  -32.4302   25.7436 C   0  0  0  0  0  0
  -27.5576  -37.1810   24.8470 C   0  0  0  0  0  0
  -21.4142  -29.3021   22.3740 N   0  0  0  0  0  0
  -26.4282  -37.3797   23.9431 N   0  0  0  0  0  0
  -24.6674  -31.0787   22.0952 N   0  0  0  0  0  0
  -23.4198  -28.8181   23.3009 O   0  0  0  0  0  0
  -28.4472  -26.7405   20.1224 O   0  0  0  0  0  0
  -26.5617  -34.8946   22.4732 O   0  0  0  0  0  0
  -23.5324  -32.1378   23.7482 O   0  0  0  0  0  0
  -29.0597  -19.1185   20.6741 C   0  0  0  0  0  0
  -28.9801  -17.7246   20.8958 C   0  0  0  0  0  0
  -31.4376  -18.8420   20.4939 C   0  0  0  0  0  0
  -30.3250  -19.7071   20.4515 C   0  0  0  0  0  0
  -30.1452  -16.9236   20.8777 C   0  0  0  0  0  0
  -29.7171  -22.1431   20.0778 C   0  0  0  0  0  0
  -30.3129  -23.4453   19.5024 C   0  0  0  0  0  0
  -29.8794  -24.7888   20.1567 C   0  0  0  0  0  0
  -28.4809  -25.3430   19.7904 C   0  0  0  0  0  0
  -31.3546  -17.5072   20.7020 N   0  0  0  0  0  0
  -30.5595  -21.0907   20.1431 N   0  0  0  0  0  0
  -29.9568  -15.5155   21.0454 N   0  0  0  0  0  0
  -28.5423  -22.1082   20.4444 O   0  0  0  0  0  0
  -31.4677  -12.4026   19.1342 H   0  0  0  0  0  0
  -30.3234  -11.3041   19.8465 H   0  0  0  0  0  0
  -29.7373  -11.7539   17.4487 H   0  0  0  0  0  0
  -29.6605  -13.4701   17.7622 H   0  0  0  0  0  0
  -27.8343  -11.2989   18.8416 H   0  0  0  0  0  0
  -27.3626  -12.6106   17.7945 H   0  0  0  0  0  0
  -27.6965  -14.2495   19.5634 H   0  0  0  0  0  0
  -28.6785  -11.9729   21.3557 H   0  0  0  0  0  0
  -28.4600  -13.6146   21.8702 H   0  0  0  0  0  0
  -25.2736   -9.5694   22.4772 H   0  0  0  0  0  0
  -24.0004   -7.4623   22.7470 H   0  0  0  0  0  0
  -21.0837   -8.8737   19.8941 H   0  0  0  0  0  0
  -22.3670  -10.9657   19.6171 H   0  0  0  0  0  0
  -21.1990   -7.6145   23.9695 H   0  0  0  0  0  0
  -21.1498   -6.0528   25.9068 H   0  0  0  0  0  0
  -22.0600   -2.7605   23.2830 H   0  0  0  0  0  0
  -22.4109  -11.9840   22.4747 H   0  0  0  0  0  0
  -21.1125  -13.1229   22.2646 H   0  0  0  0  0  0
  -24.6580  -15.8379   20.4921 H   0  0  0  0  0  0
  -26.2667  -15.6145   20.0310 H   0  0  0  0  0  0
  -26.7087  -32.5495   23.1156 H   0  0  0  0  0  0
  -24.9970  -33.9772   25.0450 H   0  0  0  0  0  0
  -22.6921  -31.3039   21.4046 H   0  0  0  0  0  0
  -23.3754  -35.9630   23.3286 H   0  0  0  0  0  0
  -24.3591  -36.8939   22.2070 H   0  0  0  0  0  0
  -23.7207  -37.6510   23.6669 H   0  0  0  0  0  0
  -26.0366  -31.5984   20.5827 H   0  0  0  0  0  0
  -26.8200  -30.8928   21.9679 H   0  0  0  0  0  0
  -28.1028  -29.1246   21.1419 H   0  0  0  0  0  0
  -26.0595  -25.9556   19.0352 H   0  0  0  0  0  0
  -23.9885  -27.2715   19.0496 H   0  0  0  0  0  0
  -23.7105  -30.5863   19.3983 H   0  0  0  0  0  0
  -22.7363  -29.2285   19.8730 H   0  0  0  0  0  0
  -25.1265  -36.1981   25.0853 H   0  0  0  0  0  0
  -20.9965  -28.3185   24.1444 H   0  0  0  0  0  0
  -20.5652  -26.2252   23.3604 H   0  0  0  0  0  0
  -21.6616  -26.7405   22.1200 H   0  0  0  0  0  0
  -19.6897  -25.6301   21.1219 H   0  0  0  0  0  0
  -19.6670  -27.3234   20.6801 H   0  0  0  0  0  0
  -17.4186  -26.6699   21.4027 H   0  0  0  0  0  0
  -18.0277  -26.0063   22.9012 H   0  0  0  0  0  0
  -19.7934  -30.7282   24.2231 H   0  0  0  0  0  0
  -17.5021  -31.6267   24.5195 H   0  0  0  0  0  0
  -15.5353  -30.3028   23.7665 H   0  0  0  0  0  0
  -15.8645  -28.0880   22.7015 H   0  0  0  0  0  0
  -24.5756  -30.7237   25.7871 H   0  0  0  0  0  0
  -24.9035  -32.2960   26.5069 H   0  0  0  0  0  0
  -25.8038  -30.8824   27.0217 H   0  0  0  0  0  0
  -26.2746  -29.6837   24.1144 H   0  0  0  0  0  0
  -27.4057  -29.7278   25.4479 H   0  0  0  0  0  0
  -27.8555  -30.4407   23.9160 H   0  0  0  0  0  0
  -27.2722  -33.3682   26.1905 H   0  0  0  0  0  0
  -28.3874  -32.6698   25.0245 H   0  0  0  0  0  0
  -28.0637  -31.8465   26.5413 H   0  0  0  0  0  0
  -28.2600  -38.0102   24.7523 H   0  0  0  0  0  0
  -28.1058  -36.2640   24.6268 H   0  0  0  0  0  0
  -27.2319  -37.1431   25.8878 H   0  0  0  0  0  0
  -20.9279  -29.8790   21.7017 H   0  0  0  0  0  0
  -26.0177  -38.2877   24.1427 H   0  0  0  0  0  0
  -28.1497  -19.6966   20.6558 H   0  0  0  0  0  0
  -28.0063  -17.2785   21.0433 H   0  0  0  0  0  0
  -32.4344  -19.2264   20.3309 H   0  0  0  0  0  0
  -30.1155  -23.4748   18.4298 H   0  0  0  0  0  0
  -31.4005  -23.3779   19.5872 H   0  0  0  0  0  0
  -30.6153  -25.5331   19.8481 H   0  0  0  0  0  0
  -29.9756  -24.7258   21.2423 H   0  0  0  0  0  0
  -27.7112  -24.7937   20.3345 H   0  0  0  0  0  0
  -28.2882  -25.2194   18.7237 H   0  0  0  0  0  0
  -31.5144  -21.3137   19.8909 H   0  0  0  0  0  0
  -29.0469  -15.2387   21.3765 H   0  0  0  0  0  0
  1 25  1  0  0  0
  1 30  2  0  0  0
  1 82  1  0  0  0
  2  3  1  0  0  0
  2 25  1  0  0  0
  2 84  1  0  0  0
  2 85  1  0  0  0
  3  4  1  0  0  0
  3 86  1  0  0  0
  3 87  1  0  0  0
  4  5  1  0  0  0
  4 88  1  0  0  0
  4 89  1  0  0  0
  5  6  1  0  0  0
  5 26  1  0  0  0
  5 90  1  0  0  0
  6 25  1  0  0  0
  6 91  1  0  0  0
  6 92  1  0  0  0
  7  8  2  0  0  0
  7 26  1  0  0  0
  7 29  1  0  0  0
  8  9  1  0  0  0
  8 22  1  0  0  0
  9 10  1  0  0  0
  9 27  2  0  0  0
 10 11  2  0  0  0
 10 15  1  0  0  0
 11 12  1  0  0  0
 11 93  1  0  0  0
 12 13  2  0  0  0
 12 94  1  0  0  0
 13 14  1  0  0  0
 13 31  1  0  0  0
 14 15  2  0  0  0
 14 95  1  0  0  0
 15 96  1  0  0  0
 16 17  2  0  0  0
 16 21  1  0  0  0
 16 31  1  0  0  0
 17 18  1  0  0  0
 17 97  1  0  0  0
 18 19  2  0  0  0
 18 98  1  0  0  0
 19 20  1  0  0  0
 19 24  1  0  0  0
 20 21  2  0  0  0
 20 99  1  0  0  0
 21 23  1  0  0  0
 22 28  1  0  0  0
 22 32  2  0  0  0
 26 27  1  0  0  0
 28100  1  0  0  0
 28101  1  0  0  0
 29102  1  0  0  0
 29103  1  0  0  0
 33 34  1  0  0  0
 33 66  1  0  0  0
 33 70  2  0  0  0
 34 36  1  0  0  0
 34 59  1  0  0  0
 34104  1  0  0  0
 35 44  2  0  0  0
 35 45  1  0  0  0
 35 68  1  0  0  0
 36 56  1  0  0  0
 36105  1  0  0  0
 37 39  1  0  0  0
 37 47  1  0  0  0
 37 66  1  0  0  0
 37106  1  0  0  0
 38 43  2  0  0  0
 38 46  1  0  0  0
 38 47  1  0  0  0
 39 64  1  0  0  0
 39 67  2  0  0  0
 40 52  1  0  0  0
 40 53  2  0  0  0
 40 58  1  0  0  0
 41107  1  0  0  0
 41108  1  0  0  0
 41109  1  0  0  0
 41 48  1  0  0  0
 42 43  1  0  0  0
 42 66  1  0  0  0
 42110  1  0  0  0
 42111  1  0  0  0
 43 44  1  0  0  0
 44112  1  0  0  0
 45 46  2  0  0  0
 45113  1  0  0  0
 46114  1  0  0  0
 47115  1  0  0  0
 47116  1  0  0  0
 48 56  1  0  0  0
 48 65  1  0  0  0
 48117  1  0  0  0
 49 50  1  0  0  0
 49 53  1  0  0  0
 49 64  1  0  0  0
 49118  1  0  0  0
 50 51  1  0  0  0
 50119  1  0  0  0
 50120  1  0  0  0
 51 52  1  0  0  0
 51121  1  0  0  0
 51122  1  0  0  0
 52123  1  0  0  0
 52124  1  0  0  0
 53 54  1  0  0  0
 54 55  2  0  0  0
 54125  1  0  0  0
 55 57  1  0  0  0
 55126  1  0  0  0
 56 69  2  0  0  0
 57 58  2  0  0  0
 57127  1  0  0  0
 58128  1  0  0  0
 59 60  1  0  0  0
 59 61  1  0  0  0
 59 62  1  0  0  0
 60129  1  0  0  0
 60130  1  0  0  0
 60131  1  0  0  0
 61132  1  0  0  0
 61133  1  0  0  0
 61134  1  0  0  0
 62135  1  0  0  0
 62136  1  0  0  0
 62137  1  0  0  0
 63 65  1  0  0  0
 63138  1  0  0  0
 63139  1  0  0  0
 63140  1  0  0  0
 64141  1  0  0  0
 65142  1  0  0  0
 68 79  1  0  0  0
 71 72  2  0  0  0
 71 74  1  0  0  0
 71143  1  0  0  0
 72 75  1  0  0  0
 72144  1  0  0  0
 73 74  2  0  0  0
 73 80  1  0  0  0
 73145  1  0  0  0
 74 81  1  0  0  0
 75 80  2  0  0  0
 75 82  1  0  0  0
 76 77  1  0  0  0
 76 81  1  0  0  0
 76 83  2  0  0  0
 77 78  1  0  0  0
 77146  1  0  0  0
 77147  1  0  0  0
 78 79  1  0  0  0
 78148  1  0  0  0
 78149  1  0  0  0
 79150  1  0  0  0
 79151  1  0  0  0
 81152  1  0  0  0
 82153  1  0  0  0
M  ISO  4   1 100  68 101  79 101  82 100
M  END
> <chiral flag>
0

> <version>
0

> <s_m_source_file>
/data/baiqing/PycharmProjects/Reinvent-master-3.2/result/LINK_invent/BTK/process_docking_weight1_custom_sum_contain_oxygen_bond_distance_aromatic_linkinvent_7_9_3/rearranged_h_0120.sdf

> <i_m_source_file_index>
43

> <r_mmod_Potential_Energy-OPLS-2005>
-291.343536376953

> <r_mmod_Stretch_Energy-OPLS-2005>
39.3478469848633

> <r_mmod_Bend_Energy-OPLS-2005>
118.050491333008

> <r_mmod_Torsional_Energy-OPLS-2005>
204.241989135742

> <r_mmod_Improper_Torsional_Energy-OPLS-2005>
4.27909469604492

> <r_mmod_Van_der_Waal_Energy-OPLS-2005>
155.72541809082

> <r_mmod_Electrostatic_Energy-OPLS-2005>
-572.606689453125

> <r_mmod_Solvation_Energy-OPLS-2005>
-255.288681030273

> <b_mmod_Minimization_Converged-OPLS-2005>
0

> <r_mmod_RMS_Derivative-OPLS-2005>
2.63950753211975

$$$$
43
                    3D
 Structure written by MMmdl.
162171  0  0  1  0            999 V2000
  -30.6081  -14.9178   20.4198 C   0  0  0  0  0  0
  -30.4332  -12.5825   19.4629 C   0  0  0  0  0  0
  -29.5011  -12.5094   18.2345 C   0  0  0  0  0  0
  -28.0432  -12.2751   18.6736 C   0  0  0  0  0  0
  -27.6236  -13.2097   19.8346 C   0  0  2  0  0  0
  -28.6865  -13.2532   20.9583 C   0  0  0  0  0  0
  -25.2446  -13.8093   20.5696 C   0  0  0  0  0  0
  -24.1750  -13.0370   20.9246 C   0  0  0  0  0  0
  -24.6341  -11.6853   20.8801 C   0  0  0  0  0  0
  -23.9026  -10.4251   21.0439 C   0  0  0  0  0  0
  -24.3590   -9.4171   21.9208 C   0  0  0  0  0  0
  -23.6274   -8.2206   22.0759 C   0  0  0  0  0  0
  -22.4260   -8.0252   21.3542 C   0  0  0  0  0  0
  -21.9891   -9.0226   20.4647 C   0  0  0  0  0  0
  -22.7210  -10.2108   20.3070 C   0  0  0  0  0  0
  -21.6841   -6.0721   22.5279 C   0  0  0  0  0  0
  -21.4004   -6.5631   23.8210 C   0  0  0  0  0  0
  -21.3657   -5.6787   24.9175 C   0  0  0  0  0  0
  -21.6045   -4.3050   24.7227 C   0  0  0  0  0  0
  -21.8820   -3.8139   23.4350 C   0  0  0  0  0  0
  -21.9190   -4.6952   22.3405 C   0  0  0  0  0  0
  -22.7782  -13.5184   21.1887 C   0  0  0  0  0  0
  -22.1660   -4.2138   21.0982 F   0  0  0  0  0  0
  -21.5633   -3.4535   25.7742 F   0  0  0  0  0  0
  -29.9432  -13.6918   20.3312 N   0  0  0  0  0  0
  -26.2857  -12.9259   20.3303 N   0  0  0  0  0  0
  -25.9266  -11.6434   20.5822 N   0  0  0  0  0  0
  -22.0420  -12.8194   22.0449 N   0  0  0  0  0  0
  -25.4033  -15.1811   20.4020 N   0  0  0  0  0  0
  -31.8296  -14.8664   20.2543 O   0  0  0  0  0  0
  -21.6622   -6.8856   21.4237 O   0  0  0  0  0  0
  -22.3486  -14.5495   20.6725 O   0  0  0  0  0  0
  -24.6387  -31.8493   23.1928 C   0  0  0  0  0  0
  -25.9180  -32.4723   23.8302 C   0  0  1  0  0  0
  -27.2217  -27.1937   20.1432 C   0  0  0  0  0  0
  -25.5944  -33.8527   24.2220 N   0  0  0  0  0  0
  -23.4396  -30.4700   21.5379 C   0  0  2  0  0  0
  -24.8892  -28.9062   20.1124 C   0  0  0  0  0  0
  -22.7544  -29.4574   22.4887 C   0  0  0  0  0  0
  -18.0300  -28.1395   22.8481 C   0  0  0  0  0  0
  -24.1491  -36.7269   23.2641 C   0  0  0  0  0  0
  -25.9919  -30.7420   21.3825 C   0  0  0  0  0  0
  -26.0661  -29.3585   20.7238 C   0  0  0  0  0  0
  -27.2367  -28.5189   20.7209 C   0  0  0  0  0  0
  -26.0179  -26.8275   19.5006 C   0  0  0  0  0  0
  -24.8748  -27.6516   19.4862 C   0  0  0  0  0  0
  -23.6629  -29.8014   20.1564 C   0  0  0  0  0  0
  -25.4120  -36.3050   24.0321 C   0  0  1  0  0  0
  -20.5909  -28.3716   23.1249 C   0  0  2  0  0  0
  -20.6787  -26.9425   22.5406 C   0  0  0  0  0  0
  -19.5760  -26.6384   21.5215 C   0  0  0  0  0  0
  -18.1941  -26.7933   22.1627 C   0  0  0  0  0  0
  -19.1554  -28.8873   23.2857 C   0  0  0  0  0  0
  -18.9472  -30.1470   23.8880 C   0  0  0  0  0  0
  -17.6469  -30.6591   24.0561 C   0  0  0  0  0  0
  -25.9068  -34.9423   23.5078 C   0  0  0  0  0  0
  -16.5361  -29.9085   23.6335 C   0  0  0  0  0  0
  -16.7284  -28.6504   23.0354 C   0  0  0  0  0  0
  -26.4516  -31.6572   25.0721 C   0  0  0  0  0  0
  -25.3713  -31.3746   26.1424 C   0  0  0  0  0  0
  -27.0376  -30.2977   24.6264 C   0  0  0  0  0  0
  -27.6054  -32.4329   25.7503 C   0  0  0  0  0  0
  -27.5579  -37.1788   24.8463 C   0  0  0  0  0  0
  -21.4242  -29.3049   22.3630 N   0  0  0  0  0  0
  -26.4287  -37.3759   23.9411 N   0  0  0  0  0  0
  -24.7097  -31.0397   22.0936 N   0  0  0  0  0  0
  -23.4208  -28.8120   23.3018 O   0  0  0  0  0  0
  -28.2817  -26.2324   20.1902 O   0  0  0  0  0  0
  -26.5649  -34.8912   22.4654 O   0  0  0  0  0  0
  -23.5518  -32.1343   23.7178 O   0  0  0  0  0  0
  -29.1356  -22.6403   19.1044 C   0  0  0  0  0  0
  -29.4529  -21.2334   19.0626 C   0  0  0  0  0  0
  -28.5063  -22.3250   21.3459 C   0  0  0  0  0  0
  -28.5982  -23.2723   20.2684 C   0  0  0  0  0  0
  -29.2720  -20.3558   20.1747 C   0  0  0  0  0  0
  -28.1457  -17.9448   20.5079 C   0  0  0  0  0  0
  -28.4979  -16.4351   20.3513 C   0  0  0  0  0  0
  -29.3610  -18.7221   20.0273 C   0  0  2  0  0  0
  -30.4891  -17.6624   20.5306 C   0  0  2  0  0  0
  -31.8938  -17.6060   18.3574 C   0  0  0  0  0  0
  -32.4752  -19.2639   20.1786 C   0  0  0  0  0  0
  -27.8939  -24.7568   20.3278 C   0  0  0  0  0  0
  -31.8820  -17.8792   19.8729 C   0  0  0  0  0  0
  -28.8278  -20.9699   21.3159 N   0  0  0  0  0  0
  -29.9500  -16.1964   20.4675 N   0  0  0  0  0  0
  -31.4600  -12.7370   19.1278 H   0  0  0  0  0  0
  -30.4410  -11.6351   20.0043 H   0  0  0  0  0  0
  -29.8220  -11.7131   17.5615 H   0  0  0  0  0  0
  -29.5688  -13.4384   17.6657 H   0  0  0  0  0  0
  -27.9574  -11.2353   18.9918 H   0  0  0  0  0  0
  -27.3666  -12.3904   17.8258 H   0  0  0  0  0  0
  -27.5603  -14.1816   19.3651 H   0  0  0  0  0  0
  -28.8013  -12.2691   21.4150 H   0  0  0  0  0  0
  -28.3991  -13.9152   21.7739 H   0  0  0  0  0  0
  -25.2731   -9.5651   22.4790 H   0  0  0  0  0  0
  -23.9982   -7.4592   22.7475 H   0  0  0  0  0  0
  -21.0824   -8.8742   19.8953 H   0  0  0  0  0  0
  -22.3668  -10.9655   19.6187 H   0  0  0  0  0  0
  -21.1991   -7.6138   23.9709 H   0  0  0  0  0  0
  -21.1481   -6.0519   25.9077 H   0  0  0  0  0  0
  -22.0604   -2.7601   23.2852 H   0  0  0  0  0  0
  -22.4028  -11.9857   22.4849 H   0  0  0  0  0  0
  -21.1042  -13.1230   22.2651 H   0  0  0  0  0  0
  -24.6288  -15.8261   20.5146 H   0  0  0  0  0  0
  -26.2471  -15.6294   20.0732 H   0  0  0  0  0  0
  -26.7248  -32.5351   23.1039 H   0  0  0  0  0  0
  -25.0072  -33.9652   25.0352 H   0  0  0  0  0  0
  -22.7397  -31.2945   21.3872 H   0  0  0  0  0  0
  -23.3759  -35.9594   23.3287 H   0  0  0  0  0  0
  -24.3582  -36.8914   22.2060 H   0  0  0  0  0  0
  -23.7236  -37.6459   23.6683 H   0  0  0  0  0  0
  -26.1395  -31.4998   20.6117 H   0  0  0  0  0  0
  -26.8653  -30.7919   22.0211 H   0  0  0  0  0  0
  -28.1355  -28.8618   21.2144 H   0  0  0  0  0  0
  -25.9338  -25.8670   19.0135 H   0  0  0  0  0  0
  -23.9757  -27.3000   18.9987 H   0  0  0  0  0  0
  -23.7942  -30.5767   19.4008 H   0  0  0  0  0  0
  -22.7791  -29.2400   19.8481 H   0  0  0  0  0  0
  -25.1304  -36.1886   25.0813 H   0  0  0  0  0  0
  -21.0000  -28.3300   24.1371 H   0  0  0  0  0  0
  -20.5688  -26.2328   23.3620 H   0  0  0  0  0  0
  -21.6652  -26.7441   22.1199 H   0  0  0  0  0  0
  -19.6921  -25.6291   21.1255 H   0  0  0  0  0  0
  -19.6693  -27.3186   20.6737 H   0  0  0  0  0  0
  -17.4210  -26.6677   21.4031 H   0  0  0  0  0  0
  -18.0341  -26.0080   22.9028 H   0  0  0  0  0  0
  -19.7947  -30.7293   24.2239 H   0  0  0  0  0  0
  -17.5022  -31.6269   24.5168 H   0  0  0  0  0  0
  -15.5360  -30.2981   23.7670 H   0  0  0  0  0  0
  -15.8685  -28.0819   22.7077 H   0  0  0  0  0  0
  -24.5889  -30.7099   25.7742 H   0  0  0  0  0  0
  -24.8904  -32.2924   26.4817 H   0  0  0  0  0  0
  -25.8003  -30.8936   27.0223 H   0  0  0  0  0  0
  -26.2983  -29.6708   24.1265 H   0  0  0  0  0  0
  -27.4004  -29.7264   25.4819 H   0  0  0  0  0  0
  -27.8883  -30.4230   23.9562 H   0  0  0  0  0  0
  -27.2649  -33.3641   26.2045 H   0  0  0  0  0  0
  -28.3882  -32.6872   25.0345 H   0  0  0  0  0  0
  -28.0702  -31.8479   26.5450 H   0  0  0  0  0  0
  -28.2581  -38.0100   24.7526 H   0  0  0  0  0  0
  -28.1090  -36.2631   24.6267 H   0  0  0  0  0  0
  -27.2300  -37.1408   25.8866 H   0  0  0  0  0  0
  -20.9445  -29.8763   21.6815 H   0  0  0  0  0  0
  -26.0158  -38.2828   24.1421 H   0  0  0  0  0  0
  -29.2385  -23.2134   18.1939 H   0  0  0  0  0  0
  -29.7848  -20.8136   18.1222 H   0  0  0  0  0  0
  -28.0816  -22.6551   22.2826 H   0  0  0  0  0  0
  -27.9665  -18.1743   21.5592 H   0  0  0  0  0  0
  -27.2423  -18.2168   19.9607 H   0  0  0  0  0  0
  -28.2082  -16.1457   19.3428 H   0  0  0  0  0  0
  -27.9280  -15.8635   21.0773 H   0  0  0  0  0  0
  -29.3414  -18.5986   18.9446 H   0  0  0  0  0  0
  -30.6216  -17.8455   21.5985 H   0  0  0  0  0  0
  -31.4886  -16.6236   18.1160 H   0  0  0  0  0  0
  -32.9113  -17.6382   17.9667 H   0  0  0  0  0  0
  -31.3148  -18.3468   17.8060 H   0  0  0  0  0  0
  -32.4410  -19.4852   21.2461 H   0  0  0  0  0  0
  -31.9526  -20.0620   19.6541 H   0  0  0  0  0  0
  -33.5205  -19.3138   19.8721 H   0  0  0  0  0  0
  -28.7235  -24.8810   21.0247 H   0  0  0  0  0  0
  -27.9563  -24.7683   19.2404 H   0  0  0  0  0  0
  -32.5770  -17.1817   20.3379 H   0  0  0  0  0  0
  1 25  1  0  0  0
  1 30  2  0  0  0
  1 85  1  0  0  0
  2  3  1  0  0  0
  2 25  1  0  0  0
  2 86  1  0  0  0
  2 87  1  0  0  0
  3  4  1  0  0  0
  3 88  1  0  0  0
  3 89  1  0  0  0
  4  5  1  0  0  0
  4 90  1  0  0  0
  4 91  1  0  0  0
  5  6  1  0  0  0
  5 26  1  0  0  0
  5 92  1  0  0  0
  6 25  1  0  0  0
  6 93  1  0  0  0
  6 94  1  0  0  0
  7  8  2  0  0  0
  7 26  1  0  0  0
  7 29  1  0  0  0
  8  9  1  0  0  0
  8 22  1  0  0  0
  9 10  1  0  0  0
  9 27  2  0  0  0
 10 11  2  0  0  0
 10 15  1  0  0  0
 11 12  1  0  0  0
 11 95  1  0  0  0
 12 13  2  0  0  0
 12 96  1  0  0  0
 13 14  1  0  0  0
 13 31  1  0  0  0
 14 15  2  0  0  0
 14 97  1  0  0  0
 15 98  1  0  0  0
 16 17  2  0  0  0
 16 21  1  0  0  0
 16 31  1  0  0  0
 17 18  1  0  0  0
 17 99  1  0  0  0
 18 19  2  0  0  0
 18100  1  0  0  0
 19 20  1  0  0  0
 19 24  1  0  0  0
 20 21  2  0  0  0
 20101  1  0  0  0
 21 23  1  0  0  0
 22 28  1  0  0  0
 22 32  2  0  0  0
 26 27  1  0  0  0
 28102  1  0  0  0
 28103  1  0  0  0
 29104  1  0  0  0
 29105  1  0  0  0
 33 34  1  0  0  0
 33 66  1  0  0  0
 33 70  2  0  0  0
 34 36  1  0  0  0
 34 59  1  0  0  0
 34106  1  0  0  0
 35 44  2  0  0  0
 35 45  1  0  0  0
 35 68  1  0  0  0
 36 56  1  0  0  0
 36107  1  0  0  0
 37 39  1  0  0  0
 37 47  1  0  0  0
 37 66  1  0  0  0
 37108  1  0  0  0
 38 43  2  0  0  0
 38 46  1  0  0  0
 38 47  1  0  0  0
 39 64  1  0  0  0
 39 67  2  0  0  0
 40 52  1  0  0  0
 40 53  2  0  0  0
 40 58  1  0  0  0
 41109  1  0  0  0
 41110  1  0  0  0
 41111  1  0  0  0
 41 48  1  0  0  0
 42 43  1  0  0  0
 42 66  1  0  0  0
 42112  1  0  0  0
 42113  1  0  0  0
 43 44  1  0  0  0
 44114  1  0  0  0
 45 46  2  0  0  0
 45115  1  0  0  0
 46116  1  0  0  0
 47117  1  0  0  0
 47118  1  0  0  0
 48 56  1  0  0  0
 48 65  1  0  0  0
 48119  1  0  0  0
 49 50  1  0  0  0
 49 53  1  0  0  0
 49 64  1  0  0  0
 49120  1  0  0  0
 50 51  1  0  0  0
 50121  1  0  0  0
 50122  1  0  0  0
 51 52  1  0  0  0
 51123  1  0  0  0
 51124  1  0  0  0
 52125  1  0  0  0
 52126  1  0  0  0
 53 54  1  0  0  0
 54 55  2  0  0  0
 54127  1  0  0  0
 55 57  1  0  0  0
 55128  1  0  0  0
 56 69  2  0  0  0
 57 58  2  0  0  0
 57129  1  0  0  0
 58130  1  0  0  0
 59 60  1  0  0  0
 59 61  1  0  0  0
 59 62  1  0  0  0
 60131  1  0  0  0
 60132  1  0  0  0
 60133  1  0  0  0
 61134  1  0  0  0
 61135  1  0  0  0
 61136  1  0  0  0
 62137  1  0  0  0
 62138  1  0  0  0
 62139  1  0  0  0
 63 65  1  0  0  0
 63140  1  0  0  0
 63141  1  0  0  0
 63142  1  0  0  0
 64143  1  0  0  0
 65144  1  0  0  0
 68 82  1  0  0  0
 71 72  2  0  0  0
 71 74  1  0  0  0
 71145  1  0  0  0
 72 75  1  0  0  0
 72146  1  0  0  0
 73 74  2  0  0  0
 73 84  1  0  0  0
 73147  1  0  0  0
 74 82  1  0  0  0
 75 84  2  0  0  0
 75 78  1  0  0  0
 76 77  1  0  0  0
 76 78  1  0  0  0
 76148  1  0  0  0
 76149  1  0  0  0
 77 85  1  0  0  0
 77150  1  0  0  0
 77151  1  0  0  0
 78 79  1  0  0  0
 78152  1  0  0  0
 79 83  1  0  0  0
 79 85  1  0  0  0
 79153  1  0  0  0
 80154  1  0  0  0
 80155  1  0  0  0
 80156  1  0  0  0
 80 83  1  0  0  0
 81 83  1  0  0  0
 81157  1  0  0  0
 81158  1  0  0  0
 81159  1  0  0  0
 82160  1  0  0  0
 82161  1  0  0  0
 83162  1  0  0  0
M  ISO  4   1 100  68 101  82 101  85 100
M  END
> <chiral flag>
0

> <version>
0

> <s_m_source_file>
/data/baiqing/PycharmProjects/Reinvent-master-3.2/result/LINK_invent/BTK/process_docking_weight1_custom_sum_contain_oxygen_bond_distance_aromatic_linkinvent_7_9_3/rearranged_h_0120.sdf

> <i_m_source_file_index>
44

> <r_mmod_Potential_Energy-OPLS-2005>
727.516540527344

> <r_mmod_Stretch_Energy-OPLS-2005>
194.605026245117

> <r_mmod_Bend_Energy-OPLS-2005>
493.087463378906

> <r_mmod_Torsional_Energy-OPLS-2005>
331.212371826172

> <r_mmod_Improper_Torsional_Energy-OPLS-2005>
7.42069673538208

> <r_mmod_Van_der_Waal_Energy-OPLS-2005>
142.224197387695

> <r_mmod_Electrostatic_Energy-OPLS-2005>
-396.846405029297

> <r_mmod_Solvation_Energy-OPLS-2005>
-204.304092407227

> <b_mmod_Minimization_Converged-OPLS-2005>
0

> <r_mmod_RMS_Derivative-OPLS-2005>
0.312412321567535

$$$$
44
                    3D
 Structure written by MMmdl.
172181  0  0  1  0            999 V2000
  -30.7366  -14.4034   20.4939 C   0  0  0  0  0  0
  -30.4023  -12.2400   19.4321 C   0  0  0  0  0  0
  -29.4910  -12.4725   18.2097 C   0  0  0  0  0  0
  -28.0089  -12.3572   18.6167 C   0  0  0  0  0  0
  -27.6588  -13.2058   19.8690 C   0  0  2  0  0  0
  -28.7007  -13.0113   20.9980 C   0  0  0  0  0  0
  -25.2574  -13.8168   20.5675 C   0  0  0  0  0  0
  -24.1828  -13.0444   20.9182 C   0  0  0  0  0  0
  -24.6382  -11.6912   20.8741 C   0  0  0  0  0  0
  -23.9053  -10.4297   21.0408 C   0  0  0  0  0  0
  -24.3609   -9.4210   21.9185 C   0  0  0  0  0  0
  -23.6289   -8.2244   22.0753 C   0  0  0  0  0  0
  -22.4270   -8.0281   21.3542 C   0  0  0  0  0  0
  -21.9904   -9.0256   20.4646 C   0  0  0  0  0  0
  -22.7229  -10.2138   20.3056 C   0  0  0  0  0  0
  -21.6855   -6.0732   22.5277 C   0  0  0  0  0  0
  -21.4013   -6.5636   23.8210 C   0  0  0  0  0  0
  -21.3658   -5.6788   24.9175 C   0  0  0  0  0  0
  -21.6046   -4.3053   24.7225 C   0  0  0  0  0  0
  -21.8819   -3.8145   23.4347 C   0  0  0  0  0  0
  -21.9193   -4.6959   22.3403 C   0  0  0  0  0  0
  -22.7849  -13.5242   21.1844 C   0  0  0  0  0  0
  -22.1661   -4.2143   21.0983 F   0  0  0  0  0  0
  -21.5631   -3.4539   25.7740 F   0  0  0  0  0  0
  -30.0396  -13.2453   20.4388 N   0  0  0  0  0  0
  -26.3007  -12.9338   20.3351 N   0  0  0  0  0  0
  -25.9308  -11.6499   20.5772 N   0  0  0  0  0  0
  -22.0491  -12.8233   22.0402 N   0  0  0  0  0  0
  -25.4290  -15.1887   20.4073 N   0  0  0  0  0  0
  -31.9215  -14.4931   20.1703 O   0  0  0  0  0  0
  -21.6638   -6.8874   21.4238 O   0  0  0  0  0  0
  -22.3536  -14.5548   20.6693 O   0  0  0  0  0  0
  -24.6097  -31.8724   23.2149 C   0  0  0  0  0  0
  -25.9014  -32.4844   23.8424 C   0  0  1  0  0  0
  -27.2271  -27.4744   20.0803 C   0  0  0  0  0  0
  -25.5892  -33.8640   24.2355 N   0  0  0  0  0  0
  -23.3933  -30.4994   21.5555 C   0  0  2  0  0  0
  -24.8349  -28.9733   20.1151 C   0  0  0  0  0  0
  -22.7378  -29.4684   22.5012 C   0  0  0  0  0  0
  -18.0265  -28.1371   22.8496 C   0  0  0  0  0  0
  -24.1485  -36.7324   23.2639 C   0  0  0  0  0  0
  -25.9187  -30.8491   21.3625 C   0  0  0  0  0  0
  -25.9927  -29.4865   20.7109 C   0  0  0  0  0  0
  -27.1879  -28.7409   20.6972 C   0  0  0  0  0  0
  -26.0482  -26.9684   19.4784 C   0  0  0  0  0  0
  -24.8552  -27.7107   19.5012 C   0  0  0  0  0  0
  -23.5973  -29.8367   20.1674 C   0  0  0  0  0  0
  -25.4103  -36.3126   24.0345 C   0  0  1  0  0  0
  -20.5851  -28.3648   23.1336 C   0  0  2  0  0  0
  -20.6755  -26.9389   22.5420 C   0  0  0  0  0  0
  -19.5736  -26.6385   21.5209 C   0  0  0  0  0  0
  -18.1915  -26.7919   22.1623 C   0  0  0  0  0  0
  -19.1513  -28.8823   23.2914 C   0  0  0  0  0  0
  -18.9444  -30.1434   23.8921 C   0  0  0  0  0  0
  -17.6449  -30.6582   24.0565 C   0  0  0  0  0  0
  -25.9027  -34.9489   23.5146 C   0  0  0  0  0  0
  -16.5338  -29.9085   23.6321 C   0  0  0  0  0  0
  -16.7257  -28.6501   23.0345 C   0  0  0  0  0  0
  -26.4461  -31.6605   25.0730 C   0  0  0  0  0  0
  -25.3747  -31.3705   26.1496 C   0  0  0  0  0  0
  -27.0273  -30.3052   24.6068 C   0  0  0  0  0  0
  -27.6051  -32.4312   25.7480 C   0  0  0  0  0  0
  -27.5581  -37.1814   24.8465 C   0  0  0  0  0  0
  -21.4111  -29.3027   22.3751 N   0  0  0  0  0  0
  -26.4292  -37.3804   23.9412 N   0  0  0  0  0  0
  -24.6589  -31.0870   22.1031 N   0  0  0  0  0  0
  -23.4178  -28.8217   23.3027 O   0  0  0  0  0  0
  -28.4251  -26.7980   20.0955 O   0  0  0  0  0  0
  -26.5583  -34.8929   22.4702 O   0  0  0  0  0  0
  -23.5302  -32.1459   23.7575 O   0  0  0  0  0  0
  -31.4681  -21.3815   19.1748 C   0  0  0  0  0  0
  -29.0174  -21.2103   18.5736 C   0  0  0  0  0  0
  -29.3493  -18.2574   17.9371 C   0  0  0  0  0  0
  -31.7594  -18.3629   18.7005 C   0  0  0  0  0  0
  -31.1783  -22.6886   19.9188 C   0  0  0  0  0  0
  -28.7652  -22.5172   19.3307 C   0  0  0  0  0  0
  -28.9999  -17.3856   19.1588 C   0  0  0  0  0  0
  -31.3931  -17.5260   19.9374 C   0  0  0  0  0  0
  -30.2466  -20.4323   19.0904 C   0  0  1  0  0  0
  -30.5589  -19.2004   18.1911 C   0  0  2  0  0  0
  -29.9968  -23.4457   19.2874 C   0  0  1  0  0  0
  -30.2443  -16.5776   19.5484 C   0  0  1  0  0  0
  -28.4538  -25.4850   19.5561 C   0  0  0  0  0  0
  -29.7705  -24.8157   19.9772 C   0  0  2  0  0  0
  -29.9700  -15.5022   20.5054 N   0  0  0  0  0  0
  -30.8971  -25.7377   19.7084 N   0  3  0  0  0  0
  -31.4526  -12.2912   19.1379 H   0  0  0  0  0  0
  -30.2554  -11.2375   19.8364 H   0  0  0  0  0  0
  -29.7197  -11.7482   17.4266 H   0  0  0  0  0  0
  -29.6829  -13.4573   17.7804 H   0  0  0  0  0  0
  -27.8043  -11.3044   18.8134 H   0  0  0  0  0  0
  -27.3661  -12.6390   17.7815 H   0  0  0  0  0  0
  -27.6940  -14.2475   19.5513 H   0  0  0  0  0  0
  -28.6475  -11.9985   21.3999 H   0  0  0  0  0  0
  -28.4975  -13.6806   21.8358 H   0  0  0  0  0  0
  -25.2759   -9.5691   22.4750 H   0  0  0  0  0  0
  -24.0003   -7.4637   22.7471 H   0  0  0  0  0  0
  -21.0833   -8.8780   19.8956 H   0  0  0  0  0  0
  -22.3693  -10.9675   19.6159 H   0  0  0  0  0  0
  -21.2007   -7.6142   23.9711 H   0  0  0  0  0  0
  -21.1478   -6.0520   25.9075 H   0  0  0  0  0  0
  -22.0600   -2.7605   23.2851 H   0  0  0  0  0  0
  -22.4096  -11.9890   22.4791 H   0  0  0  0  0  0
  -21.1112  -13.1265   22.2614 H   0  0  0  0  0  0
  -24.6615  -15.8428   20.5134 H   0  0  0  0  0  0
  -26.2789  -15.6289   20.0796 H   0  0  0  0  0  0
  -26.7086  -32.5569   23.1192 H   0  0  0  0  0  0
  -25.0048  -33.9811   25.0503 H   0  0  0  0  0  0
  -22.6797  -31.3150   21.4224 H   0  0  0  0  0  0
  -23.3743  -35.9662   23.3314 H   0  0  0  0  0  0
  -24.3583  -36.8919   22.2051 H   0  0  0  0  0  0
  -23.7241  -37.6538   23.6634 H   0  0  0  0  0  0
  -26.0259  -31.6167   20.5945 H   0  0  0  0  0  0
  -26.8096  -30.9018   21.9762 H   0  0  0  0  0  0
  -28.0827  -29.1371   21.1571 H   0  0  0  0  0  0
  -26.0167  -26.0123   18.9773 H   0  0  0  0  0  0
  -23.9633  -27.3114   19.0378 H   0  0  0  0  0  0
  -23.7027  -30.6141   19.4096 H   0  0  0  0  0  0
  -22.7212  -29.2564   19.8726 H   0  0  0  0  0  0
  -25.1273  -36.2003   25.0838 H   0  0  0  0  0  0
  -20.9947  -28.3205   24.1454 H   0  0  0  0  0  0
  -20.5657  -26.2249   23.3597 H   0  0  0  0  0  0
  -21.6627  -26.7439   22.1214 H   0  0  0  0  0  0
  -19.6897  -25.6304   21.1220 H   0  0  0  0  0  0
  -19.6681  -27.3209   20.6751 H   0  0  0  0  0  0
  -17.4186  -26.6670   21.4022 H   0  0  0  0  0  0
  -18.0318  -26.0054   22.9014 H   0  0  0  0  0  0
  -19.7923  -30.7235   24.2305 H   0  0  0  0  0  0
  -17.5010  -31.6263   24.5165 H   0  0  0  0  0  0
  -15.5341  -30.2997   23.7633 H   0  0  0  0  0  0
  -15.8655  -28.0828   22.7047 H   0  0  0  0  0  0
  -24.5896  -30.7075   25.7842 H   0  0  0  0  0  0
  -24.8965  -32.2863   26.4983 H   0  0  0  0  0  0
  -25.8116  -30.8845   27.0228 H   0  0  0  0  0  0
  -26.2793  -29.6828   24.1140 H   0  0  0  0  0  0
  -27.4078  -29.7271   25.4499 H   0  0  0  0  0  0
  -27.8618  -30.4380   23.9176 H   0  0  0  0  0  0
  -27.2682  -33.3601   26.2092 H   0  0  0  0  0  0
  -28.3838  -32.6888   25.0289 H   0  0  0  0  0  0
  -28.0741  -31.8412   26.5364 H   0  0  0  0  0  0
  -28.2608  -38.0103   24.7509 H   0  0  0  0  0  0
  -28.1068  -36.2636   24.6289 H   0  0  0  0  0  0
  -27.2301  -37.1473   25.8869 H   0  0  0  0  0  0
  -20.9255  -29.8762   21.6994 H   0  0  0  0  0  0
  -26.0189  -38.2887   24.1407 H   0  0  0  0  0  0
  -32.2963  -20.9007   19.6926 H   0  0  0  0  0  0
  -31.8243  -21.6139   18.1700 H   0  0  0  0  0  0
  -29.1376  -21.4259   17.5107 H   0  0  0  0  0  0
  -28.1161  -20.6057   18.6679 H   0  0  0  0  0  0
  -28.4699  -18.7922   17.5837 H   0  0  0  0  0  0
  -29.6039  -17.5956   17.1076 H   0  0  0  0  0  0
  -32.0759  -17.6882   17.9035 H   0  0  0  0  0  0
  -32.6402  -18.9688   18.8993 H   0  0  0  0  0  0
  -32.0817  -23.2983   19.9099 H   0  0  0  0  0  0
  -30.9664  -22.4712   20.9674 H   0  0  0  0  0  0
  -28.4886  -22.3002   20.3641 H   0  0  0  0  0  0
  -27.8973  -22.9857   18.8674 H   0  0  0  0  0  0
  -28.1779  -16.7184   18.8979 H   0  0  0  0  0  0
  -28.6550  -18.0026   19.9902 H   0  0  0  0  0  0
  -31.1092  -18.1615   20.7764 H   0  0  0  0  0  0
  -32.2782  -16.9780   20.2585 H   0  0  0  0  0  0
  -30.0140  -20.0915   20.1001 H   0  0  0  0  0  0
  -30.8446  -19.5994   17.2158 H   0  0  0  0  0  0
  -30.2244  -23.6310   18.2354 H   0  0  0  0  0  0
  -30.5508  -16.0670   18.6304 H   0  0  0  0  0  0
  -27.6249  -24.9018   19.9589 H   0  0  0  0  0  0
  -28.3590  -25.5243   18.4694 H   0  0  0  0  0  0
  -29.7249  -24.6657   21.0575 H   0  0  0  0  0  0
  -29.0108  -15.3722   20.7873 H   0  0  0  0  0  0
  -31.0167  -25.8987   18.7230 H   0  0  0  0  0  0
  -31.7597  -25.3885   20.0872 H   0  0  0  0  0  0
  -30.7017  -26.6252   20.1420 H   0  0  0  0  0  0
  1 25  1  0  0  0
  1 30  2  0  0  0
  1 85  1  0  0  0
  2  3  1  0  0  0
  2 25  1  0  0  0
  2 87  1  0  0  0
  2 88  1  0  0  0
  3  4  1  0  0  0
  3 89  1  0  0  0
  3 90  1  0  0  0
  4  5  1  0  0  0
  4 91  1  0  0  0
  4 92  1  0  0  0
  5  6  1  0  0  0
  5 26  1  0  0  0
  5 93  1  0  0  0
  6 25  1  0  0  0
  6 94  1  0  0  0
  6 95  1  0  0  0
  7  8  2  0  0  0
  7 26  1  0  0  0
  7 29  1  0  0  0
  8  9  1  0  0  0
  8 22  1  0  0  0
  9 10  1  0  0  0
  9 27  2  0  0  0
 10 11  2  0  0  0
 10 15  1  0  0  0
 11 12  1  0  0  0
 11 96  1  0  0  0
 12 13  2  0  0  0
 12 97  1  0  0  0
 13 14  1  0  0  0
 13 31  1  0  0  0
 14 15  2  0  0  0
 14 98  1  0  0  0
 15 99  1  0  0  0
 16 17  2  0  0  0
 16 21  1  0  0  0
 16 31  1  0  0  0
 17 18  1  0  0  0
 17100  1  0  0  0
 18 19  2  0  0  0
 18101  1  0  0  0
 19 20  1  0  0  0
 19 24  1  0  0  0
 20 21  2  0  0  0
 20102  1  0  0  0
 21 23  1  0  0  0
 22 28  1  0  0  0
 22 32  2  0  0  0
 26 27  1  0  0  0
 28103  1  0  0  0
 28104  1  0  0  0
 29105  1  0  0  0
 29106  1  0  0  0
 33 34  1  0  0  0
 33 66  1  0  0  0
 33 70  2  0  0  0
 34 36  1  0  0  0
 34 59  1  0  0  0
 34107  1  0  0  0
 35 44  2  0  0  0
 35 45  1  0  0  0
 35 68  1  0  0  0
 36 56  1  0  0  0
 36108  1  0  0  0
 37 39  1  0  0  0
 37 47  1  0  0  0
 37 66  1  0  0  0
 37109  1  0  0  0
 38 43  2  0  0  0
 38 46  1  0  0  0
 38 47  1  0  0  0
 39 64  1  0  0  0
 39 67  2  0  0  0
 40 52  1  0  0  0
 40 53  2  0  0  0
 40 58  1  0  0  0
 41110  1  0  0  0
 41111  1  0  0  0
 41112  1  0  0  0
 41 48  1  0  0  0
 42 43  1  0  0  0
 42 66  1  0  0  0
 42113  1  0  0  0
 42114  1  0  0  0
 43 44  1  0  0  0
 44115  1  0  0  0
 45 46  2  0  0  0
 45116  1  0  0  0
 46117  1  0  0  0
 47118  1  0  0  0
 47119  1  0  0  0
 48 56  1  0  0  0
 48 65  1  0  0  0
 48120  1  0  0  0
 49 50  1  0  0  0
 49 53  1  0  0  0
 49 64  1  0  0  0
 49121  1  0  0  0
 50 51  1  0  0  0
 50122  1  0  0  0
 50123  1  0  0  0
 51 52  1  0  0  0
 51124  1  0  0  0
 51125  1  0  0  0
 52126  1  0  0  0
 52127  1  0  0  0
 53 54  1  0  0  0
 54 55  2  0  0  0
 54128  1  0  0  0
 55 57  1  0  0  0
 55129  1  0  0  0
 56 69  2  0  0  0
 57 58  2  0  0  0
 57130  1  0  0  0
 58131  1  0  0  0
 59 60  1  0  0  0
 59 61  1  0  0  0
 59 62  1  0  0  0
 60132  1  0  0  0
 60133  1  0  0  0
 60134  1  0  0  0
 61135  1  0  0  0
 61136  1  0  0  0
 61137  1  0  0  0
 62138  1  0  0  0
 62139  1  0  0  0
 62140  1  0  0  0
 63 65  1  0  0  0
 63141  1  0  0  0
 63142  1  0  0  0
 63143  1  0  0  0
 64144  1  0  0  0
 65145  1  0  0  0
 68 83  1  0  0  0
 71 75  1  0  0  0
 71146  1  0  0  0
 71147  1  0  0  0
 71 79  1  0  0  0
 72 76  1  0  0  0
 72 79  1  0  0  0
 72148  1  0  0  0
 72149  1  0  0  0
 73 77  1  0  0  0
 73150  1  0  0  0
 73151  1  0  0  0
 73 80  1  0  0  0
 74 78  1  0  0  0
 74 80  1  0  0  0
 74152  1  0  0  0
 74153  1  0  0  0
 75154  1  0  0  0
 75155  1  0  0  0
 75 81  1  0  0  0
 76 81  1  0  0  0
 76156  1  0  0  0
 76157  1  0  0  0
 77 82  1  0  0  0
 77158  1  0  0  0
 77159  1  0  0  0
 78 82  1  0  0  0
 78160  1  0  0  0
 78161  1  0  0  0
 79 80  1  0  0  0
 79162  1  0  0  0
 80163  1  0  0  0
 81 84  1  0  0  0
 81164  1  0  0  0
 82 85  1  0  0  0
 82165  1  0  0  0
 83 84  1  0  0  0
 83166  1  0  0  0
 83167  1  0  0  0
 84 86  1  0  0  0
 84168  1  0  0  0
 85169  1  0  0  0
 86170  1  0  0  0
 86171  1  0  0  0
 86172  1  0  0  0
M  CHG  1  86   1
M  ISO  4   1 100  68 101  83 101  85 100
M  END
> <chiral flag>
0

> <version>
0

> <s_m_source_file>
/data/baiqing/PycharmProjects/Reinvent-master-3.2/result/LINK_invent/BTK/process_docking_weight1_custom_sum_contain_oxygen_bond_distance_aromatic_linkinvent_7_9_3/rearranged_h_0120.sdf

> <i_m_source_file_index>
45

> <r_mmod_Potential_Energy-OPLS-2005>
-149.964782714844

> <r_mmod_Stretch_Energy-OPLS-2005>
32.564567565918

> <r_mmod_Bend_Energy-OPLS-2005>
110.836730957031

> <r_mmod_Torsional_Energy-OPLS-2005>
285.138519287109

> <r_mmod_Improper_Torsional_Energy-OPLS-2005>
14.2974491119385

> <r_mmod_Van_der_Waal_Energy-OPLS-2005>
162.696060180664

> <r_mmod_Electrostatic_Energy-OPLS-2005>
-327.419097900391

> <r_mmod_Solvation_Energy-OPLS-2005>
-446.482116699219

> <b_mmod_Minimization_Converged-OPLS-2005>
0

> <r_mmod_RMS_Derivative-OPLS-2005>
0.797641038894653

$$$$
45
                    3D
 Structure written by MMmdl.
166175  0  0  1  0            999 V2000
  -30.7028  -14.5062   20.5881 C   0  0  0  0  0  0
  -30.4242  -12.3391   19.4336 C   0  0  0  0  0  0
  -29.4954  -12.5074   18.2143 C   0  0  0  0  0  0
  -28.0178  -12.3582   18.6279 C   0  0  0  0  0  0
  -27.6564  -13.2131   19.8727 C   0  0  2  0  0  0
  -28.6962  -13.0263   21.0001 C   0  0  0  0  0  0
  -25.2580  -13.8171   20.5774 C   0  0  0  0  0  0
  -24.1823  -13.0437   20.9202 C   0  0  0  0  0  0
  -24.6379  -11.6912   20.8706 C   0  0  0  0  0  0
  -23.9042  -10.4310   21.0383 C   0  0  0  0  0  0
  -24.3604   -9.4240   21.9167 C   0  0  0  0  0  0
  -23.6298   -8.2261   22.0721 C   0  0  0  0  0  0
  -22.4271   -8.0295   21.3529 C   0  0  0  0  0  0
  -21.9903   -9.0259   20.4625 C   0  0  0  0  0  0
  -22.7222  -10.2145   20.3035 C   0  0  0  0  0  0
  -21.6849   -6.0768   22.5286 C   0  0  0  0  0  0
  -21.4026   -6.5663   23.8225 C   0  0  0  0  0  0
  -21.3641   -5.6798   24.9173 C   0  0  0  0  0  0
  -21.6038   -4.3064   24.7211 C   0  0  0  0  0  0
  -21.8819   -3.8168   23.4327 C   0  0  0  0  0  0
  -21.9191   -4.6999   22.3395 C   0  0  0  0  0  0
  -22.7848  -13.5221   21.1868 C   0  0  0  0  0  0
  -22.1632   -4.2186   21.0970 F   0  0  0  0  0  0
  -21.5629   -3.4527   25.7711 F   0  0  0  0  0  0
  -30.0240  -13.3331   20.4439 N   0  0  0  0  0  0
  -26.2992  -12.9348   20.3366 N   0  0  0  0  0  0
  -25.9304  -11.6502   20.5729 N   0  0  0  0  0  0
  -22.0509  -12.8181   22.0423 N   0  0  0  0  0  0
  -25.4379  -15.1875   20.4390 N   0  0  0  0  0  0
  -31.8274  -14.6802   20.1118 O   0  0  0  0  0  0
  -21.6628   -6.8910   21.4243 O   0  0  0  0  0  0
  -22.3525  -14.5525   20.6724 O   0  0  0  0  0  0
  -24.6154  -31.8657   23.2083 C   0  0  0  0  0  0
  -25.9049  -32.4809   23.8369 C   0  0  1  0  0  0
  -27.2321  -27.4115   20.0940 C   0  0  0  0  0  0
  -25.5921  -33.8612   24.2298 N   0  0  0  0  0  0
  -23.4025  -30.4908   21.5507 C   0  0  2  0  0  0
  -24.8457  -28.9506   20.1164 C   0  0  0  0  0  0
  -22.7405  -29.4658   22.4997 C   0  0  0  0  0  0
  -18.0264  -28.1384   22.8507 C   0  0  0  0  0  0
  -24.1496  -36.7307   23.2637 C   0  0  0  0  0  0
  -25.9329  -30.8260   21.3597 C   0  0  0  0  0  0
  -26.0078  -29.4576   20.7093 C   0  0  0  0  0  0
  -27.2006  -28.6956   20.6929 C   0  0  0  0  0  0
  -26.0427  -26.9186   19.5069 C   0  0  0  0  0  0
  -24.8590  -27.6809   19.5144 C   0  0  0  0  0  0
  -23.6091  -29.8216   20.1644 C   0  0  0  0  0  0
  -25.4116  -36.3104   24.0331 C   0  0  1  0  0  0
  -20.5862  -28.3662   23.1335 C   0  0  2  0  0  0
  -20.6772  -26.9406   22.5429 C   0  0  0  0  0  0
  -19.5749  -26.6391   21.5235 C   0  0  0  0  0  0
  -18.1915  -26.7939   22.1620 C   0  0  0  0  0  0
  -19.1517  -28.8838   23.2921 C   0  0  0  0  0  0
  -18.9445  -30.1449   23.8919 C   0  0  0  0  0  0
  -17.6450  -30.6595   24.0569 C   0  0  0  0  0  0
  -25.9046  -34.9473   23.5103 C   0  0  0  0  0  0
  -16.5336  -29.9096   23.6344 C   0  0  0  0  0  0
  -16.7248  -28.6514   23.0352 C   0  0  0  0  0  0
  -26.4466  -31.6604   25.0708 C   0  0  0  0  0  0
  -25.3724  -31.3724   26.1451 C   0  0  0  0  0  0
  -27.0267  -30.3040   24.6073 C   0  0  0  0  0  0
  -27.6037  -32.4311   25.7485 C   0  0  0  0  0  0
  -27.5583  -37.1803   24.8453 C   0  0  0  0  0  0
  -21.4136  -29.3023   22.3731 N   0  0  0  0  0  0
  -26.4286  -37.3798   23.9417 N   0  0  0  0  0  0
  -24.6699  -31.0749   22.0987 N   0  0  0  0  0  0
  -23.4181  -28.8197   23.3036 O   0  0  0  0  0  0
  -28.4267  -26.7098   20.0929 O   0  0  0  0  0  0
  -26.5598  -34.8931   22.4656 O   0  0  0  0  0  0
  -23.5356  -32.1410   23.7489 O   0  0  0  0  0  0
  -26.4346  -20.8241   19.0994 C   0  0  0  0  0  0
  -26.9901  -22.0099   19.6077 C   0  0  0  0  0  0
  -28.7724  -20.7013   20.6261 C   0  0  0  0  0  0
  -27.0394  -19.5709   19.3295 C   0  0  0  0  0  0
  -28.2129  -19.4911   20.1243 C   0  0  0  0  0  0
  -28.1760  -21.9677   20.3736 C   0  0  0  0  0  0
  -27.1360  -17.4989   17.7042 C   0  0  0  0  0  0
  -26.0060  -18.3843   17.2394 C   0  0  0  0  0  0
  -26.3969  -18.3636   18.7033 C   0  0  0  0  0  0
  -30.1510  -17.2825   22.9275 C   0  0  0  0  0  0
  -30.1834  -17.9553   20.4691 C   0  0  0  0  0  0
  -28.4747  -25.3112   19.7388 C   0  0  0  0  0  0
  -28.0997  -24.3673   20.9139 C   0  0  0  0  0  0
  -30.5640  -16.8604   21.5058 C   0  0  2  0  0  0
  -28.7414  -18.2129   20.4187 N   0  0  0  0  0  0
  -30.0364  -15.5148   21.1916 N   0  0  0  0  0  0
  -28.7873  -23.0988   20.8925 O   0  0  0  0  0  0
  -31.4663  -12.4503   19.1286 H   0  0  0  0  0  0
  -30.3416  -11.3349   19.8496 H   0  0  0  0  0  0
  -29.7440  -11.7699   17.4490 H   0  0  0  0  0  0
  -29.6551  -13.4879   17.7611 H   0  0  0  0  0  0
  -27.8370  -11.3020   18.8386 H   0  0  0  0  0  0
  -27.3641  -12.6145   17.7938 H   0  0  0  0  0  0
  -27.6915  -14.2574   19.5595 H   0  0  0  0  0  0
  -28.6787  -12.0025   21.3736 H   0  0  0  0  0  0
  -28.4471  -13.6522   21.8585 H   0  0  0  0  0  0
  -25.2752   -9.5734   22.4736 H   0  0  0  0  0  0
  -24.0025   -7.4645   22.7416 H   0  0  0  0  0  0
  -21.0840   -8.8792   19.8925 H   0  0  0  0  0  0
  -22.3686  -10.9688   19.6144 H   0  0  0  0  0  0
  -21.2013   -7.6175   23.9733 H   0  0  0  0  0  0
  -21.1445   -6.0526   25.9076 H   0  0  0  0  0  0
  -22.0607   -2.7628   23.2810 H   0  0  0  0  0  0
  -22.4127  -11.9820   22.4778 H   0  0  0  0  0  0
  -21.1111  -13.1178   22.2627 H   0  0  0  0  0  0
  -24.7022  -15.8553   20.6406 H   0  0  0  0  0  0
  -26.3173  -15.6234   20.1996 H   0  0  0  0  0  0
  -26.7126  -32.5502   23.1140 H   0  0  0  0  0  0
  -25.0141  -33.9779   25.0487 H   0  0  0  0  0  0
  -22.6932  -31.3100   21.4122 H   0  0  0  0  0  0
  -23.3761  -35.9632   23.3277 H   0  0  0  0  0  0
  -24.3619  -36.8930   22.2058 H   0  0  0  0  0  0
  -23.7225  -37.6500   23.6657 H   0  0  0  0  0  0
  -26.0417  -31.5908   20.5895 H   0  0  0  0  0  0
  -26.8235  -30.8824   21.9737 H   0  0  0  0  0  0
  -28.1009  -29.0882   21.1452 H   0  0  0  0  0  0
  -26.0025  -25.9511   19.0331 H   0  0  0  0  0  0
  -23.9631  -27.2839   19.0568 H   0  0  0  0  0  0
  -23.7172  -30.5975   19.4064 H   0  0  0  0  0  0
  -22.7296  -29.2466   19.8667 H   0  0  0  0  0  0
  -25.1287  -36.1967   25.0821 H   0  0  0  0  0  0
  -20.9949  -28.3222   24.1456 H   0  0  0  0  0  0
  -20.5721  -26.2256   23.3606 H   0  0  0  0  0  0
  -21.6631  -26.7483   22.1172 H   0  0  0  0  0  0
  -19.6917  -25.6309   21.1243 H   0  0  0  0  0  0
  -19.6707  -27.3219   20.6787 H   0  0  0  0  0  0
  -17.4203  -26.6714   21.4002 H   0  0  0  0  0  0
  -18.0291  -26.0068   22.8992 H   0  0  0  0  0  0
  -19.7923  -30.7270   24.2287 H   0  0  0  0  0  0
  -17.5006  -31.6282   24.5149 H   0  0  0  0  0  0
  -15.5342  -30.3000   23.7684 H   0  0  0  0  0  0
  -15.8644  -28.0860   22.7046 H   0  0  0  0  0  0
  -24.5965  -30.6973   25.7825 H   0  0  0  0  0  0
  -24.8832  -32.2873   26.4805 H   0  0  0  0  0  0
  -25.8088  -30.9012   27.0263 H   0  0  0  0  0  0
  -26.2793  -29.6853   24.1088 H   0  0  0  0  0  0
  -27.3991  -29.7235   25.4522 H   0  0  0  0  0  0
  -27.8660  -30.4351   23.9234 H   0  0  0  0  0  0
  -27.2662  -33.3630   26.2031 H   0  0  0  0  0  0
  -28.3885  -32.6818   25.0339 H   0  0  0  0  0  0
  -28.0652  -31.8438   26.5434 H   0  0  0  0  0  0
  -28.2561  -38.0141   24.7540 H   0  0  0  0  0  0
  -28.1109  -36.2665   24.6204 H   0  0  0  0  0  0
  -27.2313  -37.1347   25.8857 H   0  0  0  0  0  0
  -20.9294  -29.8743   21.6953 H   0  0  0  0  0  0
  -26.0165  -38.2863   24.1450 H   0  0  0  0  0  0
  -25.5299  -20.8812   18.5113 H   0  0  0  0  0  0
  -26.4871  -22.9383   19.3795 H   0  0  0  0  0  0
  -29.6573  -20.6738   21.2431 H   0  0  0  0  0  0
  -28.1482  -17.7931   17.4330 H   0  0  0  0  0  0
  -26.9439  -16.4284   17.7081 H   0  0  0  0  0  0
  -25.0841  -17.8867   16.9467 H   0  0  0  0  0  0
  -26.2713  -19.2602   16.6495 H   0  0  0  0  0  0
  -25.7090  -17.8830   19.3958 H   0  0  0  0  0  0
  -30.5821  -18.2528   23.1789 H   0  0  0  0  0  0
  -30.4937  -16.5688   23.6767 H   0  0  0  0  0  0
  -29.0682  -17.3764   23.0206 H   0  0  0  0  0  0
  -30.5239  -17.6587   19.4752 H   0  0  0  0  0  0
  -30.7321  -18.8684   20.7044 H   0  0  0  0  0  0
  -27.9291  -25.0745   18.8265 H   0  0  0  0  0  0
  -29.5185  -25.1213   19.4859 H   0  0  0  0  0  0
  -27.0198  -24.2715   21.0283 H   0  0  0  0  0  0
  -28.4310  -24.8469   21.8355 H   0  0  0  0  0  0
  -31.6544  -16.7983   21.5106 H   0  0  0  0  0  0
  -28.2071  -17.4395   20.0399 H   0  0  0  0  0  0
  -29.1031  -15.3096   21.5146 H   0  0  0  0  0  0
  1 25  1  0  0  0
  1 30  2  0  0  0
  1 86  1  0  0  0
  2  3  1  0  0  0
  2 25  1  0  0  0
  2 88  1  0  0  0
  2 89  1  0  0  0
  3  4  1  0  0  0
  3 90  1  0  0  0
  3 91  1  0  0  0
  4  5  1  0  0  0
  4 92  1  0  0  0
  4 93  1  0  0  0
  5  6  1  0  0  0
  5 26  1  0  0  0
  5 94  1  0  0  0
  6 25  1  0  0  0
  6 95  1  0  0  0
  6 96  1  0  0  0
  7  8  2  0  0  0
  7 26  1  0  0  0
  7 29  1  0  0  0
  8  9  1  0  0  0
  8 22  1  0  0  0
  9 10  1  0  0  0
  9 27  2  0  0  0
 10 11  2  0  0  0
 10 15  1  0  0  0
 11 12  1  0  0  0
 11 97  1  0  0  0
 12 13  2  0  0  0
 12 98  1  0  0  0
 13 14  1  0  0  0
 13 31  1  0  0  0
 14 15  2  0  0  0
 14 99  1  0  0  0
 15100  1  0  0  0
 16 17  2  0  0  0
 16 21  1  0  0  0
 16 31  1  0  0  0
 17 18  1  0  0  0
 17101  1  0  0  0
 18 19  2  0  0  0
 18102  1  0  0  0
 19 20  1  0  0  0
 19 24  1  0  0  0
 20 21  2  0  0  0
 20103  1  0  0  0
 21 23  1  0  0  0
 22 28  1  0  0  0
 22 32  2  0  0  0
 26 27  1  0  0  0
 28104  1  0  0  0
 28105  1  0  0  0
 29106  1  0  0  0
 29107  1  0  0  0
 33 34  1  0  0  0
 33 66  1  0  0  0
 33 70  2  0  0  0
 34 36  1  0  0  0
 34 59  1  0  0  0
 34108  1  0  0  0
 35 44  2  0  0  0
 35 45  1  0  0  0
 35 68  1  0  0  0
 36 56  1  0  0  0
 36109  1  0  0  0
 37 39  1  0  0  0
 37 47  1  0  0  0
 37 66  1  0  0  0
 37110  1  0  0  0
 38 43  2  0  0  0
 38 46  1  0  0  0
 38 47  1  0  0  0
 39 64  1  0  0  0
 39 67  2  0  0  0
 40 52  1  0  0  0
 40 53  2  0  0  0
 40 58  1  0  0  0
 41111  1  0  0  0
 41112  1  0  0  0
 41113  1  0  0  0
 41 48  1  0  0  0
 42 43  1  0  0  0
 42 66  1  0  0  0
 42114  1  0  0  0
 42115  1  0  0  0
 43 44  1  0  0  0
 44116  1  0  0  0
 45 46  2  0  0  0
 45117  1  0  0  0
 46118  1  0  0  0
 47119  1  0  0  0
 47120  1  0  0  0
 48 56  1  0  0  0
 48 65  1  0  0  0
 48121  1  0  0  0
 49 50  1  0  0  0
 49 53  1  0  0  0
 49 64  1  0  0  0
 49122  1  0  0  0
 50 51  1  0  0  0
 50123  1  0  0  0
 50124  1  0  0  0
 51 52  1  0  0  0
 51125  1  0  0  0
 51126  1  0  0  0
 52127  1  0  0  0
 52128  1  0  0  0
 53 54  1  0  0  0
 54 55  2  0  0  0
 54129  1  0  0  0
 55 57  1  0  0  0
 55130  1  0  0  0
 56 69  2  0  0  0
 57 58  2  0  0  0
 57131  1  0  0  0
 58132  1  0  0  0
 59 60  1  0  0  0
 59 61  1  0  0  0
 59 62  1  0  0  0
 60133  1  0  0  0
 60134  1  0  0  0
 60135  1  0  0  0
 61136  1  0  0  0
 61137  1  0  0  0
 61138  1  0  0  0
 62139  1  0  0  0
 62140  1  0  0  0
 62141  1  0  0  0
 63 65  1  0  0  0
 63142  1  0  0  0
 63143  1  0  0  0
 63144  1  0  0  0
 64145  1  0  0  0
 65146  1  0  0  0
 68 82  1  0  0  0
 71 72  2  0  0  0
 71 74  1  0  0  0
 71147  1  0  0  0
 72 76  1  0  0  0
 72148  1  0  0  0
 73 75  1  0  0  0
 73 76  2  0  0  0
 73149  1  0  0  0
 74 75  2  0  0  0
 74 79  1  0  0  0
 75 85  1  0  0  0
 76 87  1  0  0  0
 77 78  1  0  0  0
 77 79  1  0  0  0
 77150  1  0  0  0
 77151  1  0  0  0
 78 79  1  0  0  0
 78152  1  0  0  0
 78153  1  0  0  0
 79154  1  0  0  0
 80155  1  0  0  0
 80156  1  0  0  0
 80157  1  0  0  0
 80 84  1  0  0  0
 81 84  1  0  0  0
 81 85  1  0  0  0
 81158  1  0  0  0
 81159  1  0  0  0
 82 83  1  0  0  0
 82160  1  0  0  0
 82161  1  0  0  0
 83 87  1  0  0  0
 83162  1  0  0  0
 83163  1  0  0  0
 84 86  1  0  0  0
 84164  1  0  0  0
 85165  1  0  0  0
 86166  1  0  0  0
M  ISO  4   1 100  68 101  82 101  86 100
M  END
> <chiral flag>
0

> <version>
0

> <s_m_source_file>
/data/baiqing/PycharmProjects/Reinvent-master-3.2/result/LINK_invent/BTK/process_docking_weight1_custom_sum_contain_oxygen_bond_distance_aromatic_linkinvent_7_9_3/rearranged_h_0120.sdf

> <i_m_source_file_index>
46

> <r_mmod_Potential_Energy-OPLS-2005>
-70.3698959350586

> <r_mmod_Stretch_Energy-OPLS-2005>
43.1683616638184

> <r_mmod_Bend_Energy-OPLS-2005>
127.36580657959

> <r_mmod_Torsional_Energy-OPLS-2005>
237.447463989258

> <r_mmod_Improper_Torsional_Energy-OPLS-2005>
5.38392114639282

> <r_mmod_Van_der_Waal_Energy-OPLS-2005>
144.537200927734

> <r_mmod_Electrostatic_Energy-OPLS-2005>
-437.388580322266

> <r_mmod_Solvation_Energy-OPLS-2005>
-207.119369506836

> <b_mmod_Minimization_Converged-OPLS-2005>
0

> <r_mmod_RMS_Derivative-OPLS-2005>
2.94257855415344

$$$$
46
                    3D
 Structure written by MMmdl.
170178  0  0  1  0            999 V2000
  -30.7665  -14.3492   20.6825 C   0  0  0  0  0  0
  -30.4168  -12.2793   19.3933 C   0  0  0  0  0  0
  -29.4851  -12.5250   18.1923 C   0  0  0  0  0  0
  -28.0086  -12.3830   18.6073 C   0  0  0  0  0  0
  -27.6675  -13.2004   19.8807 C   0  0  2  0  0  0
  -28.7038  -12.9308   20.9937 C   0  0  0  0  0  0
  -25.2613  -13.8153   20.5674 C   0  0  0  0  0  0
  -24.1863  -13.0441   20.9191 C   0  0  0  0  0  0
  -24.6399  -11.6905   20.8741 C   0  0  0  0  0  0
  -23.9063  -10.4295   21.0418 C   0  0  0  0  0  0
  -24.3615   -9.4208   21.9190 C   0  0  0  0  0  0
  -23.6295   -8.2236   22.0749 C   0  0  0  0  0  0
  -22.4274   -8.0283   21.3543 C   0  0  0  0  0  0
  -21.9913   -9.0257   20.4641 C   0  0  0  0  0  0
  -22.7233  -10.2136   20.3064 C   0  0  0  0  0  0
  -21.6852   -6.0740   22.5285 C   0  0  0  0  0  0
  -21.4009   -6.5641   23.8219 C   0  0  0  0  0  0
  -21.3659   -5.6790   24.9181 C   0  0  0  0  0  0
  -21.6047   -4.3057   24.7227 C   0  0  0  0  0  0
  -21.8822   -3.8149   23.4345 C   0  0  0  0  0  0
  -21.9186   -4.6965   22.3403 C   0  0  0  0  0  0
  -22.7888  -13.5252   21.1833 C   0  0  0  0  0  0
  -22.1661   -4.2159   21.0978 F   0  0  0  0  0  0
  -21.5620   -3.4538   25.7730 F   0  0  0  0  0  0
  -30.0504  -13.2187   20.4618 N   0  0  0  0  0  0
  -26.3045  -12.9315   20.3361 N   0  0  0  0  0  0
  -25.9318  -11.6482   20.5752 N   0  0  0  0  0  0
  -22.0512  -12.8260   22.0384 N   0  0  0  0  0  0
  -25.4344  -15.1869   20.4031 N   0  0  0  0  0  0
  -31.7838  -14.6491   20.0490 O   0  0  0  0  0  0
  -21.6634   -6.8884   21.4242 O   0  0  0  0  0  0
  -22.3596  -14.5559   20.6663 O   0  0  0  0  0  0
  -24.6106  -31.8700   23.2132 C   0  0  0  0  0  0
  -25.9020  -32.4836   23.8411 C   0  0  1  0  0  0
  -27.2334  -27.4690   20.0848 C   0  0  0  0  0  0
  -25.5891  -33.8642   24.2342 N   0  0  0  0  0  0
  -23.3967  -30.4951   21.5528 C   0  0  2  0  0  0
  -24.8441  -28.9651   20.1160 C   0  0  0  0  0  0
  -22.7393  -29.4672   22.4997 C   0  0  0  0  0  0
  -18.0288  -28.1373   22.8502 C   0  0  0  0  0  0
  -24.1486  -36.7323   23.2636 C   0  0  0  0  0  0
  -25.9236  -30.8424   21.3663 C   0  0  0  0  0  0
  -26.0005  -29.4783   20.7177 C   0  0  0  0  0  0
  -27.1981  -28.7318   20.7102 C   0  0  0  0  0  0
  -26.0717  -26.9752   19.4567 C   0  0  0  0  0  0
  -24.8712  -27.7088   19.4874 C   0  0  0  0  0  0
  -23.6043  -29.8271   20.1674 C   0  0  0  0  0  0
  -25.4109  -36.3119   24.0332 C   0  0  1  0  0  0
  -20.5865  -28.3657   23.1336 C   0  0  2  0  0  0
  -20.6764  -26.9392   22.5447 C   0  0  0  0  0  0
  -19.5774  -26.6383   21.5221 C   0  0  0  0  0  0
  -18.1940  -26.7929   22.1601 C   0  0  0  0  0  0
  -19.1527  -28.8829   23.2925 C   0  0  0  0  0  0
  -18.9461  -30.1433   23.8935 C   0  0  0  0  0  0
  -17.6462  -30.6581   24.0581 C   0  0  0  0  0  0
  -25.9030  -34.9484   23.5126 C   0  0  0  0  0  0
  -16.5359  -29.9085   23.6328 C   0  0  0  0  0  0
  -16.7272  -28.6502   23.0348 C   0  0  0  0  0  0
  -26.4469  -31.6600   25.0720 C   0  0  0  0  0  0
  -25.3747  -31.3695   26.1472 C   0  0  0  0  0  0
  -27.0290  -30.3037   24.6075 C   0  0  0  0  0  0
  -27.6053  -32.4313   25.7484 C   0  0  0  0  0  0
  -27.5584  -37.1818   24.8462 C   0  0  0  0  0  0
  -21.4126  -29.3021   22.3730 N   0  0  0  0  0  0
  -26.4299  -37.3799   23.9405 N   0  0  0  0  0  0
  -24.6613  -31.0827   22.1021 N   0  0  0  0  0  0
  -23.4184  -28.8217   23.3023 O   0  0  0  0  0  0
  -28.3935  -26.7342   20.0618 O   0  0  0  0  0  0
  -26.5590  -34.8923   22.4679 O   0  0  0  0  0  0
  -23.5301  -32.1432   23.7538 O   0  0  0  0  0  0
  -29.5815  -19.4378   23.8165 C   0  0  0  0  0  0
  -28.6444  -17.6918   21.7553 C   0  0  0  0  0  0
  -29.8211  -17.3318   22.7012 C   0  0  1  0  0  0
  -28.4166  -19.8501   22.8881 C   0  0  2  0  0  0
  -30.0180  -25.7025   21.4640 C   0  0  0  0  0  0
  -30.8687  -16.4166   22.0419 C   0  0  0  0  0  0
  -27.4512  -20.8187   23.6031 C   0  0  0  0  0  0
  -26.3394  -21.4154   22.7143 C   0  0  0  0  0  0
  -26.8267  -22.2762   21.5340 C   0  0  0  0  0  0
  -27.6371  -23.5173   21.9502 C   0  0  0  0  0  0
  -27.9123  -24.4463   20.7568 C   0  0  0  0  0  0
  -28.5230  -25.8107   21.1431 C   0  0  2  0  0  0
  -30.5086  -18.5573   23.1051 N   0  0  0  0  0  0
  -30.3013  -15.1287   21.6628 N   0  0  0  0  0  0
  -27.7177  -18.6352   22.4140 N   0  3  0  0  0  0
  -31.4617  -12.3772   19.0903 H   0  0  0  0  0  0
  -30.3108  -11.2554   19.7537 H   0  0  0  0  0  0
  -29.7188  -11.8269   17.3865 H   0  0  0  0  0  0
  -29.6605  -13.5247   17.7908 H   0  0  0  0  0  0
  -27.8126  -11.3244   18.7815 H   0  0  0  0  0  0
  -27.3576  -12.6799   17.7842 H   0  0  0  0  0  0
  -27.7298  -14.2559   19.6151 H   0  0  0  0  0  0
  -28.6597  -11.8843   21.2984 H   0  0  0  0  0  0
  -28.4520  -13.4971   21.8904 H   0  0  0  0  0  0
  -25.2760   -9.5685   22.4757 H   0  0  0  0  0  0
  -24.0012   -7.4627   22.7465 H   0  0  0  0  0  0
  -21.0846   -8.8776   19.8948 H   0  0  0  0  0  0
  -22.3704  -10.9674   19.6175 H   0  0  0  0  0  0
  -21.2010   -7.6149   23.9730 H   0  0  0  0  0  0
  -21.1478   -6.0518   25.9086 H   0  0  0  0  0  0
  -22.0603   -2.7612   23.2841 H   0  0  0  0  0  0
  -22.4112  -11.9919   22.4779 H   0  0  0  0  0  0
  -21.1127  -13.1293   22.2558 H   0  0  0  0  0  0
  -24.6413  -15.8185   20.4379 H   0  0  0  0  0  0
  -26.2455  -15.5884   19.9505 H   0  0  0  0  0  0
  -26.7100  -32.5559   23.1190 H   0  0  0  0  0  0
  -25.0057  -33.9807   25.0496 H   0  0  0  0  0  0
  -22.6846  -31.3109   21.4160 H   0  0  0  0  0  0
  -23.3733  -35.9669   23.3301 H   0  0  0  0  0  0
  -24.3579  -36.8917   22.2045 H   0  0  0  0  0  0
  -23.7254  -37.6541   23.6638 H   0  0  0  0  0  0
  -26.0314  -31.6081   20.5965 H   0  0  0  0  0  0
  -26.8138  -30.8972   21.9798 H   0  0  0  0  0  0
  -28.0920  -29.1225   21.1766 H   0  0  0  0  0  0
  -26.0894  -26.0341   18.9281 H   0  0  0  0  0  0
  -23.9865  -27.3118   19.0097 H   0  0  0  0  0  0
  -23.7095  -30.6009   19.4075 H   0  0  0  0  0  0
  -22.7307  -29.2424   19.8719 H   0  0  0  0  0  0
  -25.1290  -36.1987   25.0830 H   0  0  0  0  0  0
  -20.9980  -28.3221   24.1442 H   0  0  0  0  0  0
  -20.5630  -26.2280   23.3639 H   0  0  0  0  0  0
  -21.6648  -26.7415   22.1270 H   0  0  0  0  0  0
  -19.6926  -25.6294   21.1238 H   0  0  0  0  0  0
  -19.6729  -27.3207   20.6761 H   0  0  0  0  0  0
  -17.4224  -26.6711   21.3979 H   0  0  0  0  0  0
  -18.0319  -26.0050   22.8965 H   0  0  0  0  0  0
  -19.7942  -30.7245   24.2311 H   0  0  0  0  0  0
  -17.5020  -31.6261   24.5195 H   0  0  0  0  0  0
  -15.5362  -30.2998   23.7635 H   0  0  0  0  0  0
  -15.8671  -28.0836   22.7033 H   0  0  0  0  0  0
  -24.5926  -30.7037   25.7809 H   0  0  0  0  0  0
  -24.8938  -32.2849   26.4937 H   0  0  0  0  0  0
  -25.8110  -30.8859   27.0222 H   0  0  0  0  0  0
  -26.2819  -29.6811   24.1136 H   0  0  0  0  0  0
  -27.4065  -29.7263   25.4531 H   0  0  0  0  0  0
  -27.8659  -30.4349   23.9207 H   0  0  0  0  0  0
  -27.2678  -33.3597   26.2112 H   0  0  0  0  0  0
  -28.3850  -32.6894   25.0304 H   0  0  0  0  0  0
  -28.0745  -31.8405   26.5363 H   0  0  0  0  0  0
  -28.2613  -38.0108   24.7513 H   0  0  0  0  0  0
  -28.1067  -36.2636   24.6287 H   0  0  0  0  0  0
  -27.2298  -37.1479   25.8866 H   0  0  0  0  0  0
  -20.9260  -29.8762   21.6992 H   0  0  0  0  0  0
  -26.0172  -38.2874   24.1400 H   0  0  0  0  0  0
  -29.2110  -18.9519   24.7208 H   0  0  0  0  0  0
  -30.1248  -20.3268   24.1434 H   0  0  0  0  0  0
  -28.0895  -16.7954   21.4748 H   0  0  0  0  0  0
  -29.0131  -18.1310   20.8273 H   0  0  0  0  0  0
  -29.4370  -16.8357   23.5958 H   0  0  0  0  0  0
  -28.8472  -20.3593   22.0251 H   0  0  0  0  0  0
  -30.1956  -25.0274   22.3014 H   0  0  0  0  0  0
  -30.4293  -26.6761   21.7323 H   0  0  0  0  0  0
  -30.5804  -25.3292   20.6078 H   0  0  0  0  0  0
  -31.7025  -16.2322   22.7212 H   0  0  0  0  0  0
  -31.2864  -16.9157   21.1640 H   0  0  0  0  0  0
  -28.0264  -21.6332   24.0440 H   0  0  0  0  0  0
  -26.9895  -20.3084   24.4496 H   0  0  0  0  0  0
  -25.6828  -22.0227   23.3395 H   0  0  0  0  0  0
  -25.7040  -20.6154   22.3326 H   0  0  0  0  0  0
  -25.9445  -22.6003   20.9787 H   0  0  0  0  0  0
  -27.4035  -21.6752   20.8312 H   0  0  0  0  0  0
  -28.5798  -23.2183   22.4084 H   0  0  0  0  0  0
  -27.0807  -24.0669   22.7108 H   0  0  0  0  0  0
  -26.9586  -24.6023   20.2630 H   0  0  0  0  0  0
  -28.5469  -23.9479   20.0235 H   0  0  0  0  0  0
  -28.0129  -26.2010   22.0271 H   0  0  0  0  0  0
  -31.2783  -18.3199   23.7261 H   0  0  0  0  0  0
  -29.5065  -14.7836   22.1791 H   0  0  0  0  0  0
  -27.2863  -18.1717   23.1967 H   0  0  0  0  0  0
  -26.9974  -18.8892   21.7596 H   0  0  0  0  0  0
  1 25  1  0  0  0
  1 30  2  0  0  0
  1 84  1  0  0  0
  2  3  1  0  0  0
  2 25  1  0  0  0
  2 86  1  0  0  0
  2 87  1  0  0  0
  3  4  1  0  0  0
  3 88  1  0  0  0
  3 89  1  0  0  0
  4  5  1  0  0  0
  4 90  1  0  0  0
  4 91  1  0  0  0
  5  6  1  0  0  0
  5 26  1  0  0  0
  5 92  1  0  0  0
  6 25  1  0  0  0
  6 93  1  0  0  0
  6 94  1  0  0  0
  7  8  2  0  0  0
  7 26  1  0  0  0
  7 29  1  0  0  0
  8  9  1  0  0  0
  8 22  1  0  0  0
  9 10  1  0  0  0
  9 27  2  0  0  0
 10 11  2  0  0  0
 10 15  1  0  0  0
 11 12  1  0  0  0
 11 95  1  0  0  0
 12 13  2  0  0  0
 12 96  1  0  0  0
 13 14  1  0  0  0
 13 31  1  0  0  0
 14 15  2  0  0  0
 14 97  1  0  0  0
 15 98  1  0  0  0
 16 17  2  0  0  0
 16 21  1  0  0  0
 16 31  1  0  0  0
 17 18  1  0  0  0
 17 99  1  0  0  0
 18 19  2  0  0  0
 18100  1  0  0  0
 19 20  1  0  0  0
 19 24  1  0  0  0
 20 21  2  0  0  0
 20101  1  0  0  0
 21 23  1  0  0  0
 22 28  1  0  0  0
 22 32  2  0  0  0
 26 27  1  0  0  0
 28102  1  0  0  0
 28103  1  0  0  0
 29104  1  0  0  0
 29105  1  0  0  0
 33 34  1  0  0  0
 33 66  1  0  0  0
 33 70  2  0  0  0
 34 36  1  0  0  0
 34 59  1  0  0  0
 34106  1  0  0  0
 35 44  2  0  0  0
 35 45  1  0  0  0
 35 68  1  0  0  0
 36 56  1  0  0  0
 36107  1  0  0  0
 37 39  1  0  0  0
 37 47  1  0  0  0
 37 66  1  0  0  0
 37108  1  0  0  0
 38 43  2  0  0  0
 38 46  1  0  0  0
 38 47  1  0  0  0
 39 64  1  0  0  0
 39 67  2  0  0  0
 40 52  1  0  0  0
 40 53  2  0  0  0
 40 58  1  0  0  0
 41109  1  0  0  0
 41110  1  0  0  0
 41111  1  0  0  0
 41 48  1  0  0  0
 42 43  1  0  0  0
 42 66  1  0  0  0
 42112  1  0  0  0
 42113  1  0  0  0
 43 44  1  0  0  0
 44114  1  0  0  0
 45 46  2  0  0  0
 45115  1  0  0  0
 46116  1  0  0  0
 47117  1  0  0  0
 47118  1  0  0  0
 48 56  1  0  0  0
 48 65  1  0  0  0
 48119  1  0  0  0
 49 50  1  0  0  0
 49 53  1  0  0  0
 49 64  1  0  0  0
 49120  1  0  0  0
 50 51  1  0  0  0
 50121  1  0  0  0
 50122  1  0  0  0
 51 52  1  0  0  0
 51123  1  0  0  0
 51124  1  0  0  0
 52125  1  0  0  0
 52126  1  0  0  0
 53 54  1  0  0  0
 54 55  2  0  0  0
 54127  1  0  0  0
 55 57  1  0  0  0
 55128  1  0  0  0
 56 69  2  0  0  0
 57 58  2  0  0  0
 57129  1  0  0  0
 58130  1  0  0  0
 59 60  1  0  0  0
 59 61  1  0  0  0
 59 62  1  0  0  0
 60131  1  0  0  0
 60132  1  0  0  0
 60133  1  0  0  0
 61134  1  0  0  0
 61135  1  0  0  0
 61136  1  0  0  0
 62137  1  0  0  0
 62138  1  0  0  0
 62139  1  0  0  0
 63 65  1  0  0  0
 63140  1  0  0  0
 63141  1  0  0  0
 63142  1  0  0  0
 64143  1  0  0  0
 65144  1  0  0  0
 68 82  1  0  0  0
 71 74  1  0  0  0
 71 83  1  0  0  0
 71145  1  0  0  0
 71146  1  0  0  0
 72 73  1  0  0  0
 72 85  1  0  0  0
 72147  1  0  0  0
 72148  1  0  0  0
 73 76  1  0  0  0
 73 83  1  0  0  0
 73149  1  0  0  0
 74 77  1  0  0  0
 74 85  1  0  0  0
 74150  1  0  0  0
 75151  1  0  0  0
 75152  1  0  0  0
 75153  1  0  0  0
 75 82  1  0  0  0
 76 84  1  0  0  0
 76154  1  0  0  0
 76155  1  0  0  0
 77 78  1  0  0  0
 77156  1  0  0  0
 77157  1  0  0  0
 78 79  1  0  0  0
 78158  1  0  0  0
 78159  1  0  0  0
 79 80  1  0  0  0
 79160  1  0  0  0
 79161  1  0  0  0
 80 81  1  0  0  0
 80162  1  0  0  0
 80163  1  0  0  0
 81 82  1  0  0  0
 81164  1  0  0  0
 81165  1  0  0  0
 82166  1  0  0  0
 83167  1  0  0  0
 84168  1  0  0  0
 85169  1  0  0  0
 85170  1  0  0  0
M  CHG  1  85   1
M  ISO  4   1 100  68 101  82 101  84 100
M  END
> <chiral flag>
0

> <version>
0

> <s_m_source_file>
/data/baiqing/PycharmProjects/Reinvent-master-3.2/result/LINK_invent/BTK/process_docking_weight1_custom_sum_contain_oxygen_bond_distance_aromatic_linkinvent_7_9_3/rearranged_h_0120.sdf

> <i_m_source_file_index>
47

> <r_mmod_Potential_Energy-OPLS-2005>
-244.019790649414

> <r_mmod_Stretch_Energy-OPLS-2005>
31.7440052032471

> <r_mmod_Bend_Energy-OPLS-2005>
85.6580963134766

> <r_mmod_Torsional_Energy-OPLS-2005>
239.666229248047

> <r_mmod_Improper_Torsional_Energy-OPLS-2005>
2.79161310195923

> <r_mmod_Van_der_Waal_Energy-OPLS-2005>
139.025451660156

> <r_mmod_Electrostatic_Energy-OPLS-2005>
-283.808258056641

> <r_mmod_Solvation_Energy-OPLS-2005>
-465.868713378906

> <b_mmod_Minimization_Converged-OPLS-2005>
0

> <r_mmod_RMS_Derivative-OPLS-2005>
1.72910749912262

$$$$
47
                    3D
 Structure written by MMmdl.
181190  0  0  1  0            999 V2000
  -30.6172  -14.7260   20.4581 C   0  0  0  0  0  0
  -30.4431  -12.4412   19.4812 C   0  0  0  0  0  0
  -29.5138  -12.5053   18.2476 C   0  0  0  0  0  0
  -28.0401  -12.3363   18.6595 C   0  0  0  0  0  0
  -27.6551  -13.2276   19.8673 C   0  0  2  0  0  0
  -28.7015  -13.1447   21.0016 C   0  0  0  0  0  0
  -25.2572  -13.8193   20.5691 C   0  0  0  0  0  0
  -24.1850  -13.0452   20.9183 C   0  0  0  0  0  0
  -24.6429  -11.6925   20.8732 C   0  0  0  0  0  0
  -23.9085  -10.4298   21.0395 C   0  0  0  0  0  0
  -24.3616   -9.4212   21.9178 C   0  0  0  0  0  0
  -23.6290   -8.2249   22.0758 C   0  0  0  0  0  0
  -22.4275   -8.0283   21.3552 C   0  0  0  0  0  0
  -21.9916   -9.0261   20.4653 C   0  0  0  0  0  0
  -22.7249  -10.2139   20.3056 C   0  0  0  0  0  0
  -21.6860   -6.0723   22.5268 C   0  0  0  0  0  0
  -21.4018   -6.5636   23.8186 C   0  0  0  0  0  0
  -21.3657   -5.6800   24.9151 C   0  0  0  0  0  0
  -21.6028   -4.3061   24.7217 C   0  0  0  0  0  0
  -21.8821   -3.8149   23.4344 C   0  0  0  0  0  0
  -21.9195   -4.6957   22.3394 C   0  0  0  0  0  0
  -22.7859  -13.5243   21.1815 C   0  0  0  0  0  0
  -22.1661   -4.2133   21.0978 F   0  0  0  0  0  0
  -21.5614   -3.4552   25.7735 F   0  0  0  0  0  0
  -30.0111  -13.4916   20.4307 N   0  0  0  0  0  0
  -26.3025  -12.9401   20.3386 N   0  0  0  0  0  0
  -25.9379  -11.6546   20.5802 N   0  0  0  0  0  0
  -22.0520  -12.8216   22.0364 N   0  0  0  0  0  0
  -25.4351  -15.1895   20.4039 N   0  0  0  0  0  0
  -31.7717  -14.8607   20.0433 O   0  0  0  0  0  0
  -21.6655   -6.8873   21.4234 O   0  0  0  0  0  0
  -22.3537  -14.5537   20.6655 O   0  0  0  0  0  0
  -24.6268  -31.8604   23.1971 C   0  0  0  0  0  0
  -25.9103  -32.4805   23.8319 C   0  0  1  0  0  0
  -27.2188  -27.3057   20.1223 C   0  0  0  0  0  0
  -25.5915  -33.8599   24.2234 N   0  0  0  0  0  0
  -23.4189  -30.4822   21.5396 C   0  0  2  0  0  0
  -24.8653  -28.9241   20.1205 C   0  0  0  0  0  0
  -22.7462  -29.4653   22.4895 C   0  0  0  0  0  0
  -18.0290  -28.1403   22.8447 C   0  0  0  0  0  0
  -24.1500  -36.7296   23.2642 C   0  0  0  0  0  0
  -25.9609  -30.7842   21.3684 C   0  0  0  0  0  0
  -26.0333  -29.4068   20.7222 C   0  0  0  0  0  0
  -27.2188  -28.6092   20.7086 C   0  0  0  0  0  0
  -26.0311  -26.8683   19.5110 C   0  0  0  0  0  0
  -24.8637  -27.6592   19.5121 C   0  0  0  0  0  0
  -23.6353  -29.8086   20.1599 C   0  0  0  0  0  0
  -25.4110  -36.3089   24.0329 C   0  0  1  0  0  0
  -20.5885  -28.3716   23.1272 C   0  0  2  0  0  0
  -20.6827  -26.9439   22.5413 C   0  0  0  0  0  0
  -19.5825  -26.6382   21.5228 C   0  0  0  0  0  0
  -18.1959  -26.7928   22.1575 C   0  0  0  0  0  0
  -19.1532  -28.8864   23.2855 C   0  0  0  0  0  0
  -18.9481  -30.1446   23.8908 C   0  0  0  0  0  0
  -17.6503  -30.6602   24.0580 C   0  0  0  0  0  0
  -25.9064  -34.9484   23.5085 C   0  0  0  0  0  0
  -16.5377  -29.9110   23.6354 C   0  0  0  0  0  0
  -16.7281  -28.6534   23.0346 C   0  0  0  0  0  0
  -26.4475  -31.6603   25.0696 C   0  0  0  0  0  0
  -25.3680  -31.3764   26.1409 C   0  0  0  0  0  0
  -27.0325  -30.3027   24.6127 C   0  0  0  0  0  0
  -27.6051  -32.4351   25.7458 C   0  0  0  0  0  0
  -27.5546  -37.1785   24.8448 C   0  0  0  0  0  0
  -21.4166  -29.3071   22.3653 N   0  0  0  0  0  0
  -26.4281  -37.3790   23.9412 N   0  0  0  0  0  0
  -24.6880  -31.0594   22.0932 N   0  0  0  0  0  0
  -23.4199  -28.8225   23.2996 O   0  0  0  0  0  0
  -28.3590  -26.5052   19.9867 O   0  0  0  0  0  0
  -26.5649  -34.8950   22.4653 O   0  0  0  0  0  0
  -23.5420  -32.1439   23.7279 O   0  0  0  0  0  0
  -27.3484  -23.1716   24.4966 C   0  0  0  0  0  0
  -27.9736  -21.9502   23.8838 C   0  0  0  0  0  0
  -31.3450  -18.9506   20.9902 C   0  0  0  0  0  0
  -29.1310  -19.8600   20.0856 C   0  0  0  0  0  0
  -31.6021  -20.4090   21.4496 C   0  0  0  0  0  0
  -27.9966  -23.2599   23.1321 C   0  0  0  0  0  0
  -29.8572  -18.5878   20.7688 C   0  0  1  0  0  0
  -29.4745  -21.3404   20.6220 C   0  0  2  0  0  0
  -31.6779  -23.2894   18.0630 C   0  0  0  0  0  0
  -33.5577  -24.0971   19.5106 C   0  0  0  0  0  0
  -27.1497  -23.4559   21.8836 C   0  0  0  0  0  0
  -29.7605  -17.1642   20.0028 C   0  0  0  0  0  0
  -28.6822  -22.5773   19.9093 C   0  0  0  0  0  0
  -31.6370  -22.7456   20.5834 C   0  0  0  0  0  0
  -28.5991  -25.3153   20.8268 C   0  0  0  0  0  0
  -32.5140  -22.9800   19.3191 C   0  0  0  0  0  0
  -27.9480  -23.8492   20.6165 C   0  0  2  0  0  0
  -29.8309  -15.8273   20.7324 N   0  0  0  0  0  0
  -30.9709  -21.4101   20.5382 N   0  3  1  0  0  0
  -31.4799  -12.5722   19.1667 H   0  0  0  0  0  0
  -30.4006  -11.4619   19.9588 H   0  0  0  0  0  0
  -29.7906  -11.7355   17.5282 H   0  0  0  0  0  0
  -29.6405  -13.4626   17.7384 H   0  0  0  0  0  0
  -27.8831  -11.2893   18.9128 H   0  0  0  0  0  0
  -27.3847  -12.5455   17.8142 H   0  0  0  0  0  0
  -27.6600  -14.2505   19.4944 H   0  0  0  0  0  0
  -28.7340  -12.1434   21.4330 H   0  0  0  0  0  0
  -28.4413  -13.8204   21.8156 H   0  0  0  0  0  0
  -25.2754   -9.5655   22.4754 H   0  0  0  0  0  0
  -23.9970   -7.4645   22.7496 H   0  0  0  0  0  0
  -21.0830   -8.8801   19.8960 H   0  0  0  0  0  0
  -22.3723  -10.9680   19.6152 H   0  0  0  0  0  0
  -21.2027   -7.6152   23.9672 H   0  0  0  0  0  0
  -21.1458   -6.0544   25.9043 H   0  0  0  0  0  0
  -22.0599   -2.7617   23.2864 H   0  0  0  0  0  0
  -22.4180  -11.9871   22.4688 H   0  0  0  0  0  0
  -21.1127  -13.1221   22.2580 H   0  0  0  0  0  0
  -24.6746  -15.8536   20.4941 H   0  0  0  0  0  0
  -26.2818  -15.6071   20.0401 H   0  0  0  0  0  0
  -26.7176  -32.5469   23.1064 H   0  0  0  0  0  0
  -25.0128  -33.9783   25.0422 H   0  0  0  0  0  0
  -22.7132  -31.3061   21.3876 H   0  0  0  0  0  0
  -23.3785  -35.9614   23.3331 H   0  0  0  0  0  0
  -24.3590  -36.8895   22.2059 H   0  0  0  0  0  0
  -23.7248  -37.6490   23.6672 H   0  0  0  0  0  0
  -26.0802  -31.5419   20.5914 H   0  0  0  0  0  0
  -26.8483  -30.8456   21.9881 H   0  0  0  0  0  0
  -28.1290  -28.9870   21.1467 H   0  0  0  0  0  0
  -26.0092  -25.9124   19.0053 H   0  0  0  0  0  0
  -23.9680  -27.2859   19.0347 H   0  0  0  0  0  0
  -23.7548  -30.5855   19.4018 H   0  0  0  0  0  0
  -22.7559  -29.2359   19.8549 H   0  0  0  0  0  0
  -25.1296  -36.1954   25.0828 H   0  0  0  0  0  0
  -20.9948  -28.3317   24.1414 H   0  0  0  0  0  0
  -20.5812  -26.2310   23.3592 H   0  0  0  0  0  0
  -21.6685  -26.7561   22.1163 H   0  0  0  0  0  0
  -19.7045  -25.6305   21.1261 H   0  0  0  0  0  0
  -19.6804  -27.3218   20.6790 H   0  0  0  0  0  0
  -17.4256  -26.6714   21.3940 H   0  0  0  0  0  0
  -18.0313  -26.0057   22.8957 H   0  0  0  0  0  0
  -19.7983  -30.7211   24.2291 H   0  0  0  0  0  0
  -17.5097  -31.6296   24.5149 H   0  0  0  0  0  0
  -15.5396  -30.3053   23.7671 H   0  0  0  0  0  0
  -15.8657  -28.0880   22.7071 H   0  0  0  0  0  0
  -24.5921  -30.7047   25.7694 H   0  0  0  0  0  0
  -24.8792  -32.2942   26.4717 H   0  0  0  0  0  0
  -25.7960  -30.9009   27.0234 H   0  0  0  0  0  0
  -26.2908  -29.6794   24.1116 H   0  0  0  0  0  0
  -27.4056  -29.7279   25.4607 H   0  0  0  0  0  0
  -27.8735  -30.4348   23.9327 H   0  0  0  0  0  0
  -27.2701  -33.3722   26.1922 H   0  0  0  0  0  0
  -28.3870  -32.6792   25.0261 H   0  0  0  0  0  0
  -28.0675  -31.8526   26.5429 H   0  0  0  0  0  0
  -28.2552  -38.0096   24.7508 H   0  0  0  0  0  0
  -28.1056  -36.2619   24.6263 H   0  0  0  0  0  0
  -27.2263  -37.1406   25.8852 H   0  0  0  0  0  0
  -20.9341  -29.8716   21.6798 H   0  0  0  0  0  0
  -26.0169  -38.2852   24.1462 H   0  0  0  0  0  0
  -27.8761  -23.6440   25.3249 H   0  0  0  0  0  0
  -26.2611  -23.2003   24.5556 H   0  0  0  0  0  0
  -27.3008  -21.1701   23.5337 H   0  0  0  0  0  0
  -28.9245  -21.6009   24.2826 H   0  0  0  0  0  0
  -31.7772  -18.2586   21.7179 H   0  0  0  0  0  0
  -31.9006  -18.7882   20.0657 H   0  0  0  0  0  0
  -28.0518  -19.7143   20.1453 H   0  0  0  0  0  0
  -29.3512  -19.8417   19.0169 H   0  0  0  0  0  0
  -32.6828  -20.5728   21.4726 H   0  0  0  0  0  0
  -31.2528  -20.5554   22.4740 H   0  0  0  0  0  0
  -28.9451  -23.7958   23.1241 H   0  0  0  0  0  0
  -29.3898  -18.4711   21.7486 H   0  0  0  0  0  0
  -29.2052  -21.3599   21.6761 H   0  0  0  0  0  0
  -32.3203  -23.4840   17.2022 H   0  0  0  0  0  0
  -31.0573  -24.1773   18.2045 H   0  0  0  0  0  0
  -31.0237  -22.4621   17.7840 H   0  0  0  0  0  0
  -34.2162  -24.1556   18.6406 H   0  0  0  0  0  0
  -34.1925  -23.9202   20.3804 H   0  0  0  0  0  0
  -33.0948  -25.0783   19.6274 H   0  0  0  0  0  0
  -26.4328  -24.2484   22.1022 H   0  0  0  0  0  0
  -26.5563  -22.5601   21.7037 H   0  0  0  0  0  0
  -30.4841  -17.1518   19.1847 H   0  0  0  0  0  0
  -28.7954  -17.1405   19.4912 H   0  0  0  0  0  0
  -27.8454  -22.0698   19.4309 H   0  0  0  0  0  0
  -29.2354  -22.9388   19.0492 H   0  0  0  0  0  0
  -30.9251  -23.5536   20.6967 H   0  0  0  0  0  0
  -32.2555  -22.8111   21.4810 H   0  0  0  0  0  0
  -29.6793  -25.2148   20.8271 H   0  0  0  0  0  0
  -28.3734  -25.6578   21.8375 H   0  0  0  0  0  0
  -33.0781  -22.0661   19.1204 H   0  0  0  0  0  0
  -27.1593  -24.0679   19.8953 H   0  0  0  0  0  0
  -28.9675  -15.5814   21.1954 H   0  0  0  0  0  0
  -31.1924  -21.0843   19.6091 H   0  0  0  0  0  0
  1 25  1  0  0  0
  1 30  2  0  0  0
  1 88  1  0  0  0
  2  3  1  0  0  0
  2 25  1  0  0  0
  2 90  1  0  0  0
  2 91  1  0  0  0
  3  4  1  0  0  0
  3 92  1  0  0  0
  3 93  1  0  0  0
  4  5  1  0  0  0
  4 94  1  0  0  0
  4 95  1  0  0  0
  5  6  1  0  0  0
  5 26  1  0  0  0
  5 96  1  0  0  0
  6 25  1  0  0  0
  6 97  1  0  0  0
  6 98  1  0  0  0
  7  8  2  0  0  0
  7 26  1  0  0  0
  7 29  1  0  0  0
  8  9  1  0  0  0
  8 22  1  0  0  0
  9 10  1  0  0  0
  9 27  2  0  0  0
 10 11  2  0  0  0
 10 15  1  0  0  0
 11 12  1  0  0  0
 11 99  1  0  0  0
 12 13  2  0  0  0
 12100  1  0  0  0
 13 14  1  0  0  0
 13 31  1  0  0  0
 14 15  2  0  0  0
 14101  1  0  0  0
 15102  1  0  0  0
 16 17  2  0  0  0
 16 21  1  0  0  0
 16 31  1  0  0  0
 17 18  1  0  0  0
 17103  1  0  0  0
 18 19  2  0  0  0
 18104  1  0  0  0
 19 20  1  0  0  0
 19 24  1  0  0  0
 20 21  2  0  0  0
 20105  1  0  0  0
 21 23  1  0  0  0
 22 28  1  0  0  0
 22 32  2  0  0  0
 26 27  1  0  0  0
 28106  1  0  0  0
 28107  1  0  0  0
 29108  1  0  0  0
 29109  1  0  0  0
 33 34  1  0  0  0
 33 66  1  0  0  0
 33 70  2  0  0  0
 34 36  1  0  0  0
 34 59  1  0  0  0
 34110  1  0  0  0
 35 44  2  0  0  0
 35 45  1  0  0  0
 35 68  1  0  0  0
 36 56  1  0  0  0
 36111  1  0  0  0
 37 39  1  0  0  0
 37 47  1  0  0  0
 37 66  1  0  0  0
 37112  1  0  0  0
 38 43  2  0  0  0
 38 46  1  0  0  0
 38 47  1  0  0  0
 39 64  1  0  0  0
 39 67  2  0  0  0
 40 52  1  0  0  0
 40 53  2  0  0  0
 40 58  1  0  0  0
 41113  1  0  0  0
 41114  1  0  0  0
 41115  1  0  0  0
 41 48  1  0  0  0
 42 43  1  0  0  0
 42 66  1  0  0  0
 42116  1  0  0  0
 42117  1  0  0  0
 43 44  1  0  0  0
 44118  1  0  0  0
 45 46  2  0  0  0
 45119  1  0  0  0
 46120  1  0  0  0
 47121  1  0  0  0
 47122  1  0  0  0
 48 56  1  0  0  0
 48 65  1  0  0  0
 48123  1  0  0  0
 49 50  1  0  0  0
 49 53  1  0  0  0
 49 64  1  0  0  0
 49124  1  0  0  0
 50 51  1  0  0  0
 50125  1  0  0  0
 50126  1  0  0  0
 51 52  1  0  0  0
 51127  1  0  0  0
 51128  1  0  0  0
 52129  1  0  0  0
 52130  1  0  0  0
 53 54  1  0  0  0
 54 55  2  0  0  0
 54131  1  0  0  0
 55 57  1  0  0  0
 55132  1  0  0  0
 56 69  2  0  0  0
 57 58  2  0  0  0
 57133  1  0  0  0
 58134  1  0  0  0
 59 60  1  0  0  0
 59 61  1  0  0  0
 59 62  1  0  0  0
 60135  1  0  0  0
 60136  1  0  0  0
 60137  1  0  0  0
 61138  1  0  0  0
 61139  1  0  0  0
 61140  1  0  0  0
 62141  1  0  0  0
 62142  1  0  0  0
 62143  1  0  0  0
 63 65  1  0  0  0
 63144  1  0  0  0
 63145  1  0  0  0
 63146  1  0  0  0
 64147  1  0  0  0
 65148  1  0  0  0
 68 85  1  0  0  0
 71 72  1  0  0  0
 71 76  1  0  0  0
 71149  1  0  0  0
 71150  1  0  0  0
 72 76  1  0  0  0
 72151  1  0  0  0
 72152  1  0  0  0
 73 75  1  0  0  0
 73 77  1  0  0  0
 73153  1  0  0  0
 73154  1  0  0  0
 74 77  1  0  0  0
 74 78  1  0  0  0
 74155  1  0  0  0
 74156  1  0  0  0
 75 89  1  0  0  0
 75157  1  0  0  0
 75158  1  0  0  0
 76 81  1  0  0  0
 76159  1  0  0  0
 77 82  1  0  0  0
 77160  1  0  0  0
 78 83  1  0  0  0
 78 89  1  0  0  0
 78161  1  0  0  0
 79162  1  0  0  0
 79163  1  0  0  0
 79164  1  0  0  0
 79 86  1  0  0  0
 80 86  1  0  0  0
 80165  1  0  0  0
 80166  1  0  0  0
 80167  1  0  0  0
 81168  1  0  0  0
 81169  1  0  0  0
 81 87  1  0  0  0
 82 88  1  0  0  0
 82170  1  0  0  0
 82171  1  0  0  0
 83 87  1  0  0  0
 83172  1  0  0  0
 83173  1  0  0  0
 84 86  1  0  0  0
 84174  1  0  0  0
 84175  1  0  0  0
 84 89  1  0  0  0
 85 87  1  0  0  0
 85176  1  0  0  0
 85177  1  0  0  0
 86178  1  0  0  0
 87179  1  0  0  0
 88180  1  0  0  0
 89181  1  0  0  0
M  CHG  1  89   1
M  ISO  4   1 100  68 101  85 101  88 100
M  END
> <chiral flag>
0

> <version>
0

> <s_m_source_file>
/data/baiqing/PycharmProjects/Reinvent-master-3.2/result/LINK_invent/BTK/process_docking_weight1_custom_sum_contain_oxygen_bond_distance_aromatic_linkinvent_7_9_3/rearranged_h_0120.sdf

> <i_m_source_file_index>
48

> <r_mmod_Potential_Energy-OPLS-2005>
264.346405029297

> <r_mmod_Stretch_Energy-OPLS-2005>
119.73673248291

> <r_mmod_Bend_Energy-OPLS-2005>
229.964874267578

> <r_mmod_Torsional_Energy-OPLS-2005>
393.852630615234

> <r_mmod_Improper_Torsional_Energy-OPLS-2005>
7.84661722183228

> <r_mmod_Van_der_Waal_Energy-OPLS-2005>
113.135200500488

> <r_mmod_Electrostatic_Energy-OPLS-2005>
-247.789672851562

> <r_mmod_Solvation_Energy-OPLS-2005>
-416.290985107422

> <b_mmod_Minimization_Converged-OPLS-2005>
0

> <r_mmod_RMS_Derivative-OPLS-2005>
5.39620733261108

$$$$
48
                    3D
 Structure written by MMmdl.
159168  0  0  1  0            999 V2000
  -30.6537  -14.5809   20.4717 C   0  0  0  0  0  0
  -30.4227  -12.3547   19.4318 C   0  0  0  0  0  0
  -29.4939  -12.4983   18.2078 C   0  0  0  0  0  0
  -28.0173  -12.3462   18.6231 C   0  0  0  0  0  0
  -27.6496  -13.2160   19.8592 C   0  0  2  0  0  0
  -28.6994  -13.0763   20.9854 C   0  0  0  0  0  0
  -25.2552  -13.8158   20.5715 C   0  0  0  0  0  0
  -24.1810  -13.0409   20.9176 C   0  0  0  0  0  0
  -24.6375  -11.6888   20.8712 C   0  0  0  0  0  0
  -23.9032  -10.4282   21.0379 C   0  0  0  0  0  0
  -24.3592   -9.4216   21.9167 C   0  0  0  0  0  0
  -23.6279   -8.2243   22.0735 C   0  0  0  0  0  0
  -22.4261   -8.0279   21.3544 C   0  0  0  0  0  0
  -21.9883   -9.0226   20.4627 C   0  0  0  0  0  0
  -22.7185  -10.2109   20.3038 C   0  0  0  0  0  0
  -21.6840   -6.0724   22.5257 C   0  0  0  0  0  0
  -21.4020   -6.5624   23.8195 C   0  0  0  0  0  0
  -21.3675   -5.6771   24.9151 C   0  0  0  0  0  0
  -21.6037   -4.3036   24.7197 C   0  0  0  0  0  0
  -21.8821   -3.8132   23.4313 C   0  0  0  0  0  0
  -21.9194   -4.6955   22.3379 C   0  0  0  0  0  0
  -22.7829  -13.5213   21.1809 C   0  0  0  0  0  0
  -22.1662   -4.2145   21.0958 F   0  0  0  0  0  0
  -21.5630   -3.4515   25.7713 F   0  0  0  0  0  0
  -30.0104  -13.3819   20.4027 N   0  0  0  0  0  0
  -26.2979  -12.9341   20.3327 N   0  0  0  0  0  0
  -25.9314  -11.6494   20.5750 N   0  0  0  0  0  0
  -22.0465  -12.8190   22.0356 N   0  0  0  0  0  0
  -25.4266  -15.1870   20.4191 N   0  0  0  0  0  0
  -31.8497  -14.6930   20.2079 O   0  0  0  0  0  0
  -21.6630   -6.8864   21.4229 O   0  0  0  0  0  0
  -22.3534  -14.5530   20.6673 O   0  0  0  0  0  0
  -24.6197  -31.8615   23.2012 C   0  0  0  0  0  0
  -25.9064  -32.4784   23.8332 C   0  0  1  0  0  0
  -27.2387  -27.3673   20.1118 C   0  0  0  0  0  0
  -25.5897  -33.8582   24.2266 N   0  0  0  0  0  0
  -23.4121  -30.4836   21.5416 C   0  0  2  0  0  0
  -24.8614  -28.9321   20.1179 C   0  0  0  0  0  0
  -22.7432  -29.4663   22.4940 C   0  0  0  0  0  0
  -18.0283  -28.1389   22.8484 C   0  0  0  0  0  0
  -24.1495  -36.7306   23.2641 C   0  0  0  0  0  0
  -25.9475  -30.8094   21.3630 C   0  0  0  0  0  0
  -26.0265  -29.4377   20.7097 C   0  0  0  0  0  0
  -27.2206  -28.6675   20.6900 C   0  0  0  0  0  0
  -26.0522  -26.8880   19.5194 C   0  0  0  0  0  0
  -24.8724  -27.6599   19.5188 C   0  0  0  0  0  0
  -23.6249  -29.8060   20.1608 C   0  0  0  0  0  0
  -25.4120  -36.3086   24.0324 C   0  0  1  0  0  0
  -20.5873  -28.3701   23.1276 C   0  0  2  0  0  0
  -20.6779  -26.9427   22.5405 C   0  0  0  0  0  0
  -19.5760  -26.6386   21.5207 C   0  0  0  0  0  0
  -18.1934  -26.7928   22.1622 C   0  0  0  0  0  0
  -19.1531  -28.8859   23.2879 C   0  0  0  0  0  0
  -18.9467  -30.1457   23.8901 C   0  0  0  0  0  0
  -17.6473  -30.6591   24.0567 C   0  0  0  0  0  0
  -25.9046  -34.9452   23.5096 C   0  0  0  0  0  0
  -16.5360  -29.9096   23.6329 C   0  0  0  0  0  0
  -16.7274  -28.6512   23.0350 C   0  0  0  0  0  0
  -26.4479  -31.6591   25.0697 C   0  0  0  0  0  0
  -25.3739  -31.3717   26.1448 C   0  0  0  0  0  0
  -27.0317  -30.3015   24.6134 C   0  0  0  0  0  0
  -27.6023  -32.4346   25.7478 C   0  0  0  0  0  0
  -27.5580  -37.1808   24.8463 C   0  0  0  0  0  0
  -21.4157  -29.3055   22.3669 N   0  0  0  0  0  0
  -26.4299  -37.3776   23.9396 N   0  0  0  0  0  0
  -24.6782  -31.0673   22.0929 N   0  0  0  0  0  0
  -23.4171  -28.8217   23.3014 O   0  0  0  0  0  0
  -28.3930  -26.5919   20.0790 O   0  0  0  0  0  0
  -26.5625  -34.8922   22.4671 O   0  0  0  0  0  0
  -23.5376  -32.1391   23.7380 O   0  0  0  0  0  0
  -31.4231  -18.2267   20.5247 C   0  0  0  0  0  0
  -31.9267  -19.4938   20.2131 C   0  0  0  0  0  0
  -30.0535  -18.1169   20.7824 C   0  0  0  0  0  0
  -29.8243  -20.4056   20.3916 C   0  0  0  0  0  0
  -34.4267  -19.2941   20.9267 C   0  0  0  0  0  0
  -34.1896  -20.7586   20.6587 C   0  0  0  0  0  0
  -33.3802  -19.7170   19.9166 C   0  0  0  0  0  0
  -29.4619  -16.7336   21.1493 C   0  0  0  0  0  0
  -28.6478  -24.0397   19.6326 C   0  0  0  0  0  0
  -28.3484  -25.2316   20.6241 C   0  0  0  0  0  0
  -29.5729  -22.8444   20.1164 C   0  0  0  0  0  0
  -31.1230  -20.5730   20.1572 N   0  0  0  0  0  0
  -29.2531  -19.2224   20.6924 N   0  0  0  0  0  0
  -29.8653  -15.6511   20.2246 N   0  0  0  0  0  0
  -28.9973  -21.5067   20.2997 O   0  0  0  0  0  0
  -31.4670  -12.4561   19.1260 H   0  0  0  0  0  0
  -30.3315  -11.3589   19.8688 H   0  0  0  0  0  0
  -29.7471  -11.7534   17.4521 H   0  0  0  0  0  0
  -29.6394  -13.4743   17.7405 H   0  0  0  0  0  0
  -27.8436  -11.2910   18.8390 H   0  0  0  0  0  0
  -27.3660  -12.5940   17.7845 H   0  0  0  0  0  0
  -27.6678  -14.2524   19.5224 H   0  0  0  0  0  0
  -28.7004  -12.0659   21.3998 H   0  0  0  0  0  0
  -28.4697  -13.7516   21.8107 H   0  0  0  0  0  0
  -25.2740   -9.5680   22.4737 H   0  0  0  0  0  0
  -23.9984   -7.4624   22.7434 H   0  0  0  0  0  0
  -21.0818   -8.8699   19.8940 H   0  0  0  0  0  0
  -22.3617  -10.9639   19.6153 H   0  0  0  0  0  0
  -21.2029   -7.6129   23.9697 H   0  0  0  0  0  0
  -21.1498   -6.0496   25.9047 H   0  0  0  0  0  0
  -22.0601   -2.7591   23.2790 H   0  0  0  0  0  0
  -22.4149  -11.9929   22.4838 H   0  0  0  0  0  0
  -21.1085  -13.1217   22.2560 H   0  0  0  0  0  0
  -24.6577  -15.8365   20.5344 H   0  0  0  0  0  0
  -26.2746  -15.6275   20.0851 H   0  0  0  0  0  0
  -26.7140  -32.5477   23.1093 H   0  0  0  0  0  0
  -25.0020  -33.9730   25.0390 H   0  0  0  0  0  0
  -22.7047  -31.3027   21.3923 H   0  0  0  0  0  0
  -23.3743  -35.9653   23.3310 H   0  0  0  0  0  0
  -24.3587  -36.8924   22.2055 H   0  0  0  0  0  0
  -23.7269  -37.6518   23.6665 H   0  0  0  0  0  0
  -26.0743  -31.5757   20.5969 H   0  0  0  0  0  0
  -26.8284  -30.8574   21.9910 H   0  0  0  0  0  0
  -28.1233  -29.0610   21.1362 H   0  0  0  0  0  0
  -26.0422  -25.9133   19.0531 H   0  0  0  0  0  0
  -23.9762  -27.2641   19.0612 H   0  0  0  0  0  0
  -23.7370  -30.5747   19.3949 H   0  0  0  0  0  0
  -22.7477  -29.2252   19.8668 H   0  0  0  0  0  0
  -25.1305  -36.1939   25.0816 H   0  0  0  0  0  0
  -20.9974  -28.3291   24.1396 H   0  0  0  0  0  0
  -20.5682  -26.2315   23.3613 H   0  0  0  0  0  0
  -21.6649  -26.7464   22.1201 H   0  0  0  0  0  0
  -19.6925  -25.6295   21.1247 H   0  0  0  0  0  0
  -19.6690  -27.3189   20.6732 H   0  0  0  0  0  0
  -17.4201  -26.6659   21.4033 H   0  0  0  0  0  0
  -18.0353  -26.0073   22.9027 H   0  0  0  0  0  0
  -19.7946  -30.7261   24.2264 H   0  0  0  0  0  0
  -17.5038  -31.6273   24.5173 H   0  0  0  0  0  0
  -15.5365  -30.3013   23.7647 H   0  0  0  0  0  0
  -15.8670  -28.0839   22.7065 H   0  0  0  0  0  0
  -24.5876  -30.7117   25.7781 H   0  0  0  0  0  0
  -24.8991  -32.2887   26.4941 H   0  0  0  0  0  0
  -25.8091  -30.8837   27.0178 H   0  0  0  0  0  0
  -26.2865  -29.6764   24.1204 H   0  0  0  0  0  0
  -27.4063  -29.7284   25.4626 H   0  0  0  0  0  0
  -27.8716  -30.4295   23.9301 H   0  0  0  0  0  0
  -27.2580  -33.3605   26.2100 H   0  0  0  0  0  0
  -28.3807  -32.6989   25.0308 H   0  0  0  0  0  0
  -28.0728  -31.8466   26.5371 H   0  0  0  0  0  0
  -28.2603  -38.0101   24.7495 H   0  0  0  0  0  0
  -28.1071  -36.2625   24.6308 H   0  0  0  0  0  0
  -27.2291  -37.1482   25.8867 H   0  0  0  0  0  0
  -20.9331  -29.8758   21.6867 H   0  0  0  0  0  0
  -26.0181  -38.2852   24.1385 H   0  0  0  0  0  0
  -32.0782  -17.3662   20.5764 H   0  0  0  0  0  0
  -34.0847  -18.9036   21.8835 H   0  0  0  0  0  0
  -35.3565  -18.8686   20.5552 H   0  0  0  0  0  0
  -34.9607  -21.2876   20.0997 H   0  0  0  0  0  0
  -33.6713  -21.3403   21.4190 H   0  0  0  0  0  0
  -33.6058  -19.5366   18.8674 H   0  0  0  0  0  0
  -28.3723  -16.7895   21.1496 H   0  0  0  0  0  0
  -29.7545  -16.4883   22.1720 H   0  0  0  0  0  0
  -29.1639  -24.4878   18.7815 H   0  0  0  0  0  0
  -27.7213  -23.6493   19.2076 H   0  0  0  0  0  0
  -29.1054  -25.2191   21.4093 H   0  0  0  0  0  0
  -27.4046  -25.0432   21.1381 H   0  0  0  0  0  0
  -30.0887  -23.1221   21.0355 H   0  0  0  0  0  0
  -30.3538  -22.7755   19.3572 H   0  0  0  0  0  0
  -30.1881  -16.0947   19.3775 H   0  0  0  0  0  0
  1 25  1  0  0  0
  1 30  2  0  0  0
  1 84  1  0  0  0
  2  3  1  0  0  0
  2 25  1  0  0  0
  2 86  1  0  0  0
  2 87  1  0  0  0
  3  4  1  0  0  0
  3 88  1  0  0  0
  3 89  1  0  0  0
  4  5  1  0  0  0
  4 90  1  0  0  0
  4 91  1  0  0  0
  5  6  1  0  0  0
  5 26  1  0  0  0
  5 92  1  0  0  0
  6 25  1  0  0  0
  6 93  1  0  0  0
  6 94  1  0  0  0
  7  8  2  0  0  0
  7 26  1  0  0  0
  7 29  1  0  0  0
  8  9  1  0  0  0
  8 22  1  0  0  0
  9 10  1  0  0  0
  9 27  2  0  0  0
 10 11  2  0  0  0
 10 15  1  0  0  0
 11 12  1  0  0  0
 11 95  1  0  0  0
 12 13  2  0  0  0
 12 96  1  0  0  0
 13 14  1  0  0  0
 13 31  1  0  0  0
 14 15  2  0  0  0
 14 97  1  0  0  0
 15 98  1  0  0  0
 16 17  2  0  0  0
 16 21  1  0  0  0
 16 31  1  0  0  0
 17 18  1  0  0  0
 17 99  1  0  0  0
 18 19  2  0  0  0
 18100  1  0  0  0
 19 20  1  0  0  0
 19 24  1  0  0  0
 20 21  2  0  0  0
 20101  1  0  0  0
 21 23  1  0  0  0
 22 28  1  0  0  0
 22 32  2  0  0  0
 26 27  1  0  0  0
 28102  1  0  0  0
 28103  1  0  0  0
 29104  1  0  0  0
 29105  1  0  0  0
 33 34  1  0  0  0
 33 66  1  0  0  0
 33 70  2  0  0  0
 34 36  1  0  0  0
 34 59  1  0  0  0
 34106  1  0  0  0
 35 44  2  0  0  0
 35 45  1  0  0  0
 35 68  1  0  0  0
 36 56  1  0  0  0
 36107  1  0  0  0
 37 39  1  0  0  0
 37 47  1  0  0  0
 37 66  1  0  0  0
 37108  1  0  0  0
 38 43  2  0  0  0
 38 46  1  0  0  0
 38 47  1  0  0  0
 39 64  1  0  0  0
 39 67  2  0  0  0
 40 52  1  0  0  0
 40 53  2  0  0  0
 40 58  1  0  0  0
 41109  1  0  0  0
 41110  1  0  0  0
 41111  1  0  0  0
 41 48  1  0  0  0
 42 43  1  0  0  0
 42 66  1  0  0  0
 42112  1  0  0  0
 42113  1  0  0  0
 43 44  1  0  0  0
 44114  1  0  0  0
 45 46  2  0  0  0
 45115  1  0  0  0
 46116  1  0  0  0
 47117  1  0  0  0
 47118  1  0  0  0
 48 56  1  0  0  0
 48 65  1  0  0  0
 48119  1  0  0  0
 49 50  1  0  0  0
 49 53  1  0  0  0
 49 64  1  0  0  0
 49120  1  0  0  0
 50 51  1  0  0  0
 50121  1  0  0  0
 50122  1  0  0  0
 51 52  1  0  0  0
 51123  1  0  0  0
 51124  1  0  0  0
 52125  1  0  0  0
 52126  1  0  0  0
 53 54  1  0  0  0
 54 55  2  0  0  0
 54127  1  0  0  0
 55 57  1  0  0  0
 55128  1  0  0  0
 56 69  2  0  0  0
 57 58  2  0  0  0
 57129  1  0  0  0
 58130  1  0  0  0
 59 60  1  0  0  0
 59 61  1  0  0  0
 59 62  1  0  0  0
 60131  1  0  0  0
 60132  1  0  0  0
 60133  1  0  0  0
 61134  1  0  0  0
 61135  1  0  0  0
 61136  1  0  0  0
 62137  1  0  0  0
 62138  1  0  0  0
 62139  1  0  0  0
 63 65  1  0  0  0
 63140  1  0  0  0
 63141  1  0  0  0
 63142  1  0  0  0
 64143  1  0  0  0
 65144  1  0  0  0
 68 80  1  0  0  0
 71 72  2  0  0  0
 71 73  1  0  0  0
 71145  1  0  0  0
 72 82  1  0  0  0
 72 77  1  0  0  0
 73 78  1  0  0  0
 73 83  2  0  0  0
 74 82  2  0  0  0
 74 83  1  0  0  0
 74 85  1  0  0  0
 75 76  1  0  0  0
 75 77  1  0  0  0
 75146  1  0  0  0
 75147  1  0  0  0
 76 77  1  0  0  0
 76148  1  0  0  0
 76149  1  0  0  0
 77150  1  0  0  0
 78 84  1  0  0  0
 78151  1  0  0  0
 78152  1  0  0  0
 79 80  1  0  0  0
 79 81  1  0  0  0
 79153  1  0  0  0
 79154  1  0  0  0
 80155  1  0  0  0
 80156  1  0  0  0
 81 85  1  0  0  0
 81157  1  0  0  0
 81158  1  0  0  0
 84159  1  0  0  0
M  ISO  4   1 100  68 101  80 101  84 100
M  END
> <chiral flag>
0

> <version>
0

> <s_m_source_file>
/data/baiqing/PycharmProjects/Reinvent-master-3.2/result/LINK_invent/BTK/process_docking_weight1_custom_sum_contain_oxygen_bond_distance_aromatic_linkinvent_7_9_3/rearranged_h_0120.sdf

> <i_m_source_file_index>
49

> <r_mmod_Potential_Energy-OPLS-2005>
-499.568481445312

> <r_mmod_Stretch_Energy-OPLS-2005>
58.4248275756836

> <r_mmod_Bend_Energy-OPLS-2005>
139.453231811523

> <r_mmod_Torsional_Energy-OPLS-2005>
325.947296142578

> <r_mmod_Improper_Torsional_Energy-OPLS-2005>
26.0646381378174

> <r_mmod_Van_der_Waal_Energy-OPLS-2005>
150.1865234375

> <r_mmod_Electrostatic_Energy-OPLS-2005>
-1011.43835449219

> <r_mmod_Solvation_Energy-OPLS-2005>
-221.207656860352

> <b_mmod_Minimization_Converged-OPLS-2005>
0

> <r_mmod_RMS_Derivative-OPLS-2005>
3.21997952461243

$$$$
49
                    3D
 Structure written by MMmdl.
162171  0  0  1  0            999 V2000
  -30.7290  -14.7757   20.4501 C   0  0  0  0  0  0
  -30.4301  -12.4693   19.5325 C   0  0  0  0  0  0
  -29.5351  -12.4946   18.2757 C   0  0  0  0  0  0
  -28.0601  -12.3222   18.6758 C   0  0  0  0  0  0
  -27.6486  -13.2537   19.8486 C   0  0  2  0  0  0
  -28.6902  -13.2895   20.9950 C   0  0  0  0  0  0
  -25.2535  -13.8267   20.5711 C   0  0  0  0  0  0
  -24.1835  -13.0408   20.9190 C   0  0  0  0  0  0
  -24.6481  -11.6950   20.8721 C   0  0  0  0  0  0
  -23.9127  -10.4301   21.0359 C   0  0  0  0  0  0
  -24.3659   -9.4218   21.9134 C   0  0  0  0  0  0
  -23.6306   -8.2267   22.0718 C   0  0  0  0  0  0
  -22.4282   -8.0291   21.3517 C   0  0  0  0  0  0
  -21.9937   -9.0272   20.4620 C   0  0  0  0  0  0
  -22.7303  -10.2139   20.3009 C   0  0  0  0  0  0
  -21.6896   -6.0717   22.5275 C   0  0  0  0  0  0
  -21.4026   -6.5605   23.8205 C   0  0  0  0  0  0
  -21.3623   -5.6754   24.9165 C   0  0  0  0  0  0
  -21.6057   -4.3022   24.7231 C   0  0  0  0  0  0
  -21.8829   -3.8106   23.4350 C   0  0  0  0  0  0
  -21.9212   -4.6931   22.3412 C   0  0  0  0  0  0
  -22.7856  -13.5182   21.1848 C   0  0  0  0  0  0
  -22.1680   -4.2100   21.1000 F   0  0  0  0  0  0
  -21.5612   -3.4504   25.7737 F   0  0  0  0  0  0
  -30.0062  -13.5921   20.4141 N   0  0  0  0  0  0
  -26.3022  -12.9527   20.3295 N   0  0  0  0  0  0
  -25.9457  -11.6655   20.5809 N   0  0  0  0  0  0
  -22.0554  -12.8129   22.0439 N   0  0  0  0  0  0
  -25.3991  -15.1996   20.4110 N   0  0  0  0  0  0
  -31.8950  -14.7293   20.0423 O   0  0  0  0  0  0
  -21.6654   -6.8876   21.4234 O   0  0  0  0  0  0
  -22.3508  -14.5462   20.6700 O   0  0  0  0  0  0
  -24.6300  -31.8496   23.1935 C   0  0  0  0  0  0
  -25.9122  -32.4734   23.8265 C   0  0  1  0  0  0
  -27.2165  -27.2485   20.1482 C   0  0  0  0  0  0
  -25.5876  -33.8532   24.2177 N   0  0  0  0  0  0
  -23.4286  -30.4683   21.5387 C   0  0  2  0  0  0
  -24.8708  -28.9108   20.1083 C   0  0  0  0  0  0
  -22.7490  -29.4501   22.4869 C   0  0  0  0  0  0
  -18.0236  -28.1364   22.8495 C   0  0  0  0  0  0
  -24.1506  -36.7359   23.2649 C   0  0  0  0  0  0
  -25.9683  -30.7670   21.3643 C   0  0  0  0  0  0
  -26.0398  -29.3848   20.7156 C   0  0  0  0  0  0
  -27.2129  -28.5676   20.7193 C   0  0  0  0  0  0
  -26.0228  -26.8226   19.5335 C   0  0  0  0  0  0
  -24.8668  -27.6353   19.5106 C   0  0  0  0  0  0
  -23.6495  -29.8136   20.1499 C   0  0  0  0  0  0
  -25.4122  -36.3090   24.0325 C   0  0  1  0  0  0
  -20.5876  -28.3594   23.1206 C   0  0  2  0  0  0
  -20.6655  -26.9285   22.5389 C   0  0  0  0  0  0
  -19.5639  -26.6318   21.5204 C   0  0  0  0  0  0
  -18.1808  -26.7892   22.1622 C   0  0  0  0  0  0
  -19.1524  -28.8789   23.2873 C   0  0  0  0  0  0
  -18.9598  -30.1379   23.8907 C   0  0  0  0  0  0
  -17.6678  -30.6639   24.0624 C   0  0  0  0  0  0
  -25.9033  -34.9454   23.5071 C   0  0  0  0  0  0
  -16.5503  -29.9218   23.6415 C   0  0  0  0  0  0
  -16.7261  -28.6587   23.0406 C   0  0  0  0  0  0
  -26.4481  -31.6561   25.0660 C   0  0  0  0  0  0
  -25.3717  -31.3776   26.1406 C   0  0  0  0  0  0
  -27.0338  -30.2978   24.6132 C   0  0  0  0  0  0
  -27.5986  -32.4310   25.7477 C   0  0  0  0  0  0
  -27.5582  -37.1836   24.8445 C   0  0  0  0  0  0
  -21.4190  -29.2986   22.3653 N   0  0  0  0  0  0
  -26.4311  -37.3779   23.9370 N   0  0  0  0  0  0
  -24.6944  -31.0467   22.0906 N   0  0  0  0  0  0
  -23.4184  -28.7958   23.2908 O   0  0  0  0  0  0
  -28.3394  -26.3964   20.2519 O   0  0  0  0  0  0
  -26.5643  -34.8931   22.4659 O   0  0  0  0  0  0
  -23.5465  -32.1274   23.7267 O   0  0  0  0  0  0
  -28.6933  -22.3729   20.0430 C   0  0  0  0  0  0
  -26.4628  -22.5297   21.5567 C   0  0  0  0  0  0
  -28.1816  -21.1003   20.5160 C   0  0  0  0  0  0
  -26.9704  -21.2407   21.2534 C   0  0  0  0  0  0
  -28.0717  -23.6562   20.3298 C   0  0  0  0  0  0
  -30.8603  -18.2153   22.1552 C   0  0  0  0  0  0
  -29.3422  -18.2952   22.3038 C   0  0  0  0  0  0
  -31.3205  -16.9839   21.3222 C   0  0  0  0  0  0
  -29.2303  -16.8992   20.1557 C   0  0  0  0  0  0
  -28.7196  -18.2579   20.8986 C   0  0  1  0  0  0
  -26.1360  -20.0547   21.6938 C   0  0  0  0  0  0
  -28.8590  -19.6904   20.1171 C   0  0  0  0  0  0
  -28.4827  -25.0318   19.6315 C   0  0  0  0  0  0
  -26.9839  -23.6951   21.1211 N   0  0  0  0  0  0
  -30.2433  -16.0218   20.8928 N   0  0  0  0  0  0
  -30.3310  -11.5177   20.0614 H   0  0  0  0  0  0
  -31.4778  -12.5235   19.2285 H   0  0  0  0  0  0
  -29.8376  -11.7042   17.5876 H   0  0  0  0  0  0
  -29.6865  -13.4413   17.7614 H   0  0  0  0  0  0
  -27.9200  -11.2818   18.9622 H   0  0  0  0  0  0
  -27.4171  -12.4856   17.8097 H   0  0  0  0  0  0
  -27.6143  -14.2520   19.4131 H   0  0  0  0  0  0
  -28.7202  -12.3429   21.5358 H   0  0  0  0  0  0
  -28.4214  -14.0578   21.7209 H   0  0  0  0  0  0
  -25.2810   -9.5670   22.4710 H   0  0  0  0  0  0
  -23.9982   -7.4645   22.7443 H   0  0  0  0  0  0
  -21.0853   -8.8833   19.8937 H   0  0  0  0  0  0
  -22.3768  -10.9671   19.6104 H   0  0  0  0  0  0
  -21.2025   -7.6119   23.9682 H   0  0  0  0  0  0
  -21.1427   -6.0502   25.9057 H   0  0  0  0  0  0
  -22.0637   -2.7566   23.2917 H   0  0  0  0  0  0
  -22.4181  -11.9798   22.4832 H   0  0  0  0  0  0
  -21.1146  -13.1119   22.2568 H   0  0  0  0  0  0
  -24.5916  -15.8064   20.4780 H   0  0  0  0  0  0
  -26.2085  -15.6564   20.0103 H   0  0  0  0  0  0
  -26.7189  -32.5373   23.1013 H   0  0  0  0  0  0
  -25.0042  -33.9629   25.0346 H   0  0  0  0  0  0
  -22.7225  -31.2901   21.4014 H   0  0  0  0  0  0
  -23.3737  -35.9732   23.3314 H   0  0  0  0  0  0
  -24.3652  -36.8990   22.2071 H   0  0  0  0  0  0
  -23.7299  -37.6579   23.6679 H   0  0  0  0  0  0
  -26.0954  -31.5253   20.5901 H   0  0  0  0  0  0
  -26.8541  -30.8227   21.9901 H   0  0  0  0  0  0
  -28.1106  -28.9278   21.2016 H   0  0  0  0  0  0
  -25.9513  -25.8315   19.1093 H   0  0  0  0  0  0
  -23.9636  -27.2544   19.0546 H   0  0  0  0  0  0
  -23.7944  -30.6114   19.4170 H   0  0  0  0  0  0
  -22.7559  -29.2780   19.8169 H   0  0  0  0  0  0
  -25.1315  -36.1986   25.0826 H   0  0  0  0  0  0
  -20.9963  -28.3159   24.1327 H   0  0  0  0  0  0
  -21.6465  -26.7062   22.1231 H   0  0  0  0  0  0
  -20.5352  -26.2228   23.3616 H   0  0  0  0  0  0
  -19.6772  -25.6228   21.1181 H   0  0  0  0  0  0
  -19.6608  -27.3233   20.6842 H   0  0  0  0  0  0
  -17.4052  -26.6676   21.4057 H   0  0  0  0  0  0
  -18.0197  -26.0027   22.8976 H   0  0  0  0  0  0
  -19.8192  -30.7041   24.2225 H   0  0  0  0  0  0
  -17.5387  -31.6360   24.5235 H   0  0  0  0  0  0
  -15.5559  -30.3242   23.7795 H   0  0  0  0  0  0
  -15.8584  -28.0987   22.7211 H   0  0  0  0  0  0
  -24.5846  -30.7135   25.7799 H   0  0  0  0  0  0
  -24.8939  -32.2965   26.4783 H   0  0  0  0  0  0
  -25.8024  -30.9003   27.0215 H   0  0  0  0  0  0
  -26.2899  -29.6724   24.1169 H   0  0  0  0  0  0
  -27.4056  -29.7225   25.4632 H   0  0  0  0  0  0
  -27.8759  -30.4273   23.9334 H   0  0  0  0  0  0
  -27.2513  -33.3602   26.2038 H   0  0  0  0  0  0
  -28.3828  -32.6890   25.0339 H   0  0  0  0  0  0
  -28.0625  -31.8446   26.5426 H   0  0  0  0  0  0
  -28.2601  -38.0126   24.7452 H   0  0  0  0  0  0
  -28.1051  -36.2640   24.6307 H   0  0  0  0  0  0
  -27.2291  -37.1559   25.8847 H   0  0  0  0  0  0
  -20.9321  -29.8923   21.7040 H   0  0  0  0  0  0
  -26.0217  -38.2898   24.1267 H   0  0  0  0  0  0
  -29.5535  -22.3689   19.3878 H   0  0  0  0  0  0
  -25.5648  -22.6425   22.1449 H   0  0  0  0  0  0
  -31.3561  -18.2381   23.1263 H   0  0  0  0  0  0
  -31.1986  -19.1385   21.6734 H   0  0  0  0  0  0
  -29.0445  -19.1876   22.8562 H   0  0  0  0  0  0
  -28.9964  -17.4474   22.9010 H   0  0  0  0  0  0
  -31.8198  -17.3510   20.4180 H   0  0  0  0  0  0
  -32.1174  -16.4927   21.8917 H   0  0  0  0  0  0
  -29.6514  -17.1621   19.1799 H   0  0  0  0  0  0
  -28.3576  -16.2933   19.9100 H   0  0  0  0  0  0
  -27.6544  -18.0642   21.0298 H   0  0  0  0  0  0
  -25.9583  -19.3940   20.8464 H   0  0  0  0  0  0
  -25.1511  -20.3587   22.0513 H   0  0  0  0  0  0
  -26.6414  -19.5145   22.5003 H   0  0  0  0  0  0
  -29.9249  -19.8986   20.0625 H   0  0  0  0  0  0
  -28.5697  -19.5016   19.0826 H   0  0  0  0  0  0
  -29.5550  -24.9325   19.4500 H   0  0  0  0  0  0
  -28.0383  -25.0451   18.6397 H   0  0  0  0  0  0
  1 25  1  0  0  0
  1 30  2  0  0  0
  1 85  1  0  0  0
  2  3  1  0  0  0
  2 25  1  0  0  0
  2 86  1  0  0  0
  2 87  1  0  0  0
  3  4  1  0  0  0
  3 88  1  0  0  0
  3 89  1  0  0  0
  4  5  1  0  0  0
  4 90  1  0  0  0
  4 91  1  0  0  0
  5  6  1  0  0  0
  5 26  1  0  0  0
  5 92  1  0  0  0
  6 25  1  0  0  0
  6 93  1  0  0  0
  6 94  1  0  0  0
  7  8  2  0  0  0
  7 26  1  0  0  0
  7 29  1  0  0  0
  8  9  1  0  0  0
  8 22  1  0  0  0
  9 10  1  0  0  0
  9 27  2  0  0  0
 10 11  2  0  0  0
 10 15  1  0  0  0
 11 12  1  0  0  0
 11 95  1  0  0  0
 12 13  2  0  0  0
 12 96  1  0  0  0
 13 14  1  0  0  0
 13 31  1  0  0  0
 14 15  2  0  0  0
 14 97  1  0  0  0
 15 98  1  0  0  0
 16 17  2  0  0  0
 16 21  1  0  0  0
 16 31  1  0  0  0
 17 18  1  0  0  0
 17 99  1  0  0  0
 18 19  2  0  0  0
 18100  1  0  0  0
 19 20  1  0  0  0
 19 24  1  0  0  0
 20 21  2  0  0  0
 20101  1  0  0  0
 21 23  1  0  0  0
 22 28  1  0  0  0
 22 32  2  0  0  0
 26 27  1  0  0  0
 28102  1  0  0  0
 28103  1  0  0  0
 29104  1  0  0  0
 29105  1  0  0  0
 33 34  1  0  0  0
 33 66  1  0  0  0
 33 70  2  0  0  0
 34 36  1  0  0  0
 34 59  1  0  0  0
 34106  1  0  0  0
 35 44  2  0  0  0
 35 45  1  0  0  0
 35 68  1  0  0  0
 36 56  1  0  0  0
 36107  1  0  0  0
 37 39  1  0  0  0
 37 47  1  0  0  0
 37 66  1  0  0  0
 37108  1  0  0  0
 38 43  2  0  0  0
 38 46  1  0  0  0
 38 47  1  0  0  0
 39 64  1  0  0  0
 39 67  2  0  0  0
 40 52  1  0  0  0
 40 53  2  0  0  0
 40 58  1  0  0  0
 41109  1  0  0  0
 41110  1  0  0  0
 41111  1  0  0  0
 41 48  1  0  0  0
 42 43  1  0  0  0
 42 66  1  0  0  0
 42112  1  0  0  0
 42113  1  0  0  0
 43 44  1  0  0  0
 44114  1  0  0  0
 45 46  2  0  0  0
 45115  1  0  0  0
 46116  1  0  0  0
 47117  1  0  0  0
 47118  1  0  0  0
 48 56  1  0  0  0
 48 65  1  0  0  0
 48119  1  0  0  0
 49 50  1  0  0  0
 49 53  1  0  0  0
 49 64  1  0  0  0
 49120  1  0  0  0
 50 51  1  0  0  0
 50121  1  0  0  0
 50122  1  0  0  0
 51 52  1  0  0  0
 51123  1  0  0  0
 51124  1  0  0  0
 52125  1  0  0  0
 52126  1  0  0  0
 53 54  1  0  0  0
 54 55  2  0  0  0
 54127  1  0  0  0
 55 57  1  0  0  0
 55128  1  0  0  0
 56 69  2  0  0  0
 57 58  2  0  0  0
 57129  1  0  0  0
 58130  1  0  0  0
 59 60  1  0  0  0
 59 61  1  0  0  0
 59 62  1  0  0  0
 60131  1  0  0  0
 60132  1  0  0  0
 60133  1  0  0  0
 61134  1  0  0  0
 61135  1  0  0  0
 61136  1  0  0  0
 62137  1  0  0  0
 62138  1  0  0  0
 62139  1  0  0  0
 63 65  1  0  0  0
 63140  1  0  0  0
 63141  1  0  0  0
 63142  1  0  0  0
 64143  1  0  0  0
 65144  1  0  0  0
 68 83  1  0  0  0
 71 73  2  0  0  0
 71 75  1  0  0  0
 71145  1  0  0  0
 72 74  2  0  0  0
 72 84  1  0  0  0
 72146  1  0  0  0
 73 74  1  0  0  0
 73 82  1  0  0  0
 74 81  1  0  0  0
 75 83  1  0  0  0
 75 84  2  0  0  0
 76 77  1  0  0  0
 76 78  1  0  0  0
 76147  1  0  0  0
 76148  1  0  0  0
 77 80  1  0  0  0
 77149  1  0  0  0
 77150  1  0  0  0
 78 85  1  0  0  0
 78151  1  0  0  0
 78152  1  0  0  0
 79 80  1  0  0  0
 79 85  1  0  0  0
 79153  1  0  0  0
 79154  1  0  0  0
 80 82  1  0  0  0
 80155  1  0  0  0
 81156  1  0  0  0
 81157  1  0  0  0
 81158  1  0  0  0
 82159  1  0  0  0
 82160  1  0  0  0
 83161  1  0  0  0
 83162  1  0  0  0
M  ISO  4   1 100  68 101  83 101  85 100
M  END
> <chiral flag>
0

> <version>
0

> <s_m_source_file>
/data/baiqing/PycharmProjects/Reinvent-master-3.2/result/LINK_invent/BTK/process_docking_weight1_custom_sum_contain_oxygen_bond_distance_aromatic_linkinvent_7_9_3/rearranged_h_0120.sdf

> <i_m_source_file_index>
50

> <r_mmod_Potential_Energy-OPLS-2005>
373.695831298828

> <r_mmod_Stretch_Energy-OPLS-2005>
146.75358581543

> <r_mmod_Bend_Energy-OPLS-2005>
236.859115600586

> <r_mmod_Torsional_Energy-OPLS-2005>
332.625274658203

> <r_mmod_Improper_Torsional_Energy-OPLS-2005>
7.94921350479126

> <r_mmod_Van_der_Waal_Energy-OPLS-2005>
149.629272460938

> <r_mmod_Electrostatic_Energy-OPLS-2005>
-385.749847412109

> <r_mmod_Solvation_Energy-OPLS-2005>
-216.573867797852

> <b_mmod_Minimization_Converged-OPLS-2005>
0

> <r_mmod_RMS_Derivative-OPLS-2005>
8.58605480194092

$$$$
50
                    3D
 Structure written by MMmdl.
172180  0  0  1  0            999 V2000
  -30.7697  -14.4056   20.5592 C   0  0  0  0  0  0
  -30.4035  -12.2668   19.4209 C   0  0  0  0  0  0
  -29.4868  -12.4945   18.2030 C   0  0  0  0  0  0
  -28.0074  -12.3793   18.6133 C   0  0  0  0  0  0
  -27.6623  -13.2135   19.8743 C   0  0  2  0  0  0
  -28.7111  -12.9989   20.9946 C   0  0  0  0  0  0
  -25.2583  -13.8195   20.5707 C   0  0  0  0  0  0
  -24.1833  -13.0440   20.9177 C   0  0  0  0  0  0
  -24.6395  -11.6915   20.8732 C   0  0  0  0  0  0
  -23.9048  -10.4295   21.0395 C   0  0  0  0  0  0
  -24.3604   -9.4209   21.9169 C   0  0  0  0  0  0
  -23.6286   -8.2243   22.0744 C   0  0  0  0  0  0
  -22.4263   -8.0276   21.3537 C   0  0  0  0  0  0
  -21.9891   -9.0240   20.4640 C   0  0  0  0  0  0
  -22.7218  -10.2131   20.3043 C   0  0  0  0  0  0
  -21.6849   -6.0729   22.5278 C   0  0  0  0  0  0
  -21.4012   -6.5636   23.8207 C   0  0  0  0  0  0
  -21.3656   -5.6789   24.9171 C   0  0  0  0  0  0
  -21.6042   -4.3055   24.7232 C   0  0  0  0  0  0
  -21.8815   -3.8140   23.4353 C   0  0  0  0  0  0
  -21.9192   -4.6951   22.3403 C   0  0  0  0  0  0
  -22.7864  -13.5239   21.1836 C   0  0  0  0  0  0
  -22.1661   -4.2140   21.0981 F   0  0  0  0  0  0
  -21.5631   -3.4531   25.7742 F   0  0  0  0  0  0
  -30.0465  -13.2636   20.4352 N   0  0  0  0  0  0
  -26.3037  -12.9369   20.3417 N   0  0  0  0  0  0
  -25.9330  -11.6519   20.5791 N   0  0  0  0  0  0
  -22.0486  -12.8229   22.0401 N   0  0  0  0  0  0
  -25.4284  -15.1890   20.4080 N   0  0  0  0  0  0
  -31.9020  -14.5378   20.0895 O   0  0  0  0  0  0
  -21.6628   -6.8875   21.4242 O   0  0  0  0  0  0
  -22.3552  -14.5537   20.6691 O   0  0  0  0  0  0
  -24.6127  -31.8701   23.2117 C   0  0  0  0  0  0
  -25.9030  -32.4836   23.8404 C   0  0  1  0  0  0
  -27.2329  -27.4607   20.0834 C   0  0  0  0  0  0
  -25.5890  -33.8634   24.2333 N   0  0  0  0  0  0
  -23.3980  -30.4945   21.5528 C   0  0  2  0  0  0
  -24.8429  -28.9650   20.1153 C   0  0  0  0  0  0
  -22.7397  -29.4675   22.5006 C   0  0  0  0  0  0
  -18.0266  -28.1374   22.8492 C   0  0  0  0  0  0
  -24.1487  -36.7320   23.2638 C   0  0  0  0  0  0
  -25.9251  -30.8434   21.3612 C   0  0  0  0  0  0
  -26.0038  -29.4808   20.7061 C   0  0  0  0  0  0
  -27.2022  -28.7359   20.6840 C   0  0  0  0  0  0
  -26.0544  -26.9534   19.4888 C   0  0  0  0  0  0
  -24.8624  -27.6982   19.5053 C   0  0  0  0  0  0
  -23.6043  -29.8276   20.1667 C   0  0  0  0  0  0
  -25.4108  -36.3119   24.0338 C   0  0  1  0  0  0
  -20.5856  -28.3659   23.1327 C   0  0  2  0  0  0
  -20.6759  -26.9400   22.5421 C   0  0  0  0  0  0
  -19.5735  -26.6386   21.5214 C   0  0  0  0  0  0
  -18.1913  -26.7924   22.1627 C   0  0  0  0  0  0
  -19.1515  -28.8830   23.2908 C   0  0  0  0  0  0
  -18.9447  -30.1437   23.8914 C   0  0  0  0  0  0
  -17.6449  -30.6582   24.0566 C   0  0  0  0  0  0
  -25.9036  -34.9481   23.5138 C   0  0  0  0  0  0
  -16.5341  -29.9083   23.6322 C   0  0  0  0  0  0
  -16.7258  -28.6501   23.0347 C   0  0  0  0  0  0
  -26.4464  -31.6605   25.0722 C   0  0  0  0  0  0
  -25.3738  -31.3702   26.1475 C   0  0  0  0  0  0
  -27.0294  -30.3053   24.6080 C   0  0  0  0  0  0
  -27.6046  -32.4319   25.7483 C   0  0  0  0  0  0
  -27.5582  -37.1815   24.8465 C   0  0  0  0  0  0
  -21.4125  -29.3029   22.3740 N   0  0  0  0  0  0
  -26.4294  -37.3797   23.9409 N   0  0  0  0  0  0
  -24.6640  -31.0825   22.1011 N   0  0  0  0  0  0
  -23.4181  -28.8207   23.3037 O   0  0  0  0  0  0
  -28.4097  -26.7455   20.0776 O   0  0  0  0  0  0
  -26.5591  -34.8929   22.4696 O   0  0  0  0  0  0
  -23.5328  -32.1437   23.7525 O   0  0  0  0  0  0
  -32.3649  -20.8381   17.8733 C   0  0  0  0  0  0
  -30.6041  -22.0281   19.1817 C   0  0  0  0  0  0
  -32.2614  -21.9319   16.7812 C   0  0  0  0  0  0
  -31.0180  -20.6591   18.6068 C   0  0  2  0  0  0
  -30.4437  -23.0701   18.0521 C   0  0  1  0  0  0
  -29.2436  -25.0641   21.5876 C   0  0  0  0  0  0
  -29.7911  -17.9958   21.1660 C   0  0  0  0  0  0
  -28.5479  -24.4545   19.1659 C   0  0  0  0  0  0
  -30.6892  -16.8188   20.7495 C   0  0  0  0  0  0
  -29.7318  -19.1222   20.1081 C   0  0  0  0  0  0
  -29.9823  -24.4560   18.5666 C   0  0  2  0  0  0
  -28.3115  -25.3556   20.3998 C   0  0  2  0  0  0
  -30.1318  -15.4864   21.0233 N   0  0  0  0  0  0
  -31.7273  -23.2092   17.3187 N   0  3  0  0  0  0
  -31.0651  -19.6028   19.6532 N   0  3  0  0  0  0
  -30.0248  -25.3556   17.4654 O   0  0  0  0  0  0
  -30.2699  -11.2641   19.8281 H   0  0  0  0  0  0
  -31.4521  -12.3188   19.1219 H   0  0  0  0  0  0
  -29.7214  -11.7756   17.4184 H   0  0  0  0  0  0
  -29.6733  -13.4821   17.7782 H   0  0  0  0  0  0
  -27.8056  -11.3249   18.8068 H   0  0  0  0  0  0
  -27.3643  -12.6691   17.7842 H   0  0  0  0  0  0
  -27.7029  -14.2613   19.5789 H   0  0  0  0  0  0
  -28.6762  -11.9683   21.3461 H   0  0  0  0  0  0
  -28.5023  -13.6196   21.8654 H   0  0  0  0  0  0
  -25.2739   -9.5695   22.4758 H   0  0  0  0  0  0
  -23.9982   -7.4640   22.7462 H   0  0  0  0  0  0
  -21.0825   -8.8748   19.8967 H   0  0  0  0  0  0
  -22.3640  -10.9663   19.6163 H   0  0  0  0  0  0
  -21.2004   -7.6136   23.9715 H   0  0  0  0  0  0
  -21.1484   -6.0515   25.9077 H   0  0  0  0  0  0
  -22.0602   -2.7600   23.2849 H   0  0  0  0  0  0
  -22.4081  -11.9888   22.4806 H   0  0  0  0  0  0
  -21.1099  -13.1296   22.2602 H   0  0  0  0  0  0
  -24.6634  -15.8463   20.5095 H   0  0  0  0  0  0
  -26.2798  -15.6210   20.0734 H   0  0  0  0  0  0
  -26.7102  -32.5553   23.1175 H   0  0  0  0  0  0
  -25.0050  -33.9798   25.0482 H   0  0  0  0  0  0
  -22.6862  -31.3106   21.4161 H   0  0  0  0  0  0
  -23.3743  -35.9661   23.3315 H   0  0  0  0  0  0
  -24.3581  -36.8919   22.2049 H   0  0  0  0  0  0
  -23.7245  -37.6535   23.6641 H   0  0  0  0  0  0
  -26.0352  -31.6112   20.5941 H   0  0  0  0  0  0
  -26.8142  -30.8944   21.9775 H   0  0  0  0  0  0
  -28.1001  -29.1322   21.1378 H   0  0  0  0  0  0
  -26.0466  -25.9884   19.0059 H   0  0  0  0  0  0
  -23.9689  -27.2965   19.0452 H   0  0  0  0  0  0
  -23.7096  -30.6029   19.4071 H   0  0  0  0  0  0
  -22.7282  -29.2460   19.8735 H   0  0  0  0  0  0
  -25.1284  -36.1992   25.0829 H   0  0  0  0  0  0
  -20.9945  -28.3219   24.1446 H   0  0  0  0  0  0
  -20.5661  -26.2264   23.3602 H   0  0  0  0  0  0
  -21.6634  -26.7444   22.1212 H   0  0  0  0  0  0
  -19.6904  -25.6298   21.1228 H   0  0  0  0  0  0
  -19.6681  -27.3207   20.6750 H   0  0  0  0  0  0
  -17.4190  -26.6669   21.4027 H   0  0  0  0  0  0
  -18.0322  -26.0058   22.9015 H   0  0  0  0  0  0
  -19.7926  -30.7250   24.2295 H   0  0  0  0  0  0
  -17.5008  -31.6268   24.5164 H   0  0  0  0  0  0
  -15.5343  -30.2998   23.7638 H   0  0  0  0  0  0
  -15.8658  -28.0831   22.7052 H   0  0  0  0  0  0
  -24.5906  -30.7056   25.7811 H   0  0  0  0  0  0
  -24.8934  -32.2856   26.4942 H   0  0  0  0  0  0
  -25.8095  -30.8856   27.0222 H   0  0  0  0  0  0
  -26.2833  -29.6820   24.1135 H   0  0  0  0  0  0
  -27.4078  -29.7280   25.4527 H   0  0  0  0  0  0
  -27.8660  -30.4382   23.9214 H   0  0  0  0  0  0
  -27.2668  -33.3604   26.2097 H   0  0  0  0  0  0
  -28.3835  -32.6904   25.0297 H   0  0  0  0  0  0
  -28.0737  -31.8421   26.5369 H   0  0  0  0  0  0
  -28.2608  -38.0104   24.7509 H   0  0  0  0  0  0
  -28.1068  -36.2639   24.6297 H   0  0  0  0  0  0
  -27.2299  -37.1473   25.8866 H   0  0  0  0  0  0
  -20.9280  -29.8763   21.6978 H   0  0  0  0  0  0
  -26.0191  -38.2881   24.1399 H   0  0  0  0  0  0
  -33.1510  -21.1062   18.5810 H   0  0  0  0  0  0
  -32.6795  -19.9004   17.4121 H   0  0  0  0  0  0
  -31.3462  -22.3711   19.9026 H   0  0  0  0  0  0
  -29.6807  -21.9234   19.7354 H   0  0  0  0  0  0
  -31.6123  -21.5879   15.9732 H   0  0  0  0  0  0
  -33.2435  -22.1152   16.3370 H   0  0  0  0  0  0
  -30.2810  -20.3415   17.8649 H   0  0  0  0  0  0
  -29.6996  -22.7026   17.3410 H   0  0  0  0  0  0
  -29.2447  -24.0021   21.8423 H   0  0  0  0  0  0
  -28.9127  -25.6074   22.4745 H   0  0  0  0  0  0
  -30.2730  -25.3679   21.3962 H   0  0  0  0  0  0
  -30.1296  -18.4015   22.1223 H   0  0  0  0  0  0
  -28.7725  -17.6496   21.3397 H   0  0  0  0  0  0
  -27.8131  -24.6740   18.3915 H   0  0  0  0  0  0
  -28.2731  -23.4506   19.4817 H   0  0  0  0  0  0
  -31.6664  -16.9134   21.2290 H   0  0  0  0  0  0
  -30.8912  -16.8787   19.6778 H   0  0  0  0  0  0
  -29.1519  -19.9504   20.5209 H   0  0  0  0  0  0
  -29.1737  -18.7635   19.2427 H   0  0  0  0  0  0
  -30.7057  -24.8003   19.3078 H   0  0  0  0  0  0
  -27.3150  -25.1160   20.7754 H   0  0  0  0  0  0
  -29.1833  -15.3935   21.3576 H   0  0  0  0  0  0
  -31.5564  -23.8621   16.5655 H   0  0  0  0  0  0
  -32.4122  -23.6443   17.9186 H   0  0  0  0  0  0
  -31.6085  -19.9223   20.4386 H   0  0  0  0  0  0
  -31.5539  -18.8133   19.2570 H   0  0  0  0  0  0
  -29.1601  -25.7466   17.3694 H   0  0  0  0  0  0
  1 25  1  0  0  0
  1 30  2  0  0  0
  1 83  1  0  0  0
  2  3  1  0  0  0
  2 25  1  0  0  0
  2 87  1  0  0  0
  2 88  1  0  0  0
  3  4  1  0  0  0
  3 89  1  0  0  0
  3 90  1  0  0  0
  4  5  1  0  0  0
  4 91  1  0  0  0
  4 92  1  0  0  0
  5  6  1  0  0  0
  5 26  1  0  0  0
  5 93  1  0  0  0
  6 25  1  0  0  0
  6 94  1  0  0  0
  6 95  1  0  0  0
  7  8  2  0  0  0
  7 26  1  0  0  0
  7 29  1  0  0  0
  8  9  1  0  0  0
  8 22  1  0  0  0
  9 10  1  0  0  0
  9 27  2  0  0  0
 10 11  2  0  0  0
 10 15  1  0  0  0
 11 12  1  0  0  0
 11 96  1  0  0  0
 12 13  2  0  0  0
 12 97  1  0  0  0
 13 14  1  0  0  0
 13 31  1  0  0  0
 14 15  2  0  0  0
 14 98  1  0  0  0
 15 99  1  0  0  0
 16 17  2  0  0  0
 16 21  1  0  0  0
 16 31  1  0  0  0
 17 18  1  0  0  0
 17100  1  0  0  0
 18 19  2  0  0  0
 18101  1  0  0  0
 19 20  1  0  0  0
 19 24  1  0  0  0
 20 21  2  0  0  0
 20102  1  0  0  0
 21 23  1  0  0  0
 22 28  1  0  0  0
 22 32  2  0  0  0
 26 27  1  0  0  0
 28103  1  0  0  0
 28104  1  0  0  0
 29105  1  0  0  0
 29106  1  0  0  0
 33 34  1  0  0  0
 33 66  1  0  0  0
 33 70  2  0  0  0
 34 36  1  0  0  0
 34 59  1  0  0  0
 34107  1  0  0  0
 35 44  2  0  0  0
 35 45  1  0  0  0
 35 68  1  0  0  0
 36 56  1  0  0  0
 36108  1  0  0  0
 37 39  1  0  0  0
 37 47  1  0  0  0
 37 66  1  0  0  0
 37109  1  0  0  0
 38 43  2  0  0  0
 38 46  1  0  0  0
 38 47  1  0  0  0
 39 64  1  0  0  0
 39 67  2  0  0  0
 40 52  1  0  0  0
 40 53  2  0  0  0
 40 58  1  0  0  0
 41110  1  0  0  0
 41111  1  0  0  0
 41112  1  0  0  0
 41 48  1  0  0  0
 42 43  1  0  0  0
 42 66  1  0  0  0
 42113  1  0  0  0
 42114  1  0  0  0
 43 44  1  0  0  0
 44115  1  0  0  0
 45 46  2  0  0  0
 45116  1  0  0  0
 46117  1  0  0  0
 47118  1  0  0  0
 47119  1  0  0  0
 48 56  1  0  0  0
 48 65  1  0  0  0
 48120  1  0  0  0
 49 50  1  0  0  0
 49 53  1  0  0  0
 49 64  1  0  0  0
 49121  1  0  0  0
 50 51  1  0  0  0
 50122  1  0  0  0
 50123  1  0  0  0
 51 52  1  0  0  0
 51124  1  0  0  0
 51125  1  0  0  0
 52126  1  0  0  0
 52127  1  0  0  0
 53 54  1  0  0  0
 54 55  2  0  0  0
 54128  1  0  0  0
 55 57  1  0  0  0
 55129  1  0  0  0
 56 69  2  0  0  0
 57 58  2  0  0  0
 57130  1  0  0  0
 58131  1  0  0  0
 59 60  1  0  0  0
 59 61  1  0  0  0
 59 62  1  0  0  0
 60132  1  0  0  0
 60133  1  0  0  0
 60134  1  0  0  0
 61135  1  0  0  0
 61136  1  0  0  0
 61137  1  0  0  0
 62138  1  0  0  0
 62139  1  0  0  0
 62140  1  0  0  0
 63 65  1  0  0  0
 63141  1  0  0  0
 63142  1  0  0  0
 63143  1  0  0  0
 64144  1  0  0  0
 65145  1  0  0  0
 68 82  1  0  0  0
 71 73  1  0  0  0
 71 74  1  0  0  0
 71146  1  0  0  0
 71147  1  0  0  0
 72 74  1  0  0  0
 72148  1  0  0  0
 72149  1  0  0  0
 72 75  1  0  0  0
 73 84  1  0  0  0
 73150  1  0  0  0
 73151  1  0  0  0
 74 85  1  0  0  0
 74152  1  0  0  0
 75 81  1  0  0  0
 75 84  1  0  0  0
 75153  1  0  0  0
 76154  1  0  0  0
 76155  1  0  0  0
 76156  1  0  0  0
 76 82  1  0  0  0
 77 79  1  0  0  0
 77 80  1  0  0  0
 77157  1  0  0  0
 77158  1  0  0  0
 78 81  1  0  0  0
 78 82  1  0  0  0
 78159  1  0  0  0
 78160  1  0  0  0
 79 83  1  0  0  0
 79161  1  0  0  0
 79162  1  0  0  0
 80 85  1  0  0  0
 80163  1  0  0  0
 80164  1  0  0  0
 81 86  1  0  0  0
 81165  1  0  0  0
 82166  1  0  0  0
 83167  1  0  0  0
 84168  1  0  0  0
 84169  1  0  0  0
 85170  1  0  0  0
 85171  1  0  0  0
 86172  1  0  0  0
M  CHG  2  84   1  85   1
M  ISO  4   1 100  68 101  82 101  83 100
M  END
> <chiral flag>
0

> <version>
0

> <s_m_source_file>
/data/baiqing/PycharmProjects/Reinvent-master-3.2/result/LINK_invent/BTK/process_docking_weight1_custom_sum_contain_oxygen_bond_distance_aromatic_linkinvent_7_9_3/rearranged_h_0120.sdf

> <i_m_source_file_index>
51

> <r_mmod_Potential_Energy-OPLS-2005>
-379.850616455078

> <r_mmod_Stretch_Energy-OPLS-2005>
34.7409744262695

> <r_mmod_Bend_Energy-OPLS-2005>
103.58309173584

> <r_mmod_Torsional_Energy-OPLS-2005>
290.885375976562

> <r_mmod_Improper_Torsional_Energy-OPLS-2005>
5.22602128982544

> <r_mmod_Van_der_Waal_Energy-OPLS-2005>
151.90559387207

> <r_mmod_Electrostatic_Energy-OPLS-2005>
34.433277130127

> <r_mmod_Solvation_Energy-OPLS-2005>
-1013.05999755859

> <b_mmod_Minimization_Converged-OPLS-2005>
0

> <r_mmod_RMS_Derivative-OPLS-2005>
4.59720659255981

$$$$
51
                    3D
 Structure written by MMmdl.
157165  0  0  1  0            999 V2000
  -30.6798  -14.6408   20.4960 C   0  0  0  0  0  0
  -30.4238  -12.3970   19.4575 C   0  0  0  0  0  0
  -29.4994  -12.4929   18.2259 C   0  0  0  0  0  0
  -28.0262  -12.3330   18.6444 C   0  0  0  0  0  0
  -27.6472  -13.2244   19.8567 C   0  0  2  0  0  0
  -28.6954  -13.1291   20.9879 C   0  0  0  0  0  0
  -25.2530  -13.8187   20.5688 C   0  0  0  0  0  0
  -24.1813  -13.0440   20.9208 C   0  0  0  0  0  0
  -24.6394  -11.6912   20.8753 C   0  0  0  0  0  0
  -23.9067  -10.4291   21.0412 C   0  0  0  0  0  0
  -24.3616   -9.4208   21.9188 C   0  0  0  0  0  0
  -23.6292   -8.2241   22.0756 C   0  0  0  0  0  0
  -22.4274   -8.0279   21.3546 C   0  0  0  0  0  0
  -21.9910   -9.0254   20.4643 C   0  0  0  0  0  0
  -22.7241  -10.2133   20.3053 C   0  0  0  0  0  0
  -21.6855   -6.0733   22.5278 C   0  0  0  0  0  0
  -21.4011   -6.5641   23.8210 C   0  0  0  0  0  0
  -21.3658   -5.6796   24.9178 C   0  0  0  0  0  0
  -21.6043   -4.3059   24.7231 C   0  0  0  0  0  0
  -21.8819   -3.8146   23.4351 C   0  0  0  0  0  0
  -21.9194   -4.6958   22.3405 C   0  0  0  0  0  0
  -22.7836  -13.5225   21.1866 C   0  0  0  0  0  0
  -22.1662   -4.2144   21.0983 F   0  0  0  0  0  0
  -21.5632   -3.4542   25.7745 F   0  0  0  0  0  0
  -30.0063  -13.4497   20.4061 N   0  0  0  0  0  0
  -26.2961  -12.9382   20.3319 N   0  0  0  0  0  0
  -25.9328  -11.6530   20.5784 N   0  0  0  0  0  0
  -22.0489  -12.8203   22.0418 N   0  0  0  0  0  0
  -25.4239  -15.1910   20.4087 N   0  0  0  0  0  0
  -31.8579  -14.7281   20.1442 O   0  0  0  0  0  0
  -21.6642   -6.8872   21.4238 O   0  0  0  0  0  0
  -22.3515  -14.5538   20.6735 O   0  0  0  0  0  0
  -24.6288  -31.8606   23.2061 C   0  0  0  0  0  0
  -25.9129  -32.4788   23.8393 C   0  0  1  0  0  0
  -27.2129  -27.3008   20.1047 C   0  0  0  0  0  0
  -25.5951  -33.8594   24.2318 N   0  0  0  0  0  0
  -23.4230  -30.4905   21.5498 C   0  0  2  0  0  0
  -24.8657  -28.9554   20.1103 C   0  0  0  0  0  0
  -22.7492  -29.4649   22.4930 C   0  0  0  0  0  0
  -18.0298  -28.1382   22.8505 C   0  0  0  0  0  0
  -24.1481  -36.7274   23.2642 C   0  0  0  0  0  0
  -25.9703  -30.7818   21.3862 C   0  0  0  0  0  0
  -26.0395  -29.4110   20.7238 C   0  0  0  0  0  0
  -27.2142  -28.5949   20.7209 C   0  0  0  0  0  0
  -26.0144  -26.9284   19.4411 C   0  0  0  0  0  0
  -24.8558  -27.7180   19.4616 C   0  0  0  0  0  0
  -23.6365  -29.8365   20.1623 C   0  0  0  0  0  0
  -25.4105  -36.3093   24.0344 C   0  0  1  0  0  0
  -20.5905  -28.3695   23.1262 C   0  0  2  0  0  0
  -20.6784  -26.9409   22.5403 C   0  0  0  0  0  0
  -19.5745  -26.6376   21.5222 C   0  0  0  0  0  0
  -18.1929  -26.7929   22.1630 C   0  0  0  0  0  0
  -19.1557  -28.8855   23.2886 C   0  0  0  0  0  0
  -18.9476  -30.1463   23.8887 C   0  0  0  0  0  0
  -17.6473  -30.6583   24.0575 C   0  0  0  0  0  0
  -25.9054  -34.9463   23.5127 C   0  0  0  0  0  0
  -16.5365  -29.9080   23.6342 C   0  0  0  0  0  0
  -16.7285  -28.6498   23.0365 C   0  0  0  0  0  0
  -26.4511  -31.6597   25.0763 C   0  0  0  0  0  0
  -25.3742  -31.3736   26.1494 C   0  0  0  0  0  0
  -27.0369  -30.3028   24.6224 C   0  0  0  0  0  0
  -27.6078  -32.4336   25.7511 C   0  0  0  0  0  0
  -27.5574  -37.1792   24.8472 C   0  0  0  0  0  0
  -21.4207  -29.3055   22.3652 N   0  0  0  0  0  0
  -26.4288  -37.3786   23.9427 N   0  0  0  0  0  0
  -24.6936  -31.0615   22.1023 N   0  0  0  0  0  0
  -23.4212  -28.8159   23.2993 O   0  0  0  0  0  0
  -28.2936  -26.3892   20.1799 O   0  0  0  0  0  0
  -26.5602  -34.8921   22.4675 O   0  0  0  0  0  0
  -23.5439  -32.1410   23.7364 O   0  0  0  0  0  0
  -29.8369  -21.5487   19.5106 C   0  0  0  0  0  0
  -28.6621  -23.0883   21.4407 C   0  0  0  0  0  0
  -29.4644  -22.8933   19.1937 C   0  0  0  0  0  0
  -28.8094  -23.7046   20.1732 C   0  0  0  0  0  0
  -29.6000  -21.0164   20.7955 C   0  0  0  0  0  0
  -30.6696  -24.6322   17.7669 C   0  0  0  0  0  0
  -29.7420  -23.4085   17.7853 C   0  0  0  0  0  0
  -27.9671  -24.9861   19.8074 C   0  0  0  0  0  0
  -29.6150  -18.4260   20.5467 C   0  0  0  0  0  0
  -30.5263  -17.1733   20.9368 C   0  0  0  0  0  0
  -29.0560  -21.8123   21.7440 N   0  0  0  0  0  0
  -29.9935  -19.7089   21.2144 N   0  0  0  0  0  0
  -29.9730  -15.7739   20.8048 N   0  0  0  0  0  0
  -31.4670  -12.4970   19.1528 H   0  0  0  0  0  0
  -30.3438  -11.4143   19.9250 H   0  0  0  0  0  0
  -29.7648  -11.7283   17.4948 H   0  0  0  0  0  0
  -29.6392  -13.4541   17.7284 H   0  0  0  0  0  0
  -27.8706  -11.2833   18.8963 H   0  0  0  0  0  0
  -27.3678  -12.5417   17.8007 H   0  0  0  0  0  0
  -27.6528  -14.2507   19.4906 H   0  0  0  0  0  0
  -28.7095  -12.1275   21.4190 H   0  0  0  0  0  0
  -28.4464  -13.8083   21.8045 H   0  0  0  0  0  0
  -25.2760   -9.5696   22.4763 H   0  0  0  0  0  0
  -24.0010   -7.4631   22.7476 H   0  0  0  0  0  0
  -21.0845   -8.8765   19.8945 H   0  0  0  0  0  0
  -22.3698  -10.9671   19.6157 H   0  0  0  0  0  0
  -21.1992   -7.6151   23.9715 H   0  0  0  0  0  0
  -21.1480   -6.0528   25.9082 H   0  0  0  0  0  0
  -22.0593   -2.7604   23.2858 H   0  0  0  0  0  0
  -22.4112  -11.9849   22.4771 H   0  0  0  0  0  0
  -21.1105  -13.1215   22.2640 H   0  0  0  0  0  0
  -24.6577  -15.8473   20.5128 H   0  0  0  0  0  0
  -26.2728  -15.6256   20.0709 H   0  0  0  0  0  0
  -26.7195  -32.5433   23.1135 H   0  0  0  0  0  0
  -25.0192  -33.9762   25.0521 H   0  0  0  0  0  0
  -22.7186  -31.3127   21.4105 H   0  0  0  0  0  0
  -23.3766  -35.9593   23.3325 H   0  0  0  0  0  0
  -24.3584  -36.8860   22.2055 H   0  0  0  0  0  0
  -23.7204  -37.6471   23.6643 H   0  0  0  0  0  0
  -26.1146  -31.5441   20.6198 H   0  0  0  0  0  0
  -26.8480  -30.8233   22.0195 H   0  0  0  0  0  0
  -28.1056  -28.9349   21.2302 H   0  0  0  0  0  0
  -25.9081  -26.0019   18.8998 H   0  0  0  0  0  0
  -23.9615  -27.3651   18.9678 H   0  0  0  0  0  0
  -23.7589  -30.6200   19.4137 H   0  0  0  0  0  0
  -22.7562  -29.2714   19.8519 H   0  0  0  0  0  0
  -25.1275  -36.1974   25.0841 H   0  0  0  0  0  0
  -21.0024  -28.3270   24.1370 H   0  0  0  0  0  0
  -20.5702  -26.2301   23.3611 H   0  0  0  0  0  0
  -21.6642  -26.7431   22.1168 H   0  0  0  0  0  0
  -19.6909  -25.6291   21.1235 H   0  0  0  0  0  0
  -19.6681  -27.3208   20.6769 H   0  0  0  0  0  0
  -17.4203  -26.6723   21.4026 H   0  0  0  0  0  0
  -18.0304  -26.0060   22.9000 H   0  0  0  0  0  0
  -19.7956  -30.7308   24.2213 H   0  0  0  0  0  0
  -17.5026  -31.6261   24.5181 H   0  0  0  0  0  0
  -15.5367  -30.2984   23.7674 H   0  0  0  0  0  0
  -15.8682  -28.0823   22.7068 H   0  0  0  0  0  0
  -24.5935  -30.7057   25.7842 H   0  0  0  0  0  0
  -24.8899  -32.2890   26.4910 H   0  0  0  0  0  0
  -25.8063  -30.8941   27.0285 H   0  0  0  0  0  0
  -26.2951  -29.6773   24.1243 H   0  0  0  0  0  0
  -27.4078  -29.7306   25.4737 H   0  0  0  0  0  0
  -27.8832  -30.4345   23.9473 H   0  0  0  0  0  0
  -27.2716  -33.3672   26.2039 H   0  0  0  0  0  0
  -28.3900  -32.6826   25.0325 H   0  0  0  0  0  0
  -28.0737  -31.8481   26.5447 H   0  0  0  0  0  0
  -28.2595  -38.0089   24.7529 H   0  0  0  0  0  0
  -28.1055  -36.2613   24.6279 H   0  0  0  0  0  0
  -27.2289  -37.1414   25.8874 H   0  0  0  0  0  0
  -20.9372  -29.8824   21.6911 H   0  0  0  0  0  0
  -26.0168  -38.2867   24.1444 H   0  0  0  0  0  0
  -30.3124  -20.9292   18.7613 H   0  0  0  0  0  0
  -28.1295  -23.6054   22.2248 H   0  0  0  0  0  0
  -30.8630  -24.9512   16.7430 H   0  0  0  0  0  0
  -31.6317  -24.4066   18.2289 H   0  0  0  0  0  0
  -30.2385  -25.4810   18.2985 H   0  0  0  0  0  0
  -28.8044  -23.6330   17.2780 H   0  0  0  0  0  0
  -30.2043  -22.6173   17.1941 H   0  0  0  0  0  0
  -27.0074  -24.7401   20.2653 H   0  0  0  0  0  0
  -27.7962  -24.9706   18.7327 H   0  0  0  0  0  0
  -28.5855  -18.2161   20.8390 H   0  0  0  0  0  0
  -29.5994  -18.5608   19.4643 H   0  0  0  0  0  0
  -30.8138  -17.2703   21.9846 H   0  0  0  0  0  0
  -31.4600  -17.2508   20.3760 H   0  0  0  0  0  0
  -29.9699  -19.6216   22.2249 H   0  0  0  0  0  0
  -28.9971  -15.6468   21.0228 H   0  0  0  0  0  0
  1 25  1  0  0  0
  1 30  2  0  0  0
  1 83  1  0  0  0
  2  3  1  0  0  0
  2 25  1  0  0  0
  2 84  1  0  0  0
  2 85  1  0  0  0
  3  4  1  0  0  0
  3 86  1  0  0  0
  3 87  1  0  0  0
  4  5  1  0  0  0
  4 88  1  0  0  0
  4 89  1  0  0  0
  5  6  1  0  0  0
  5 26  1  0  0  0
  5 90  1  0  0  0
  6 25  1  0  0  0
  6 91  1  0  0  0
  6 92  1  0  0  0
  7  8  2  0  0  0
  7 26  1  0  0  0
  7 29  1  0  0  0
  8  9  1  0  0  0
  8 22  1  0  0  0
  9 10  1  0  0  0
  9 27  2  0  0  0
 10 11  2  0  0  0
 10 15  1  0  0  0
 11 12  1  0  0  0
 11 93  1  0  0  0
 12 13  2  0  0  0
 12 94  1  0  0  0
 13 14  1  0  0  0
 13 31  1  0  0  0
 14 15  2  0  0  0
 14 95  1  0  0  0
 15 96  1  0  0  0
 16 17  2  0  0  0
 16 21  1  0  0  0
 16 31  1  0  0  0
 17 18  1  0  0  0
 17 97  1  0  0  0
 18 19  2  0  0  0
 18 98  1  0  0  0
 19 20  1  0  0  0
 19 24  1  0  0  0
 20 21  2  0  0  0
 20 99  1  0  0  0
 21 23  1  0  0  0
 22 28  1  0  0  0
 22 32  2  0  0  0
 26 27  1  0  0  0
 28100  1  0  0  0
 28101  1  0  0  0
 29102  1  0  0  0
 29103  1  0  0  0
 33 34  1  0  0  0
 33 66  1  0  0  0
 33 70  2  0  0  0
 34 36  1  0  0  0
 34 59  1  0  0  0
 34104  1  0  0  0
 35 44  2  0  0  0
 35 45  1  0  0  0
 35 68  1  0  0  0
 36 56  1  0  0  0
 36105  1  0  0  0
 37 39  1  0  0  0
 37 47  1  0  0  0
 37 66  1  0  0  0
 37106  1  0  0  0
 38 43  2  0  0  0
 38 46  1  0  0  0
 38 47  1  0  0  0
 39 64  1  0  0  0
 39 67  2  0  0  0
 40 52  1  0  0  0
 40 53  2  0  0  0
 40 58  1  0  0  0
 41107  1  0  0  0
 41108  1  0  0  0
 41109  1  0  0  0
 41 48  1  0  0  0
 42 43  1  0  0  0
 42 66  1  0  0  0
 42110  1  0  0  0
 42111  1  0  0  0
 43 44  1  0  0  0
 44112  1  0  0  0
 45 46  2  0  0  0
 45113  1  0  0  0
 46114  1  0  0  0
 47115  1  0  0  0
 47116  1  0  0  0
 48 56  1  0  0  0
 48 65  1  0  0  0
 48117  1  0  0  0
 49 50  1  0  0  0
 49 53  1  0  0  0
 49 64  1  0  0  0
 49118  1  0  0  0
 50 51  1  0  0  0
 50119  1  0  0  0
 50120  1  0  0  0
 51 52  1  0  0  0
 51121  1  0  0  0
 51122  1  0  0  0
 52123  1  0  0  0
 52124  1  0  0  0
 53 54  1  0  0  0
 54 55  2  0  0  0
 54125  1  0  0  0
 55 57  1  0  0  0
 55126  1  0  0  0
 56 69  2  0  0  0
 57 58  2  0  0  0
 57127  1  0  0  0
 58128  1  0  0  0
 59 60  1  0  0  0
 59 61  1  0  0  0
 59 62  1  0  0  0
 60129  1  0  0  0
 60130  1  0  0  0
 60131  1  0  0  0
 61132  1  0  0  0
 61133  1  0  0  0
 61134  1  0  0  0
 62135  1  0  0  0
 62136  1  0  0  0
 62137  1  0  0  0
 63 65  1  0  0  0
 63138  1  0  0  0
 63139  1  0  0  0
 63140  1  0  0  0
 64141  1  0  0  0
 65142  1  0  0  0
 68 78  1  0  0  0
 71 73  2  0  0  0
 71 75  1  0  0  0
 71143  1  0  0  0
 72 74  2  0  0  0
 72 81  1  0  0  0
 72144  1  0  0  0
 73 74  1  0  0  0
 73 77  1  0  0  0
 74 78  1  0  0  0
 75 81  2  0  0  0
 75 82  1  0  0  0
 76 77  1  0  0  0
 76145  1  0  0  0
 76146  1  0  0  0
 76147  1  0  0  0
 77148  1  0  0  0
 77149  1  0  0  0
 78150  1  0  0  0
 78151  1  0  0  0
 79 80  1  0  0  0
 79 82  1  0  0  0
 79152  1  0  0  0
 79153  1  0  0  0
 80 83  1  0  0  0
 80154  1  0  0  0
 80155  1  0  0  0
 82156  1  0  0  0
 83157  1  0  0  0
M  ISO  4   1 100  68 101  78 101  83 100
M  END
> <chiral flag>
0

> <version>
0

> <s_m_source_file>
/data/baiqing/PycharmProjects/Reinvent-master-3.2/result/LINK_invent/BTK/process_docking_weight1_custom_sum_contain_oxygen_bond_distance_aromatic_linkinvent_7_9_3/rearranged_h_0120.sdf

> <i_m_source_file_index>
52

> <r_mmod_Potential_Energy-OPLS-2005>
-169.356369018555

> <r_mmod_Stretch_Energy-OPLS-2005>
80.8891143798828

> <r_mmod_Bend_Energy-OPLS-2005>
154.490936279297

> <r_mmod_Torsional_Energy-OPLS-2005>
224.10905456543

> <r_mmod_Improper_Torsional_Energy-OPLS-2005>
10.7437686920166

> <r_mmod_Van_der_Waal_Energy-OPLS-2005>
157.928909301758

> <r_mmod_Electrostatic_Energy-OPLS-2005>
-619.494079589844

> <r_mmod_Solvation_Energy-OPLS-2005>
-238.285675048828

> <b_mmod_Minimization_Converged-OPLS-2005>
0

> <r_mmod_RMS_Derivative-OPLS-2005>
2.02967357635498

$$$$
52
                    3D
 Structure written by MMmdl.
165174  0  0  1  0            999 V2000
  -30.6368  -14.6983   20.4974 C   0  0  0  0  0  0
  -30.4428  -12.4318   19.4663 C   0  0  0  0  0  0
  -29.5155  -12.5062   18.2343 C   0  0  0  0  0  0
  -28.0447  -12.3196   18.6528 C   0  0  0  0  0  0
  -27.6496  -13.2186   19.8546 C   0  0  2  0  0  0
  -28.6963  -13.1307   20.9908 C   0  0  0  0  0  0
  -25.2464  -13.8095   20.5594 C   0  0  0  0  0  0
  -24.1810  -13.0374   20.9305 C   0  0  0  0  0  0
  -24.6410  -11.6872   20.8839 C   0  0  0  0  0  0
  -23.9079  -10.4267   21.0453 C   0  0  0  0  0  0
  -24.3621   -9.4181   21.9222 C   0  0  0  0  0  0
  -23.6294   -8.2219   22.0773 C   0  0  0  0  0  0
  -22.4288   -8.0274   21.3552 C   0  0  0  0  0  0
  -21.9923   -9.0258   20.4658 C   0  0  0  0  0  0
  -22.7255  -10.2131   20.3082 C   0  0  0  0  0  0
  -21.6852   -6.0746   22.5290 C   0  0  0  0  0  0
  -21.4014   -6.5646   23.8224 C   0  0  0  0  0  0
  -21.3653   -5.6793   24.9184 C   0  0  0  0  0  0
  -21.6038   -4.3061   24.7226 C   0  0  0  0  0  0
  -21.8821   -3.8153   23.4346 C   0  0  0  0  0  0
  -21.9189   -4.6973   22.3409 C   0  0  0  0  0  0
  -22.7840  -13.5216   21.1920 C   0  0  0  0  0  0
  -22.1658   -4.2159   21.0985 F   0  0  0  0  0  0
  -21.5619   -3.4536   25.7730 F   0  0  0  0  0  0
  -30.0088  -13.4766   20.4194 N   0  0  0  0  0  0
  -26.2954  -12.9337   20.3270 N   0  0  0  0  0  0
  -25.9339  -11.6495   20.5814 N   0  0  0  0  0  0
  -22.0383  -12.8267   22.0432 N   0  0  0  0  0  0
  -25.3795  -15.1783   20.3482 N   0  0  0  0  0  0
  -31.8040  -14.8388   20.1269 O   0  0  0  0  0  0
  -21.6641   -6.8882   21.4252 O   0  0  0  0  0  0
  -22.3658  -14.5564   20.6748 O   0  0  0  0  0  0
  -24.6338  -31.8565   23.2004 C   0  0  0  0  0  0
  -25.9150  -32.4776   23.8346 C   0  0  1  0  0  0
  -27.2234  -27.2735   20.1099 C   0  0  0  0  0  0
  -25.5946  -33.8571   24.2282 N   0  0  0  0  0  0
  -23.4311  -30.4818   21.5449 C   0  0  2  0  0  0
  -24.8771  -28.9397   20.1063 C   0  0  0  0  0  0
  -22.7523  -29.4605   22.4917 C   0  0  0  0  0  0
  -18.0279  -28.1407   22.8454 C   0  0  0  0  0  0
  -24.1499  -36.7288   23.2634 C   0  0  0  0  0  0
  -25.9789  -30.7742   21.3800 C   0  0  0  0  0  0
  -26.0514  -29.3993   20.7175 C   0  0  0  0  0  0
  -27.2251  -28.5768   20.7139 C   0  0  0  0  0  0
  -26.0230  -26.8968   19.4555 C   0  0  0  0  0  0
  -24.8671  -27.6951   19.4663 C   0  0  0  0  0  0
  -23.6476  -29.8231   20.1596 C   0  0  0  0  0  0
  -25.4126  -36.3088   24.0329 C   0  0  1  0  0  0
  -20.5884  -28.3716   23.1249 C   0  0  2  0  0  0
  -20.6787  -26.9432   22.5393 C   0  0  0  0  0  0
  -19.5764  -26.6399   21.5194 C   0  0  0  0  0  0
  -18.1928  -26.7948   22.1598 C   0  0  0  0  0  0
  -19.1536  -28.8869   23.2842 C   0  0  0  0  0  0
  -18.9470  -30.1464   23.8874 C   0  0  0  0  0  0
  -17.6475  -30.6594   24.0564 C   0  0  0  0  0  0
  -25.9059  -34.9444   23.5101 C   0  0  0  0  0  0
  -16.5360  -29.9096   23.6338 C   0  0  0  0  0  0
  -16.7270  -28.6523   23.0338 C   0  0  0  0  0  0
  -26.4496  -31.6596   25.0735 C   0  0  0  0  0  0
  -25.3693  -31.3706   26.1427 C   0  0  0  0  0  0
  -27.0356  -30.3028   24.6191 C   0  0  0  0  0  0
  -27.6065  -32.4322   25.7504 C   0  0  0  0  0  0
  -27.5595  -37.1795   24.8461 C   0  0  0  0  0  0
  -21.4228  -29.3070   22.3661 N   0  0  0  0  0  0
  -26.4312  -37.3784   23.9398 N   0  0  0  0  0  0
  -24.7012  -31.0538   22.0989 N   0  0  0  0  0  0
  -23.4213  -28.8122   23.3000 O   0  0  0  0  0  0
  -28.3039  -26.3570   20.1816 O   0  0  0  0  0  0
  -26.5637  -34.8920   22.4677 O   0  0  0  0  0  0
  -23.5486  -32.1379   23.7294 O   0  0  0  0  0  0
  -30.5905  -21.4537   20.6967 C   0  0  0  0  0  0
  -28.3911  -22.3554   20.4916 C   0  0  0  0  0  0
  -29.2087  -21.1826   20.7470 C   0  0  0  0  0  0
  -31.0593  -22.7700   20.4572 C   0  0  0  0  0  0
  -28.9212  -23.6767   20.2734 C   0  0  0  0  0  0
  -27.2023  -20.0447   21.7455 C   0  0  0  0  0  0
  -26.3740  -18.8345   22.1252 C   0  0  0  0  0  0
  -27.6019  -17.3776   20.6564 C   0  0  0  0  0  0
  -28.6718  -19.7733   21.3036 C   0  0  1  0  0  0
  -28.8529  -18.3130   20.5408 C   0  0  1  0  0  0
  -32.5462  -23.0601   20.4634 C   0  0  0  0  0  0
  -27.9692  -24.9096   19.9521 C   0  0  0  0  0  0
  -30.0889  -17.3010   20.8957 C   0  0  0  0  0  0
  -30.2609  -23.8519   20.2542 N   0  0  0  0  0  0
  -29.8531  -15.7809   20.8242 N   0  0  0  0  0  0
  -26.3039  -17.9952   20.9280 N   0  3  0  0  0  0
  -31.4829  -12.5576   19.1623 H   0  0  0  0  0  0
  -30.3865  -11.4455   19.9305 H   0  0  0  0  0  0
  -29.7984  -11.7440   17.5062 H   0  0  0  0  0  0
  -29.6384  -13.4686   17.7355 H   0  0  0  0  0  0
  -27.9205  -11.2716   18.9285 H   0  0  0  0  0  0
  -27.3813  -12.4929   17.8041 H   0  0  0  0  0  0
  -27.6522  -14.2419   19.4802 H   0  0  0  0  0  0
  -28.7252  -12.1255   21.4135 H   0  0  0  0  0  0
  -28.4273  -13.7933   21.8151 H   0  0  0  0  0  0
  -25.2759   -9.5666   22.4808 H   0  0  0  0  0  0
  -23.9991   -7.4616   22.7507 H   0  0  0  0  0  0
  -21.0846   -8.8812   19.8964 H   0  0  0  0  0  0
  -22.3744  -10.9692   19.6195 H   0  0  0  0  0  0
  -21.2017   -7.6154   23.9745 H   0  0  0  0  0  0
  -21.1467   -6.0510   25.9088 H   0  0  0  0  0  0
  -22.0607   -2.7614   23.2847 H   0  0  0  0  0  0
  -22.3863  -11.9865   22.4808 H   0  0  0  0  0  0
  -21.1004  -13.1373   22.2557 H   0  0  0  0  0  0
  -24.4329  -15.5346   20.2412 H   0  0  0  0  0  0
  -25.8868  -15.3130   19.4821 H   0  0  0  0  0  0
  -26.7228  -32.5418   23.1093 H   0  0  0  0  0  0
  -25.0101  -33.9697   25.0435 H   0  0  0  0  0  0
  -22.7289  -31.3052   21.4010 H   0  0  0  0  0  0
  -23.3773  -35.9609   23.3305 H   0  0  0  0  0  0
  -24.3569  -36.8913   22.2046 H   0  0  0  0  0  0
  -23.7247  -37.6487   23.6656 H   0  0  0  0  0  0
  -26.1174  -31.5381   20.6144 H   0  0  0  0  0  0
  -26.8587  -30.8200   22.0108 H   0  0  0  0  0  0
  -28.1176  -28.9159   21.2201 H   0  0  0  0  0  0
  -25.9296  -25.9586   18.9317 H   0  0  0  0  0  0
  -23.9705  -27.3410   18.9748 H   0  0  0  0  0  0
  -23.7670  -30.6026   19.4057 H   0  0  0  0  0  0
  -22.7669  -29.2541   19.8564 H   0  0  0  0  0  0
  -25.1305  -36.1954   25.0829 H   0  0  0  0  0  0
  -20.9944  -28.3293   24.1385 H   0  0  0  0  0  0
  -20.5695  -26.2303   23.3594 H   0  0  0  0  0  0
  -21.6653  -26.7483   22.1169 H   0  0  0  0  0  0
  -19.6945  -25.6305   21.1235 H   0  0  0  0  0  0
  -19.6728  -27.3206   20.6719 H   0  0  0  0  0  0
  -17.4207  -26.6666   21.3999 H   0  0  0  0  0  0
  -18.0327  -26.0114   22.9019 H   0  0  0  0  0  0
  -19.7953  -30.7255   24.2255 H   0  0  0  0  0  0
  -17.5044  -31.6278   24.5173 H   0  0  0  0  0  0
  -15.5348  -30.3003   23.7702 H   0  0  0  0  0  0
  -15.8661  -28.0851   22.7067 H   0  0  0  0  0  0
  -24.5918  -30.7020   25.7719 H   0  0  0  0  0  0
  -24.8793  -32.2834   26.4822 H   0  0  0  0  0  0
  -25.7973  -30.8901   27.0233 H   0  0  0  0  0  0
  -26.2957  -29.6756   24.1205 H   0  0  0  0  0  0
  -27.4065  -29.7299   25.4696 H   0  0  0  0  0  0
  -27.8812  -30.4342   23.9442 H   0  0  0  0  0  0
  -27.2741  -33.3665   26.2036 H   0  0  0  0  0  0
  -28.3896  -32.6797   25.0333 H   0  0  0  0  0  0
  -28.0709  -31.8457   26.5446 H   0  0  0  0  0  0
  -28.2592  -38.0115   24.7543 H   0  0  0  0  0  0
  -28.1120  -36.2633   24.6278 H   0  0  0  0  0  0
  -27.2277  -37.1436   25.8855 H   0  0  0  0  0  0
  -20.9422  -29.8832   21.6899 H   0  0  0  0  0  0
  -26.0199  -38.2860   24.1409 H   0  0  0  0  0  0
  -31.2968  -20.6606   20.9061 H   0  0  0  0  0  0
  -27.3144  -22.3077   20.4943 H   0  0  0  0  0  0
  -27.1818  -20.7792   22.5528 H   0  0  0  0  0  0
  -26.6437  -20.4706   20.9160 H   0  0  0  0  0  0
  -25.3674  -19.1425   22.4131 H   0  0  0  0  0  0
  -26.8013  -18.3005   22.9770 H   0  0  0  0  0  0
  -27.7064  -16.6979   21.5026 H   0  0  0  0  0  0
  -27.5243  -16.7570   19.7628 H   0  0  0  0  0  0
  -29.2174  -19.6400   22.2389 H   0  0  0  0  0  0
  -28.9268  -18.5550   19.4803 H   0  0  0  0  0  0
  -33.1279  -22.1421   20.3895 H   0  0  0  0  0  0
  -32.8311  -23.5656   21.3864 H   0  0  0  0  0  0
  -32.8233  -23.6984   19.6244 H   0  0  0  0  0  0
  -27.0466  -24.6940   20.4944 H   0  0  0  0  0  0
  -27.7423  -24.7942   18.8911 H   0  0  0  0  0  0
  -30.4081  -17.5027   21.9201 H   0  0  0  0  0  0
  -30.9495  -17.5546   20.2753 H   0  0  0  0  0  0
  -28.9314  -15.4838   21.1026 H   0  0  0  0  0  0
  -25.9851  -18.5275   20.1345 H   0  0  0  0  0  0
  -25.6487  -17.2389   21.0787 H   0  0  0  0  0  0
  1 25  1  0  0  0
  1 30  2  0  0  0
  1 85  1  0  0  0
  2  3  1  0  0  0
  2 25  1  0  0  0
  2 87  1  0  0  0
  2 88  1  0  0  0
  3  4  1  0  0  0
  3 89  1  0  0  0
  3 90  1  0  0  0
  4  5  1  0  0  0
  4 91  1  0  0  0
  4 92  1  0  0  0
  5  6  1  0  0  0
  5 26  1  0  0  0
  5 93  1  0  0  0
  6 25  1  0  0  0
  6 94  1  0  0  0
  6 95  1  0  0  0
  7  8  2  0  0  0
  7 26  1  0  0  0
  7 29  1  0  0  0
  8  9  1  0  0  0
  8 22  1  0  0  0
  9 10  1  0  0  0
  9 27  2  0  0  0
 10 11  2  0  0  0
 10 15  1  0  0  0
 11 12  1  0  0  0
 11 96  1  0  0  0
 12 13  2  0  0  0
 12 97  1  0  0  0
 13 14  1  0  0  0
 13 31  1  0  0  0
 14 15  2  0  0  0
 14 98  1  0  0  0
 15 99  1  0  0  0
 16 17  2  0  0  0
 16 21  1  0  0  0
 16 31  1  0  0  0
 17 18  1  0  0  0
 17100  1  0  0  0
 18 19  2  0  0  0
 18101  1  0  0  0
 19 20  1  0  0  0
 19 24  1  0  0  0
 20 21  2  0  0  0
 20102  1  0  0  0
 21 23  1  0  0  0
 22 28  1  0  0  0
 22 32  2  0  0  0
 26 27  1  0  0  0
 28103  1  0  0  0
 28104  1  0  0  0
 29105  1  0  0  0
 29106  1  0  0  0
 33 34  1  0  0  0
 33 66  1  0  0  0
 33 70  2  0  0  0
 34 36  1  0  0  0
 34 59  1  0  0  0
 34107  1  0  0  0
 35 44  2  0  0  0
 35 45  1  0  0  0
 35 68  1  0  0  0
 36 56  1  0  0  0
 36108  1  0  0  0
 37 39  1  0  0  0
 37 47  1  0  0  0
 37 66  1  0  0  0
 37109  1  0  0  0
 38 43  2  0  0  0
 38 46  1  0  0  0
 38 47  1  0  0  0
 39 64  1  0  0  0
 39 67  2  0  0  0
 40 52  1  0  0  0
 40 53  2  0  0  0
 40 58  1  0  0  0
 41110  1  0  0  0
 41111  1  0  0  0
 41112  1  0  0  0
 41 48  1  0  0  0
 42 43  1  0  0  0
 42 66  1  0  0  0
 42113  1  0  0  0
 42114  1  0  0  0
 43 44  1  0  0  0
 44115  1  0  0  0
 45 46  2  0  0  0
 45116  1  0  0  0
 46117  1  0  0  0
 47118  1  0  0  0
 47119  1  0  0  0
 48 56  1  0  0  0
 48 65  1  0  0  0
 48120  1  0  0  0
 49 50  1  0  0  0
 49 53  1  0  0  0
 49 64  1  0  0  0
 49121  1  0  0  0
 50 51  1  0  0  0
 50122  1  0  0  0
 50123  1  0  0  0
 51 52  1  0  0  0
 51124  1  0  0  0
 51125  1  0  0  0
 52126  1  0  0  0
 52127  1  0  0  0
 53 54  1  0  0  0
 54 55  2  0  0  0
 54128  1  0  0  0
 55 57  1  0  0  0
 55129  1  0  0  0
 56 69  2  0  0  0
 57 58  2  0  0  0
 57130  1  0  0  0
 58131  1  0  0  0
 59 60  1  0  0  0
 59 61  1  0  0  0
 59 62  1  0  0  0
 60132  1  0  0  0
 60133  1  0  0  0
 60134  1  0  0  0
 61135  1  0  0  0
 61136  1  0  0  0
 61137  1  0  0  0
 62138  1  0  0  0
 62139  1  0  0  0
 62140  1  0  0  0
 63 65  1  0  0  0
 63141  1  0  0  0
 63142  1  0  0  0
 63143  1  0  0  0
 64144  1  0  0  0
 65145  1  0  0  0
 68 82  1  0  0  0
 71 73  2  0  0  0
 71 74  1  0  0  0
 71146  1  0  0  0
 72 73  1  0  0  0
 72 75  2  0  0  0
 72147  1  0  0  0
 73 79  1  0  0  0
 74 81  1  0  0  0
 74 84  2  0  0  0
 75 82  1  0  0  0
 75 84  1  0  0  0
 76 77  1  0  0  0
 76 79  1  0  0  0
 76148  1  0  0  0
 76149  1  0  0  0
 77 86  1  0  0  0
 77150  1  0  0  0
 77151  1  0  0  0
 78 80  1  0  0  0
 78 86  1  0  0  0
 78152  1  0  0  0
 78153  1  0  0  0
 79 80  1  0  0  0
 79154  1  0  0  0
 80 83  1  0  0  0
 80155  1  0  0  0
 81156  1  0  0  0
 81157  1  0  0  0
 81158  1  0  0  0
 82159  1  0  0  0
 82160  1  0  0  0
 83 85  1  0  0  0
 83161  1  0  0  0
 83162  1  0  0  0
 85163  1  0  0  0
 86164  1  0  0  0
 86165  1  0  0  0
M  CHG  1  86   1
M  ISO  4   1 100  68 101  82 101  85 100
M  END
> <chiral flag>
0

> <version>
0

> <s_m_source_file>
/data/baiqing/PycharmProjects/Reinvent-master-3.2/result/LINK_invent/BTK/process_docking_weight1_custom_sum_contain_oxygen_bond_distance_aromatic_linkinvent_7_9_3/rearranged_h_0120.sdf

> <i_m_source_file_index>
53

> <r_mmod_Potential_Energy-OPLS-2005>
-66.6885833740234

> <r_mmod_Stretch_Energy-OPLS-2005>
136.460067749023

> <r_mmod_Bend_Energy-OPLS-2005>
201.949905395508

> <r_mmod_Torsional_Energy-OPLS-2005>
279.31982421875

> <r_mmod_Improper_Torsional_Energy-OPLS-2005>
12.5737419128418

> <r_mmod_Van_der_Waal_Energy-OPLS-2005>
171.750717163086

> <r_mmod_Electrostatic_Energy-OPLS-2005>
-433.898834228516

> <r_mmod_Solvation_Energy-OPLS-2005>
-509.672912597656

> <b_mmod_Minimization_Converged-OPLS-2005>
0

> <r_mmod_RMS_Derivative-OPLS-2005>
2.53877687454224

$$$$
53
                    3D
 Structure written by MMmdl.
162171  0  0  1  0            999 V2000
  -30.6304  -14.6377   20.4452 C   0  0  0  0  0  0
  -30.4383  -12.3634   19.4768 C   0  0  0  0  0  0
  -29.5156  -12.4183   18.2388 C   0  0  0  0  0  0
  -28.0294  -12.3203   18.6416 C   0  0  0  0  0  0
  -27.6517  -13.2152   19.8537 C   0  0  2  0  0  0
  -28.6936  -13.1004   20.9879 C   0  0  0  0  0  0
  -25.2562  -13.8174   20.5669 C   0  0  0  0  0  0
  -24.1830  -13.0443   20.9188 C   0  0  0  0  0  0
  -24.6394  -11.6915   20.8747 C   0  0  0  0  0  0
  -23.9061  -10.4296   21.0408 C   0  0  0  0  0  0
  -24.3614   -9.4209   21.9182 C   0  0  0  0  0  0
  -23.6296   -8.2241   22.0748 C   0  0  0  0  0  0
  -22.4278   -8.0277   21.3538 C   0  0  0  0  0  0
  -21.9911   -9.0252   20.4643 C   0  0  0  0  0  0
  -22.7233  -10.2136   20.3056 C   0  0  0  0  0  0
  -21.6852   -6.0733   22.5276 C   0  0  0  0  0  0
  -21.4015   -6.5637   23.8211 C   0  0  0  0  0  0
  -21.3662   -5.6790   24.9174 C   0  0  0  0  0  0
  -21.6047   -4.3053   24.7220 C   0  0  0  0  0  0
  -21.8821   -3.8143   23.4342 C   0  0  0  0  0  0
  -21.9193   -4.6961   22.3398 C   0  0  0  0  0  0
  -22.7849  -13.5235   21.1853 C   0  0  0  0  0  0
  -22.1662   -4.2146   21.0976 F   0  0  0  0  0  0
  -21.5634   -3.4535   25.7732 F   0  0  0  0  0  0
  -30.0097  -13.4172   20.4174 N   0  0  0  0  0  0
  -26.2983  -12.9353   20.3279 N   0  0  0  0  0  0
  -25.9321  -11.6515   20.5770 N   0  0  0  0  0  0
  -22.0492  -12.8224   22.0407 N   0  0  0  0  0  0
  -25.4276  -15.1892   20.4072 N   0  0  0  0  0  0
  -31.8188  -14.7527   20.1286 O   0  0  0  0  0  0
  -21.6641   -6.8873   21.4236 O   0  0  0  0  0  0
  -22.3533  -14.5542   20.6705 O   0  0  0  0  0  0
  -24.6226  -31.8611   23.2037 C   0  0  0  0  0  0
  -25.9089  -32.4783   23.8353 C   0  0  1  0  0  0
  -27.2294  -27.3488   20.1191 C   0  0  0  0  0  0
  -25.5919  -33.8582   24.2281 N   0  0  0  0  0  0
  -23.4140  -30.4832   21.5456 C   0  0  2  0  0  0
  -24.8600  -28.9389   20.1109 C   0  0  0  0  0  0
  -22.7453  -29.4620   22.4952 C   0  0  0  0  0  0
  -18.0280  -28.1377   22.8485 C   0  0  0  0  0  0
  -24.1489  -36.7297   23.2639 C   0  0  0  0  0  0
  -25.9503  -30.8021   21.3681 C   0  0  0  0  0  0
  -26.0246  -29.4313   20.7117 C   0  0  0  0  0  0
  -27.2104  -28.6475   20.7046 C   0  0  0  0  0  0
  -26.0420  -26.8944   19.5013 C   0  0  0  0  0  0
  -24.8691  -27.6748   19.4977 C   0  0  0  0  0  0
  -23.6258  -29.8148   20.1606 C   0  0  0  0  0  0
  -25.4114  -36.3084   24.0329 C   0  0  1  0  0  0
  -20.5874  -28.3674   23.1294 C   0  0  2  0  0  0
  -20.6766  -26.9403   22.5412 C   0  0  0  0  0  0
  -19.5747  -26.6379   21.5207 C   0  0  0  0  0  0
  -18.1926  -26.7921   22.1618 C   0  0  0  0  0  0
  -19.1530  -28.8845   23.2882 C   0  0  0  0  0  0
  -18.9454  -30.1448   23.8895 C   0  0  0  0  0  0
  -17.6454  -30.6580   24.0563 C   0  0  0  0  0  0
  -25.9049  -34.9453   23.5104 C   0  0  0  0  0  0
  -16.5346  -29.9077   23.6331 C   0  0  0  0  0  0
  -16.7267  -28.6495   23.0352 C   0  0  0  0  0  0
  -26.4493  -31.6593   25.0717 C   0  0  0  0  0  0
  -25.3745  -31.3721   26.1459 C   0  0  0  0  0  0
  -27.0339  -30.3026   24.6150 C   0  0  0  0  0  0
  -27.6052  -32.4334   25.7487 C   0  0  0  0  0  0
  -27.5581  -37.1803   24.8460 C   0  0  0  0  0  0
  -21.4171  -29.3032   22.3699 N   0  0  0  0  0  0
  -26.4292  -37.3778   23.9406 N   0  0  0  0  0  0
  -24.6808  -31.0651   22.0966 N   0  0  0  0  0  0
  -23.4197  -28.8165   23.3022 O   0  0  0  0  0  0
  -28.3833  -26.5628   20.1763 O   0  0  0  0  0  0
  -26.5614  -34.8915   22.4669 O   0  0  0  0  0  0
  -23.5402  -32.1390   23.7393 O   0  0  0  0  0  0
  -29.9560  -18.4803   18.0393 C   0  0  0  0  0  0
  -29.7733  -19.6132   18.8348 C   0  0  0  0  0  0
  -29.9741  -17.2022   18.6299 C   0  0  0  0  0  0
  -29.6051  -19.4583   20.2152 C   0  0  0  0  0  0
  -29.8733  -17.0631   20.0462 C   0  0  0  0  0  0
  -28.1148  -22.9758   21.5490 C   0  0  0  0  0  0
  -29.8409  -22.9648   19.7140 C   0  0  0  0  0  0
  -27.5019  -24.3218   21.0251 C   0  0  0  0  0  0
  -29.7700  -24.5115   19.9637 C   0  0  0  0  0  0
  -28.8091  -22.0750   20.4846 C   0  0  1  0  0  0
  -28.3393  -25.1068   19.9699 C   0  0  2  0  0  0
  -30.0179  -16.0237   17.6738 C   0  0  0  0  0  0
  -29.3816  -20.7172   21.1107 C   0  0  0  0  0  0
  -29.6649  -18.2059   20.7924 N   0  0  0  0  0  0
  -29.8263  -15.7309   20.6466 N   0  0  0  0  0  0
  -31.4812  -12.4748   19.1741 H   0  0  0  0  0  0
  -30.3734  -11.3867   19.9589 H   0  0  0  0  0  0
  -29.7624  -11.5974   17.5638 H   0  0  0  0  0  0
  -29.7006  -13.3210   17.6655 H   0  0  0  0  0  0
  -27.8372  -11.2752   18.8879 H   0  0  0  0  0  0
  -27.3895  -12.5486   17.7885 H   0  0  0  0  0  0
  -27.6622  -14.2428   19.4914 H   0  0  0  0  0  0
  -28.6981  -12.0933   21.4075 H   0  0  0  0  0  0
  -28.4459  -13.7692   21.8138 H   0  0  0  0  0  0
  -25.2758   -9.5688   22.4756 H   0  0  0  0  0  0
  -24.0007   -7.4632   22.7466 H   0  0  0  0  0  0
  -21.0843   -8.8768   19.8951 H   0  0  0  0  0  0
  -22.3687  -10.9674   19.6167 H   0  0  0  0  0  0
  -21.2006   -7.6146   23.9712 H   0  0  0  0  0  0
  -21.1485   -6.0520   25.9078 H   0  0  0  0  0  0
  -22.0601   -2.7605   23.2840 H   0  0  0  0  0  0
  -22.4110  -11.9885   22.4792 H   0  0  0  0  0  0
  -21.1115  -13.1256   22.2619 H   0  0  0  0  0  0
  -24.6600  -15.8429   20.5160 H   0  0  0  0  0  0
  -26.2735  -15.6288   20.0683 H   0  0  0  0  0  0
  -26.7156  -32.5459   23.1101 H   0  0  0  0  0  0
  -25.0099  -33.9731   25.0448 H   0  0  0  0  0  0
  -22.7059  -31.3023   21.4036 H   0  0  0  0  0  0
  -23.3747  -35.9633   23.3300 H   0  0  0  0  0  0
  -24.3580  -36.8922   22.2053 H   0  0  0  0  0  0
  -23.7247  -37.6501   23.6662 H   0  0  0  0  0  0
  -26.0769  -31.5666   20.6004 H   0  0  0  0  0  0
  -26.8323  -30.8502   21.9948 H   0  0  0  0  0  0
  -28.1061  -29.0233   21.1786 H   0  0  0  0  0  0
  -25.9957  -25.9266   19.0256 H   0  0  0  0  0  0
  -23.9744  -27.2904   19.0272 H   0  0  0  0  0  0
  -23.7398  -30.5891   19.4014 H   0  0  0  0  0  0
  -22.7468  -29.2398   19.8631 H   0  0  0  0  0  0
  -25.1295  -36.1938   25.0822 H   0  0  0  0  0  0
  -20.9961  -28.3241   24.1416 H   0  0  0  0  0  0
  -20.5668  -26.2282   23.3607 H   0  0  0  0  0  0
  -21.6638  -26.7439   22.1208 H   0  0  0  0  0  0
  -19.6912  -25.6289   21.1239 H   0  0  0  0  0  0
  -19.6689  -27.3187   20.6736 H   0  0  0  0  0  0
  -17.4202  -26.6670   21.4016 H   0  0  0  0  0  0
  -18.0324  -26.0056   22.9006 H   0  0  0  0  0  0
  -19.7932  -30.7263   24.2264 H   0  0  0  0  0  0
  -17.5011  -31.6260   24.5163 H   0  0  0  0  0  0
  -15.5346  -30.2981   23.7658 H   0  0  0  0  0  0
  -15.8664  -28.0816   22.7071 H   0  0  0  0  0  0
  -24.5901  -30.7091   25.7791 H   0  0  0  0  0  0
  -24.8961  -32.2889   26.4916 H   0  0  0  0  0  0
  -25.8088  -30.8875   27.0212 H   0  0  0  0  0  0
  -26.2901  -29.6771   24.1201 H   0  0  0  0  0  0
  -27.4081  -29.7289   25.4638 H   0  0  0  0  0  0
  -27.8747  -30.4325   23.9331 H   0  0  0  0  0  0
  -27.2648  -33.3614   26.2093 H   0  0  0  0  0  0
  -28.3846  -32.6937   25.0314 H   0  0  0  0  0  0
  -28.0740  -31.8452   26.5384 H   0  0  0  0  0  0
  -28.2598  -38.0100   24.7512 H   0  0  0  0  0  0
  -28.1078  -36.2634   24.6278 H   0  0  0  0  0  0
  -27.2301  -37.1445   25.8863 H   0  0  0  0  0  0
  -20.9344  -29.8760   21.6918 H   0  0  0  0  0  0
  -26.0173  -38.2854   24.1407 H   0  0  0  0  0  0
  -30.0443  -18.5989   16.9686 H   0  0  0  0  0  0
  -29.7431  -20.5847   18.3664 H   0  0  0  0  0  0
  -27.3325  -22.4099   22.0564 H   0  0  0  0  0  0
  -28.8458  -23.2105   22.3244 H   0  0  0  0  0  0
  -30.8543  -22.6301   19.9385 H   0  0  0  0  0  0
  -29.7131  -22.7938   18.6449 H   0  0  0  0  0  0
  -27.3220  -24.9642   21.8878 H   0  0  0  0  0  0
  -26.5153  -24.1230   20.6055 H   0  0  0  0  0  0
  -30.3706  -25.0223   19.2102 H   0  0  0  0  0  0
  -30.2453  -24.7389   20.9186 H   0  0  0  0  0  0
  -28.0210  -21.7926   19.7847 H   0  0  0  0  0  0
  -27.9306  -24.9107   18.9780 H   0  0  0  0  0  0
  -29.9546  -16.3448   16.6337 H   0  0  0  0  0  0
  -29.1555  -15.3863   17.8582 H   0  0  0  0  0  0
  -30.9388  -15.4509   17.7744 H   0  0  0  0  0  0
  -30.3176  -20.9286   21.6285 H   0  0  0  0  0  0
  -28.6927  -20.3964   21.8927 H   0  0  0  0  0  0
  -28.9598  -15.5219   21.1151 H   0  0  0  0  0  0
  1 25  1  0  0  0
  1 30  2  0  0  0
  1 85  1  0  0  0
  2  3  1  0  0  0
  2 25  1  0  0  0
  2 86  1  0  0  0
  2 87  1  0  0  0
  3  4  1  0  0  0
  3 88  1  0  0  0
  3 89  1  0  0  0
  4  5  1  0  0  0
  4 90  1  0  0  0
  4 91  1  0  0  0
  5  6  1  0  0  0
  5 26  1  0  0  0
  5 92  1  0  0  0
  6 25  1  0  0  0
  6 93  1  0  0  0
  6 94  1  0  0  0
  7  8  2  0  0  0
  7 26  1  0  0  0
  7 29  1  0  0  0
  8  9  1  0  0  0
  8 22  1  0  0  0
  9 10  1  0  0  0
  9 27  2  0  0  0
 10 11  2  0  0  0
 10 15  1  0  0  0
 11 12  1  0  0  0
 11 95  1  0  0  0
 12 13  2  0  0  0
 12 96  1  0  0  0
 13 14  1  0  0  0
 13 31  1  0  0  0
 14 15  2  0  0  0
 14 97  1  0  0  0
 15 98  1  0  0  0
 16 17  2  0  0  0
 16 21  1  0  0  0
 16 31  1  0  0  0
 17 18  1  0  0  0
 17 99  1  0  0  0
 18 19  2  0  0  0
 18100  1  0  0  0
 19 20  1  0  0  0
 19 24  1  0  0  0
 20 21  2  0  0  0
 20101  1  0  0  0
 21 23  1  0  0  0
 22 28  1  0  0  0
 22 32  2  0  0  0
 26 27  1  0  0  0
 28102  1  0  0  0
 28103  1  0  0  0
 29104  1  0  0  0
 29105  1  0  0  0
 33 34  1  0  0  0
 33 66  1  0  0  0
 33 70  2  0  0  0
 34 36  1  0  0  0
 34 59  1  0  0  0
 34106  1  0  0  0
 35 44  2  0  0  0
 35 45  1  0  0  0
 35 68  1  0  0  0
 36 56  1  0  0  0
 36107  1  0  0  0
 37 39  1  0  0  0
 37 47  1  0  0  0
 37 66  1  0  0  0
 37108  1  0  0  0
 38 43  2  0  0  0
 38 46  1  0  0  0
 38 47  1  0  0  0
 39 64  1  0  0  0
 39 67  2  0  0  0
 40 52  1  0  0  0
 40 53  2  0  0  0
 40 58  1  0  0  0
 41109  1  0  0  0
 41110  1  0  0  0
 41111  1  0  0  0
 41 48  1  0  0  0
 42 43  1  0  0  0
 42 66  1  0  0  0
 42112  1  0  0  0
 42113  1  0  0  0
 43 44  1  0  0  0
 44114  1  0  0  0
 45 46  2  0  0  0
 45115  1  0  0  0
 46116  1  0  0  0
 47117  1  0  0  0
 47118  1  0  0  0
 48 56  1  0  0  0
 48 65  1  0  0  0
 48119  1  0  0  0
 49 50  1  0  0  0
 49 53  1  0  0  0
 49 64  1  0  0  0
 49120  1  0  0  0
 50 51  1  0  0  0
 50121  1  0  0  0
 50122  1  0  0  0
 51 52  1  0  0  0
 51123  1  0  0  0
 51124  1  0  0  0
 52125  1  0  0  0
 52126  1  0  0  0
 53 54  1  0  0  0
 54 55  2  0  0  0
 54127  1  0  0  0
 55 57  1  0  0  0
 55128  1  0  0  0
 56 69  2  0  0  0
 57 58  2  0  0  0
 57129  1  0  0  0
 58130  1  0  0  0
 59 60  1  0  0  0
 59 61  1  0  0  0
 59 62  1  0  0  0
 60131  1  0  0  0
 60132  1  0  0  0
 60133  1  0  0  0
 61134  1  0  0  0
 61135  1  0  0  0
 61136  1  0  0  0
 62137  1  0  0  0
 62138  1  0  0  0
 62139  1  0  0  0
 63 65  1  0  0  0
 63140  1  0  0  0
 63141  1  0  0  0
 63142  1  0  0  0
 64143  1  0  0  0
 65144  1  0  0  0
 68 81  1  0  0  0
 71 72  2  0  0  0
 71 73  1  0  0  0
 71145  1  0  0  0
 72 74  1  0  0  0
 72146  1  0  0  0
 73 75  2  0  0  0
 73 82  1  0  0  0
 74 83  1  0  0  0
 74 84  2  0  0  0
 75 84  1  0  0  0
 75 85  1  0  0  0
 76 78  1  0  0  0
 76 80  1  0  0  0
 76147  1  0  0  0
 76148  1  0  0  0
 77 79  1  0  0  0
 77 80  1  0  0  0
 77149  1  0  0  0
 77150  1  0  0  0
 78 81  1  0  0  0
 78151  1  0  0  0
 78152  1  0  0  0
 79 81  1  0  0  0
 79153  1  0  0  0
 79154  1  0  0  0
 80 83  1  0  0  0
 80155  1  0  0  0
 81156  1  0  0  0
 82157  1  0  0  0
 82158  1  0  0  0
 82159  1  0  0  0
 83160  1  0  0  0
 83161  1  0  0  0
 85162  1  0  0  0
M  ISO  4   1 100  68 101  81 101  85 100
M  END
> <chiral flag>
0

> <version>
0

> <s_m_source_file>
/data/baiqing/PycharmProjects/Reinvent-master-3.2/result/LINK_invent/BTK/process_docking_weight1_custom_sum_contain_oxygen_bond_distance_aromatic_linkinvent_7_9_3/rearranged_h_0120.sdf

> <i_m_source_file_index>
54

> <r_mmod_Potential_Energy-OPLS-2005>
-29.6836700439453

> <r_mmod_Stretch_Energy-OPLS-2005>
73.1743469238281

> <r_mmod_Bend_Energy-OPLS-2005>
137.338714599609

> <r_mmod_Torsional_Energy-OPLS-2005>
285.877288818359

> <r_mmod_Improper_Torsional_Energy-OPLS-2005>
5.69462060928345

> <r_mmod_Van_der_Waal_Energy-OPLS-2005>
152.572784423828

> <r_mmod_Electrostatic_Energy-OPLS-2005>
-514.946166992188

> <r_mmod_Solvation_Energy-OPLS-2005>
-214.541534423828

> <b_mmod_Minimization_Converged-OPLS-2005>
0

> <r_mmod_RMS_Derivative-OPLS-2005>
0.689455986022949

$$$$
54
                    3D
 Structure written by MMmdl.
156164  0  0  1  0            999 V2000
  -29.2188  -15.8735   20.6437 C   0  0  0  0  0  0
  -30.1825  -13.4168   19.6983 C   0  0  0  0  0  0
  -29.4971  -12.7692   18.4410 C   0  0  0  0  0  0
  -28.0994  -12.2482   18.7975 C   0  0  0  0  0  0
  -27.4536  -13.2179   19.7997 C   0  0  2  0  0  0
  -28.3013  -13.4710   21.0328 C   0  0  0  0  0  0
  -25.1640  -13.7918   20.5552 C   0  0  0  0  0  0
  -24.1133  -13.0203   20.9304 C   0  0  0  0  0  0
  -24.5817  -11.6689   20.8825 C   0  0  0  0  0  0
  -23.8700  -10.4122   21.0539 C   0  0  0  0  0  0
  -24.3407   -9.4076   21.9254 C   0  0  0  0  0  0
  -23.6147   -8.2092   22.0782 C   0  0  0  0  0  0
  -22.4130   -8.0138   21.3570 C   0  0  0  0  0  0
  -21.9710   -9.0078   20.4671 C   0  0  0  0  0  0
  -22.6973  -10.1966   20.3104 C   0  0  0  0  0  0
  -21.6787   -6.0641   22.5309 C   0  0  0  0  0  0
  -21.3959   -6.5585   23.8231 C   0  0  0  0  0  0
  -21.3642   -5.6764   24.9209 C   0  0  0  0  0  0
  -21.6055   -4.3031   24.7263 C   0  0  0  0  0  0
  -21.8826   -3.8095   23.4394 C   0  0  0  0  0  0
  -21.9163   -4.6884   22.3439 C   0  0  0  0  0  0
  -22.7293  -13.5091   21.2047 C   0  0  0  0  0  0
  -22.1646   -4.2085   21.1013 F   0  0  0  0  0  0
  -21.5634   -3.4525   25.7777 F   0  0  0  0  0  0
  -29.2307  -14.3971   20.4792 N   0  0  0  0  0  0
  -26.1630  -12.8942   20.2620 N   0  0  0  0  0  0
  -25.8566  -11.6167   20.5462 N   0  0  0  0  0  0
  -21.9960  -12.8182   22.0649 N   0  0  0  0  0  0
  -25.3454  -15.1645   20.4150 N   0  0  0  0  0  0
  -30.4761  -16.0365   20.4430 O   0  0  0  0  0  0
  -21.6547   -6.8727   21.4243 O   0  0  0  0  0  0
  -22.3117  -14.5460   20.6899 O   0  0  0  0  0  0
  -24.6410  -31.9115   23.2409 C   0  0  0  0  0  0
  -25.9354  -32.4988   23.8741 C   0  0  1  0  0  0
  -26.8058  -27.3320   20.1478 C   0  0  0  0  0  0
  -25.6256  -33.8781   24.2592 N   0  0  0  0  0  0
  -23.4535  -30.5963   21.5320 C   0  0  2  0  0  0
  -25.0419  -29.4127   19.7527 C   0  0  0  0  0  0
  -22.8226  -29.5376   22.5033 C   0  0  0  0  0  0
  -18.7066  -27.3846   22.6758 C   0  0  0  0  0  0
  -24.1527  -36.7331   23.2590 C   0  0  0  0  0  0
  -26.0094  -30.8574   21.4784 C   0  0  0  0  0  0
  -26.0656  -29.5890   20.6754 C   0  0  0  0  0  0
  -27.0003  -28.5360   20.8881 C   0  0  0  0  0  0
  -26.2340  -27.4486   18.8953 C   0  0  0  0  0  0
  -25.2072  -28.4052   18.7666 C   0  0  0  0  0  0
  -23.7179  -30.1643   20.0331 C   0  0  0  0  0  0
  -25.4135  -36.3172   24.0331 C   0  0  1  0  0  0
  -20.9711  -28.0154   23.0904 C   0  0  2  0  0  0
  -21.5354  -26.4160   22.9745 C   0  0  0  0  0  0
  -21.2930  -24.9839   22.0546 C   0  0  0  0  0  0
  -19.5012  -25.9142   21.9683 C   0  0  0  0  0  0
  -19.5230  -28.3878   23.2117 C   0  0  0  0  0  0
  -19.1244  -29.6784   23.7515 C   0  0  0  0  0  0
  -17.7826  -30.0977   23.8156 C   0  0  0  0  0  0
  -25.9103  -34.9554   23.5164 C   0  0  0  0  0  0
  -16.8540  -29.1697   23.3139 C   0  0  0  0  0  0
  -17.3000  -27.8844   22.7729 C   0  0  0  0  0  0
  -26.4601  -31.6651   25.1055 C   0  0  0  0  0  0
  -25.3765  -31.3828   26.1680 C   0  0  0  0  0  0
  -27.0451  -30.3020   24.6631 C   0  0  0  0  0  0
  -27.6154  -32.4310   25.7879 C   0  0  0  0  0  0
  -27.5621  -37.1811   24.8423 C   0  0  0  0  0  0
  -21.5824  -29.0932   22.2932 N   0  0  0  0  0  0
  -26.4297  -37.3876   23.9424 N   0  0  0  0  0  0
  -24.7078  -31.1458   22.1233 N   0  0  0  0  0  0
  -23.4950  -29.0375   23.4103 O   0  0  0  0  0  0
  -26.2090  -26.2242   20.7476 O   0  0  0  0  0  0
  -26.5490  -34.8954   22.4614 O   0  0  0  0  0  0
  -23.5546  -32.1878   23.7716 O   0  0  0  0  0  0
  -23.5469  -23.9245   22.2167 C   0  0  0  0  0  0
  -21.9082  -24.8976   19.9398 C   0  0  0  0  0  0
  -23.3551  -25.2938   20.9971 C   0  0  0  0  0  0
  -22.7682  -22.4759   21.8822 C   0  0  0  0  0  0
  -23.8006  -27.3109   20.8808 C   0  0  0  0  0  0
  -20.2397  -22.3043   20.2427 C   0  0  0  0  0  0
  -25.3893  -20.0260   21.5393 C   0  0  0  0  0  0
  -26.4026  -18.1311   21.1167 C   0  0  0  0  0  0
  -24.5895  -26.1426   20.5041 C   0  0  1  0  0  0
  -21.3486  -23.1006   20.7332 N   0  0  0  0  0  0
  -23.7223  -20.9484   21.6321 N   0  0  0  0  0  0
  -28.0965  -17.1325   20.8905 N   0  0  0  0  0  0
  -31.0738  -13.9434   19.3567 H   0  0  0  0  0  0
  -30.5767  -12.6440   20.3594 H   0  0  0  0  0  0
  -30.1166  -11.9759   18.0252 H   0  0  0  0  0  0
  -29.4025  -13.5240   17.6602 H   0  0  0  0  0  0
  -28.2033  -11.2612   19.2532 H   0  0  0  0  0  0
  -27.4856  -12.1195   17.9064 H   0  0  0  0  0  0
  -27.3094  -14.1319   19.2182 H   0  0  0  0  0  0
  -28.7234  -12.5568   21.4538 H   0  0  0  0  0  0
  -27.7459  -13.9582   21.8314 H   0  0  0  0  0  0
  -25.2528   -9.5608   22.4839 H   0  0  0  0  0  0
  -23.9883   -7.4464   22.7483 H   0  0  0  0  0  0
  -21.0649   -8.8559   19.8963 H   0  0  0  0  0  0
  -22.3429  -10.9513   19.6236 H   0  0  0  0  0  0
  -21.1942   -7.6094   23.9723 H   0  0  0  0  0  0
  -21.1467   -6.0495   25.9120 H   0  0  0  0  0  0
  -22.0617   -2.7550   23.2928 H   0  0  0  0  0  0
  -22.3503  -11.9789   22.5016 H   0  0  0  0  0  0
  -21.0636  -13.1323   22.2907 H   0  0  0  0  0  0
  -24.5842  -15.8123   20.5836 H   0  0  0  0  0  0
  -26.2096  -15.6238   20.1549 H   0  0  0  0  0  0
  -26.7565  -32.5665   23.1628 H   0  0  0  0  0  0
  -25.0814  -34.0031   25.1000 H   0  0  0  0  0  0
  -22.7228  -31.4054   21.4814 H   0  0  0  0  0  0
  -23.3825  -35.9616   23.3182 H   0  0  0  0  0  0
  -24.3704  -36.8978   22.2021 H   0  0  0  0  0  0
  -23.7201  -37.6493   23.6631 H   0  0  0  0  0  0
  -26.2615  -31.6951   20.8230 H   0  0  0  0  0  0
  -26.8372  -30.7621   22.1674 H   0  0  0  0  0  0
  -27.5932  -28.5491   21.7906 H   0  0  0  0  0  0
  -26.2014  -26.5954   18.2298 H   0  0  0  0  0  0
  -24.4725  -28.2963   17.9777 H   0  0  0  0  0  0
  -23.7740  -31.0915   19.4629 H   0  0  0  0  0  0
  -22.8548  -29.6573   19.6034 H   0  0  0  0  0  0
  -25.1251  -36.2051   25.0815 H   0  0  0  0  0  0
  -21.2767  -28.2513   24.1122 H   0  0  0  0  0  0
  -21.2880  -26.0487   23.9734 H   0  0  0  0  0  0
  -22.6107  -26.4965   23.1280 H   0  0  0  0  0  0
  -21.1152  -24.2625   22.8603 H   0  0  0  0  0  0
  -23.0339  -23.6119   20.4485 H   0  0  0  0  0  0
  -19.3656  -26.1006   20.9031 H   0  0  0  0  0  0
  -18.7814  -25.1195   22.1678 H   0  0  0  0  0  0
  -19.8906  -30.3537   24.1147 H   0  0  0  0  0  0
  -17.4902  -31.0582   24.2171 H   0  0  0  0  0  0
  -15.7991  -29.4139   23.3180 H   0  0  0  0  0  0
  -16.5312  -27.2296   22.3959 H   0  0  0  0  0  0
  -24.5909  -30.7263   25.7922 H   0  0  0  0  0  0
  -24.9071  -32.3041   26.5124 H   0  0  0  0  0  0
  -25.7987  -30.8932   27.0461 H   0  0  0  0  0  0
  -26.3147  -29.6782   24.1474 H   0  0  0  0  0  0
  -27.3826  -29.7239   25.5235 H   0  0  0  0  0  0
  -27.9197  -30.4160   24.0222 H   0  0  0  0  0  0
  -27.2781  -33.3562   26.2547 H   0  0  0  0  0  0
  -28.4023  -32.6887   25.0794 H   0  0  0  0  0  0
  -28.0814  -31.8393   26.5757 H   0  0  0  0  0  0
  -28.2436  -38.0296   24.7701 H   0  0  0  0  0  0
  -28.1302  -36.2812   24.5961 H   0  0  0  0  0  0
  -27.2367  -37.1117   25.8823 H   0  0  0  0  0  0
  -21.0226  -29.5083   21.5633 H   0  0  0  0  0  0
  -26.0147  -38.2888   24.1627 H   0  0  0  0  0  0
  -24.4587  -23.8937   22.7934 H   0  0  0  0  0  0
  -21.4382  -25.3578   19.0779 H   0  0  0  0  0  0
  -23.3845  -27.6865   19.9629 H   0  0  0  0  0  0
  -24.4289  -27.9038   21.5275 H   0  0  0  0  0  0
  -22.7863  -27.3098   21.2258 H   0  0  0  0  0  0
  -19.6396  -22.8976   19.5516 H   0  0  0  0  0  0
  -19.6034  -21.9886   21.0682 H   0  0  0  0  0  0
  -20.6098  -21.4231   19.7253 H   0  0  0  0  0  0
  -25.9849  -20.7369   20.9674 H   0  0  0  0  0  0
  -25.7287  -20.2000   22.5608 H   0  0  0  0  0  0
  -25.9360  -17.8859   20.1631 H   0  0  0  0  0  0
  -25.9018  -17.4771   21.8297 H   0  0  0  0  0  0
  -24.4602  -25.9033   19.4470 H   0  0  0  0  0  0
  -23.0137  -20.3009   21.2794 H   0  0  0  0  0  0
  -28.7515  -17.9009   20.8563 H   0  0  0  0  0  0
  1 25  1  0  0  0
  1 30  2  0  0  0
  1 82  1  0  0  0
  2  3  1  0  0  0
  2 25  1  0  0  0
  2 83  1  0  0  0
  2 84  1  0  0  0
  3  4  1  0  0  0
  3 85  1  0  0  0
  3 86  1  0  0  0
  4  5  1  0  0  0
  4 87  1  0  0  0
  4 88  1  0  0  0
  5  6  1  0  0  0
  5 26  1  0  0  0
  5 89  1  0  0  0
  6 25  1  0  0  0
  6 90  1  0  0  0
  6 91  1  0  0  0
  7  8  2  0  0  0
  7 26  1  0  0  0
  7 29  1  0  0  0
  8  9  1  0  0  0
  8 22  1  0  0  0
  9 10  1  0  0  0
  9 27  2  0  0  0
 10 11  2  0  0  0
 10 15  1  0  0  0
 11 12  1  0  0  0
 11 92  1  0  0  0
 12 13  2  0  0  0
 12 93  1  0  0  0
 13 14  1  0  0  0
 13 31  1  0  0  0
 14 15  2  0  0  0
 14 94  1  0  0  0
 15 95  1  0  0  0
 16 17  2  0  0  0
 16 21  1  0  0  0
 16 31  1  0  0  0
 17 18  1  0  0  0
 17 96  1  0  0  0
 18 19  2  0  0  0
 18 97  1  0  0  0
 19 20  1  0  0  0
 19 24  1  0  0  0
 20 21  2  0  0  0
 20 98  1  0  0  0
 21 23  1  0  0  0
 22 28  1  0  0  0
 22 32  2  0  0  0
 26 27  1  0  0  0
 28 99  1  0  0  0
 28100  1  0  0  0
 29101  1  0  0  0
 29102  1  0  0  0
 33 34  1  0  0  0
 33 66  1  0  0  0
 33 70  2  0  0  0
 34 36  1  0  0  0
 34 59  1  0  0  0
 34103  1  0  0  0
 35 44  2  0  0  0
 35 45  1  0  0  0
 35 68  1  0  0  0
 36 56  1  0  0  0
 36104  1  0  0  0
 37 39  1  0  0  0
 37 47  1  0  0  0
 37 66  1  0  0  0
 37105  1  0  0  0
 38 43  2  0  0  0
 38 46  1  0  0  0
 38 47  1  0  0  0
 39 64  1  0  0  0
 39 67  2  0  0  0
 40 52  1  0  0  0
 40 53  2  0  0  0
 40 58  1  0  0  0
 41106  1  0  0  0
 41107  1  0  0  0
 41108  1  0  0  0
 41 48  1  0  0  0
 42 43  1  0  0  0
 42 66  1  0  0  0
 42109  1  0  0  0
 42110  1  0  0  0
 43 44  1  0  0  0
 44111  1  0  0  0
 45 46  2  0  0  0
 45112  1  0  0  0
 46113  1  0  0  0
 47114  1  0  0  0
 47115  1  0  0  0
 48 56  1  0  0  0
 48 65  1  0  0  0
 48116  1  0  0  0
 49 50  1  0  0  0
 49 53  1  0  0  0
 49 64  1  0  0  0
 49117  1  0  0  0
 50 51  1  0  0  0
 50118  1  0  0  0
 50119  1  0  0  0
 51 52  1  0  0  0
 51120  1  0  0  0
 51121  1  0  0  0
 52122  1  0  0  0
 52123  1  0  0  0
 53 54  1  0  0  0
 54 55  2  0  0  0
 54124  1  0  0  0
 55 57  1  0  0  0
 55125  1  0  0  0
 56 69  2  0  0  0
 57 58  2  0  0  0
 57126  1  0  0  0
 58127  1  0  0  0
 59 60  1  0  0  0
 59 61  1  0  0  0
 59 62  1  0  0  0
 60128  1  0  0  0
 60129  1  0  0  0
 60130  1  0  0  0
 61131  1  0  0  0
 61132  1  0  0  0
 61133  1  0  0  0
 62134  1  0  0  0
 62135  1  0  0  0
 62136  1  0  0  0
 63 65  1  0  0  0
 63137  1  0  0  0
 63138  1  0  0  0
 63139  1  0  0  0
 64140  1  0  0  0
 65141  1  0  0  0
 68 79  1  0  0  0
 71 73  1  0  0  0
 71 74  2  0  0  0
 71142  1  0  0  0
 72 73  2  0  0  0
 72 80  1  0  0  0
 72143  1  0  0  0
 73 79  1  0  0  0
 74 80  1  0  0  0
 74 81  1  0  0  0
 75144  1  0  0  0
 75145  1  0  0  0
 75146  1  0  0  0
 75 79  1  0  0  0
 76 80  1  0  0  0
 76147  1  0  0  0
 76148  1  0  0  0
 76149  1  0  0  0
 77 78  1  0  0  0
 77 81  1  0  0  0
 77150  1  0  0  0
 77151  1  0  0  0
 78 82  1  0  0  0
 78152  1  0  0  0
 78153  1  0  0  0
 79154  1  0  0  0
 81155  1  0  0  0
 82156  1  0  0  0
M  ISO  4   1 100  68 101  79 101  82 100
M  END
> <chiral flag>
0

> <version>
0

> <s_m_source_file>
/data/baiqing/PycharmProjects/Reinvent-master-3.2/result/LINK_invent/BTK/process_docking_weight1_custom_sum_contain_oxygen_bond_distance_aromatic_linkinvent_7_9_3/rearranged_h_0120.sdf

> <i_m_source_file_index>
55

> <r_mmod_Potential_Energy-OPLS-2005>
16183.1376953125

> <r_mmod_Stretch_Energy-OPLS-2005>
8772.2353515625

> <r_mmod_Bend_Energy-OPLS-2005>
1525.80700683594

> <r_mmod_Torsional_Energy-OPLS-2005>
599.206909179688

> <r_mmod_Improper_Torsional_Energy-OPLS-2005>
58.1609077453613

> <r_mmod_Van_der_Waal_Energy-OPLS-2005>
2399.22094726562

> <r_mmod_Electrostatic_Energy-OPLS-2005>
-466.169982910156

> <r_mmod_Solvation_Energy-OPLS-2005>
-230.497589111328

> <b_mmod_Minimization_Converged-OPLS-2005>
0

> <r_mmod_RMS_Derivative-OPLS-2005>
11.0951747894287

$$$$
55
                    3D
 Structure written by MMmdl.
153161  0  0  1  0            999 V2000
  -30.6579  -14.5724   20.5392 C   0  0  0  0  0  0
  -30.4309  -12.3634   19.4310 C   0  0  0  0  0  0
  -29.5001  -12.5094   18.2076 C   0  0  0  0  0  0
  -28.0216  -12.3558   18.6221 C   0  0  0  0  0  0
  -27.6533  -13.2149   19.8620 C   0  0  2  0  0  0
  -28.6987  -13.0430   20.9863 C   0  0  0  0  0  0
  -25.2560  -13.8174   20.5690 C   0  0  0  0  0  0
  -24.1832  -13.0436   20.9201 C   0  0  0  0  0  0
  -24.6400  -11.6907   20.8745 C   0  0  0  0  0  0
  -23.9077  -10.4286   21.0405 C   0  0  0  0  0  0
  -24.3629   -9.4200   21.9181 C   0  0  0  0  0  0
  -23.6297   -8.2242   22.0758 C   0  0  0  0  0  0
  -22.4274   -8.0290   21.3555 C   0  0  0  0  0  0
  -21.9911   -9.0265   20.4654 C   0  0  0  0  0  0
  -22.7251  -10.2136   20.3054 C   0  0  0  0  0  0
  -21.6847   -6.0746   22.5294 C   0  0  0  0  0  0
  -21.4013   -6.5647   23.8229 C   0  0  0  0  0  0
  -21.3660   -5.6797   24.9188 C   0  0  0  0  0  0
  -21.6039   -4.3061   24.7236 C   0  0  0  0  0  0
  -21.8811   -3.8157   23.4356 C   0  0  0  0  0  0
  -21.9190   -4.6975   22.3415 C   0  0  0  0  0  0
  -22.7854  -13.5234   21.1854 C   0  0  0  0  0  0
  -22.1656   -4.2160   21.0991 F   0  0  0  0  0  0
  -21.5623   -3.4542   25.7747 F   0  0  0  0  0  0
  -30.0162  -13.3726   20.4207 N   0  0  0  0  0  0
  -26.2987  -12.9354   20.3308 N   0  0  0  0  0  0
  -25.9320  -11.6508   20.5739 N   0  0  0  0  0  0
  -22.0485  -12.8238   22.0410 N   0  0  0  0  0  0
  -25.4242  -15.1904   20.4118 N   0  0  0  0  0  0
  -31.8176  -14.7385   20.1535 O   0  0  0  0  0  0
  -21.6638   -6.8889   21.4255 O   0  0  0  0  0  0
  -22.3544  -14.5540   20.6698 O   0  0  0  0  0  0
  -24.6196  -31.8635   23.2042 C   0  0  0  0  0  0
  -25.9066  -32.4799   23.8358 C   0  0  1  0  0  0
  -27.2335  -27.3733   20.1200 C   0  0  0  0  0  0
  -25.5905  -33.8597   24.2292 N   0  0  0  0  0  0
  -23.4112  -30.4840   21.5453 C   0  0  2  0  0  0
  -24.8592  -28.9371   20.1169 C   0  0  0  0  0  0
  -22.7439  -29.4632   22.4960 C   0  0  0  0  0  0
  -18.0279  -28.1380   22.8489 C   0  0  0  0  0  0
  -24.1488  -36.7302   23.2641 C   0  0  0  0  0  0
  -25.9444  -30.8117   21.3647 C   0  0  0  0  0  0
  -26.0222  -29.4397   20.7142 C   0  0  0  0  0  0
  -27.2144  -28.6690   20.7029 C   0  0  0  0  0  0
  -26.0521  -26.8959   19.5160 C   0  0  0  0  0  0
  -24.8720  -27.6676   19.5114 C   0  0  0  0  0  0
  -23.6235  -29.8119   20.1617 C   0  0  0  0  0  0
  -25.4112  -36.3093   24.0331 C   0  0  1  0  0  0
  -20.5874  -28.3668   23.1311 C   0  0  2  0  0  0
  -20.6770  -26.9399   22.5422 C   0  0  0  0  0  0
  -19.5748  -26.6379   21.5221 C   0  0  0  0  0  0
  -18.1925  -26.7921   22.1627 C   0  0  0  0  0  0
  -19.1530  -28.8838   23.2896 C   0  0  0  0  0  0
  -18.9454  -30.1445   23.8908 C   0  0  0  0  0  0
  -17.6456  -30.6584   24.0560 C   0  0  0  0  0  0
  -25.9041  -34.9462   23.5108 C   0  0  0  0  0  0
  -16.5348  -29.9088   23.6324 C   0  0  0  0  0  0
  -16.7267  -28.6505   23.0345 C   0  0  0  0  0  0
  -26.4468  -31.6596   25.0710 C   0  0  0  0  0  0
  -25.3723  -31.3730   26.1456 C   0  0  0  0  0  0
  -27.0301  -30.3028   24.6126 C   0  0  0  0  0  0
  -27.6027  -32.4332   25.7478 C   0  0  0  0  0  0
  -27.5577  -37.1811   24.8465 C   0  0  0  0  0  0
  -21.4160  -29.3032   22.3710 N   0  0  0  0  0  0
  -26.4292  -37.3785   23.9411 N   0  0  0  0  0  0
  -24.6767  -31.0692   22.0957 N   0  0  0  0  0  0
  -23.4189  -28.8177   23.3023 O   0  0  0  0  0  0
  -28.3855  -26.5983   20.1027 O   0  0  0  0  0  0
  -26.5597  -34.8921   22.4671 O   0  0  0  0  0  0
  -23.5378  -32.1393   23.7419 O   0  0  0  0  0  0
  -30.0992  -19.1028   18.1290 C   0  0  0  0  0  0
  -30.2705  -17.9989   18.9851 C   0  0  0  0  0  0
  -29.6838  -20.3346   18.6676 C   0  0  0  0  0  0
  -30.0214  -18.1523   20.3585 C   0  0  0  0  0  0
  -29.4400  -20.4350   20.0490 C   0  0  0  0  0  0
  -30.3302  -16.9876   21.3347 C   0  0  0  0  0  0
  -28.6669  -24.0587   19.7142 C   0  0  0  0  0  0
  -28.3260  -25.2554   20.6784 C   0  0  0  0  0  0
  -29.5853  -22.8874   20.2519 C   0  0  0  0  0  0
  -29.5926  -19.3507   20.8721 N   0  0  0  0  0  0
  -29.9005  -15.6102   20.9719 N   0  0  0  0  0  0
  -28.9834  -21.6175   20.6412 O   0  0  0  0  0  0
  -31.4730  -12.4803   19.1305 H   0  0  0  0  0  0
  -30.3527  -11.3622   19.8582 H   0  0  0  0  0  0
  -29.7548  -11.7679   17.4486 H   0  0  0  0  0  0
  -29.6520  -13.4852   17.7429 H   0  0  0  0  0  0
  -27.8468  -11.3019   18.8403 H   0  0  0  0  0  0
  -27.3684  -12.6034   17.7847 H   0  0  0  0  0  0
  -27.6792  -14.2549   19.5360 H   0  0  0  0  0  0
  -28.6990  -12.0163   21.3557 H   0  0  0  0  0  0
  -28.4541  -13.6651   21.8487 H   0  0  0  0  0  0
  -25.2770   -9.5676   22.4761 H   0  0  0  0  0  0
  -24.0011   -7.4626   22.7470 H   0  0  0  0  0  0
  -21.0838   -8.8790   19.8959 H   0  0  0  0  0  0
  -22.3711  -10.9683   19.6170 H   0  0  0  0  0  0
  -21.2009   -7.6156   23.9740 H   0  0  0  0  0  0
  -21.1484   -6.0525   25.9091 H   0  0  0  0  0  0
  -22.0586   -2.7620   23.2855 H   0  0  0  0  0  0
  -22.4083  -11.9914   22.4839 H   0  0  0  0  0  0
  -21.1105  -13.1277   22.2594 H   0  0  0  0  0  0
  -24.6516  -15.8388   20.5197 H   0  0  0  0  0  0
  -26.2660  -15.6352   20.0678 H   0  0  0  0  0  0
  -26.7138  -32.5485   23.1114 H   0  0  0  0  0  0
  -25.0071  -33.9753   25.0448 H   0  0  0  0  0  0
  -22.7016  -31.3015   21.4020 H   0  0  0  0  0  0
  -23.3741  -35.9644   23.3311 H   0  0  0  0  0  0
  -24.3588  -36.8910   22.2056 H   0  0  0  0  0  0
  -23.7245  -37.6513   23.6652 H   0  0  0  0  0  0
  -26.0643  -31.5745   20.5943 H   0  0  0  0  0  0
  -26.8292  -30.8668   21.9873 H   0  0  0  0  0  0
  -28.1141  -29.0548   21.1611 H   0  0  0  0  0  0
  -26.0443  -25.9227   19.0458 H   0  0  0  0  0  0
  -23.9798  -27.2759   19.0427 H   0  0  0  0  0  0
  -23.7407  -30.5855   19.4013 H   0  0  0  0  0  0
  -22.7450  -29.2370   19.8630 H   0  0  0  0  0  0
  -25.1295  -36.1947   25.0822 H   0  0  0  0  0  0
  -20.9969  -28.3242   24.1431 H   0  0  0  0  0  0
  -20.5678  -26.2275   23.3615 H   0  0  0  0  0  0
  -21.6640  -26.7442   22.1213 H   0  0  0  0  0  0
  -19.6912  -25.6293   21.1249 H   0  0  0  0  0  0
  -19.6690  -27.3191   20.6753 H   0  0  0  0  0  0
  -17.4198  -26.6666   21.4027 H   0  0  0  0  0  0
  -18.0320  -26.0066   22.9025 H   0  0  0  0  0  0
  -19.7929  -30.7252   24.2290 H   0  0  0  0  0  0
  -17.5013  -31.6269   24.5156 H   0  0  0  0  0  0
  -15.5351  -30.2994   23.7641 H   0  0  0  0  0  0
  -15.8664  -28.0830   22.7051 H   0  0  0  0  0  0
  -24.5875  -30.7097   25.7798 H   0  0  0  0  0  0
  -24.8941  -32.2904   26.4906 H   0  0  0  0  0  0
  -25.8061  -30.8896   27.0220 H   0  0  0  0  0  0
  -26.2862  -29.6798   24.1147 H   0  0  0  0  0  0
  -27.4008  -29.7258   25.4609 H   0  0  0  0  0  0
  -27.8723  -30.4322   23.9323 H   0  0  0  0  0  0
  -27.2623  -33.3617   26.2070 H   0  0  0  0  0  0
  -28.3827  -32.6919   25.0308 H   0  0  0  0  0  0
  -28.0705  -31.8463   26.5389 H   0  0  0  0  0  0
  -28.2596  -38.0105   24.7504 H   0  0  0  0  0  0
  -28.1064  -36.2631   24.6291 H   0  0  0  0  0  0
  -27.2301  -37.1480   25.8870 H   0  0  0  0  0  0
  -20.9323  -29.8760   21.6934 H   0  0  0  0  0  0
  -26.0166  -38.2859   24.1406 H   0  0  0  0  0  0
  -30.2971  -19.0077   17.0712 H   0  0  0  0  0  0
  -30.6243  -17.0553   18.5922 H   0  0  0  0  0  0
  -29.5382  -21.1823   18.0122 H   0  0  0  0  0  0
  -29.8764  -17.2202   22.2983 H   0  0  0  0  0  0
  -31.4064  -16.9913   21.5145 H   0  0  0  0  0  0
  -29.2009  -24.4987   18.8708 H   0  0  0  0  0  0
  -27.7531  -23.6526   19.2801 H   0  0  0  0  0  0
  -29.0506  -25.2611   21.4927 H   0  0  0  0  0  0
  -27.3661  -25.0726   21.1648 H   0  0  0  0  0  0
  -30.1341  -23.2463   21.1221 H   0  0  0  0  0  0
  -30.3707  -22.7129   19.5160 H   0  0  0  0  0  0
  -28.9403  -15.3915   21.1854 H   0  0  0  0  0  0
  1 25  1  0  0  0
  1 30  2  0  0  0
  1 81  1  0  0  0
  2  3  1  0  0  0
  2 25  1  0  0  0
  2 83  1  0  0  0
  2 84  1  0  0  0
  3  4  1  0  0  0
  3 85  1  0  0  0
  3 86  1  0  0  0
  4  5  1  0  0  0
  4 87  1  0  0  0
  4 88  1  0  0  0
  5  6  1  0  0  0
  5 26  1  0  0  0
  5 89  1  0  0  0
  6 25  1  0  0  0
  6 90  1  0  0  0
  6 91  1  0  0  0
  7  8  2  0  0  0
  7 26  1  0  0  0
  7 29  1  0  0  0
  8  9  1  0  0  0
  8 22  1  0  0  0
  9 10  1  0  0  0
  9 27  2  0  0  0
 10 11  2  0  0  0
 10 15  1  0  0  0
 11 12  1  0  0  0
 11 92  1  0  0  0
 12 13  2  0  0  0
 12 93  1  0  0  0
 13 14  1  0  0  0
 13 31  1  0  0  0
 14 15  2  0  0  0
 14 94  1  0  0  0
 15 95  1  0  0  0
 16 17  2  0  0  0
 16 21  1  0  0  0
 16 31  1  0  0  0
 17 18  1  0  0  0
 17 96  1  0  0  0
 18 19  2  0  0  0
 18 97  1  0  0  0
 19 20  1  0  0  0
 19 24  1  0  0  0
 20 21  2  0  0  0
 20 98  1  0  0  0
 21 23  1  0  0  0
 22 28  1  0  0  0
 22 32  2  0  0  0
 26 27  1  0  0  0
 28 99  1  0  0  0
 28100  1  0  0  0
 29101  1  0  0  0
 29102  1  0  0  0
 33 34  1  0  0  0
 33 66  1  0  0  0
 33 70  2  0  0  0
 34 36  1  0  0  0
 34 59  1  0  0  0
 34103  1  0  0  0
 35 44  2  0  0  0
 35 45  1  0  0  0
 35 68  1  0  0  0
 36 56  1  0  0  0
 36104  1  0  0  0
 37 39  1  0  0  0
 37 47  1  0  0  0
 37 66  1  0  0  0
 37105  1  0  0  0
 38 43  2  0  0  0
 38 46  1  0  0  0
 38 47  1  0  0  0
 39 64  1  0  0  0
 39 67  2  0  0  0
 40 52  1  0  0  0
 40 53  2  0  0  0
 40 58  1  0  0  0
 41106  1  0  0  0
 41107  1  0  0  0
 41108  1  0  0  0
 41 48  1  0  0  0
 42 43  1  0  0  0
 42 66  1  0  0  0
 42109  1  0  0  0
 42110  1  0  0  0
 43 44  1  0  0  0
 44111  1  0  0  0
 45 46  2  0  0  0
 45112  1  0  0  0
 46113  1  0  0  0
 47114  1  0  0  0
 47115  1  0  0  0
 48 56  1  0  0  0
 48 65  1  0  0  0
 48116  1  0  0  0
 49 50  1  0  0  0
 49 53  1  0  0  0
 49 64  1  0  0  0
 49117  1  0  0  0
 50 51  1  0  0  0
 50118  1  0  0  0
 50119  1  0  0  0
 51 52  1  0  0  0
 51120  1  0  0  0
 51121  1  0  0  0
 52122  1  0  0  0
 52123  1  0  0  0
 53 54  1  0  0  0
 54 55  2  0  0  0
 54124  1  0  0  0
 55 57  1  0  0  0
 55125  1  0  0  0
 56 69  2  0  0  0
 57 58  2  0  0  0
 57126  1  0  0  0
 58127  1  0  0  0
 59 60  1  0  0  0
 59 61  1  0  0  0
 59 62  1  0  0  0
 60128  1  0  0  0
 60129  1  0  0  0
 60130  1  0  0  0
 61131  1  0  0  0
 61132  1  0  0  0
 61133  1  0  0  0
 62134  1  0  0  0
 62135  1  0  0  0
 62136  1  0  0  0
 63 65  1  0  0  0
 63137  1  0  0  0
 63138  1  0  0  0
 63139  1  0  0  0
 64140  1  0  0  0
 65141  1  0  0  0
 68 78  1  0  0  0
 71 72  2  0  0  0
 71 73  1  0  0  0
 71142  1  0  0  0
 72 74  1  0  0  0
 72143  1  0  0  0
 73 75  2  0  0  0
 73144  1  0  0  0
 74 76  1  0  0  0
 74 80  2  0  0  0
 75 80  1  0  0  0
 75 82  1  0  0  0
 76 81  1  0  0  0
 76145  1  0  0  0
 76146  1  0  0  0
 77 78  1  0  0  0
 77 79  1  0  0  0
 77147  1  0  0  0
 77148  1  0  0  0
 78149  1  0  0  0
 78150  1  0  0  0
 79 82  1  0  0  0
 79151  1  0  0  0
 79152  1  0  0  0
 81153  1  0  0  0
M  ISO  4   1 100  68 101  78 101  81 100
M  END
> <chiral flag>
0

> <version>
0

> <s_m_source_file>
/data/baiqing/PycharmProjects/Reinvent-master-3.2/result/LINK_invent/BTK/process_docking_weight1_custom_sum_contain_oxygen_bond_distance_aromatic_linkinvent_7_9_3/rearranged_h_0120.sdf

> <i_m_source_file_index>
56

> <r_mmod_Potential_Energy-OPLS-2005>
-280.83203125

> <r_mmod_Stretch_Energy-OPLS-2005>
56.7652359008789

> <r_mmod_Bend_Energy-OPLS-2005>
121.635581970215

> <r_mmod_Torsional_Energy-OPLS-2005>
245.105865478516

> <r_mmod_Improper_Torsional_Energy-OPLS-2005>
3.58418083190918

> <r_mmod_Van_der_Waal_Energy-OPLS-2005>
145.888122558594

> <r_mmod_Electrostatic_Energy-OPLS-2005>
-659.8876953125

> <r_mmod_Solvation_Energy-OPLS-2005>
-221.452377319336

> <b_mmod_Minimization_Converged-OPLS-2005>
0

> <r_mmod_RMS_Derivative-OPLS-2005>
1.32665979862213

$$$$
56
                    3D
 Structure written by MMmdl.
166175  0  0  1  0            999 V2000
  -30.6166  -14.7546   20.4670 C   0  0  0  0  0  0
  -30.4453  -12.4680   19.4557 C   0  0  0  0  0  0
  -29.5120  -12.4935   18.2247 C   0  0  0  0  0  0
  -28.0401  -12.3228   18.6502 C   0  0  0  0  0  0
  -27.6481  -13.2269   19.8496 C   0  0  2  0  0  0
  -28.7018  -13.1605   20.9773 C   0  0  0  0  0  0
  -25.2551  -13.8140   20.5733 C   0  0  0  0  0  0
  -24.1834  -13.0416   20.9216 C   0  0  0  0  0  0
  -24.6406  -11.6894   20.8750 C   0  0  0  0  0  0
  -23.9076  -10.4292   21.0422 C   0  0  0  0  0  0
  -24.3621   -9.4216   21.9201 C   0  0  0  0  0  0
  -23.6296   -8.2258   22.0769 C   0  0  0  0  0  0
  -22.4283   -8.0289   21.3557 C   0  0  0  0  0  0
  -21.9924   -9.0259   20.4659 C   0  0  0  0  0  0
  -22.7248  -10.2140   20.3072 C   0  0  0  0  0  0
  -21.6851   -6.0749   22.5284 C   0  0  0  0  0  0
  -21.4003   -6.5649   23.8225 C   0  0  0  0  0  0
  -21.3651   -5.6805   24.9176 C   0  0  0  0  0  0
  -21.6044   -4.3064   24.7224 C   0  0  0  0  0  0
  -21.8820   -3.8158   23.4342 C   0  0  0  0  0  0
  -21.9197   -4.6980   22.3404 C   0  0  0  0  0  0
  -22.7873  -13.5230   21.1865 C   0  0  0  0  0  0
  -22.1672   -4.2167   21.0978 F   0  0  0  0  0  0
  -21.5627   -3.4541   25.7731 F   0  0  0  0  0  0
  -29.9948  -13.5293   20.3820 N   0  0  0  0  0  0
  -26.2998  -12.9366   20.3323 N   0  0  0  0  0  0
  -25.9342  -11.6503   20.5756 N   0  0  0  0  0  0
  -22.0491  -12.8245   22.0409 N   0  0  0  0  0  0
  -25.4209  -15.1886   20.4214 N   0  0  0  0  0  0
  -31.8160  -14.8630   20.1943 O   0  0  0  0  0  0
  -21.6641   -6.8886   21.4249 O   0  0  0  0  0  0
  -22.3613  -14.5571   20.6737 O   0  0  0  0  0  0
  -24.6279  -31.8533   23.2015 C   0  0  0  0  0  0
  -25.9072  -32.4755   23.8403 C   0  0  1  0  0  0
  -27.2432  -27.2649   20.1586 C   0  0  0  0  0  0
  -25.5784  -33.8550   24.2284 N   0  0  0  0  0  0
  -23.4315  -30.4694   21.5472 C   0  0  2  0  0  0
  -24.8792  -28.9077   20.1287 C   0  0  0  0  0  0
  -22.7502  -29.4592   22.4994 C   0  0  0  0  0  0
  -18.0298  -28.1385   22.8531 C   0  0  0  0  0  0
  -24.1476  -36.7339   23.2653 C   0  0  0  0  0  0
  -25.9729  -30.7716   21.3744 C   0  0  0  0  0  0
  -26.0483  -29.3877   20.7293 C   0  0  0  0  0  0
  -27.2319  -28.5819   20.7268 C   0  0  0  0  0  0
  -26.0451  -26.8423   19.5365 C   0  0  0  0  0  0
  -24.8797  -27.6394   19.5236 C   0  0  0  0  0  0
  -23.6476  -29.7931   20.1688 C   0  0  0  0  0  0
  -25.4083  -36.3085   24.0365 C   0  0  1  0  0  0
  -20.5889  -28.3681   23.1262 C   0  0  2  0  0  0
  -20.6780  -26.9386   22.5411 C   0  0  0  0  0  0
  -19.5767  -26.6375   21.5208 C   0  0  0  0  0  0
  -18.1955  -26.7934   22.1634 C   0  0  0  0  0  0
  -19.1547  -28.8850   23.2920 C   0  0  0  0  0  0
  -18.9473  -30.1440   23.8937 C   0  0  0  0  0  0
  -17.6472  -30.6609   24.0508 C   0  0  0  0  0  0
  -25.9004  -34.9439   23.5167 C   0  0  0  0  0  0
  -16.5364  -29.9089   23.6330 C   0  0  0  0  0  0
  -16.7280  -28.6483   23.0391 C   0  0  0  0  0  0
  -26.4446  -31.6542   25.0770 C   0  0  0  0  0  0
  -25.3676  -31.3559   26.1474 C   0  0  0  0  0  0
  -27.0245  -30.2968   24.6164 C   0  0  0  0  0  0
  -27.6083  -32.4212   25.7475 C   0  0  0  0  0  0
  -27.5610  -37.1771   24.8472 C   0  0  0  0  0  0
  -21.4207  -29.3028   22.3665 N   0  0  0  0  0  0
  -26.4286  -37.3732   23.9468 N   0  0  0  0  0  0
  -24.6987  -31.0462   22.1014 N   0  0  0  0  0  0
  -23.4176  -28.8158   23.3139 O   0  0  0  0  0  0
  -28.3646  -26.4018   20.2085 O   0  0  0  0  0  0
  -26.5687  -34.8911   22.4804 O   0  0  0  0  0  0
  -23.5401  -32.1334   23.7267 O   0  0  0  0  0  0
  -29.3927  -22.3353   20.7642 C   0  0  0  0  0  0
  -29.2725  -21.5672   21.9797 C   0  0  0  0  0  0
  -29.6784  -21.2989   19.8687 C   0  0  0  0  0  0
  -27.7376  -21.8173   24.0627 C   0  0  0  0  0  0
  -28.3184  -23.1974   23.8909 C   0  0  0  0  0  0
  -29.0937  -21.9929   23.4173 C   0  0  0  0  0  0
  -29.9867  -21.4895   18.4184 C   0  0  0  0  0  0
  -29.4465  -23.9296   20.5263 C   0  0  0  0  0  0
  -30.1476  -17.3364   21.0533 C   0  0  0  0  0  0
  -31.3348  -18.5791   19.1453 C   0  0  0  0  0  0
  -28.1705  -24.9369   20.5094 C   0  0  0  0  0  0
  -30.0284  -18.5770   19.9958 C   0  0  2  0  0  0
  -29.4221  -20.2447   21.7999 N   0  0  0  0  0  0
  -29.7361  -20.0171   20.5058 N   0  0  0  0  0  0
  -29.8317  -15.8789   20.6682 N   0  0  0  0  0  0
  -31.1032  -18.6094   17.6878 N   0  3  0  0  0  0
  -31.4824  -12.6020   19.1462 H   0  0  0  0  0  0
  -30.4010  -11.4946   19.9442 H   0  0  0  0  0  0
  -29.7908  -11.6981   17.5305 H   0  0  0  0  0  0
  -29.6374  -13.4294   17.6760 H   0  0  0  0  0  0
  -27.9092  -11.2749   18.9250 H   0  0  0  0  0  0
  -27.3769  -12.5000   17.8036 H   0  0  0  0  0  0
  -27.6396  -14.2488   19.4674 H   0  0  0  0  0  0
  -28.7503  -12.1595   21.4090 H   0  0  0  0  0  0
  -28.4398  -13.8335   21.7954 H   0  0  0  0  0  0
  -25.2749   -9.5712   22.4796 H   0  0  0  0  0  0
  -23.9994   -7.4668   22.7514 H   0  0  0  0  0  0
  -21.0853   -8.8794   19.8975 H   0  0  0  0  0  0
  -22.3698  -10.9695   19.6207 H   0  0  0  0  0  0
  -21.1981   -7.6156   23.9727 H   0  0  0  0  0  0
  -21.1472   -6.0524   25.9083 H   0  0  0  0  0  0
  -22.0604   -2.7619   23.2833 H   0  0  0  0  0  0
  -22.4083  -11.9871   22.4771 H   0  0  0  0  0  0
  -21.1134  -13.1329   22.2627 H   0  0  0  0  0  0
  -24.6369  -15.8218   20.5320 H   0  0  0  0  0  0
  -26.2618  -15.6515   20.1082 H   0  0  0  0  0  0
  -26.7160  -32.5425   23.1167 H   0  0  0  0  0  0
  -24.9544  -33.9639   25.0136 H   0  0  0  0  0  0
  -22.7266  -31.2927   21.4008 H   0  0  0  0  0  0
  -23.3708  -35.9692   23.3263 H   0  0  0  0  0  0
  -24.3547  -36.9030   22.2086 H   0  0  0  0  0  0
  -23.7276  -37.6529   23.6719 H   0  0  0  0  0  0
  -26.0735  -31.5119   20.5802 H   0  0  0  0  0  0
  -26.8631  -30.8512   21.9831 H   0  0  0  0  0  0
  -28.1266  -28.9541   21.2084 H   0  0  0  0  0  0
  -25.9872  -25.8742   19.0647 H   0  0  0  0  0  0
  -23.9797  -27.2532   19.0662 H   0  0  0  0  0  0
  -23.7683  -30.5658   19.4087 H   0  0  0  0  0  0
  -22.7659  -29.2234   19.8706 H   0  0  0  0  0  0
  -25.1221  -36.1932   25.0845 H   0  0  0  0  0  0
  -21.0025  -28.3256   24.1361 H   0  0  0  0  0  0
  -20.5635  -26.2295   23.3616 H   0  0  0  0  0  0
  -21.6669  -26.7410   22.1217 H   0  0  0  0  0  0
  -19.6898  -25.6273   21.1265 H   0  0  0  0  0  0
  -19.6687  -27.3172   20.6726 H   0  0  0  0  0  0
  -17.4219  -26.6666   21.4055 H   0  0  0  0  0  0
  -18.0343  -26.0053   22.9001 H   0  0  0  0  0  0
  -19.7932  -30.7232   24.2368 H   0  0  0  0  0  0
  -17.5020  -31.6314   24.5090 H   0  0  0  0  0  0
  -15.5351  -30.2993   23.7673 H   0  0  0  0  0  0
  -15.8665  -28.0784   22.7160 H   0  0  0  0  0  0
  -24.6057  -30.6640   25.7840 H   0  0  0  0  0  0
  -24.8523  -32.2557   26.4824 H   0  0  0  0  0  0
  -25.8045  -30.8898   27.0309 H   0  0  0  0  0  0
  -26.2753  -29.6682   24.1304 H   0  0  0  0  0  0
  -27.4058  -29.7276   25.4644 H   0  0  0  0  0  0
  -27.8603  -30.4273   23.9286 H   0  0  0  0  0  0
  -27.2900  -33.3651   26.1920 H   0  0  0  0  0  0
  -28.3952  -32.6505   25.0267 H   0  0  0  0  0  0
  -28.0656  -31.8344   26.5418 H   0  0  0  0  0  0
  -28.2563  -38.0128   24.7532 H   0  0  0  0  0  0
  -28.1217  -36.2645   24.6289 H   0  0  0  0  0  0
  -27.2337  -37.1411   25.8874 H   0  0  0  0  0  0
  -20.9428  -29.8672   21.6764 H   0  0  0  0  0  0
  -26.0196  -38.2823   24.1382 H   0  0  0  0  0  0
  -26.9061  -21.5487   23.4136 H   0  0  0  0  0  0
  -27.6975  -21.4042   25.0648 H   0  0  0  0  0  0
  -28.6892  -23.7075   24.7777 H   0  0  0  0  0  0
  -27.8046  -23.8278   23.1843 H   0  0  0  0  0  0
  -29.9623  -21.7166   24.0179 H   0  0  0  0  0  0
  -29.6281  -22.4571   18.0682 H   0  0  0  0  0  0
  -29.5000  -20.7385   17.8056 H   0  0  0  0  0  0
  -31.0649  -21.4691   18.2400 H   0  0  0  0  0  0
  -29.9445  -24.1165   19.5768 H   0  0  0  0  0  0
  -30.1573  -24.3359   21.2470 H   0  0  0  0  0  0
  -29.4772  -17.5483   21.8858 H   0  0  0  0  0  0
  -31.1418  -17.3572   21.5038 H   0  0  0  0  0  0
  -31.9379  -17.6913   19.3438 H   0  0  0  0  0  0
  -31.9730  -19.4161   19.4347 H   0  0  0  0  0  0
  -27.6982  -24.9429   21.4860 H   0  0  0  0  0  0
  -27.4348  -24.5030   19.8381 H   0  0  0  0  0  0
  -29.1854  -18.3291   19.3497 H   0  0  0  0  0  0
  -28.8493  -15.6569   20.7252 H   0  0  0  0  0  0
  -30.7084  -17.7391   17.3762 H   0  0  0  0  0  0
  -31.9752  -18.7408   17.2022 H   0  0  0  0  0  0
  -30.4826  -19.3568   17.4247 H   0  0  0  0  0  0
  1 25  1  0  0  0
  1 30  2  0  0  0
  1 85  1  0  0  0
  2  3  1  0  0  0
  2 25  1  0  0  0
  2 87  1  0  0  0
  2 88  1  0  0  0
  3  4  1  0  0  0
  3 89  1  0  0  0
  3 90  1  0  0  0
  4  5  1  0  0  0
  4 91  1  0  0  0
  4 92  1  0  0  0
  5  6  1  0  0  0
  5 26  1  0  0  0
  5 93  1  0  0  0
  6 25  1  0  0  0
  6 94  1  0  0  0
  6 95  1  0  0  0
  7  8  2  0  0  0
  7 26  1  0  0  0
  7 29  1  0  0  0
  8  9  1  0  0  0
  8 22  1  0  0  0
  9 10  1  0  0  0
  9 27  2  0  0  0
 10 11  2  0  0  0
 10 15  1  0  0  0
 11 12  1  0  0  0
 11 96  1  0  0  0
 12 13  2  0  0  0
 12 97  1  0  0  0
 13 14  1  0  0  0
 13 31  1  0  0  0
 14 15  2  0  0  0
 14 98  1  0  0  0
 15 99  1  0  0  0
 16 17  2  0  0  0
 16 21  1  0  0  0
 16 31  1  0  0  0
 17 18  1  0  0  0
 17100  1  0  0  0
 18 19  2  0  0  0
 18101  1  0  0  0
 19 20  1  0  0  0
 19 24  1  0  0  0
 20 21  2  0  0  0
 20102  1  0  0  0
 21 23  1  0  0  0
 22 28  1  0  0  0
 22 32  2  0  0  0
 26 27  1  0  0  0
 28103  1  0  0  0
 28104  1  0  0  0
 29105  1  0  0  0
 29106  1  0  0  0
 33 34  1  0  0  0
 33 66  1  0  0  0
 33 70  2  0  0  0
 34 36  1  0  0  0
 34 59  1  0  0  0
 34107  1  0  0  0
 35 44  2  0  0  0
 35 45  1  0  0  0
 35 68  1  0  0  0
 36 56  1  0  0  0
 36108  1  0  0  0
 37 39  1  0  0  0
 37 47  1  0  0  0
 37 66  1  0  0  0
 37109  1  0  0  0
 38 43  2  0  0  0
 38 46  1  0  0  0
 38 47  1  0  0  0
 39 64  1  0  0  0
 39 67  2  0  0  0
 40 52  1  0  0  0
 40 53  2  0  0  0
 40 58  1  0  0  0
 41110  1  0  0  0
 41111  1  0  0  0
 41112  1  0  0  0
 41 48  1  0  0  0
 42 43  1  0  0  0
 42 66  1  0  0  0
 42113  1  0  0  0
 42114  1  0  0  0
 43 44  1  0  0  0
 44115  1  0  0  0
 45 46  2  0  0  0
 45116  1  0  0  0
 46117  1  0  0  0
 47118  1  0  0  0
 47119  1  0  0  0
 48 56  1  0  0  0
 48 65  1  0  0  0
 48120  1  0  0  0
 49 50  1  0  0  0
 49 53  1  0  0  0
 49 64  1  0  0  0
 49121  1  0  0  0
 50 51  1  0  0  0
 50122  1  0  0  0
 50123  1  0  0  0
 51 52  1  0  0  0
 51124  1  0  0  0
 51125  1  0  0  0
 52126  1  0  0  0
 52127  1  0  0  0
 53 54  1  0  0  0
 54 55  2  0  0  0
 54128  1  0  0  0
 55 57  1  0  0  0
 55129  1  0  0  0
 56 69  2  0  0  0
 57 58  2  0  0  0
 57130  1  0  0  0
 58131  1  0  0  0
 59 60  1  0  0  0
 59 61  1  0  0  0
 59 62  1  0  0  0
 60132  1  0  0  0
 60133  1  0  0  0
 60134  1  0  0  0
 61135  1  0  0  0
 61136  1  0  0  0
 61137  1  0  0  0
 62138  1  0  0  0
 62139  1  0  0  0
 62140  1  0  0  0
 63 65  1  0  0  0
 63141  1  0  0  0
 63142  1  0  0  0
 63143  1  0  0  0
 64144  1  0  0  0
 65145  1  0  0  0
 68 81  1  0  0  0
 71 72  1  0  0  0
 71 73  2  0  0  0
 71 78  1  0  0  0
 72 83  2  0  0  0
 72 76  1  0  0  0
 73 77  1  0  0  0
 73 84  1  0  0  0
 74 75  1  0  0  0
 74 76  1  0  0  0
 74146  1  0  0  0
 74147  1  0  0  0
 75 76  1  0  0  0
 75148  1  0  0  0
 75149  1  0  0  0
 76150  1  0  0  0
 77151  1  0  0  0
 77152  1  0  0  0
 77153  1  0  0  0
 78 81  1  0  0  0
 78154  1  0  0  0
 78155  1  0  0  0
 79 85  1  0  0  0
 79156  1  0  0  0
 79157  1  0  0  0
 79 82  1  0  0  0
 80 82  1  0  0  0
 80 86  1  0  0  0
 80158  1  0  0  0
 80159  1  0  0  0
 81160  1  0  0  0
 81161  1  0  0  0
 82 84  1  0  0  0
 82162  1  0  0  0
 83 84  1  0  0  0
 85163  1  0  0  0
 86164  1  0  0  0
 86165  1  0  0  0
 86166  1  0  0  0
M  CHG  1  86   1
M  ISO  4   1 100  68 101  81 101  85 100
M  END
> <chiral flag>
0

> <version>
0

> <s_m_source_file>
/data/baiqing/PycharmProjects/Reinvent-master-3.2/result/LINK_invent/BTK/process_docking_weight1_custom_sum_contain_oxygen_bond_distance_aromatic_linkinvent_7_9_3/rearranged_h_0120.sdf

> <i_m_source_file_index>
57

> <r_mmod_Potential_Energy-OPLS-2005>
-60.5429725646973

> <r_mmod_Stretch_Energy-OPLS-2005>
138.349807739258

> <r_mmod_Bend_Energy-OPLS-2005>
194.958450317383

> <r_mmod_Torsional_Energy-OPLS-2005>
273.992645263672

> <r_mmod_Improper_Torsional_Energy-OPLS-2005>
6.30407524108887

> <r_mmod_Van_der_Waal_Energy-OPLS-2005>
110.212837219238

> <r_mmod_Electrostatic_Energy-OPLS-2005>
-357.185394287109

> <r_mmod_Solvation_Energy-OPLS-2005>
-513.6748046875

> <b_mmod_Minimization_Converged-OPLS-2005>
0

> <r_mmod_RMS_Derivative-OPLS-2005>
6.2934422492981

$$$$
57
                    3D
 Structure written by MMmdl.
169178  0  0  1  0            999 V2000
  -30.6142  -14.6951   20.5084 C   0  0  0  0  0  0
  -30.4432  -12.4374   19.4464 C   0  0  0  0  0  0
  -29.5053  -12.5075   18.2199 C   0  0  0  0  0  0
  -28.0295  -12.3400   18.6370 C   0  0  0  0  0  0
  -27.6477  -13.2212   19.8554 C   0  0  2  0  0  0
  -28.6970  -13.1044   20.9814 C   0  0  0  0  0  0
  -25.2543  -13.8169   20.5680 C   0  0  0  0  0  0
  -24.1814  -13.0435   20.9203 C   0  0  0  0  0  0
  -24.6396  -11.6907   20.8754 C   0  0  0  0  0  0
  -23.9062  -10.4288   21.0408 C   0  0  0  0  0  0
  -24.3611   -9.4204   21.9191 C   0  0  0  0  0  0
  -23.6278   -8.2234   22.0753 C   0  0  0  0  0  0
  -22.4265   -8.0271   21.3535 C   0  0  0  0  0  0
  -21.9907   -9.0247   20.4640 C   0  0  0  0  0  0
  -22.7231  -10.2130   20.3051 C   0  0  0  0  0  0
  -21.6853   -6.0726   22.5275 C   0  0  0  0  0  0
  -21.4011   -6.5640   23.8209 C   0  0  0  0  0  0
  -21.3659   -5.6790   24.9173 C   0  0  0  0  0  0
  -21.6040   -4.3053   24.7222 C   0  0  0  0  0  0
  -21.8823   -3.8147   23.4351 C   0  0  0  0  0  0
  -21.9195   -4.6956   22.3408 C   0  0  0  0  0  0
  -22.7838  -13.5223   21.1856 C   0  0  0  0  0  0
  -22.1664   -4.2151   21.0979 F   0  0  0  0  0  0
  -21.5629   -3.4540   25.7739 F   0  0  0  0  0  0
  -30.0005  -13.4693   20.4055 N   0  0  0  0  0  0
  -26.2968  -12.9363   20.3291 N   0  0  0  0  0  0
  -25.9327  -11.6517   20.5753 N   0  0  0  0  0  0
  -22.0484  -12.8200   22.0413 N   0  0  0  0  0  0
  -25.4267  -15.1890   20.4063 N   0  0  0  0  0  0
  -31.7966  -14.8414   20.1935 O   0  0  0  0  0  0
  -21.6634   -6.8865   21.4230 O   0  0  0  0  0  0
  -22.3533  -14.5536   20.6718 O   0  0  0  0  0  0
  -24.6296  -31.8566   23.2016 C   0  0  0  0  0  0
  -25.9121  -32.4772   23.8338 C   0  0  1  0  0  0
  -27.2216  -27.2876   20.1265 C   0  0  0  0  0  0
  -25.5930  -33.8573   24.2267 N   0  0  0  0  0  0
  -23.4254  -30.4813   21.5451 C   0  0  2  0  0  0
  -24.8766  -28.9397   20.1019 C   0  0  0  0  0  0
  -22.7497  -29.4595   22.4912 C   0  0  0  0  0  0
  -18.0294  -28.1374   22.8486 C   0  0  0  0  0  0
  -24.1480  -36.7278   23.2641 C   0  0  0  0  0  0
  -25.9699  -30.7815   21.3758 C   0  0  0  0  0  0
  -26.0460  -29.4076   20.7150 C   0  0  0  0  0  0
  -27.2208  -28.5930   20.7204 C   0  0  0  0  0  0
  -26.0369  -26.8934   19.4622 C   0  0  0  0  0  0
  -24.8767  -27.6914   19.4629 C   0  0  0  0  0  0
  -23.6432  -29.8220   20.1575 C   0  0  0  0  0  0
  -25.4106  -36.3083   24.0341 C   0  0  1  0  0  0
  -20.5905  -28.3667   23.1289 C   0  0  2  0  0  0
  -20.6778  -26.9378   22.5430 C   0  0  0  0  0  0
  -19.5749  -26.6387   21.5226 C   0  0  0  0  0  0
  -18.1925  -26.7926   22.1634 C   0  0  0  0  0  0
  -19.1555  -28.8843   23.2877 C   0  0  0  0  0  0
  -18.9481  -30.1445   23.8885 C   0  0  0  0  0  0
  -17.6481  -30.6573   24.0551 C   0  0  0  0  0  0
  -25.9058  -34.9456   23.5114 C   0  0  0  0  0  0
  -16.5360  -29.9070   23.6338 C   0  0  0  0  0  0
  -16.7288  -28.6492   23.0344 C   0  0  0  0  0  0
  -26.4500  -31.6584   25.0709 C   0  0  0  0  0  0
  -25.3737  -31.3724   26.1431 C   0  0  0  0  0  0
  -27.0357  -30.3029   24.6133 C   0  0  0  0  0  0
  -27.6064  -32.4318   25.7470 C   0  0  0  0  0  0
  -27.5579  -37.1778   24.8478 C   0  0  0  0  0  0
  -21.4210  -29.3017   22.3672 N   0  0  0  0  0  0
  -26.4280  -37.3791   23.9435 N   0  0  0  0  0  0
  -24.6947  -31.0544   22.1000 N   0  0  0  0  0  0
  -23.4206  -28.8104   23.2972 O   0  0  0  0  0  0
  -28.3013  -26.3786   20.2103 O   0  0  0  0  0  0
  -26.5622  -34.8929   22.4672 O   0  0  0  0  0  0
  -23.5446  -32.1386   23.7326 O   0  0  0  0  0  0
  -28.3122  -21.7103   25.5803 C   0  0  0  0  0  0
  -28.6046  -22.7780   24.5216 C   0  0  0  0  0  0
  -29.0191  -20.7266   24.6526 C   0  0  0  0  0  0
  -30.2015  -20.3768   21.8593 C   0  0  0  0  0  0
  -29.0161  -21.0071   19.9819 C   0  0  0  0  0  0
  -28.6537  -21.6499   23.4711 C   0  0  0  0  0  0
  -29.5709  -21.7627   22.2287 C   0  0  2  0  0  0
  -28.8053  -22.2620   20.9435 C   0  0  1  0  0  0
  -27.5035  -25.0207   22.0606 C   0  0  0  0  0  0
  -29.1017  -23.7868   20.4380 C   0  0  0  0  0  0
  -30.0765  -17.2189   21.1922 C   0  0  0  0  0  0
  -29.6658  -18.4380   20.2166 C   0  0  0  0  0  0
  -27.9951  -24.9580   20.6054 C   0  0  2  0  0  0
  -29.8043  -15.7712   20.8022 N   0  0  0  0  0  0
  -29.3103  -19.7995   20.8442 N   0  3  1  0  0  0
  -31.4785  -12.5853   19.1341 H   0  0  0  0  0  0
  -30.4057  -11.4495   19.9088 H   0  0  0  0  0  0
  -29.7758  -11.7404   17.4946 H   0  0  0  0  0  0
  -29.6346  -13.4666   17.7160 H   0  0  0  0  0  0
  -27.8688  -11.2879   18.8757 H   0  0  0  0  0  0
  -27.3745  -12.5595   17.7934 H   0  0  0  0  0  0
  -27.6543  -14.2513   19.5006 H   0  0  0  0  0  0
  -28.7307  -12.0839   21.3668 H   0  0  0  0  0  0
  -28.4381  -13.7385   21.8300 H   0  0  0  0  0  0
  -25.2757   -9.5687   22.4767 H   0  0  0  0  0  0
  -24.0004   -7.4627   22.7480 H   0  0  0  0  0  0
  -21.0838   -8.8756   19.8942 H   0  0  0  0  0  0
  -22.3690  -10.9662   19.6157 H   0  0  0  0  0  0
  -21.2002   -7.6145   23.9711 H   0  0  0  0  0  0
  -21.1474   -6.0522   25.9072 H   0  0  0  0  0  0
  -22.0607   -2.7608   23.2853 H   0  0  0  0  0  0
  -22.4095  -11.9843   22.4752 H   0  0  0  0  0  0
  -21.1097  -13.1206   22.2615 H   0  0  0  0  0  0
  -24.6552  -15.8418   20.5011 H   0  0  0  0  0  0
  -26.2594  -15.6172   20.0244 H   0  0  0  0  0  0
  -26.7183  -32.5453   23.1081 H   0  0  0  0  0  0
  -25.0081  -33.9702   25.0424 H   0  0  0  0  0  0
  -22.7209  -31.3056   21.4034 H   0  0  0  0  0  0
  -23.3752  -35.9602   23.3318 H   0  0  0  0  0  0
  -24.3568  -36.8906   22.2052 H   0  0  0  0  0  0
  -23.7223  -37.6473   23.6671 H   0  0  0  0  0  0
  -26.0969  -31.5448   20.6055 H   0  0  0  0  0  0
  -26.8494  -30.8342   22.0061 H   0  0  0  0  0  0
  -28.1091  -28.9404   21.2276 H   0  0  0  0  0  0
  -25.9843  -25.9503   18.9392 H   0  0  0  0  0  0
  -23.9871  -27.3340   18.9635 H   0  0  0  0  0  0
  -23.7623  -30.6050   19.4075 H   0  0  0  0  0  0
  -22.7640  -29.2537   19.8502 H   0  0  0  0  0  0
  -25.1278  -36.1935   25.0834 H   0  0  0  0  0  0
  -20.9989  -28.3233   24.1415 H   0  0  0  0  0  0
  -20.5715  -26.2235   23.3616 H   0  0  0  0  0  0
  -21.6627  -26.7417   22.1179 H   0  0  0  0  0  0
  -19.6905  -25.6312   21.1219 H   0  0  0  0  0  0
  -19.6704  -27.3213   20.6763 H   0  0  0  0  0  0
  -17.4208  -26.6713   21.4009 H   0  0  0  0  0  0
  -18.0256  -26.0055   22.9013 H   0  0  0  0  0  0
  -19.7963  -30.7255   24.2229 H   0  0  0  0  0  0
  -17.5046  -31.6252   24.5141 H   0  0  0  0  0  0
  -15.5360  -30.2956   23.7696 H   0  0  0  0  0  0
  -15.8682  -28.0820   22.7043 H   0  0  0  0  0  0
  -24.5975  -30.6988   25.7784 H   0  0  0  0  0  0
  -24.8823  -32.2865   26.4775 H   0  0  0  0  0  0
  -25.8057  -30.8995   27.0261 H   0  0  0  0  0  0
  -26.2927  -29.6756   24.1190 H   0  0  0  0  0  0
  -27.4135  -29.7298   25.4614 H   0  0  0  0  0  0
  -27.8748  -30.4339   23.9296 H   0  0  0  0  0  0
  -27.2710  -33.3664   26.1959 H   0  0  0  0  0  0
  -28.3879  -32.6815   25.0289 H   0  0  0  0  0  0
  -28.0689  -31.8501   26.5448 H   0  0  0  0  0  0
  -28.2573  -38.0087   24.7521 H   0  0  0  0  0  0
  -28.1087  -36.2620   24.6282 H   0  0  0  0  0  0
  -27.2290  -37.1408   25.8878 H   0  0  0  0  0  0
  -20.9401  -29.8789   21.6912 H   0  0  0  0  0  0
  -26.0166  -38.2869   24.1452 H   0  0  0  0  0  0
  -27.2457  -21.4991   25.6921 H   0  0  0  0  0  0
  -28.7978  -21.8577   26.5462 H   0  0  0  0  0  0
  -29.5697  -23.2655   24.6684 H   0  0  0  0  0  0
  -27.8064  -23.5091   24.4053 H   0  0  0  0  0  0
  -28.5642  -19.7357   24.6161 H   0  0  0  0  0  0
  -30.0917  -20.6718   24.8535 H   0  0  0  0  0  0
  -30.3409  -19.7083   22.7087 H   0  0  0  0  0  0
  -31.1888  -20.5239   21.4176 H   0  0  0  0  0  0
  -29.8568  -21.1831   19.3094 H   0  0  0  0  0  0
  -28.1368  -20.8326   19.3604 H   0  0  0  0  0  0
  -27.6312  -21.3919   23.1809 H   0  0  0  0  0  0
  -30.3899  -22.4436   22.4654 H   0  0  0  0  0  0
  -27.7371  -22.2412   21.1554 H   0  0  0  0  0  0
  -27.0776  -24.0686   22.3716 H   0  0  0  0  0  0
  -26.7113  -25.7576   22.1929 H   0  0  0  0  0  0
  -28.3110  -25.2801   22.7446 H   0  0  0  0  0  0
  -29.3614  -23.7380   19.3796 H   0  0  0  0  0  0
  -30.0190  -24.1323   20.9163 H   0  0  0  0  0  0
  -29.5387  -17.3596   22.1302 H   0  0  0  0  0  0
  -31.1302  -17.3144   21.4591 H   0  0  0  0  0  0
  -28.8063  -18.1361   19.6184 H   0  0  0  0  0  0
  -30.4786  -18.5872   19.5054 H   0  0  0  0  0  0
  -27.1586  -24.6082   20.0067 H   0  0  0  0  0  0
  -28.8426  -15.4969   20.9299 H   0  0  0  0  0  0
  -28.4475  -19.6242   21.3381 H   0  0  0  0  0  0
  1 25  1  0  0  0
  1 30  2  0  0  0
  1 84  1  0  0  0
  2  3  1  0  0  0
  2 25  1  0  0  0
  2 86  1  0  0  0
  2 87  1  0  0  0
  3  4  1  0  0  0
  3 88  1  0  0  0
  3 89  1  0  0  0
  4  5  1  0  0  0
  4 90  1  0  0  0
  4 91  1  0  0  0
  5  6  1  0  0  0
  5 26  1  0  0  0
  5 92  1  0  0  0
  6 25  1  0  0  0
  6 93  1  0  0  0
  6 94  1  0  0  0
  7  8  2  0  0  0
  7 26  1  0  0  0
  7 29  1  0  0  0
  8  9  1  0  0  0
  8 22  1  0  0  0
  9 10  1  0  0  0
  9 27  2  0  0  0
 10 11  2  0  0  0
 10 15  1  0  0  0
 11 12  1  0  0  0
 11 95  1  0  0  0
 12 13  2  0  0  0
 12 96  1  0  0  0
 13 14  1  0  0  0
 13 31  1  0  0  0
 14 15  2  0  0  0
 14 97  1  0  0  0
 15 98  1  0  0  0
 16 17  2  0  0  0
 16 21  1  0  0  0
 16 31  1  0  0  0
 17 18  1  0  0  0
 17 99  1  0  0  0
 18 19  2  0  0  0
 18100  1  0  0  0
 19 20  1  0  0  0
 19 24  1  0  0  0
 20 21  2  0  0  0
 20101  1  0  0  0
 21 23  1  0  0  0
 22 28  1  0  0  0
 22 32  2  0  0  0
 26 27  1  0  0  0
 28102  1  0  0  0
 28103  1  0  0  0
 29104  1  0  0  0
 29105  1  0  0  0
 33 34  1  0  0  0
 33 66  1  0  0  0
 33 70  2  0  0  0
 34 36  1  0  0  0
 34 59  1  0  0  0
 34106  1  0  0  0
 35 44  2  0  0  0
 35 45  1  0  0  0
 35 68  1  0  0  0
 36 56  1  0  0  0
 36107  1  0  0  0
 37 39  1  0  0  0
 37 47  1  0  0  0
 37 66  1  0  0  0
 37108  1  0  0  0
 38 43  2  0  0  0
 38 46  1  0  0  0
 38 47  1  0  0  0
 39 64  1  0  0  0
 39 67  2  0  0  0
 40 52  1  0  0  0
 40 53  2  0  0  0
 40 58  1  0  0  0
 41109  1  0  0  0
 41110  1  0  0  0
 41111  1  0  0  0
 41 48  1  0  0  0
 42 43  1  0  0  0
 42 66  1  0  0  0
 42112  1  0  0  0
 42113  1  0  0  0
 43 44  1  0  0  0
 44114  1  0  0  0
 45 46  2  0  0  0
 45115  1  0  0  0
 46116  1  0  0  0
 47117  1  0  0  0
 47118  1  0  0  0
 48 56  1  0  0  0
 48 65  1  0  0  0
 48119  1  0  0  0
 49 50  1  0  0  0
 49 53  1  0  0  0
 49 64  1  0  0  0
 49120  1  0  0  0
 50 51  1  0  0  0
 50121  1  0  0  0
 50122  1  0  0  0
 51 52  1  0  0  0
 51123  1  0  0  0
 51124  1  0  0  0
 52125  1  0  0  0
 52126  1  0  0  0
 53 54  1  0  0  0
 54 55  2  0  0  0
 54127  1  0  0  0
 55 57  1  0  0  0
 55128  1  0  0  0
 56 69  2  0  0  0
 57 58  2  0  0  0
 57129  1  0  0  0
 58130  1  0  0  0
 59 60  1  0  0  0
 59 61  1  0  0  0
 59 62  1  0  0  0
 60131  1  0  0  0
 60132  1  0  0  0
 60133  1  0  0  0
 61134  1  0  0  0
 61135  1  0  0  0
 61136  1  0  0  0
 62137  1  0  0  0
 62138  1  0  0  0
 62139  1  0  0  0
 63 65  1  0  0  0
 63140  1  0  0  0
 63141  1  0  0  0
 63142  1  0  0  0
 64143  1  0  0  0
 65144  1  0  0  0
 68 83  1  0  0  0
 71 72  1  0  0  0
 71 73  1  0  0  0
 71145  1  0  0  0
 71146  1  0  0  0
 72147  1  0  0  0
 72148  1  0  0  0
 72 76  1  0  0  0
 73 76  1  0  0  0
 73149  1  0  0  0
 73150  1  0  0  0
 74 85  1  0  0  0
 74151  1  0  0  0
 74152  1  0  0  0
 74 77  1  0  0  0
 75 78  1  0  0  0
 75 85  1  0  0  0
 75153  1  0  0  0
 75154  1  0  0  0
 76 77  1  0  0  0
 76155  1  0  0  0
 77 78  1  0  0  0
 77156  1  0  0  0
 78 80  1  0  0  0
 78157  1  0  0  0
 79158  1  0  0  0
 79159  1  0  0  0
 79160  1  0  0  0
 79 83  1  0  0  0
 80 83  1  0  0  0
 80161  1  0  0  0
 80162  1  0  0  0
 81 82  1  0  0  0
 81 84  1  0  0  0
 81163  1  0  0  0
 81164  1  0  0  0
 82165  1  0  0  0
 82166  1  0  0  0
 82 85  1  0  0  0
 83167  1  0  0  0
 84168  1  0  0  0
 85169  1  0  0  0
M  CHG  1  85   1
M  ISO  4   1 100  68 101  83 101  84 100
M  END
> <chiral flag>
0

> <version>
0

> <s_m_source_file>
/data/baiqing/PycharmProjects/Reinvent-master-3.2/result/LINK_invent/BTK/process_docking_weight1_custom_sum_contain_oxygen_bond_distance_aromatic_linkinvent_7_9_3/rearranged_h_0120.sdf

> <i_m_source_file_index>
58

> <r_mmod_Potential_Energy-OPLS-2005>
145.124542236328

> <r_mmod_Stretch_Energy-OPLS-2005>
115.610000610352

> <r_mmod_Bend_Energy-OPLS-2005>
216.077133178711

> <r_mmod_Torsional_Energy-OPLS-2005>
344.367980957031

> <r_mmod_Improper_Torsional_Energy-OPLS-2005>
4.33247184753418

> <r_mmod_Van_der_Waal_Energy-OPLS-2005>
120.474243164062

> <r_mmod_Electrostatic_Energy-OPLS-2005>
-269.575286865234

> <r_mmod_Solvation_Energy-OPLS-2005>
-457.585388183594

> <b_mmod_Minimization_Converged-OPLS-2005>
0

> <r_mmod_RMS_Derivative-OPLS-2005>
3.28624844551086

$$$$
58
                    3D
 Structure written by MMmdl.
151159  0  0  1  0            999 V2000
  -30.6231  -14.7005   20.4526 C   0  0  0  0  0  0
  -30.4249  -12.4223   19.4762 C   0  0  0  0  0  0
  -29.5079  -12.5134   18.2362 C   0  0  0  0  0  0
  -28.0312  -12.3462   18.6430 C   0  0  0  0  0  0
  -27.6455  -13.2307   19.8582 C   0  0  2  0  0  0
  -28.6883  -13.1372   20.9950 C   0  0  0  0  0  0
  -25.2514  -13.8200   20.5688 C   0  0  0  0  0  0
  -24.1808  -13.0440   20.9194 C   0  0  0  0  0  0
  -24.6402  -11.6920   20.8747 C   0  0  0  0  0  0
  -23.9077  -10.4296   21.0400 C   0  0  0  0  0  0
  -24.3633   -9.4213   21.9176 C   0  0  0  0  0  0
  -23.6308   -8.2246   22.0749 C   0  0  0  0  0  0
  -22.4288   -8.0283   21.3537 C   0  0  0  0  0  0
  -21.9922   -9.0254   20.4639 C   0  0  0  0  0  0
  -22.7248  -10.2137   20.3047 C   0  0  0  0  0  0
  -21.6853   -6.0739   22.5282 C   0  0  0  0  0  0
  -21.4012   -6.5638   23.8213 C   0  0  0  0  0  0
  -21.3670   -5.6795   24.9173 C   0  0  0  0  0  0
  -21.6046   -4.3058   24.7222 C   0  0  0  0  0  0
  -21.8817   -3.8147   23.4344 C   0  0  0  0  0  0
  -21.9191   -4.6968   22.3405 C   0  0  0  0  0  0
  -22.7832  -13.5216   21.1856 C   0  0  0  0  0  0
  -22.1655   -4.2155   21.0984 F   0  0  0  0  0  0
  -21.5644   -3.4542   25.7731 F   0  0  0  0  0  0
  -29.9980  -13.4749   20.4249 N   0  0  0  0  0  0
  -26.2954  -12.9410   20.3310 N   0  0  0  0  0  0
  -25.9338  -11.6549   20.5769 N   0  0  0  0  0  0
  -22.0480  -12.8209   22.0420 N   0  0  0  0  0  0
  -25.4192  -15.1923   20.4108 N   0  0  0  0  0  0
  -31.8001  -14.7966   20.0904 O   0  0  0  0  0  0
  -21.6643   -6.8885   21.4243 O   0  0  0  0  0  0
  -22.3512  -14.5523   20.6709 O   0  0  0  0  0  0
  -24.6294  -31.8592   23.2034 C   0  0  0  0  0  0
  -25.9134  -32.4777   23.8365 C   0  0  1  0  0  0
  -27.2162  -27.2823   20.1161 C   0  0  0  0  0  0
  -25.5940  -33.8580   24.2284 N   0  0  0  0  0  0
  -23.4243  -30.4850   21.5465 C   0  0  2  0  0  0
  -24.8689  -28.9373   20.1110 C   0  0  0  0  0  0
  -22.7486  -29.4638   22.4930 C   0  0  0  0  0  0
  -18.0294  -28.1413   22.8480 C   0  0  0  0  0  0
  -24.1489  -36.7288   23.2633 C   0  0  0  0  0  0
  -25.9700  -30.7742   21.3837 C   0  0  0  0  0  0
  -26.0396  -29.3991   20.7242 C   0  0  0  0  0  0
  -27.2126  -28.5807   20.7246 C   0  0  0  0  0  0
  -26.0267  -26.8995   19.4518 C   0  0  0  0  0  0
  -24.8662  -27.6934   19.4663 C   0  0  0  0  0  0
  -23.6401  -29.8231   20.1608 C   0  0  0  0  0  0
  -25.4117  -36.3084   24.0327 C   0  0  1  0  0  0
  -20.5898  -28.3721   23.1267 C   0  0  2  0  0  0
  -20.6797  -26.9441   22.5407 C   0  0  0  0  0  0
  -19.5770  -26.6399   21.5222 C   0  0  0  0  0  0
  -18.1944  -26.7954   22.1627 C   0  0  0  0  0  0
  -19.1545  -28.8883   23.2871 C   0  0  0  0  0  0
  -18.9470  -30.1484   23.8890 C   0  0  0  0  0  0
  -17.6466  -30.6607   24.0572 C   0  0  0  0  0  0
  -25.9060  -34.9451   23.5109 C   0  0  0  0  0  0
  -16.5356  -29.9105   23.6338 C   0  0  0  0  0  0
  -16.7280  -28.6532   23.0340 C   0  0  0  0  0  0
  -26.4498  -31.6588   25.0740 C   0  0  0  0  0  0
  -25.3718  -31.3743   26.1451 C   0  0  0  0  0  0
  -27.0346  -30.3006   24.6236 C   0  0  0  0  0  0
  -27.6062  -32.4311   25.7510 C   0  0  0  0  0  0
  -27.5593  -37.1788   24.8453 C   0  0  0  0  0  0
  -21.4199  -29.3066   22.3648 N   0  0  0  0  0  0
  -26.4294  -37.3782   23.9413 N   0  0  0  0  0  0
  -24.6934  -31.0568   22.1005 N   0  0  0  0  0  0
  -23.4186  -28.8175   23.3023 O   0  0  0  0  0  0
  -28.3112  -26.3920   20.1962 O   0  0  0  0  0  0
  -26.5635  -34.8919   22.4679 O   0  0  0  0  0  0
  -23.5449  -32.1406   23.7343 O   0  0  0  0  0  0
  -30.2144  -19.5842   18.7787 C   0  0  0  0  0  0
  -30.5200  -17.2873   18.8438 C   0  0  0  0  0  0
  -29.6729  -19.5897   20.0838 C   0  0  0  0  0  0
  -29.9938  -17.1861   20.1606 C   0  0  0  0  0  0
  -29.3472  -20.9774   20.7871 C   0  0  0  0  0  0
  -28.8400  -22.2658   19.9464 C   0  0  0  0  0  0
  -28.9735  -23.7633   20.5421 C   0  0  0  0  0  0
  -28.1167  -24.9433   19.8642 C   0  0  0  0  0  0
  -30.6258  -18.4520   18.1624 N   0  0  0  0  0  0
  -29.5577  -18.3721   20.7597 N   0  0  0  0  0  0
  -29.8714  -15.8279   20.7310 N   0  0  0  0  0  0
  -31.4698  -12.5252   19.1787 H   0  0  0  0  0  0
  -30.3443  -11.4385   19.9407 H   0  0  0  0  0  0
  -29.7877  -11.7538   17.5057 H   0  0  0  0  0  0
  -29.6468  -13.4780   17.7447 H   0  0  0  0  0  0
  -27.8735  -11.2957   18.8860 H   0  0  0  0  0  0
  -27.3776  -12.5616   17.7964 H   0  0  0  0  0  0
  -27.6478  -14.2589   19.4971 H   0  0  0  0  0  0
  -28.7101  -12.1320   21.4187 H   0  0  0  0  0  0
  -28.4305  -13.8076   21.8165 H   0  0  0  0  0  0
  -25.2775   -9.5693   22.4753 H   0  0  0  0  0  0
  -24.0016   -7.4640   22.7476 H   0  0  0  0  0  0
  -21.0844   -8.8768   19.8957 H   0  0  0  0  0  0
  -22.3689  -10.9676   19.6165 H   0  0  0  0  0  0
  -21.1994   -7.6140   23.9717 H   0  0  0  0  0  0
  -21.1500   -6.0519   25.9079 H   0  0  0  0  0  0
  -22.0590   -2.7605   23.2834 H   0  0  0  0  0  0
  -22.4084  -11.9872   22.4816 H   0  0  0  0  0  0
  -21.1098  -13.1230   22.2633 H   0  0  0  0  0  0
  -24.6490  -15.8428   20.5226 H   0  0  0  0  0  0
  -26.2658  -15.6371   20.0804 H   0  0  0  0  0  0
  -26.7199  -32.5425   23.1102 H   0  0  0  0  0  0
  -25.0059  -33.9728   25.0412 H   0  0  0  0  0  0
  -22.7209  -31.3076   21.4051 H   0  0  0  0  0  0
  -23.3773  -35.9596   23.3264 H   0  0  0  0  0  0
  -24.3580  -36.8944   22.2051 H   0  0  0  0  0  0
  -23.7210  -37.6466   23.6678 H   0  0  0  0  0  0
  -26.1128  -31.5346   20.6149 H   0  0  0  0  0  0
  -26.8471  -30.8189   22.0176 H   0  0  0  0  0  0
  -28.1036  -28.9242   21.2317 H   0  0  0  0  0  0
  -25.9555  -25.9670   18.9141 H   0  0  0  0  0  0
  -23.9726  -27.3389   18.9704 H   0  0  0  0  0  0
  -23.7647  -30.6020   19.4075 H   0  0  0  0  0  0
  -22.7572  -29.2583   19.8557 H   0  0  0  0  0  0
  -25.1297  -36.1933   25.0818 H   0  0  0  0  0  0
  -21.0006  -28.3321   24.1383 H   0  0  0  0  0  0
  -20.5724  -26.2340   23.3615 H   0  0  0  0  0  0
  -21.6661  -26.7488   22.1181 H   0  0  0  0  0  0
  -19.6932  -25.6308   21.1260 H   0  0  0  0  0  0
  -19.6710  -27.3202   20.6748 H   0  0  0  0  0  0
  -17.4215  -26.6692   21.4028 H   0  0  0  0  0  0
  -18.0346  -26.0105   22.9035 H   0  0  0  0  0  0
  -19.7942  -30.7310   24.2240 H   0  0  0  0  0  0
  -17.5021  -31.6278   24.5192 H   0  0  0  0  0  0
  -15.5359  -30.3006   23.7679 H   0  0  0  0  0  0
  -15.8677  -28.0862   22.7044 H   0  0  0  0  0  0
  -24.5876  -30.7126   25.7760 H   0  0  0  0  0  0
  -24.8930  -32.2920   26.4881 H   0  0  0  0  0  0
  -25.8003  -30.8887   27.0231 H   0  0  0  0  0  0
  -26.2945  -29.6744   24.1248 H   0  0  0  0  0  0
  -27.4013  -29.7269   25.4761 H   0  0  0  0  0  0
  -27.8828  -30.4274   23.9504 H   0  0  0  0  0  0
  -27.2692  -33.3608   26.2110 H   0  0  0  0  0  0
  -28.3869  -32.6878   25.0335 H   0  0  0  0  0  0
  -28.0749  -31.8424   26.5409 H   0  0  0  0  0  0
  -28.2571  -38.0123   24.7564 H   0  0  0  0  0  0
  -28.1129  -36.2662   24.6206 H   0  0  0  0  0  0
  -27.2315  -37.1339   25.8851 H   0  0  0  0  0  0
  -20.9390  -29.8755   21.6820 H   0  0  0  0  0  0
  -26.0175  -38.2852   24.1451 H   0  0  0  0  0  0
  -30.3547  -20.4989   18.2233 H   0  0  0  0  0  0
  -30.8351  -16.4132   18.2936 H   0  0  0  0  0  0
  -30.2648  -21.2622   21.3014 H   0  0  0  0  0  0
  -28.6252  -20.7836   21.5811 H   0  0  0  0  0  0
  -27.7955  -22.0913   19.6851 H   0  0  0  0  0  0
  -29.3622  -22.2906   18.9913 H   0  0  0  0  0  0
  -30.0267  -24.0453   20.5139 H   0  0  0  0  0  0
  -28.7116  -23.7355   21.6002 H   0  0  0  0  0  0
  -27.0907  -24.6578   20.0894 H   0  0  0  0  0  0
  -28.2250  -24.8589   18.7822 H   0  0  0  0  0  0
  -29.0149  -15.6551   21.2320 H   0  0  0  0  0  0
  1 25  1  0  0  0
  1 30  2  0  0  0
  1 81  1  0  0  0
  2  3  1  0  0  0
  2 25  1  0  0  0
  2 82  1  0  0  0
  2 83  1  0  0  0
  3  4  1  0  0  0
  3 84  1  0  0  0
  3 85  1  0  0  0
  4  5  1  0  0  0
  4 86  1  0  0  0
  4 87  1  0  0  0
  5  6  1  0  0  0
  5 26  1  0  0  0
  5 88  1  0  0  0
  6 25  1  0  0  0
  6 89  1  0  0  0
  6 90  1  0  0  0
  7  8  2  0  0  0
  7 26  1  0  0  0
  7 29  1  0  0  0
  8  9  1  0  0  0
  8 22  1  0  0  0
  9 10  1  0  0  0
  9 27  2  0  0  0
 10 11  2  0  0  0
 10 15  1  0  0  0
 11 12  1  0  0  0
 11 91  1  0  0  0
 12 13  2  0  0  0
 12 92  1  0  0  0
 13 14  1  0  0  0
 13 31  1  0  0  0
 14 15  2  0  0  0
 14 93  1  0  0  0
 15 94  1  0  0  0
 16 17  2  0  0  0
 16 21  1  0  0  0
 16 31  1  0  0  0
 17 18  1  0  0  0
 17 95  1  0  0  0
 18 19  2  0  0  0
 18 96  1  0  0  0
 19 20  1  0  0  0
 19 24  1  0  0  0
 20 21  2  0  0  0
 20 97  1  0  0  0
 21 23  1  0  0  0
 22 28  1  0  0  0
 22 32  2  0  0  0
 26 27  1  0  0  0
 28 98  1  0  0  0
 28 99  1  0  0  0
 29100  1  0  0  0
 29101  1  0  0  0
 33 34  1  0  0  0
 33 66  1  0  0  0
 33 70  2  0  0  0
 34 36  1  0  0  0
 34 59  1  0  0  0
 34102  1  0  0  0
 35 44  2  0  0  0
 35 45  1  0  0  0
 35 68  1  0  0  0
 36 56  1  0  0  0
 36103  1  0  0  0
 37 39  1  0  0  0
 37 47  1  0  0  0
 37 66  1  0  0  0
 37104  1  0  0  0
 38 43  2  0  0  0
 38 46  1  0  0  0
 38 47  1  0  0  0
 39 64  1  0  0  0
 39 67  2  0  0  0
 40 52  1  0  0  0
 40 53  2  0  0  0
 40 58  1  0  0  0
 41105  1  0  0  0
 41106  1  0  0  0
 41107  1  0  0  0
 41 48  1  0  0  0
 42 43  1  0  0  0
 42 66  1  0  0  0
 42108  1  0  0  0
 42109  1  0  0  0
 43 44  1  0  0  0
 44110  1  0  0  0
 45 46  2  0  0  0
 45111  1  0  0  0
 46112  1  0  0  0
 47113  1  0  0  0
 47114  1  0  0  0
 48 56  1  0  0  0
 48 65  1  0  0  0
 48115  1  0  0  0
 49 50  1  0  0  0
 49 53  1  0  0  0
 49 64  1  0  0  0
 49116  1  0  0  0
 50 51  1  0  0  0
 50117  1  0  0  0
 50118  1  0  0  0
 51 52  1  0  0  0
 51119  1  0  0  0
 51120  1  0  0  0
 52121  1  0  0  0
 52122  1  0  0  0
 53 54  1  0  0  0
 54 55  2  0  0  0
 54123  1  0  0  0
 55 57  1  0  0  0
 55124  1  0  0  0
 56 69  2  0  0  0
 57 58  2  0  0  0
 57125  1  0  0  0
 58126  1  0  0  0
 59 60  1  0  0  0
 59 61  1  0  0  0
 59 62  1  0  0  0
 60127  1  0  0  0
 60128  1  0  0  0
 60129  1  0  0  0
 61130  1  0  0  0
 61131  1  0  0  0
 61132  1  0  0  0
 62133  1  0  0  0
 62134  1  0  0  0
 62135  1  0  0  0
 63 65  1  0  0  0
 63136  1  0  0  0
 63137  1  0  0  0
 63138  1  0  0  0
 64139  1  0  0  0
 65140  1  0  0  0
 68 78  1  0  0  0
 71 73  2  0  0  0
 71 79  1  0  0  0
 71141  1  0  0  0
 72 74  1  0  0  0
 72 79  2  0  0  0
 72142  1  0  0  0
 73 75  1  0  0  0
 73 80  1  0  0  0
 74 80  2  0  0  0
 74 81  1  0  0  0
 75 76  1  0  0  0
 75143  1  0  0  0
 75144  1  0  0  0
 76 77  1  0  0  0
 76145  1  0  0  0
 76146  1  0  0  0
 77 78  1  0  0  0
 77147  1  0  0  0
 77148  1  0  0  0
 78149  1  0  0  0
 78150  1  0  0  0
 81151  1  0  0  0
M  ISO  4   1 100  68 101  78 101  81 100
M  END
> <chiral flag>
0

> <version>
0

> <s_m_source_file>
/data/baiqing/PycharmProjects/Reinvent-master-3.2/result/LINK_invent/BTK/process_docking_weight1_custom_sum_contain_oxygen_bond_distance_aromatic_linkinvent_7_9_3/rearranged_h_0120.sdf

> <i_m_source_file_index>
59

> <r_mmod_Potential_Energy-OPLS-2005>
160.411392211914

> <r_mmod_Stretch_Energy-OPLS-2005>
114.196479797363

> <r_mmod_Bend_Energy-OPLS-2005>
152.365798950195

> <r_mmod_Torsional_Energy-OPLS-2005>
229.7158203125

> <r_mmod_Improper_Torsional_Energy-OPLS-2005>
4.80167722702026

> <r_mmod_Van_der_Waal_Energy-OPLS-2005>
151.142532348633

> <r_mmod_Electrostatic_Energy-OPLS-2005>
-342.591796875

> <r_mmod_Solvation_Energy-OPLS-2005>
-220.301895141602

> <b_mmod_Minimization_Converged-OPLS-2005>
0

> <r_mmod_RMS_Derivative-OPLS-2005>
1.73659002780914

$$$$
59
                    3D
 Structure written by MMmdl.
169178  0  0  1  0            999 V2000
  -30.7007  -14.4158   20.6358 C   0  0  0  0  0  0
  -30.4269  -12.2891   19.4139 C   0  0  0  0  0  0
  -29.4924  -12.5014   18.2030 C   0  0  0  0  0  0
  -28.0142  -12.3596   18.6152 C   0  0  0  0  0  0
  -27.6664  -13.1899   19.8790 C   0  0  2  0  0  0
  -28.7016  -12.9284   20.9968 C   0  0  0  0  0  0
  -25.2640  -13.8124   20.5639 C   0  0  0  0  0  0
  -24.1876  -13.0436   20.9158 C   0  0  0  0  0  0
  -24.6393  -11.6880   20.8724 C   0  0  0  0  0  0
  -23.9058  -10.4281   21.0407 C   0  0  0  0  0  0
  -24.3619   -9.4188   21.9168 C   0  0  0  0  0  0
  -23.6294   -8.2231   22.0728 C   0  0  0  0  0  0
  -22.4261   -8.0295   21.3544 C   0  0  0  0  0  0
  -21.9879   -9.0286   20.4674 C   0  0  0  0  0  0
  -22.7214  -10.2159   20.3085 C   0  0  0  0  0  0
  -21.6856   -6.0752   22.5282 C   0  0  0  0  0  0
  -21.4024   -6.5653   23.8218 C   0  0  0  0  0  0
  -21.3649   -5.6802   24.9186 C   0  0  0  0  0  0
  -21.6037   -4.3063   24.7229 C   0  0  0  0  0  0
  -21.8822   -3.8159   23.4351 C   0  0  0  0  0  0
  -21.9181   -4.6981   22.3407 C   0  0  0  0  0  0
  -22.7897  -13.5250   21.1837 C   0  0  0  0  0  0
  -22.1664   -4.2169   21.0995 F   0  0  0  0  0  0
  -21.5603   -3.4533   25.7740 F   0  0  0  0  0  0
  -30.0398  -13.2420   20.4642 N   0  0  0  0  0  0
  -26.3051  -12.9257   20.3361 N   0  0  0  0  0  0
  -25.9330  -11.6426   20.5799 N   0  0  0  0  0  0
  -22.0535  -12.8274   22.0421 N   0  0  0  0  0  0
  -25.4421  -15.1837   20.4000 N   0  0  0  0  0  0
  -31.7820  -14.6706   20.0968 O   0  0  0  0  0  0
  -21.6626   -6.8892   21.4236 O   0  0  0  0  0  0
  -22.3602  -14.5551   20.6667 O   0  0  0  0  0  0
  -24.6143  -31.8703   23.2096 C   0  0  0  0  0  0
  -25.9054  -32.4827   23.8387 C   0  0  1  0  0  0
  -27.2377  -27.4587   20.0979 C   0  0  0  0  0  0
  -25.5923  -33.8629   24.2321 N   0  0  0  0  0  0
  -23.4000  -30.4936   21.5458 C   0  0  2  0  0  0
  -24.8480  -28.9598   20.1110 C   0  0  0  0  0  0
  -22.7399  -29.4689   22.4959 C   0  0  0  0  0  0
  -18.0271  -28.1383   22.8508 C   0  0  0  0  0  0
  -24.1462  -36.7311   23.2629 C   0  0  0  0  0  0
  -25.9222  -30.8461   21.3533 C   0  0  0  0  0  0
  -26.0020  -29.4770   20.7147 C   0  0  0  0  0  0
  -27.1987  -28.7304   20.7160 C   0  0  0  0  0  0
  -26.0749  -26.9595   19.4775 C   0  0  0  0  0  0
  -24.8764  -27.6985   19.4892 C   0  0  0  0  0  0
  -23.6086  -29.8235   20.1592 C   0  0  0  0  0  0
  -25.4083  -36.3118   24.0335 C   0  0  1  0  0  0
  -20.5864  -28.3675   23.1305 C   0  0  2  0  0  0
  -20.6770  -26.9409   22.5424 C   0  0  0  0  0  0
  -19.5738  -26.6403   21.5216 C   0  0  0  0  0  0
  -18.1916  -26.7937   22.1636 C   0  0  0  0  0  0
  -19.1519  -28.8851   23.2916 C   0  0  0  0  0  0
  -18.9459  -30.1461   23.8921 C   0  0  0  0  0  0
  -17.6465  -30.6599   24.0573 C   0  0  0  0  0  0
  -25.9013  -34.9493   23.5113 C   0  0  0  0  0  0
  -16.5356  -29.9109   23.6322 C   0  0  0  0  0  0
  -16.7264  -28.6522   23.0344 C   0  0  0  0  0  0
  -26.4481  -31.6604   25.0721 C   0  0  0  0  0  0
  -25.3764  -31.3744   26.1472 C   0  0  0  0  0  0
  -27.0285  -30.3049   24.6082 C   0  0  0  0  0  0
  -27.6043  -32.4307   25.7519 C   0  0  0  0  0  0
  -27.5550  -37.1806   24.8465 C   0  0  0  0  0  0
  -21.4121  -29.3055   22.3717 N   0  0  0  0  0  0
  -26.4257  -37.3823   23.9429 N   0  0  0  0  0  0
  -24.6640  -31.0837   22.0965 N   0  0  0  0  0  0
  -23.4193  -28.8234   23.2988 O   0  0  0  0  0  0
  -28.3692  -26.6807   20.0681 O   0  0  0  0  0  0
  -26.5553  -34.8958   22.4655 O   0  0  0  0  0  0
  -23.5351  -32.1405   23.7531 O   0  0  0  0  0  0
  -25.4438  -20.9305   22.5732 C   0  0  0  0  0  0
  -26.3051  -21.9437   22.1256 C   0  0  0  0  0  0
  -25.9742  -19.7974   23.2214 C   0  0  0  0  0  0
  -27.3831  -19.7252   23.3562 C   0  0  0  0  0  0
  -27.6911  -21.7999   22.3269 C   0  0  0  0  0  0
  -23.6062  -18.9924   24.0961 C   0  0  0  0  0  0
  -24.6142  -18.6922   25.1780 C   0  0  0  0  0  0
  -25.0509  -18.7199   23.7286 C   0  0  0  0  0  0
  -28.0837  -18.5163   23.9750 C   0  0  0  0  0  0
  -29.3960  -24.9870   21.4934 C   0  0  0  0  0  0
  -30.3383  -16.7726   21.3659 C   0  0  0  0  0  0
  -29.9530  -17.5036   22.6732 C   0  0  0  0  0  0
  -29.0025  -26.4678   21.3271 C   0  0  0  0  0  0
  -28.2029  -24.0147   21.5214 C   0  0  0  0  0  0
  -28.2108  -20.6980   22.9046 N   0  0  0  0  0  0
  -30.0282  -15.3370   21.3489 N   0  0  0  0  0  0
  -28.4929  -17.5693   22.9172 N   0  3  0  0  0  0
  -28.6431  -22.7336   21.9704 O   0  0  0  0  0  0
  -31.4697  -12.4068   19.1109 H   0  0  0  0  0  0
  -30.3395  -11.2686   19.7920 H   0  0  0  0  0  0
  -29.7289  -11.7846   17.4148 H   0  0  0  0  0  0
  -29.6577  -13.4915   17.7764 H   0  0  0  0  0  0
  -27.8222  -11.3009   18.7999 H   0  0  0  0  0  0
  -27.3604  -12.6420   17.7885 H   0  0  0  0  0  0
  -27.7256  -14.2417   19.6004 H   0  0  0  0  0  0
  -28.6716  -11.8800   21.2988 H   0  0  0  0  0  0
  -28.4489  -13.4874   21.8976 H   0  0  0  0  0  0
  -25.2790   -9.5632   22.4697 H   0  0  0  0  0  0
  -24.0033   -7.4590   22.7398 H   0  0  0  0  0  0
  -21.0790   -8.8835   19.9012 H   0  0  0  0  0  0
  -22.3680  -10.9721   19.6216 H   0  0  0  0  0  0
  -21.2070   -7.6163   23.9739 H   0  0  0  0  0  0
  -21.1430   -6.0529   25.9082 H   0  0  0  0  0  0
  -22.0602   -2.7615   23.2851 H   0  0  0  0  0  0
  -22.4142  -11.9983   22.4899 H   0  0  0  0  0  0
  -21.1166  -13.1309   22.2633 H   0  0  0  0  0  0
  -24.6523  -15.8184   20.4119 H   0  0  0  0  0  0
  -26.2658  -15.5883   19.9749 H   0  0  0  0  0  0
  -26.7145  -32.5548   23.1175 H   0  0  0  0  0  0
  -25.0232  -33.9799   25.0569 H   0  0  0  0  0  0
  -22.6906  -31.3120   21.4058 H   0  0  0  0  0  0
  -23.3729  -35.9633   23.3297 H   0  0  0  0  0  0
  -24.3561  -36.8919   22.2039 H   0  0  0  0  0  0
  -23.7201  -37.6519   23.6633 H   0  0  0  0  0  0
  -26.0162  -31.6060   20.5760 H   0  0  0  0  0  0
  -26.8197  -30.9175   21.9578 H   0  0  0  0  0  0
  -28.0867  -29.1352   21.1830 H   0  0  0  0  0  0
  -26.0980  -25.9916   18.9950 H   0  0  0  0  0  0
  -23.9908  -27.2986   19.0129 H   0  0  0  0  0  0
  -23.7139  -30.5974   19.3987 H   0  0  0  0  0  0
  -22.7356  -29.2408   19.8593 H   0  0  0  0  0  0
  -25.1260  -36.1954   25.0828 H   0  0  0  0  0  0
  -20.9967  -28.3229   24.1405 H   0  0  0  0  0  0
  -20.5677  -26.2286   23.3616 H   0  0  0  0  0  0
  -21.6639  -26.7450   22.1212 H   0  0  0  0  0  0
  -19.6901  -25.6311   21.1236 H   0  0  0  0  0  0
  -19.6668  -27.3221   20.6740 H   0  0  0  0  0  0
  -17.4198  -26.6697   21.4026 H   0  0  0  0  0  0
  -18.0311  -26.0071   22.9022 H   0  0  0  0  0  0
  -19.7942  -30.7272   24.2294 H   0  0  0  0  0  0
  -17.5024  -31.6262   24.5176 H   0  0  0  0  0  0
  -15.5359  -30.3027   23.7620 H   0  0  0  0  0  0
  -15.8670  -28.0855   22.7027 H   0  0  0  0  0  0
  -24.5933  -30.7084   25.7845 H   0  0  0  0  0  0
  -24.8975  -32.2926   26.4878 H   0  0  0  0  0  0
  -25.8138  -30.8966   27.0249 H   0  0  0  0  0  0
  -26.2837  -29.6885   24.1047 H   0  0  0  0  0  0
  -27.3967  -29.7222   25.4533 H   0  0  0  0  0  0
  -27.8702  -30.4368   23.9291 H   0  0  0  0  0  0
  -27.2641  -33.3594   26.2117 H   0  0  0  0  0  0
  -28.3882  -32.6877   25.0383 H   0  0  0  0  0  0
  -28.0689  -31.8423   26.5439 H   0  0  0  0  0  0
  -28.2592  -38.0089   24.7523 H   0  0  0  0  0  0
  -28.1030  -36.2631   24.6260 H   0  0  0  0  0  0
  -27.2291  -37.1415   25.8879 H   0  0  0  0  0  0
  -20.9260  -29.8783   21.6956 H   0  0  0  0  0  0
  -26.0132  -38.2893   24.1469 H   0  0  0  0  0  0
  -24.3808  -21.0354   22.4162 H   0  0  0  0  0  0
  -25.8793  -22.8085   21.6400 H   0  0  0  0  0  0
  -23.2249  -20.0119   24.0545 H   0  0  0  0  0  0
  -22.8753  -18.2167   23.8722 H   0  0  0  0  0  0
  -24.5278  -17.7251   25.6679 H   0  0  0  0  0  0
  -24.9047  -19.5194   25.8230 H   0  0  0  0  0  0
  -25.2596  -17.7649   23.2461 H   0  0  0  0  0  0
  -27.4309  -18.0132   24.6874 H   0  0  0  0  0  0
  -28.9431  -18.8512   24.5606 H   0  0  0  0  0  0
  -29.9359  -24.8926   22.4370 H   0  0  0  0  0  0
  -30.0958  -24.6928   20.7116 H   0  0  0  0  0  0
  -29.8416  -17.2407   20.5147 H   0  0  0  0  0  0
  -31.4052  -16.9268   21.1983 H   0  0  0  0  0  0
  -30.3390  -18.5228   22.6132 H   0  0  0  0  0  0
  -30.4533  -17.0398   23.5250 H   0  0  0  0  0  0
  -29.8945  -27.0925   21.3733 H   0  0  0  0  0  0
  -28.3649  -26.7611   22.1643 H   0  0  0  0  0  0
  -27.7652  -23.9269   20.5256 H   0  0  0  0  0  0
  -27.4401  -24.4101   22.1935 H   0  0  0  0  0  0
  -29.1566  -15.0176   21.7395 H   0  0  0  0  0  0
  -28.0253  -17.8730   22.0783 H   0  0  0  0  0  0
  -28.1470  -16.6600   23.1694 H   0  0  0  0  0  0
  1 25  1  0  0  0
  1 30  2  0  0  0
  1 86  1  0  0  0
  2  3  1  0  0  0
  2 25  1  0  0  0
  2 89  1  0  0  0
  2 90  1  0  0  0
  3  4  1  0  0  0
  3 91  1  0  0  0
  3 92  1  0  0  0
  4  5  1  0  0  0
  4 93  1  0  0  0
  4 94  1  0  0  0
  5  6  1  0  0  0
  5 26  1  0  0  0
  5 95  1  0  0  0
  6 25  1  0  0  0
  6 96  1  0  0  0
  6 97  1  0  0  0
  7  8  2  0  0  0
  7 26  1  0  0  0
  7 29  1  0  0  0
  8  9  1  0  0  0
  8 22  1  0  0  0
  9 10  1  0  0  0
  9 27  2  0  0  0
 10 11  2  0  0  0
 10 15  1  0  0  0
 11 12  1  0  0  0
 11 98  1  0  0  0
 12 13  2  0  0  0
 12 99  1  0  0  0
 13 14  1  0  0  0
 13 31  1  0  0  0
 14 15  2  0  0  0
 14100  1  0  0  0
 15101  1  0  0  0
 16 17  2  0  0  0
 16 21  1  0  0  0
 16 31  1  0  0  0
 17 18  1  0  0  0
 17102  1  0  0  0
 18 19  2  0  0  0
 18103  1  0  0  0
 19 20  1  0  0  0
 19 24  1  0  0  0
 20 21  2  0  0  0
 20104  1  0  0  0
 21 23  1  0  0  0
 22 28  1  0  0  0
 22 32  2  0  0  0
 26 27  1  0  0  0
 28105  1  0  0  0
 28106  1  0  0  0
 29107  1  0  0  0
 29108  1  0  0  0
 33 34  1  0  0  0
 33 66  1  0  0  0
 33 70  2  0  0  0
 34 36  1  0  0  0
 34 59  1  0  0  0
 34109  1  0  0  0
 35 44  2  0  0  0
 35 45  1  0  0  0
 35 68  1  0  0  0
 36 56  1  0  0  0
 36110  1  0  0  0
 37 39  1  0  0  0
 37 47  1  0  0  0
 37 66  1  0  0  0
 37111  1  0  0  0
 38 43  2  0  0  0
 38 46  1  0  0  0
 38 47  1  0  0  0
 39 64  1  0  0  0
 39 67  2  0  0  0
 40 52  1  0  0  0
 40 53  2  0  0  0
 40 58  1  0  0  0
 41112  1  0  0  0
 41113  1  0  0  0
 41114  1  0  0  0
 41 48  1  0  0  0
 42 43  1  0  0  0
 42 66  1  0  0  0
 42115  1  0  0  0
 42116  1  0  0  0
 43 44  1  0  0  0
 44117  1  0  0  0
 45 46  2  0  0  0
 45118  1  0  0  0
 46119  1  0  0  0
 47120  1  0  0  0
 47121  1  0  0  0
 48 56  1  0  0  0
 48 65  1  0  0  0
 48122  1  0  0  0
 49 50  1  0  0  0
 49 53  1  0  0  0
 49 64  1  0  0  0
 49123  1  0  0  0
 50 51  1  0  0  0
 50124  1  0  0  0
 50125  1  0  0  0
 51 52  1  0  0  0
 51126  1  0  0  0
 51127  1  0  0  0
 52128  1  0  0  0
 52129  1  0  0  0
 53 54  1  0  0  0
 54 55  2  0  0  0
 54130  1  0  0  0
 55 57  1  0  0  0
 55131  1  0  0  0
 56 69  2  0  0  0
 57 58  2  0  0  0
 57132  1  0  0  0
 58133  1  0  0  0
 59 60  1  0  0  0
 59 61  1  0  0  0
 59 62  1  0  0  0
 60134  1  0  0  0
 60135  1  0  0  0
 60136  1  0  0  0
 61137  1  0  0  0
 61138  1  0  0  0
 61139  1  0  0  0
 62140  1  0  0  0
 62141  1  0  0  0
 62142  1  0  0  0
 63 65  1  0  0  0
 63143  1  0  0  0
 63144  1  0  0  0
 63145  1  0  0  0
 64146  1  0  0  0
 65147  1  0  0  0
 68 83  1  0  0  0
 71 72  2  0  0  0
 71 73  1  0  0  0
 71148  1  0  0  0
 72 75  1  0  0  0
 72149  1  0  0  0
 73 74  2  0  0  0
 73 78  1  0  0  0
 74 79  1  0  0  0
 74 85  1  0  0  0
 75 85  2  0  0  0
 75 88  1  0  0  0
 76 77  1  0  0  0
 76 78  1  0  0  0
 76150  1  0  0  0
 76151  1  0  0  0
 77 78  1  0  0  0
 77152  1  0  0  0
 77153  1  0  0  0
 78154  1  0  0  0
 79 87  1  0  0  0
 79155  1  0  0  0
 79156  1  0  0  0
 80 83  1  0  0  0
 80 84  1  0  0  0
 80157  1  0  0  0
 80158  1  0  0  0
 81 82  1  0  0  0
 81 86  1  0  0  0
 81159  1  0  0  0
 81160  1  0  0  0
 82 87  1  0  0  0
 82161  1  0  0  0
 82162  1  0  0  0
 83163  1  0  0  0
 83164  1  0  0  0
 84 88  1  0  0  0
 84165  1  0  0  0
 84166  1  0  0  0
 86167  1  0  0  0
 87168  1  0  0  0
 87169  1  0  0  0
M  CHG  1  87   1
M  ISO  4   1 100  68 101  83 101  86 100
M  END
> <chiral flag>
0

> <version>
0

> <s_m_source_file>
/data/baiqing/PycharmProjects/Reinvent-master-3.2/result/LINK_invent/BTK/process_docking_weight1_custom_sum_contain_oxygen_bond_distance_aromatic_linkinvent_7_9_3/rearranged_h_0120.sdf

> <i_m_source_file_index>
60

> <r_mmod_Potential_Energy-OPLS-2005>
-500.022491455078

> <r_mmod_Stretch_Energy-OPLS-2005>
34.1474418640137

> <r_mmod_Bend_Energy-OPLS-2005>
97.7185440063477

> <r_mmod_Torsional_Energy-OPLS-2005>
284.673675537109

> <r_mmod_Improper_Torsional_Energy-OPLS-2005>
4.08744478225708

> <r_mmod_Van_der_Waal_Energy-OPLS-2005>
152.049758911133

> <r_mmod_Electrostatic_Energy-OPLS-2005>
-594.238830566406

> <r_mmod_Solvation_Energy-OPLS-2005>
-487.075073242188

> <b_mmod_Minimization_Converged-OPLS-2005>
0

> <r_mmod_RMS_Derivative-OPLS-2005>
3.48767900466919

$$$$
60
                    3D
 Structure written by MMmdl.
174182  0  0  1  0            999 V2000
  -30.6777  -14.5909   20.5254 C   0  0  0  0  0  0
  -30.4364  -12.3832   19.4384 C   0  0  0  0  0  0
  -29.5013  -12.5188   18.2177 C   0  0  0  0  0  0
  -28.0270  -12.3510   18.6391 C   0  0  0  0  0  0
  -27.6563  -13.2100   19.8794 C   0  0  2  0  0  0
  -28.7113  -13.0739   21.0040 C   0  0  0  0  0  0
  -25.2555  -13.8142   20.5667 C   0  0  0  0  0  0
  -24.1821  -13.0430   20.9191 C   0  0  0  0  0  0
  -24.6392  -11.6912   20.8761 C   0  0  0  0  0  0
  -23.9051  -10.4298   21.0412 C   0  0  0  0  0  0
  -24.3612   -9.4207   21.9178 C   0  0  0  0  0  0
  -23.6259   -8.2254   22.0739 C   0  0  0  0  0  0
  -22.4222   -8.0297   21.3547 C   0  0  0  0  0  0
  -21.9872   -9.0276   20.4630 C   0  0  0  0  0  0
  -22.7230  -10.2153   20.3035 C   0  0  0  0  0  0
  -21.6843   -6.0707   22.5267 C   0  0  0  0  0  0
  -21.4008   -6.5612   23.8193 C   0  0  0  0  0  0
  -21.3643   -5.6772   24.9151 C   0  0  0  0  0  0
  -21.6060   -4.3042   24.7213 C   0  0  0  0  0  0
  -21.8831   -3.8124   23.4348 C   0  0  0  0  0  0
  -21.9189   -4.6926   22.3393 C   0  0  0  0  0  0
  -22.7850  -13.5219   21.1835 C   0  0  0  0  0  0
  -22.1632   -4.2111   21.0960 F   0  0  0  0  0  0
  -21.5662   -3.4533   25.7731 F   0  0  0  0  0  0
  -30.0205  -13.3974   20.4239 N   0  0  0  0  0  0
  -26.3010  -12.9312   20.3444 N   0  0  0  0  0  0
  -25.9334  -11.6484   20.5866 N   0  0  0  0  0  0
  -22.0491  -12.8184   22.0376 N   0  0  0  0  0  0
  -25.4234  -15.1851   20.3922 N   0  0  0  0  0  0
  -31.8544  -14.7131   20.1804 O   0  0  0  0  0  0
  -21.6633   -6.8865   21.4227 O   0  0  0  0  0  0
  -22.3544  -14.5537   20.6690 O   0  0  0  0  0  0
  -24.6225  -31.8645   23.2105 C   0  0  0  0  0  0
  -25.9099  -32.4805   23.8402 C   0  0  1  0  0  0
  -27.2178  -27.3705   20.0752 C   0  0  0  0  0  0
  -25.5932  -33.8611   24.2308 N   0  0  0  0  0  0
  -23.4112  -30.4959   21.5520 C   0  0  2  0  0  0
  -24.8525  -28.9684   20.1071 C   0  0  0  0  0  0
  -22.7441  -29.4666   22.4948 C   0  0  0  0  0  0
  -18.0283  -28.1378   22.8498 C   0  0  0  0  0  0
  -24.1480  -36.7308   23.2636 C   0  0  0  0  0  0
  -25.9517  -30.8050   21.3826 C   0  0  0  0  0  0
  -26.0194  -29.4409   20.7180 C   0  0  0  0  0  0
  -27.2012  -28.6476   20.7051 C   0  0  0  0  0  0
  -26.0264  -26.9588   19.4239 C   0  0  0  0  0  0
  -24.8545  -27.7296   19.4588 C   0  0  0  0  0  0
  -23.6209  -29.8441   20.1631 C   0  0  0  0  0  0
  -25.4102  -36.3098   24.0328 C   0  0  1  0  0  0
  -20.5880  -28.3676   23.1280 C   0  0  2  0  0  0
  -20.6770  -26.9403   22.5396 C   0  0  0  0  0  0
  -19.5744  -26.6386   21.5196 C   0  0  0  0  0  0
  -18.1922  -26.7922   22.1619 C   0  0  0  0  0  0
  -19.1534  -28.8831   23.2896 C   0  0  0  0  0  0
  -18.9465  -30.1438   23.8919 C   0  0  0  0  0  0
  -17.6470  -30.6577   24.0563 C   0  0  0  0  0  0
  -25.9037  -34.9467   23.5116 C   0  0  0  0  0  0
  -16.5358  -29.9082   23.6337 C   0  0  0  0  0  0
  -16.7272  -28.6496   23.0355 C   0  0  0  0  0  0
  -26.4483  -31.6610   25.0770 C   0  0  0  0  0  0
  -25.3727  -31.3748   26.1507 C   0  0  0  0  0  0
  -27.0324  -30.3032   24.6230 C   0  0  0  0  0  0
  -27.6025  -32.4355   25.7560 C   0  0  0  0  0  0
  -27.5579  -37.1807   24.8451 C   0  0  0  0  0  0
  -21.4154  -29.3057   22.3689 N   0  0  0  0  0  0
  -26.4270  -37.3804   23.9416 N   0  0  0  0  0  0
  -24.6799  -31.0692   22.1056 N   0  0  0  0  0  0
  -23.4182  -28.8177   23.2984 O   0  0  0  0  0  0
  -28.3629  -26.5667   20.1250 O   0  0  0  0  0  0
  -26.5608  -34.8929   22.4673 O   0  0  0  0  0  0
  -23.5400  -32.1436   23.7463 O   0  0  0  0  0  0
  -29.5099  -16.4609   19.5025 C   0  0  0  0  0  0
  -30.1049  -16.6272   21.8691 C   0  0  0  0  0  0
  -28.6507  -17.7142   19.8170 C   0  0  0  0  0  0
  -30.4257  -18.1362   21.5124 C   0  0  1  0  0  0
  -34.3767  -18.1814   21.5679 C   0  0  0  0  0  0
  -27.7041  -22.4225   18.7785 C   0  0  0  0  0  0
  -30.5284  -24.4464   20.5893 C   0  0  0  0  0  0
  -31.8842  -18.3218   20.9995 C   0  0  0  0  0  0
  -32.9600  -17.7175   21.9187 C   0  0  0  0  0  0
  -29.2139  -21.3859   20.5673 C   0  0  0  0  0  0
  -29.6506  -20.0411   19.8715 C   0  0  0  0  0  0
  -28.3282  -25.2139   19.5649 C   0  0  0  0  0  0
  -29.0021  -22.6263   19.6056 C   0  0  2  0  0  0
  -29.0674  -24.0503   20.3184 C   0  0  1  0  0  0
  -29.9077  -15.7107   20.7139 N   0  0  0  0  0  0
  -29.3670  -18.7504   20.6239 N   0  3  1  0  0  0
  -31.4748  -12.5056   19.1261 H   0  0  0  0  0  0
  -30.3695  -11.3845   19.8726 H   0  0  0  0  0  0
  -29.7596  -11.7760   17.4627 H   0  0  0  0  0  0
  -29.6415  -13.4935   17.7454 H   0  0  0  0  0  0
  -27.8638  -11.2959   18.8599 H   0  0  0  0  0  0
  -27.3645  -12.5920   17.8076 H   0  0  0  0  0  0
  -27.6625  -14.2438   19.5511 H   0  0  0  0  0  0
  -28.7313  -12.0618   21.4076 H   0  0  0  0  0  0
  -28.4770  -13.7313   21.8417 H   0  0  0  0  0  0
  -25.2770   -9.5680   22.4737 H   0  0  0  0  0  0
  -23.9971   -7.4643   22.7449 H   0  0  0  0  0  0
  -21.0808   -8.8806   19.8934 H   0  0  0  0  0  0
  -22.3693  -10.9689   19.6137 H   0  0  0  0  0  0
  -21.1987   -7.6112   23.9674 H   0  0  0  0  0  0
  -21.1437   -6.0498   25.9046 H   0  0  0  0  0  0
  -22.0625   -2.7580   23.2853 H   0  0  0  0  0  0
  -22.4032  -11.9785   22.4698 H   0  0  0  0  0  0
  -21.1123  -13.1244   22.2586 H   0  0  0  0  0  0
  -24.6571  -15.8426   20.4699 H   0  0  0  0  0  0
  -26.2701  -15.6065   20.0384 H   0  0  0  0  0  0
  -26.7177  -32.5470   23.1157 H   0  0  0  0  0  0
  -25.0057  -33.9768   25.0444 H   0  0  0  0  0  0
  -22.7059  -31.3188   21.4189 H   0  0  0  0  0  0
  -23.3753  -35.9626   23.3248 H   0  0  0  0  0  0
  -24.3589  -36.8982   22.2062 H   0  0  0  0  0  0
  -23.7208  -37.6486   23.6689 H   0  0  0  0  0  0
  -26.0885  -31.5752   20.6224 H   0  0  0  0  0  0
  -26.8326  -30.8411   22.0127 H   0  0  0  0  0  0
  -28.0965  -29.0062   21.1944 H   0  0  0  0  0  0
  -25.9380  -26.0488   18.8545 H   0  0  0  0  0  0
  -23.9673  -27.3686   18.9578 H   0  0  0  0  0  0
  -23.7370  -30.6293   19.4145 H   0  0  0  0  0  0
  -22.7409  -29.2761   19.8572 H   0  0  0  0  0  0
  -25.1270  -36.1935   25.0818 H   0  0  0  0  0  0
  -20.9992  -28.3229   24.1388 H   0  0  0  0  0  0
  -20.5645  -26.2279   23.3583 H   0  0  0  0  0  0
  -21.6632  -26.7419   22.1183 H   0  0  0  0  0  0
  -19.6894  -25.6295   21.1213 H   0  0  0  0  0  0
  -19.6675  -27.3206   20.6727 H   0  0  0  0  0  0
  -17.4183  -26.6676   21.4029 H   0  0  0  0  0  0
  -18.0339  -26.0050   22.9002 H   0  0  0  0  0  0
  -19.7940  -30.7249   24.2289 H   0  0  0  0  0  0
  -17.5024  -31.6267   24.5152 H   0  0  0  0  0  0
  -15.5358  -30.2991   23.7651 H   0  0  0  0  0  0
  -15.8668  -28.0826   22.7062 H   0  0  0  0  0  0
  -24.5870  -30.7132   25.7848 H   0  0  0  0  0  0
  -24.8965  -32.2918   26.4982 H   0  0  0  0  0  0
  -25.8056  -30.8887   27.0256 H   0  0  0  0  0  0
  -26.2908  -29.6808   24.1207 H   0  0  0  0  0  0
  -27.3957  -29.7268   25.4746 H   0  0  0  0  0  0
  -27.8804  -30.4317   23.9503 H   0  0  0  0  0  0
  -27.2599  -33.3641   26.2139 H   0  0  0  0  0  0
  -28.3846  -32.6937   25.0412 H   0  0  0  0  0  0
  -28.0674  -31.8484   26.5490 H   0  0  0  0  0  0
  -28.2534  -38.0173   24.7565 H   0  0  0  0  0  0
  -28.1135  -36.2691   24.6159 H   0  0  0  0  0  0
  -27.2315  -37.1319   25.8864 H   0  0  0  0  0  0
  -20.9292  -29.8824   21.6969 H   0  0  0  0  0  0
  -26.0134  -38.2863   24.1467 H   0  0  0  0  0  0
  -30.3961  -16.7552   18.9391 H   0  0  0  0  0  0
  -28.9543  -15.8168   18.8242 H   0  0  0  0  0  0
  -29.1828  -16.6021   22.4506 H   0  0  0  0  0  0
  -30.8479  -16.2246   22.5586 H   0  0  0  0  0  0
  -27.7840  -17.4077   20.4048 H   0  0  0  0  0  0
  -28.2284  -18.1166   18.8969 H   0  0  0  0  0  0
  -30.3763  -18.7011   22.4436 H   0  0  0  0  0  0
  -35.1130  -17.6518   22.1692 H   0  0  0  0  0  0
  -34.4991  -19.2493   21.7577 H   0  0  0  0  0  0
  -34.6077  -17.9943   20.5180 H   0  0  0  0  0  0
  -27.6884  -21.4781   18.2337 H   0  0  0  0  0  0
  -27.5819  -23.1847   18.0063 H   0  0  0  0  0  0
  -26.8157  -22.4428   19.4102 H   0  0  0  0  0  0
  -30.5896  -25.3902   21.1331 H   0  0  0  0  0  0
  -31.0797  -24.5673   19.6537 H   0  0  0  0  0  0
  -31.0449  -23.6941   21.1873 H   0  0  0  0  0  0
  -32.1086  -19.3841   20.9233 H   0  0  0  0  0  0
  -32.0065  -17.9046   20.0013 H   0  0  0  0  0  0
  -32.7499  -17.9817   22.9554 H   0  0  0  0  0  0
  -32.9288  -16.6301   21.8616 H   0  0  0  0  0  0
  -29.9617  -21.6282   21.3225 H   0  0  0  0  0  0
  -28.2855  -21.2288   21.1189 H   0  0  0  0  0  0
  -30.6850  -20.1203   19.5450 H   0  0  0  0  0  0
  -29.1223  -20.0005   18.9244 H   0  0  0  0  0  0
  -27.3151  -24.8395   19.5390 H   0  0  0  0  0  0
  -28.6856  -25.2707   18.5359 H   0  0  0  0  0  0
  -29.8181  -22.6087   18.8788 H   0  0  0  0  0  0
  -28.5713  -23.9553   21.2855 H   0  0  0  0  0  0
  -28.6472  -19.0329   21.2734 H   0  0  0  0  0  0
  1 25  1  0  0  0
  1 30  2  0  0  0
  1 85  1  0  0  0
  2  3  1  0  0  0
  2 25  1  0  0  0
  2 87  1  0  0  0
  2 88  1  0  0  0
  3  4  1  0  0  0
  3 89  1  0  0  0
  3 90  1  0  0  0
  4  5  1  0  0  0
  4 91  1  0  0  0
  4 92  1  0  0  0
  5  6  1  0  0  0
  5 26  1  0  0  0
  5 93  1  0  0  0
  6 25  1  0  0  0
  6 94  1  0  0  0
  6 95  1  0  0  0
  7  8  2  0  0  0
  7 26  1  0  0  0
  7 29  1  0  0  0
  8  9  1  0  0  0
  8 22  1  0  0  0
  9 10  1  0  0  0
  9 27  2  0  0  0
 10 11  2  0  0  0
 10 15  1  0  0  0
 11 12  1  0  0  0
 11 96  1  0  0  0
 12 13  2  0  0  0
 12 97  1  0  0  0
 13 14  1  0  0  0
 13 31  1  0  0  0
 14 15  2  0  0  0
 14 98  1  0  0  0
 15 99  1  0  0  0
 16 17  2  0  0  0
 16 21  1  0  0  0
 16 31  1  0  0  0
 17 18  1  0  0  0
 17100  1  0  0  0
 18 19  2  0  0  0
 18101  1  0  0  0
 19 20  1  0  0  0
 19 24  1  0  0  0
 20 21  2  0  0  0
 20102  1  0  0  0
 21 23  1  0  0  0
 22 28  1  0  0  0
 22 32  2  0  0  0
 26 27  1  0  0  0
 28103  1  0  0  0
 28104  1  0  0  0
 29105  1  0  0  0
 29106  1  0  0  0
 33 34  1  0  0  0
 33 66  1  0  0  0
 33 70  2  0  0  0
 34 36  1  0  0  0
 34 59  1  0  0  0
 34107  1  0  0  0
 35 44  2  0  0  0
 35 45  1  0  0  0
 35 68  1  0  0  0
 36 56  1  0  0  0
 36108  1  0  0  0
 37 39  1  0  0  0
 37 47  1  0  0  0
 37 66  1  0  0  0
 37109  1  0  0  0
 38 43  2  0  0  0
 38 46  1  0  0  0
 38 47  1  0  0  0
 39 64  1  0  0  0
 39 67  2  0  0  0
 40 52  1  0  0  0
 40 53  2  0  0  0
 40 58  1  0  0  0
 41110  1  0  0  0
 41111  1  0  0  0
 41112  1  0  0  0
 41 48  1  0  0  0
 42 43  1  0  0  0
 42 66  1  0  0  0
 42113  1  0  0  0
 42114  1  0  0  0
 43 44  1  0  0  0
 44115  1  0  0  0
 45 46  2  0  0  0
 45116  1  0  0  0
 46117  1  0  0  0
 47118  1  0  0  0
 47119  1  0  0  0
 48 56  1  0  0  0
 48 65  1  0  0  0
 48120  1  0  0  0
 49 50  1  0  0  0
 49 53  1  0  0  0
 49 64  1  0  0  0
 49121  1  0  0  0
 50 51  1  0  0  0
 50122  1  0  0  0
 50123  1  0  0  0
 51 52  1  0  0  0
 51124  1  0  0  0
 51125  1  0  0  0
 52126  1  0  0  0
 52127  1  0  0  0
 53 54  1  0  0  0
 54 55  2  0  0  0
 54128  1  0  0  0
 55 57  1  0  0  0
 55129  1  0  0  0
 56 69  2  0  0  0
 57 58  2  0  0  0
 57130  1  0  0  0
 58131  1  0  0  0
 59 60  1  0  0  0
 59 61  1  0  0  0
 59 62  1  0  0  0
 60132  1  0  0  0
 60133  1  0  0  0
 60134  1  0  0  0
 61135  1  0  0  0
 61136  1  0  0  0
 61137  1  0  0  0
 62138  1  0  0  0
 62139  1  0  0  0
 62140  1  0  0  0
 63 65  1  0  0  0
 63141  1  0  0  0
 63142  1  0  0  0
 63143  1  0  0  0
 64144  1  0  0  0
 65145  1  0  0  0
 68 82  1  0  0  0
 71 73  1  0  0  0
 71 85  1  0  0  0
 71146  1  0  0  0
 71147  1  0  0  0
 72 74  1  0  0  0
 72 85  1  0  0  0
 72148  1  0  0  0
 72149  1  0  0  0
 73 86  1  0  0  0
 73150  1  0  0  0
 73151  1  0  0  0
 74 78  1  0  0  0
 74 86  1  0  0  0
 74152  1  0  0  0
 75 79  1  0  0  0
 75153  1  0  0  0
 75154  1  0  0  0
 75155  1  0  0  0
 76156  1  0  0  0
 76157  1  0  0  0
 76158  1  0  0  0
 76 83  1  0  0  0
 77159  1  0  0  0
 77160  1  0  0  0
 77161  1  0  0  0
 77 84  1  0  0  0
 78 79  1  0  0  0
 78162  1  0  0  0
 78163  1  0  0  0
 79164  1  0  0  0
 79165  1  0  0  0
 80 81  1  0  0  0
 80 83  1  0  0  0
 80166  1  0  0  0
 80167  1  0  0  0
 81168  1  0  0  0
 81169  1  0  0  0
 81 86  1  0  0  0
 82 84  1  0  0  0
 82170  1  0  0  0
 82171  1  0  0  0
 83 84  1  0  0  0
 83172  1  0  0  0
 84173  1  0  0  0
 86174  1  0  0  0
M  CHG  1  86   1
M  ISO  4   1 100  68 101  82 101  85 100
M  END
> <chiral flag>
0

> <version>
0

> <s_m_source_file>
/data/baiqing/PycharmProjects/Reinvent-master-3.2/result/LINK_invent/BTK/process_docking_weight1_custom_sum_contain_oxygen_bond_distance_aromatic_linkinvent_7_9_3/rearranged_h_0120.sdf

> <i_m_source_file_index>
61

> <r_mmod_Potential_Energy-OPLS-2005>
259.391265869141

> <r_mmod_Stretch_Energy-OPLS-2005>
70.1387023925781

> <r_mmod_Bend_Energy-OPLS-2005>
147.692626953125

> <r_mmod_Torsional_Energy-OPLS-2005>
439.246734619141

> <r_mmod_Improper_Torsional_Energy-OPLS-2005>
10.8645601272583

> <r_mmod_Van_der_Waal_Energy-OPLS-2005>
151.827682495117

> <r_mmod_Electrostatic_Energy-OPLS-2005>
-175.118774414062

> <r_mmod_Solvation_Energy-OPLS-2005>
-420.341033935547

> <b_mmod_Minimization_Converged-OPLS-2005>
0

> <r_mmod_RMS_Derivative-OPLS-2005>
4.07741165161133

$$$$
61
                    3D
 Structure written by MMmdl.
165174  0  0  1  0            999 V2000
  -30.6399  -14.4682   20.6002 C   0  0  0  0  0  0
  -30.4361  -12.2988   19.4084 C   0  0  0  0  0  0
  -29.4973  -12.4894   18.1979 C   0  0  0  0  0  0
  -28.0198  -12.3372   18.6185 C   0  0  0  0  0  0
  -27.6661  -13.1809   19.8738 C   0  0  2  0  0  0
  -28.7032  -12.9230   20.9892 C   0  0  0  0  0  0
  -25.2633  -13.8122   20.5607 C   0  0  0  0  0  0
  -24.1855  -13.0405   20.9165 C   0  0  0  0  0  0
  -24.6387  -11.6884   20.8747 C   0  0  0  0  0  0
  -23.9046  -10.4276   21.0421 C   0  0  0  0  0  0
  -24.3622   -9.4191   21.9184 C   0  0  0  0  0  0
  -23.6294   -8.2228   22.0744 C   0  0  0  0  0  0
  -22.4275   -8.0275   21.3526 C   0  0  0  0  0  0
  -21.9909   -9.0256   20.4637 C   0  0  0  0  0  0
  -22.7238  -10.2131   20.3052 C   0  0  0  0  0  0
  -21.6838   -6.0730   22.5271 C   0  0  0  0  0  0
  -21.4014   -6.5636   23.8208 C   0  0  0  0  0  0
  -21.3659   -5.6793   24.9171 C   0  0  0  0  0  0
  -21.6059   -4.3057   24.7225 C   0  0  0  0  0  0
  -21.8810   -3.8144   23.4341 C   0  0  0  0  0  0
  -21.9199   -4.6961   22.3400 C   0  0  0  0  0  0
  -22.7920  -13.5244   21.1865 C   0  0  0  0  0  0
  -22.1665   -4.2147   21.0976 F   0  0  0  0  0  0
  -21.5638   -3.4537   25.7733 F   0  0  0  0  0  0
  -30.0303  -13.2623   20.4413 N   0  0  0  0  0  0
  -26.3035  -12.9227   20.3354 N   0  0  0  0  0  0
  -25.9305  -11.6411   20.5798 N   0  0  0  0  0  0
  -22.0583  -12.8205   22.0441 N   0  0  0  0  0  0
  -25.4377  -15.1794   20.3891 N   0  0  0  0  0  0
  -31.7760  -14.7199   20.1877 O   0  0  0  0  0  0
  -21.6627   -6.8870   21.4226 O   0  0  0  0  0  0
  -22.3597  -14.5546   20.6751 O   0  0  0  0  0  0
  -24.6113  -31.8700   23.2089 C   0  0  0  0  0  0
  -25.9022  -32.4802   23.8371 C   0  0  1  0  0  0
  -27.2201  -27.4396   20.1020 C   0  0  0  0  0  0
  -25.5926  -33.8594   24.2330 N   0  0  0  0  0  0
  -23.3984  -30.4949   21.5453 C   0  0  2  0  0  0
  -24.8480  -28.9651   20.0990 C   0  0  0  0  0  0
  -22.7397  -29.4661   22.4935 C   0  0  0  0  0  0
  -18.0286  -28.1324   22.8492 C   0  0  0  0  0  0
  -24.1519  -36.7291   23.2652 C   0  0  0  0  0  0
  -25.9292  -30.8326   21.3698 C   0  0  0  0  0  0
  -26.0034  -29.4716   20.7079 C   0  0  0  0  0  0
  -27.1943  -28.7125   20.7130 C   0  0  0  0  0  0
  -26.0667  -26.9601   19.4564 C   0  0  0  0  0  0
  -24.8747  -27.7109   19.4642 C   0  0  0  0  0  0
  -23.6088  -29.8269   20.1583 C   0  0  0  0  0  0
  -25.4132  -36.3076   24.0354 C   0  0  1  0  0  0
  -20.5885  -28.3592   23.1328 C   0  0  2  0  0  0
  -20.6734  -26.9286   22.5458 C   0  0  0  0  0  0
  -19.5698  -26.6254   21.5270 C   0  0  0  0  0  0
  -18.1882  -26.7840   22.1683 C   0  0  0  0  0  0
  -19.1552  -28.8780   23.2878 C   0  0  0  0  0  0
  -18.9505  -30.1394   23.8852 C   0  0  0  0  0  0
  -17.6527  -30.6569   24.0483 C   0  0  0  0  0  0
  -25.9036  -34.9458   23.5125 C   0  0  0  0  0  0
  -16.5396  -29.9090   23.6290 C   0  0  0  0  0  0
  -16.7295  -28.6470   23.0355 C   0  0  0  0  0  0
  -26.4460  -31.6539   25.0673 C   0  0  0  0  0  0
  -25.3738  -31.3682   26.1428 C   0  0  0  0  0  0
  -27.0356  -30.2997   24.6084 C   0  0  0  0  0  0
  -27.6043  -32.4241   25.7438 C   0  0  0  0  0  0
  -27.5601  -37.1820   24.8473 C   0  0  0  0  0  0
  -21.4125  -29.3002   22.3735 N   0  0  0  0  0  0
  -26.4313  -37.3768   23.9399 N   0  0  0  0  0  0
  -24.6623  -31.0824   22.0976 N   0  0  0  0  0  0
  -23.4200  -28.8210   23.2940 O   0  0  0  0  0  0
  -28.3261  -26.6295   20.1617 O   0  0  0  0  0  0
  -26.5581  -34.8920   22.4670 O   0  0  0  0  0  0
  -23.5314  -32.1445   23.7505 O   0  0  0  0  0  0
  -26.1023  -22.1576   22.1699 C   0  0  0  0  0  0
  -27.8482  -20.0355   22.0947 C   0  0  0  0  0  0
  -27.2497  -22.1823   21.3508 C   0  0  0  0  0  0
  -26.6921  -20.0614   22.9396 C   0  0  0  0  0  0
  -30.1527  -19.1279   21.1754 C   0  0  0  0  0  0
  -30.7478  -17.7403   20.8162 C   0  0  0  0  0  0
  -28.9400  -18.9129   22.1312 C   0  0  2  0  0  0
  -29.9686  -16.7442   21.6639 C   0  0  1  0  0  0
  -28.5836  -17.4322   21.7867 C   0  0  1  0  0  0
  -26.3425  -18.9995   23.9577 C   0  0  0  0  0  0
  -27.5442  -23.4243   20.5052 C   0  0  0  0  0  0
  -28.6656  -24.3283   21.0851 C   0  0  0  0  0  0
  -28.3415  -25.8231   21.3539 C   0  0  0  0  0  0
  -25.8235  -21.1027   22.9592 N   0  0  0  0  0  0
  -28.1089  -21.1256   21.3058 N   0  0  0  0  0  0
  -29.8119  -15.3850   21.1393 N   0  0  0  0  0  0
  -27.8668  -16.6934   22.7592 O   0  0  0  0  0  0
  -31.4759  -12.4311   19.1127 H   0  0  0  0  0  0
  -30.3579  -11.2798   19.7956 H   0  0  0  0  0  0
  -29.7352  -11.7652   17.4156 H   0  0  0  0  0  0
  -29.6603  -13.4767   17.7597 H   0  0  0  0  0  0
  -27.8402  -11.2788   18.8239 H   0  0  0  0  0  0
  -27.3645  -12.6029   17.7883 H   0  0  0  0  0  0
  -27.7272  -14.2302   19.5846 H   0  0  0  0  0  0
  -28.6908  -11.8758   21.2950 H   0  0  0  0  0  0
  -28.4500  -13.4802   21.8964 H   0  0  0  0  0  0
  -25.2771   -9.5654   22.4741 H   0  0  0  0  0  0
  -24.0011   -7.4610   22.7438 H   0  0  0  0  0  0
  -21.0853   -8.8774   19.8934 H   0  0  0  0  0  0
  -22.3717  -10.9672   19.6158 H   0  0  0  0  0  0
  -21.1989   -7.6142   23.9704 H   0  0  0  0  0  0
  -21.1500   -6.0523   25.9073 H   0  0  0  0  0  0
  -22.0595   -2.7602   23.2845 H   0  0  0  0  0  0
  -22.4237  -11.9831   22.4741 H   0  0  0  0  0  0
  -21.1187  -13.1191   22.2633 H   0  0  0  0  0  0
  -24.6850  -15.8453   20.5090 H   0  0  0  0  0  0
  -26.3062  -15.6124   20.1054 H   0  0  0  0  0  0
  -26.7087  -32.5496   23.1135 H   0  0  0  0  0  0
  -25.0100  -33.9728   25.0493 H   0  0  0  0  0  0
  -22.6868  -31.3141   21.4066 H   0  0  0  0  0  0
  -23.3774  -35.9626   23.3302 H   0  0  0  0  0  0
  -24.3645  -36.8894   22.2070 H   0  0  0  0  0  0
  -23.7285  -37.6519   23.6642 H   0  0  0  0  0  0
  -26.0651  -31.6119   20.6218 H   0  0  0  0  0  0
  -26.8091  -30.8643   22.0011 H   0  0  0  0  0  0
  -28.0832  -29.0979   21.1949 H   0  0  0  0  0  0
  -26.0975  -26.0024   18.9600 H   0  0  0  0  0  0
  -23.9883  -27.3271   18.9772 H   0  0  0  0  0  0
  -23.7100  -30.6062   19.4046 H   0  0  0  0  0  0
  -22.7361  -29.2502   19.8478 H   0  0  0  0  0  0
  -25.1321  -36.1953   25.0859 H   0  0  0  0  0  0
  -21.0037  -28.3141   24.1416 H   0  0  0  0  0  0
  -20.5521  -26.2212   23.3678 H   0  0  0  0  0  0
  -21.6592  -26.7308   22.1237 H   0  0  0  0  0  0
  -19.6792  -25.6179   21.1280 H   0  0  0  0  0  0
  -19.6625  -27.3015   20.6780 H   0  0  0  0  0  0
  -17.4196  -26.6618   21.4037 H   0  0  0  0  0  0
  -18.0227  -25.9976   22.9062 H   0  0  0  0  0  0
  -19.7970  -30.7192   24.2259 H   0  0  0  0  0  0
  -17.5150  -31.6256   24.5053 H   0  0  0  0  0  0
  -15.5411  -30.3050   23.7600 H   0  0  0  0  0  0
  -15.8695  -28.0747   22.7150 H   0  0  0  0  0  0
  -24.5878  -30.7063   25.7791 H   0  0  0  0  0  0
  -24.8948  -32.2853   26.4865 H   0  0  0  0  0  0
  -25.8066  -30.8860   27.0192 H   0  0  0  0  0  0
  -26.2950  -29.6705   24.1143 H   0  0  0  0  0  0
  -27.4184  -29.7268   25.4542 H   0  0  0  0  0  0
  -27.8731  -30.4373   23.9240 H   0  0  0  0  0  0
  -27.2684  -33.3530   26.2066 H   0  0  0  0  0  0
  -28.3832  -32.6805   25.0242 H   0  0  0  0  0  0
  -28.0731  -31.8313   26.5319 H   0  0  0  0  0  0
  -28.2615  -38.0120   24.7495 H   0  0  0  0  0  0
  -28.1105  -36.2649   24.6314 H   0  0  0  0  0  0
  -27.2315  -37.1479   25.8879 H   0  0  0  0  0  0
  -20.9210  -29.8842   21.7106 H   0  0  0  0  0  0
  -26.0202  -38.2858   24.1365 H   0  0  0  0  0  0
  -25.4065  -22.9854   22.2151 H   0  0  0  0  0  0
  -29.8464  -19.5969   20.2373 H   0  0  0  0  0  0
  -30.8945  -19.7794   21.6383 H   0  0  0  0  0  0
  -31.8191  -17.6815   21.0179 H   0  0  0  0  0  0
  -30.5999  -17.5199   19.7567 H   0  0  0  0  0  0
  -29.3284  -18.9295   23.1499 H   0  0  0  0  0  0
  -30.4268  -16.6793   22.6547 H   0  0  0  0  0  0
  -28.0500  -17.3807   20.8322 H   0  0  0  0  0  0
  -27.2271  -18.7018   24.5207 H   0  0  0  0  0  0
  -25.8898  -18.1275   23.4864 H   0  0  0  0  0  0
  -25.6156  -19.3948   24.6690 H   0  0  0  0  0  0
  -26.6201  -23.9900   20.4133 H   0  0  0  0  0  0
  -27.7804  -23.1037   19.4911 H   0  0  0  0  0  0
  -28.9657  -23.8996   22.0394 H   0  0  0  0  0  0
  -29.5462  -24.2481   20.4553 H   0  0  0  0  0  0
  -29.1175  -26.2343   22.0053 H   0  0  0  0  0  0
  -27.4165  -25.9062   21.9298 H   0  0  0  0  0  0
  -28.9028  -15.0017   21.3505 H   0  0  0  0  0  0
  -28.4362  -16.5552   23.5055 H   0  0  0  0  0  0
  1 25  1  0  0  0
  1 30  2  0  0  0
  1 86  1  0  0  0
  2  3  1  0  0  0
  2 25  1  0  0  0
  2 88  1  0  0  0
  2 89  1  0  0  0
  3  4  1  0  0  0
  3 90  1  0  0  0
  3 91  1  0  0  0
  4  5  1  0  0  0
  4 92  1  0  0  0
  4 93  1  0  0  0
  5  6  1  0  0  0
  5 26  1  0  0  0
  5 94  1  0  0  0
  6 25  1  0  0  0
  6 95  1  0  0  0
  6 96  1  0  0  0
  7  8  2  0  0  0
  7 26  1  0  0  0
  7 29  1  0  0  0
  8  9  1  0  0  0
  8 22  1  0  0  0
  9 10  1  0  0  0
  9 27  2  0  0  0
 10 11  2  0  0  0
 10 15  1  0  0  0
 11 12  1  0  0  0
 11 97  1  0  0  0
 12 13  2  0  0  0
 12 98  1  0  0  0
 13 14  1  0  0  0
 13 31  1  0  0  0
 14 15  2  0  0  0
 14 99  1  0  0  0
 15100  1  0  0  0
 16 17  2  0  0  0
 16 21  1  0  0  0
 16 31  1  0  0  0
 17 18  1  0  0  0
 17101  1  0  0  0
 18 19  2  0  0  0
 18102  1  0  0  0
 19 20  1  0  0  0
 19 24  1  0  0  0
 20 21  2  0  0  0
 20103  1  0  0  0
 21 23  1  0  0  0
 22 28  1  0  0  0
 22 32  2  0  0  0
 26 27  1  0  0  0
 28104  1  0  0  0
 28105  1  0  0  0
 29106  1  0  0  0
 29107  1  0  0  0
 33 34  1  0  0  0
 33 66  1  0  0  0
 33 70  2  0  0  0
 34 36  1  0  0  0
 34 59  1  0  0  0
 34108  1  0  0  0
 35 44  2  0  0  0
 35 45  1  0  0  0
 35 68  1  0  0  0
 36 56  1  0  0  0
 36109  1  0  0  0
 37 39  1  0  0  0
 37 47  1  0  0  0
 37 66  1  0  0  0
 37110  1  0  0  0
 38 43  2  0  0  0
 38 46  1  0  0  0
 38 47  1  0  0  0
 39 64  1  0  0  0
 39 67  2  0  0  0
 40 52  1  0  0  0
 40 53  2  0  0  0
 40 58  1  0  0  0
 41111  1  0  0  0
 41112  1  0  0  0
 41113  1  0  0  0
 41 48  1  0  0  0
 42 43  1  0  0  0
 42 66  1  0  0  0
 42114  1  0  0  0
 42115  1  0  0  0
 43 44  1  0  0  0
 44116  1  0  0  0
 45 46  2  0  0  0
 45117  1  0  0  0
 46118  1  0  0  0
 47119  1  0  0  0
 47120  1  0  0  0
 48 56  1  0  0  0
 48 65  1  0  0  0
 48121  1  0  0  0
 49 50  1  0  0  0
 49 53  1  0  0  0
 49 64  1  0  0  0
 49122  1  0  0  0
 50 51  1  0  0  0
 50123  1  0  0  0
 50124  1  0  0  0
 51 52  1  0  0  0
 51125  1  0  0  0
 51126  1  0  0  0
 52127  1  0  0  0
 52128  1  0  0  0
 53 54  1  0  0  0
 54 55  2  0  0  0
 54129  1  0  0  0
 55 57  1  0  0  0
 55130  1  0  0  0
 56 69  2  0  0  0
 57 58  2  0  0  0
 57131  1  0  0  0
 58132  1  0  0  0
 59 60  1  0  0  0
 59 61  1  0  0  0
 59 62  1  0  0  0
 60133  1  0  0  0
 60134  1  0  0  0
 60135  1  0  0  0
 61136  1  0  0  0
 61137  1  0  0  0
 61138  1  0  0  0
 62139  1  0  0  0
 62140  1  0  0  0
 62141  1  0  0  0
 63 65  1  0  0  0
 63142  1  0  0  0
 63143  1  0  0  0
 63144  1  0  0  0
 64145  1  0  0  0
 65146  1  0  0  0
 68 83  1  0  0  0
 71 73  2  0  0  0
 71 84  1  0  0  0
 71147  1  0  0  0
 72 74  1  0  0  0
 72 85  2  0  0  0
 72 77  1  0  0  0
 73 81  1  0  0  0
 73 85  1  0  0  0
 74 80  1  0  0  0
 74 84  2  0  0  0
 75 76  1  0  0  0
 75 77  1  0  0  0
 75148  1  0  0  0
 75149  1  0  0  0
 76 78  1  0  0  0
 76150  1  0  0  0
 76151  1  0  0  0
 77 79  1  0  0  0
 77152  1  0  0  0
 78 79  1  0  0  0
 78 86  1  0  0  0
 78153  1  0  0  0
 79 87  1  0  0  0
 79154  1  0  0  0
 80155  1  0  0  0
 80156  1  0  0  0
 80157  1  0  0  0
 81 82  1  0  0  0
 81158  1  0  0  0
 81159  1  0  0  0
 82 83  1  0  0  0
 82160  1  0  0  0
 82161  1  0  0  0
 83162  1  0  0  0
 83163  1  0  0  0
 86164  1  0  0  0
 87165  1  0  0  0
M  ISO  4   1 100  68 101  83 101  86 100
M  END
> <chiral flag>
0

> <version>
0

> <s_m_source_file>
/data/baiqing/PycharmProjects/Reinvent-master-3.2/result/LINK_invent/BTK/process_docking_weight1_custom_sum_contain_oxygen_bond_distance_aromatic_linkinvent_7_9_3/rearranged_h_0120.sdf

> <i_m_source_file_index>
62

> <r_mmod_Potential_Energy-OPLS-2005>
28.6518135070801

> <r_mmod_Stretch_Energy-OPLS-2005>
46.5952796936035

> <r_mmod_Bend_Energy-OPLS-2005>
161.806686401367

> <r_mmod_Torsional_Energy-OPLS-2005>
288.237213134766

> <r_mmod_Improper_Torsional_Energy-OPLS-2005>
3.86879587173462

> <r_mmod_Van_der_Waal_Energy-OPLS-2005>
151.521911621094

> <r_mmod_Electrostatic_Energy-OPLS-2005>
-416.560516357422

> <r_mmod_Solvation_Energy-OPLS-2005>
-224.827484130859

> <b_mmod_Minimization_Converged-OPLS-2005>
0

> <r_mmod_RMS_Derivative-OPLS-2005>
7.76558780670166

$$$$
62
                    3D
 Structure written by MMmdl.
182190  0  0  1  0            999 V2000
  -30.7015  -14.4539   20.6066 C   0  0  0  0  0  0
  -30.4249  -12.3101   19.4142 C   0  0  0  0  0  0
  -29.4950  -12.5172   18.2020 C   0  0  0  0  0  0
  -28.0164  -12.3725   18.6144 C   0  0  0  0  0  0
  -27.6628  -13.2032   19.8771 C   0  0  2  0  0  0
  -28.7025  -12.9643   20.9949 C   0  0  0  0  0  0
  -25.2596  -13.8150   20.5691 C   0  0  0  0  0  0
  -24.1840  -13.0441   20.9186 C   0  0  0  0  0  0
  -24.6379  -11.6901   20.8720 C   0  0  0  0  0  0
  -23.9042  -10.4295   21.0387 C   0  0  0  0  0  0
  -24.3593   -9.4209   21.9167 C   0  0  0  0  0  0
  -23.6278   -8.2236   22.0743 C   0  0  0  0  0  0
  -22.4256   -8.0274   21.3542 C   0  0  0  0  0  0
  -21.9891   -9.0243   20.4645 C   0  0  0  0  0  0
  -22.7210  -10.2125   20.3050 C   0  0  0  0  0  0
  -21.6858   -6.0726   22.5277 C   0  0  0  0  0  0
  -21.4015   -6.5628   23.8208 C   0  0  0  0  0  0
  -21.3665   -5.6781   24.9170 C   0  0  0  0  0  0
  -21.6044   -4.3048   24.7219 C   0  0  0  0  0  0
  -21.8821   -3.8142   23.4343 C   0  0  0  0  0  0
  -21.9195   -4.6956   22.3400 C   0  0  0  0  0  0
  -22.7864  -13.5251   21.1844 C   0  0  0  0  0  0
  -22.1663   -4.2144   21.0976 F   0  0  0  0  0  0
  -21.5630   -3.4532   25.7735 F   0  0  0  0  0  0
  -30.0342  -13.2789   20.4494 N   0  0  0  0  0  0
  -26.3025  -12.9311   20.3359 N   0  0  0  0  0  0
  -25.9302  -11.6479   20.5733 N   0  0  0  0  0  0
  -22.0488  -12.8249   22.0395 N   0  0  0  0  0  0
  -25.4326  -15.1862   20.4098 N   0  0  0  0  0  0
  -31.8083  -14.6757   20.1086 O   0  0  0  0  0  0
  -21.6634   -6.8858   21.4240 O   0  0  0  0  0  0
  -22.3573  -14.5568   20.6702 O   0  0  0  0  0  0
  -24.6147  -31.8679   23.2110 C   0  0  0  0  0  0
  -25.9050  -32.4818   23.8381 C   0  0  1  0  0  0
  -27.2336  -27.4300   20.0779 C   0  0  0  0  0  0
  -25.5909  -33.8603   24.2333 N   0  0  0  0  0  0
  -23.4021  -30.4949   21.5500 C   0  0  2  0  0  0
  -24.8471  -28.9621   20.1106 C   0  0  0  0  0  0
  -22.7412  -29.4673   22.4976 C   0  0  0  0  0  0
  -18.0277  -28.1411   22.8494 C   0  0  0  0  0  0
  -24.1474  -36.7278   23.2641 C   0  0  0  0  0  0
  -25.9326  -30.8289   21.3669 C   0  0  0  0  0  0
  -26.0075  -29.4630   20.7130 C   0  0  0  0  0  0
  -27.1981  -28.6989   20.7050 C   0  0  0  0  0  0
  -26.0478  -26.9429   19.4842 C   0  0  0  0  0  0
  -24.8619  -27.6991   19.4973 C   0  0  0  0  0  0
  -23.6115  -29.8320   20.1620 C   0  0  0  0  0  0
  -25.4098  -36.3098   24.0354 C   0  0  1  0  0  0
  -20.5871  -28.3687   23.1324 C   0  0  2  0  0  0
  -20.6777  -26.9427   22.5426 C   0  0  0  0  0  0
  -19.5750  -26.6418   21.5223 C   0  0  0  0  0  0
  -18.1924  -26.7959   22.1631 C   0  0  0  0  0  0
  -19.1525  -28.8866   23.2905 C   0  0  0  0  0  0
  -18.9461  -30.1477   23.8914 C   0  0  0  0  0  0
  -17.6468  -30.6610   24.0588 C   0  0  0  0  0  0
  -25.9030  -34.9473   23.5138 C   0  0  0  0  0  0
  -16.5355  -29.9127   23.6337 C   0  0  0  0  0  0
  -16.7266  -28.6544   23.0341 C   0  0  0  0  0  0
  -26.4494  -31.6583   25.0688 C   0  0  0  0  0  0
  -25.3781  -31.3710   26.1457 C   0  0  0  0  0  0
  -27.0317  -30.3021   24.6063 C   0  0  0  0  0  0
  -27.6071  -32.4301   25.7439 C   0  0  0  0  0  0
  -27.5577  -37.1789   24.8478 C   0  0  0  0  0  0
  -21.4139  -29.3036   22.3708 N   0  0  0  0  0  0
  -26.4281  -37.3793   23.9438 N   0  0  0  0  0  0
  -24.6676  -31.0790   22.1004 N   0  0  0  0  0  0
  -23.4184  -28.8218   23.3015 O   0  0  0  0  0  0
  -28.3966  -26.6820   20.1170 O   0  0  0  0  0  0
  -26.5582  -34.8931   22.4697 O   0  0  0  0  0  0
  -23.5346  -32.1423   23.7521 O   0  0  0  0  0  0
  -28.2595  -24.5451   18.7399 C   0  0  0  0  0  0
  -28.8851  -17.0869   23.4460 C   0  0  0  0  0  0
  -27.6061  -17.7065   24.0211 C   0  0  0  0  0  0
  -29.3451  -17.6850   22.0954 C   0  0  2  0  0  0
  -29.0324  -20.2067   22.3887 C   0  0  2  0  0  0
  -27.6200  -19.9779   23.0090 C   0  0  2  0  0  0
  -27.4728  -24.3740   17.4542 C   0  0  0  0  0  0
  -24.9352  -22.2420   24.6656 C   0  0  0  0  0  0
  -28.8220  -25.9720   18.9412 C   0  0  0  0  0  0
  -28.9920  -20.8635   20.9775 C   0  0  0  0  0  0
  -30.4513  -16.8023   21.4509 C   0  0  0  0  0  0
  -26.9360  -21.3333   23.3581 C   0  0  0  0  0  0
  -29.9374  -22.0878   20.7934 C   0  0  0  0  0  0
  -29.2570  -23.4793   20.6598 C   0  0  0  0  0  0
  -25.3897  -21.2935   23.5383 C   0  0  2  0  0  0
  -28.4199  -23.5061   19.4728 N   0  0  0  0  0  0
  -29.9097  -19.0174   22.3524 N   0  0  0  0  0  0
  -30.0200  -15.4142   21.2535 N   0  0  0  0  0  0
  -27.7511  -19.1582   24.2370 N   0  3  0  0  0  0
  -24.6666  -21.6097   22.2857 N   0  3  0  0  0  0
  -31.4688  -12.4172   19.1161 H   0  0  0  0  0  0
  -30.3278  -11.2950   19.7999 H   0  0  0  0  0  0
  -29.7368  -11.8029   17.4140 H   0  0  0  0  0  0
  -29.6621  -13.5078   17.7761 H   0  0  0  0  0  0
  -27.8264  -11.3156   18.8048 H   0  0  0  0  0  0
  -27.3646  -12.6519   17.7857 H   0  0  0  0  0  0
  -27.7133  -14.2535   19.5902 H   0  0  0  0  0  0
  -28.6776  -11.9207   21.3144 H   0  0  0  0  0  0
  -28.4590  -13.5430   21.8870 H   0  0  0  0  0  0
  -25.2728   -9.5699   22.4743 H   0  0  0  0  0  0
  -24.0001   -7.4634   22.7466 H   0  0  0  0  0  0
  -21.0818   -8.8756   19.8945 H   0  0  0  0  0  0
  -22.3657  -10.9659   19.6161 H   0  0  0  0  0  0
  -21.2005   -7.6135   23.9712 H   0  0  0  0  0  0
  -21.1486   -6.0505   25.9071 H   0  0  0  0  0  0
  -22.0594   -2.7606   23.2843 H   0  0  0  0  0  0
  -22.4085  -11.9900   22.4777 H   0  0  0  0  0  0
  -21.1105  -13.1280   22.2582 H   0  0  0  0  0  0
  -24.6540  -15.8313   20.4821 H   0  0  0  0  0  0
  -26.2689  -15.6147   20.0338 H   0  0  0  0  0  0
  -26.7101  -32.5531   23.1122 H   0  0  0  0  0  0
  -25.0093  -33.9757   25.0505 H   0  0  0  0  0  0
  -22.6889  -31.3108   21.4136 H   0  0  0  0  0  0
  -23.3749  -35.9597   23.3312 H   0  0  0  0  0  0
  -24.3571  -36.8871   22.2054 H   0  0  0  0  0  0
  -23.7209  -37.6486   23.6626 H   0  0  0  0  0  0
  -26.0497  -31.5962   20.6007 H   0  0  0  0  0  0
  -26.8200  -30.8803   21.9855 H   0  0  0  0  0  0
  -28.0911  -29.0819   21.1797 H   0  0  0  0  0  0
  -26.0018  -25.9655   19.0372 H   0  0  0  0  0  0
  -23.9663  -27.3026   19.0392 H   0  0  0  0  0  0
  -23.7283  -30.6083   19.4041 H   0  0  0  0  0  0
  -22.7333  -29.2580   19.8608 H   0  0  0  0  0  0
  -25.1273  -36.1955   25.0847 H   0  0  0  0  0  0
  -20.9964  -28.3277   24.1449 H   0  0  0  0  0  0
  -20.5720  -26.2297   23.3614 H   0  0  0  0  0  0
  -21.6651  -26.7509   22.1208 H   0  0  0  0  0  0
  -19.6914  -25.6342   21.1229 H   0  0  0  0  0  0
  -19.6687  -27.3253   20.6772 H   0  0  0  0  0  0
  -17.4204  -26.6714   21.4021 H   0  0  0  0  0  0
  -18.0314  -26.0112   22.9036 H   0  0  0  0  0  0
  -19.7940  -30.7287   24.2281 H   0  0  0  0  0  0
  -17.5033  -31.6293   24.5204 H   0  0  0  0  0  0
  -15.5364  -30.3044   23.7661 H   0  0  0  0  0  0
  -15.8659  -28.0887   22.7040 H   0  0  0  0  0  0
  -24.5943  -30.7053   25.7825 H   0  0  0  0  0  0
  -24.8991  -32.2881   26.4890 H   0  0  0  0  0  0
  -25.8177  -30.8902   27.0205 H   0  0  0  0  0  0
  -26.2842  -29.6757   24.1181 H   0  0  0  0  0  0
  -27.4158  -29.7285   25.4506 H   0  0  0  0  0  0
  -27.8647  -30.4321   23.9153 H   0  0  0  0  0  0
  -27.2688  -33.3602   26.2016 H   0  0  0  0  0  0
  -28.3882  -32.6857   25.0264 H   0  0  0  0  0  0
  -28.0726  -31.8415   26.5357 H   0  0  0  0  0  0
  -28.2615  -38.0065   24.7545 H   0  0  0  0  0  0
  -28.1059  -36.2616   24.6285 H   0  0  0  0  0  0
  -27.2310  -37.1438   25.8883 H   0  0  0  0  0  0
  -20.9302  -29.8717   21.6895 H   0  0  0  0  0  0
  -26.0165  -38.2867   24.1458 H   0  0  0  0  0  0
  -28.6844  -16.0211   23.3413 H   0  0  0  0  0  0
  -29.6946  -17.1493   24.1752 H   0  0  0  0  0  0
  -27.3940  -17.2394   24.9838 H   0  0  0  0  0  0
  -26.7464  -17.4886   23.3855 H   0  0  0  0  0  0
  -28.5114  -17.7529   21.3936 H   0  0  0  0  0  0
  -29.5380  -20.9087   23.0539 H   0  0  0  0  0  0
  -26.9938  -19.4603   22.2809 H   0  0  0  0  0  0
  -26.9980  -25.3028   17.1386 H   0  0  0  0  0  0
  -26.6952  -23.6189   17.5748 H   0  0  0  0  0  0
  -28.1415  -24.0512   16.6557 H   0  0  0  0  0  0
  -25.4016  -21.9778   25.6156 H   0  0  0  0  0  0
  -23.8565  -22.1931   24.8198 H   0  0  0  0  0  0
  -25.1946  -23.2791   24.4506 H   0  0  0  0  0  0
  -28.6176  -26.5841   18.0614 H   0  0  0  0  0  0
  -29.9094  -25.9007   18.9793 H   0  0  0  0  0  0
  -27.9741  -21.1579   20.7232 H   0  0  0  0  0  0
  -29.2299  -20.1186   20.2164 H   0  0  0  0  0  0
  -31.3446  -16.7969   22.0788 H   0  0  0  0  0  0
  -30.7490  -17.2232   20.4881 H   0  0  0  0  0  0
  -27.1733  -22.0896   22.6113 H   0  0  0  0  0  0
  -27.4015  -21.7180   24.2670 H   0  0  0  0  0  0
  -30.5442  -21.9181   19.9021 H   0  0  0  0  0  0
  -30.6604  -22.1263   21.6093 H   0  0  0  0  0  0
  -30.0323  -24.2475   20.6313 H   0  0  0  0  0  0
  -28.6573  -23.6869   21.5466 H   0  0  0  0  0  0
  -25.0915  -20.2864   23.8340 H   0  0  0  0  0  0
  -30.6633  -19.2019   21.6957 H   0  0  0  0  0  0
  -29.1115  -15.1578   21.6073 H   0  0  0  0  0  0
  -28.6654  -19.3301   24.6267 H   0  0  0  0  0  0
  -27.0648  -19.4342   24.9175 H   0  0  0  0  0  0
  -24.8758  -22.5379   21.9595 H   0  0  0  0  0  0
  -23.6738  -21.5610   22.4414 H   0  0  0  0  0  0
  -24.8819  -20.9594   21.5502 H   0  0  0  0  0  0
  1 25  1  0  0  0
  1 30  2  0  0  0
  1 88  1  0  0  0
  2  3  1  0  0  0
  2 25  1  0  0  0
  2 91  1  0  0  0
  2 92  1  0  0  0
  3  4  1  0  0  0
  3 93  1  0  0  0
  3 94  1  0  0  0
  4  5  1  0  0  0
  4 95  1  0  0  0
  4 96  1  0  0  0
  5  6  1  0  0  0
  5 26  1  0  0  0
  5 97  1  0  0  0
  6 25  1  0  0  0
  6 98  1  0  0  0
  6 99  1  0  0  0
  7  8  2  0  0  0
  7 26  1  0  0  0
  7 29  1  0  0  0
  8  9  1  0  0  0
  8 22  1  0  0  0
  9 10  1  0  0  0
  9 27  2  0  0  0
 10 11  2  0  0  0
 10 15  1  0  0  0
 11 12  1  0  0  0
 11100  1  0  0  0
 12 13  2  0  0  0
 12101  1  0  0  0
 13 14  1  0  0  0
 13 31  1  0  0  0
 14 15  2  0  0  0
 14102  1  0  0  0
 15103  1  0  0  0
 16 17  2  0  0  0
 16 21  1  0  0  0
 16 31  1  0  0  0
 17 18  1  0  0  0
 17104  1  0  0  0
 18 19  2  0  0  0
 18105  1  0  0  0
 19 20  1  0  0  0
 19 24  1  0  0  0
 20 21  2  0  0  0
 20106  1  0  0  0
 21 23  1  0  0  0
 22 28  1  0  0  0
 22 32  2  0  0  0
 26 27  1  0  0  0
 28107  1  0  0  0
 28108  1  0  0  0
 29109  1  0  0  0
 29110  1  0  0  0
 33 34  1  0  0  0
 33 66  1  0  0  0
 33 70  2  0  0  0
 34 36  1  0  0  0
 34 59  1  0  0  0
 34111  1  0  0  0
 35 44  2  0  0  0
 35 45  1  0  0  0
 35 68  1  0  0  0
 36 56  1  0  0  0
 36112  1  0  0  0
 37 39  1  0  0  0
 37 47  1  0  0  0
 37 66  1  0  0  0
 37113  1  0  0  0
 38 43  2  0  0  0
 38 46  1  0  0  0
 38 47  1  0  0  0
 39 64  1  0  0  0
 39 67  2  0  0  0
 40 52  1  0  0  0
 40 53  2  0  0  0
 40 58  1  0  0  0
 41114  1  0  0  0
 41115  1  0  0  0
 41116  1  0  0  0
 41 48  1  0  0  0
 42 43  1  0  0  0
 42 66  1  0  0  0
 42117  1  0  0  0
 42118  1  0  0  0
 43 44  1  0  0  0
 44119  1  0  0  0
 45 46  2  0  0  0
 45120  1  0  0  0
 46121  1  0  0  0
 47122  1  0  0  0
 47123  1  0  0  0
 48 56  1  0  0  0
 48 65  1  0  0  0
 48124  1  0  0  0
 49 50  1  0  0  0
 49 53  1  0  0  0
 49 64  1  0  0  0
 49125  1  0  0  0
 50 51  1  0  0  0
 50126  1  0  0  0
 50127  1  0  0  0
 51 52  1  0  0  0
 51128  1  0  0  0
 51129  1  0  0  0
 52130  1  0  0  0
 52131  1  0  0  0
 53 54  1  0  0  0
 54 55  2  0  0  0
 54132  1  0  0  0
 55 57  1  0  0  0
 55133  1  0  0  0
 56 69  2  0  0  0
 57 58  2  0  0  0
 57134  1  0  0  0
 58135  1  0  0  0
 59 60  1  0  0  0
 59 61  1  0  0  0
 59 62  1  0  0  0
 60136  1  0  0  0
 60137  1  0  0  0
 60138  1  0  0  0
 61139  1  0  0  0
 61140  1  0  0  0
 61141  1  0  0  0
 62142  1  0  0  0
 62143  1  0  0  0
 62144  1  0  0  0
 63 65  1  0  0  0
 63145  1  0  0  0
 63146  1  0  0  0
 63147  1  0  0  0
 64148  1  0  0  0
 65149  1  0  0  0
 68 79  1  0  0  0
 71 77  1  0  0  0
 71 79  1  0  0  0
 71 86  2  0  0  0
 72 73  1  0  0  0
 72 74  1  0  0  0
 72150  1  0  0  0
 72151  1  0  0  0
 73 89  1  0  0  0
 73152  1  0  0  0
 73153  1  0  0  0
 74 81  1  0  0  0
 74 87  1  0  0  0
 74154  1  0  0  0
 75 76  1  0  0  0
 75 80  1  0  0  0
 75 87  1  0  0  0
 75155  1  0  0  0
 76 82  1  0  0  0
 76 89  1  0  0  0
 76156  1  0  0  0
 77157  1  0  0  0
 77158  1  0  0  0
 77159  1  0  0  0
 78160  1  0  0  0
 78161  1  0  0  0
 78162  1  0  0  0
 78 85  1  0  0  0
 79163  1  0  0  0
 79164  1  0  0  0
 80 83  1  0  0  0
 80165  1  0  0  0
 80166  1  0  0  0
 81 88  1  0  0  0
 81167  1  0  0  0
 81168  1  0  0  0
 82 85  1  0  0  0
 82169  1  0  0  0
 82170  1  0  0  0
 83 84  1  0  0  0
 83171  1  0  0  0
 83172  1  0  0  0
 84 86  1  0  0  0
 84173  1  0  0  0
 84174  1  0  0  0
 85 90  1  0  0  0
 85175  1  0  0  0
 87176  1  0  0  0
 88177  1  0  0  0
 89178  1  0  0  0
 89179  1  0  0  0
 90180  1  0  0  0
 90181  1  0  0  0
 90182  1  0  0  0
M  CHG  2  89   1  90   1
M  ISO  4   1 100  68 101  79 101  88 100
M  END
> <chiral flag>
0

> <version>
0

> <s_m_source_file>
/data/baiqing/PycharmProjects/Reinvent-master-3.2/result/LINK_invent/BTK/process_docking_weight1_custom_sum_contain_oxygen_bond_distance_aromatic_linkinvent_7_9_3/rearranged_h_0120.sdf

> <i_m_source_file_index>
63

> <r_mmod_Potential_Energy-OPLS-2005>
-439.038543701172

> <r_mmod_Stretch_Energy-OPLS-2005>
44.0242347717285

> <r_mmod_Bend_Energy-OPLS-2005>
137.421249389648

> <r_mmod_Torsional_Energy-OPLS-2005>
298.056915283203

> <r_mmod_Improper_Torsional_Energy-OPLS-2005>
3.37872576713562

> <r_mmod_Van_der_Waal_Energy-OPLS-2005>
138.778457641602

> <r_mmod_Electrostatic_Energy-OPLS-2005>
-61.1362800598145

> <r_mmod_Solvation_Energy-OPLS-2005>
-1011.75549316406

> <b_mmod_Minimization_Converged-OPLS-2005>
0

> <r_mmod_RMS_Derivative-OPLS-2005>
1.73277640342712

$$$$
63
                    3D
 Structure written by MMmdl.
153161  0  0  1  0            999 V2000
  -30.7106  -14.4810   20.5524 C   0  0  0  0  0  0
  -30.4135  -12.3089   19.4227 C   0  0  0  0  0  0
  -29.4912  -12.4869   18.2014 C   0  0  0  0  0  0
  -28.0127  -12.3569   18.6196 C   0  0  0  0  0  0
  -27.6545  -13.2134   19.8630 C   0  0  2  0  0  0
  -28.6959  -13.0233   20.9865 C   0  0  0  0  0  0
  -25.2543  -13.8168   20.5647 C   0  0  0  0  0  0
  -24.1831  -13.0444   20.9164 C   0  0  0  0  0  0
  -24.6395  -11.6909   20.8734 C   0  0  0  0  0  0
  -23.9073  -10.4295   21.0368 C   0  0  0  0  0  0
  -24.3624   -9.4224   21.9158 C   0  0  0  0  0  0
  -23.6322   -8.2254   22.0753 C   0  0  0  0  0  0
  -22.4293   -8.0288   21.3550 C   0  0  0  0  0  0
  -21.9915   -9.0246   20.4630 C   0  0  0  0  0  0
  -22.7239  -10.2134   20.3025 C   0  0  0  0  0  0
  -21.6873   -6.0750   22.5291 C   0  0  0  0  0  0
  -21.4012   -6.5649   23.8217 C   0  0  0  0  0  0
  -21.3665   -5.6796   24.9177 C   0  0  0  0  0  0
  -21.6065   -4.3058   24.7231 C   0  0  0  0  0  0
  -21.8825   -3.8164   23.4343 C   0  0  0  0  0  0
  -21.9187   -4.6983   22.3406 C   0  0  0  0  0  0
  -22.7861  -13.5228   21.1837 C   0  0  0  0  0  0
  -22.1642   -4.2170   21.0986 F   0  0  0  0  0  0
  -21.5639   -3.4530   25.7732 F   0  0  0  0  0  0
  -30.0218  -13.3146   20.4231 N   0  0  0  0  0  0
  -26.2980  -12.9366   20.3296 N   0  0  0  0  0  0
  -25.9324  -11.6528   20.5762 N   0  0  0  0  0  0
  -22.0503  -12.8225   22.0382 N   0  0  0  0  0  0
  -25.4204  -15.1910   20.4097 N   0  0  0  0  0  0
  -31.8655  -14.6142   20.1423 O   0  0  0  0  0  0
  -21.6658   -6.8885   21.4252 O   0  0  0  0  0  0
  -22.3540  -14.5536   20.6690 O   0  0  0  0  0  0
  -24.6158  -31.8676   23.2084 C   0  0  0  0  0  0
  -25.9055  -32.4807   23.8378 C   0  0  1  0  0  0
  -27.2150  -27.4040   20.0914 C   0  0  0  0  0  0
  -25.5920  -33.8613   24.2295 N   0  0  0  0  0  0
  -23.4023  -30.4907   21.5514 C   0  0  2  0  0  0
  -24.8426  -28.9553   20.1122 C   0  0  0  0  0  0
  -22.7419  -29.4647   22.5002 C   0  0  0  0  0  0
  -18.0268  -28.1388   22.8482 C   0  0  0  0  0  0
  -24.1500  -36.7298   23.2634 C   0  0  0  0  0  0
  -25.9353  -30.8184   21.3702 C   0  0  0  0  0  0
  -26.0056  -29.4539   20.7107 C   0  0  0  0  0  0
  -27.1928  -28.6857   20.6958 C   0  0  0  0  0  0
  -26.0282  -26.9242   19.4909 C   0  0  0  0  0  0
  -24.8496  -27.6913   19.4995 C   0  0  0  0  0  0
  -23.6093  -29.8268   20.1649 C   0  0  0  0  0  0
  -25.4128  -36.3092   24.0319 C   0  0  1  0  0  0
  -20.5854  -28.3661   23.1318 C   0  0  2  0  0  0
  -20.6769  -26.9408   22.5407 C   0  0  0  0  0  0
  -19.5746  -26.6392   21.5210 C   0  0  0  0  0  0
  -18.1922  -26.7929   22.1620 C   0  0  0  0  0  0
  -19.1521  -28.8849   23.2888 C   0  0  0  0  0  0
  -18.9450  -30.1468   23.8882 C   0  0  0  0  0  0
  -17.6454  -30.6590   24.0561 C   0  0  0  0  0  0
  -25.9051  -34.9465   23.5091 C   0  0  0  0  0  0
  -16.5344  -29.9081   23.6338 C   0  0  0  0  0  0
  -16.7261  -28.6509   23.0331 C   0  0  0  0  0  0
  -26.4485  -31.6613   25.0733 C   0  0  0  0  0  0
  -25.3739  -31.3739   26.1476 C   0  0  0  0  0  0
  -27.0333  -30.3040   24.6169 C   0  0  0  0  0  0
  -27.6036  -32.4374   25.7503 C   0  0  0  0  0  0
  -27.5592  -37.1813   24.8465 C   0  0  0  0  0  0
  -21.4151  -29.3022   22.3746 N   0  0  0  0  0  0
  -26.4304  -37.3785   23.9406 N   0  0  0  0  0  0
  -24.6687  -31.0746   22.1004 N   0  0  0  0  0  0
  -23.4191  -28.8187   23.3040 O   0  0  0  0  0  0
  -28.3893  -26.6748   20.1192 O   0  0  0  0  0  0
  -26.5609  -34.8918   22.4656 O   0  0  0  0  0  0
  -23.5352  -32.1472   23.7470 O   0  0  0  0  0  0
  -28.1533  -19.6862   22.0336 C   0  0  0  0  0  0
  -28.8203  -18.4469   22.1263 C   0  0  0  0  0  0
  -29.2066  -20.0100   19.8986 C   0  0  0  0  0  0
  -28.3700  -20.5254   20.9186 C   0  0  0  0  0  0
  -29.6986  -18.0682   21.0962 C   0  0  0  0  0  0
  -30.6257  -16.8582   21.2497 C   0  0  0  0  0  0
  -27.8496  -24.2105   20.4737 C   0  0  0  0  0  0
  -28.4455  -25.3373   19.5820 C   0  0  0  0  0  0
  -28.3227  -22.7916   20.0532 C   0  0  0  0  0  0
  -29.8575  -18.8226   19.9845 N   0  0  0  0  0  0
  -30.0226  -15.5366   21.0220 N   0  0  0  0  0  0
  -27.7737  -21.7798   20.9078 O   0  0  0  0  0  0
  -31.4587  -12.3955   19.1227 H   0  0  0  0  0  0
  -30.3081  -11.3036   19.8342 H   0  0  0  0  0  0
  -29.7276  -11.7412   17.4368 H   0  0  0  0  0  0
  -29.6587  -13.4619   17.7437 H   0  0  0  0  0  0
  -27.8251  -11.3027   18.8329 H   0  0  0  0  0  0
  -27.3621  -12.6176   17.7838 H   0  0  0  0  0  0
  -27.6893  -14.2570   19.5501 H   0  0  0  0  0  0
  -28.6702  -12.0004   21.3600 H   0  0  0  0  0  0
  -28.4616  -13.6572   21.8448 H   0  0  0  0  0  0
  -25.2760   -9.5752   22.4725 H   0  0  0  0  0  0
  -24.0071   -7.4651   22.7473 H   0  0  0  0  0  0
  -21.0839   -8.8773   19.8925 H   0  0  0  0  0  0
  -22.3676  -10.9696   19.6162 H   0  0  0  0  0  0
  -21.1986   -7.6144   23.9741 H   0  0  0  0  0  0
  -21.1483   -6.0498   25.9079 H   0  0  0  0  0  0
  -22.0582   -2.7630   23.2826 H   0  0  0  0  0  0
  -22.4126  -11.9932   22.4857 H   0  0  0  0  0  0
  -21.1120  -13.1257   22.2521 H   0  0  0  0  0  0
  -24.6495  -15.8360   20.5363 H   0  0  0  0  0  0
  -26.2670  -15.6501   20.0978 H   0  0  0  0  0  0
  -26.7108  -32.5494   23.1117 H   0  0  0  0  0  0
  -25.0130  -33.9811   25.0474 H   0  0  0  0  0  0
  -22.6877  -31.3054   21.4132 H   0  0  0  0  0  0
  -23.3757  -35.9637   23.3308 H   0  0  0  0  0  0
  -24.3570  -36.8923   22.2045 H   0  0  0  0  0  0
  -23.7275  -37.6509   23.6653 H   0  0  0  0  0  0
  -26.0659  -31.5882   20.6069 H   0  0  0  0  0  0
  -26.8160  -30.8591   21.9994 H   0  0  0  0  0  0
  -28.0922  -29.0664   21.1583 H   0  0  0  0  0  0
  -25.9854  -25.9576   19.0128 H   0  0  0  0  0  0
  -23.9529  -27.3028   19.0360 H   0  0  0  0  0  0
  -23.7187  -30.6032   19.4066 H   0  0  0  0  0  0
  -22.7327  -29.2484   19.8676 H   0  0  0  0  0  0
  -25.1313  -36.1934   25.0808 H   0  0  0  0  0  0
  -20.9929  -28.3228   24.1441 H   0  0  0  0  0  0
  -20.5703  -26.2269   23.3597 H   0  0  0  0  0  0
  -21.6635  -26.7480   22.1179 H   0  0  0  0  0  0
  -19.6906  -25.6306   21.1239 H   0  0  0  0  0  0
  -19.6679  -27.3209   20.6744 H   0  0  0  0  0  0
  -17.4194  -26.6687   21.4011 H   0  0  0  0  0  0
  -18.0309  -26.0080   22.9024 H   0  0  0  0  0  0
  -19.7930  -30.7295   24.2223 H   0  0  0  0  0  0
  -17.5001  -31.6255   24.5193 H   0  0  0  0  0  0
  -15.5344  -30.2964   23.7677 H   0  0  0  0  0  0
  -15.8665  -28.0834   22.7011 H   0  0  0  0  0  0
  -24.5859  -30.7160   25.7788 H   0  0  0  0  0  0
  -24.9003  -32.2920   26.4969 H   0  0  0  0  0  0
  -25.8080  -30.8844   27.0202 H   0  0  0  0  0  0
  -26.2900  -29.6791   24.1198 H   0  0  0  0  0  0
  -27.4044  -29.7302   25.4669 H   0  0  0  0  0  0
  -27.8758  -30.4330   23.9370 H   0  0  0  0  0  0
  -27.2595  -33.3637   26.2123 H   0  0  0  0  0  0
  -28.3812  -32.7029   25.0323 H   0  0  0  0  0  0
  -28.0741  -31.8499   26.5403 H   0  0  0  0  0  0
  -28.2599  -38.0121   24.7505 H   0  0  0  0  0  0
  -28.1104  -36.2644   24.6287 H   0  0  0  0  0  0
  -27.2302  -37.1455   25.8870 H   0  0  0  0  0  0
  -20.9334  -29.8726   21.6943 H   0  0  0  0  0  0
  -26.0180  -38.2861   24.1390 H   0  0  0  0  0  0
  -27.5126  -20.0139   22.8387 H   0  0  0  0  0  0
  -28.7096  -17.8322   23.0082 H   0  0  0  0  0  0
  -29.3876  -20.5683   18.9917 H   0  0  0  0  0  0
  -31.0293  -16.8592   22.2648 H   0  0  0  0  0  0
  -31.4869  -17.0191   20.5949 H   0  0  0  0  0  0
  -26.7592  -24.2559   20.4555 H   0  0  0  0  0  0
  -28.1402  -24.3805   21.5105 H   0  0  0  0  0  0
  -28.0365  -25.2936   18.5716 H   0  0  0  0  0  0
  -29.5099  -25.1340   19.4636 H   0  0  0  0  0  0
  -29.4118  -22.7626   20.1184 H   0  0  0  0  0  0
  -28.0532  -22.5885   19.0163 H   0  0  0  0  0  0
  -29.0431  -15.4245   21.2334 H   0  0  0  0  0  0
  1 25  1  0  0  0
  1 30  2  0  0  0
  1 81  1  0  0  0
  2  3  1  0  0  0
  2 25  1  0  0  0
  2 83  1  0  0  0
  2 84  1  0  0  0
  3  4  1  0  0  0
  3 85  1  0  0  0
  3 86  1  0  0  0
  4  5  1  0  0  0
  4 87  1  0  0  0
  4 88  1  0  0  0
  5  6  1  0  0  0
  5 26  1  0  0  0
  5 89  1  0  0  0
  6 25  1  0  0  0
  6 90  1  0  0  0
  6 91  1  0  0  0
  7  8  2  0  0  0
  7 26  1  0  0  0
  7 29  1  0  0  0
  8  9  1  0  0  0
  8 22  1  0  0  0
  9 10  1  0  0  0
  9 27  2  0  0  0
 10 11  2  0  0  0
 10 15  1  0  0  0
 11 12  1  0  0  0
 11 92  1  0  0  0
 12 13  2  0  0  0
 12 93  1  0  0  0
 13 14  1  0  0  0
 13 31  1  0  0  0
 14 15  2  0  0  0
 14 94  1  0  0  0
 15 95  1  0  0  0
 16 17  2  0  0  0
 16 21  1  0  0  0
 16 31  1  0  0  0
 17 18  1  0  0  0
 17 96  1  0  0  0
 18 19  2  0  0  0
 18 97  1  0  0  0
 19 20  1  0  0  0
 19 24  1  0  0  0
 20 21  2  0  0  0
 20 98  1  0  0  0
 21 23  1  0  0  0
 22 28  1  0  0  0
 22 32  2  0  0  0
 26 27  1  0  0  0
 28 99  1  0  0  0
 28100  1  0  0  0
 29101  1  0  0  0
 29102  1  0  0  0
 33 34  1  0  0  0
 33 66  1  0  0  0
 33 70  2  0  0  0
 34 36  1  0  0  0
 34 59  1  0  0  0
 34103  1  0  0  0
 35 44  2  0  0  0
 35 45  1  0  0  0
 35 68  1  0  0  0
 36 56  1  0  0  0
 36104  1  0  0  0
 37 39  1  0  0  0
 37 47  1  0  0  0
 37 66  1  0  0  0
 37105  1  0  0  0
 38 43  2  0  0  0
 38 46  1  0  0  0
 38 47  1  0  0  0
 39 64  1  0  0  0
 39 67  2  0  0  0
 40 52  1  0  0  0
 40 53  2  0  0  0
 40 58  1  0  0  0
 41106  1  0  0  0
 41107  1  0  0  0
 41108  1  0  0  0
 41 48  1  0  0  0
 42 43  1  0  0  0
 42 66  1  0  0  0
 42109  1  0  0  0
 42110  1  0  0  0
 43 44  1  0  0  0
 44111  1  0  0  0
 45 46  2  0  0  0
 45112  1  0  0  0
 46113  1  0  0  0
 47114  1  0  0  0
 47115  1  0  0  0
 48 56  1  0  0  0
 48 65  1  0  0  0
 48116  1  0  0  0
 49 50  1  0  0  0
 49 53  1  0  0  0
 49 64  1  0  0  0
 49117  1  0  0  0
 50 51  1  0  0  0
 50118  1  0  0  0
 50119  1  0  0  0
 51 52  1  0  0  0
 51120  1  0  0  0
 51121  1  0  0  0
 52122  1  0  0  0
 52123  1  0  0  0
 53 54  1  0  0  0
 54 55  2  0  0  0
 54124  1  0  0  0
 55 57  1  0  0  0
 55125  1  0  0  0
 56 69  2  0  0  0
 57 58  2  0  0  0
 57126  1  0  0  0
 58127  1  0  0  0
 59 60  1  0  0  0
 59 61  1  0  0  0
 59 62  1  0  0  0
 60128  1  0  0  0
 60129  1  0  0  0
 60130  1  0  0  0
 61131  1  0  0  0
 61132  1  0  0  0
 61133  1  0  0  0
 62134  1  0  0  0
 62135  1  0  0  0
 62136  1  0  0  0
 63 65  1  0  0  0
 63137  1  0  0  0
 63138  1  0  0  0
 63139  1  0  0  0
 64140  1  0  0  0
 65141  1  0  0  0
 68 78  1  0  0  0
 71 72  2  0  0  0
 71 74  1  0  0  0
 71142  1  0  0  0
 72 75  1  0  0  0
 72143  1  0  0  0
 73 74  2  0  0  0
 73 80  1  0  0  0
 73144  1  0  0  0
 74 82  1  0  0  0
 75 76  1  0  0  0
 75 80  2  0  0  0
 76 81  1  0  0  0
 76145  1  0  0  0
 76146  1  0  0  0
 77 78  1  0  0  0
 77 79  1  0  0  0
 77147  1  0  0  0
 77148  1  0  0  0
 78149  1  0  0  0
 78150  1  0  0  0
 79 82  1  0  0  0
 79151  1  0  0  0
 79152  1  0  0  0
 81153  1  0  0  0
M  ISO  4   1 100  68 101  78 101  81 100
M  END
> <chiral flag>
0

> <version>
0

> <s_m_source_file>
/data/baiqing/PycharmProjects/Reinvent-master-3.2/result/LINK_invent/BTK/process_docking_weight1_custom_sum_contain_oxygen_bond_distance_aromatic_linkinvent_7_9_3/rearranged_h_0120.sdf

> <i_m_source_file_index>
64

> <r_mmod_Potential_Energy-OPLS-2005>
-295.538696289062

> <r_mmod_Stretch_Energy-OPLS-2005>
38.2430686950684

> <r_mmod_Bend_Energy-OPLS-2005>
107.861137390137

> <r_mmod_Torsional_Energy-OPLS-2005>
195.291198730469

> <r_mmod_Improper_Torsional_Energy-OPLS-2005>
3.40479373931885

> <r_mmod_Van_der_Waal_Energy-OPLS-2005>
157.483337402344

> <r_mmod_Electrostatic_Energy-OPLS-2005>
-589.274963378906

> <r_mmod_Solvation_Energy-OPLS-2005>
-226.70637512207

> <b_mmod_Minimization_Converged-OPLS-2005>
0

> <r_mmod_RMS_Derivative-OPLS-2005>
3.88548970222473

$$$$
64
                    3D
 Structure written by MMmdl.
184193  0  0  1  0            999 V2000
  -30.7490  -14.5618   20.4248 C   0  0  0  0  0  0
  -30.4213  -12.3262   19.4407 C   0  0  0  0  0  0
  -29.4903  -12.4598   18.2196 C   0  0  0  0  0  0
  -28.0161  -12.3404   18.6465 C   0  0  0  0  0  0
  -27.6570  -13.2295   19.8670 C   0  0  2  0  0  0
  -28.7169  -13.1075   20.9856 C   0  0  0  0  0  0
  -25.2521  -13.8227   20.5772 C   0  0  0  0  0  0
  -24.1794  -13.0523   20.9221 C   0  0  0  0  0  0
  -24.6327  -11.6961   20.8709 C   0  0  0  0  0  0
  -23.8992  -10.4350   21.0364 C   0  0  0  0  0  0
  -24.3552   -9.4270   21.9143 C   0  0  0  0  0  0
  -23.6259   -8.2284   22.0732 C   0  0  0  0  0  0
  -22.4256   -8.0268   21.3526 C   0  0  0  0  0  0
  -21.9862   -9.0225   20.4637 C   0  0  0  0  0  0
  -22.7143  -10.2131   20.3038 C   0  0  0  0  0  0
  -21.6883   -6.0690   22.5263 C   0  0  0  0  0  0
  -21.4020   -6.5597   23.8190 C   0  0  0  0  0  0
  -21.3677   -5.6760   24.9163 C   0  0  0  0  0  0
  -21.6061   -4.3017   24.7231 C   0  0  0  0  0  0
  -21.8833   -3.8104   23.4356 C   0  0  0  0  0  0
  -21.9205   -4.6913   22.3405 C   0  0  0  0  0  0
  -22.7776  -13.5244   21.1926 C   0  0  0  0  0  0
  -22.1682   -4.2092   21.0985 F   0  0  0  0  0  0
  -21.5655   -3.4515   25.7752 F   0  0  0  0  0  0
  -30.0395  -13.3892   20.3995 N   0  0  0  0  0  0
  -26.3005  -12.9458   20.3418 N   0  0  0  0  0  0
  -25.9281  -11.6608   20.5815 N   0  0  0  0  0  0
  -22.0425  -12.8213   22.0458 N   0  0  0  0  0  0
  -25.4309  -15.1964   20.4205 N   0  0  0  0  0  0
  -31.9246  -14.6057   20.0696 O   0  0  0  0  0  0
  -21.6669   -6.8821   21.4224 O   0  0  0  0  0  0
  -22.3437  -14.5550   20.6759 O   0  0  0  0  0  0
  -24.6215  -31.8648   23.2076 C   0  0  0  0  0  0
  -25.9116  -32.4801   23.8384 C   0  0  1  0  0  0
  -27.2379  -27.3851   20.0946 C   0  0  0  0  0  0
  -25.5946  -33.8599   24.2292 N   0  0  0  0  0  0
  -23.4089  -30.4937   21.5461 C   0  0  2  0  0  0
  -24.8542  -28.9534   20.1098 C   0  0  0  0  0  0
  -22.7456  -29.4667   22.4940 C   0  0  0  0  0  0
  -18.0297  -28.1397   22.8469 C   0  0  0  0  0  0
  -24.1491  -36.7306   23.2646 C   0  0  0  0  0  0
  -25.9471  -30.8135   21.3678 C   0  0  0  0  0  0
  -26.0193  -29.4455   20.7113 C   0  0  0  0  0  0
  -27.2093  -28.6685   20.7011 C   0  0  0  0  0  0
  -26.0354  -26.9067   19.5213 C   0  0  0  0  0  0
  -24.8601  -27.6821   19.5124 C   0  0  0  0  0  0
  -23.6179  -29.8306   20.1587 C   0  0  0  0  0  0
  -25.4104  -36.3080   24.0342 C   0  0  1  0  0  0
  -20.5886  -28.3686   23.1303 C   0  0  2  0  0  0
  -20.6790  -26.9422   22.5411 C   0  0  0  0  0  0
  -19.5760  -26.6385   21.5223 C   0  0  0  0  0  0
  -18.1935  -26.7936   22.1626 C   0  0  0  0  0  0
  -19.1549  -28.8860   23.2876 C   0  0  0  0  0  0
  -18.9470  -30.1473   23.8871 C   0  0  0  0  0  0
  -17.6470  -30.6597   24.0572 C   0  0  0  0  0  0
  -25.9048  -34.9462   23.5116 C   0  0  0  0  0  0
  -16.5357  -29.9093   23.6348 C   0  0  0  0  0  0
  -16.7284  -28.6535   23.0315 C   0  0  0  0  0  0
  -26.4475  -31.6583   25.0759 C   0  0  0  0  0  0
  -25.3726  -31.3699   26.1517 C   0  0  0  0  0  0
  -27.0313  -30.3019   24.6189 C   0  0  0  0  0  0
  -27.6036  -32.4295   25.7513 C   0  0  0  0  0  0
  -27.5558  -37.1813   24.8470 C   0  0  0  0  0  0
  -21.4174  -29.3054   22.3708 N   0  0  0  0  0  0
  -26.4262  -37.3791   23.9430 N   0  0  0  0  0  0
  -24.6775  -31.0755   22.0963 N   0  0  0  0  0  0
  -23.4236  -28.8203   23.2967 O   0  0  0  0  0  0
  -28.4028  -26.6139   20.1370 O   0  0  0  0  0  0
  -26.5627  -34.8930   22.4693 O   0  0  0  0  0  0
  -23.5406  -32.1378   23.7486 O   0  0  0  0  0  0
  -30.5582  -23.9677   20.0357 C   0  0  0  0  0  0
  -28.1815  -23.2670   20.1333 C   0  0  0  0  0  0
  -31.0284  -22.4664   19.9651 C   0  0  0  0  0  0
  -28.5204  -21.7708   19.8750 C   0  0  0  0  0  0
  -32.7130  -17.7922   19.8914 C   0  0  0  0  0  0
  -33.0347  -17.4492   18.4337 C   0  0  0  0  0  0
  -30.7022  -16.5639   18.1298 C   0  0  0  0  0  0
  -29.1669  -24.1926   19.3975 C   0  0  2  0  0  0
  -31.2301  -18.2154   20.0188 C   0  0  1  0  0  0
  -30.3114  -16.9692   19.5946 C   0  0  1  0  0  0
  -29.9717  -21.3080   20.1689 C   0  0  2  0  0  0
  -30.6605  -23.0690   23.7848 C   0  0  0  0  0  0
  -31.8719  -20.9494   24.3977 C   0  0  0  0  0  0
  -31.0136  -19.1247   21.3081 C   0  0  0  0  0  0
  -28.6871  -25.6659   19.0769 C   0  0  0  0  0  0
  -29.8768  -20.8906   22.6989 C   0  0  0  0  0  0
  -31.0956  -21.6799   23.2786 C   0  0  0  0  0  0
  -30.0662  -15.7421   20.4599 N   0  0  0  0  0  0
  -32.1647  -16.3503   17.9625 N   0  3  0  0  0  0
  -30.0513  -20.3072   21.3252 N   0  3  1  0  0  0
  -31.4641  -12.3981   19.1243 H   0  0  0  0  0  0
  -30.3170  -11.3307   19.8776 H   0  0  0  0  0  0
  -29.7149  -11.6864   17.4858 H   0  0  0  0  0  0
  -29.6666  -13.4121   17.7217 H   0  0  0  0  0  0
  -27.8338  -11.2918   18.8870 H   0  0  0  0  0  0
  -27.3603  -12.5703   17.8070 H   0  0  0  0  0  0
  -27.6813  -14.2639   19.5215 H   0  0  0  0  0  0
  -28.6954  -12.0960   21.3932 H   0  0  0  0  0  0
  -28.4890  -13.7812   21.8136 H   0  0  0  0  0  0
  -25.2706   -9.5808   22.4686 H   0  0  0  0  0  0
  -24.0028   -7.4707   22.7431 H   0  0  0  0  0  0
  -21.0811   -8.8653   19.8938 H   0  0  0  0  0  0
  -22.3522  -10.9622   19.6130 H   0  0  0  0  0  0
  -21.1974   -7.6096   23.9658 H   0  0  0  0  0  0
  -21.1515   -6.0499   25.9052 H   0  0  0  0  0  0
  -22.0591   -2.7564   23.2878 H   0  0  0  0  0  0
  -22.4025  -11.9846   22.4852 H   0  0  0  0  0  0
  -21.1023  -13.1199   22.2713 H   0  0  0  0  0  0
  -24.6817  -15.8659   20.5500 H   0  0  0  0  0  0
  -26.2880  -15.6236   20.0964 H   0  0  0  0  0  0
  -26.7201  -32.5449   23.1141 H   0  0  0  0  0  0
  -25.0084  -33.9744   25.0434 H   0  0  0  0  0  0
  -22.7015  -31.3147   21.4105 H   0  0  0  0  0  0
  -23.3730  -35.9650   23.3303 H   0  0  0  0  0  0
  -24.3581  -36.8926   22.2051 H   0  0  0  0  0  0
  -23.7257  -37.6524   23.6670 H   0  0  0  0  0  0
  -26.0858  -31.5752   20.5978 H   0  0  0  0  0  0
  -26.8314  -30.8528   21.9959 H   0  0  0  0  0  0
  -28.1034  -29.0488   21.1730 H   0  0  0  0  0  0
  -25.9563  -25.9112   19.1127 H   0  0  0  0  0  0
  -23.9598  -27.2827   19.0658 H   0  0  0  0  0  0
  -23.7317  -30.6115   19.4048 H   0  0  0  0  0  0
  -22.7371  -29.2618   19.8534 H   0  0  0  0  0  0
  -25.1258  -36.1917   25.0817 H   0  0  0  0  0  0
  -20.9999  -28.3248   24.1421 H   0  0  0  0  0  0
  -20.5706  -26.2289   23.3596 H   0  0  0  0  0  0
  -21.6646  -26.7462   22.1191 H   0  0  0  0  0  0
  -19.6928  -25.6299   21.1247 H   0  0  0  0  0  0
  -19.6705  -27.3209   20.6766 H   0  0  0  0  0  0
  -17.4207  -26.6687   21.4032 H   0  0  0  0  0  0
  -18.0336  -26.0076   22.9020 H   0  0  0  0  0  0
  -19.7944  -30.7314   24.2197 H   0  0  0  0  0  0
  -17.5025  -31.6274   24.5174 H   0  0  0  0  0  0
  -15.5360  -30.2984   23.7716 H   0  0  0  0  0  0
  -15.8682  -28.0907   22.6970 H   0  0  0  0  0  0
  -24.5949  -30.6975   25.7896 H   0  0  0  0  0  0
  -24.8865  -32.2838   26.4937 H   0  0  0  0  0  0
  -25.8091  -30.8931   27.0307 H   0  0  0  0  0  0
  -26.2887  -29.6805   24.1190 H   0  0  0  0  0  0
  -27.3997  -29.7251   25.4681 H   0  0  0  0  0  0
  -27.8747  -30.4327   23.9408 H   0  0  0  0  0  0
  -27.2684  -33.3624   26.2054 H   0  0  0  0  0  0
  -28.3854  -32.6806   25.0336 H   0  0  0  0  0  0
  -28.0689  -31.8433   26.5447 H   0  0  0  0  0  0
  -28.2580  -38.0111   24.7502 H   0  0  0  0  0  0
  -28.1031  -36.2644   24.6256 H   0  0  0  0  0  0
  -27.2305  -37.1414   25.8884 H   0  0  0  0  0  0
  -20.9359  -29.8753   21.6898 H   0  0  0  0  0  0
  -26.0131  -38.2859   24.1413 H   0  0  0  0  0  0
  -31.2939  -24.5893   19.5151 H   0  0  0  0  0  0
  -30.5562  -24.3236   21.0631 H   0  0  0  0  0  0
  -28.2049  -23.4741   21.2032 H   0  0  0  0  0  0
  -27.1585  -23.4636   19.8084 H   0  0  0  0  0  0
  -31.9659  -22.3109   20.4902 H   0  0  0  0  0  0
  -31.3446  -22.3645   18.9253 H   0  0  0  0  0  0
  -28.3711  -21.5963   18.8102 H   0  0  0  0  0  0
  -27.8021  -21.1150   20.3695 H   0  0  0  0  0  0
  -33.3823  -18.5927   20.2047 H   0  0  0  0  0  0
  -32.9569  -16.9468   20.5348 H   0  0  0  0  0  0
  -34.0826  -17.1593   18.3380 H   0  0  0  0  0  0
  -32.9180  -18.3371   17.8089 H   0  0  0  0  0  0
  -30.3788  -17.3072   17.4007 H   0  0  0  0  0  0
  -30.1809  -15.6566   17.8327 H   0  0  0  0  0  0
  -29.2686  -23.7771   18.3947 H   0  0  0  0  0  0
  -31.1246  -18.9072   19.1881 H   0  0  0  0  0  0
  -29.3113  -17.3852   19.5090 H   0  0  0  0  0  0
  -30.1795  -20.6786   19.3143 H   0  0  0  0  0  0
  -31.5178  -23.7304   23.9226 H   0  0  0  0  0  0
  -30.1259  -22.9990   24.7341 H   0  0  0  0  0  0
  -29.9867  -23.5545   23.0820 H   0  0  0  0  0  0
  -32.7405  -21.5336   24.7206 H   0  0  0  0  0  0
  -32.2364  -19.9756   24.0669 H   0  0  0  0  0  0
  -31.2588  -20.7919   25.2850 H   0  0  0  0  0  0
  -31.9755  -19.5642   21.5712 H   0  0  0  0  0  0
  -30.7824  -18.4520   22.1319 H   0  0  0  0  0  0
  -29.4726  -26.1388   18.4840 H   0  0  0  0  0  0
  -27.8644  -25.5897   18.3652 H   0  0  0  0  0  0
  -28.9990  -21.5339   22.6592 H   0  0  0  0  0  0
  -29.5848  -20.1044   23.4000 H   0  0  0  0  0  0
  -31.8137  -21.8349   22.4826 H   0  0  0  0  0  0
  -29.1203  -15.6613   20.8049 H   0  0  0  0  0  0
  -32.4010  -15.5228   18.4998 H   0  0  0  0  0  0
  -32.3628  -16.1793   16.9899 H   0  0  0  0  0  0
  -29.1676  -19.8286   21.2182 H   0  0  0  0  0  0
  1 25  1  0  0  0
  1 30  2  0  0  0
  1 88  1  0  0  0
  2  3  1  0  0  0
  2 25  1  0  0  0
  2 91  1  0  0  0
  2 92  1  0  0  0
  3  4  1  0  0  0
  3 93  1  0  0  0
  3 94  1  0  0  0
  4  5  1  0  0  0
  4 95  1  0  0  0
  4 96  1  0  0  0
  5  6  1  0  0  0
  5 26  1  0  0  0
  5 97  1  0  0  0
  6 25  1  0  0  0
  6 98  1  0  0  0
  6 99  1  0  0  0
  7  8  2  0  0  0
  7 26  1  0  0  0
  7 29  1  0  0  0
  8  9  1  0  0  0
  8 22  1  0  0  0
  9 10  1  0  0  0
  9 27  2  0  0  0
 10 11  2  0  0  0
 10 15  1  0  0  0
 11 12  1  0  0  0
 11100  1  0  0  0
 12 13  2  0  0  0
 12101  1  0  0  0
 13 14  1  0  0  0
 13 31  1  0  0  0
 14 15  2  0  0  0
 14102  1  0  0  0
 15103  1  0  0  0
 16 17  2  0  0  0
 16 21  1  0  0  0
 16 31  1  0  0  0
 17 18  1  0  0  0
 17104  1  0  0  0
 18 19  2  0  0  0
 18105  1  0  0  0
 19 20  1  0  0  0
 19 24  1  0  0  0
 20 21  2  0  0  0
 20106  1  0  0  0
 21 23  1  0  0  0
 22 28  1  0  0  0
 22 32  2  0  0  0
 26 27  1  0  0  0
 28107  1  0  0  0
 28108  1  0  0  0
 29109  1  0  0  0
 29110  1  0  0  0
 33 34  1  0  0  0
 33 66  1  0  0  0
 33 70  2  0  0  0
 34 36  1  0  0  0
 34 59  1  0  0  0
 34111  1  0  0  0
 35 44  2  0  0  0
 35 45  1  0  0  0
 35 68  1  0  0  0
 36 56  1  0  0  0
 36112  1  0  0  0
 37 39  1  0  0  0
 37 47  1  0  0  0
 37 66  1  0  0  0
 37113  1  0  0  0
 38 43  2  0  0  0
 38 46  1  0  0  0
 38 47  1  0  0  0
 39 64  1  0  0  0
 39 67  2  0  0  0
 40 52  1  0  0  0
 40 53  2  0  0  0
 40 58  1  0  0  0
 41114  1  0  0  0
 41115  1  0  0  0
 41116  1  0  0  0
 41 48  1  0  0  0
 42 43  1  0  0  0
 42 66  1  0  0  0
 42117  1  0  0  0
 42118  1  0  0  0
 43 44  1  0  0  0
 44119  1  0  0  0
 45 46  2  0  0  0
 45120  1  0  0  0
 46121  1  0  0  0
 47122  1  0  0  0
 47123  1  0  0  0
 48 56  1  0  0  0
 48 65  1  0  0  0
 48124  1  0  0  0
 49 50  1  0  0  0
 49 53  1  0  0  0
 49 64  1  0  0  0
 49125  1  0  0  0
 50 51  1  0  0  0
 50126  1  0  0  0
 50127  1  0  0  0
 51 52  1  0  0  0
 51128  1  0  0  0
 51129  1  0  0  0
 52130  1  0  0  0
 52131  1  0  0  0
 53 54  1  0  0  0
 54 55  2  0  0  0
 54132  1  0  0  0
 55 57  1  0  0  0
 55133  1  0  0  0
 56 69  2  0  0  0
 57 58  2  0  0  0
 57134  1  0  0  0
 58135  1  0  0  0
 59 60  1  0  0  0
 59 61  1  0  0  0
 59 62  1  0  0  0
 60136  1  0  0  0
 60137  1  0  0  0
 60138  1  0  0  0
 61139  1  0  0  0
 61140  1  0  0  0
 61141  1  0  0  0
 62142  1  0  0  0
 62143  1  0  0  0
 62144  1  0  0  0
 63 65  1  0  0  0
 63145  1  0  0  0
 63146  1  0  0  0
 63147  1  0  0  0
 64148  1  0  0  0
 65149  1  0  0  0
 68 85  1  0  0  0
 71 73  1  0  0  0
 71 78  1  0  0  0
 71150  1  0  0  0
 71151  1  0  0  0
 72 74  1  0  0  0
 72 78  1  0  0  0
 72152  1  0  0  0
 72153  1  0  0  0
 73154  1  0  0  0
 73155  1  0  0  0
 73 81  1  0  0  0
 74 81  1  0  0  0
 74156  1  0  0  0
 74157  1  0  0  0
 75 76  1  0  0  0
 75 79  1  0  0  0
 75158  1  0  0  0
 75159  1  0  0  0
 76 89  1  0  0  0
 76160  1  0  0  0
 76161  1  0  0  0
 77 80  1  0  0  0
 77 89  1  0  0  0
 77162  1  0  0  0
 77163  1  0  0  0
 78 85  1  0  0  0
 78164  1  0  0  0
 79 80  1  0  0  0
 79 84  1  0  0  0
 79165  1  0  0  0
 80 88  1  0  0  0
 80166  1  0  0  0
 81 90  1  0  0  0
 81167  1  0  0  0
 82168  1  0  0  0
 82169  1  0  0  0
 82170  1  0  0  0
 82 87  1  0  0  0
 83 87  1  0  0  0
 83171  1  0  0  0
 83172  1  0  0  0
 83173  1  0  0  0
 84174  1  0  0  0
 84175  1  0  0  0
 84 90  1  0  0  0
 85176  1  0  0  0
 85177  1  0  0  0
 86 87  1  0  0  0
 86 90  1  0  0  0
 86178  1  0  0  0
 86179  1  0  0  0
 87180  1  0  0  0
 88181  1  0  0  0
 89182  1  0  0  0
 89183  1  0  0  0
 90184  1  0  0  0
M  CHG  2  89   1  90   1
M  ISO  4   1 100  68 101  85 101  88 100
M  END
> <chiral flag>
0

> <version>
0

> <s_m_source_file>
/data/baiqing/PycharmProjects/Reinvent-master-3.2/result/LINK_invent/BTK/process_docking_weight1_custom_sum_contain_oxygen_bond_distance_aromatic_linkinvent_7_9_3/rearranged_h_0120.sdf

> <i_m_source_file_index>
65

> <r_mmod_Potential_Energy-OPLS-2005>
33.4954833984375

> <r_mmod_Stretch_Energy-OPLS-2005>
85.1628952026367

> <r_mmod_Bend_Energy-OPLS-2005>
264.280334472656

> <r_mmod_Torsional_Energy-OPLS-2005>
390.362762451172

> <r_mmod_Improper_Torsional_Energy-OPLS-2005>
12.3583364486694

> <r_mmod_Van_der_Waal_Energy-OPLS-2005>
139.899230957031

> <r_mmod_Electrostatic_Energy-OPLS-2005>
-0.319334626197815

> <r_mmod_Solvation_Energy-OPLS-2005>
-892.408813476562

> <b_mmod_Minimization_Converged-OPLS-2005>
0

> <r_mmod_RMS_Derivative-OPLS-2005>
7.55566453933716

$$$$
65
                    3D
 Structure written by MMmdl.
157165  0  0  1  0            999 V2000
  -30.6238  -14.6214   20.4847 C   0  0  0  0  0  0
  -30.4347  -12.3720   19.4457 C   0  0  0  0  0  0
  -29.5052  -12.4889   18.2170 C   0  0  0  0  0  0
  -28.0256  -12.3410   18.6299 C   0  0  0  0  0  0
  -27.6516  -13.2121   19.8576 C   0  0  2  0  0  0
  -28.6980  -13.0658   20.9854 C   0  0  0  0  0  0
  -25.2552  -13.8134   20.5662 C   0  0  0  0  0  0
  -24.1832  -13.0414   20.9193 C   0  0  0  0  0  0
  -24.6396  -11.6892   20.8754 C   0  0  0  0  0  0
  -23.9073  -10.4271   21.0417 C   0  0  0  0  0  0
  -24.3619   -9.4191   21.9199 C   0  0  0  0  0  0
  -23.6289   -8.2235   22.0776 C   0  0  0  0  0  0
  -22.4282   -8.0263   21.3545 C   0  0  0  0  0  0
  -21.9910   -9.0248   20.4658 C   0  0  0  0  0  0
  -22.7248  -10.2121   20.3065 C   0  0  0  0  0  0
  -21.6835   -6.0733   22.5283 C   0  0  0  0  0  0
  -21.4000   -6.5638   23.8213 C   0  0  0  0  0  0
  -21.3660   -5.6791   24.9181 C   0  0  0  0  0  0
  -21.6050   -4.3057   24.7233 C   0  0  0  0  0  0
  -21.8817   -3.8143   23.4353 C   0  0  0  0  0  0
  -21.9189   -4.6958   22.3410 C   0  0  0  0  0  0
  -22.7861  -13.5210   21.1870 C   0  0  0  0  0  0
  -22.1658   -4.2141   21.0988 F   0  0  0  0  0  0
  -21.5633   -3.4544   25.7748 F   0  0  0  0  0  0
  -30.0115  -13.4001   20.4148 N   0  0  0  0  0  0
  -26.2982  -12.9334   20.3293 N   0  0  0  0  0  0
  -25.9316  -11.6492   20.5761 N   0  0  0  0  0  0
  -22.0502  -12.8193   22.0407 N   0  0  0  0  0  0
  -25.4225  -15.1870   20.4026 N   0  0  0  0  0  0
  -31.7981  -14.7824   20.1460 O   0  0  0  0  0  0
  -21.6631   -6.8880   21.4248 O   0  0  0  0  0  0
  -22.3549  -14.5521   20.6719 O   0  0  0  0  0  0
  -24.6225  -31.8541   23.1971 C   0  0  0  0  0  0
  -25.9055  -32.4742   23.8316 C   0  0  1  0  0  0
  -27.2371  -27.3226   20.1200 C   0  0  0  0  0  0
  -25.5797  -33.8535   24.2232 N   0  0  0  0  0  0
  -23.4188  -30.4802   21.5350 C   0  0  2  0  0  0
  -24.8712  -28.9300   20.1082 C   0  0  0  0  0  0
  -22.7453  -29.4604   22.4854 C   0  0  0  0  0  0
  -18.0289  -28.1415   22.8474 C   0  0  0  0  0  0
  -24.1479  -36.7343   23.2647 C   0  0  0  0  0  0
  -25.9565  -30.7928   21.3606 C   0  0  0  0  0  0
  -26.0344  -29.4147   20.7141 C   0  0  0  0  0  0
  -27.2185  -28.6232   20.7123 C   0  0  0  0  0  0
  -26.0449  -26.8745   19.5099 C   0  0  0  0  0  0
  -24.8773  -27.6626   19.4992 C   0  0  0  0  0  0
  -23.6382  -29.8119   20.1506 C   0  0  0  0  0  0
  -25.4077  -36.3071   24.0335 C   0  0  1  0  0  0
  -20.5891  -28.3704   23.1266 C   0  0  2  0  0  0
  -20.6766  -26.9433   22.5393 C   0  0  0  0  0  0
  -19.5746  -26.6402   21.5200 C   0  0  0  0  0  0
  -18.1932  -26.7947   22.1637 C   0  0  0  0  0  0
  -19.1544  -28.8875   23.2874 C   0  0  0  0  0  0
  -18.9463  -30.1461   23.8921 C   0  0  0  0  0  0
  -17.6467  -30.6605   24.0578 C   0  0  0  0  0  0
  -25.9012  -34.9436   23.5114 C   0  0  0  0  0  0
  -16.5357  -29.9116   23.6338 C   0  0  0  0  0  0
  -16.7283  -28.6551   23.0332 C   0  0  0  0  0  0
  -26.4436  -31.6526   25.0675 C   0  0  0  0  0  0
  -25.3675  -31.3576   26.1394 C   0  0  0  0  0  0
  -27.0266  -30.2950   24.6089 C   0  0  0  0  0  0
  -27.6031  -32.4205   25.7439 C   0  0  0  0  0  0
  -27.5573  -37.1804   24.8459 C   0  0  0  0  0  0
  -21.4167  -29.3035   22.3625 N   0  0  0  0  0  0
  -26.4274  -37.3750   23.9414 N   0  0  0  0  0  0
  -24.6848  -31.0596   22.0874 N   0  0  0  0  0  0
  -23.4200  -28.8134   23.2905 O   0  0  0  0  0  0
  -28.3964  -26.5374   20.1669 O   0  0  0  0  0  0
  -26.5673  -34.8927   22.4737 O   0  0  0  0  0  0
  -23.5381  -32.1323   23.7296 O   0  0  0  0  0  0
  -29.7493  -22.0152   20.0637 C   0  0  0  0  0  0
  -29.9560  -20.4710   19.8540 C   0  0  0  0  0  0
  -27.3597  -21.6263   20.4514 C   0  0  0  0  0  0
  -27.5692  -20.1426   20.0130 C   0  0  0  0  0  0
  -28.2571  -23.9775   20.7160 C   0  0  0  0  0  0
  -30.0646  -17.1670   20.8145 C   0  0  0  0  0  0
  -28.9797  -18.0783   20.0903 C   0  0  0  0  0  0
  -28.4793  -25.1474   19.6733 C   0  0  0  0  0  0
  -28.5147  -22.5381   20.3079 N   0  0  0  0  0  0
  -29.8017  -15.6821   20.7472 N   0  0  0  0  0  0
  -28.8895  -19.5761   20.4055 N   0  3  1  0  0  0
  -30.7454  -22.7421   20.0201 O   0  0  0  0  0  0
  -31.4784  -12.4876   19.1480 H   0  0  0  0  0  0
  -30.3584  -11.3778   19.8893 H   0  0  0  0  0  0
  -29.7605  -11.7274   17.4779 H   0  0  0  0  0  0
  -29.6601  -13.4519   17.7296 H   0  0  0  0  0  0
  -27.8527  -11.2889   18.8597 H   0  0  0  0  0  0
  -27.3747  -12.5749   17.7879 H   0  0  0  0  0  0
  -27.6701  -14.2460   19.5143 H   0  0  0  0  0  0
  -28.7054  -12.0444   21.3696 H   0  0  0  0  0  0
  -28.4547  -13.7036   21.8370 H   0  0  0  0  0  0
  -25.2764   -9.5652   22.4782 H   0  0  0  0  0  0
  -23.9979   -7.4625   22.7495 H   0  0  0  0  0  0
  -21.0845   -8.8774   19.8963 H   0  0  0  0  0  0
  -22.3718  -10.9662   19.6175 H   0  0  0  0  0  0
  -21.1983   -7.6148   23.9710 H   0  0  0  0  0  0
  -21.1486   -6.0529   25.9076 H   0  0  0  0  0  0
  -22.0598   -2.7604   23.2861 H   0  0  0  0  0  0
  -22.4116  -11.9829   22.4752 H   0  0  0  0  0  0
  -21.1132  -13.1226   22.2671 H   0  0  0  0  0  0
  -24.6371  -15.8253   20.4814 H   0  0  0  0  0  0
  -26.2425  -15.6161   19.9948 H   0  0  0  0  0  0
  -26.7122  -32.5442   23.1083 H   0  0  0  0  0  0
  -24.9668  -33.9601   25.0179 H   0  0  0  0  0  0
  -22.7146  -31.3020   21.3871 H   0  0  0  0  0  0
  -23.3699  -35.9715   23.3279 H   0  0  0  0  0  0
  -24.3562  -36.9021   22.2065 H   0  0  0  0  0  0
  -23.7324  -37.6563   23.6719 H   0  0  0  0  0  0
  -26.0694  -31.5445   20.5786 H   0  0  0  0  0  0
  -26.8432  -30.8598   21.9795 H   0  0  0  0  0  0
  -28.1164  -28.9932   21.1873 H   0  0  0  0  0  0
  -25.9792  -25.9011   19.0507 H   0  0  0  0  0  0
  -23.9865  -27.2793   19.0232 H   0  0  0  0  0  0
  -23.7579  -30.5899   19.3931 H   0  0  0  0  0  0
  -22.7629  -29.2377   19.8506 H   0  0  0  0  0  0
  -25.1262  -36.1907   25.0834 H   0  0  0  0  0  0
  -21.0010  -28.3312   24.1383 H   0  0  0  0  0  0
  -20.5660  -26.2311   23.3587 H   0  0  0  0  0  0
  -21.6633  -26.7459   22.1203 H   0  0  0  0  0  0
  -19.6899  -25.6313   21.1237 H   0  0  0  0  0  0
  -19.6709  -27.3215   20.6739 H   0  0  0  0  0  0
  -17.4183  -26.6665   21.4074 H   0  0  0  0  0  0
  -18.0387  -26.0101   22.9073 H   0  0  0  0  0  0
  -19.7922  -30.7250   24.2367 H   0  0  0  0  0  0
  -17.5022  -31.6311   24.5132 H   0  0  0  0  0  0
  -15.5357  -30.3030   23.7644 H   0  0  0  0  0  0
  -15.8678  -28.0898   22.7019 H   0  0  0  0  0  0
  -24.5975  -30.6781   25.7725 H   0  0  0  0  0  0
  -24.8666  -32.2650   26.4758 H   0  0  0  0  0  0
  -25.7993  -30.8851   27.0218 H   0  0  0  0  0  0
  -26.2829  -29.6664   24.1169 H   0  0  0  0  0  0
  -27.4044  -29.7219   25.4558 H   0  0  0  0  0  0
  -27.8651  -30.4220   23.9242 H   0  0  0  0  0  0
  -27.2760  -33.3566   26.1952 H   0  0  0  0  0  0
  -28.3888  -32.6602   25.0278 H   0  0  0  0  0  0
  -28.0622  -31.8313   26.5384 H   0  0  0  0  0  0
  -28.2550  -38.0125   24.7482 H   0  0  0  0  0  0
  -28.1111  -36.2662   24.6308 H   0  0  0  0  0  0
  -27.2283  -37.1474   25.8851 H   0  0  0  0  0  0
  -20.9331  -29.8813   21.6893 H   0  0  0  0  0  0
  -26.0162  -38.2830   24.1366 H   0  0  0  0  0  0
  -30.9173  -20.1835   20.2837 H   0  0  0  0  0  0
  -30.0302  -20.3016   18.7784 H   0  0  0  0  0  0
  -27.0673  -21.6356   21.5022 H   0  0  0  0  0  0
  -26.5106  -22.0329   19.8994 H   0  0  0  0  0  0
  -27.4641  -20.0672   18.9293 H   0  0  0  0  0  0
  -26.7630  -19.5392   20.4324 H   0  0  0  0  0  0
  -27.2369  -24.0571   21.0969 H   0  0  0  0  0  0
  -28.8884  -24.1853   21.5796 H   0  0  0  0  0  0
  -30.0970  -17.4301   21.8730 H   0  0  0  0  0  0
  -31.0588  -17.3887   20.4216 H   0  0  0  0  0  0
  -28.0097  -17.6446   20.3370 H   0  0  0  0  0  0
  -29.0698  -17.9554   19.0098 H   0  0  0  0  0  0
  -27.8727  -24.9873   18.7821 H   0  0  0  0  0  0
  -29.5063  -25.0568   19.3168 H   0  0  0  0  0  0
  -28.8554  -15.4071   20.9603 H   0  0  0  0  0  0
  -28.9336  -19.6563   21.4117 H   0  0  0  0  0  0
  1 25  1  0  0  0
  1 30  2  0  0  0
  1 80  1  0  0  0
  2  3  1  0  0  0
  2 25  1  0  0  0
  2 83  1  0  0  0
  2 84  1  0  0  0
  3  4  1  0  0  0
  3 85  1  0  0  0
  3 86  1  0  0  0
  4  5  1  0  0  0
  4 87  1  0  0  0
  4 88  1  0  0  0
  5  6  1  0  0  0
  5 26  1  0  0  0
  5 89  1  0  0  0
  6 25  1  0  0  0
  6 90  1  0  0  0
  6 91  1  0  0  0
  7  8  2  0  0  0
  7 26  1  0  0  0
  7 29  1  0  0  0
  8  9  1  0  0  0
  8 22  1  0  0  0
  9 10  1  0  0  0
  9 27  2  0  0  0
 10 11  2  0  0  0
 10 15  1  0  0  0
 11 12  1  0  0  0
 11 92  1  0  0  0
 12 13  2  0  0  0
 12 93  1  0  0  0
 13 14  1  0  0  0
 13 31  1  0  0  0
 14 15  2  0  0  0
 14 94  1  0  0  0
 15 95  1  0  0  0
 16 17  2  0  0  0
 16 21  1  0  0  0
 16 31  1  0  0  0
 17 18  1  0  0  0
 17 96  1  0  0  0
 18 19  2  0  0  0
 18 97  1  0  0  0
 19 20  1  0  0  0
 19 24  1  0  0  0
 20 21  2  0  0  0
 20 98  1  0  0  0
 21 23  1  0  0  0
 22 28  1  0  0  0
 22 32  2  0  0  0
 26 27  1  0  0  0
 28 99  1  0  0  0
 28100  1  0  0  0
 29101  1  0  0  0
 29102  1  0  0  0
 33 34  1  0  0  0
 33 66  1  0  0  0
 33 70  2  0  0  0
 34 36  1  0  0  0
 34 59  1  0  0  0
 34103  1  0  0  0
 35 44  2  0  0  0
 35 45  1  0  0  0
 35 68  1  0  0  0
 36 56  1  0  0  0
 36104  1  0  0  0
 37 39  1  0  0  0
 37 47  1  0  0  0
 37 66  1  0  0  0
 37105  1  0  0  0
 38 43  2  0  0  0
 38 46  1  0  0  0
 38 47  1  0  0  0
 39 64  1  0  0  0
 39 67  2  0  0  0
 40 52  1  0  0  0
 40 53  2  0  0  0
 40 58  1  0  0  0
 41106  1  0  0  0
 41107  1  0  0  0
 41108  1  0  0  0
 41 48  1  0  0  0
 42 43  1  0  0  0
 42 66  1  0  0  0
 42109  1  0  0  0
 42110  1  0  0  0
 43 44  1  0  0  0
 44111  1  0  0  0
 45 46  2  0  0  0
 45112  1  0  0  0
 46113  1  0  0  0
 47114  1  0  0  0
 47115  1  0  0  0
 48 56  1  0  0  0
 48 65  1  0  0  0
 48116  1  0  0  0
 49 50  1  0  0  0
 49 53  1  0  0  0
 49 64  1  0  0  0
 49117  1  0  0  0
 50 51  1  0  0  0
 50118  1  0  0  0
 50119  1  0  0  0
 51 52  1  0  0  0
 51120  1  0  0  0
 51121  1  0  0  0
 52122  1  0  0  0
 52123  1  0  0  0
 53 54  1  0  0  0
 54 55  2  0  0  0
 54124  1  0  0  0
 55 57  1  0  0  0
 55125  1  0  0  0
 56 69  2  0  0  0
 57 58  2  0  0  0
 57126  1  0  0  0
 58127  1  0  0  0
 59 60  1  0  0  0
 59 61  1  0  0  0
 59 62  1  0  0  0
 60128  1  0  0  0
 60129  1  0  0  0
 60130  1  0  0  0
 61131  1  0  0  0
 61132  1  0  0  0
 61133  1  0  0  0
 62134  1  0  0  0
 62135  1  0  0  0
 62136  1  0  0  0
 63 65  1  0  0  0
 63137  1  0  0  0
 63138  1  0  0  0
 63139  1  0  0  0
 64140  1  0  0  0
 65141  1  0  0  0
 68 78  1  0  0  0
 71 72  1  0  0  0
 71 79  1  0  0  0
 71 82  2  0  0  0
 72 81  1  0  0  0
 72142  1  0  0  0
 72143  1  0  0  0
 73 74  1  0  0  0
 73 79  1  0  0  0
 73144  1  0  0  0
 73145  1  0  0  0
 74 81  1  0  0  0
 74146  1  0  0  0
 74147  1  0  0  0
 75 78  1  0  0  0
 75 79  1  0  0  0
 75148  1  0  0  0
 75149  1  0  0  0
 76 77  1  0  0  0
 76 80  1  0  0  0
 76150  1  0  0  0
 76151  1  0  0  0
 77152  1  0  0  0
 77153  1  0  0  0
 77 81  1  0  0  0
 78154  1  0  0  0
 78155  1  0  0  0
 80156  1  0  0  0
 81157  1  0  0  0
M  CHG  1  81   1
M  ISO  4   1 100  68 101  78 101  80 100
M  END
> <chiral flag>
0

> <version>
0

> <s_m_source_file>
/data/baiqing/PycharmProjects/Reinvent-master-3.2/result/LINK_invent/BTK/process_docking_weight1_custom_sum_contain_oxygen_bond_distance_aromatic_linkinvent_7_9_3/rearranged_h_0120.sdf

> <i_m_source_file_index>
66

> <r_mmod_Potential_Energy-OPLS-2005>
-193.111785888672

> <r_mmod_Stretch_Energy-OPLS-2005>
78.9123306274414

> <r_mmod_Bend_Energy-OPLS-2005>
153.858703613281

> <r_mmod_Torsional_Energy-OPLS-2005>
252.669906616211

> <r_mmod_Improper_Torsional_Energy-OPLS-2005>
5.44624662399292

> <r_mmod_Van_der_Waal_Energy-OPLS-2005>
131.137268066406

> <r_mmod_Electrostatic_Energy-OPLS-2005>
-321.488647460938

> <r_mmod_Solvation_Energy-OPLS-2005>
-537.034851074219

> <b_mmod_Minimization_Converged-OPLS-2005>
0

> <r_mmod_RMS_Derivative-OPLS-2005>
3.99321818351746

$$$$
66
                    3D
 Structure written by MMmdl.
168176  0  0  1  0            999 V2000
  -30.6235  -14.6718   20.4816 C   0  0  0  0  0  0
  -30.4311  -12.4130   19.4524 C   0  0  0  0  0  0
  -29.5061  -12.5049   18.2201 C   0  0  0  0  0  0
  -28.0286  -12.3449   18.6318 C   0  0  0  0  0  0
  -27.6466  -13.2243   19.8529 C   0  0  2  0  0  0
  -28.6922  -13.1116   20.9838 C   0  0  0  0  0  0
  -25.2529  -13.8186   20.5676 C   0  0  0  0  0  0
  -24.1815  -13.0441   20.9200 C   0  0  0  0  0  0
  -24.6394  -11.6918   20.8735 C   0  0  0  0  0  0
  -23.9062  -10.4300   21.0392 C   0  0  0  0  0  0
  -24.3620   -9.4210   21.9166 C   0  0  0  0  0  0
  -23.6304   -8.2235   22.0738 C   0  0  0  0  0  0
  -22.4286   -8.0269   21.3531 C   0  0  0  0  0  0
  -21.9917   -9.0241   20.4629 C   0  0  0  0  0  0
  -22.7236  -10.2128   20.3036 C   0  0  0  0  0  0
  -21.6855   -6.0730   22.5281 C   0  0  0  0  0  0
  -21.4010   -6.5631   23.8210 C   0  0  0  0  0  0
  -21.3662   -5.6785   24.9174 C   0  0  0  0  0  0
  -21.6053   -4.3050   24.7221 C   0  0  0  0  0  0
  -21.8819   -3.8138   23.4346 C   0  0  0  0  0  0
  -21.9195   -4.6955   22.3400 C   0  0  0  0  0  0
  -22.7834  -13.5222   21.1871 C   0  0  0  0  0  0
  -22.1661   -4.2140   21.0983 F   0  0  0  0  0  0
  -21.5639   -3.4537   25.7734 F   0  0  0  0  0  0
  -29.9987  -13.4536   20.4081 N   0  0  0  0  0  0
  -26.2954  -12.9380   20.3265 N   0  0  0  0  0  0
  -25.9314  -11.6528   20.5717 N   0  0  0  0  0  0
  -22.0488  -12.8205   22.0434 N   0  0  0  0  0  0
  -25.4234  -15.1906   20.4074 N   0  0  0  0  0  0
  -31.8046  -14.7977   20.1472 O   0  0  0  0  0  0
  -21.6648   -6.8869   21.4235 O   0  0  0  0  0  0
  -22.3509  -14.5520   20.6712 O   0  0  0  0  0  0
  -24.6258  -31.8583   23.1999 C   0  0  0  0  0  0
  -25.9105  -32.4767   23.8329 C   0  0  1  0  0  0
  -27.2204  -27.3062   20.1312 C   0  0  0  0  0  0
  -25.5928  -33.8570   24.2264 N   0  0  0  0  0  0
  -23.4196  -30.4794   21.5433 C   0  0  2  0  0  0
  -24.8657  -28.9223   20.1175 C   0  0  0  0  0  0
  -22.7463  -29.4621   22.4948 C   0  0  0  0  0  0
  -18.0282  -28.1377   22.8492 C   0  0  0  0  0  0
  -24.1495  -36.7287   23.2642 C   0  0  0  0  0  0
  -25.9598  -30.7839   21.3711 C   0  0  0  0  0  0
  -26.0342  -29.4078   20.7191 C   0  0  0  0  0  0
  -27.2186  -28.6124   20.7113 C   0  0  0  0  0  0
  -26.0317  -26.8623   19.5190 C   0  0  0  0  0  0
  -24.8655  -27.6550   19.5093 C   0  0  0  0  0  0
  -23.6348  -29.8069   20.1615 C   0  0  0  0  0  0
  -25.4122  -36.3079   24.0331 C   0  0  1  0  0  0
  -20.5882  -28.3684   23.1293 C   0  0  2  0  0  0
  -20.6777  -26.9409   22.5418 C   0  0  0  0  0  0
  -19.5758  -26.6377   21.5218 C   0  0  0  0  0  0
  -18.1936  -26.7924   22.1622 C   0  0  0  0  0  0
  -19.1535  -28.8848   23.2889 C   0  0  0  0  0  0
  -18.9458  -30.1449   23.8903 C   0  0  0  0  0  0
  -17.6462  -30.6586   24.0557 C   0  0  0  0  0  0
  -25.9057  -34.9449   23.5097 C   0  0  0  0  0  0
  -16.5350  -29.9082   23.6328 C   0  0  0  0  0  0
  -16.7273  -28.6494   23.0359 C   0  0  0  0  0  0
  -26.4498  -31.6578   25.0698 C   0  0  0  0  0  0
  -25.3734  -31.3712   26.1426 C   0  0  0  0  0  0
  -27.0341  -30.3003   24.6146 C   0  0  0  0  0  0
  -27.6059  -32.4315   25.7470 C   0  0  0  0  0  0
  -27.5586  -37.1798   24.8466 C   0  0  0  0  0  0
  -21.4178  -29.3035   22.3682 N   0  0  0  0  0  0
  -26.4299  -37.3776   23.9409 N   0  0  0  0  0  0
  -24.6874  -31.0582   22.0948 N   0  0  0  0  0  0
  -23.4185  -28.8171   23.3037 O   0  0  0  0  0  0
  -28.3423  -26.4689   20.1105 O   0  0  0  0  0  0
  -26.5625  -34.8921   22.4662 O   0  0  0  0  0  0
  -23.5425  -32.1397   23.7323 O   0  0  0  0  0  0
  -31.1431  -21.6268   19.5780 C   0  0  0  0  0  0
  -30.5631  -22.5044   20.6927 C   0  0  0  0  0  0
  -30.8561  -20.1283   19.8243 C   0  0  0  0  0  0
  -29.0196  -22.4612   20.6738 C   0  0  2  0  0  0
  -28.5239  -20.9750   20.2298 C   0  0  2  0  0  0
  -26.2179  -21.7637   21.3009 C   0  0  0  0  0  0
  -26.2540  -19.8723   19.6970 C   0  0  0  0  0  0
  -28.4692  -23.7732   19.9006 C   0  0  0  0  0  0
  -30.2486  -17.2397   20.7689 C   0  0  0  0  0  0
  -29.1672  -18.3654   20.3654 C   0  0  0  0  0  0
  -28.2550  -25.1256   20.7364 C   0  0  0  0  0  0
  -27.0901  -20.6058   20.7672 C   0  0  0  0  0  0
  -29.8430  -15.7760   20.7385 N   0  0  0  0  0  0
  -29.5569  -19.8520   20.5083 N   0  3  1  0  0  0
  -31.4727  -12.5359   19.1511 H   0  0  0  0  0  0
  -30.3662  -11.4239   19.9094 H   0  0  0  0  0  0
  -29.7755  -11.7405   17.4895 H   0  0  0  0  0  0
  -29.6477  -13.4657   17.7223 H   0  0  0  0  0  0
  -27.8698  -11.2939   18.8721 H   0  0  0  0  0  0
  -27.3741  -12.5656   17.7874 H   0  0  0  0  0  0
  -27.6545  -14.2545   19.4960 H   0  0  0  0  0  0
  -28.7131  -12.0997   21.3915 H   0  0  0  0  0  0
  -28.4400  -13.7694   21.8165 H   0  0  0  0  0  0
  -25.2763   -9.5693   22.4742 H   0  0  0  0  0  0
  -24.0022   -7.4629   22.7455 H   0  0  0  0  0  0
  -21.0844   -8.8748   19.8952 H   0  0  0  0  0  0
  -22.3674  -10.9659   19.6148 H   0  0  0  0  0  0
  -21.1990   -7.6136   23.9708 H   0  0  0  0  0  0
  -21.1490   -6.0516   25.9079 H   0  0  0  0  0  0
  -22.0598   -2.7598   23.2845 H   0  0  0  0  0  0
  -22.4112  -11.9870   22.4824 H   0  0  0  0  0  0
  -21.1084  -13.1184   22.2619 H   0  0  0  0  0  0
  -24.6525  -15.8417   20.5103 H   0  0  0  0  0  0
  -26.2571  -15.6226   20.0340 H   0  0  0  0  0  0
  -26.7162  -32.5442   23.1068 H   0  0  0  0  0  0
  -25.0074  -33.9711   25.0408 H   0  0  0  0  0  0
  -22.7142  -31.3002   21.3972 H   0  0  0  0  0  0
  -23.3762  -35.9614   23.3304 H   0  0  0  0  0  0
  -24.3586  -36.8905   22.2056 H   0  0  0  0  0  0
  -23.7241  -37.6487   23.6661 H   0  0  0  0  0  0
  -26.0908  -31.5433   20.5993 H   0  0  0  0  0  0
  -26.8410  -30.8356   21.9992 H   0  0  0  0  0  0
  -28.1203  -28.9815   21.1804 H   0  0  0  0  0  0
  -26.0036  -25.8881   19.0510 H   0  0  0  0  0  0
  -23.9680  -27.2764   19.0394 H   0  0  0  0  0  0
  -23.7547  -30.5792   19.4007 H   0  0  0  0  0  0
  -22.7541  -29.2360   19.8621 H   0  0  0  0  0  0
  -25.1301  -36.1932   25.0826 H   0  0  0  0  0  0
  -20.9977  -28.3257   24.1413 H   0  0  0  0  0  0
  -20.5682  -26.2290   23.3611 H   0  0  0  0  0  0
  -21.6647  -26.7445   22.1209 H   0  0  0  0  0  0
  -19.6921  -25.6288   21.1245 H   0  0  0  0  0  0
  -19.6698  -27.3184   20.6745 H   0  0  0  0  0  0
  -17.4209  -26.6678   21.4018 H   0  0  0  0  0  0
  -18.0327  -26.0058   22.9008 H   0  0  0  0  0  0
  -19.7940  -30.7259   24.2279 H   0  0  0  0  0  0
  -17.5020  -31.6270   24.5146 H   0  0  0  0  0  0
  -15.5352  -30.2985   23.7653 H   0  0  0  0  0  0
  -15.8671  -28.0809   22.7081 H   0  0  0  0  0  0
  -24.5899  -30.7077   25.7744 H   0  0  0  0  0  0
  -24.8937  -32.2876   26.4874 H   0  0  0  0  0  0
  -25.8058  -30.8862   27.0185 H   0  0  0  0  0  0
  -26.2900  -29.6746   24.1198 H   0  0  0  0  0  0
  -27.4073  -29.7270   25.4642 H   0  0  0  0  0  0
  -27.8760  -30.4296   23.9339 H   0  0  0  0  0  0
  -27.2669  -33.3612   26.2055 H   0  0  0  0  0  0
  -28.3865  -32.6881   25.0293 H   0  0  0  0  0  0
  -28.0733  -31.8433   26.5378 H   0  0  0  0  0  0
  -28.2603  -38.0096   24.7517 H   0  0  0  0  0  0
  -28.1081  -36.2626   24.6288 H   0  0  0  0  0  0
  -27.2303  -37.1444   25.8869 H   0  0  0  0  0  0
  -20.9350  -29.8740   21.6881 H   0  0  0  0  0  0
  -26.0180  -38.2854   24.1400 H   0  0  0  0  0  0
  -32.2188  -21.7824   19.4921 H   0  0  0  0  0  0
  -30.7240  -21.9339   18.6182 H   0  0  0  0  0  0
  -30.9269  -23.5290   20.6031 H   0  0  0  0  0  0
  -30.9360  -22.1480   21.6546 H   0  0  0  0  0  0
  -31.6564  -19.7059   20.4324 H   0  0  0  0  0  0
  -30.8911  -19.6080   18.8653 H   0  0  0  0  0  0
  -28.7411  -22.5923   21.7188 H   0  0  0  0  0  0
  -28.4436  -21.0168   19.1417 H   0  0  0  0  0  0
  -26.6616  -22.2722   22.1556 H   0  0  0  0  0  0
  -25.2577  -21.3834   21.6513 H   0  0  0  0  0  0
  -25.9938  -22.5025   20.5341 H   0  0  0  0  0  0
  -26.7504  -18.9957   19.2876 H   0  0  0  0  0  0
  -26.0302  -20.5332   18.8583 H   0  0  0  0  0  0
  -25.3004  -19.5329   20.1042 H   0  0  0  0  0  0
  -27.5349  -23.5408   19.3919 H   0  0  0  0  0  0
  -29.1565  -23.9912   19.0823 H   0  0  0  0  0  0
  -30.5922  -17.4422   21.7840 H   0  0  0  0  0  0
  -31.1284  -17.3537   20.1354 H   0  0  0  0  0  0
  -28.2818  -18.1710   20.9662 H   0  0  0  0  0  0
  -28.8742  -18.1961   19.3293 H   0  0  0  0  0  0
  -29.0273  -25.1407   21.5061 H   0  0  0  0  0  0
  -27.3211  -25.0392   21.2935 H   0  0  0  0  0  0
  -27.2064  -19.9478   21.6287 H   0  0  0  0  0  0
  -28.8826  -15.5741   20.9727 H   0  0  0  0  0  0
  -29.7531  -19.9563   21.4929 H   0  0  0  0  0  0
  1 25  1  0  0  0
  1 30  2  0  0  0
  1 83  1  0  0  0
  2  3  1  0  0  0
  2 25  1  0  0  0
  2 85  1  0  0  0
  2 86  1  0  0  0
  3  4  1  0  0  0
  3 87  1  0  0  0
  3 88  1  0  0  0
  4  5  1  0  0  0
  4 89  1  0  0  0
  4 90  1  0  0  0
  5  6  1  0  0  0
  5 26  1  0  0  0
  5 91  1  0  0  0
  6 25  1  0  0  0
  6 92  1  0  0  0
  6 93  1  0  0  0
  7  8  2  0  0  0
  7 26  1  0  0  0
  7 29  1  0  0  0
  8  9  1  0  0  0
  8 22  1  0  0  0
  9 10  1  0  0  0
  9 27  2  0  0  0
 10 11  2  0  0  0
 10 15  1  0  0  0
 11 12  1  0  0  0
 11 94  1  0  0  0
 12 13  2  0  0  0
 12 95  1  0  0  0
 13 14  1  0  0  0
 13 31  1  0  0  0
 14 15  2  0  0  0
 14 96  1  0  0  0
 15 97  1  0  0  0
 16 17  2  0  0  0
 16 21  1  0  0  0
 16 31  1  0  0  0
 17 18  1  0  0  0
 17 98  1  0  0  0
 18 19  2  0  0  0
 18 99  1  0  0  0
 19 20  1  0  0  0
 19 24  1  0  0  0
 20 21  2  0  0  0
 20100  1  0  0  0
 21 23  1  0  0  0
 22 28  1  0  0  0
 22 32  2  0  0  0
 26 27  1  0  0  0
 28101  1  0  0  0
 28102  1  0  0  0
 29103  1  0  0  0
 29104  1  0  0  0
 33 34  1  0  0  0
 33 66  1  0  0  0
 33 70  2  0  0  0
 34 36  1  0  0  0
 34 59  1  0  0  0
 34105  1  0  0  0
 35 44  2  0  0  0
 35 45  1  0  0  0
 35 68  1  0  0  0
 36 56  1  0  0  0
 36106  1  0  0  0
 37 39  1  0  0  0
 37 47  1  0  0  0
 37 66  1  0  0  0
 37107  1  0  0  0
 38 43  2  0  0  0
 38 46  1  0  0  0
 38 47  1  0  0  0
 39 64  1  0  0  0
 39 67  2  0  0  0
 40 52  1  0  0  0
 40 53  2  0  0  0
 40 58  1  0  0  0
 41108  1  0  0  0
 41109  1  0  0  0
 41110  1  0  0  0
 41 48  1  0  0  0
 42 43  1  0  0  0
 42 66  1  0  0  0
 42111  1  0  0  0
 42112  1  0  0  0
 43 44  1  0  0  0
 44113  1  0  0  0
 45 46  2  0  0  0
 45114  1  0  0  0
 46115  1  0  0  0
 47116  1  0  0  0
 47117  1  0  0  0
 48 56  1  0  0  0
 48 65  1  0  0  0
 48118  1  0  0  0
 49 50  1  0  0  0
 49 53  1  0  0  0
 49 64  1  0  0  0
 49119  1  0  0  0
 50 51  1  0  0  0
 50120  1  0  0  0
 50121  1  0  0  0
 51 52  1  0  0  0
 51122  1  0  0  0
 51123  1  0  0  0
 52124  1  0  0  0
 52125  1  0  0  0
 53 54  1  0  0  0
 54 55  2  0  0  0
 54126  1  0  0  0
 55 57  1  0  0  0
 55127  1  0  0  0
 56 69  2  0  0  0
 57 58  2  0  0  0
 57128  1  0  0  0
 58129  1  0  0  0
 59 60  1  0  0  0
 59 61  1  0  0  0
 59 62  1  0  0  0
 60130  1  0  0  0
 60131  1  0  0  0
 60132  1  0  0  0
 61133  1  0  0  0
 61134  1  0  0  0
 61135  1  0  0  0
 62136  1  0  0  0
 62137  1  0  0  0
 62138  1  0  0  0
 63 65  1  0  0  0
 63139  1  0  0  0
 63140  1  0  0  0
 63141  1  0  0  0
 64142  1  0  0  0
 65143  1  0  0  0
 68 81  1  0  0  0
 71 72  1  0  0  0
 71 73  1  0  0  0
 71144  1  0  0  0
 71145  1  0  0  0
 72 74  1  0  0  0
 72146  1  0  0  0
 72147  1  0  0  0
 73 84  1  0  0  0
 73148  1  0  0  0
 73149  1  0  0  0
 74 75  1  0  0  0
 74 78  1  0  0  0
 74150  1  0  0  0
 75 82  1  0  0  0
 75 84  1  0  0  0
 75151  1  0  0  0
 76152  1  0  0  0
 76153  1  0  0  0
 76154  1  0  0  0
 76 82  1  0  0  0
 77 82  1  0  0  0
 77155  1  0  0  0
 77156  1  0  0  0
 77157  1  0  0  0
 78 81  1  0  0  0
 78158  1  0  0  0
 78159  1  0  0  0
 79 80  1  0  0  0
 79 83  1  0  0  0
 79160  1  0  0  0
 79161  1  0  0  0
 80162  1  0  0  0
 80163  1  0  0  0
 80 84  1  0  0  0
 81164  1  0  0  0
 81165  1  0  0  0
 82166  1  0  0  0
 83167  1  0  0  0
 84168  1  0  0  0
M  CHG  1  84   1
M  ISO  4   1 100  68 101  81 101  83 100
M  END
> <chiral flag>
0

> <version>
0

> <s_m_source_file>
/data/baiqing/PycharmProjects/Reinvent-master-3.2/result/LINK_invent/BTK/process_docking_weight1_custom_sum_contain_oxygen_bond_distance_aromatic_linkinvent_7_9_3/rearranged_h_0120.sdf

> <i_m_source_file_index>
67

> <r_mmod_Potential_Energy-OPLS-2005>
91.879638671875

> <r_mmod_Stretch_Energy-OPLS-2005>
111.308303833008

> <r_mmod_Bend_Energy-OPLS-2005>
161.493759155273

> <r_mmod_Torsional_Energy-OPLS-2005>
316.225677490234

> <r_mmod_Improper_Torsional_Energy-OPLS-2005>
4.57423448562622

> <r_mmod_Van_der_Waal_Energy-OPLS-2005>
133.35676574707

> <r_mmod_Electrostatic_Energy-OPLS-2005>
-248.257888793945

> <r_mmod_Solvation_Energy-OPLS-2005>
-442.603729248047

> <b_mmod_Minimization_Converged-OPLS-2005>
0

> <r_mmod_RMS_Derivative-OPLS-2005>
1.51794612407684

$$$$
67
                    3D
 Structure written by MMmdl.
156165  0  0  1  0            999 V2000
  -30.5392  -14.9054   20.4332 C   0  0  0  0  0  0
  -30.4369  -12.5593   19.4772 C   0  0  0  0  0  0
  -29.5093  -12.5164   18.2414 C   0  0  0  0  0  0
  -28.0445  -12.3073   18.6686 C   0  0  0  0  0  0
  -27.6285  -13.2382   19.8369 C   0  0  2  0  0  0
  -28.6748  -13.2413   20.9709 C   0  0  0  0  0  0
  -25.2476  -13.8193   20.5717 C   0  0  0  0  0  0
  -24.1774  -13.0424   20.9221 C   0  0  0  0  0  0
  -24.6366  -11.6902   20.8739 C   0  0  0  0  0  0
  -23.9062  -10.4270   21.0389 C   0  0  0  0  0  0
  -24.3608   -9.4202   21.9175 C   0  0  0  0  0  0
  -23.6259   -8.2262   22.0794 C   0  0  0  0  0  0
  -22.4243   -8.0285   21.3575 C   0  0  0  0  0  0
  -21.9892   -9.0257   20.4664 C   0  0  0  0  0  0
  -22.7234  -10.2124   20.3047 C   0  0  0  0  0  0
  -21.6856   -6.0704   22.5279 C   0  0  0  0  0  0
  -21.4015   -6.5627   23.8189 C   0  0  0  0  0  0
  -21.3661   -5.6804   24.9175 C   0  0  0  0  0  0
  -21.6065   -4.3069   24.7240 C   0  0  0  0  0  0
  -21.8814   -3.8125   23.4376 C   0  0  0  0  0  0
  -21.9195   -4.6933   22.3407 C   0  0  0  0  0  0
  -22.7794  -13.5227   21.1873 C   0  0  0  0  0  0
  -22.1652   -4.2095   21.0994 F   0  0  0  0  0  0
  -21.5616   -3.4554   25.7761 F   0  0  0  0  0  0
  -29.9517  -13.6486   20.3685 N   0  0  0  0  0  0
  -26.2876  -12.9403   20.3227 N   0  0  0  0  0  0
  -25.9292  -11.6540   20.5711 N   0  0  0  0  0  0
  -22.0436  -12.8241   22.0443 N   0  0  0  0  0  0
  -25.4129  -15.1936   20.4230 N   0  0  0  0  0  0
  -31.7470  -14.9956   20.1944 O   0  0  0  0  0  0
  -21.6654   -6.8857   21.4236 O   0  0  0  0  0  0
  -22.3499  -14.5532   20.6710 O   0  0  0  0  0  0
  -24.6385  -31.8471   23.1919 C   0  0  0  0  0  0
  -25.9170  -32.4706   23.8312 C   0  0  1  0  0  0
  -27.2363  -27.1908   20.1457 C   0  0  0  0  0  0
  -25.5922  -33.8509   24.2226 N   0  0  0  0  0  0
  -23.4437  -30.4646   21.5370 C   0  0  2  0  0  0
  -24.8958  -28.8936   20.1197 C   0  0  0  0  0  0
  -22.7559  -29.4552   22.4895 C   0  0  0  0  0  0
  -18.0309  -28.1378   22.8473 C   0  0  0  0  0  0
  -24.1504  -36.7259   23.2645 C   0  0  0  0  0  0
  -25.9955  -30.7378   21.3836 C   0  0  0  0  0  0
  -26.0722  -29.3512   20.7286 C   0  0  0  0  0  0
  -27.2476  -28.5169   20.7238 C   0  0  0  0  0  0
  -26.0321  -26.8116   19.5213 C   0  0  0  0  0  0
  -24.8838  -27.6314   19.5048 C   0  0  0  0  0  0
  -23.6693  -29.7898   20.1588 C   0  0  0  0  0  0
  -25.4128  -36.3040   24.0332 C   0  0  1  0  0  0
  -20.5919  -28.3700   23.1251 C   0  0  2  0  0  0
  -20.6797  -26.9414   22.5402 C   0  0  0  0  0  0
  -19.5774  -26.6383   21.5205 C   0  0  0  0  0  0
  -18.1953  -26.7912   22.1626 C   0  0  0  0  0  0
  -19.1566  -28.8864   23.2844 C   0  0  0  0  0  0
  -18.9475  -30.1456   23.8873 C   0  0  0  0  0  0
  -17.6470  -30.6580   24.0560 C   0  0  0  0  0  0
  -25.9079  -34.9411   23.5107 C   0  0  0  0  0  0
  -16.5361  -29.9074   23.6317 C   0  0  0  0  0  0
  -16.7289  -28.6486   23.0345 C   0  0  0  0  0  0
  -26.4516  -31.6545   25.0728 C   0  0  0  0  0  0
  -25.3714  -31.3691   26.1435 C   0  0  0  0  0  0
  -27.0392  -30.2966   24.6238 C   0  0  0  0  0  0
  -27.6070  -32.4299   25.7474 C   0  0  0  0  0  0
  -27.5589  -37.1786   24.8463 C   0  0  0  0  0  0
  -21.4264  -29.3023   22.3619 N   0  0  0  0  0  0
  -26.4300  -37.3739   23.9404 N   0  0  0  0  0  0
  -24.7123  -31.0359   22.0937 N   0  0  0  0  0  0
  -23.4210  -28.8118   23.3057 O   0  0  0  0  0  0
  -28.3053  -26.2424   20.1079 O   0  0  0  0  0  0
  -26.5673  -34.8904   22.4691 O   0  0  0  0  0  0
  -23.5510  -32.1321   23.7155 O   0  0  0  0  0  0
  -29.7719  -21.4896   19.7218 C   0  0  0  0  0  0
  -27.9123  -20.9545   21.0196 C   0  0  0  0  0  0
  -27.6495  -22.3527   21.1238 C   0  0  0  0  0  0
  -29.0126  -20.4021   20.2996 C   0  0  0  0  0  0
  -28.4461  -23.3811   20.5305 C   0  0  0  0  0  0
  -26.8560  -20.1580   21.7428 C   0  0  0  0  0  0
  -26.4233  -22.5999   21.9692 C   0  0  0  0  0  0
  -25.8050  -21.2041   22.1766 C   0  0  0  0  0  0
  -29.1674  -18.7915   19.9610 C   0  0  0  0  0  0
  -28.2030  -24.9661   20.9364 C   0  0  0  0  0  0
  -29.9756  -17.5950   20.7995 C   0  0  0  0  0  0
  -29.5299  -22.8718   19.8426 N   0  0  0  0  0  0
  -29.7251  -16.0551   20.5757 N   0  0  0  0  0  0
  -31.4688  -12.7198   19.1658 H   0  0  0  0  0  0
  -30.4243  -11.6001   19.9963 H   0  0  0  0  0  0
  -29.8150  -11.7161   17.5661 H   0  0  0  0  0  0
  -29.6013  -13.4451   17.6772 H   0  0  0  0  0  0
  -27.9433  -11.2665   18.9786 H   0  0  0  0  0  0
  -27.3698  -12.4379   17.8210 H   0  0  0  0  0  0
  -27.5935  -14.2431   19.4172 H   0  0  0  0  0  0
  -28.7603  -12.2561   21.4336 H   0  0  0  0  0  0
  -28.3844  -13.9307   21.7657 H   0  0  0  0  0  0
  -25.2748   -9.5698   22.4749 H   0  0  0  0  0  0
  -23.9931   -7.4688   22.7573 H   0  0  0  0  0  0
  -21.0797   -8.8795   19.9007 H   0  0  0  0  0  0
  -22.3703  -10.9674   19.6161 H   0  0  0  0  0  0
  -21.2003   -7.6139   23.9637 H   0  0  0  0  0  0
  -21.1488   -6.0570   25.9066 H   0  0  0  0  0  0
  -22.0589   -2.7582   23.2913 H   0  0  0  0  0  0
  -22.4009  -11.9890   22.4841 H   0  0  0  0  0  0
  -21.1070  -13.1307   22.2647 H   0  0  0  0  0  0
  -24.6414  -15.8405   20.5481 H   0  0  0  0  0  0
  -26.2489  -15.6455   20.0788 H   0  0  0  0  0  0
  -26.7225  -32.5337   23.1043 H   0  0  0  0  0  0
  -24.9982  -33.9611   25.0312 H   0  0  0  0  0  0
  -22.7441  -31.2884   21.3801 H   0  0  0  0  0  0
  -23.3778  -35.9582   23.3301 H   0  0  0  0  0  0
  -24.3588  -36.8887   22.2058 H   0  0  0  0  0  0
  -23.7263  -37.6460   23.6674 H   0  0  0  0  0  0
  -26.1424  -31.4937   20.6111 H   0  0  0  0  0  0
  -26.8696  -30.7918   22.0218 H   0  0  0  0  0  0
  -28.1506  -28.8738   21.1984 H   0  0  0  0  0  0
  -25.9739  -25.8411   19.0489 H   0  0  0  0  0  0
  -23.9860  -27.2698   19.0238 H   0  0  0  0  0  0
  -23.7993  -30.5628   19.3998 H   0  0  0  0  0  0
  -22.7873  -29.2240   19.8529 H   0  0  0  0  0  0
  -25.1313  -36.1878   25.0823 H   0  0  0  0  0  0
  -20.9998  -28.3286   24.1384 H   0  0  0  0  0  0
  -20.5685  -26.2316   23.3614 H   0  0  0  0  0  0
  -21.6659  -26.7418   22.1196 H   0  0  0  0  0  0
  -19.6948  -25.6299   21.1225 H   0  0  0  0  0  0
  -19.6713  -27.3198   20.6738 H   0  0  0  0  0  0
  -17.4216  -26.6624   21.4042 H   0  0  0  0  0  0
  -18.0378  -26.0071   22.9047 H   0  0  0  0  0  0
  -19.7946  -30.7276   24.2239 H   0  0  0  0  0  0
  -17.5019  -31.6256   24.5174 H   0  0  0  0  0  0
  -15.5356  -30.2970   23.7648 H   0  0  0  0  0  0
  -15.8686  -28.0796   22.7066 H   0  0  0  0  0  0
  -24.5848  -30.7100   25.7727 H   0  0  0  0  0  0
  -24.8964  -32.2872   26.4901 H   0  0  0  0  0  0
  -25.8017  -30.8795   27.0182 H   0  0  0  0  0  0
  -26.2995  -29.6711   24.1231 H   0  0  0  0  0  0
  -27.4028  -29.7216   25.4761 H   0  0  0  0  0  0
  -27.8898  -30.4248   23.9544 H   0  0  0  0  0  0
  -27.2641  -33.3537   26.2134 H   0  0  0  0  0  0
  -28.3819  -32.6955   25.0271 H   0  0  0  0  0  0
  -28.0836  -31.8400   26.5309 H   0  0  0  0  0  0
  -28.2594  -38.0092   24.7513 H   0  0  0  0  0  0
  -28.1107  -36.2629   24.6293 H   0  0  0  0  0  0
  -27.2312  -37.1417   25.8867 H   0  0  0  0  0  0
  -20.9477  -29.8696   21.6762 H   0  0  0  0  0  0
  -26.0193  -38.2821   24.1392 H   0  0  0  0  0  0
  -30.6122  -21.2419   19.0901 H   0  0  0  0  0  0
  -27.3023  -19.6645   22.6071 H   0  0  0  0  0  0
  -26.4151  -19.3979   21.0973 H   0  0  0  0  0  0
  -25.7213  -23.2735   21.4745 H   0  0  0  0  0  0
  -26.7242  -23.0499   22.9170 H   0  0  0  0  0  0
  -25.4379  -21.0546   23.1924 H   0  0  0  0  0  0
  -24.9407  -21.1191   21.5164 H   0  0  0  0  0  0
  -29.5592  -18.7611   18.9426 H   0  0  0  0  0  0
  -28.1435  -18.4338   19.8498 H   0  0  0  0  0  0
  -28.9141  -25.1363   21.7450 H   0  0  0  0  0  0
  -27.2411  -25.0270   21.4409 H   0  0  0  0  0  0
  -29.7315  -17.7454   21.8536 H   0  0  0  0  0  0
  -31.0483  -17.7840   20.7370 H   0  0  0  0  0  0
  -28.7517  -15.8060   20.6693 H   0  0  0  0  0  0
  1 25  1  0  0  0
  1 30  2  0  0  0
  1 83  1  0  0  0
  2  3  1  0  0  0
  2 25  1  0  0  0
  2 84  1  0  0  0
  2 85  1  0  0  0
  3  4  1  0  0  0
  3 86  1  0  0  0
  3 87  1  0  0  0
  4  5  1  0  0  0
  4 88  1  0  0  0
  4 89  1  0  0  0
  5  6  1  0  0  0
  5 26  1  0  0  0
  5 90  1  0  0  0
  6 25  1  0  0  0
  6 91  1  0  0  0
  6 92  1  0  0  0
  7  8  2  0  0  0
  7 26  1  0  0  0
  7 29  1  0  0  0
  8  9  1  0  0  0
  8 22  1  0  0  0
  9 10  1  0  0  0
  9 27  2  0  0  0
 10 11  2  0  0  0
 10 15  1  0  0  0
 11 12  1  0  0  0
 11 93  1  0  0  0
 12 13  2  0  0  0
 12 94  1  0  0  0
 13 14  1  0  0  0
 13 31  1  0  0  0
 14 15  2  0  0  0
 14 95  1  0  0  0
 15 96  1  0  0  0
 16 17  2  0  0  0
 16 21  1  0  0  0
 16 31  1  0  0  0
 17 18  1  0  0  0
 17 97  1  0  0  0
 18 19  2  0  0  0
 18 98  1  0  0  0
 19 20  1  0  0  0
 19 24  1  0  0  0
 20 21  2  0  0  0
 20 99  1  0  0  0
 21 23  1  0  0  0
 22 28  1  0  0  0
 22 32  2  0  0  0
 26 27  1  0  0  0
 28100  1  0  0  0
 28101  1  0  0  0
 29102  1  0  0  0
 29103  1  0  0  0
 33 34  1  0  0  0
 33 66  1  0  0  0
 33 70  2  0  0  0
 34 36  1  0  0  0
 34 59  1  0  0  0
 34104  1  0  0  0
 35 44  2  0  0  0
 35 45  1  0  0  0
 35 68  1  0  0  0
 36 56  1  0  0  0
 36105  1  0  0  0
 37 39  1  0  0  0
 37 47  1  0  0  0
 37 66  1  0  0  0
 37106  1  0  0  0
 38 43  2  0  0  0
 38 46  1  0  0  0
 38 47  1  0  0  0
 39 64  1  0  0  0
 39 67  2  0  0  0
 40 52  1  0  0  0
 40 53  2  0  0  0
 40 58  1  0  0  0
 41107  1  0  0  0
 41108  1  0  0  0
 41109  1  0  0  0
 41 48  1  0  0  0
 42 43  1  0  0  0
 42 66  1  0  0  0
 42110  1  0  0  0
 42111  1  0  0  0
 43 44  1  0  0  0
 44112  1  0  0  0
 45 46  2  0  0  0
 45113  1  0  0  0
 46114  1  0  0  0
 47115  1  0  0  0
 47116  1  0  0  0
 48 56  1  0  0  0
 48 65  1  0  0  0
 48117  1  0  0  0
 49 50  1  0  0  0
 49 53  1  0  0  0
 49 64  1  0  0  0
 49118  1  0  0  0
 50 51  1  0  0  0
 50119  1  0  0  0
 50120  1  0  0  0
 51 52  1  0  0  0
 51121  1  0  0  0
 51122  1  0  0  0
 52123  1  0  0  0
 52124  1  0  0  0
 53 54  1  0  0  0
 54 55  2  0  0  0
 54125  1  0  0  0
 55 57  1  0  0  0
 55126  1  0  0  0
 56 69  2  0  0  0
 57 58  2  0  0  0
 57127  1  0  0  0
 58128  1  0  0  0
 59 60  1  0  0  0
 59 61  1  0  0  0
 59 62  1  0  0  0
 60129  1  0  0  0
 60130  1  0  0  0
 60131  1  0  0  0
 61132  1  0  0  0
 61133  1  0  0  0
 61134  1  0  0  0
 62135  1  0  0  0
 62136  1  0  0  0
 62137  1  0  0  0
 63 65  1  0  0  0
 63138  1  0  0  0
 63139  1  0  0  0
 63140  1  0  0  0
 64141  1  0  0  0
 65142  1  0  0  0
 68 80  1  0  0  0
 71 74  2  0  0  0
 71 82  1  0  0  0
 71143  1  0  0  0
 72 73  2  0  0  0
 72 74  1  0  0  0
 72 76  1  0  0  0
 73 75  1  0  0  0
 73 77  1  0  0  0
 74 79  1  0  0  0
 75 80  1  0  0  0
 75 82  2  0  0  0
 76 78  1  0  0  0
 76144  1  0  0  0
 76145  1  0  0  0
 77 78  1  0  0  0
 77146  1  0  0  0
 77147  1  0  0  0
 78148  1  0  0  0
 78149  1  0  0  0
 79 81  1  0  0  0
 79150  1  0  0  0
 79151  1  0  0  0
 80152  1  0  0  0
 80153  1  0  0  0
 81 83  1  0  0  0
 81154  1  0  0  0
 81155  1  0  0  0
 83156  1  0  0  0
M  ISO  4   1 100  68 101  80 101  83 100
M  END
> <chiral flag>
0

> <version>
0

> <s_m_source_file>
/data/baiqing/PycharmProjects/Reinvent-master-3.2/result/LINK_invent/BTK/process_docking_weight1_custom_sum_contain_oxygen_bond_distance_aromatic_linkinvent_7_9_3/rearranged_h_0120.sdf

> <i_m_source_file_index>
68

> <r_mmod_Potential_Energy-OPLS-2005>
309.592102050781

> <r_mmod_Stretch_Energy-OPLS-2005>
206.577941894531

> <r_mmod_Bend_Energy-OPLS-2005>
299.029388427734

> <r_mmod_Torsional_Energy-OPLS-2005>
256.587158203125

> <r_mmod_Improper_Torsional_Energy-OPLS-2005>
7.44443988800049

> <r_mmod_Van_der_Waal_Energy-OPLS-2005>
127.727828979492

> <r_mmod_Electrostatic_Energy-OPLS-2005>
-502.898590087891

> <r_mmod_Solvation_Energy-OPLS-2005>
-240.251541137695

> <b_mmod_Minimization_Converged-OPLS-2005>
0

> <r_mmod_RMS_Derivative-OPLS-2005>
3.36181330680847

$$$$
68
                    3D
 Structure written by MMmdl.
159167  0  0  1  0            999 V2000
  -30.5445  -14.9325   20.4403 C   0  0  0  0  0  0
  -30.4443  -12.5787   19.4967 C   0  0  0  0  0  0
  -29.5225  -12.5100   18.2560 C   0  0  0  0  0  0
  -28.0559  -12.2929   18.6825 C   0  0  0  0  0  0
  -27.6299  -13.2385   19.8377 C   0  0  2  0  0  0
  -28.6737  -13.2671   20.9733 C   0  0  0  0  0  0
  -25.2476  -13.8178   20.5711 C   0  0  0  0  0  0
  -24.1781  -13.0418   20.9240 C   0  0  0  0  0  0
  -24.6383  -11.6892   20.8739 C   0  0  0  0  0  0
  -23.9054  -10.4273   21.0406 C   0  0  0  0  0  0
  -24.3601   -9.4189   21.9183 C   0  0  0  0  0  0
  -23.6271   -8.2228   22.0757 C   0  0  0  0  0  0
  -22.4253   -8.0264   21.3548 C   0  0  0  0  0  0
  -21.9883   -9.0242   20.4652 C   0  0  0  0  0  0
  -22.7221  -10.2118   20.3063 C   0  0  0  0  0  0
  -21.6834   -6.0732   22.5285 C   0  0  0  0  0  0
  -21.4029   -6.5649   23.8232 C   0  0  0  0  0  0
  -21.3655   -5.6802   24.9198 C   0  0  0  0  0  0
  -21.6014   -4.3057   24.7245 C   0  0  0  0  0  0
  -21.8804   -3.8147   23.4375 C   0  0  0  0  0  0
  -21.9193   -4.6951   22.3421 C   0  0  0  0  0  0
  -22.7811  -13.5201   21.1885 C   0  0  0  0  0  0
  -22.1640   -4.2148   21.0995 F   0  0  0  0  0  0
  -21.5627   -3.4538   25.7764 F   0  0  0  0  0  0
  -29.9464  -13.6785   20.3681 N   0  0  0  0  0  0
  -26.2883  -12.9394   20.3240 N   0  0  0  0  0  0
  -25.9315  -11.6526   20.5727 N   0  0  0  0  0  0
  -22.0442  -12.8221   22.0447 N   0  0  0  0  0  0
  -25.4130  -15.1903   20.4129 N   0  0  0  0  0  0
  -31.7564  -15.0008   20.2150 O   0  0  0  0  0  0
  -21.6607   -6.8867   21.4250 O   0  0  0  0  0  0
  -22.3499  -14.5483   20.6680 O   0  0  0  0  0  0
  -24.6417  -31.8402   23.1863 C   0  0  0  0  0  0
  -25.9192  -32.4682   23.8250 C   0  0  1  0  0  0
  -27.2342  -27.1417   20.1663 C   0  0  0  0  0  0
  -25.5928  -33.8492   24.2163 N   0  0  0  0  0  0
  -23.4466  -30.4593   21.5278 C   0  0  2  0  0  0
  -24.9027  -28.8809   20.1127 C   0  0  0  0  0  0
  -22.7546  -29.4539   22.4822 C   0  0  0  0  0  0
  -18.0295  -28.1378   22.8473 C   0  0  0  0  0  0
  -24.1493  -36.7260   23.2646 C   0  0  0  0  0  0
  -26.0000  -30.7203   21.3836 C   0  0  0  0  0  0
  -26.0762  -29.3299   20.7333 C   0  0  0  0  0  0
  -27.2384  -28.4732   20.7461 C   0  0  0  0  0  0
  -26.0379  -26.7965   19.4952 C   0  0  0  0  0  0
  -24.8964  -27.6281   19.4817 C   0  0  0  0  0  0
  -23.6756  -29.7799   20.1502 C   0  0  0  0  0  0
  -25.4123  -36.3022   24.0309 C   0  0  1  0  0  0
  -20.5903  -28.3707   23.1218 C   0  0  2  0  0  0
  -20.6772  -26.9402   22.5398 C   0  0  0  0  0  0
  -19.5757  -26.6369   21.5194 C   0  0  0  0  0  0
  -18.1941  -26.7916   22.1609 C   0  0  0  0  0  0
  -19.1559  -28.8864   23.2849 C   0  0  0  0  0  0
  -18.9477  -30.1451   23.8881 C   0  0  0  0  0  0
  -17.6482  -30.6577   24.0554 C   0  0  0  0  0  0
  -25.9065  -34.9396   23.5050 C   0  0  0  0  0  0
  -16.5365  -29.9074   23.6328 C   0  0  0  0  0  0
  -16.7295  -28.6489   23.0364 C   0  0  0  0  0  0
  -26.4525  -31.6550   25.0680 C   0  0  0  0  0  0
  -25.3737  -31.3765   26.1396 C   0  0  0  0  0  0
  -27.0399  -30.2940   24.6276 C   0  0  0  0  0  0
  -27.6056  -32.4325   25.7469 C   0  0  0  0  0  0
  -27.5565  -37.1774   24.8457 C   0  0  0  0  0  0
  -21.4229  -29.3043   22.3581 N   0  0  0  0  0  0
  -26.4279  -37.3734   23.9404 N   0  0  0  0  0  0
  -24.7153  -31.0286   22.0882 N   0  0  0  0  0  0
  -23.4179  -28.8074   23.2970 O   0  0  0  0  0  0
  -28.2983  -26.1725   20.2725 O   0  0  0  0  0  0
  -26.5671  -34.8900   22.4636 O   0  0  0  0  0  0
  -23.5534  -32.1272   23.7109 O   0  0  0  0  0  0
  -31.1858  -22.7836   19.4509 C   0  0  0  0  0  0
  -30.0465  -21.9683   18.8283 C   0  0  0  0  0  0
  -29.0493  -23.3540   20.5947 C   0  0  2  0  0  0
  -30.5417  -23.7675   20.4520 C   0  0  1  0  0  0
  -29.0233  -21.7774   19.9573 C   0  0  2  0  0  0
  -28.1304  -24.6471   19.9862 C   0  0  0  0  0  0
  -30.0858  -17.6398   20.8268 C   0  0  0  0  0  0
  -29.2335  -18.9722   20.2234 C   0  0  0  0  0  0
  -29.7596  -16.1098   20.5658 N   0  0  0  0  0  0
  -31.2746  -23.8356   21.7389 N   0  3  0  0  0  0
  -29.4406  -20.4590   20.7557 N   0  3  0  0  0  0
  -31.4767  -12.7401   19.1875 H   0  0  0  0  0  0
  -30.4372  -11.6289   20.0343 H   0  0  0  0  0  0
  -29.8410  -11.7063   17.5868 H   0  0  0  0  0  0
  -29.6036  -13.4355   17.6845 H   0  0  0  0  0  0
  -27.9644  -11.2575   19.0091 H   0  0  0  0  0  0
  -27.3864  -12.4073   17.8283 H   0  0  0  0  0  0
  -27.5915  -14.2333   19.3948 H   0  0  0  0  0  0
  -28.7607  -12.2900   21.4508 H   0  0  0  0  0  0
  -28.3791  -13.9686   21.7546 H   0  0  0  0  0  0
  -25.2749   -9.5675   22.4761 H   0  0  0  0  0  0
  -23.9987   -7.4616   22.7463 H   0  0  0  0  0  0
  -21.0827   -8.8739   19.8956 H   0  0  0  0  0  0
  -22.3654  -10.9656   19.6168 H   0  0  0  0  0  0
  -21.2018   -7.6156   23.9749 H   0  0  0  0  0  0
  -21.1486   -6.0530   25.9102 H   0  0  0  0  0  0
  -22.0578   -2.7611   23.2875 H   0  0  0  0  0  0
  -22.4040  -11.9912   22.4924 H   0  0  0  0  0  0
  -21.1038  -13.1249   22.2553 H   0  0  0  0  0  0
  -24.6393  -15.8349   20.5332 H   0  0  0  0  0  0
  -26.2367  -15.6343   20.0319 H   0  0  0  0  0  0
  -26.7250  -32.5301   23.0972 H   0  0  0  0  0  0
  -25.0006  -33.9592   25.0266 H   0  0  0  0  0  0
  -22.7497  -31.2838   21.3665 H   0  0  0  0  0  0
  -23.3740  -35.9604   23.3293 H   0  0  0  0  0  0
  -24.3573  -36.8912   22.2060 H   0  0  0  0  0  0
  -23.7266  -37.6460   23.6703 H   0  0  0  0  0  0
  -26.1504  -31.4728   20.6078 H   0  0  0  0  0  0
  -26.8716  -30.7762   22.0240 H   0  0  0  0  0  0
  -28.1277  -28.8090   21.2627 H   0  0  0  0  0  0
  -25.9557  -25.8423   18.9988 H   0  0  0  0  0  0
  -24.0009  -27.2778   18.9871 H   0  0  0  0  0  0
  -23.8080  -30.5464   19.3859 H   0  0  0  0  0  0
  -22.7942  -29.2123   19.8458 H   0  0  0  0  0  0
  -25.1314  -36.1835   25.0798 H   0  0  0  0  0  0
  -21.0034  -28.3324   24.1327 H   0  0  0  0  0  0
  -20.5612  -26.2334   23.3631 H   0  0  0  0  0  0
  -21.6642  -26.7359   22.1231 H   0  0  0  0  0  0
  -19.6907  -25.6281   21.1235 H   0  0  0  0  0  0
  -19.6700  -27.3163   20.6718 H   0  0  0  0  0  0
  -17.4197  -26.6661   21.4025 H   0  0  0  0  0  0
  -18.0348  -26.0059   22.9009 H   0  0  0  0  0  0
  -19.7967  -30.7262   24.2249 H   0  0  0  0  0  0
  -17.5043  -31.6261   24.5152 H   0  0  0  0  0  0
  -15.5374  -30.2973   23.7668 H   0  0  0  0  0  0
  -15.8687  -28.0799   22.7096 H   0  0  0  0  0  0
  -24.5899  -30.7119   25.7739 H   0  0  0  0  0  0
  -24.8956  -32.2966   26.4764 H   0  0  0  0  0  0
  -25.8026  -30.8978   27.0206 H   0  0  0  0  0  0
  -26.3011  -29.6655   24.1281 H   0  0  0  0  0  0
  -27.3995  -29.7247   25.4858 H   0  0  0  0  0  0
  -27.8928  -30.4153   23.9598 H   0  0  0  0  0  0
  -27.2625  -33.3642   26.1989 H   0  0  0  0  0  0
  -28.3900  -32.6868   25.0324 H   0  0  0  0  0  0
  -28.0687  -31.8493   26.5441 H   0  0  0  0  0  0
  -28.2568  -38.0083   24.7493 H   0  0  0  0  0  0
  -28.1069  -36.2602   24.6291 H   0  0  0  0  0  0
  -27.2273  -37.1431   25.8859 H   0  0  0  0  0  0
  -20.9424  -29.8785   21.6788 H   0  0  0  0  0  0
  -26.0135  -38.2791   24.1428 H   0  0  0  0  0  0
  -31.7530  -23.3114   18.6817 H   0  0  0  0  0  0
  -31.8899  -22.1150   19.9499 H   0  0  0  0  0  0
  -30.4053  -21.0352   18.3915 H   0  0  0  0  0  0
  -29.5955  -22.5425   18.0174 H   0  0  0  0  0  0
  -28.7777  -23.2883   21.6485 H   0  0  0  0  0  0
  -30.6055  -24.7687   20.0217 H   0  0  0  0  0  0
  -28.0316  -21.5885   19.5453 H   0  0  0  0  0  0
  -27.0974  -24.3913   20.2278 H   0  0  0  0  0  0
  -28.1838  -24.5747   18.8990 H   0  0  0  0  0  0
  -30.0684  -17.7277   21.9160 H   0  0  0  0  0  0
  -31.1345  -17.7766   20.5600 H   0  0  0  0  0  0
  -28.1698  -18.7648   20.3232 H   0  0  0  0  0  0
  -29.4101  -19.0007   19.1478 H   0  0  0  0  0  0
  -28.7719  -15.9053   20.6010 H   0  0  0  0  0  0
  -31.2972  -22.9609   22.2327 H   0  0  0  0  0  0
  -30.8605  -24.5222   22.3458 H   0  0  0  0  0  0
  -32.2259  -24.1205   21.5762 H   0  0  0  0  0  0
  -28.9448  -20.4952   21.6342 H   0  0  0  0  0  0
  -30.4173  -20.5278   20.9826 H   0  0  0  0  0  0
  1 25  1  0  0  0
  1 30  2  0  0  0
  1 79  1  0  0  0
  2  3  1  0  0  0
  2 25  1  0  0  0
  2 82  1  0  0  0
  2 83  1  0  0  0
  3  4  1  0  0  0
  3 84  1  0  0  0
  3 85  1  0  0  0
  4  5  1  0  0  0
  4 86  1  0  0  0
  4 87  1  0  0  0
  5  6  1  0  0  0
  5 26  1  0  0  0
  5 88  1  0  0  0
  6 25  1  0  0  0
  6 89  1  0  0  0
  6 90  1  0  0  0
  7  8  2  0  0  0
  7 26  1  0  0  0
  7 29  1  0  0  0
  8  9  1  0  0  0
  8 22  1  0  0  0
  9 10  1  0  0  0
  9 27  2  0  0  0
 10 11  2  0  0  0
 10 15  1  0  0  0
 11 12  1  0  0  0
 11 91  1  0  0  0
 12 13  2  0  0  0
 12 92  1  0  0  0
 13 14  1  0  0  0
 13 31  1  0  0  0
 14 15  2  0  0  0
 14 93  1  0  0  0
 15 94  1  0  0  0
 16 17  2  0  0  0
 16 21  1  0  0  0
 16 31  1  0  0  0
 17 18  1  0  0  0
 17 95  1  0  0  0
 18 19  2  0  0  0
 18 96  1  0  0  0
 19 20  1  0  0  0
 19 24  1  0  0  0
 20 21  2  0  0  0
 20 97  1  0  0  0
 21 23  1  0  0  0
 22 28  1  0  0  0
 22 32  2  0  0  0
 26 27  1  0  0  0
 28 98  1  0  0  0
 28 99  1  0  0  0
 29100  1  0  0  0
 29101  1  0  0  0
 33 34  1  0  0  0
 33 66  1  0  0  0
 33 70  2  0  0  0
 34 36  1  0  0  0
 34 59  1  0  0  0
 34102  1  0  0  0
 35 44  2  0  0  0
 35 45  1  0  0  0
 35 68  1  0  0  0
 36 56  1  0  0  0
 36103  1  0  0  0
 37 39  1  0  0  0
 37 47  1  0  0  0
 37 66  1  0  0  0
 37104  1  0  0  0
 38 43  2  0  0  0
 38 46  1  0  0  0
 38 47  1  0  0  0
 39 64  1  0  0  0
 39 67  2  0  0  0
 40 52  1  0  0  0
 40 53  2  0  0  0
 40 58  1  0  0  0
 41105  1  0  0  0
 41106  1  0  0  0
 41107  1  0  0  0
 41 48  1  0  0  0
 42 43  1  0  0  0
 42 66  1  0  0  0
 42108  1  0  0  0
 42109  1  0  0  0
 43 44  1  0  0  0
 44110  1  0  0  0
 45 46  2  0  0  0
 45111  1  0  0  0
 46112  1  0  0  0
 47113  1  0  0  0
 47114  1  0  0  0
 48 56  1  0  0  0
 48 65  1  0  0  0
 48115  1  0  0  0
 49 50  1  0  0  0
 49 53  1  0  0  0
 49 64  1  0  0  0
 49116  1  0  0  0
 50 51  1  0  0  0
 50117  1  0  0  0
 50118  1  0  0  0
 51 52  1  0  0  0
 51119  1  0  0  0
 51120  1  0  0  0
 52121  1  0  0  0
 52122  1  0  0  0
 53 54  1  0  0  0
 54 55  2  0  0  0
 54123  1  0  0  0
 55 57  1  0  0  0
 55124  1  0  0  0
 56 69  2  0  0  0
 57 58  2  0  0  0
 57125  1  0  0  0
 58126  1  0  0  0
 59 60  1  0  0  0
 59 61  1  0  0  0
 59 62  1  0  0  0
 60127  1  0  0  0
 60128  1  0  0  0
 60129  1  0  0  0
 61130  1  0  0  0
 61131  1  0  0  0
 61132  1  0  0  0
 62133  1  0  0  0
 62134  1  0  0  0
 62135  1  0  0  0
 63 65  1  0  0  0
 63136  1  0  0  0
 63137  1  0  0  0
 63138  1  0  0  0
 64139  1  0  0  0
 65140  1  0  0  0
 68 76  1  0  0  0
 71 72  1  0  0  0
 71 74  1  0  0  0
 71141  1  0  0  0
 71142  1  0  0  0
 72 75  1  0  0  0
 72143  1  0  0  0
 72144  1  0  0  0
 73 74  1  0  0  0
 73 75  1  0  0  0
 73 76  1  0  0  0
 73145  1  0  0  0
 74 80  1  0  0  0
 74146  1  0  0  0
 75 81  1  0  0  0
 75147  1  0  0  0
 76148  1  0  0  0
 76149  1  0  0  0
 77 78  1  0  0  0
 77 79  1  0  0  0
 77150  1  0  0  0
 77151  1  0  0  0
 78 81  1  0  0  0
 78152  1  0  0  0
 78153  1  0  0  0
 79154  1  0  0  0
 80155  1  0  0  0
 80156  1  0  0  0
 80157  1  0  0  0
 81158  1  0  0  0
 81159  1  0  0  0
M  CHG  2  80   1  81   1
M  ISO  4   1 100  68 101  76 101  79 100
M  END
> <chiral flag>
0

> <version>
0

> <s_m_source_file>
/data/baiqing/PycharmProjects/Reinvent-master-3.2/result/LINK_invent/BTK/process_docking_weight1_custom_sum_contain_oxygen_bond_distance_aromatic_linkinvent_7_9_3/rearranged_h_0120.sdf

> <i_m_source_file_index>
69

> <r_mmod_Potential_Energy-OPLS-2005>
142.121688842773

> <r_mmod_Stretch_Energy-OPLS-2005>
276.445922851562

> <r_mmod_Bend_Energy-OPLS-2005>
290.155853271484

> <r_mmod_Torsional_Energy-OPLS-2005>
292.760070800781

> <r_mmod_Improper_Torsional_Energy-OPLS-2005>
4.3351411819458

> <r_mmod_Van_der_Waal_Energy-OPLS-2005>
111.529396057129

> <r_mmod_Electrostatic_Energy-OPLS-2005>
71.2894134521484

> <r_mmod_Solvation_Energy-OPLS-2005>
-1092.17028808594

> <b_mmod_Minimization_Converged-OPLS-2005>
0

> <r_mmod_RMS_Derivative-OPLS-2005>
4.1581883430481

$$$$
69
                    3D
 Structure written by MMmdl.
173182  0  0  1  0            999 V2000
  -30.5880  -14.7677   20.4611 C   0  0  0  0  0  0
  -30.4391  -12.4703   19.4705 C   0  0  0  0  0  0
  -29.5138  -12.5146   18.2342 C   0  0  0  0  0  0
  -28.0401  -12.3314   18.6462 C   0  0  0  0  0  0
  -27.6422  -13.2301   19.8471 C   0  0  2  0  0  0
  -28.6864  -13.1624   20.9826 C   0  0  0  0  0  0
  -25.2520  -13.8192   20.5664 C   0  0  0  0  0  0
  -24.1812  -13.0439   20.9189 C   0  0  0  0  0  0
  -24.6405  -11.6918   20.8726 C   0  0  0  0  0  0
  -23.9079  -10.4299   21.0396 C   0  0  0  0  0  0
  -24.3633   -9.4216   21.9176 C   0  0  0  0  0  0
  -23.6308   -8.2253   22.0757 C   0  0  0  0  0  0
  -22.4290   -8.0285   21.3547 C   0  0  0  0  0  0
  -21.9922   -9.0257   20.4648 C   0  0  0  0  0  0
  -22.7249  -10.2137   20.3050 C   0  0  0  0  0  0
  -21.6859   -6.0738   22.5281 C   0  0  0  0  0  0
  -21.4017   -6.5644   23.8211 C   0  0  0  0  0  0
  -21.3658   -5.6796   24.9174 C   0  0  0  0  0  0
  -21.6045   -4.3058   24.7223 C   0  0  0  0  0  0
  -21.8822   -3.8150   23.4346 C   0  0  0  0  0  0
  -21.9197   -4.6967   22.3402 C   0  0  0  0  0  0
  -22.7837  -13.5220   21.1852 C   0  0  0  0  0  0
  -22.1663   -4.2149   21.0980 F   0  0  0  0  0  0
  -21.5627   -3.4541   25.7735 F   0  0  0  0  0  0
  -29.9859  -13.5279   20.4039 N   0  0  0  0  0  0
  -26.2941  -12.9392   20.3245 N   0  0  0  0  0  0
  -25.9333  -11.6537   20.5725 N   0  0  0  0  0  0
  -22.0492  -12.8212   22.0413 N   0  0  0  0  0  0
  -25.4202  -15.1920   20.4084 N   0  0  0  0  0  0
  -31.7738  -14.8777   20.1351 O   0  0  0  0  0  0
  -21.6653   -6.8882   21.4242 O   0  0  0  0  0  0
  -22.3512  -14.5518   20.6689 O   0  0  0  0  0  0
  -24.6334  -31.8513   23.1968 C   0  0  0  0  0  0
  -25.9152  -32.4733   23.8315 C   0  0  1  0  0  0
  -27.2190  -27.2425   20.1364 C   0  0  0  0  0  0
  -25.5938  -33.8537   24.2233 N   0  0  0  0  0  0
  -23.4309  -30.4737   21.5396 C   0  0  2  0  0  0
  -24.8790  -28.9168   20.1107 C   0  0  0  0  0  0
  -22.7500  -29.4582   22.4893 C   0  0  0  0  0  0
  -18.0290  -28.1385   22.8478 C   0  0  0  0  0  0
  -24.1490  -36.7279   23.2638 C   0  0  0  0  0  0
  -25.9789  -30.7584   21.3806 C   0  0  0  0  0  0
  -26.0518  -29.3797   20.7227 C   0  0  0  0  0  0
  -27.2256  -28.5564   20.7214 C   0  0  0  0  0  0
  -26.0288  -26.8581   19.4825 C   0  0  0  0  0  0
  -24.8739  -27.6645   19.4783 C   0  0  0  0  0  0
  -23.6513  -29.8061   20.1565 C   0  0  0  0  0  0
  -25.4114  -36.3052   24.0320 C   0  0  1  0  0  0
  -20.5895  -28.3695   23.1265 C   0  0  2  0  0  0
  -20.6780  -26.9413   22.5403 C   0  0  0  0  0  0
  -19.5762  -26.6377   21.5204 C   0  0  0  0  0  0
  -18.1939  -26.7928   22.1614 C   0  0  0  0  0  0
  -19.1542  -28.8858   23.2866 C   0  0  0  0  0  0
  -18.9463  -30.1454   23.8891 C   0  0  0  0  0  0
  -17.6464  -30.6590   24.0560 C   0  0  0  0  0  0
  -25.9055  -34.9426   23.5077 C   0  0  0  0  0  0
  -16.5353  -29.9084   23.6338 C   0  0  0  0  0  0
  -16.7273  -28.6497   23.0363 C   0  0  0  0  0  0
  -26.4517  -31.6578   25.0719 C   0  0  0  0  0  0
  -25.3740  -31.3733   26.1440 C   0  0  0  0  0  0
  -27.0370  -30.2989   24.6233 C   0  0  0  0  0  0
  -27.6056  -32.4334   25.7501 C   0  0  0  0  0  0
  -27.5577  -37.1792   24.8461 C   0  0  0  0  0  0
  -21.4203  -29.3038   22.3644 N   0  0  0  0  0  0
  -26.4286  -37.3755   23.9409 N   0  0  0  0  0  0
  -24.7003  -31.0463   22.0951 N   0  0  0  0  0  0
  -23.4191  -28.8120   23.3001 O   0  0  0  0  0  0
  -28.3070  -26.3346   20.1706 O   0  0  0  0  0  0
  -26.5622  -34.8911   22.4645 O   0  0  0  0  0  0
  -23.5482  -32.1338   23.7255 O   0  0  0  0  0  0
  -28.7623  -18.3837   17.3409 C   0  0  0  0  0  0
  -29.0990  -17.4980   18.3729 C   0  0  0  0  0  0
  -28.8581  -19.6544   17.8188 C   0  0  0  0  0  0
  -29.4107  -18.2103   19.4967 C   0  0  0  0  0  0
  -30.5434  -21.7712   19.8967 C   0  0  0  0  0  0
  -30.2209  -23.2403   20.3478 C   0  0  0  0  0  0
  -28.1719  -22.1399   19.9254 C   0  0  0  0  0  0
  -29.2536  -20.9358   20.0566 C   0  0  1  0  0  0
  -28.8293  -23.6202   19.7819 C   0  0  2  0  0  0
  -28.9994  -24.0802   18.3152 C   0  0  0  0  0  0
  -27.3287  -20.8962   16.2417 C   0  0  0  0  0  0
  -29.8383  -20.9792   15.9269 C   0  0  0  0  0  0
  -31.3889  -17.8165   21.0690 C   0  0  0  0  0  0
  -28.0589  -24.8739   20.4996 C   0  0  0  0  0  0
  -28.6945  -20.8588   16.9435 C   0  0  0  0  0  0
  -29.9463  -17.4125   20.7342 C   0  0  2  0  0  0
  -29.1640  -19.6367   19.2027 N   0  0  0  0  0  0
  -29.7779  -15.8722   20.7071 N   0  0  0  0  0  0
  -31.4765  -12.6106   19.1635 H   0  0  0  0  0  0
  -30.3988  -11.4923   19.9529 H   0  0  0  0  0  0
  -29.8027  -11.7446   17.5175 H   0  0  0  0  0  0
  -29.6345  -13.4696   17.7204 H   0  0  0  0  0  0
  -27.9013  -11.2821   18.9089 H   0  0  0  0  0  0
  -27.3843  -12.5211   17.7960 H   0  0  0  0  0  0
  -27.6348  -14.2518   19.4663 H   0  0  0  0  0  0
  -28.7285  -12.1620   21.4158 H   0  0  0  0  0  0
  -28.4148  -13.8354   21.7974 H   0  0  0  0  0  0
  -25.2783   -9.5692   22.4742 H   0  0  0  0  0  0
  -24.0017   -7.4651   22.7487 H   0  0  0  0  0  0
  -21.0847   -8.8776   19.8964 H   0  0  0  0  0  0
  -22.3707  -10.9672   19.6154 H   0  0  0  0  0  0
  -21.2009   -7.6153   23.9707 H   0  0  0  0  0  0
  -21.1474   -6.0530   25.9073 H   0  0  0  0  0  0
  -22.0601   -2.7612   23.2848 H   0  0  0  0  0  0
  -22.4126  -11.9881   22.4800 H   0  0  0  0  0  0
  -21.1106  -13.1223   22.2614 H   0  0  0  0  0  0
  -24.6471  -15.8403   20.5130 H   0  0  0  0  0  0
  -26.2566  -15.6343   20.0496 H   0  0  0  0  0  0
  -26.7211  -32.5366   23.1047 H   0  0  0  0  0  0
  -25.0109  -33.9668   25.0395 H   0  0  0  0  0  0
  -22.7290  -31.2965   21.3902 H   0  0  0  0  0  0
  -23.3749  -35.9617   23.3291 H   0  0  0  0  0  0
  -24.3579  -36.8912   22.2053 H   0  0  0  0  0  0
  -23.7253  -37.6478   23.6676 H   0  0  0  0  0  0
  -26.1222  -31.5179   20.6110 H   0  0  0  0  0  0
  -26.8546  -30.8059   22.0165 H   0  0  0  0  0  0
  -28.1233  -28.9034   21.2136 H   0  0  0  0  0  0
  -25.9760  -25.9073   18.9718 H   0  0  0  0  0  0
  -23.9805  -27.3073   18.9843 H   0  0  0  0  0  0
  -23.7791  -30.5810   19.3998 H   0  0  0  0  0  0
  -22.7694  -29.2402   19.8504 H   0  0  0  0  0  0
  -25.1302  -36.1882   25.0814 H   0  0  0  0  0  0
  -20.9988  -28.3272   24.1387 H   0  0  0  0  0  0
  -20.5674  -26.2298   23.3599 H   0  0  0  0  0  0
  -21.6650  -26.7434   22.1204 H   0  0  0  0  0  0
  -19.6926  -25.6280   21.1247 H   0  0  0  0  0  0
  -19.6720  -27.3177   20.6727 H   0  0  0  0  0  0
  -17.4208  -26.6667   21.4018 H   0  0  0  0  0  0
  -18.0353  -26.0069   22.9013 H   0  0  0  0  0  0
  -19.7937  -30.7265   24.2270 H   0  0  0  0  0  0
  -17.5020  -31.6278   24.5147 H   0  0  0  0  0  0
  -15.5355  -30.2989   23.7668 H   0  0  0  0  0  0
  -15.8667  -28.0808   22.7109 H   0  0  0  0  0  0
  -24.5920  -30.7074   25.7777 H   0  0  0  0  0  0
  -24.8934  -32.2905   26.4852 H   0  0  0  0  0  0
  -25.8068  -30.8921   27.0220 H   0  0  0  0  0  0
  -26.2959  -29.6722   24.1257 H   0  0  0  0  0  0
  -27.4032  -29.7274   25.4770 H   0  0  0  0  0  0
  -27.8852  -30.4247   23.9499 H   0  0  0  0  0  0
  -27.2648  -33.3639   26.2057 H   0  0  0  0  0  0
  -28.3893  -32.6884   25.0356 H   0  0  0  0  0  0
  -28.0701  -31.8469   26.5437 H   0  0  0  0  0  0
  -28.2582  -38.0099   24.7506 H   0  0  0  0  0  0
  -28.1084  -36.2626   24.6289 H   0  0  0  0  0  0
  -27.2291  -37.1441   25.8862 H   0  0  0  0  0  0
  -20.9377  -29.8757   21.6853 H   0  0  0  0  0  0
  -26.0154  -38.2822   24.1418 H   0  0  0  0  0  0
  -28.5175  -18.1181   16.3211 H   0  0  0  0  0  0
  -29.1552  -16.4230   18.2732 H   0  0  0  0  0  0
  -31.3692  -21.3449   20.4664 H   0  0  0  0  0  0
  -30.8562  -21.7701   18.8530 H   0  0  0  0  0  0
  -30.9984  -23.9398   20.0382 H   0  0  0  0  0  0
  -30.1875  -23.2740   21.4377 H   0  0  0  0  0  0
  -27.5993  -22.1353   20.8543 H   0  0  0  0  0  0
  -27.4127  -21.9531   19.1669 H   0  0  0  0  0  0
  -29.2188  -20.6034   21.0949 H   0  0  0  0  0  0
  -29.7662  -23.5281   17.7748 H   0  0  0  0  0  0
  -29.3258  -25.1188   18.2616 H   0  0  0  0  0  0
  -28.0611  -24.0165   17.7641 H   0  0  0  0  0  0
  -26.5165  -20.8719   16.9684 H   0  0  0  0  0  0
  -27.1974  -20.0507   15.5660 H   0  0  0  0  0  0
  -27.2162  -21.8080   15.6546 H   0  0  0  0  0  0
  -30.8031  -21.0247   16.4328 H   0  0  0  0  0  0
  -29.7397  -21.8866   15.3307 H   0  0  0  0  0  0
  -29.8602  -20.1313   15.2420 H   0  0  0  0  0  0
  -31.4595  -18.8871   21.2626 H   0  0  0  0  0  0
  -32.0639  -17.5886   20.2445 H   0  0  0  0  0  0
  -31.7538  -17.2968   21.9550 H   0  0  0  0  0  0
  -28.2329  -24.7853   21.5721 H   0  0  0  0  0  0
  -26.9956  -24.6599   20.4073 H   0  0  0  0  0  0
  -28.7549  -21.7396   17.5400 H   0  0  0  0  0  0
  -29.3408  -17.7282   21.5849 H   0  0  0  0  0  0
  -28.8316  -15.5971   20.9191 H   0  0  0  0  0  0
  1 25  1  0  0  0
  1 30  2  0  0  0
  1 88  1  0  0  0
  2  3  1  0  0  0
  2 25  1  0  0  0
  2 89  1  0  0  0
  2 90  1  0  0  0
  3  4  1  0  0  0
  3 91  1  0  0  0
  3 92  1  0  0  0
  4  5  1  0  0  0
  4 93  1  0  0  0
  4 94  1  0  0  0
  5  6  1  0  0  0
  5 26  1  0  0  0
  5 95  1  0  0  0
  6 25  1  0  0  0
  6 96  1  0  0  0
  6 97  1  0  0  0
  7  8  2  0  0  0
  7 26  1  0  0  0
  7 29  1  0  0  0
  8  9  1  0  0  0
  8 22  1  0  0  0
  9 10  1  0  0  0
  9 27  2  0  0  0
 10 11  2  0  0  0
 10 15  1  0  0  0
 11 12  1  0  0  0
 11 98  1  0  0  0
 12 13  2  0  0  0
 12 99  1  0  0  0
 13 14  1  0  0  0
 13 31  1  0  0  0
 14 15  2  0  0  0
 14100  1  0  0  0
 15101  1  0  0  0
 16 17  2  0  0  0
 16 21  1  0  0  0
 16 31  1  0  0  0
 17 18  1  0  0  0
 17102  1  0  0  0
 18 19  2  0  0  0
 18103  1  0  0  0
 19 20  1  0  0  0
 19 24  1  0  0  0
 20 21  2  0  0  0
 20104  1  0  0  0
 21 23  1  0  0  0
 22 28  1  0  0  0
 22 32  2  0  0  0
 26 27  1  0  0  0
 28105  1  0  0  0
 28106  1  0  0  0
 29107  1  0  0  0
 29108  1  0  0  0
 33 34  1  0  0  0
 33 66  1  0  0  0
 33 70  2  0  0  0
 34 36  1  0  0  0
 34 59  1  0  0  0
 34109  1  0  0  0
 35 44  2  0  0  0
 35 45  1  0  0  0
 35 68  1  0  0  0
 36 56  1  0  0  0
 36110  1  0  0  0
 37 39  1  0  0  0
 37 47  1  0  0  0
 37 66  1  0  0  0
 37111  1  0  0  0
 38 43  2  0  0  0
 38 46  1  0  0  0
 38 47  1  0  0  0
 39 64  1  0  0  0
 39 67  2  0  0  0
 40 52  1  0  0  0
 40 53  2  0  0  0
 40 58  1  0  0  0
 41112  1  0  0  0
 41113  1  0  0  0
 41114  1  0  0  0
 41 48  1  0  0  0
 42 43  1  0  0  0
 42 66  1  0  0  0
 42115  1  0  0  0
 42116  1  0  0  0
 43 44  1  0  0  0
 44117  1  0  0  0
 45 46  2  0  0  0
 45118  1  0  0  0
 46119  1  0  0  0
 47120  1  0  0  0
 47121  1  0  0  0
 48 56  1  0  0  0
 48 65  1  0  0  0
 48122  1  0  0  0
 49 50  1  0  0  0
 49 53  1  0  0  0
 49 64  1  0  0  0
 49123  1  0  0  0
 50 51  1  0  0  0
 50124  1  0  0  0
 50125  1  0  0  0
 51 52  1  0  0  0
 51126  1  0  0  0
 51127  1  0  0  0
 52128  1  0  0  0
 52129  1  0  0  0
 53 54  1  0  0  0
 54 55  2  0  0  0
 54130  1  0  0  0
 55 57  1  0  0  0
 55131  1  0  0  0
 56 69  2  0  0  0
 57 58  2  0  0  0
 57132  1  0  0  0
 58133  1  0  0  0
 59 60  1  0  0  0
 59 61  1  0  0  0
 59 62  1  0  0  0
 60134  1  0  0  0
 60135  1  0  0  0
 60136  1  0  0  0
 61137  1  0  0  0
 61138  1  0  0  0
 61139  1  0  0  0
 62140  1  0  0  0
 62141  1  0  0  0
 62142  1  0  0  0
 63 65  1  0  0  0
 63143  1  0  0  0
 63144  1  0  0  0
 63145  1  0  0  0
 64146  1  0  0  0
 65147  1  0  0  0
 68 84  1  0  0  0
 71 72  1  0  0  0
 71 73  2  0  0  0
 71148  1  0  0  0
 72 74  2  0  0  0
 72149  1  0  0  0
 73 85  1  0  0  0
 73 87  1  0  0  0
 74 86  1  0  0  0
 74 87  1  0  0  0
 75 76  1  0  0  0
 75 78  1  0  0  0
 75150  1  0  0  0
 75151  1  0  0  0
 76 79  1  0  0  0
 76152  1  0  0  0
 76153  1  0  0  0
 77 78  1  0  0  0
 77 79  1  0  0  0
 77154  1  0  0  0
 77155  1  0  0  0
 78 87  1  0  0  0
 78156  1  0  0  0
 79 80  1  0  0  0
 79 84  1  0  0  0
 80157  1  0  0  0
 80158  1  0  0  0
 80159  1  0  0  0
 81160  1  0  0  0
 81161  1  0  0  0
 81162  1  0  0  0
 81 85  1  0  0  0
 82 85  1  0  0  0
 82163  1  0  0  0
 82164  1  0  0  0
 82165  1  0  0  0
 83166  1  0  0  0
 83167  1  0  0  0
 83168  1  0  0  0
 83 86  1  0  0  0
 84169  1  0  0  0
 84170  1  0  0  0
 85171  1  0  0  0
 86 88  1  0  0  0
 86172  1  0  0  0
 88173  1  0  0  0
M  ISO  4   1 100  68 101  84 101  88 100
M  END
> <chiral flag>
0

> <version>
0

> <s_m_source_file>
/data/baiqing/PycharmProjects/Reinvent-master-3.2/result/LINK_invent/BTK/process_docking_weight1_custom_sum_contain_oxygen_bond_distance_aromatic_linkinvent_7_9_3/rearranged_h_0120.sdf

> <i_m_source_file_index>
70

> <r_mmod_Potential_Energy-OPLS-2005>
305.722747802734

> <r_mmod_Stretch_Energy-OPLS-2005>
163.623413085938

> <r_mmod_Bend_Energy-OPLS-2005>
258.791229248047

> <r_mmod_Torsional_Energy-OPLS-2005>
306.96435546875

> <r_mmod_Improper_Torsional_Energy-OPLS-2005>
4.31521320343018

> <r_mmod_Van_der_Waal_Energy-OPLS-2005>
116.148918151855

> <r_mmod_Electrostatic_Energy-OPLS-2005>
-440.656127929688

> <r_mmod_Solvation_Energy-OPLS-2005>
-198.670700073242

> <b_mmod_Minimization_Converged-OPLS-2005>
0

> <r_mmod_RMS_Derivative-OPLS-2005>
1.0662659406662

$$$$
70
                    3D
 Structure written by MMmdl.
166175  0  0  1  0            999 V2000
  -30.7394  -14.4004   20.6609 C   0  0  0  0  0  0
  -30.4185  -12.3021   19.3959 C   0  0  0  0  0  0
  -29.4830  -12.5184   18.1914 C   0  0  0  0  0  0
  -28.0070  -12.3758   18.6097 C   0  0  0  0  0  0
  -27.6630  -13.2023   19.8767 C   0  0  2  0  0  0
  -28.7011  -12.9487   20.9902 C   0  0  0  0  0  0
  -25.2599  -13.8161   20.5679 C   0  0  0  0  0  0
  -24.1843  -13.0442   20.9169 C   0  0  0  0  0  0
  -24.6385  -11.6906   20.8729 C   0  0  0  0  0  0
  -23.9052  -10.4294   21.0400 C   0  0  0  0  0  0
  -24.3604   -9.4212   21.9181 C   0  0  0  0  0  0
  -23.6285   -8.2247   22.0753 C   0  0  0  0  0  0
  -22.4272   -8.0279   21.3539 C   0  0  0  0  0  0
  -21.9904   -9.0253   20.4641 C   0  0  0  0  0  0
  -22.7226  -10.2134   20.3053 C   0  0  0  0  0  0
  -21.6851   -6.0738   22.5280 C   0  0  0  0  0  0
  -21.4007   -6.5641   23.8215 C   0  0  0  0  0  0
  -21.3659   -5.6795   24.9177 C   0  0  0  0  0  0
  -21.6047   -4.3059   24.7224 C   0  0  0  0  0  0
  -21.8822   -3.8149   23.4346 C   0  0  0  0  0  0
  -21.9191   -4.6964   22.3402 C   0  0  0  0  0  0
  -22.7868  -13.5240   21.1839 C   0  0  0  0  0  0
  -22.1666   -4.2153   21.0978 F   0  0  0  0  0  0
  -21.5627   -3.4540   25.7733 F   0  0  0  0  0  0
  -30.0367  -13.2567   20.4475 N   0  0  0  0  0  0
  -26.3027  -12.9319   20.3365 N   0  0  0  0  0  0
  -25.9305  -11.6481   20.5745 N   0  0  0  0  0  0
  -22.0507  -12.8234   22.0391 N   0  0  0  0  0  0
  -25.4347  -15.1875   20.4110 N   0  0  0  0  0  0
  -31.8000  -14.6566   20.0832 O   0  0  0  0  0  0
  -21.6636   -6.8875   21.4239 O   0  0  0  0  0  0
  -22.3555  -14.5549   20.6688 O   0  0  0  0  0  0
  -24.6128  -31.8674   23.2100 C   0  0  0  0  0  0
  -25.9027  -32.4815   23.8392 C   0  0  1  0  0  0
  -27.2437  -27.4487   20.0758 C   0  0  0  0  0  0
  -25.5890  -33.8611   24.2323 N   0  0  0  0  0  0
  -23.4010  -30.4891   21.5507 C   0  0  2  0  0  0
  -24.8477  -28.9540   20.1124 C   0  0  0  0  0  0
  -22.7410  -29.4640   22.5000 C   0  0  0  0  0  0
  -18.0264  -28.1380   22.8492 C   0  0  0  0  0  0
  -24.1488  -36.7314   23.2646 C   0  0  0  0  0  0
  -25.9280  -30.8325   21.3633 C   0  0  0  0  0  0
  -26.0043  -29.4663   20.7124 C   0  0  0  0  0  0
  -27.1989  -28.7136   20.7041 C   0  0  0  0  0  0
  -26.0645  -26.9389   19.4872 C   0  0  0  0  0  0
  -24.8705  -27.6863   19.5036 C   0  0  0  0  0  0
  -23.6082  -29.8195   20.1651 C   0  0  0  0  0  0
  -25.4104  -36.3102   24.0348 C   0  0  1  0  0  0
  -20.5856  -28.3652   23.1334 C   0  0  2  0  0  0
  -20.6753  -26.9389   22.5430 C   0  0  0  0  0  0
  -19.5742  -26.6381   21.5215 C   0  0  0  0  0  0
  -18.1912  -26.7934   22.1611 C   0  0  0  0  0  0
  -19.1514  -28.8834   23.2904 C   0  0  0  0  0  0
  -18.9440  -30.1445   23.8909 C   0  0  0  0  0  0
  -17.6445  -30.6588   24.0566 C   0  0  0  0  0  0
  -25.9029  -34.9468   23.5132 C   0  0  0  0  0  0
  -16.5334  -29.9090   23.6324 C   0  0  0  0  0  0
  -16.7254  -28.6511   23.0341 C   0  0  0  0  0  0
  -26.4458  -31.6598   25.0719 C   0  0  0  0  0  0
  -25.3733  -31.3712   26.1480 C   0  0  0  0  0  0
  -27.0270  -30.3036   24.6083 C   0  0  0  0  0  0
  -27.6047  -32.4314   25.7466 C   0  0  0  0  0  0
  -27.5582  -37.1809   24.8467 C   0  0  0  0  0  0
  -21.4137  -29.3015   22.3743 N   0  0  0  0  0  0
  -26.4293  -37.3781   23.9412 N   0  0  0  0  0  0
  -24.6651  -31.0783   22.0995 N   0  0  0  0  0  0
  -23.4191  -28.8191   23.3041 O   0  0  0  0  0  0
  -28.4264  -26.7411   20.0965 O   0  0  0  0  0  0
  -26.5588  -34.8921   22.4690 O   0  0  0  0  0  0
  -23.5324  -32.1428   23.7499 O   0  0  0  0  0  0
  -30.4907  -19.7623   20.2987 C   0  0  0  0  0  0
  -30.8781  -18.4446   20.6214 C   0  0  0  0  0  0
  -28.8536  -19.7116   22.0909 C   0  0  0  0  0  0
  -29.5066  -20.4284   21.0635 C   0  0  0  0  0  0
  -30.2840  -17.7600   21.7027 C   0  0  0  0  0  0
  -29.2250  -18.3848   22.4099 C   0  0  0  0  0  0
  -28.1883  -22.1221   19.6543 C   0  0  0  0  0  0
  -30.4167  -22.8006   20.6591 C   0  0  0  0  0  0
  -27.8256  -23.6150   19.4765 C   0  0  0  0  0  0
  -30.0522  -24.2860   20.4574 C   0  0  0  0  0  0
  -29.1648  -21.9069   20.8285 C   0  0  2  0  0  0
  -29.0851  -24.4787   19.2716 C   0  0  2  0  0  0
  -28.4981  -17.6716   23.5386 C   0  0  0  0  0  0
  -30.8645  -16.4116   22.1343 C   0  0  0  0  0  0
  -28.7947  -25.9669   18.9503 C   0  0  0  0  0  0
  -30.2082  -15.2370   21.5629 N   0  0  0  0  0  0
  -31.4598  -12.4124   19.0877 H   0  0  0  0  0  0
  -30.3285  -11.2819   19.7723 H   0  0  0  0  0  0
  -29.7164  -11.8047   17.4004 H   0  0  0  0  0  0
  -29.6506  -13.5100   17.7685 H   0  0  0  0  0  0
  -27.8138  -11.3182   18.7929 H   0  0  0  0  0  0
  -27.3535  -12.6639   17.7856 H   0  0  0  0  0  0
  -27.7204  -14.2555   19.5995 H   0  0  0  0  0  0
  -28.6727  -11.9032   21.3013 H   0  0  0  0  0  0
  -28.4474  -13.5171   21.8850 H   0  0  0  0  0  0
  -25.2747   -9.5696   22.4756 H   0  0  0  0  0  0
  -23.9996   -7.4644   22.7477 H   0  0  0  0  0  0
  -21.0837   -8.8770   19.8944 H   0  0  0  0  0  0
  -22.3681  -10.9676   19.6163 H   0  0  0  0  0  0
  -21.2000   -7.6150   23.9714 H   0  0  0  0  0  0
  -21.1480   -6.0525   25.9078 H   0  0  0  0  0  0
  -22.0601   -2.7615   23.2844 H   0  0  0  0  0  0
  -22.4110  -11.9880   22.4766 H   0  0  0  0  0  0
  -21.1128  -13.1263   22.2598 H   0  0  0  0  0  0
  -24.6738  -15.8486   20.5253 H   0  0  0  0  0  0
  -26.2995  -15.6262   20.1176 H   0  0  0  0  0  0
  -26.7104  -32.5524   23.1162 H   0  0  0  0  0  0
  -25.0035  -33.9770   25.0465 H   0  0  0  0  0  0
  -22.6871  -31.3038   21.4122 H   0  0  0  0  0  0
  -23.3765  -35.9630   23.3267 H   0  0  0  0  0  0
  -24.3592  -36.8964   22.2069 H   0  0  0  0  0  0
  -23.7223  -37.6497   23.6689 H   0  0  0  0  0  0
  -26.0403  -31.5979   20.5940 H   0  0  0  0  0  0
  -26.8164  -30.8857   21.9805 H   0  0  0  0  0  0
  -28.0927  -29.1048   21.1705 H   0  0  0  0  0  0
  -26.0531  -25.9617   19.0273 H   0  0  0  0  0  0
  -23.9777  -27.2800   19.0490 H   0  0  0  0  0  0
  -23.7136  -30.5942   19.4045 H   0  0  0  0  0  0
  -22.7322  -29.2375   19.8727 H   0  0  0  0  0  0
  -25.1279  -36.1961   25.0841 H   0  0  0  0  0  0
  -20.9937  -28.3214   24.1460 H   0  0  0  0  0  0
  -20.5646  -26.2249   23.3609 H   0  0  0  0  0  0
  -21.6627  -26.7432   22.1233 H   0  0  0  0  0  0
  -19.6903  -25.6298   21.1224 H   0  0  0  0  0  0
  -19.6696  -27.3197   20.6753 H   0  0  0  0  0  0
  -17.4197  -26.6704   21.3994 H   0  0  0  0  0  0
  -18.0285  -26.0066   22.8990 H   0  0  0  0  0  0
  -19.7918  -30.7254   24.2287 H   0  0  0  0  0  0
  -17.5004  -31.6264   24.5176 H   0  0  0  0  0  0
  -15.5336  -30.2993   23.7652 H   0  0  0  0  0  0
  -15.8656  -28.0835   22.7045 H   0  0  0  0  0  0
  -24.5877  -30.7090   25.7825 H   0  0  0  0  0  0
  -24.8969  -32.2876   26.4975 H   0  0  0  0  0  0
  -25.8097  -30.8842   27.0209 H   0  0  0  0  0  0
  -26.2785  -29.6800   24.1178 H   0  0  0  0  0  0
  -27.4077  -29.7268   25.4522 H   0  0  0  0  0  0
  -27.8617  -30.4352   23.9191 H   0  0  0  0  0  0
  -27.2697  -33.3646   26.2008 H   0  0  0  0  0  0
  -28.3869  -32.6809   25.0286 H   0  0  0  0  0  0
  -28.0692  -31.8449   26.5399 H   0  0  0  0  0  0
  -28.2607  -38.0098   24.7498 H   0  0  0  0  0  0
  -28.1062  -36.2625   24.6306 H   0  0  0  0  0  0
  -27.2302  -37.1491   25.8870 H   0  0  0  0  0  0
  -20.9300  -29.8739   21.6966 H   0  0  0  0  0  0
  -26.0181  -38.2862   24.1393 H   0  0  0  0  0  0
  -30.9882  -20.2669   19.4826 H   0  0  0  0  0  0
  -31.6707  -17.9715   20.0567 H   0  0  0  0  0  0
  -28.0762  -20.1983   22.6645 H   0  0  0  0  0  0
  -28.6318  -21.7406   18.7333 H   0  0  0  0  0  0
  -27.2774  -21.5445   19.8178 H   0  0  0  0  0  0
  -31.0635  -22.6997   21.5317 H   0  0  0  0  0  0
  -31.0070  -22.4729   19.8037 H   0  0  0  0  0  0
  -27.2734  -23.9704   20.3478 H   0  0  0  0  0  0
  -27.1580  -23.7251   18.6210 H   0  0  0  0  0  0
  -30.9617  -24.8645   20.2912 H   0  0  0  0  0  0
  -29.6015  -24.6787   21.3702 H   0  0  0  0  0  0
  -28.6587  -22.2559   21.7302 H   0  0  0  0  0  0
  -29.5836  -24.0847   18.3844 H   0  0  0  0  0  0
  -27.5623  -18.1746   23.7856 H   0  0  0  0  0  0
  -29.1133  -17.6456   24.4381 H   0  0  0  0  0  0
  -28.2491  -16.6477   23.2591 H   0  0  0  0  0  0
  -30.8139  -16.3267   23.2200 H   0  0  0  0  0  0
  -31.9342  -16.4045   21.9151 H   0  0  0  0  0  0
  -28.0933  -26.0519   18.1199 H   0  0  0  0  0  0
  -29.7149  -26.4165   18.5748 H   0  0  0  0  0  0
  -29.3288  -14.9599   21.9701 H   0  0  0  0  0  0
  1 25  1  0  0  0
  1 30  2  0  0  0
  1 86  1  0  0  0
  2  3  1  0  0  0
  2 25  1  0  0  0
  2 87  1  0  0  0
  2 88  1  0  0  0
  3  4  1  0  0  0
  3 89  1  0  0  0
  3 90  1  0  0  0
  4  5  1  0  0  0
  4 91  1  0  0  0
  4 92  1  0  0  0
  5  6  1  0  0  0
  5 26  1  0  0  0
  5 93  1  0  0  0
  6 25  1  0  0  0
  6 94  1  0  0  0
  6 95  1  0  0  0
  7  8  2  0  0  0
  7 26  1  0  0  0
  7 29  1  0  0  0
  8  9  1  0  0  0
  8 22  1  0  0  0
  9 10  1  0  0  0
  9 27  2  0  0  0
 10 11  2  0  0  0
 10 15  1  0  0  0
 11 12  1  0  0  0
 11 96  1  0  0  0
 12 13  2  0  0  0
 12 97  1  0  0  0
 13 14  1  0  0  0
 13 31  1  0  0  0
 14 15  2  0  0  0
 14 98  1  0  0  0
 15 99  1  0  0  0
 16 17  2  0  0  0
 16 21  1  0  0  0
 16 31  1  0  0  0
 17 18  1  0  0  0
 17100  1  0  0  0
 18 19  2  0  0  0
 18101  1  0  0  0
 19 20  1  0  0  0
 19 24  1  0  0  0
 20 21  2  0  0  0
 20102  1  0  0  0
 21 23  1  0  0  0
 22 28  1  0  0  0
 22 32  2  0  0  0
 26 27  1  0  0  0
 28103  1  0  0  0
 28104  1  0  0  0
 29105  1  0  0  0
 29106  1  0  0  0
 33 34  1  0  0  0
 33 66  1  0  0  0
 33 70  2  0  0  0
 34 36  1  0  0  0
 34 59  1  0  0  0
 34107  1  0  0  0
 35 44  2  0  0  0
 35 45  1  0  0  0
 35 68  1  0  0  0
 36 56  1  0  0  0
 36108  1  0  0  0
 37 39  1  0  0  0
 37 47  1  0  0  0
 37 66  1  0  0  0
 37109  1  0  0  0
 38 43  2  0  0  0
 38 46  1  0  0  0
 38 47  1  0  0  0
 39 64  1  0  0  0
 39 67  2  0  0  0
 40 52  1  0  0  0
 40 53  2  0  0  0
 40 58  1  0  0  0
 41110  1  0  0  0
 41111  1  0  0  0
 41112  1  0  0  0
 41 48  1  0  0  0
 42 43  1  0  0  0
 42 66  1  0  0  0
 42113  1  0  0  0
 42114  1  0  0  0
 43 44  1  0  0  0
 44115  1  0  0  0
 45 46  2  0  0  0
 45116  1  0  0  0
 46117  1  0  0  0
 47118  1  0  0  0
 47119  1  0  0  0
 48 56  1  0  0  0
 48 65  1  0  0  0
 48120  1  0  0  0
 49 50  1  0  0  0
 49 53  1  0  0  0
 49 64  1  0  0  0
 49121  1  0  0  0
 50 51  1  0  0  0
 50122  1  0  0  0
 50123  1  0  0  0
 51 52  1  0  0  0
 51124  1  0  0  0
 51125  1  0  0  0
 52126  1  0  0  0
 52127  1  0  0  0
 53 54  1  0  0  0
 54 55  2  0  0  0
 54128  1  0  0  0
 55 57  1  0  0  0
 55129  1  0  0  0
 56 69  2  0  0  0
 57 58  2  0  0  0
 57130  1  0  0  0
 58131  1  0  0  0
 59 60  1  0  0  0
 59 61  1  0  0  0
 59 62  1  0  0  0
 60132  1  0  0  0
 60133  1  0  0  0
 60134  1  0  0  0
 61135  1  0  0  0
 61136  1  0  0  0
 61137  1  0  0  0
 62138  1  0  0  0
 62139  1  0  0  0
 62140  1  0  0  0
 63 65  1  0  0  0
 63141  1  0  0  0
 63142  1  0  0  0
 63143  1  0  0  0
 64144  1  0  0  0
 65145  1  0  0  0
 68 85  1  0  0  0
 71 72  2  0  0  0
 71 74  1  0  0  0
 71146  1  0  0  0
 72 75  1  0  0  0
 72147  1  0  0  0
 73 74  2  0  0  0
 73 76  1  0  0  0
 73148  1  0  0  0
 74 81  1  0  0  0
 75 76  2  0  0  0
 75 84  1  0  0  0
 76 83  1  0  0  0
 77 79  1  0  0  0
 77 81  1  0  0  0
 77149  1  0  0  0
 77150  1  0  0  0
 78 80  1  0  0  0
 78 81  1  0  0  0
 78151  1  0  0  0
 78152  1  0  0  0
 79 82  1  0  0  0
 79153  1  0  0  0
 79154  1  0  0  0
 80 82  1  0  0  0
 80155  1  0  0  0
 80156  1  0  0  0
 81157  1  0  0  0
 82 85  1  0  0  0
 82158  1  0  0  0
 83159  1  0  0  0
 83160  1  0  0  0
 83161  1  0  0  0
 84 86  1  0  0  0
 84162  1  0  0  0
 84163  1  0  0  0
 85164  1  0  0  0
 85165  1  0  0  0
 86166  1  0  0  0
M  ISO  4   1 100  68 101  85 101  86 100
M  END
> <chiral flag>
0

> <version>
0

> <s_m_source_file>
/data/baiqing/PycharmProjects/Reinvent-master-3.2/result/LINK_invent/BTK/process_docking_weight1_custom_sum_contain_oxygen_bond_distance_aromatic_linkinvent_7_9_3/rearranged_h_0120.sdf

> <i_m_source_file_index>
71

> <r_mmod_Potential_Energy-OPLS-2005>
-79.7238540649414

> <r_mmod_Stretch_Energy-OPLS-2005>
35.6806983947754

> <r_mmod_Bend_Energy-OPLS-2005>
99.807014465332

> <r_mmod_Torsional_Energy-OPLS-2005>
229.872116088867

> <r_mmod_Improper_Torsional_Energy-OPLS-2005>
2.10669779777527

> <r_mmod_Van_der_Waal_Energy-OPLS-2005>
152.592712402344

> <r_mmod_Electrostatic_Energy-OPLS-2005>
-411.728424072266

> <r_mmod_Solvation_Energy-OPLS-2005>
-196.592269897461

> <b_mmod_Minimization_Converged-OPLS-2005>
0

> <r_mmod_RMS_Derivative-OPLS-2005>
1.04951536655426

$$$$
72
                    3D
 Structure written by MMmdl.
180188  0  0  1  0            999 V2000
  -30.7354  -14.3977   20.6482 C   0  0  0  0  0  0
  -30.4225  -12.3009   19.3883 C   0  0  0  0  0  0
  -29.4841  -12.5314   18.1887 C   0  0  0  0  0  0
  -28.0073  -12.3848   18.6055 C   0  0  0  0  0  0
  -27.6652  -13.2044   19.8780 C   0  0  2  0  0  0
  -28.7053  -12.9365   20.9868 C   0  0  0  0  0  0
  -25.2592  -13.8162   20.5671 C   0  0  0  0  0  0
  -24.1841  -13.0432   20.9165 C   0  0  0  0  0  0
  -24.6393  -11.6902   20.8706 C   0  0  0  0  0  0
  -23.9045  -10.4298   21.0382 C   0  0  0  0  0  0
  -24.3590   -9.4218   21.9167 C   0  0  0  0  0  0
  -23.6275   -8.2250   22.0727 C   0  0  0  0  0  0
  -22.4259   -8.0289   21.3535 C   0  0  0  0  0  0
  -21.9894   -9.0264   20.4638 C   0  0  0  0  0  0
  -22.7214  -10.2137   20.3046 C   0  0  0  0  0  0
  -21.6862   -6.0734   22.5271 C   0  0  0  0  0  0
  -21.4043   -6.5634   23.8212 C   0  0  0  0  0  0
  -21.3649   -5.6776   24.9163 C   0  0  0  0  0  0
  -21.6026   -4.3035   24.7210 C   0  0  0  0  0  0
  -21.8822   -3.8138   23.4330 C   0  0  0  0  0  0
  -21.9199   -4.6963   22.3389 C   0  0  0  0  0  0
  -22.7861  -13.5240   21.1840 C   0  0  0  0  0  0
  -22.1657   -4.2150   21.0966 F   0  0  0  0  0  0
  -21.5603   -3.4514   25.7712 F   0  0  0  0  0  0
  -30.0436  -13.2462   20.4462 N   0  0  0  0  0  0
  -26.3038  -12.9322   20.3360 N   0  0  0  0  0  0
  -25.9314  -11.6485   20.5733 N   0  0  0  0  0  0
  -22.0486  -12.8255   22.0411 N   0  0  0  0  0  0
  -25.4307  -15.1872   20.4096 N   0  0  0  0  0  0
  -31.7985  -14.6639   20.0813 O   0  0  0  0  0  0
  -21.6636   -6.8878   21.4236 O   0  0  0  0  0  0
  -22.3541  -14.5537   20.6670 O   0  0  0  0  0  0
  -24.6130  -31.8706   23.2086 C   0  0  0  0  0  0
  -25.9038  -32.4843   23.8376 C   0  0  1  0  0  0
  -27.2490  -27.4613   20.0827 C   0  0  0  0  0  0
  -25.5895  -33.8631   24.2329 N   0  0  0  0  0  0
  -23.3977  -30.4926   21.5501 C   0  0  2  0  0  0
  -24.8412  -28.9525   20.1215 C   0  0  0  0  0  0
  -22.7395  -29.4688   22.5013 C   0  0  0  0  0  0
  -18.0264  -28.1383   22.8502 C   0  0  0  0  0  0
  -24.1495  -36.7333   23.2626 C   0  0  0  0  0  0
  -25.9193  -30.8477   21.3474 C   0  0  0  0  0  0
  -26.0001  -29.4787   20.7047 C   0  0  0  0  0  0
  -27.2004  -28.7400   20.6799 C   0  0  0  0  0  0
  -26.0654  -26.9351   19.5148 C   0  0  0  0  0  0
  -24.8672  -27.6779   19.5285 C   0  0  0  0  0  0
  -23.6020  -29.8167   20.1677 C   0  0  0  0  0  0
  -25.4104  -36.3122   24.0342 C   0  0  1  0  0  0
  -20.5856  -28.3667   23.1329 C   0  0  2  0  0  0
  -20.6759  -26.9413   22.5412 C   0  0  0  0  0  0
  -19.5736  -26.6397   21.5206 C   0  0  0  0  0  0
  -18.1913  -26.7930   22.1620 C   0  0  0  0  0  0
  -19.1519  -28.8837   23.2906 C   0  0  0  0  0  0
  -18.9446  -30.1437   23.8922 C   0  0  0  0  0  0
  -17.6458  -30.6587   24.0575 C   0  0  0  0  0  0
  -25.9038  -34.9491   23.5130 C   0  0  0  0  0  0
  -16.5348  -29.9101   23.6312 C   0  0  0  0  0  0
  -16.7253  -28.6518   23.0341 C   0  0  0  0  0  0
  -26.4487  -31.6616   25.0690 C   0  0  0  0  0  0
  -25.3782  -31.3716   26.1469 C   0  0  0  0  0  0
  -27.0310  -30.3084   24.5994 C   0  0  0  0  0  0
  -27.6085  -32.4319   25.7433 C   0  0  0  0  0  0
  -27.5586  -37.1789   24.8456 C   0  0  0  0  0  0
  -21.4129  -29.3038   22.3742 N   0  0  0  0  0  0
  -26.4297  -37.3804   23.9411 N   0  0  0  0  0  0
  -24.6628  -31.0844   22.0964 N   0  0  0  0  0  0
  -23.4178  -28.8233   23.3054 O   0  0  0  0  0  0
  -28.4674  -26.8182   20.0607 O   0  0  0  0  0  0
  -26.5594  -34.8945   22.4686 O   0  0  0  0  0  0
  -23.5334  -32.1428   23.7535 O   0  0  0  0  0  0
  -30.5322  -16.6309   23.5039 C   0  0  0  0  0  0
  -29.9879  -17.7824   21.4512 C   0  0  1  0  0  0
  -30.7017  -16.5206   21.9905 C   0  0  2  0  0  0
  -30.0720  -18.7985   22.6280 C   0  0  1  0  0  0
  -29.3822  -20.8592   25.0349 C   0  0  0  0  0  0
  -29.3598  -21.9090   22.7258 C   0  0  0  0  0  0
  -30.6326  -18.3054   20.1426 C   0  0  0  0  0  0
  -28.7027  -19.4439   22.9717 C   0  0  0  0  0  0
  -29.9715  -19.5430   19.4843 C   0  0  0  0  0  0
  -31.0219  -20.5261   18.9237 C   0  0  0  0  0  0
  -30.4944  -21.5896   17.9384 C   0  0  0  0  0  0
  -29.6695  -22.7470   18.5320 C   0  0  0  0  0  0
  -30.4461  -23.6276   19.5296 C   0  0  0  0  0  0
  -30.0529  -25.1192   19.5394 C   0  0  0  0  0  0
  -28.5600  -25.4277   19.7532 C   0  0  0  0  0  0
  -28.7405  -20.8410   23.6379 C   0  0  0  0  0  0
  -30.1616  -15.2461   21.5099 N   0  0  0  0  0  0
  -30.6293  -18.0661   23.7837 N   0  3  0  0  0  0
  -31.4627  -12.4161   19.0772 H   0  0  0  0  0  0
  -30.3349  -11.2763   19.7524 H   0  0  0  0  0  0
  -29.7190  -11.8327   17.3855 H   0  0  0  0  0  0
  -29.6536  -13.5283   17.7774 H   0  0  0  0  0  0
  -27.8171  -11.3262   18.7839 H   0  0  0  0  0  0
  -27.3576  -12.6812   17.7812 H   0  0  0  0  0  0
  -27.7252  -14.2601   19.6104 H   0  0  0  0  0  0
  -28.6751  -11.8856   21.2795 H   0  0  0  0  0  0
  -28.4524  -13.4874   21.8943 H   0  0  0  0  0  0
  -25.2726   -9.5684   22.4748 H   0  0  0  0  0  0
  -23.9979   -7.4627   22.7427 H   0  0  0  0  0  0
  -21.0831   -8.8782   19.8949 H   0  0  0  0  0  0
  -22.3668  -10.9667   19.6153 H   0  0  0  0  0  0
  -21.2083   -7.6150   23.9726 H   0  0  0  0  0  0
  -21.1445   -6.0495   25.9060 H   0  0  0  0  0  0
  -22.0619   -2.7611   23.2814 H   0  0  0  0  0  0
  -22.4065  -11.9927   22.4834 H   0  0  0  0  0  0
  -21.1101  -13.1280   22.2588 H   0  0  0  0  0  0
  -24.6598  -15.8407   20.5049 H   0  0  0  0  0  0
  -26.2858  -15.6292   20.0945 H   0  0  0  0  0  0
  -26.7119  -32.5597   23.1153 H   0  0  0  0  0  0
  -25.0077  -33.9789   25.0496 H   0  0  0  0  0  0
  -22.6846  -31.3076   21.4106 H   0  0  0  0  0  0
  -23.3754  -35.9677   23.3309 H   0  0  0  0  0  0
  -24.3586  -36.8923   22.2032 H   0  0  0  0  0  0
  -23.7253  -37.6542   23.6636 H   0  0  0  0  0  0
  -26.0138  -31.6089   20.5708 H   0  0  0  0  0  0
  -26.8148  -30.9175   21.9536 H   0  0  0  0  0  0
  -28.1003  -29.1534   21.1136 H   0  0  0  0  0  0
  -26.0501  -25.9638   19.0466 H   0  0  0  0  0  0
  -23.9736  -27.2631   19.0823 H   0  0  0  0  0  0
  -23.7065  -30.5868   19.4029 H   0  0  0  0  0  0
  -22.7268  -29.2330   19.8777 H   0  0  0  0  0  0
  -25.1280  -36.1977   25.0841 H   0  0  0  0  0  0
  -20.9946  -28.3229   24.1450 H   0  0  0  0  0  0
  -20.5663  -26.2280   23.3594 H   0  0  0  0  0  0
  -21.6633  -26.7469   22.1202 H   0  0  0  0  0  0
  -19.6907  -25.6312   21.1216 H   0  0  0  0  0  0
  -19.6671  -27.3221   20.6746 H   0  0  0  0  0  0
  -17.4185  -26.6680   21.4017 H   0  0  0  0  0  0
  -18.0326  -26.0061   22.9008 H   0  0  0  0  0  0
  -19.7925  -30.7235   24.2327 H   0  0  0  0  0  0
  -17.5015  -31.6269   24.5173 H   0  0  0  0  0  0
  -15.5354  -30.3014   23.7620 H   0  0  0  0  0  0
  -15.8650  -28.0838   22.7048 H   0  0  0  0  0  0
  -24.5958  -30.7048   25.7823 H   0  0  0  0  0  0
  -24.8980  -32.2875   26.4939 H   0  0  0  0  0  0
  -25.8181  -30.8875   27.0202 H   0  0  0  0  0  0
  -26.2819  -29.6794   24.1183 H   0  0  0  0  0  0
  -27.4256  -29.7340   25.4379 H   0  0  0  0  0  0
  -27.8570  -30.4447   23.9001 H   0  0  0  0  0  0
  -27.2731  -33.3619   26.2038 H   0  0  0  0  0  0
  -28.3870  -32.6887   25.0236 H   0  0  0  0  0  0
  -28.0800  -31.8434   26.5314 H   0  0  0  0  0  0
  -28.2618  -38.0073   24.7523 H   0  0  0  0  0  0
  -28.1071  -36.2606   24.6282 H   0  0  0  0  0  0
  -27.2314  -37.1455   25.8862 H   0  0  0  0  0  0
  -20.9288  -29.8772   21.6971 H   0  0  0  0  0  0
  -26.0198  -38.2895   24.1404 H   0  0  0  0  0  0
  -31.2800  -16.0610   24.0570 H   0  0  0  0  0  0
  -29.5462  -16.2777   23.8116 H   0  0  0  0  0  0
  -28.9442  -17.5320   21.2599 H   0  0  0  0  0  0
  -31.7700  -16.5865   21.7688 H   0  0  0  0  0  0
  -30.7945  -19.5732   22.3731 H   0  0  0  0  0  0
  -29.2679  -21.8399   25.5028 H   0  0  0  0  0  0
  -30.4511  -20.6483   24.9964 H   0  0  0  0  0  0
  -28.9098  -20.1316   25.6960 H   0  0  0  0  0  0
  -29.1954  -22.9093   23.1275 H   0  0  0  0  0  0
  -28.9115  -21.8831   21.7322 H   0  0  0  0  0  0
  -30.4355  -21.7746   22.6145 H   0  0  0  0  0  0
  -30.6479  -17.4946   19.4125 H   0  0  0  0  0  0
  -31.6823  -18.5234   20.3443 H   0  0  0  0  0  0
  -28.1118  -18.7588   23.5815 H   0  0  0  0  0  0
  -28.1262  -19.5494   22.0514 H   0  0  0  0  0  0
  -29.3353  -20.0773   20.1859 H   0  0  0  0  0  0
  -29.3133  -19.2013   18.6840 H   0  0  0  0  0  0
  -31.7692  -19.9452   18.3827 H   0  0  0  0  0  0
  -31.5618  -21.0042   19.7429 H   0  0  0  0  0  0
  -29.9114  -21.0994   17.1567 H   0  0  0  0  0  0
  -31.3541  -22.0212   17.4214 H   0  0  0  0  0  0
  -28.7582  -22.3627   18.9926 H   0  0  0  0  0  0
  -29.3486  -23.3711   17.6976 H   0  0  0  0  0  0
  -31.5118  -23.5744   19.3062 H   0  0  0  0  0  0
  -30.3466  -23.2129   20.5297 H   0  0  0  0  0  0
  -30.3736  -25.5855   18.6064 H   0  0  0  0  0  0
  -30.6328  -25.6062   20.3255 H   0  0  0  0  0  0
  -28.1539  -24.8381   20.5761 H   0  0  0  0  0  0
  -28.0205  -25.1676   18.8442 H   0  0  0  0  0  0
  -27.6982  -21.1348   23.7774 H   0  0  0  0  0  0
  -29.2907  -14.9301   21.9106 H   0  0  0  0  0  0
  -31.6051  -18.3037   23.8749 H   0  0  0  0  0  0
  -30.1650  -18.3009   24.6450 H   0  0  0  0  0  0
  1 25  1  0  0  0
  1 30  2  0  0  0
  1 87  1  0  0  0
  2  3  1  0  0  0
  2 25  1  0  0  0
  2 89  1  0  0  0
  2 90  1  0  0  0
  3  4  1  0  0  0
  3 91  1  0  0  0
  3 92  1  0  0  0
  4  5  1  0  0  0
  4 93  1  0  0  0
  4 94  1  0  0  0
  5  6  1  0  0  0
  5 26  1  0  0  0
  5 95  1  0  0  0
  6 25  1  0  0  0
  6 96  1  0  0  0
  6 97  1  0  0  0
  7  8  2  0  0  0
  7 26  1  0  0  0
  7 29  1  0  0  0
  8  9  1  0  0  0
  8 22  1  0  0  0
  9 10  1  0  0  0
  9 27  2  0  0  0
 10 11  2  0  0  0
 10 15  1  0  0  0
 11 12  1  0  0  0
 11 98  1  0  0  0
 12 13  2  0  0  0
 12 99  1  0  0  0
 13 14  1  0  0  0
 13 31  1  0  0  0
 14 15  2  0  0  0
 14100  1  0  0  0
 15101  1  0  0  0
 16 17  2  0  0  0
 16 21  1  0  0  0
 16 31  1  0  0  0
 17 18  1  0  0  0
 17102  1  0  0  0
 18 19  2  0  0  0
 18103  1  0  0  0
 19 20  1  0  0  0
 19 24  1  0  0  0
 20 21  2  0  0  0
 20104  1  0  0  0
 21 23  1  0  0  0
 22 28  1  0  0  0
 22 32  2  0  0  0
 26 27  1  0  0  0
 28105  1  0  0  0
 28106  1  0  0  0
 29107  1  0  0  0
 29108  1  0  0  0
 33 34  1  0  0  0
 33 66  1  0  0  0
 33 70  2  0  0  0
 34 36  1  0  0  0
 34 59  1  0  0  0
 34109  1  0  0  0
 35 44  2  0  0  0
 35 45  1  0  0  0
 35 68  1  0  0  0
 36 56  1  0  0  0
 36110  1  0  0  0
 37 39  1  0  0  0
 37 47  1  0  0  0
 37 66  1  0  0  0
 37111  1  0  0  0
 38 43  2  0  0  0
 38 46  1  0  0  0
 38 47  1  0  0  0
 39 64  1  0  0  0
 39 67  2  0  0  0
 40 52  1  0  0  0
 40 53  2  0  0  0
 40 58  1  0  0  0
 41112  1  0  0  0
 41113  1  0  0  0
 41114  1  0  0  0
 41 48  1  0  0  0
 42 43  1  0  0  0
 42 66  1  0  0  0
 42115  1  0  0  0
 42116  1  0  0  0
 43 44  1  0  0  0
 44117  1  0  0  0
 45 46  2  0  0  0
 45118  1  0  0  0
 46119  1  0  0  0
 47120  1  0  0  0
 47121  1  0  0  0
 48 56  1  0  0  0
 48 65  1  0  0  0
 48122  1  0  0  0
 49 50  1  0  0  0
 49 53  1  0  0  0
 49 64  1  0  0  0
 49123  1  0  0  0
 50 51  1  0  0  0
 50124  1  0  0  0
 50125  1  0  0  0
 51 52  1  0  0  0
 51126  1  0  0  0
 51127  1  0  0  0
 52128  1  0  0  0
 52129  1  0  0  0
 53 54  1  0  0  0
 54 55  2  0  0  0
 54130  1  0  0  0
 55 57  1  0  0  0
 55131  1  0  0  0
 56 69  2  0  0  0
 57 58  2  0  0  0
 57132  1  0  0  0
 58133  1  0  0  0
 59 60  1  0  0  0
 59 61  1  0  0  0
 59 62  1  0  0  0
 60134  1  0  0  0
 60135  1  0  0  0
 60136  1  0  0  0
 61137  1  0  0  0
 61138  1  0  0  0
 61139  1  0  0  0
 62140  1  0  0  0
 62141  1  0  0  0
 62142  1  0  0  0
 63 65  1  0  0  0
 63143  1  0  0  0
 63144  1  0  0  0
 63145  1  0  0  0
 64146  1  0  0  0
 65147  1  0  0  0
 68 85  1  0  0  0
 71 73  1  0  0  0
 71 88  1  0  0  0
 71148  1  0  0  0
 71149  1  0  0  0
 72 73  1  0  0  0
 72 74  1  0  0  0
 72 77  1  0  0  0
 72150  1  0  0  0
 73 87  1  0  0  0
 73151  1  0  0  0
 74 78  1  0  0  0
 74 88  1  0  0  0
 74152  1  0  0  0
 75153  1  0  0  0
 75154  1  0  0  0
 75155  1  0  0  0
 75 86  1  0  0  0
 76 86  1  0  0  0
 76156  1  0  0  0
 76157  1  0  0  0
 76158  1  0  0  0
 77 79  1  0  0  0
 77159  1  0  0  0
 77160  1  0  0  0
 78 86  1  0  0  0
 78161  1  0  0  0
 78162  1  0  0  0
 79 80  1  0  0  0
 79163  1  0  0  0
 79164  1  0  0  0
 80 81  1  0  0  0
 80165  1  0  0  0
 80166  1  0  0  0
 81 82  1  0  0  0
 81167  1  0  0  0
 81168  1  0  0  0
 82 83  1  0  0  0
 82169  1  0  0  0
 82170  1  0  0  0
 83 84  1  0  0  0
 83171  1  0  0  0
 83172  1  0  0  0
 84 85  1  0  0  0
 84173  1  0  0  0
 84174  1  0  0  0
 85175  1  0  0  0
 85176  1  0  0  0
 86177  1  0  0  0
 87178  1  0  0  0
 88179  1  0  0  0
 88180  1  0  0  0
M  CHG  1  88   1
M  ISO  4   1 100  68 101  85 101  87 100
M  END
> <chiral flag>
0

> <version>
0

> <s_m_source_file>
/data/baiqing/PycharmProjects/Reinvent-master-3.2/result/LINK_invent/BTK/process_docking_weight1_custom_sum_contain_oxygen_bond_distance_aromatic_linkinvent_7_9_3/rearranged_h_0120.sdf

> <i_m_source_file_index>
72

> <r_mmod_Potential_Energy-OPLS-2005>
-124.28963470459

> <r_mmod_Stretch_Energy-OPLS-2005>
34.4071578979492

> <r_mmod_Bend_Energy-OPLS-2005>
135.954193115234

> <r_mmod_Torsional_Energy-OPLS-2005>
307.561279296875

> <r_mmod_Improper_Torsional_Energy-OPLS-2005>
1.87073051929474

> <r_mmod_Van_der_Waal_Energy-OPLS-2005>
119.228416442871

> <r_mmod_Electrostatic_Energy-OPLS-2005>
-277.310882568359

> <r_mmod_Solvation_Energy-OPLS-2005>
-454.457000732422

> <b_mmod_Minimization_Converged-OPLS-2005>
0

> <r_mmod_RMS_Derivative-OPLS-2005>
3.18740701675415

$$$$
73
                    3D
 Structure written by MMmdl.
175184  0  0  1  0            999 V2000
  -30.6811  -14.6269   20.4881 C   0  0  0  0  0  0
  -30.4142  -12.3847   19.4591 C   0  0  0  0  0  0
  -29.4989  -12.4953   18.2235 C   0  0  0  0  0  0
  -28.0231  -12.3425   18.6366 C   0  0  0  0  0  0
  -27.6444  -13.2277   19.8557 C   0  0  2  0  0  0
  -28.6900  -13.1328   20.9884 C   0  0  0  0  0  0
  -25.2534  -13.8204   20.5715 C   0  0  0  0  0  0
  -24.1811  -13.0449   20.9202 C   0  0  0  0  0  0
  -24.6393  -11.6923   20.8749 C   0  0  0  0  0  0
  -23.9075  -10.4299   21.0397 C   0  0  0  0  0  0
  -24.3621   -9.4212   21.9180 C   0  0  0  0  0  0
  -23.6299   -8.2244   22.0747 C   0  0  0  0  0  0
  -22.4284   -8.0280   21.3534 C   0  0  0  0  0  0
  -21.9916   -9.0255   20.4642 C   0  0  0  0  0  0
  -22.7242  -10.2134   20.3050 C   0  0  0  0  0  0
  -21.6855   -6.0737   22.5276 C   0  0  0  0  0  0
  -21.4017   -6.5637   23.8213 C   0  0  0  0  0  0
  -21.3660   -5.6787   24.9176 C   0  0  0  0  0  0
  -21.6047   -4.3050   24.7221 C   0  0  0  0  0  0
  -21.8820   -3.8145   23.4341 C   0  0  0  0  0  0
  -21.9192   -4.6964   22.3399 C   0  0  0  0  0  0
  -22.7831  -13.5233   21.1856 C   0  0  0  0  0  0
  -22.1660   -4.2152   21.0975 F   0  0  0  0  0  0
  -21.5630   -3.4529   25.7731 F   0  0  0  0  0  0
  -29.9996  -13.4419   20.4045 N   0  0  0  0  0  0
  -26.2955  -12.9399   20.3321 N   0  0  0  0  0  0
  -25.9327  -11.6545   20.5781 N   0  0  0  0  0  0
  -22.0464  -12.8231   22.0410 N   0  0  0  0  0  0
  -25.4269  -15.1928   20.4163 N   0  0  0  0  0  0
  -31.8676  -14.6908   20.1496 O   0  0  0  0  0  0
  -21.6639   -6.8879   21.4238 O   0  0  0  0  0  0
  -22.3518  -14.5531   20.6684 O   0  0  0  0  0  0
  -24.6231  -31.8617   23.2046 C   0  0  0  0  0  0
  -25.9088  -32.4789   23.8371 C   0  0  1  0  0  0
  -27.2191  -27.3377   20.1229 C   0  0  0  0  0  0
  -25.5914  -33.8590   24.2301 N   0  0  0  0  0  0
  -23.4177  -30.4843   21.5452 C   0  0  2  0  0  0
  -24.8664  -28.9415   20.1110 C   0  0  0  0  0  0
  -22.7461  -29.4633   22.4936 C   0  0  0  0  0  0
  -18.0285  -28.1390   22.8490 C   0  0  0  0  0  0
  -24.1487  -36.7296   23.2641 C   0  0  0  0  0  0
  -25.9560  -30.7976   21.3745 C   0  0  0  0  0  0
  -26.0330  -29.4255   20.7187 C   0  0  0  0  0  0
  -27.2170  -28.6327   20.7199 C   0  0  0  0  0  0
  -26.0407  -26.9016   19.4873 C   0  0  0  0  0  0
  -24.8704  -27.6834   19.4862 C   0  0  0  0  0  0
  -23.6331  -29.8191   20.1601 C   0  0  0  0  0  0
  -25.4111  -36.3090   24.0336 C   0  0  1  0  0  0
  -20.5883  -28.3692   23.1287 C   0  0  2  0  0  0
  -20.6775  -26.9417   22.5413 C   0  0  0  0  0  0
  -19.5755  -26.6391   21.5213 C   0  0  0  0  0  0
  -18.1933  -26.7936   22.1620 C   0  0  0  0  0  0
  -19.1539  -28.8857   23.2887 C   0  0  0  0  0  0
  -18.9461  -30.1458   23.8902 C   0  0  0  0  0  0
  -17.6464  -30.6593   24.0567 C   0  0  0  0  0  0
  -25.9045  -34.9459   23.5116 C   0  0  0  0  0  0
  -16.5354  -29.9095   23.6331 C   0  0  0  0  0  0
  -16.7271  -28.6512   23.0351 C   0  0  0  0  0  0
  -26.4492  -31.6586   25.0724 C   0  0  0  0  0  0
  -25.3734  -31.3713   26.1455 C   0  0  0  0  0  0
  -27.0333  -30.3011   24.6157 C   0  0  0  0  0  0
  -27.6059  -32.4317   25.7487 C   0  0  0  0  0  0
  -27.5583  -37.1805   24.8467 C   0  0  0  0  0  0
  -21.4176  -29.3049   22.3680 N   0  0  0  0  0  0
  -26.4295  -37.3779   23.9411 N   0  0  0  0  0  0
  -24.6839  -31.0642   22.0986 N   0  0  0  0  0  0
  -23.4186  -28.8168   23.3008 O   0  0  0  0  0  0
  -28.2988  -26.4539   20.1611 O   0  0  0  0  0  0
  -26.5613  -34.8923   22.4684 O   0  0  0  0  0  0
  -23.5398  -32.1408   23.7379 O   0  0  0  0  0  0
  -32.1208  -21.4571   19.9639 C   0  0  0  0  0  0
  -32.1277  -22.8148   20.6770 C   0  0  0  0  0  0
  -30.8563  -21.2640   19.1065 C   0  0  0  0  0  0
  -29.0326  -18.0537   19.7340 C   0  0  0  0  0  0
  -29.8394  -18.0729   22.0147 C   0  0  0  0  0  0
  -29.6701  -16.6289   19.5162 C   0  0  0  0  0  0
  -30.4972  -16.6602   21.8268 C   0  0  0  0  0  0
  -30.8189  -23.0932   21.4513 C   0  0  2  0  0  0
  -29.6071  -23.0198   20.4564 C   0  0  1  0  0  0
  -29.5550  -21.4855   19.9194 C   0  0  2  0  0  0
  -29.8239  -18.9380   20.7278 C   0  0  0  0  0  0
  -31.0049  -24.3839   22.2596 C   0  0  0  0  0  0
  -27.1071  -23.4452   19.8707 C   0  0  0  0  0  0
  -28.1754  -25.3721   21.1529 C   0  0  0  0  0  0
  -28.2507  -23.7872   20.8425 C   0  0  2  0  0  0
  -29.9846  -15.8014   20.7222 N   0  0  0  0  0  0
  -29.3202  -20.3723   20.9439 N   0  3  0  0  0  0
  -31.4607  -12.4724   19.1609 H   0  0  0  0  0  0
  -30.3188  -11.4019   19.9239 H   0  0  0  0  0  0
  -29.7625  -11.7332   17.4885 H   0  0  0  0  0  0
  -29.6499  -13.4592   17.7356 H   0  0  0  0  0  0
  -27.8586  -11.2925   18.8797 H   0  0  0  0  0  0
  -27.3702  -12.5608   17.7911 H   0  0  0  0  0  0
  -27.6473  -14.2556   19.4955 H   0  0  0  0  0  0
  -28.7000  -12.1354   21.4309 H   0  0  0  0  0  0
  -28.4467  -13.8273   21.7942 H   0  0  0  0  0  0
  -25.2765   -9.5691   22.4756 H   0  0  0  0  0  0
  -24.0005   -7.4642   22.7470 H   0  0  0  0  0  0
  -21.0842   -8.8777   19.8959 H   0  0  0  0  0  0
  -22.3700  -10.9670   19.6158 H   0  0  0  0  0  0
  -21.2009   -7.6143   23.9721 H   0  0  0  0  0  0
  -21.1484   -6.0512   25.9079 H   0  0  0  0  0  0
  -22.0600   -2.7606   23.2836 H   0  0  0  0  0  0
  -22.4073  -11.9895   22.4811 H   0  0  0  0  0  0
  -21.1076  -13.1268   22.2589 H   0  0  0  0  0  0
  -24.6674  -15.8539   20.5354 H   0  0  0  0  0  0
  -26.2932  -15.6298   20.1282 H   0  0  0  0  0  0
  -26.7147  -32.5475   23.1120 H   0  0  0  0  0  0
  -25.0056  -33.9741   25.0439 H   0  0  0  0  0  0
  -22.7105  -31.3035   21.4022 H   0  0  0  0  0  0
  -23.3752  -35.9625   23.3308 H   0  0  0  0  0  0
  -24.3573  -36.8910   22.2054 H   0  0  0  0  0  0
  -23.7241  -37.6501   23.6655 H   0  0  0  0  0  0
  -26.0841  -31.5611   20.6062 H   0  0  0  0  0  0
  -26.8372  -30.8471   22.0021 H   0  0  0  0  0  0
  -28.1104  -28.9926   21.2106 H   0  0  0  0  0  0
  -26.0183  -25.9336   19.0086 H   0  0  0  0  0  0
  -23.9762  -27.3077   19.0078 H   0  0  0  0  0  0
  -23.7516  -30.5964   19.4044 H   0  0  0  0  0  0
  -22.7536  -29.2476   19.8576 H   0  0  0  0  0  0
  -25.1291  -36.1948   25.0829 H   0  0  0  0  0  0
  -20.9977  -28.3269   24.1407 H   0  0  0  0  0  0
  -20.5676  -26.2299   23.3608 H   0  0  0  0  0  0
  -21.6642  -26.7451   22.1205 H   0  0  0  0  0  0
  -19.6917  -25.6302   21.1243 H   0  0  0  0  0  0
  -19.6700  -27.3195   20.6739 H   0  0  0  0  0  0
  -17.4204  -26.6687   21.4021 H   0  0  0  0  0  0
  -18.0335  -26.0077   22.9015 H   0  0  0  0  0  0
  -19.7939  -30.7275   24.2268 H   0  0  0  0  0  0
  -17.5021  -31.6271   24.5175 H   0  0  0  0  0  0
  -15.5354  -30.3001   23.7657 H   0  0  0  0  0  0
  -15.8670  -28.0835   22.7061 H   0  0  0  0  0  0
  -24.5905  -30.7067   25.7786 H   0  0  0  0  0  0
  -24.8928  -32.2872   26.4900 H   0  0  0  0  0  0
  -25.8066  -30.8878   27.0217 H   0  0  0  0  0  0
  -26.2897  -29.6760   24.1196 H   0  0  0  0  0  0
  -27.4056  -29.7268   25.4651 H   0  0  0  0  0  0
  -27.8757  -30.4309   23.9358 H   0  0  0  0  0  0
  -27.2676  -33.3613   26.2075 H   0  0  0  0  0  0
  -28.3858  -32.6886   25.0306 H   0  0  0  0  0  0
  -28.0737  -31.8436   26.5392 H   0  0  0  0  0  0
  -28.2605  -38.0098   24.7506 H   0  0  0  0  0  0
  -28.1076  -36.2630   24.6300 H   0  0  0  0  0  0
  -27.2297  -37.1457   25.8870 H   0  0  0  0  0  0
  -20.9341  -29.8772   21.6898 H   0  0  0  0  0  0
  -26.0183  -38.2858   24.1406 H   0  0  0  0  0  0
  -32.2096  -20.6719   20.7136 H   0  0  0  0  0  0
  -33.0079  -21.3660   19.3358 H   0  0  0  0  0  0
  -32.2996  -23.6072   19.9464 H   0  0  0  0  0  0
  -32.9829  -22.8470   21.3533 H   0  0  0  0  0  0
  -30.8645  -20.2944   18.6111 H   0  0  0  0  0  0
  -30.8832  -21.9808   18.2840 H   0  0  0  0  0  0
  -28.0058  -17.9362   20.0829 H   0  0  0  0  0  0
  -28.9612  -18.5613   18.7715 H   0  0  0  0  0  0
  -30.3813  -18.6005   22.8010 H   0  0  0  0  0  0
  -28.8227  -17.9458   22.3904 H   0  0  0  0  0  0
  -30.5929  -16.7630   18.9474 H   0  0  0  0  0  0
  -29.0121  -16.0535   18.8631 H   0  0  0  0  0  0
  -30.4034  -16.1033   22.7608 H   0  0  0  0  0  0
  -31.5693  -16.8108   21.6812 H   0  0  0  0  0  0
  -30.7024  -22.3086   22.1992 H   0  0  0  0  0  0
  -29.9160  -23.6098   19.5914 H   0  0  0  0  0  0
  -28.7516  -21.3900   19.1899 H   0  0  0  0  0  0
  -30.8578  -18.9763   20.3926 H   0  0  0  0  0  0
  -31.0285  -25.2663   21.6196 H   0  0  0  0  0  0
  -31.9444  -24.3663   22.8125 H   0  0  0  0  0  0
  -30.2287  -24.4916   23.0160 H   0  0  0  0  0  0
  -26.8887  -22.3786   19.8442 H   0  0  0  0  0  0
  -27.3338  -23.7763   18.8566 H   0  0  0  0  0  0
  -26.1793  -23.9282   20.1780 H   0  0  0  0  0  0
  -28.8376  -25.6559   21.9600 H   0  0  0  0  0  0
  -27.2039  -25.4975   21.6357 H   0  0  0  0  0  0
  -27.9622  -23.3268   21.7887 H   0  0  0  0  0  0
  -28.3346  -20.3427   21.1543 H   0  0  0  0  0  0
  -29.7715  -20.6908   21.7865 H   0  0  0  0  0  0
  1 25  1  0  0  0
  1 30  2  0  0  0
  1 86  1  0  0  0
  2  3  1  0  0  0
  2 25  1  0  0  0
  2 88  1  0  0  0
  2 89  1  0  0  0
  3  4  1  0  0  0
  3 90  1  0  0  0
  3 91  1  0  0  0
  4  5  1  0  0  0
  4 92  1  0  0  0
  4 93  1  0  0  0
  5  6  1  0  0  0
  5 26  1  0  0  0
  5 94  1  0  0  0
  6 25  1  0  0  0
  6 95  1  0  0  0
  6 96  1  0  0  0
  7  8  2  0  0  0
  7 26  1  0  0  0
  7 29  1  0  0  0
  8  9  1  0  0  0
  8 22  1  0  0  0
  9 10  1  0  0  0
  9 27  2  0  0  0
 10 11  2  0  0  0
 10 15  1  0  0  0
 11 12  1  0  0  0
 11 97  1  0  0  0
 12 13  2  0  0  0
 12 98  1  0  0  0
 13 14  1  0  0  0
 13 31  1  0  0  0
 14 15  2  0  0  0
 14 99  1  0  0  0
 15100  1  0  0  0
 16 17  2  0  0  0
 16 21  1  0  0  0
 16 31  1  0  0  0
 17 18  1  0  0  0
 17101  1  0  0  0
 18 19  2  0  0  0
 18102  1  0  0  0
 19 20  1  0  0  0
 19 24  1  0  0  0
 20 21  2  0  0  0
 20103  1  0  0  0
 21 23  1  0  0  0
 22 28  1  0  0  0
 22 32  2  0  0  0
 26 27  1  0  0  0
 28104  1  0  0  0
 28105  1  0  0  0
 29106  1  0  0  0
 29107  1  0  0  0
 33 34  1  0  0  0
 33 66  1  0  0  0
 33 70  2  0  0  0
 34 36  1  0  0  0
 34 59  1  0  0  0
 34108  1  0  0  0
 35 44  2  0  0  0
 35 45  1  0  0  0
 35 68  1  0  0  0
 36 56  1  0  0  0
 36109  1  0  0  0
 37 39  1  0  0  0
 37 47  1  0  0  0
 37 66  1  0  0  0
 37110  1  0  0  0
 38 43  2  0  0  0
 38 46  1  0  0  0
 38 47  1  0  0  0
 39 64  1  0  0  0
 39 67  2  0  0  0
 40 52  1  0  0  0
 40 53  2  0  0  0
 40 58  1  0  0  0
 41111  1  0  0  0
 41112  1  0  0  0
 41113  1  0  0  0
 41 48  1  0  0  0
 42 43  1  0  0  0
 42 66  1  0  0  0
 42114  1  0  0  0
 42115  1  0  0  0
 43 44  1  0  0  0
 44116  1  0  0  0
 45 46  2  0  0  0
 45117  1  0  0  0
 46118  1  0  0  0
 47119  1  0  0  0
 47120  1  0  0  0
 48 56  1  0  0  0
 48 65  1  0  0  0
 48121  1  0  0  0
 49 50  1  0  0  0
 49 53  1  0  0  0
 49 64  1  0  0  0
 49122  1  0  0  0
 50 51  1  0  0  0
 50123  1  0  0  0
 50124  1  0  0  0
 51 52  1  0  0  0
 51125  1  0  0  0
 51126  1  0  0  0
 52127  1  0  0  0
 52128  1  0  0  0
 53 54  1  0  0  0
 54 55  2  0  0  0
 54129  1  0  0  0
 55 57  1  0  0  0
 55130  1  0  0  0
 56 69  2  0  0  0
 57 58  2  0  0  0
 57131  1  0  0  0
 58132  1  0  0  0
 59 60  1  0  0  0
 59 61  1  0  0  0
 59 62  1  0  0  0
 60133  1  0  0  0
 60134  1  0  0  0
 60135  1  0  0  0
 61136  1  0  0  0
 61137  1  0  0  0
 61138  1  0  0  0
 62139  1  0  0  0
 62140  1  0  0  0
 62141  1  0  0  0
 63 65  1  0  0  0
 63142  1  0  0  0
 63143  1  0  0  0
 63144  1  0  0  0
 64145  1  0  0  0
 65146  1  0  0  0
 68 84  1  0  0  0
 71 72  1  0  0  0
 71 73  1  0  0  0
 71147  1  0  0  0
 71148  1  0  0  0
 72 78  1  0  0  0
 72149  1  0  0  0
 72150  1  0  0  0
 73 80  1  0  0  0
 73151  1  0  0  0
 73152  1  0  0  0
 74 76  1  0  0  0
 74 81  1  0  0  0
 74153  1  0  0  0
 74154  1  0  0  0
 75 77  1  0  0  0
 75 81  1  0  0  0
 75155  1  0  0  0
 75156  1  0  0  0
 76 86  1  0  0  0
 76157  1  0  0  0
 76158  1  0  0  0
 77 86  1  0  0  0
 77159  1  0  0  0
 77160  1  0  0  0
 78 79  1  0  0  0
 78 82  1  0  0  0
 78161  1  0  0  0
 79 80  1  0  0  0
 79 85  1  0  0  0
 79162  1  0  0  0
 80 87  1  0  0  0
 80163  1  0  0  0
 81 87  1  0  0  0
 81164  1  0  0  0
 82165  1  0  0  0
 82166  1  0  0  0
 82167  1  0  0  0
 83168  1  0  0  0
 83169  1  0  0  0
 83170  1  0  0  0
 83 85  1  0  0  0
 84 85  1  0  0  0
 84171  1  0  0  0
 84172  1  0  0  0
 85173  1  0  0  0
 87174  1  0  0  0
 87175  1  0  0  0
M  CHG  1  87   1
M  ISO  4   1 100  68 101  84 101  86 100
M  END
> <chiral flag>
0

> <version>
0

> <s_m_source_file>
/data/baiqing/PycharmProjects/Reinvent-master-3.2/result/LINK_invent/BTK/process_docking_weight1_custom_sum_contain_oxygen_bond_distance_aromatic_linkinvent_7_9_3/rearranged_h_0120.sdf

> <i_m_source_file_index>
73

> <r_mmod_Potential_Energy-OPLS-2005>
334.777130126953

> <r_mmod_Stretch_Energy-OPLS-2005>
96.9095840454102

> <r_mmod_Bend_Energy-OPLS-2005>
212.90673828125

> <r_mmod_Torsional_Energy-OPLS-2005>
420.346374511719

> <r_mmod_Improper_Torsional_Energy-OPLS-2005>
9.51246166229248

> <r_mmod_Van_der_Waal_Energy-OPLS-2005>
135.710784912109

> <r_mmod_Electrostatic_Energy-OPLS-2005>
-162.583053588867

> <r_mmod_Solvation_Energy-OPLS-2005>
-427.578338623047

> <b_mmod_Minimization_Converged-OPLS-2005>
0

> <r_mmod_RMS_Derivative-OPLS-2005>
1.33372724056244

$$$$
74
                    3D
 Structure written by MMmdl.
169178  0  0  1  0            999 V2000
  -30.7369  -14.3434   20.6484 C   0  0  0  0  0  0
  -30.4272  -12.2534   19.3902 C   0  0  0  0  0  0
  -29.4896  -12.5094   18.1932 C   0  0  0  0  0  0
  -28.0087  -12.3851   18.6038 C   0  0  0  0  0  0
  -27.6743  -13.1872   19.8874 C   0  0  2  0  0  0
  -28.7141  -12.8821   20.9916 C   0  0  0  0  0  0
  -25.2647  -13.8127   20.5675 C   0  0  0  0  0  0
  -24.1880  -13.0448   20.9200 C   0  0  0  0  0  0
  -24.6389  -11.6895   20.8770 C   0  0  0  0  0  0
  -23.9044  -10.4287   21.0422 C   0  0  0  0  0  0
  -24.3603   -9.4202   21.9196 C   0  0  0  0  0  0
  -23.6282   -8.2238   22.0771 C   0  0  0  0  0  0
  -22.4262   -8.0279   21.3565 C   0  0  0  0  0  0
  -21.9892   -9.0256   20.4671 C   0  0  0  0  0  0
  -22.7220  -10.2135   20.3075 C   0  0  0  0  0  0
  -21.6845   -6.0735   22.5277 C   0  0  0  0  0  0
  -21.4013   -6.5648   23.8214 C   0  0  0  0  0  0
  -21.3652   -5.6810   24.9178 C   0  0  0  0  0  0
  -21.6040   -4.3062   24.7232 C   0  0  0  0  0  0
  -21.8819   -3.8153   23.4358 C   0  0  0  0  0  0
  -21.9187   -4.6970   22.3409 C   0  0  0  0  0  0
  -22.7905  -13.5258   21.1848 C   0  0  0  0  0  0
  -22.1653   -4.2162   21.0988 F   0  0  0  0  0  0
  -21.5617   -3.4543   25.7739 F   0  0  0  0  0  0
  -30.0639  -13.1813   20.4669 N   0  0  0  0  0  0
  -26.3080  -12.9269   20.3406 N   0  0  0  0  0  0
  -25.9304  -11.6448   20.5778 N   0  0  0  0  0  0
  -22.0529  -12.8262   22.0391 N   0  0  0  0  0  0
  -25.4378  -15.1842   20.3953 N   0  0  0  0  0  0
  -31.7688  -14.6531   20.0429 O   0  0  0  0  0  0
  -21.6639   -6.8875   21.4238 O   0  0  0  0  0  0
  -22.3610  -14.5578   20.6696 O   0  0  0  0  0  0
  -24.6079  -31.8726   23.2115 C   0  0  0  0  0  0
  -25.9007  -32.4834   23.8397 C   0  0  1  0  0  0
  -27.2389  -27.4852   20.0985 C   0  0  0  0  0  0
  -25.5887  -33.8631   24.2347 N   0  0  0  0  0  0
  -23.3937  -30.4964   21.5495 C   0  0  2  0  0  0
  -24.8420  -28.9662   20.1107 C   0  0  0  0  0  0
  -22.7364  -29.4719   22.5005 C   0  0  0  0  0  0
  -18.0265  -28.1376   22.8497 C   0  0  0  0  0  0
  -24.1485  -36.7328   23.2634 C   0  0  0  0  0  0
  -25.9147  -30.8542   21.3570 C   0  0  0  0  0  0
  -25.9939  -29.4906   20.7109 C   0  0  0  0  0  0
  -27.1944  -28.7565   20.7075 C   0  0  0  0  0  0
  -26.0863  -26.9745   19.4705 C   0  0  0  0  0  0
  -24.8810  -27.7048   19.4878 C   0  0  0  0  0  0
  -23.5969  -29.8230   20.1641 C   0  0  0  0  0  0
  -25.4099  -36.3125   24.0342 C   0  0  1  0  0  0
  -20.5846  -28.3684   23.1313 C   0  0  2  0  0  0
  -20.6772  -26.9427   22.5421 C   0  0  0  0  0  0
  -19.5748  -26.6382   21.5219 C   0  0  0  0  0  0
  -18.1922  -26.7919   22.1635 C   0  0  0  0  0  0
  -19.1508  -28.8852   23.2895 C   0  0  0  0  0  0
  -18.9438  -30.1452   23.8908 C   0  0  0  0  0  0
  -17.6445  -30.6588   24.0565 C   0  0  0  0  0  0
  -25.9018  -34.9487   23.5135 C   0  0  0  0  0  0
  -16.5333  -29.9085   23.6327 C   0  0  0  0  0  0
  -16.7262  -28.6503   23.0344 C   0  0  0  0  0  0
  -26.4450  -31.6591   25.0711 C   0  0  0  0  0  0
  -25.3743  -31.3694   26.1478 C   0  0  0  0  0  0
  -27.0285  -30.3043   24.6063 C   0  0  0  0  0  0
  -27.6034  -32.4295   25.7475 C   0  0  0  0  0  0
  -27.5579  -37.1816   24.8467 C   0  0  0  0  0  0
  -21.4096  -29.3078   22.3737 N   0  0  0  0  0  0
  -26.4295  -37.3800   23.9409 N   0  0  0  0  0  0
  -24.6566  -31.0881   22.0981 N   0  0  0  0  0  0
  -23.4158  -28.8273   23.3043 O   0  0  0  0  0  0
  -28.3864  -26.7343   20.1187 O   0  0  0  0  0  0
  -26.5582  -34.8935   22.4700 O   0  0  0  0  0  0
  -23.5289  -32.1470   23.7537 O   0  0  0  0  0  0
  -26.2143  -23.5507   22.1118 C   0  0  0  0  0  0
  -26.7755  -24.8255   21.9414 C   0  0  0  0  0  0
  -28.9850  -23.8442   22.0055 C   0  0  0  0  0  0
  -27.0140  -22.3859   22.1803 C   0  0  0  0  0  0
  -28.1670  -24.9697   21.8059 C   0  0  0  0  0  0
  -28.4348  -22.5586   22.2147 C   0  0  0  0  0  0
  -25.6624  -20.9025   20.6629 C   0  0  0  0  0  0
  -26.7159  -20.0542   19.9567 C   0  0  0  0  0  0
  -26.8531  -19.6934   22.3726 C   0  0  0  0  0  0
  -26.2039  -21.0702   22.0938 C   0  0  1  0  0  0
  -27.0866  -19.0050   21.0078 C   0  0  2  0  0  0
  -29.4363  -21.4489   22.4600 C   0  0  0  0  0  0
  -28.7839  -26.3096   21.4284 C   0  0  0  0  0  0
  -30.0837  -16.6351   21.2809 C   0  0  0  0  0  0
  -28.6106  -17.0716   21.2251 C   0  0  0  0  0  0
  -30.1193  -15.1923   21.4684 N   0  0  0  0  0  0
  -28.4590  -18.4832   20.8404 N   0  3  0  0  0  0
  -31.4684  -12.3628   19.0828 H   0  0  0  0  0  0
  -30.3280  -11.2250   19.7417 H   0  0  0  0  0  0
  -29.7098  -11.8065   17.3894 H   0  0  0  0  0  0
  -29.6766  -13.5040   17.7872 H   0  0  0  0  0  0
  -27.7896  -11.3280   18.7556 H   0  0  0  0  0  0
  -27.3677  -12.7099   17.7837 H   0  0  0  0  0  0
  -27.7446  -14.2442   19.6338 H   0  0  0  0  0  0
  -28.6690  -11.8255   21.2609 H   0  0  0  0  0  0
  -28.4667  -13.4129   21.9097 H   0  0  0  0  0  0
  -25.2748   -9.5685   22.4763 H   0  0  0  0  0  0
  -23.9995   -7.4632   22.7494 H   0  0  0  0  0  0
  -21.0821   -8.8781   19.8974 H   0  0  0  0  0  0
  -22.3684  -10.9684   19.6184 H   0  0  0  0  0  0
  -21.2015   -7.6157   23.9716 H   0  0  0  0  0  0
  -21.1470   -6.0542   25.9084 H   0  0  0  0  0  0
  -22.0604   -2.7613   23.2861 H   0  0  0  0  0  0
  -22.4122  -11.9890   22.4740 H   0  0  0  0  0  0
  -21.1172  -13.1354   22.2614 H   0  0  0  0  0  0
  -24.6204  -15.7845   20.3959 H   0  0  0  0  0  0
  -26.1763  -15.5314   19.8002 H   0  0  0  0  0  0
  -26.7102  -32.5560   23.1187 H   0  0  0  0  0  0
  -25.0073  -33.9797   25.0518 H   0  0  0  0  0  0
  -22.6824  -31.3124   21.4116 H   0  0  0  0  0  0
  -23.3736  -35.9672   23.3315 H   0  0  0  0  0  0
  -24.3592  -36.8920   22.2046 H   0  0  0  0  0  0
  -23.7255  -37.6545   23.6634 H   0  0  0  0  0  0
  -26.0168  -31.6202   20.5872 H   0  0  0  0  0  0
  -26.8058  -30.9112   21.9691 H   0  0  0  0  0  0
  -28.0840  -29.1638   21.1676 H   0  0  0  0  0  0
  -26.1179  -26.0035   18.9971 H   0  0  0  0  0  0
  -23.9976  -27.2975   19.0165 H   0  0  0  0  0  0
  -22.7241  -29.2343   19.8751 H   0  0  0  0  0  0
  -23.6932  -30.5957   19.4002 H   0  0  0  0  0  0
  -25.1272  -36.1991   25.0836 H   0  0  0  0  0  0
  -20.9925  -28.3238   24.1437 H   0  0  0  0  0  0
  -20.5670  -26.2298   23.3609 H   0  0  0  0  0  0
  -21.6653  -26.7476   22.1229 H   0  0  0  0  0  0
  -19.6913  -25.6288   21.1274 H   0  0  0  0  0  0
  -19.6670  -27.3181   20.6739 H   0  0  0  0  0  0
  -17.4181  -26.6647   21.4045 H   0  0  0  0  0  0
  -18.0331  -26.0066   22.9033 H   0  0  0  0  0  0
  -19.7915  -30.7267   24.2277 H   0  0  0  0  0  0
  -17.4994  -31.6265   24.5154 H   0  0  0  0  0  0
  -15.5331  -30.2995   23.7647 H   0  0  0  0  0  0
  -15.8666  -28.0823   22.7052 H   0  0  0  0  0  0
  -24.5904  -30.7040   25.7842 H   0  0  0  0  0  0
  -24.8943  -32.2849   26.4942 H   0  0  0  0  0  0
  -25.8107  -30.8867   27.0230 H   0  0  0  0  0  0
  -26.2834  -29.6820   24.1092 H   0  0  0  0  0  0
  -27.4049  -29.7252   25.4510 H   0  0  0  0  0  0
  -27.8666  -30.4385   23.9221 H   0  0  0  0  0  0
  -27.2656  -33.3570   26.2106 H   0  0  0  0  0  0
  -28.3814  -32.6890   25.0286 H   0  0  0  0  0  0
  -28.0737  -31.8389   26.5348 H   0  0  0  0  0  0
  -28.2604  -38.0104   24.7494 H   0  0  0  0  0  0
  -28.1064  -36.2636   24.6306 H   0  0  0  0  0  0
  -27.2303  -37.1486   25.8872 H   0  0  0  0  0  0
  -20.9241  -29.8809   21.6978 H   0  0  0  0  0  0
  -26.0190  -38.2882   24.1390 H   0  0  0  0  0  0
  -25.1362  -23.4605   22.1228 H   0  0  0  0  0  0
  -26.1231  -25.6811   21.8535 H   0  0  0  0  0  0
  -30.0581  -23.9722   21.9645 H   0  0  0  0  0  0
  -24.7244  -20.3476   20.6870 H   0  0  0  0  0  0
  -25.4581  -21.8399   20.1453 H   0  0  0  0  0  0
  -27.5722  -20.6806   19.7026 H   0  0  0  0  0  0
  -26.3413  -19.6075   19.0344 H   0  0  0  0  0  0
  -26.1119  -19.0825   22.8896 H   0  0  0  0  0  0
  -27.6909  -19.6979   23.0593 H   0  0  0  0  0  0
  -25.3655  -21.1865   22.7843 H   0  0  0  0  0  0
  -26.3777  -18.1791   20.8999 H   0  0  0  0  0  0
  -30.4602  -21.8219   22.4254 H   0  0  0  0  0  0
  -29.3653  -20.6884   21.6947 H   0  0  0  0  0  0
  -29.3063  -21.0195   23.4535 H   0  0  0  0  0  0
  -29.8715  -26.2261   21.4379 H   0  0  0  0  0  0
  -28.5355  -27.0370   22.2037 H   0  0  0  0  0  0
  -30.5881  -16.9229   20.3547 H   0  0  0  0  0  0
  -30.6041  -17.1221   22.1059 H   0  0  0  0  0  0
  -28.1325  -16.8980   22.1923 H   0  0  0  0  0  0
  -28.0693  -16.4686   20.4974 H   0  0  0  0  0  0
  -29.3586  -14.7888   21.9949 H   0  0  0  0  0  0
  -28.7204  -18.5672   19.8695 H   0  0  0  0  0  0
  -29.0945  -19.0453   21.3811 H   0  0  0  0  0  0
  1 25  1  0  0  0
  1 30  2  0  0  0
  1 86  1  0  0  0
  2  3  1  0  0  0
  2 25  1  0  0  0
  2 88  1  0  0  0
  2 89  1  0  0  0
  3  4  1  0  0  0
  3 90  1  0  0  0
  3 91  1  0  0  0
  4  5  1  0  0  0
  4 92  1  0  0  0
  4 93  1  0  0  0
  5  6  1  0  0  0
  5 26  1  0  0  0
  5 94  1  0  0  0
  6 25  1  0  0  0
  6 95  1  0  0  0
  6 96  1  0  0  0
  7  8  2  0  0  0
  7 26  1  0  0  0
  7 29  1  0  0  0
  8  9  1  0  0  0
  8 22  1  0  0  0
  9 10  1  0  0  0
  9 27  2  0  0  0
 10 11  2  0  0  0
 10 15  1  0  0  0
 11 12  1  0  0  0
 11 97  1  0  0  0
 12 13  2  0  0  0
 12 98  1  0  0  0
 13 14  1  0  0  0
 13 31  1  0  0  0
 14 15  2  0  0  0
 14 99  1  0  0  0
 15100  1  0  0  0
 16 17  2  0  0  0
 16 21  1  0  0  0
 16 31  1  0  0  0
 17 18  1  0  0  0
 17101  1  0  0  0
 18 19  2  0  0  0
 18102  1  0  0  0
 19 20  1  0  0  0
 19 24  1  0  0  0
 20 21  2  0  0  0
 20103  1  0  0  0
 21 23  1  0  0  0
 22 28  1  0  0  0
 22 32  2  0  0  0
 26 27  1  0  0  0
 28104  1  0  0  0
 28105  1  0  0  0
 29106  1  0  0  0
 29107  1  0  0  0
 33 34  1  0  0  0
 33 66  1  0  0  0
 33 70  2  0  0  0
 34 36  1  0  0  0
 34 59  1  0  0  0
 34108  1  0  0  0
 35 44  2  0  0  0
 35 45  1  0  0  0
 35 68  1  0  0  0
 36 56  1  0  0  0
 36109  1  0  0  0
 37 39  1  0  0  0
 37 47  1  0  0  0
 37 66  1  0  0  0
 37110  1  0  0  0
 38 43  2  0  0  0
 38 46  1  0  0  0
 38 47  1  0  0  0
 39 64  1  0  0  0
 39 67  2  0  0  0
 40 52  1  0  0  0
 40 53  2  0  0  0
 40 58  1  0  0  0
 41111  1  0  0  0
 41112  1  0  0  0
 41113  1  0  0  0
 41 48  1  0  0  0
 42 43  1  0  0  0
 42 66  1  0  0  0
 42114  1  0  0  0
 42115  1  0  0  0
 43 44  1  0  0  0
 44116  1  0  0  0
 45 46  2  0  0  0
 45117  1  0  0  0
 46118  1  0  0  0
 47119  1  0  0  0
 47120  1  0  0  0
 48 56  1  0  0  0
 48 65  1  0  0  0
 48121  1  0  0  0
 49 50  1  0  0  0
 49 53  1  0  0  0
 49 64  1  0  0  0
 49122  1  0  0  0
 50 51  1  0  0  0
 50123  1  0  0  0
 50124  1  0  0  0
 51 52  1  0  0  0
 51125  1  0  0  0
 51126  1  0  0  0
 52127  1  0  0  0
 52128  1  0  0  0
 53 54  1  0  0  0
 54 55  2  0  0  0
 54129  1  0  0  0
 55 57  1  0  0  0
 55130  1  0  0  0
 56 69  2  0  0  0
 57 58  2  0  0  0
 57131  1  0  0  0
 58132  1  0  0  0
 59 60  1  0  0  0
 59 61  1  0  0  0
 59 62  1  0  0  0
 60133  1  0  0  0
 60134  1  0  0  0
 60135  1  0  0  0
 61136  1  0  0  0
 61137  1  0  0  0
 61138  1  0  0  0
 62139  1  0  0  0
 62140  1  0  0  0
 62141  1  0  0  0
 63 65  1  0  0  0
 63142  1  0  0  0
 63143  1  0  0  0
 63144  1  0  0  0
 64145  1  0  0  0
 65146  1  0  0  0
 68 83  1  0  0  0
 71 72  2  0  0  0
 71 74  1  0  0  0
 71147  1  0  0  0
 72 75  1  0  0  0
 72148  1  0  0  0
 73 75  2  0  0  0
 73 76  1  0  0  0
 73149  1  0  0  0
 74 76  2  0  0  0
 74 80  1  0  0  0
 75 83  1  0  0  0
 76 82  1  0  0  0
 77 78  1  0  0  0
 77 80  1  0  0  0
 77150  1  0  0  0
 77151  1  0  0  0
 78 81  1  0  0  0
 78152  1  0  0  0
 78153  1  0  0  0
 79 80  1  0  0  0
 79 81  1  0  0  0
 79154  1  0  0  0
 79155  1  0  0  0
 80156  1  0  0  0
 81 87  1  0  0  0
 81157  1  0  0  0
 82158  1  0  0  0
 82159  1  0  0  0
 82160  1  0  0  0
 83161  1  0  0  0
 83162  1  0  0  0
 84 85  1  0  0  0
 84 86  1  0  0  0
 84163  1  0  0  0
 84164  1  0  0  0
 85 87  1  0  0  0
 85165  1  0  0  0
 85166  1  0  0  0
 86167  1  0  0  0
 87168  1  0  0  0
 87169  1  0  0  0
M  CHG  1  87   1
M  ISO  4   1 100  68 101  83 101  86 100
M  END
> <chiral flag>
0

> <version>
0

> <s_m_source_file>
/data/baiqing/PycharmProjects/Reinvent-master-3.2/result/LINK_invent/BTK/process_docking_weight1_custom_sum_contain_oxygen_bond_distance_aromatic_linkinvent_7_9_3/rearranged_h_0120.sdf

> <i_m_source_file_index>
74

> <r_mmod_Potential_Energy-OPLS-2005>
-118.688850402832

> <r_mmod_Stretch_Energy-OPLS-2005>
35.0277442932129

> <r_mmod_Bend_Energy-OPLS-2005>
137.189788818359

> <r_mmod_Torsional_Energy-OPLS-2005>
314.991363525391

> <r_mmod_Improper_Torsional_Energy-OPLS-2005>
7.33577489852905

> <r_mmod_Van_der_Waal_Energy-OPLS-2005>
152.988250732422

> <r_mmod_Electrostatic_Energy-OPLS-2005>
-299.330963134766

> <r_mmod_Solvation_Energy-OPLS-2005>
-474.619049072266

> <b_mmod_Minimization_Converged-OPLS-2005>
0

> <r_mmod_RMS_Derivative-OPLS-2005>
2.74110102653503

$$$$
75
                    3D
 Structure written by MMmdl.
166175  0  0  1  0            999 V2000
  -30.7112  -14.5155   20.5497 C   0  0  0  0  0  0
  -30.4239  -12.3347   19.4232 C   0  0  0  0  0  0
  -29.4906  -12.4950   18.2058 C   0  0  0  0  0  0
  -28.0157  -12.3288   18.6243 C   0  0  0  0  0  0
  -27.6468  -13.1881   19.8610 C   0  0  2  0  0  0
  -28.7004  -13.0411   20.9844 C   0  0  0  0  0  0
  -25.2559  -13.8086   20.5694 C   0  0  0  0  0  0
  -24.1803  -13.0395   20.9210 C   0  0  0  0  0  0
  -24.6345  -11.6859   20.8772 C   0  0  0  0  0  0
  -23.9018  -10.4265   21.0427 C   0  0  0  0  0  0
  -24.3587   -9.4184   21.9197 C   0  0  0  0  0  0
  -23.6278   -8.2215   22.0755 C   0  0  0  0  0  0
  -22.4262   -8.0259   21.3543 C   0  0  0  0  0  0
  -21.9886   -9.0227   20.4648 C   0  0  0  0  0  0
  -22.7198  -10.2112   20.3062 C   0  0  0  0  0  0
  -21.6843   -6.0726   22.5286 C   0  0  0  0  0  0
  -21.3998   -6.5630   23.8217 C   0  0  0  0  0  0
  -21.3658   -5.6782   24.9182 C   0  0  0  0  0  0
  -21.6047   -4.3047   24.7229 C   0  0  0  0  0  0
  -21.8819   -3.8136   23.4348 C   0  0  0  0  0  0
  -21.9191   -4.6955   22.3410 C   0  0  0  0  0  0
  -22.7835  -13.5224   21.1866 C   0  0  0  0  0  0
  -22.1663   -4.2145   21.0984 F   0  0  0  0  0  0
  -21.5638   -3.4528   25.7742 F   0  0  0  0  0  0
  -30.0245  -13.3444   20.4158 N   0  0  0  0  0  0
  -26.2950  -12.9201   20.3346 N   0  0  0  0  0  0
  -25.9261  -11.6391   20.5790 N   0  0  0  0  0  0
  -22.0460  -12.8226   22.0415 N   0  0  0  0  0  0
  -25.4293  -15.1799   20.4077 N   0  0  0  0  0  0
  -31.8780  -14.6508   20.1715 O   0  0  0  0  0  0
  -21.6624   -6.8860   21.4244 O   0  0  0  0  0  0
  -22.3546  -14.5542   20.6712 O   0  0  0  0  0  0
  -24.6126  -31.8685   23.2110 C   0  0  0  0  0  0
  -25.9024  -32.4826   23.8407 C   0  0  1  0  0  0
  -27.2432  -27.4372   20.1071 C   0  0  0  0  0  0
  -25.5891  -33.8623   24.2332 N   0  0  0  0  0  0
  -23.4032  -30.4902   21.5492 C   0  0  2  0  0  0
  -24.8564  -28.9550   20.1174 C   0  0  0  0  0  0
  -22.7406  -29.4659   22.4978 C   0  0  0  0  0  0
  -18.0272  -28.1379   22.8488 C   0  0  0  0  0  0
  -24.1487  -36.7314   23.2638 C   0  0  0  0  0  0
  -25.9319  -30.8320   21.3697 C   0  0  0  0  0  0
  -26.0123  -29.4637   20.7249 C   0  0  0  0  0  0
  -27.2084  -28.7086   20.7291 C   0  0  0  0  0  0
  -26.0782  -26.9491   19.4843 C   0  0  0  0  0  0
  -24.8829  -27.6937   19.4966 C   0  0  0  0  0  0
  -23.6159  -29.8194   20.1647 C   0  0  0  0  0  0
  -25.4101  -36.3112   24.0344 C   0  0  1  0  0  0
  -20.5862  -28.3665   23.1321 C   0  0  2  0  0  0
  -20.6758  -26.9400   22.5425 C   0  0  0  0  0  0
  -19.5745  -26.6386   21.5214 C   0  0  0  0  0  0
  -18.1919  -26.7934   22.1608 C   0  0  0  0  0  0
  -19.1521  -28.8836   23.2905 C   0  0  0  0  0  0
  -18.9450  -30.1442   23.8917 C   0  0  0  0  0  0
  -17.6452  -30.6588   24.0561 C   0  0  0  0  0  0
  -25.9031  -34.9480   23.5134 C   0  0  0  0  0  0
  -16.5341  -29.9089   23.6328 C   0  0  0  0  0  0
  -16.7260  -28.6503   23.0351 C   0  0  0  0  0  0
  -26.4460  -31.6603   25.0731 C   0  0  0  0  0  0
  -25.3729  -31.3731   26.1488 C   0  0  0  0  0  0
  -27.0281  -30.3036   24.6116 C   0  0  0  0  0  0
  -27.6044  -32.4325   25.7477 C   0  0  0  0  0  0
  -27.5594  -37.1793   24.8446 C   0  0  0  0  0  0
  -21.4133  -29.3030   22.3719 N   0  0  0  0  0  0
  -26.4282  -37.3802   23.9431 N   0  0  0  0  0  0
  -24.6668  -31.0787   22.1014 N   0  0  0  0  0  0
  -23.4177  -28.8203   23.3023 O   0  0  0  0  0  0
  -28.3700  -26.6456   20.0573 O   0  0  0  0  0  0
  -26.5594  -34.8932   22.4695 O   0  0  0  0  0  0
  -23.5319  -32.1436   23.7499 O   0  0  0  0  0  0
  -30.8327  -17.8568   21.8270 C   0  0  0  0  0  0
  -29.5730  -17.7379   19.6987 C   0  0  0  0  0  0
  -28.8554  -23.1079   19.8646 C   0  0  0  0  0  0
  -30.4018  -16.3970   22.1563 C   0  0  0  0  0  0
  -29.1083  -16.3100   20.0492 C   0  0  0  0  0  0
  -29.9330  -22.4717   20.7246 C   0  0  1  0  0  0
  -29.2194  -23.7488   21.1794 C   0  0  1  0  0  0
  -29.7996  -18.6007   20.9495 C   0  0  0  0  0  0
  -30.9144  -25.1328   22.4057 C   0  0  0  0  0  0
  -29.6963  -21.1043   21.3850 C   0  0  0  0  0  0
  -28.9627  -26.3293   21.3172 C   0  0  0  0  0  0
  -29.9279  -25.1102   21.2276 C   0  0  2  0  0  0
  -30.0027  -15.5957   20.9806 N   0  0  0  0  0  0
  -30.2203  -19.9796   20.5628 N   0  3  0  0  0  0
  -31.4659  -12.4395   19.1156 H   0  0  0  0  0  0
  -30.3373  -11.3342   19.8500 H   0  0  0  0  0  0
  -29.7446  -11.7637   17.4372 H   0  0  0  0  0  0
  -29.6362  -13.4770   17.7536 H   0  0  0  0  0  0
  -27.8497  -11.2739   18.8454 H   0  0  0  0  0  0
  -27.3573  -12.5705   17.7890 H   0  0  0  0  0  0
  -27.6415  -14.2119   19.5104 H   0  0  0  0  0  0
  -28.6964  -12.0244   21.3798 H   0  0  0  0  0  0
  -28.4600  -13.6903   21.8277 H   0  0  0  0  0  0
  -25.2734   -9.5665   22.4768 H   0  0  0  0  0  0
  -24.0000   -7.4594   22.7454 H   0  0  0  0  0  0
  -21.0820   -8.8722   19.8952 H   0  0  0  0  0  0
  -22.3650  -10.9645   19.6167 H   0  0  0  0  0  0
  -21.1976   -7.6135   23.9718 H   0  0  0  0  0  0
  -21.1484   -6.0514   25.9086 H   0  0  0  0  0  0
  -22.0604   -2.7601   23.2844 H   0  0  0  0  0  0
  -22.4053  -11.9879   22.4804 H   0  0  0  0  0  0
  -21.1079  -13.1271   22.2616 H   0  0  0  0  0  0
  -24.6647  -15.8377   20.5147 H   0  0  0  0  0  0
  -26.2827  -15.6117   20.0806 H   0  0  0  0  0  0
  -26.7095  -32.5551   23.1178 H   0  0  0  0  0  0
  -25.0044  -33.9788   25.0479 H   0  0  0  0  0  0
  -22.6921  -31.3069   21.4074 H   0  0  0  0  0  0
  -23.3766  -35.9627   23.3259 H   0  0  0  0  0  0
  -24.3596  -36.8965   22.2061 H   0  0  0  0  0  0
  -23.7209  -37.6497   23.6671 H   0  0  0  0  0  0
  -26.0463  -31.5957   20.5993 H   0  0  0  0  0  0
  -26.8179  -30.8875   21.9897 H   0  0  0  0  0  0
  -28.0981  -29.1042   21.1983 H   0  0  0  0  0  0
  -26.0963  -25.9826   19.0002 H   0  0  0  0  0  0
  -23.9963  -27.2968   19.0219 H   0  0  0  0  0  0
  -23.7216  -30.5924   19.4026 H   0  0  0  0  0  0
  -22.7421  -29.2350   19.8705 H   0  0  0  0  0  0
  -25.1269  -36.1971   25.0835 H   0  0  0  0  0  0
  -20.9959  -28.3232   24.1440 H   0  0  0  0  0  0
  -20.5651  -26.2274   23.3611 H   0  0  0  0  0  0
  -21.6630  -26.7441   22.1225 H   0  0  0  0  0  0
  -19.6906  -25.6300   21.1238 H   0  0  0  0  0  0
  -19.6703  -27.3199   20.6749 H   0  0  0  0  0  0
  -17.4204  -26.6705   21.3993 H   0  0  0  0  0  0
  -18.0299  -26.0064   22.8988 H   0  0  0  0  0  0
  -19.7928  -30.7248   24.2299 H   0  0  0  0  0  0
  -17.5013  -31.6271   24.5153 H   0  0  0  0  0  0
  -15.5345  -30.2993   23.7651 H   0  0  0  0  0  0
  -15.8658  -28.0829   22.7060 H   0  0  0  0  0  0
  -24.5892  -30.7082   25.7839 H   0  0  0  0  0  0
  -24.8935  -32.2900   26.4927 H   0  0  0  0  0  0
  -25.8086  -30.8911   27.0249 H   0  0  0  0  0  0
  -26.2826  -29.6812   24.1154 H   0  0  0  0  0  0
  -27.4016  -29.7258   25.4581 H   0  0  0  0  0  0
  -27.8681  -30.4335   23.9289 H   0  0  0  0  0  0
  -27.2664  -33.3613   26.2085 H   0  0  0  0  0  0
  -28.3828  -32.6906   25.0283 H   0  0  0  0  0  0
  -28.0744  -31.8437   26.5364 H   0  0  0  0  0  0
  -28.2564  -38.0140   24.7574 H   0  0  0  0  0  0
  -28.1140  -36.2681   24.6152 H   0  0  0  0  0  0
  -27.2342  -37.1298   25.8852 H   0  0  0  0  0  0
  -20.9291  -29.8749   21.6941 H   0  0  0  0  0  0
  -26.0172  -38.2872   24.1479 H   0  0  0  0  0  0
  -31.7982  -17.8330   21.3195 H   0  0  0  0  0  0
  -30.9930  -18.4030   22.7576 H   0  0  0  0  0  0
  -28.8249  -18.2034   19.0551 H   0  0  0  0  0  0
  -30.4908  -17.6824   19.1109 H   0  0  0  0  0  0
  -27.8846  -22.6186   19.8075 H   0  0  0  0  0  0
  -29.1740  -23.6079   18.9518 H   0  0  0  0  0  0
  -29.5511  -16.4186   22.8397 H   0  0  0  0  0  0
  -31.2040  -15.8954   22.7019 H   0  0  0  0  0  0
  -29.0218  -15.7701   19.1053 H   0  0  0  0  0  0
  -28.1126  -16.3443   20.4920 H   0  0  0  0  0  0
  -30.9611  -22.6191   20.3964 H   0  0  0  0  0  0
  -28.5033  -23.6120   21.9878 H   0  0  0  0  0  0
  -28.8530  -18.6620   21.4898 H   0  0  0  0  0  0
  -31.6307  -24.3135   22.3398 H   0  0  0  0  0  0
  -30.3952  -25.0447   23.3608 H   0  0  0  0  0  0
  -31.4872  -26.0604   22.4243 H   0  0  0  0  0  0
  -28.6264  -20.9767   21.5582 H   0  0  0  0  0  0
  -30.1821  -21.0908   22.3616 H   0  0  0  0  0  0
  -29.5153  -27.2095   21.6497 H   0  0  0  0  0  0
  -28.1962  -26.1406   22.0711 H   0  0  0  0  0  0
  -30.5182  -25.2177   20.3164 H   0  0  0  0  0  0
  -29.8734  -20.1388   19.6311 H   0  0  0  0  0  0
  -31.2251  -20.0318   20.5143 H   0  0  0  0  0  0
  1 25  1  0  0  0
  1 30  2  0  0  0
  1 83  1  0  0  0
  2  3  1  0  0  0
  2 25  1  0  0  0
  2 85  1  0  0  0
  2 86  1  0  0  0
  3  4  1  0  0  0
  3 87  1  0  0  0
  3 88  1  0  0  0
  4  5  1  0  0  0
  4 89  1  0  0  0
  4 90  1  0  0  0
  5  6  1  0  0  0
  5 26  1  0  0  0
  5 91  1  0  0  0
  6 25  1  0  0  0
  6 92  1  0  0  0
  6 93  1  0  0  0
  7  8  2  0  0  0
  7 26  1  0  0  0
  7 29  1  0  0  0
  8  9  1  0  0  0
  8 22  1  0  0  0
  9 10  1  0  0  0
  9 27  2  0  0  0
 10 11  2  0  0  0
 10 15  1  0  0  0
 11 12  1  0  0  0
 11 94  1  0  0  0
 12 13  2  0  0  0
 12 95  1  0  0  0
 13 14  1  0  0  0
 13 31  1  0  0  0
 14 15  2  0  0  0
 14 96  1  0  0  0
 15 97  1  0  0  0
 16 17  2  0  0  0
 16 21  1  0  0  0
 16 31  1  0  0  0
 17 18  1  0  0  0
 17 98  1  0  0  0
 18 19  2  0  0  0
 18 99  1  0  0  0
 19 20  1  0  0  0
 19 24  1  0  0  0
 20 21  2  0  0  0
 20100  1  0  0  0
 21 23  1  0  0  0
 22 28  1  0  0  0
 22 32  2  0  0  0
 26 27  1  0  0  0
 28101  1  0  0  0
 28102  1  0  0  0
 29103  1  0  0  0
 29104  1  0  0  0
 33 34  1  0  0  0
 33 66  1  0  0  0
 33 70  2  0  0  0
 34 36  1  0  0  0
 34 59  1  0  0  0
 34105  1  0  0  0
 35 44  2  0  0  0
 35 45  1  0  0  0
 35 68  1  0  0  0
 36 56  1  0  0  0
 36106  1  0  0  0
 37 39  1  0  0  0
 37 47  1  0  0  0
 37 66  1  0  0  0
 37107  1  0  0  0
 38 43  2  0  0  0
 38 46  1  0  0  0
 38 47  1  0  0  0
 39 64  1  0  0  0
 39 67  2  0  0  0
 40 52  1  0  0  0
 40 53  2  0  0  0
 40 58  1  0  0  0
 41108  1  0  0  0
 41109  1  0  0  0
 41110  1  0  0  0
 41 48  1  0  0  0
 42 43  1  0  0  0
 42 66  1  0  0  0
 42111  1  0  0  0
 42112  1  0  0  0
 43 44  1  0  0  0
 44113  1  0  0  0
 45 46  2  0  0  0
 45114  1  0  0  0
 46115  1  0  0  0
 47116  1  0  0  0
 47117  1  0  0  0
 48 56  1  0  0  0
 48 65  1  0  0  0
 48118  1  0  0  0
 49 50  1  0  0  0
 49 53  1  0  0  0
 49 64  1  0  0  0
 49119  1  0  0  0
 50 51  1  0  0  0
 50120  1  0  0  0
 50121  1  0  0  0
 51 52  1  0  0  0
 51122  1  0  0  0
 51123  1  0  0  0
 52124  1  0  0  0
 52125  1  0  0  0
 53 54  1  0  0  0
 54 55  2  0  0  0
 54126  1  0  0  0
 55 57  1  0  0  0
 55127  1  0  0  0
 56 69  2  0  0  0
 57 58  2  0  0  0
 57128  1  0  0  0
 58129  1  0  0  0
 59 60  1  0  0  0
 59 61  1  0  0  0
 59 62  1  0  0  0
 60130  1  0  0  0
 60131  1  0  0  0
 60132  1  0  0  0
 61133  1  0  0  0
 61134  1  0  0  0
 61135  1  0  0  0
 62136  1  0  0  0
 62137  1  0  0  0
 62138  1  0  0  0
 63 65  1  0  0  0
 63139  1  0  0  0
 63140  1  0  0  0
 63141  1  0  0  0
 64142  1  0  0  0
 65143  1  0  0  0
 68 81  1  0  0  0
 71 74  1  0  0  0
 71 78  1  0  0  0
 71144  1  0  0  0
 71145  1  0  0  0
 72 75  1  0  0  0
 72 78  1  0  0  0
 72146  1  0  0  0
 72147  1  0  0  0
 73 76  1  0  0  0
 73148  1  0  0  0
 73149  1  0  0  0
 73 77  1  0  0  0
 74 83  1  0  0  0
 74150  1  0  0  0
 74151  1  0  0  0
 75 83  1  0  0  0
 75152  1  0  0  0
 75153  1  0  0  0
 76 77  1  0  0  0
 76 80  1  0  0  0
 76154  1  0  0  0
 77 82  1  0  0  0
 77155  1  0  0  0
 78 84  1  0  0  0
 78156  1  0  0  0
 79157  1  0  0  0
 79158  1  0  0  0
 79159  1  0  0  0
 79 82  1  0  0  0
 80 84  1  0  0  0
 80160  1  0  0  0
 80161  1  0  0  0
 81 82  1  0  0  0
 81162  1  0  0  0
 81163  1  0  0  0
 82164  1  0  0  0
 84165  1  0  0  0
 84166  1  0  0  0
M  CHG  1  84   1
M  ISO  4   1 100  68 101  81 101  83 100
M  END
> <chiral flag>
0

> <version>
0

> <s_m_source_file>
/data/baiqing/PycharmProjects/Reinvent-master-3.2/result/LINK_invent/BTK/process_docking_weight1_custom_sum_contain_oxygen_bond_distance_aromatic_linkinvent_7_9_3/rearranged_h_0120.sdf

> <i_m_source_file_index>
75

> <r_mmod_Potential_Energy-OPLS-2005>
97.0797576904297

> <r_mmod_Stretch_Energy-OPLS-2005>
39.5171928405762

> <r_mmod_Bend_Energy-OPLS-2005>
100.323402404785

> <r_mmod_Torsional_Energy-OPLS-2005>
415.228240966797

> <r_mmod_Improper_Torsional_Energy-OPLS-2005>
4.33884525299072

> <r_mmod_Van_der_Waal_Energy-OPLS-2005>
122.684356689453

> <r_mmod_Electrostatic_Energy-OPLS-2005>
-163.093688964844

> <r_mmod_Solvation_Energy-OPLS-2005>
-440.762329101562

> <b_mmod_Minimization_Converged-OPLS-2005>
0

> <r_mmod_RMS_Derivative-OPLS-2005>
1.02693855762482

$$$$
76
                    3D
 Structure written by MMmdl.
160168  0  0  1  0            999 V2000
  -30.7221  -14.4275   20.6002 C   0  0  0  0  0  0
  -30.4127  -12.2900   19.4133 C   0  0  0  0  0  0
  -29.4886  -12.5151   18.2005 C   0  0  0  0  0  0
  -28.0098  -12.3783   18.6108 C   0  0  0  0  0  0
  -27.6608  -13.2067   19.8776 C   0  0  2  0  0  0
  -28.7002  -12.9693   20.9966 C   0  0  0  0  0  0
  -25.2571  -13.8171   20.5658 C   0  0  0  0  0  0
  -24.1826  -13.0444   20.9158 C   0  0  0  0  0  0
  -24.6382  -11.6916   20.8713 C   0  0  0  0  0  0
  -23.9042  -10.4302   21.0367 C   0  0  0  0  0  0
  -24.3598   -9.4219   21.9143 C   0  0  0  0  0  0
  -23.6284   -8.2249   22.0732 C   0  0  0  0  0  0
  -22.4268   -8.0271   21.3531 C   0  0  0  0  0  0
  -21.9890   -9.0234   20.4632 C   0  0  0  0  0  0
  -22.7209  -10.2119   20.3029 C   0  0  0  0  0  0
  -21.6861   -6.0710   22.5269 C   0  0  0  0  0  0
  -21.4026   -6.5619   23.8196 C   0  0  0  0  0  0
  -21.3668   -5.6778   24.9156 C   0  0  0  0  0  0
  -21.6045   -4.3041   24.7211 C   0  0  0  0  0  0
  -21.8827   -3.8124   23.4338 C   0  0  0  0  0  0
  -21.9207   -4.6937   22.3394 C   0  0  0  0  0  0
  -22.7847  -13.5225   21.1826 C   0  0  0  0  0  0
  -22.1668   -4.2122   21.0965 F   0  0  0  0  0  0
  -21.5622   -3.4533   25.7721 F   0  0  0  0  0  0
  -30.0329  -13.2651   20.4452 N   0  0  0  0  0  0
  -26.3007  -12.9340   20.3363 N   0  0  0  0  0  0
  -25.9308  -11.6503   20.5753 N   0  0  0  0  0  0
  -22.0506  -12.8236   22.0413 N   0  0  0  0  0  0
  -25.4285  -15.1886   20.4028 N   0  0  0  0  0  0
  -31.8376  -14.6146   20.1047 O   0  0  0  0  0  0
  -21.6651   -6.8856   21.4232 O   0  0  0  0  0  0
  -22.3537  -14.5526   20.6659 O   0  0  0  0  0  0
  -24.6147  -31.8684   23.2128 C   0  0  0  0  0  0
  -25.9057  -32.4822   23.8388 C   0  0  1  0  0  0
  -27.2301  -27.4499   20.0715 C   0  0  0  0  0  0
  -25.5917  -33.8624   24.2325 N   0  0  0  0  0  0
  -23.4004  -30.4966   21.5517 C   0  0  2  0  0  0
  -24.8417  -28.9636   20.1167 C   0  0  0  0  0  0
  -22.7391  -29.4680   22.4974 C   0  0  0  0  0  0
  -18.0278  -28.1376   22.8495 C   0  0  0  0  0  0
  -24.1485  -36.7322   23.2637 C   0  0  0  0  0  0
  -25.9293  -30.8377   21.3636 C   0  0  0  0  0  0
  -26.0033  -29.4721   20.7111 C   0  0  0  0  0  0
  -27.1975  -28.7177   20.6959 C   0  0  0  0  0  0
  -26.0373  -26.9386   19.5107 C   0  0  0  0  0  0
  -24.8501  -27.6922   19.5215 C   0  0  0  0  0  0
  -23.6065  -29.8330   20.1646 C   0  0  0  0  0  0
  -25.4106  -36.3121   24.0334 C   0  0  1  0  0  0
  -20.5863  -28.3676   23.1303 C   0  0  2  0  0  0
  -20.6773  -26.9410   22.5407 C   0  0  0  0  0  0
  -19.5755  -26.6388   21.5197 C   0  0  0  0  0  0
  -18.1934  -26.7929   22.1611 C   0  0  0  0  0  0
  -19.1526  -28.8838   23.2902 C   0  0  0  0  0  0
  -18.9462  -30.1445   23.8907 C   0  0  0  0  0  0
  -17.6468  -30.6585   24.0562 C   0  0  0  0  0  0
  -25.9031  -34.9476   23.5118 C   0  0  0  0  0  0
  -16.5353  -29.9092   23.6322 C   0  0  0  0  0  0
  -16.7267  -28.6507   23.0346 C   0  0  0  0  0  0
  -26.4488  -31.6609   25.0720 C   0  0  0  0  0  0
  -25.3781  -31.3720   26.1494 C   0  0  0  0  0  0
  -27.0311  -30.3051   24.6089 C   0  0  0  0  0  0
  -27.6052  -32.4339   25.7494 C   0  0  0  0  0  0
  -27.5578  -37.1820   24.8462 C   0  0  0  0  0  0
  -21.4131  -29.3056   22.3716 N   0  0  0  0  0  0
  -26.4296  -37.3800   23.9403 N   0  0  0  0  0  0
  -24.6668  -31.0810   22.1018 N   0  0  0  0  0  0
  -23.4169  -28.8219   23.3007 O   0  0  0  0  0  0
  -28.4034  -26.7252   20.0639 O   0  0  0  0  0  0
  -26.5577  -34.8934   22.4672 O   0  0  0  0  0  0
  -23.5356  -32.1427   23.7547 O   0  0  0  0  0  0
  -31.7955  -19.1041   21.7983 C   0  0  0  0  0  0
  -31.5083  -16.9179   22.4458 C   0  0  0  0  0  0
  -30.8607  -18.9264   20.7514 C   0  0  0  0  0  0
  -30.5674  -16.7172   21.4036 C   0  0  0  0  0  0
  -30.1606  -19.5447   18.3668 C   0  0  0  0  0  0
  -29.7011  -24.8687   19.0754 C   0  0  0  0  0  0
  -29.1006  -23.6245   19.7778 C   0  0  0  0  0  0
  -29.7280  -21.2121   20.2778 C   0  0  0  0  0  0
  -28.7408  -26.0504   18.8483 C   0  0  0  0  0  0
  -30.6264  -20.0632   19.7476 C   0  0  1  0  0  0
  -32.1119  -18.1092   22.6574 N   0  0  0  0  0  0
  -30.2019  -17.7455   20.5893 N   0  0  0  0  0  0
  -30.0603  -15.4117   21.2285 N   0  0  0  0  0  0
  -29.8638  -22.4080   19.4093 N   0  3  0  0  0  0
  -31.4587  -12.3769   19.1152 H   0  0  0  0  0  0
  -30.2985  -11.2749   19.7967 H   0  0  0  0  0  0
  -29.7231  -11.8032   17.4081 H   0  0  0  0  0  0
  -29.6641  -13.5081   17.7837 H   0  0  0  0  0  0
  -27.8160  -11.3211   18.7964 H   0  0  0  0  0  0
  -27.3608  -12.6649   17.7824 H   0  0  0  0  0  0
  -27.7109  -14.2580   19.5933 H   0  0  0  0  0  0
  -28.6674  -11.9328   21.3323 H   0  0  0  0  0  0
  -28.4643  -13.5653   21.8788 H   0  0  0  0  0  0
  -25.2734   -9.5709   22.4724 H   0  0  0  0  0  0
  -23.9998   -7.4646   22.7464 H   0  0  0  0  0  0
  -21.0802   -8.8723   19.8965 H   0  0  0  0  0  0
  -22.3618  -10.9633   19.6147 H   0  0  0  0  0  0
  -21.2029   -7.6129   23.9686 H   0  0  0  0  0  0
  -21.1485   -6.0506   25.9054 H   0  0  0  0  0  0
  -22.0613   -2.7590   23.2834 H   0  0  0  0  0  0
  -22.4132  -11.9903   22.4802 H   0  0  0  0  0  0
  -21.1119  -13.1242   22.2610 H   0  0  0  0  0  0
  -24.6548  -15.8385   20.4898 H   0  0  0  0  0  0
  -26.2776  -15.6300   20.0716 H   0  0  0  0  0  0
  -26.7124  -32.5519   23.1145 H   0  0  0  0  0  0
  -25.0134  -33.9771   25.0515 H   0  0  0  0  0  0
  -22.6925  -31.3171   21.4156 H   0  0  0  0  0  0
  -23.3738  -35.9660   23.3311 H   0  0  0  0  0  0
  -24.3598  -36.8928   22.2052 H   0  0  0  0  0  0
  -23.7236  -37.6532   23.6643 H   0  0  0  0  0  0
  -26.0403  -31.6064   20.5971 H   0  0  0  0  0  0
  -26.8190  -30.8883   21.9805 H   0  0  0  0  0  0
  -28.0956  -29.1085   21.1527 H   0  0  0  0  0  0
  -25.9942  -25.9493   19.0805 H   0  0  0  0  0  0
  -23.9502  -27.2841   19.0825 H   0  0  0  0  0  0
  -23.7211  -30.6099   19.4076 H   0  0  0  0  0  0
  -22.7286  -29.2596   19.8611 H   0  0  0  0  0  0
  -25.1284  -36.1987   25.0825 H   0  0  0  0  0  0
  -20.9969  -28.3245   24.1414 H   0  0  0  0  0  0
  -20.5675  -26.2279   23.3598 H   0  0  0  0  0  0
  -21.6648  -26.7466   22.1192 H   0  0  0  0  0  0
  -19.6917  -25.6301   21.1221 H   0  0  0  0  0  0
  -19.6685  -27.3199   20.6732 H   0  0  0  0  0  0
  -17.4203  -26.6678   21.4015 H   0  0  0  0  0  0
  -18.0345  -26.0055   22.8999 H   0  0  0  0  0  0
  -19.7944  -30.7255   24.2269 H   0  0  0  0  0  0
  -17.5030  -31.6260   24.5179 H   0  0  0  0  0  0
  -15.5356  -30.3000   23.7643 H   0  0  0  0  0  0
  -15.8672  -28.0831   22.7046 H   0  0  0  0  0  0
  -24.5923  -30.7090   25.7858 H   0  0  0  0  0  0
  -24.9018  -32.2886   26.4982 H   0  0  0  0  0  0
  -25.8173  -30.8870   27.0220 H   0  0  0  0  0  0
  -26.2834  -29.6818   24.1173 H   0  0  0  0  0  0
  -27.4113  -29.7293   25.4537 H   0  0  0  0  0  0
  -27.8659  -30.4367   23.9201 H   0  0  0  0  0  0
  -27.2632  -33.3612   26.2103 H   0  0  0  0  0  0
  -28.3851  -32.6949   25.0329 H   0  0  0  0  0  0
  -28.0723  -31.8450   26.5398 H   0  0  0  0  0  0
  -28.2606  -38.0113   24.7516 H   0  0  0  0  0  0
  -28.1068  -36.2645   24.6280 H   0  0  0  0  0  0
  -27.2306  -37.1464   25.8872 H   0  0  0  0  0  0
  -20.9284  -29.8778   21.6944 H   0  0  0  0  0  0
  -26.0187  -38.2875   24.1418 H   0  0  0  0  0  0
  -32.3067  -20.0462   21.9341 H   0  0  0  0  0  0
  -31.7960  -16.1135   23.1081 H   0  0  0  0  0  0
  -30.8364  -18.7798   17.9851 H   0  0  0  0  0  0
  -30.1237  -20.3397   17.6218 H   0  0  0  0  0  0
  -29.1628  -19.1064   18.4245 H   0  0  0  0  0  0
  -30.0563  -24.5772   18.0861 H   0  0  0  0  0  0
  -30.5860  -25.2094   19.6144 H   0  0  0  0  0  0
  -28.0570  -23.4791   19.4940 H   0  0  0  0  0  0
  -29.1147  -23.7731   20.8585 H   0  0  0  0  0  0
  -30.0307  -21.4828   21.2906 H   0  0  0  0  0  0
  -28.6857  -20.8942   20.3334 H   0  0  0  0  0  0
  -27.8926  -25.6948   18.2665 H   0  0  0  0  0  0
  -29.2378  -26.7831   18.2118 H   0  0  0  0  0  0
  -31.6222  -20.4820   19.5900 H   0  0  0  0  0  0
  -29.1186  -15.2280   21.5342 H   0  0  0  0  0  0
  -30.8395  -22.6563   19.3895 H   0  0  0  0  0  0
  -29.5975  -22.1468   18.4738 H   0  0  0  0  0  0
  1 25  1  0  0  0
  1 30  2  0  0  0
  1 83  1  0  0  0
  2  3  1  0  0  0
  2 25  1  0  0  0
  2 85  1  0  0  0
  2 86  1  0  0  0
  3  4  1  0  0  0
  3 87  1  0  0  0
  3 88  1  0  0  0
  4  5  1  0  0  0
  4 89  1  0  0  0
  4 90  1  0  0  0
  5  6  1  0  0  0
  5 26  1  0  0  0
  5 91  1  0  0  0
  6 25  1  0  0  0
  6 92  1  0  0  0
  6 93  1  0  0  0
  7  8  2  0  0  0
  7 26  1  0  0  0
  7 29  1  0  0  0
  8  9  1  0  0  0
  8 22  1  0  0  0
  9 10  1  0  0  0
  9 27  2  0  0  0
 10 11  2  0  0  0
 10 15  1  0  0  0
 11 12  1  0  0  0
 11 94  1  0  0  0
 12 13  2  0  0  0
 12 95  1  0  0  0
 13 14  1  0  0  0
 13 31  1  0  0  0
 14 15  2  0  0  0
 14 96  1  0  0  0
 15 97  1  0  0  0
 16 17  2  0  0  0
 16 21  1  0  0  0
 16 31  1  0  0  0
 17 18  1  0  0  0
 17 98  1  0  0  0
 18 19  2  0  0  0
 18 99  1  0  0  0
 19 20  1  0  0  0
 19 24  1  0  0  0
 20 21  2  0  0  0
 20100  1  0  0  0
 21 23  1  0  0  0
 22 28  1  0  0  0
 22 32  2  0  0  0
 26 27  1  0  0  0
 28101  1  0  0  0
 28102  1  0  0  0
 29103  1  0  0  0
 29104  1  0  0  0
 33 34  1  0  0  0
 33 66  1  0  0  0
 33 70  2  0  0  0
 34 36  1  0  0  0
 34 59  1  0  0  0
 34105  1  0  0  0
 35 44  2  0  0  0
 35 45  1  0  0  0
 35 68  1  0  0  0
 36 56  1  0  0  0
 36106  1  0  0  0
 37 39  1  0  0  0
 37 47  1  0  0  0
 37 66  1  0  0  0
 37107  1  0  0  0
 38 43  2  0  0  0
 38 46  1  0  0  0
 38 47  1  0  0  0
 39 64  1  0  0  0
 39 67  2  0  0  0
 40 52  1  0  0  0
 40 53  2  0  0  0
 40 58  1  0  0  0
 41108  1  0  0  0
 41109  1  0  0  0
 41110  1  0  0  0
 41 48  1  0  0  0
 42 43  1  0  0  0
 42 66  1  0  0  0
 42111  1  0  0  0
 42112  1  0  0  0
 43 44  1  0  0  0
 44113  1  0  0  0
 45 46  2  0  0  0
 45114  1  0  0  0
 46115  1  0  0  0
 47116  1  0  0  0
 47117  1  0  0  0
 48 56  1  0  0  0
 48 65  1  0  0  0
 48118  1  0  0  0
 49 50  1  0  0  0
 49 53  1  0  0  0
 49 64  1  0  0  0
 49119  1  0  0  0
 50 51  1  0  0  0
 50120  1  0  0  0
 50121  1  0  0  0
 51 52  1  0  0  0
 51122  1  0  0  0
 51123  1  0  0  0
 52124  1  0  0  0
 52125  1  0  0  0
 53 54  1  0  0  0
 54 55  2  0  0  0
 54126  1  0  0  0
 55 57  1  0  0  0
 55127  1  0  0  0
 56 69  2  0  0  0
 57 58  2  0  0  0
 57128  1  0  0  0
 58129  1  0  0  0
 59 60  1  0  0  0
 59 61  1  0  0  0
 59 62  1  0  0  0
 60130  1  0  0  0
 60131  1  0  0  0
 60132  1  0  0  0
 61133  1  0  0  0
 61134  1  0  0  0
 61135  1  0  0  0
 62136  1  0  0  0
 62137  1  0  0  0
 62138  1  0  0  0
 63 65  1  0  0  0
 63139  1  0  0  0
 63140  1  0  0  0
 63141  1  0  0  0
 64142  1  0  0  0
 65143  1  0  0  0
 68 79  1  0  0  0
 71 73  2  0  0  0
 71 81  1  0  0  0
 71144  1  0  0  0
 72 74  1  0  0  0
 72 81  2  0  0  0
 72145  1  0  0  0
 73 80  1  0  0  0
 73 82  1  0  0  0
 74 82  2  0  0  0
 74 83  1  0  0  0
 75146  1  0  0  0
 75147  1  0  0  0
 75148  1  0  0  0
 75 80  1  0  0  0
 76 77  1  0  0  0
 76 79  1  0  0  0
 76149  1  0  0  0
 76150  1  0  0  0
 77 84  1  0  0  0
 77151  1  0  0  0
 77152  1  0  0  0
 78 80  1  0  0  0
 78 84  1  0  0  0
 78153  1  0  0  0
 78154  1  0  0  0
 79155  1  0  0  0
 79156  1  0  0  0
 80157  1  0  0  0
 83158  1  0  0  0
 84159  1  0  0  0
 84160  1  0  0  0
M  CHG  1  84   1
M  ISO  4   1 100  68 101  79 101  83 100
M  END
> <chiral flag>
0

> <version>
0

> <s_m_source_file>
/data/baiqing/PycharmProjects/Reinvent-master-3.2/result/LINK_invent/BTK/process_docking_weight1_custom_sum_contain_oxygen_bond_distance_aromatic_linkinvent_7_9_3/rearranged_h_0120.sdf

> <i_m_source_file_index>
76

> <r_mmod_Potential_Energy-OPLS-2005>
-198.485961914062

> <r_mmod_Stretch_Energy-OPLS-2005>
36.504020690918

> <r_mmod_Bend_Energy-OPLS-2005>
97.5091094970703

> <r_mmod_Torsional_Energy-OPLS-2005>
255.905471801758

> <r_mmod_Improper_Torsional_Energy-OPLS-2005>
2.97729110717773

> <r_mmod_Van_der_Waal_Energy-OPLS-2005>
161.971466064453

> <r_mmod_Electrostatic_Energy-OPLS-2005>
-270.267669677734

> <r_mmod_Solvation_Energy-OPLS-2005>
-493.039031982422

> <b_mmod_Minimization_Converged-OPLS-2005>
0

> <r_mmod_RMS_Derivative-OPLS-2005>
2.51649355888367

$$$$
77
                    3D
 Structure written by MMmdl.
181190  0  0  1  0            999 V2000
  -30.6888  -14.4551   20.4202 C   0  0  0  0  0  0
  -30.4192  -12.2558   19.4236 C   0  0  0  0  0  0
  -29.4920  -12.4433   18.2039 C   0  0  0  0  0  0
  -28.0108  -12.3308   18.6220 C   0  0  0  0  0  0
  -27.6546  -13.1932   19.8647 C   0  0  2  0  0  0
  -28.7079  -13.0141   20.9862 C   0  0  0  0  0  0
  -25.2545  -13.8092   20.5683 C   0  0  0  0  0  0
  -24.1806  -13.0384   20.9215 C   0  0  0  0  0  0
  -24.6363  -11.6855   20.8776 C   0  0  0  0  0  0
  -23.9028  -10.4258   21.0434 C   0  0  0  0  0  0
  -24.3590   -9.4172   21.9204 C   0  0  0  0  0  0
  -23.6263   -8.2218   22.0776 C   0  0  0  0  0  0
  -22.4257   -8.0269   21.3552 C   0  0  0  0  0  0
  -21.9881   -9.0238   20.4656 C   0  0  0  0  0  0
  -22.7206  -10.2112   20.3066 C   0  0  0  0  0  0
  -21.6843   -6.0714   22.5271 C   0  0  0  0  0  0
  -21.4009   -6.5632   23.8200 C   0  0  0  0  0  0
  -21.3658   -5.6789   24.9171 C   0  0  0  0  0  0
  -21.6044   -4.3055   24.7230 C   0  0  0  0  0  0
  -21.8824   -3.8131   23.4356 C   0  0  0  0  0  0
  -21.9187   -4.6942   22.3403 C   0  0  0  0  0  0
  -22.7830  -13.5205   21.1844 C   0  0  0  0  0  0
  -22.1656   -4.2127   21.0981 F   0  0  0  0  0  0
  -21.5634   -3.4541   25.7744 F   0  0  0  0  0  0
  -30.0378  -13.2689   20.4116 N   0  0  0  0  0  0
  -26.2992  -12.9252   20.3348 N   0  0  0  0  0  0
  -25.9288  -11.6432   20.5806 N   0  0  0  0  0  0
  -22.0439  -12.8235   22.0402 N   0  0  0  0  0  0
  -25.4171  -15.1808   20.4050 N   0  0  0  0  0  0
  -31.8846  -14.5868   20.1625 O   0  0  0  0  0  0
  -21.6627   -6.8860   21.4243 O   0  0  0  0  0  0
  -22.3556  -14.5511   20.6666 O   0  0  0  0  0  0
  -24.6078  -31.8727   23.2079 C   0  0  0  0  0  0
  -25.8990  -32.4847   23.8382 C   0  0  1  0  0  0
  -27.2248  -27.4748   20.0763 C   0  0  0  0  0  0
  -25.5841  -33.8652   24.2279 N   0  0  0  0  0  0
  -23.3917  -30.4933   21.5518 C   0  0  2  0  0  0
  -24.8333  -28.9691   20.1045 C   0  0  0  0  0  0
  -22.7386  -29.4660   22.5024 C   0  0  0  0  0  0
  -18.0254  -28.1371   22.8468 C   0  0  0  0  0  0
  -24.1493  -36.7355   23.2637 C   0  0  0  0  0  0
  -25.9165  -30.8461   21.3568 C   0  0  0  0  0  0
  -25.9899  -29.4876   20.6999 C   0  0  0  0  0  0
  -27.1870  -28.7453   20.6828 C   0  0  0  0  0  0
  -26.0511  -26.9678   19.4668 C   0  0  0  0  0  0
  -24.8575  -27.7096   19.4846 C   0  0  0  0  0  0
  -23.5911  -29.8228   20.1656 C   0  0  0  0  0  0
  -25.4113  -36.3117   24.0317 C   0  0  1  0  0  0
  -20.5832  -28.3654   23.1332 C   0  0  2  0  0  0
  -20.6745  -26.9400   22.5416 C   0  0  0  0  0  0
  -19.5726  -26.6382   21.5207 C   0  0  0  0  0  0
  -18.1908  -26.7919   22.1616 C   0  0  0  0  0  0
  -19.1498  -28.8828   23.2890 C   0  0  0  0  0  0
  -18.9437  -30.1432   23.8898 C   0  0  0  0  0  0
  -17.6448  -30.6582   24.0555 C   0  0  0  0  0  0
  -25.9023  -34.9500   23.5094 C   0  0  0  0  0  0
  -16.5335  -29.9094   23.6325 C   0  0  0  0  0  0
  -16.7238  -28.6514   23.0315 C   0  0  0  0  0  0
  -26.4411  -31.6670   25.0740 C   0  0  0  0  0  0
  -25.3666  -31.3802   26.1491 C   0  0  0  0  0  0
  -27.0258  -30.3104   24.6150 C   0  0  0  0  0  0
  -27.5964  -32.4426   25.7519 C   0  0  0  0  0  0
  -27.5592  -37.1803   24.8433 C   0  0  0  0  0  0
  -21.4111  -29.3039   22.3780 N   0  0  0  0  0  0
  -26.4306  -37.3789   23.9375 N   0  0  0  0  0  0
  -24.6569  -31.0839   22.0982 N   0  0  0  0  0  0
  -23.4198  -28.8220   23.3040 O   0  0  0  0  0  0
  -28.4129  -26.7876   20.1261 O   0  0  0  0  0  0
  -26.5635  -34.8955   22.4688 O   0  0  0  0  0  0
  -23.5276  -32.1492   23.7462 O   0  0  0  0  0  0
  -29.6565  -22.7175   20.6687 C   0  0  0  0  0  0
  -27.9862  -22.3278   22.5422 C   0  0  0  0  0  0
  -29.8976  -21.2129   20.5918 C   0  0  0  0  0  0
  -28.2620  -20.8197   22.4437 C   0  0  0  0  0  0
  -27.9735  -17.8482   19.2653 C   0  0  0  0  0  0
  -28.0725  -17.6563   17.7388 C   0  0  0  0  0  0
  -30.2742  -16.5479   18.0057 C   0  0  0  0  0  0
  -28.2554  -23.0867   21.2173 C   0  0  1  0  0  0
  -29.7015  -20.5580   21.9689 C   0  0  1  0  0  0
  -30.2380  -16.7343   19.5523 C   0  0  1  0  0  0
  -29.3665  -17.9544   19.9269 C   0  0  2  0  0  0
  -26.6959  -24.9927   21.9578 C   0  0  0  0  0  0
  -31.6358  -18.8639   21.7820 C   0  0  0  0  0  0
  -28.4021  -25.3680   20.0372 C   0  0  0  0  0  0
  -28.0852  -24.6302   21.3736 C   0  0  2  0  0  0
  -30.1385  -19.0736   22.0883 C   0  0  2  0  0  0
  -29.8584  -15.5058   20.2831 N   0  0  0  0  0  0
  -28.9238  -16.4937   17.3978 N   0  3  0  0  0  0
  -29.2376  -18.1115   21.3977 N   0  3  0  0  0  0
  -31.4666  -12.3358   19.1219 H   0  0  0  0  0  0
  -30.3048  -11.2572   19.8485 H   0  0  0  0  0  0
  -29.7212  -11.6910   17.4485 H   0  0  0  0  0  0
  -29.6795  -13.4086   17.7350 H   0  0  0  0  0  0
  -27.8171  -11.2805   18.8413 H   0  0  0  0  0  0
  -27.3610  -12.5861   17.7839 H   0  0  0  0  0  0
  -27.6748  -14.2293   19.5354 H   0  0  0  0  0  0
  -28.6741  -11.9970   21.3814 H   0  0  0  0  0  0
  -28.5050  -13.6747   21.8310 H   0  0  0  0  0  0
  -25.2739   -9.5655   22.4779 H   0  0  0  0  0  0
  -23.9956   -7.4627   22.7520 H   0  0  0  0  0  0
  -21.0799   -8.8768   19.8982 H   0  0  0  0  0  0
  -22.3665  -10.9664   19.6188 H   0  0  0  0  0  0
  -21.2009   -7.6143   23.9694 H   0  0  0  0  0  0
  -21.1477   -6.0529   25.9069 H   0  0  0  0  0  0
  -22.0606   -2.7597   23.2865 H   0  0  0  0  0  0
  -22.3996  -11.9877   22.4804 H   0  0  0  0  0  0
  -21.1085  -13.1341   22.2598 H   0  0  0  0  0  0
  -24.6294  -15.8117   20.5045 H   0  0  0  0  0  0
  -26.2290  -15.6280   20.0128 H   0  0  0  0  0  0
  -26.7094  -32.5540   23.1176 H   0  0  0  0  0  0
  -24.9873  -33.9827   25.0335 H   0  0  0  0  0  0
  -22.6734  -31.3054   21.4131 H   0  0  0  0  0  0
  -23.3743  -35.9698   23.3281 H   0  0  0  0  0  0
  -24.3544  -36.8991   22.2040 H   0  0  0  0  0  0
  -23.7312  -37.6576   23.6694 H   0  0  0  0  0  0
  -26.0277  -31.6128   20.5889 H   0  0  0  0  0  0
  -26.8059  -30.8967   21.9736 H   0  0  0  0  0  0
  -28.0801  -29.1364   21.1516 H   0  0  0  0  0  0
  -26.0257  -26.0051   18.9826 H   0  0  0  0  0  0
  -23.9689  -27.3089   19.0150 H   0  0  0  0  0  0
  -23.6707  -30.5909   19.3968 H   0  0  0  0  0  0
  -22.7197  -29.2229   19.8887 H   0  0  0  0  0  0
  -25.1302  -36.1971   25.0818 H   0  0  0  0  0  0
  -20.9880  -28.3229   24.1457 H   0  0  0  0  0  0
  -20.5605  -26.2278   23.3596 H   0  0  0  0  0  0
  -21.6625  -26.7440   22.1223 H   0  0  0  0  0  0
  -19.6874  -25.6297   21.1232 H   0  0  0  0  0  0
  -19.6664  -27.3193   20.6738 H   0  0  0  0  0  0
  -17.4168  -26.6625   21.4036 H   0  0  0  0  0  0
  -18.0287  -26.0090   22.9026 H   0  0  0  0  0  0
  -19.7922  -30.7220   24.2276 H   0  0  0  0  0  0
  -17.5020  -31.6246   24.5189 H   0  0  0  0  0  0
  -15.5336  -30.2977   23.7679 H   0  0  0  0  0  0
  -15.8634  -28.0859   22.6999 H   0  0  0  0  0  0
  -24.5780  -30.7233   25.7806 H   0  0  0  0  0  0
  -24.8946  -32.2981   26.4999 H   0  0  0  0  0  0
  -25.7978  -30.8909   27.0234 H   0  0  0  0  0  0
  -26.2843  -29.6860   24.1155 H   0  0  0  0  0  0
  -27.3942  -29.7352   25.4653 H   0  0  0  0  0  0
  -27.8693  -30.4388   23.9365 H   0  0  0  0  0  0
  -27.2548  -33.3700   26.2138 H   0  0  0  0  0  0
  -28.3742  -32.7055   25.0343 H   0  0  0  0  0  0
  -28.0694  -31.8582   26.5407 H   0  0  0  0  0  0
  -28.2577  -38.0135   24.7520 H   0  0  0  0  0  0
  -28.1137  -36.2664   24.6229 H   0  0  0  0  0  0
  -27.2285  -37.1381   25.8828 H   0  0  0  0  0  0
  -20.9278  -29.8839   21.7071 H   0  0  0  0  0  0
  -26.0192  -38.2872   24.1386 H   0  0  0  0  0  0
  -29.7920  -23.0933   19.6567 H   0  0  0  0  0  0
  -30.4282  -23.1781   21.2862 H   0  0  0  0  0  0
  -28.5912  -22.7553   23.3423 H   0  0  0  0  0  0
  -26.9475  -22.4454   22.8487 H   0  0  0  0  0  0
  -30.9051  -21.0422   20.2116 H   0  0  0  0  0  0
  -29.2015  -20.8063   19.8605 H   0  0  0  0  0  0
  -27.5416  -20.3747   21.7558 H   0  0  0  0  0  0
  -28.0893  -20.3601   23.4174 H   0  0  0  0  0  0
  -27.4086  -17.0237   19.6969 H   0  0  0  0  0  0
  -27.3907  -18.7496   19.4655 H   0  0  0  0  0  0
  -28.4822  -18.5556   17.2732 H   0  0  0  0  0  0
  -27.0778  -17.5178   17.3096 H   0  0  0  0  0  0
  -30.8358  -15.6549   17.7295 H   0  0  0  0  0  0
  -30.8101  -17.3855   17.5540 H   0  0  0  0  0  0
  -27.5175  -22.7322   20.4960 H   0  0  0  0  0  0
  -30.3583  -21.0984   22.6541 H   0  0  0  0  0  0
  -31.2605  -16.9802   19.8440 H   0  0  0  0  0  0
  -29.8659  -18.8190   19.4948 H   0  0  0  0  0  0
  -26.5267  -24.5574   22.9424 H   0  0  0  0  0  0
  -25.8805  -24.6683   21.3090 H   0  0  0  0  0  0
  -26.5894  -26.0646   22.1160 H   0  0  0  0  0  0
  -32.2438  -19.5411   22.3805 H   0  0  0  0  0  0
  -31.8847  -19.0597   20.7411 H   0  0  0  0  0  0
  -31.9544  -17.8493   22.0226 H   0  0  0  0  0  0
  -27.8190  -24.9839   19.2025 H   0  0  0  0  0  0
  -29.4349  -25.1678   19.7616 H   0  0  0  0  0  0
  -28.8248  -24.9676   22.1019 H   0  0  0  0  0  0
  -30.0216  -18.8309   23.1462 H   0  0  0  0  0  0
  -28.8830  -15.3021   20.4349 H   0  0  0  0  0  0
  -29.0316  -16.4783   16.3943 H   0  0  0  0  0  0
  -28.4532  -15.6396   17.6407 H   0  0  0  0  0  0
  -29.3801  -17.2019   21.8112 H   0  0  0  0  0  0
  -28.2908  -18.3787   21.6176 H   0  0  0  0  0  0
  1 25  1  0  0  0
  1 30  2  0  0  0
  1 87  1  0  0  0
  2  3  1  0  0  0
  2 25  1  0  0  0
  2 90  1  0  0  0
  2 91  1  0  0  0
  3  4  1  0  0  0
  3 92  1  0  0  0
  3 93  1  0  0  0
  4  5  1  0  0  0
  4 94  1  0  0  0
  4 95  1  0  0  0
  5  6  1  0  0  0
  5 26  1  0  0  0
  5 96  1  0  0  0
  6 25  1  0  0  0
  6 97  1  0  0  0
  6 98  1  0  0  0
  7  8  2  0  0  0
  7 26  1  0  0  0
  7 29  1  0  0  0
  8  9  1  0  0  0
  8 22  1  0  0  0
  9 10  1  0  0  0
  9 27  2  0  0  0
 10 11  2  0  0  0
 10 15  1  0  0  0
 11 12  1  0  0  0
 11 99  1  0  0  0
 12 13  2  0  0  0
 12100  1  0  0  0
 13 14  1  0  0  0
 13 31  1  0  0  0
 14 15  2  0  0  0
 14101  1  0  0  0
 15102  1  0  0  0
 16 17  2  0  0  0
 16 21  1  0  0  0
 16 31  1  0  0  0
 17 18  1  0  0  0
 17103  1  0  0  0
 18 19  2  0  0  0
 18104  1  0  0  0
 19 20  1  0  0  0
 19 24  1  0  0  0
 20 21  2  0  0  0
 20105  1  0  0  0
 21 23  1  0  0  0
 22 28  1  0  0  0
 22 32  2  0  0  0
 26 27  1  0  0  0
 28106  1  0  0  0
 28107  1  0  0  0
 29108  1  0  0  0
 29109  1  0  0  0
 33 34  1  0  0  0
 33 66  1  0  0  0
 33 70  2  0  0  0
 34 36  1  0  0  0
 34 59  1  0  0  0
 34110  1  0  0  0
 35 44  2  0  0  0
 35 45  1  0  0  0
 35 68  1  0  0  0
 36 56  1  0  0  0
 36111  1  0  0  0
 37 39  1  0  0  0
 37 47  1  0  0  0
 37 66  1  0  0  0
 37112  1  0  0  0
 38 43  2  0  0  0
 38 46  1  0  0  0
 38 47  1  0  0  0
 39 64  1  0  0  0
 39 67  2  0  0  0
 40 52  1  0  0  0
 40 53  2  0  0  0
 40 58  1  0  0  0
 41113  1  0  0  0
 41114  1  0  0  0
 41115  1  0  0  0
 41 48  1  0  0  0
 42 43  1  0  0  0
 42 66  1  0  0  0
 42116  1  0  0  0
 42117  1  0  0  0
 43 44  1  0  0  0
 44118  1  0  0  0
 45 46  2  0  0  0
 45119  1  0  0  0
 46120  1  0  0  0
 47121  1  0  0  0
 47122  1  0  0  0
 48 56  1  0  0  0
 48 65  1  0  0  0
 48123  1  0  0  0
 49 50  1  0  0  0
 49 53  1  0  0  0
 49 64  1  0  0  0
 49124  1  0  0  0
 50 51  1  0  0  0
 50125  1  0  0  0
 50126  1  0  0  0
 51 52  1  0  0  0
 51127  1  0  0  0
 51128  1  0  0  0
 52129  1  0  0  0
 52130  1  0  0  0
 53 54  1  0  0  0
 54 55  2  0  0  0
 54131  1  0  0  0
 55 57  1  0  0  0
 55132  1  0  0  0
 56 69  2  0  0  0
 57 58  2  0  0  0
 57133  1  0  0  0
 58134  1  0  0  0
 59 60  1  0  0  0
 59 61  1  0  0  0
 59 62  1  0  0  0
 60135  1  0  0  0
 60136  1  0  0  0
 60137  1  0  0  0
 61138  1  0  0  0
 61139  1  0  0  0
 61140  1  0  0  0
 62141  1  0  0  0
 62142  1  0  0  0
 62143  1  0  0  0
 63 65  1  0  0  0
 63144  1  0  0  0
 63145  1  0  0  0
 63146  1  0  0  0
 64147  1  0  0  0
 65148  1  0  0  0
 68 84  1  0  0  0
 71 73  1  0  0  0
 71149  1  0  0  0
 71150  1  0  0  0
 71 78  1  0  0  0
 72 74  1  0  0  0
 72 78  1  0  0  0
 72151  1  0  0  0
 72152  1  0  0  0
 73153  1  0  0  0
 73154  1  0  0  0
 73 79  1  0  0  0
 74 79  1  0  0  0
 74155  1  0  0  0
 74156  1  0  0  0
 75 76  1  0  0  0
 75 81  1  0  0  0
 75157  1  0  0  0
 75158  1  0  0  0
 76 88  1  0  0  0
 76159  1  0  0  0
 76160  1  0  0  0
 77 80  1  0  0  0
 77 88  1  0  0  0
 77161  1  0  0  0
 77162  1  0  0  0
 78 85  1  0  0  0
 78163  1  0  0  0
 79 86  1  0  0  0
 79164  1  0  0  0
 80 81  1  0  0  0
 80 87  1  0  0  0
 80165  1  0  0  0
 81 89  1  0  0  0
 81166  1  0  0  0
 82167  1  0  0  0
 82168  1  0  0  0
 82169  1  0  0  0
 82 85  1  0  0  0
 83170  1  0  0  0
 83171  1  0  0  0
 83172  1  0  0  0
 83 86  1  0  0  0
 84 85  1  0  0  0
 84173  1  0  0  0
 84174  1  0  0  0
 85175  1  0  0  0
 86 89  1  0  0  0
 86176  1  0  0  0
 87177  1  0  0  0
 88178  1  0  0  0
 88179  1  0  0  0
 89180  1  0  0  0
 89181  1  0  0  0
M  CHG  2  88   1  89   1
M  ISO  4   1 100  68 101  84 101  87 100
M  END
> <chiral flag>
0

> <version>
0

> <s_m_source_file>
/data/baiqing/PycharmProjects/Reinvent-master-3.2/result/LINK_invent/BTK/process_docking_weight1_custom_sum_contain_oxygen_bond_distance_aromatic_linkinvent_7_9_3/rearranged_h_0120.sdf

> <i_m_source_file_index>
77

> <r_mmod_Potential_Energy-OPLS-2005>
-290.825714111328

> <r_mmod_Stretch_Energy-OPLS-2005>
36.8348426818848

> <r_mmod_Bend_Energy-OPLS-2005>
125.229194641113

> <r_mmod_Torsional_Energy-OPLS-2005>
369.650512695312

> <r_mmod_Improper_Torsional_Energy-OPLS-2005>
14.1857233047485

> <r_mmod_Van_der_Waal_Energy-OPLS-2005>
144.910858154297

> <r_mmod_Electrostatic_Energy-OPLS-2005>
19.0973358154297

> <r_mmod_Solvation_Energy-OPLS-2005>
-1022.09466552734

> <b_mmod_Minimization_Converged-OPLS-2005>
0

> <r_mmod_RMS_Derivative-OPLS-2005>
3.22964429855347

$$$$
78
                    3D
 Structure written by MMmdl.
171180  0  0  1  0            999 V2000
  -30.6768  -14.6151   20.4714 C   0  0  0  0  0  0
  -30.4173  -12.3736   19.4585 C   0  0  0  0  0  0
  -29.4996  -12.4925   18.2241 C   0  0  0  0  0  0
  -28.0234  -12.3402   18.6373 C   0  0  0  0  0  0
  -27.6463  -13.2257   19.8561 C   0  0  2  0  0  0
  -28.6916  -13.1230   20.9892 C   0  0  0  0  0  0
  -25.2529  -13.8189   20.5695 C   0  0  0  0  0  0
  -24.1810  -13.0441   20.9205 C   0  0  0  0  0  0
  -24.6391  -11.6915   20.8749 C   0  0  0  0  0  0
  -23.9066  -10.4293   21.0407 C   0  0  0  0  0  0
  -24.3617   -9.4210   21.9185 C   0  0  0  0  0  0
  -23.6295   -8.2245   22.0752 C   0  0  0  0  0  0
  -22.4281   -8.0279   21.3543 C   0  0  0  0  0  0
  -21.9913   -9.0250   20.4646 C   0  0  0  0  0  0
  -22.7236  -10.2132   20.3056 C   0  0  0  0  0  0
  -21.6855   -6.0736   22.5277 C   0  0  0  0  0  0
  -21.4014   -6.5640   23.8211 C   0  0  0  0  0  0
  -21.3661   -5.6794   24.9173 C   0  0  0  0  0  0
  -21.6043   -4.3056   24.7223 C   0  0  0  0  0  0
  -21.8818   -3.8146   23.4346 C   0  0  0  0  0  0
  -21.9193   -4.6964   22.3403 C   0  0  0  0  0  0
  -22.7831  -13.5228   21.1861 C   0  0  0  0  0  0
  -22.1662   -4.2146   21.0982 F   0  0  0  0  0  0
  -21.5630   -3.4542   25.7740 F   0  0  0  0  0  0
  -30.0047  -13.4256   20.4088 N   0  0  0  0  0  0
  -26.2957  -12.9392   20.3312 N   0  0  0  0  0  0
  -25.9322  -11.6537   20.5766 N   0  0  0  0  0  0
  -22.0481  -12.8209   22.0415 N   0  0  0  0  0  0
  -25.4226  -15.1915   20.4108 N   0  0  0  0  0  0
  -31.8721  -14.6798   20.1790 O   0  0  0  0  0  0
  -21.6643   -6.8876   21.4238 O   0  0  0  0  0  0
  -22.3514  -14.5538   20.6719 O   0  0  0  0  0  0
  -24.6240  -31.8612   23.2041 C   0  0  0  0  0  0
  -25.9100  -32.4787   23.8367 C   0  0  1  0  0  0
  -27.2216  -27.3448   20.1211 C   0  0  0  0  0  0
  -25.5927  -33.8586   24.2294 N   0  0  0  0  0  0
  -23.4179  -30.4843   21.5453 C   0  0  2  0  0  0
  -24.8669  -28.9467   20.1066 C   0  0  0  0  0  0
  -22.7470  -29.4624   22.4936 C   0  0  0  0  0  0
  -18.0284  -28.1393   22.8486 C   0  0  0  0  0  0
  -24.1490  -36.7294   23.2633 C   0  0  0  0  0  0
  -25.9560  -30.8019   21.3711 C   0  0  0  0  0  0
  -26.0336  -29.4314   20.7140 C   0  0  0  0  0  0
  -27.2184  -28.6402   20.7153 C   0  0  0  0  0  0
  -26.0432  -26.9129   19.4764 C   0  0  0  0  0  0
  -24.8728  -27.6920   19.4772 C   0  0  0  0  0  0
  -23.6320  -29.8208   20.1592 C   0  0  0  0  0  0
  -25.4108  -36.3083   24.0333 C   0  0  1  0  0  0
  -20.5881  -28.3688   23.1293 C   0  0  2  0  0  0
  -20.6778  -26.9417   22.5409 C   0  0  0  0  0  0
  -19.5752  -26.6392   21.5216 C   0  0  0  0  0  0
  -18.1930  -26.7937   22.1623 C   0  0  0  0  0  0
  -19.1536  -28.8854   23.2888 C   0  0  0  0  0  0
  -18.9462  -30.1455   23.8903 C   0  0  0  0  0  0
  -17.6465  -30.6593   24.0564 C   0  0  0  0  0  0
  -25.9050  -34.9453   23.5111 C   0  0  0  0  0  0
  -16.5354  -29.9095   23.6335 C   0  0  0  0  0  0
  -16.7273  -28.6512   23.0352 C   0  0  0  0  0  0
  -26.4495  -31.6584   25.0721 C   0  0  0  0  0  0
  -25.3742  -31.3724   26.1460 C   0  0  0  0  0  0
  -27.0320  -30.3011   24.6142 C   0  0  0  0  0  0
  -27.6070  -32.4299   25.7482 C   0  0  0  0  0  0
  -27.5582  -37.1788   24.8455 C   0  0  0  0  0  0
  -21.4182  -29.3042   22.3690 N   0  0  0  0  0  0
  -26.4282  -37.3783   23.9422 N   0  0  0  0  0  0
  -24.6848  -31.0647   22.0983 N   0  0  0  0  0  0
  -23.4201  -28.8164   23.3011 O   0  0  0  0  0  0
  -28.2968  -26.4565   20.1805 O   0  0  0  0  0  0
  -26.5609  -34.8914   22.4673 O   0  0  0  0  0  0
  -23.5408  -32.1387   23.7387 O   0  0  0  0  0  0
  -29.9093  -23.5117   21.3092 C   0  0  0  0  0  0
  -30.3934  -22.1799   21.2050 C   0  0  0  0  0  0
  -28.0428  -22.8312   19.9797 C   0  0  0  0  0  0
  -28.6975  -23.8767   20.6813 C   0  0  0  0  0  0
  -29.6682  -21.1964   20.4897 C   0  0  0  0  0  0
  -30.6950  -17.2139   18.6783 C   0  0  0  0  0  0
  -31.5081  -18.4614   18.3151 C   0  0  0  0  0  0
  -29.6005  -18.4436   20.5864 C   0  0  0  0  0  0
  -30.3257  -19.8028   20.1672 C   0  0  1  0  0  0
  -30.4424  -17.1453   20.1997 C   0  0  1  0  0  0
  -30.7710  -19.7714   18.6750 C   0  0  1  0  0  0
  -32.8934  -22.1572   16.6005 C   0  0  0  0  0  0
  -30.3717  -22.3255   16.7086 C   0  0  0  0  0  0
  -28.0003  -25.2485   20.9700 C   0  0  0  0  0  0
  -31.5920  -21.4180   16.9503 C   0  0  0  0  0  0
  -28.5126  -21.5488   19.8707 N   0  0  0  0  0  0
  -29.9438  -15.7711   20.5805 N   0  0  0  0  0  0
  -31.6356  -20.9383   18.3522 N   0  3  0  0  0  0
  -31.4635  -12.4625   19.1605 H   0  0  0  0  0  0
  -30.3212  -11.3886   19.9186 H   0  0  0  0  0  0
  -29.7610  -11.7344   17.4851 H   0  0  0  0  0  0
  -29.6509  -13.4587   17.7398 H   0  0  0  0  0  0
  -27.8588  -11.2894   18.8789 H   0  0  0  0  0  0
  -27.3692  -12.5624   17.7932 H   0  0  0  0  0  0
  -27.6540  -14.2544   19.4954 H   0  0  0  0  0  0
  -28.6947  -12.1229   21.4256 H   0  0  0  0  0  0
  -28.4523  -13.8113   21.8017 H   0  0  0  0  0  0
  -25.2763   -9.5690   22.4759 H   0  0  0  0  0  0
  -24.0007   -7.4637   22.7470 H   0  0  0  0  0  0
  -21.0845   -8.8761   19.8950 H   0  0  0  0  0  0
  -22.3689  -10.9669   19.6163 H   0  0  0  0  0  0
  -21.2005   -7.6148   23.9711 H   0  0  0  0  0  0
  -21.1484   -6.0528   25.9076 H   0  0  0  0  0  0
  -22.0597   -2.7606   23.2848 H   0  0  0  0  0  0
  -22.4103  -11.9865   22.4788 H   0  0  0  0  0  0
  -21.1093  -13.1212   22.2621 H   0  0  0  0  0  0
  -24.6541  -15.8445   20.5211 H   0  0  0  0  0  0
  -26.2681  -15.6311   20.0701 H   0  0  0  0  0  0
  -26.7167  -32.5472   23.1119 H   0  0  0  0  0  0
  -25.0099  -33.9739   25.0454 H   0  0  0  0  0  0
  -22.7101  -31.3031   21.4027 H   0  0  0  0  0  0
  -23.3766  -35.9613   23.3270 H   0  0  0  0  0  0
  -24.3591  -36.8944   22.2055 H   0  0  0  0  0  0
  -23.7226  -37.6480   23.6670 H   0  0  0  0  0  0
  -26.0791  -31.5661   20.6025 H   0  0  0  0  0  0
  -26.8395  -30.8541   21.9957 H   0  0  0  0  0  0
  -28.1108  -28.9990   21.2085 H   0  0  0  0  0  0
  -26.0189  -25.9443   18.9964 H   0  0  0  0  0  0
  -23.9797  -27.3162   18.9974 H   0  0  0  0  0  0
  -23.7446  -30.5975   19.4019 H   0  0  0  0  0  0
  -22.7542  -29.2458   19.8595 H   0  0  0  0  0  0
  -25.1286  -36.1932   25.0824 H   0  0  0  0  0  0
  -20.9965  -28.3257   24.1418 H   0  0  0  0  0  0
  -20.5702  -26.2294   23.3601 H   0  0  0  0  0  0
  -21.6645  -26.7464   22.1185 H   0  0  0  0  0  0
  -19.6920  -25.6309   21.1235 H   0  0  0  0  0  0
  -19.6698  -27.3208   20.6756 H   0  0  0  0  0  0
  -17.4204  -26.6689   21.4021 H   0  0  0  0  0  0
  -18.0327  -26.0081   22.9016 H   0  0  0  0  0  0
  -19.7939  -30.7268   24.2279 H   0  0  0  0  0  0
  -17.5022  -31.6274   24.5162 H   0  0  0  0  0  0
  -15.5354  -30.2999   23.7666 H   0  0  0  0  0  0
  -15.8668  -28.0834   22.7073 H   0  0  0  0  0  0
  -24.5898  -30.7094   25.7794 H   0  0  0  0  0  0
  -24.8956  -32.2895   26.4903 H   0  0  0  0  0  0
  -25.8070  -30.8881   27.0221 H   0  0  0  0  0  0
  -26.2870  -29.6771   24.1192 H   0  0  0  0  0  0
  -27.4066  -29.7256   25.4616 H   0  0  0  0  0  0
  -27.8721  -30.4310   23.9317 H   0  0  0  0  0  0
  -27.2716  -33.3633   26.2011 H   0  0  0  0  0  0
  -28.3908  -32.6795   25.0318 H   0  0  0  0  0  0
  -28.0697  -31.8441   26.5435 H   0  0  0  0  0  0
  -28.2561  -38.0124   24.7553 H   0  0  0  0  0  0
  -28.1121  -36.2657   24.6213 H   0  0  0  0  0  0
  -27.2308  -37.1350   25.8857 H   0  0  0  0  0  0
  -20.9356  -29.8768   21.6904 H   0  0  0  0  0  0
  -26.0166  -38.2851   24.1460 H   0  0  0  0  0  0
  -30.4548  -24.2369   21.8964 H   0  0  0  0  0  0
  -31.3325  -21.9295   21.6812 H   0  0  0  0  0  0
  -27.0869  -23.0151   19.5114 H   0  0  0  0  0  0
  -31.2467  -16.3437   18.3241 H   0  0  0  0  0  0
  -29.7480  -17.2067   18.1357 H   0  0  0  0  0  0
  -31.7285  -18.4340   17.2477 H   0  0  0  0  0  0
  -32.4722  -18.4174   18.8242 H   0  0  0  0  0  0
  -28.6201  -18.4028   20.1101 H   0  0  0  0  0  0
  -29.4160  -18.4550   21.6608 H   0  0  0  0  0  0
  -31.2447  -19.7914   20.7551 H   0  0  0  0  0  0
  -31.4058  -17.2429   20.7059 H   0  0  0  0  0  0
  -29.8636  -19.8312   18.0720 H   0  0  0  0  0  0
  -32.8831  -22.4916   15.5630 H   0  0  0  0  0  0
  -33.7641  -21.5119   16.7208 H   0  0  0  0  0  0
  -33.0393  -23.0379   17.2267 H   0  0  0  0  0  0
  -30.3426  -22.6642   15.6729 H   0  0  0  0  0  0
  -30.3991  -23.2136   17.3405 H   0  0  0  0  0  0
  -29.4318  -21.8090   16.9021 H   0  0  0  0  0  0
  -28.2359  -25.5055   22.0034 H   0  0  0  0  0  0
  -26.9304  -25.0372   20.9900 H   0  0  0  0  0  0
  -31.5216  -20.5561   16.2848 H   0  0  0  0  0  0
  -28.9613  -15.6692   20.7866 H   0  0  0  0  0  0
  -32.5863  -20.6967   18.5855 H   0  0  0  0  0  0
  -31.3690  -21.7081   18.9474 H   0  0  0  0  0  0
  1 25  1  0  0  0
  1 30  2  0  0  0
  1 87  1  0  0  0
  2  3  1  0  0  0
  2 25  1  0  0  0
  2 89  1  0  0  0
  2 90  1  0  0  0
  3  4  1  0  0  0
  3 91  1  0  0  0
  3 92  1  0  0  0
  4  5  1  0  0  0
  4 93  1  0  0  0
  4 94  1  0  0  0
  5  6  1  0  0  0
  5 26  1  0  0  0
  5 95  1  0  0  0
  6 25  1  0  0  0
  6 96  1  0  0  0
  6 97  1  0  0  0
  7  8  2  0  0  0
  7 26  1  0  0  0
  7 29  1  0  0  0
  8  9  1  0  0  0
  8 22  1  0  0  0
  9 10  1  0  0  0
  9 27  2  0  0  0
 10 11  2  0  0  0
 10 15  1  0  0  0
 11 12  1  0  0  0
 11 98  1  0  0  0
 12 13  2  0  0  0
 12 99  1  0  0  0
 13 14  1  0  0  0
 13 31  1  0  0  0
 14 15  2  0  0  0
 14100  1  0  0  0
 15101  1  0  0  0
 16 17  2  0  0  0
 16 21  1  0  0  0
 16 31  1  0  0  0
 17 18  1  0  0  0
 17102  1  0  0  0
 18 19  2  0  0  0
 18103  1  0  0  0
 19 20  1  0  0  0
 19 24  1  0  0  0
 20 21  2  0  0  0
 20104  1  0  0  0
 21 23  1  0  0  0
 22 28  1  0  0  0
 22 32  2  0  0  0
 26 27  1  0  0  0
 28105  1  0  0  0
 28106  1  0  0  0
 29107  1  0  0  0
 29108  1  0  0  0
 33 34  1  0  0  0
 33 66  1  0  0  0
 33 70  2  0  0  0
 34 36  1  0  0  0
 34 59  1  0  0  0
 34109  1  0  0  0
 35 44  2  0  0  0
 35 45  1  0  0  0
 35 68  1  0  0  0
 36 56  1  0  0  0
 36110  1  0  0  0
 37 39  1  0  0  0
 37 47  1  0  0  0
 37 66  1  0  0  0
 37111  1  0  0  0
 38 43  2  0  0  0
 38 46  1  0  0  0
 38 47  1  0  0  0
 39 64  1  0  0  0
 39 67  2  0  0  0
 40 52  1  0  0  0
 40 53  2  0  0  0
 40 58  1  0  0  0
 41112  1  0  0  0
 41113  1  0  0  0
 41114  1  0  0  0
 41 48  1  0  0  0
 42 43  1  0  0  0
 42 66  1  0  0  0
 42115  1  0  0  0
 42116  1  0  0  0
 43 44  1  0  0  0
 44117  1  0  0  0
 45 46  2  0  0  0
 45118  1  0  0  0
 46119  1  0  0  0
 47120  1  0  0  0
 47121  1  0  0  0
 48 56  1  0  0  0
 48 65  1  0  0  0
 48122  1  0  0  0
 49 50  1  0  0  0
 49 53  1  0  0  0
 49 64  1  0  0  0
 49123  1  0  0  0
 50 51  1  0  0  0
 50124  1  0  0  0
 50125  1  0  0  0
 51 52  1  0  0  0
 51126  1  0  0  0
 51127  1  0  0  0
 52128  1  0  0  0
 52129  1  0  0  0
 53 54  1  0  0  0
 54 55  2  0  0  0
 54130  1  0  0  0
 55 57  1  0  0  0
 55131  1  0  0  0
 56 69  2  0  0  0
 57 58  2  0  0  0
 57132  1  0  0  0
 58133  1  0  0  0
 59 60  1  0  0  0
 59 61  1  0  0  0
 59 62  1  0  0  0
 60134  1  0  0  0
 60135  1  0  0  0
 60136  1  0  0  0
 61137  1  0  0  0
 61138  1  0  0  0
 61139  1  0  0  0
 62140  1  0  0  0
 62141  1  0  0  0
 62142  1  0  0  0
 63 65  1  0  0  0
 63143  1  0  0  0
 63144  1  0  0  0
 63145  1  0  0  0
 64146  1  0  0  0
 65147  1  0  0  0
 68 84  1  0  0  0
 71 72  2  0  0  0
 71 74  1  0  0  0
 71148  1  0  0  0
 72 75  1  0  0  0
 72149  1  0  0  0
 73 74  2  0  0  0
 73 86  1  0  0  0
 73150  1  0  0  0
 74 84  1  0  0  0
 75 86  2  0  0  0
 75 79  1  0  0  0
 76 77  1  0  0  0
 76 80  1  0  0  0
 76151  1  0  0  0
 76152  1  0  0  0
 77 81  1  0  0  0
 77153  1  0  0  0
 77154  1  0  0  0
 78 79  1  0  0  0
 78 80  1  0  0  0
 78155  1  0  0  0
 78156  1  0  0  0
 79 81  1  0  0  0
 79157  1  0  0  0
 80 87  1  0  0  0
 80158  1  0  0  0
 81 88  1  0  0  0
 81159  1  0  0  0
 82160  1  0  0  0
 82161  1  0  0  0
 82162  1  0  0  0
 82 85  1  0  0  0
 83 85  1  0  0  0
 83163  1  0  0  0
 83164  1  0  0  0
 83165  1  0  0  0
 84166  1  0  0  0
 84167  1  0  0  0
 85 88  1  0  0  0
 85168  1  0  0  0
 87169  1  0  0  0
 88170  1  0  0  0
 88171  1  0  0  0
M  CHG  1  88   1
M  ISO  4   1 100  68 101  84 101  87 100
M  END
> <chiral flag>
0

> <version>
0

> <s_m_source_file>
/data/baiqing/PycharmProjects/Reinvent-master-3.2/result/LINK_invent/BTK/process_docking_weight1_custom_sum_contain_oxygen_bond_distance_aromatic_linkinvent_7_9_3/rearranged_h_0120.sdf

> <i_m_source_file_index>
78

> <r_mmod_Potential_Energy-OPLS-2005>
-169.077133178711

> <r_mmod_Stretch_Energy-OPLS-2005>
74.9720611572266

> <r_mmod_Bend_Energy-OPLS-2005>
137.338134765625

> <r_mmod_Torsional_Energy-OPLS-2005>
270.150817871094

> <r_mmod_Improper_Torsional_Energy-OPLS-2005>
10.0715131759644

> <r_mmod_Van_der_Waal_Energy-OPLS-2005>
142.7421875

> <r_mmod_Electrostatic_Energy-OPLS-2005>
-413.887023925781

> <r_mmod_Solvation_Energy-OPLS-2005>
-439.242462158203

> <b_mmod_Minimization_Converged-OPLS-2005>
0

> <r_mmod_RMS_Derivative-OPLS-2005>
0.943281888961792

$$$$
79
                    3D
 Structure written by MMmdl.
161169  0  0  1  0            999 V2000
  -30.6456  -14.7114   20.4753 C   0  0  0  0  0  0
  -30.4279  -12.4422   19.4713 C   0  0  0  0  0  0
  -29.5038  -12.5003   18.2355 C   0  0  0  0  0  0
  -28.0370  -12.3108   18.6617 C   0  0  0  0  0  0
  -27.6405  -13.2296   19.8481 C   0  0  2  0  0  0
  -28.6828  -13.1799   20.9877 C   0  0  0  0  0  0
  -25.2517  -13.8205   20.5722 C   0  0  0  0  0  0
  -24.1800  -13.0465   20.9202 C   0  0  0  0  0  0
  -24.6375  -11.6927   20.8734 C   0  0  0  0  0  0
  -23.9053  -10.4306   21.0413 C   0  0  0  0  0  0
  -24.3609   -9.4221   21.9182 C   0  0  0  0  0  0
  -23.6282   -8.2252   22.0754 C   0  0  0  0  0  0
  -22.4275   -8.0273   21.3533 C   0  0  0  0  0  0
  -21.9902   -9.0252   20.4641 C   0  0  0  0  0  0
  -22.7229  -10.2129   20.3052 C   0  0  0  0  0  0
  -21.6851   -6.0730   22.5285 C   0  0  0  0  0  0
  -21.4013   -6.5639   23.8210 C   0  0  0  0  0  0
  -21.3661   -5.6793   24.9175 C   0  0  0  0  0  0
  -21.6033   -4.3056   24.7228 C   0  0  0  0  0  0
  -21.8823   -3.8143   23.4349 C   0  0  0  0  0  0
  -21.9192   -4.6954   22.3404 C   0  0  0  0  0  0
  -22.7825  -13.5229   21.1886 C   0  0  0  0  0  0
  -22.1660   -4.2144   21.0977 F   0  0  0  0  0  0
  -21.5630   -3.4538   25.7733 F   0  0  0  0  0  0
  -29.9919  -13.5043   20.4054 N   0  0  0  0  0  0
  -26.2935  -12.9405   20.3285 N   0  0  0  0  0  0
  -25.9293  -11.6566   20.5740 N   0  0  0  0  0  0
  -22.0457  -12.8197   22.0417 N   0  0  0  0  0  0
  -25.4241  -15.1918   20.4183 N   0  0  0  0  0  0
  -31.8324  -14.7957   20.1576 O   0  0  0  0  0  0
  -21.6638   -6.8875   21.4242 O   0  0  0  0  0  0
  -22.3496  -14.5542   20.6730 O   0  0  0  0  0  0
  -24.6374  -31.8574   23.2100 C   0  0  0  0  0  0
  -25.9198  -32.4772   23.8415 C   0  0  1  0  0  0
  -27.1929  -27.2385   20.0962 C   0  0  0  0  0  0
  -25.5991  -33.8586   24.2323 N   0  0  0  0  0  0
  -23.4321  -30.4938   21.5557 C   0  0  2  0  0  0
  -24.8710  -28.9671   20.1088 C   0  0  0  0  0  0
  -22.7542  -29.4641   22.4932 C   0  0  0  0  0  0
  -18.0301  -28.1413   22.8463 C   0  0  0  0  0  0
  -24.1486  -36.7292   23.2637 C   0  0  0  0  0  0
  -25.9890  -30.7558   21.4053 C   0  0  0  0  0  0
  -26.0519  -29.3855   20.7362 C   0  0  0  0  0  0
  -27.2101  -28.5299   20.7389 C   0  0  0  0  0  0
  -25.9884  -26.9566   19.3868 C   0  0  0  0  0  0
  -24.8459  -27.7559   19.4277 C   0  0  0  0  0  0
  -23.6493  -29.8578   20.1649 C   0  0  0  0  0  0
  -25.4113  -36.3092   24.0333 C   0  0  1  0  0  0
  -20.5896  -28.3738   23.1275 C   0  0  2  0  0  0
  -20.6791  -26.9455   22.5425 C   0  0  0  0  0  0
  -19.5788  -26.6415   21.5218 C   0  0  0  0  0  0
  -18.1960  -26.7961   22.1604 C   0  0  0  0  0  0
  -19.1547  -28.8884   23.2857 C   0  0  0  0  0  0
  -18.9470  -30.1477   23.8894 C   0  0  0  0  0  0
  -17.6470  -30.6597   24.0576 C   0  0  0  0  0  0
  -25.9061  -34.9453   23.5126 C   0  0  0  0  0  0
  -16.5360  -29.9095   23.6338 C   0  0  0  0  0  0
  -16.7284  -28.6518   23.0352 C   0  0  0  0  0  0
  -26.4536  -31.6598   25.0812 C   0  0  0  0  0  0
  -25.3734  -31.3767   26.1508 C   0  0  0  0  0  0
  -27.0380  -30.3000   24.6344 C   0  0  0  0  0  0
  -27.6076  -32.4349   25.7574 C   0  0  0  0  0  0
  -27.5581  -37.1812   24.8470 C   0  0  0  0  0  0
  -21.4243  -29.3084   22.3663 N   0  0  0  0  0  0
  -26.4297  -37.3785   23.9412 N   0  0  0  0  0  0
  -24.7058  -31.0525   22.1111 N   0  0  0  0  0  0
  -23.4245  -28.8137   23.2996 O   0  0  0  0  0  0
  -28.2174  -26.2328   20.1737 O   0  0  0  0  0  0
  -26.5622  -34.8920   22.4685 O   0  0  0  0  0  0
  -23.5516  -32.1433   23.7360 O   0  0  0  0  0  0
  -27.0654  -22.7171   18.8733 C   0  0  0  0  0  0
  -28.0935  -23.3609   19.6024 C   0  0  0  0  0  0
  -29.0776  -22.4425   20.1673 C   0  0  0  0  0  0
  -26.9891  -21.3325   18.7349 C   0  0  0  0  0  0
  -28.9141  -20.9945   19.9949 C   0  0  0  0  0  0
  -29.4622  -22.3001   23.2091 C   0  0  0  0  0  0
  -30.0483  -23.1927   22.3962 C   0  0  0  0  0  0
  -25.8936  -20.6910   17.9080 C   0  0  0  0  0  0
  -30.2794  -22.9927   20.9127 C   0  0  0  0  0  0
  -27.8570  -24.9465   19.4716 C   0  0  0  0  0  0
  -29.3204  -18.4825   20.5409 C   0  0  0  0  0  0
  -30.4044  -17.3009   20.6492 C   0  0  0  0  0  0
  -27.8740  -20.5055   19.2993 N   0  0  0  0  0  0
  -29.7746  -19.9311   20.4524 N   0  0  0  0  0  0
  -29.9137  -15.8595   20.6984 N   0  0  0  0  0  0
  -31.4676  -12.5654   19.1609 H   0  0  0  0  0  0
  -30.3704  -11.4651   19.9532 H   0  0  0  0  0  0
  -29.7885  -11.7329   17.5132 H   0  0  0  0  0  0
  -29.6195  -13.4600   17.7302 H   0  0  0  0  0  0
  -27.9196  -11.2673   18.9571 H   0  0  0  0  0  0
  -27.3673  -12.4647   17.8137 H   0  0  0  0  0  0
  -27.6319  -14.2455   19.4504 H   0  0  0  0  0  0
  -28.7046  -12.2005   21.4669 H   0  0  0  0  0  0
  -28.4161  -13.8939   21.7683 H   0  0  0  0  0  0
  -25.2766   -9.5678   22.4746 H   0  0  0  0  0  0
  -23.9986   -7.4647   22.7476 H   0  0  0  0  0  0
  -21.0849   -8.8774   19.8943 H   0  0  0  0  0  0
  -22.3711  -10.9662   19.6145 H   0  0  0  0  0  0
  -21.2000   -7.6146   23.9706 H   0  0  0  0  0  0
  -21.1484   -6.0527   25.9072 H   0  0  0  0  0  0
  -22.0594   -2.7608   23.2854 H   0  0  0  0  0  0
  -22.4115  -11.9835   22.4764 H   0  0  0  0  0  0
  -21.1062  -13.1202   22.2658 H   0  0  0  0  0  0
  -24.6626  -15.8511   20.5414 H   0  0  0  0  0  0
  -26.2738  -15.6298   20.0908 H   0  0  0  0  0  0
  -26.7266  -32.5401   23.1142 H   0  0  0  0  0  0
  -25.0129  -33.9720   25.0464 H   0  0  0  0  0  0
  -22.7295  -31.3198   21.4248 H   0  0  0  0  0  0
  -23.3756  -35.9616   23.3304 H   0  0  0  0  0  0
  -24.3577  -36.8906   22.2051 H   0  0  0  0  0  0
  -23.7222  -37.6494   23.6646 H   0  0  0  0  0  0
  -26.1492  -31.5164   20.6404 H   0  0  0  0  0  0
  -26.8601  -30.7888   22.0466 H   0  0  0  0  0  0
  -28.0964  -28.8407   21.2741 H   0  0  0  0  0  0
  -25.8325  -26.0813   18.7762 H   0  0  0  0  0  0
  -23.9516  -27.4383   18.9071 H   0  0  0  0  0  0
  -23.7884  -30.6499   19.4271 H   0  0  0  0  0  0
  -22.7619  -29.3079   19.8462 H   0  0  0  0  0  0
  -25.1284  -36.1960   25.0827 H   0  0  0  0  0  0
  -20.9989  -28.3328   24.1392 H   0  0  0  0  0  0
  -20.5692  -26.2373   23.3631 H   0  0  0  0  0  0
  -21.6680  -26.7476   22.1250 H   0  0  0  0  0  0
  -19.6975  -25.6332   21.1240 H   0  0  0  0  0  0
  -19.6762  -27.3237   20.6761 H   0  0  0  0  0  0
  -17.4256  -26.6722   21.3973 H   0  0  0  0  0  0
  -18.0333  -26.0086   22.8984 H   0  0  0  0  0  0
  -19.7940  -30.7293   24.2292 H   0  0  0  0  0  0
  -17.5020  -31.6275   24.5185 H   0  0  0  0  0  0
  -15.5361  -30.3001   23.7660 H   0  0  0  0  0  0
  -15.8688  -28.0830   22.7083 H   0  0  0  0  0  0
  -24.5900  -30.7123   25.7848 H   0  0  0  0  0  0
  -24.8925  -32.2934   26.4931 H   0  0  0  0  0  0
  -25.8019  -30.8950   27.0298 H   0  0  0  0  0  0
  -26.2987  -29.6748   24.1316 H   0  0  0  0  0  0
  -27.3974  -29.7274   25.4906 H   0  0  0  0  0  0
  -27.8918  -30.4264   23.9678 H   0  0  0  0  0  0
  -27.2681  -33.3655   26.2131 H   0  0  0  0  0  0
  -28.3883  -32.6901   25.0401 H   0  0  0  0  0  0
  -28.0741  -31.8492   26.5497 H   0  0  0  0  0  0
  -28.2610  -38.0099   24.7515 H   0  0  0  0  0  0
  -28.1064  -36.2636   24.6300 H   0  0  0  0  0  0
  -27.2300  -37.1471   25.8872 H   0  0  0  0  0  0
  -20.9445  -29.8863   21.6897 H   0  0  0  0  0  0
  -26.0183  -38.2868   24.1393 H   0  0  0  0  0  0
  -26.2992  -23.3059   18.3847 H   0  0  0  0  0  0
  -29.0895  -21.3530   22.8431 H   0  0  0  0  0  0
  -29.3461  -22.5049   24.2627 H   0  0  0  0  0  0
  -30.4126  -24.1241   22.8116 H   0  0  0  0  0  0
  -25.1111  -20.2937   18.5524 H   0  0  0  0  0  0
  -26.2894  -19.8778   17.2984 H   0  0  0  0  0  0
  -25.4380  -21.4192   17.2366 H   0  0  0  0  0  0
  -30.5482  -23.9542   20.4778 H   0  0  0  0  0  0
  -31.1462  -22.3476   20.7642 H   0  0  0  0  0  0
  -27.7695  -25.1660   18.4054 H   0  0  0  0  0  0
  -26.8727  -24.8105   19.9179 H   0  0  0  0  0  0
  -28.6904  -18.2541   19.6807 H   0  0  0  0  0  0
  -28.6627  -18.4219   21.4095 H   0  0  0  0  0  0
  -31.0126  -17.4638   21.5401 H   0  0  0  0  0  0
  -31.0859  -17.3891   19.8028 H   0  0  0  0  0  0
  -30.6009  -20.1950   20.9765 H   0  0  0  0  0  0
  -28.9298  -15.7256   20.8848 H   0  0  0  0  0  0
  1 25  1  0  0  0
  1 30  2  0  0  0
  1 85  1  0  0  0
  2  3  1  0  0  0
  2 25  1  0  0  0
  2 86  1  0  0  0
  2 87  1  0  0  0
  3  4  1  0  0  0
  3 88  1  0  0  0
  3 89  1  0  0  0
  4  5  1  0  0  0
  4 90  1  0  0  0
  4 91  1  0  0  0
  5  6  1  0  0  0
  5 26  1  0  0  0
  5 92  1  0  0  0
  6 25  1  0  0  0
  6 93  1  0  0  0
  6 94  1  0  0  0
  7  8  2  0  0  0
  7 26  1  0  0  0
  7 29  1  0  0  0
  8  9  1  0  0  0
  8 22  1  0  0  0
  9 10  1  0  0  0
  9 27  2  0  0  0
 10 11  2  0  0  0
 10 15  1  0  0  0
 11 12  1  0  0  0
 11 95  1  0  0  0
 12 13  2  0  0  0
 12 96  1  0  0  0
 13 14  1  0  0  0
 13 31  1  0  0  0
 14 15  2  0  0  0
 14 97  1  0  0  0
 15 98  1  0  0  0
 16 17  2  0  0  0
 16 21  1  0  0  0
 16 31  1  0  0  0
 17 18  1  0  0  0
 17 99  1  0  0  0
 18 19  2  0  0  0
 18100  1  0  0  0
 19 20  1  0  0  0
 19 24  1  0  0  0
 20 21  2  0  0  0
 20101  1  0  0  0
 21 23  1  0  0  0
 22 28  1  0  0  0
 22 32  2  0  0  0
 26 27  1  0  0  0
 28102  1  0  0  0
 28103  1  0  0  0
 29104  1  0  0  0
 29105  1  0  0  0
 33 34  1  0  0  0
 33 66  1  0  0  0
 33 70  2  0  0  0
 34 36  1  0  0  0
 34 59  1  0  0  0
 34106  1  0  0  0
 35 44  2  0  0  0
 35 45  1  0  0  0
 35 68  1  0  0  0
 36 56  1  0  0  0
 36107  1  0  0  0
 37 39  1  0  0  0
 37 47  1  0  0  0
 37 66  1  0  0  0
 37108  1  0  0  0
 38 43  2  0  0  0
 38 46  1  0  0  0
 38 47  1  0  0  0
 39 64  1  0  0  0
 39 67  2  0  0  0
 40 52  1  0  0  0
 40 53  2  0  0  0
 40 58  1  0  0  0
 41109  1  0  0  0
 41110  1  0  0  0
 41111  1  0  0  0
 41 48  1  0  0  0
 42 43  1  0  0  0
 42 66  1  0  0  0
 42112  1  0  0  0
 42113  1  0  0  0
 43 44  1  0  0  0
 44114  1  0  0  0
 45 46  2  0  0  0
 45115  1  0  0  0
 46116  1  0  0  0
 47117  1  0  0  0
 47118  1  0  0  0
 48 56  1  0  0  0
 48 65  1  0  0  0
 48119  1  0  0  0
 49 50  1  0  0  0
 49 53  1  0  0  0
 49 64  1  0  0  0
 49120  1  0  0  0
 50 51  1  0  0  0
 50121  1  0  0  0
 50122  1  0  0  0
 51 52  1  0  0  0
 51123  1  0  0  0
 51124  1  0  0  0
 52125  1  0  0  0
 52126  1  0  0  0
 53 54  1  0  0  0
 54 55  2  0  0  0
 54127  1  0  0  0
 55 57  1  0  0  0
 55128  1  0  0  0
 56 69  2  0  0  0
 57 58  2  0  0  0
 57129  1  0  0  0
 58130  1  0  0  0
 59 60  1  0  0  0
 59 61  1  0  0  0
 59 62  1  0  0  0
 60131  1  0  0  0
 60132  1  0  0  0
 60133  1  0  0  0
 61134  1  0  0  0
 61135  1  0  0  0
 61136  1  0  0  0
 62137  1  0  0  0
 62138  1  0  0  0
 62139  1  0  0  0
 63 65  1  0  0  0
 63140  1  0  0  0
 63141  1  0  0  0
 63142  1  0  0  0
 64143  1  0  0  0
 65144  1  0  0  0
 68 80  1  0  0  0
 71 72  2  0  0  0
 71 74  1  0  0  0
 71145  1  0  0  0
 72 73  1  0  0  0
 72 80  1  0  0  0
 73 75  2  0  0  0
 73 79  1  0  0  0
 74 78  1  0  0  0
 74 83  2  0  0  0
 75 83  1  0  0  0
 75 84  1  0  0  0
 76 77  2  0  0  0
 76146  1  0  0  0
 76147  1  0  0  0
 77 79  1  0  0  0
 77148  1  0  0  0
 78149  1  0  0  0
 78150  1  0  0  0
 78151  1  0  0  0
 79152  1  0  0  0
 79153  1  0  0  0
 80154  1  0  0  0
 80155  1  0  0  0
 81 82  1  0  0  0
 81 84  1  0  0  0
 81156  1  0  0  0
 81157  1  0  0  0
 82 85  1  0  0  0
 82158  1  0  0  0
 82159  1  0  0  0
 84160  1  0  0  0
 85161  1  0  0  0
M  ISO  4   1 100  68 101  80 101  85 100
M  END
> <chiral flag>
0

> <version>
0

> <s_m_source_file>
/data/baiqing/PycharmProjects/Reinvent-master-3.2/result/LINK_invent/BTK/process_docking_weight1_custom_sum_contain_oxygen_bond_distance_aromatic_linkinvent_7_9_3/rearranged_h_0120.sdf

> <i_m_source_file_index>
79

> <r_mmod_Potential_Energy-OPLS-2005>
35.3618278503418

> <r_mmod_Stretch_Energy-OPLS-2005>
124.770164489746

> <r_mmod_Bend_Energy-OPLS-2005>
304.807037353516

> <r_mmod_Torsional_Energy-OPLS-2005>
216.94709777832

> <r_mmod_Improper_Torsional_Energy-OPLS-2005>
5.6122899055481

> <r_mmod_Van_der_Waal_Energy-OPLS-2005>
177.429977416992

> <r_mmod_Electrostatic_Energy-OPLS-2005>
-655.89990234375

> <r_mmod_Solvation_Energy-OPLS-2005>
-239.244277954102

> <b_mmod_Minimization_Converged-OPLS-2005>
0

> <r_mmod_RMS_Derivative-OPLS-2005>
3.44967103004456

$$$$
80
                    3D
 Structure written by MMmdl.
162170  0  0  1  0            999 V2000
  -30.5967  -14.7104   20.4616 C   0  0  0  0  0  0
  -30.4435  -12.4305   19.4621 C   0  0  0  0  0  0
  -29.5137  -12.5242   18.2302 C   0  0  0  0  0  0
  -28.0366  -12.3568   18.6402 C   0  0  0  0  0  0
  -27.6538  -13.2276   19.8662 C   0  0  2  0  0  0
  -28.7025  -13.1006   20.9975 C   0  0  0  0  0  0
  -25.2534  -13.8183   20.5684 C   0  0  0  0  0  0
  -24.1829  -13.0427   20.9219 C   0  0  0  0  0  0
  -24.6434  -11.6913   20.8773 C   0  0  0  0  0  0
  -23.9092  -10.4302   21.0427 C   0  0  0  0  0  0
  -24.3628   -9.4189   21.9189 C   0  0  0  0  0  0
  -23.6300   -8.2227   22.0742 C   0  0  0  0  0  0
  -22.4278   -8.0288   21.3544 C   0  0  0  0  0  0
  -21.9923   -9.0265   20.4634 C   0  0  0  0  0  0
  -22.7268  -10.2140   20.3058 C   0  0  0  0  0  0
  -21.6845   -6.0733   22.5285 C   0  0  0  0  0  0
  -21.4006   -6.5632   23.8219 C   0  0  0  0  0  0
  -21.3666   -5.6783   24.9176 C   0  0  0  0  0  0
  -21.6045   -4.3047   24.7224 C   0  0  0  0  0  0
  -21.8817   -3.8142   23.4343 C   0  0  0  0  0  0
  -21.9188   -4.6960   22.3401 C   0  0  0  0  0  0
  -22.7839  -13.5193   21.1869 C   0  0  0  0  0  0
  -22.1659   -4.2149   21.0979 F   0  0  0  0  0  0
  -21.5627   -3.4533   25.7733 F   0  0  0  0  0  0
  -30.0130  -13.4613   20.4333 N   0  0  0  0  0  0
  -26.3000  -12.9404   20.3350 N   0  0  0  0  0  0
  -25.9365  -11.6546   20.5777 N   0  0  0  0  0  0
  -22.0469  -12.8217   22.0435 N   0  0  0  0  0  0
  -25.4187  -15.1906   20.4023 N   0  0  0  0  0  0
  -31.7412  -14.8825   20.0360 O   0  0  0  0  0  0
  -21.6629   -6.8890   21.4252 O   0  0  0  0  0  0
  -22.3527  -14.5505   20.6719 O   0  0  0  0  0  0
  -24.6298  -31.8537   23.1860 C   0  0  0  0  0  0
  -25.9090  -32.4756   23.8280 C   0  0  1  0  0  0
  -27.2684  -27.2754   20.1285 C   0  0  0  0  0  0
  -25.5879  -33.8552   24.2228 N   0  0  0  0  0  0
  -23.4336  -30.4657   21.5337 C   0  0  2  0  0  0
  -24.8908  -28.8972   20.1216 C   0  0  0  0  0  0
  -22.7546  -29.4593   22.4977 C   0  0  0  0  0  0
  -18.0306  -28.1380   22.8508 C   0  0  0  0  0  0
  -24.1475  -36.7278   23.2646 C   0  0  0  0  0  0
  -25.9760  -30.7669   21.3647 C   0  0  0  0  0  0
  -26.0567  -29.3846   20.7236 C   0  0  0  0  0  0
  -27.2483  -28.5868   20.7096 C   0  0  0  0  0  0
  -26.0716  -26.8309   19.5302 C   0  0  0  0  0  0
  -24.9016  -27.6245   19.5222 C   0  0  0  0  0  0
  -23.6541  -29.7798   20.1565 C   0  0  0  0  0  0
  -25.4110  -36.3091   24.0347 C   0  0  1  0  0  0
  -20.5914  -28.3656   23.1315 C   0  0  2  0  0  0
  -20.6791  -26.9382   22.5428 C   0  0  0  0  0  0
  -19.5763  -26.6362   21.5247 C   0  0  0  0  0  0
  -18.1944  -26.7930   22.1641 C   0  0  0  0  0  0
  -19.1572  -28.8867   23.2880 C   0  0  0  0  0  0
  -18.9482  -30.1485   23.8878 C   0  0  0  0  0  0
  -17.6466  -30.6574   24.0598 C   0  0  0  0  0  0
  -25.9035  -34.9449   23.5095 C   0  0  0  0  0  0
  -16.5357  -29.9058   23.6344 C   0  0  0  0  0  0
  -16.7294  -28.6486   23.0342 C   0  0  0  0  0  0
  -26.4445  -31.6572   25.0694 C   0  0  0  0  0  0
  -25.3653  -31.3754   26.1418 C   0  0  0  0  0  0
  -27.0292  -30.3002   24.6151 C   0  0  0  0  0  0
  -27.6025  -32.4288   25.7463 C   0  0  0  0  0  0
  -27.5574  -37.1803   24.8487 C   0  0  0  0  0  0
  -21.4229  -29.3006   22.3739 N   0  0  0  0  0  0
  -26.4295  -37.3786   23.9441 N   0  0  0  0  0  0
  -24.6987  -31.0506   22.0851 N   0  0  0  0  0  0
  -23.4237  -28.8163   23.3111 O   0  0  0  0  0  0
  -28.4269  -26.4674   20.0487 O   0  0  0  0  0  0
  -26.5675  -34.8921   22.4691 O   0  0  0  0  0  0
  -23.5428  -32.1362   23.7142 O   0  0  0  0  0  0
  -28.6629  -21.9381   21.7832 C   0  0  0  0  0  0
  -29.5938  -20.9589   19.7987 C   0  0  0  0  0  0
  -29.4102  -22.3907   20.5249 C   0  0  1  0  0  0
  -29.2238  -20.5206   22.0814 C   0  0  1  0  0  0
  -28.4257  -19.7564   23.1527 C   0  0  0  0  0  0
  -29.8542  -24.0539   18.6183 C   0  0  0  0  0  0
  -29.5588  -17.1617   20.1688 C   0  0  0  0  0  0
  -30.1631  -18.5124   20.8104 C   0  0  0  0  0  0
  -28.4940  -25.0746   20.6102 C   0  0  0  0  0  0
  -28.8605  -23.7309   19.7553 C   0  0  2  0  0  0
  -29.7750  -15.7711   20.7770 N   0  0  0  0  0  0
  -29.3168  -19.8135   20.7719 N   0  3  2  0  0  0
  -31.4844  -12.5592   19.1568 H   0  0  0  0  0  0
  -30.3858  -11.4350   19.9077 H   0  0  0  0  0  0
  -29.7847  -11.7668   17.4923 H   0  0  0  0  0  0
  -29.6539  -13.4889   17.7402 H   0  0  0  0  0  0
  -27.8767  -11.3036   18.8720 H   0  0  0  0  0  0
  -27.3834  -12.5868   17.7978 H   0  0  0  0  0  0
  -27.6650  -14.2629   19.5237 H   0  0  0  0  0  0
  -28.7250  -12.0779   21.3810 H   0  0  0  0  0  0
  -28.4440  -13.7356   21.8472 H   0  0  0  0  0  0
  -25.2770   -9.5643   22.4772 H   0  0  0  0  0  0
  -23.9994   -7.4601   22.7458 H   0  0  0  0  0  0
  -21.0847   -8.8808   19.8943 H   0  0  0  0  0  0
  -22.3748  -10.9683   19.6169 H   0  0  0  0  0  0
  -21.2004   -7.6145   23.9730 H   0  0  0  0  0  0
  -21.1487   -6.0508   25.9083 H   0  0  0  0  0  0
  -22.0595   -2.7613   23.2841 H   0  0  0  0  0  0
  -22.4063  -11.9878   22.4855 H   0  0  0  0  0  0
  -21.1080  -13.1246   22.2596 H   0  0  0  0  0  0
  -24.6353  -15.8314   20.4749 H   0  0  0  0  0  0
  -26.2435  -15.6212   20.0041 H   0  0  0  0  0  0
  -26.7205  -32.5428   23.1068 H   0  0  0  0  0  0
  -25.0019  -33.9689   25.0367 H   0  0  0  0  0  0
  -22.7313  -31.2876   21.3756 H   0  0  0  0  0  0
  -23.3745  -35.9605   23.3355 H   0  0  0  0  0  0
  -24.3614  -36.8838   22.2058 H   0  0  0  0  0  0
  -23.7158  -37.6472   23.6630 H   0  0  0  0  0  0
  -26.1109  -31.5163   20.5783 H   0  0  0  0  0  0
  -26.8563  -30.8295   21.9945 H   0  0  0  0  0  0
  -28.1502  -28.9742   21.1660 H   0  0  0  0  0  0
  -26.0509  -25.8619   19.0541 H   0  0  0  0  0  0
  -24.0013  -27.2408   19.0558 H   0  0  0  0  0  0
  -23.7597  -30.5441   19.3856 H   0  0  0  0  0  0
  -22.7781  -29.1976   19.8650 H   0  0  0  0  0  0
  -25.1256  -36.1973   25.0848 H   0  0  0  0  0  0
  -21.0003  -28.3156   24.1442 H   0  0  0  0  0  0
  -20.5750  -26.2235   23.3601 H   0  0  0  0  0  0
  -21.6654  -26.7426   22.1237 H   0  0  0  0  0  0
  -19.6914  -25.6281   21.1254 H   0  0  0  0  0  0
  -19.6706  -27.3245   20.6841 H   0  0  0  0  0  0
  -17.4232  -26.6733   21.4002 H   0  0  0  0  0  0
  -18.0289  -26.0091   22.9048 H   0  0  0  0  0  0
  -19.7956  -30.7347   24.2192 H   0  0  0  0  0  0
  -17.5002  -31.6276   24.5180 H   0  0  0  0  0  0
  -15.5370  -30.2950   23.7671 H   0  0  0  0  0  0
  -15.8698  -28.0812   22.7008 H   0  0  0  0  0  0
  -24.5851  -30.7061   25.7756 H   0  0  0  0  0  0
  -24.8804  -32.2927   26.4758 H   0  0  0  0  0  0
  -25.7925  -30.9000   27.0230 H   0  0  0  0  0  0
  -26.2870  -29.6795   24.1110 H   0  0  0  0  0  0
  -27.3944  -29.7220   25.4628 H   0  0  0  0  0  0
  -27.8742  -30.4369   23.9420 H   0  0  0  0  0  0
  -27.2685  -33.3616   26.2019 H   0  0  0  0  0  0
  -28.3823  -32.6761   25.0259 H   0  0  0  0  0  0
  -28.0700  -31.8404   26.5372 H   0  0  0  0  0  0
  -28.2607  -38.0087   24.7565 H   0  0  0  0  0  0
  -28.1022  -36.2607   24.6255 H   0  0  0  0  0  0
  -27.2345  -37.1439   25.8907 H   0  0  0  0  0  0
  -20.9426  -29.8656   21.6890 H   0  0  0  0  0  0
  -26.0164  -38.2853   24.1413 H   0  0  0  0  0  0
  -27.5896  -21.9050   21.6001 H   0  0  0  0  0  0
  -28.8326  -22.6145   22.6232 H   0  0  0  0  0  0
  -30.5980  -20.8628   19.3888 H   0  0  0  0  0  0
  -28.9096  -20.8710   18.9565 H   0  0  0  0  0  0
  -30.4097  -22.6516   20.8778 H   0  0  0  0  0  0
  -30.2462  -20.6498   22.4467 H   0  0  0  0  0  0
  -27.3968  -19.5727   22.8507 H   0  0  0  0  0  0
  -28.4050  -20.3154   24.0914 H   0  0  0  0  0  0
  -28.8766  -18.7940   23.3861 H   0  0  0  0  0  0
  -29.7546  -23.3303   17.8082 H   0  0  0  0  0  0
  -30.8962  -24.0131   18.9486 H   0  0  0  0  0  0
  -29.6849  -25.0433   18.1928 H   0  0  0  0  0  0
  -29.8507  -17.1236   19.1170 H   0  0  0  0  0  0
  -28.4744  -17.2776   20.1448 H   0  0  0  0  0  0
  -31.1257  -18.7223   20.3432 H   0  0  0  0  0  0
  -30.4185  -18.2930   21.8462 H   0  0  0  0  0  0
  -29.2622  -25.1602   21.3766 H   0  0  0  0  0  0
  -27.5674  -24.8836   21.1508 H   0  0  0  0  0  0
  -27.9190  -23.4547   19.2774 H   0  0  0  0  0  0
  -28.9442  -15.4380   21.2428 H   0  0  0  0  0  0
  -28.3729  -19.5240   20.5604 H   0  0  0  0  0  0
  1 25  1  0  0  0
  1 30  2  0  0  0
  1 81  1  0  0  0
  2  3  1  0  0  0
  2 25  1  0  0  0
  2 83  1  0  0  0
  2 84  1  0  0  0
  3  4  1  0  0  0
  3 85  1  0  0  0
  3 86  1  0  0  0
  4  5  1  0  0  0
  4 87  1  0  0  0
  4 88  1  0  0  0
  5  6  1  0  0  0
  5 26  1  0  0  0
  5 89  1  0  0  0
  6 25  1  0  0  0
  6 90  1  0  0  0
  6 91  1  0  0  0
  7  8  2  0  0  0
  7 26  1  0  0  0
  7 29  1  0  0  0
  8  9  1  0  0  0
  8 22  1  0  0  0
  9 10  1  0  0  0
  9 27  2  0  0  0
 10 11  2  0  0  0
 10 15  1  0  0  0
 11 12  1  0  0  0
 11 92  1  0  0  0
 12 13  2  0  0  0
 12 93  1  0  0  0
 13 14  1  0  0  0
 13 31  1  0  0  0
 14 15  2  0  0  0
 14 94  1  0  0  0
 15 95  1  0  0  0
 16 17  2  0  0  0
 16 21  1  0  0  0
 16 31  1  0  0  0
 17 18  1  0  0  0
 17 96  1  0  0  0
 18 19  2  0  0  0
 18 97  1  0  0  0
 19 20  1  0  0  0
 19 24  1  0  0  0
 20 21  2  0  0  0
 20 98  1  0  0  0
 21 23  1  0  0  0
 22 28  1  0  0  0
 22 32  2  0  0  0
 26 27  1  0  0  0
 28 99  1  0  0  0
 28100  1  0  0  0
 29101  1  0  0  0
 29102  1  0  0  0
 33 34  1  0  0  0
 33 66  1  0  0  0
 33 70  2  0  0  0
 34 36  1  0  0  0
 34 59  1  0  0  0
 34103  1  0  0  0
 35 44  2  0  0  0
 35 45  1  0  0  0
 35 68  1  0  0  0
 36 56  1  0  0  0
 36104  1  0  0  0
 37 39  1  0  0  0
 37 47  1  0  0  0
 37 66  1  0  0  0
 37105  1  0  0  0
 38 43  2  0  0  0
 38 46  1  0  0  0
 38 47  1  0  0  0
 39 64  1  0  0  0
 39 67  2  0  0  0
 40 52  1  0  0  0
 40 53  2  0  0  0
 40 58  1  0  0  0
 41106  1  0  0  0
 41107  1  0  0  0
 41108  1  0  0  0
 41 48  1  0  0  0
 42 43  1  0  0  0
 42 66  1  0  0  0
 42109  1  0  0  0
 42110  1  0  0  0
 43 44  1  0  0  0
 44111  1  0  0  0
 45 46  2  0  0  0
 45112  1  0  0  0
 46113  1  0  0  0
 47114  1  0  0  0
 47115  1  0  0  0
 48 56  1  0  0  0
 48 65  1  0  0  0
 48116  1  0  0  0
 49 50  1  0  0  0
 49 53  1  0  0  0
 49 64  1  0  0  0
 49117  1  0  0  0
 50 51  1  0  0  0
 50118  1  0  0  0
 50119  1  0  0  0
 51 52  1  0  0  0
 51120  1  0  0  0
 51121  1  0  0  0
 52122  1  0  0  0
 52123  1  0  0  0
 53 54  1  0  0  0
 54 55  2  0  0  0
 54124  1  0  0  0
 55 57  1  0  0  0
 55125  1  0  0  0
 56 69  2  0  0  0
 57 58  2  0  0  0
 57126  1  0  0  0
 58127  1  0  0  0
 59 60  1  0  0  0
 59 61  1  0  0  0
 59 62  1  0  0  0
 60128  1  0  0  0
 60129  1  0  0  0
 60130  1  0  0  0
 61131  1  0  0  0
 61132  1  0  0  0
 61133  1  0  0  0
 62134  1  0  0  0
 62135  1  0  0  0
 62136  1  0  0  0
 63 65  1  0  0  0
 63137  1  0  0  0
 63138  1  0  0  0
 63139  1  0  0  0
 64140  1  0  0  0
 65141  1  0  0  0
 68 79  1  0  0  0
 71 74  1  0  0  0
 71142  1  0  0  0
 71143  1  0  0  0
 71 73  1  0  0  0
 72 73  1  0  0  0
 72 82  1  0  0  0
 72144  1  0  0  0
 72145  1  0  0  0
 73 80  1  0  0  0
 73146  1  0  0  0
 74 75  1  0  0  0
 74 82  1  0  0  0
 74147  1  0  0  0
 75148  1  0  0  0
 75149  1  0  0  0
 75150  1  0  0  0
 76151  1  0  0  0
 76152  1  0  0  0
 76153  1  0  0  0
 76 80  1  0  0  0
 77 78  1  0  0  0
 77 81  1  0  0  0
 77154  1  0  0  0
 77155  1  0  0  0
 78156  1  0  0  0
 78157  1  0  0  0
 78 82  1  0  0  0
 79 80  1  0  0  0
 79158  1  0  0  0
 79159  1  0  0  0
 80160  1  0  0  0
 81161  1  0  0  0
 82162  1  0  0  0
M  CHG  1  82   1
M  ISO  4   1 100  68 101  79 101  81 100
M  END
> <chiral flag>
0

> <version>
0

> <s_m_source_file>
/data/baiqing/PycharmProjects/Reinvent-master-3.2/result/LINK_invent/BTK/process_docking_weight1_custom_sum_contain_oxygen_bond_distance_aromatic_linkinvent_7_9_3/rearranged_h_0120.sdf

> <i_m_source_file_index>
80

> <r_mmod_Potential_Energy-OPLS-2005>
168.307510375977

> <r_mmod_Stretch_Energy-OPLS-2005>
129.862915039062

> <r_mmod_Bend_Energy-OPLS-2005>
227.466934204102

> <r_mmod_Torsional_Energy-OPLS-2005>
335.666595458984

> <r_mmod_Improper_Torsional_Energy-OPLS-2005>
7.44059228897095

> <r_mmod_Van_der_Waal_Energy-OPLS-2005>
106.47265625

> <r_mmod_Electrostatic_Energy-OPLS-2005>
-252.932098388672

> <r_mmod_Solvation_Energy-OPLS-2005>
-453.063018798828

> <b_mmod_Minimization_Converged-OPLS-2005>
0

> <r_mmod_RMS_Derivative-OPLS-2005>
6.0344934463501

$$$$
81
                    3D
 Structure written by MMmdl.
156164  0  0  1  0            999 V2000
  -30.3940  -15.3987   20.3370 C   0  0  0  0  0  0
  -30.4298  -12.9034   19.5306 C   0  0  0  0  0  0
  -29.5351  -12.5942   18.3005 C   0  0  0  0  0  0
  -28.0895  -12.2981   18.7309 C   0  0  0  0  0  0
  -27.6011  -13.2858   19.8182 C   0  0  2  0  0  0
  -28.6326  -13.5137   20.9456 C   0  0  0  0  0  0
  -25.2340  -13.8258   20.5786 C   0  0  0  0  0  0
  -24.1695  -13.0422   20.9272 C   0  0  0  0  0  0
  -24.6367  -11.6928   20.8756 C   0  0  0  0  0  0
  -23.9066  -10.4282   21.0386 C   0  0  0  0  0  0
  -24.3610   -9.4207   21.9175 C   0  0  0  0  0  0
  -23.6282   -8.2237   22.0748 C   0  0  0  0  0  0
  -22.4275   -8.0267   21.3530 C   0  0  0  0  0  0
  -21.9900   -9.0241   20.4644 C   0  0  0  0  0  0
  -22.7225  -10.2120   20.3051 C   0  0  0  0  0  0
  -21.6859   -6.0729   22.5271 C   0  0  0  0  0  0
  -21.4007   -6.5631   23.8199 C   0  0  0  0  0  0
  -21.3652   -5.6783   24.9165 C   0  0  0  0  0  0
  -21.6043   -4.3047   24.7215 C   0  0  0  0  0  0
  -21.8827   -3.8140   23.4343 C   0  0  0  0  0  0
  -21.9197   -4.6952   22.3396 C   0  0  0  0  0  0
  -22.7723  -13.5178   21.1911 C   0  0  0  0  0  0
  -22.1670   -4.2135   21.0976 F   0  0  0  0  0  0
  -21.5627   -3.4536   25.7736 F   0  0  0  0  0  0
  -29.8401  -14.0696   20.3047 N   0  0  0  0  0  0
  -26.2771  -12.9540   20.3237 N   0  0  0  0  0  0
  -25.9311  -11.6640   20.5722 N   0  0  0  0  0  0
  -22.0393  -12.8155   22.0476 N   0  0  0  0  0  0
  -25.3993  -15.1985   20.4227 N   0  0  0  0  0  0
  -31.6185  -15.3652   20.1391 O   0  0  0  0  0  0
  -21.6643   -6.8860   21.4230 O   0  0  0  0  0  0
  -22.3395  -14.5479   20.6760 O   0  0  0  0  0  0
  -24.6648  -31.8165   23.1680 C   0  0  0  0  0  0
  -25.9313  -32.4546   23.8158 C   0  0  1  0  0  0
  -27.2326  -26.8963   20.1660 C   0  0  0  0  0  0
  -25.5954  -33.8372   24.2038 N   0  0  0  0  0  0
  -23.4828  -30.4280   21.5187 C   0  0  2  0  0  0
  -24.9446  -28.8172   20.1033 C   0  0  0  0  0  0
  -22.7678  -29.4411   22.4788 C   0  0  0  0  0  0
  -18.0319  -28.1440   22.8470 C   0  0  0  0  0  0
  -24.1447  -36.7135   23.2674 C   0  0  0  0  0  0
  -26.0538  -30.6147   21.4070 C   0  0  0  0  0  0
  -26.1255  -29.2024   20.7468 C   0  0  0  0  0  0
  -27.2572  -28.2606   20.7656 C   0  0  0  0  0  0
  -26.0307  -26.6918   19.4506 C   0  0  0  0  0  0
  -24.9269  -27.5827   19.4339 C   0  0  0  0  0  0
  -23.7227  -29.7393   20.1463 C   0  0  0  0  0  0
  -25.4101  -36.2921   24.0311 C   0  0  1  0  0  0
  -20.5950  -28.3760   23.1189 C   0  0  2  0  0  0
  -20.6796  -26.9442   22.5415 C   0  0  0  0  0  0
  -19.5768  -26.6380   21.5237 C   0  0  0  0  0  0
  -18.1937  -26.7969   22.1627 C   0  0  0  0  0  0
  -19.1584  -28.8922   23.2810 C   0  0  0  0  0  0
  -18.9514  -30.1514   23.8839 C   0  0  0  0  0  0
  -17.6503  -30.6628   24.0571 C   0  0  0  0  0  0
  -25.9081  -34.9323   23.4988 C   0  0  0  0  0  0
  -16.5385  -29.9112   23.6388 C   0  0  0  0  0  0
  -16.7303  -28.6536   23.0386 C   0  0  0  0  0  0
  -26.4569  -31.6506   25.0691 C   0  0  0  0  0  0
  -25.3658  -31.3804   26.1309 C   0  0  0  0  0  0
  -27.0499  -30.2862   24.6480 C   0  0  0  0  0  0
  -27.6027  -32.4363   25.7485 C   0  0  0  0  0  0
  -27.5512  -37.1728   24.8500 C   0  0  0  0  0  0
  -21.4345  -29.3023   22.3517 N   0  0  0  0  0  0
  -26.4226  -37.3672   23.9428 N   0  0  0  0  0  0
  -24.7554  -30.9779   22.0865 N   0  0  0  0  0  0
  -23.4187  -28.8024   23.3087 O   0  0  0  0  0  0
  -28.1953  -25.7434   20.3014 O   0  0  0  0  0  0
  -26.5720  -34.8888   22.4599 O   0  0  0  0  0  0
  -23.5696  -32.1187   23.6716 O   0  0  0  0  0  0
  -28.9318  -21.1855   19.4775 C   0  0  0  0  0  0
  -28.6479  -22.5455   20.1539 C   0  0  0  0  0  0
  -29.2883  -20.0180   20.3025 C   0  0  0  0  0  0
  -28.7721  -24.4892   18.3270 C   0  0  0  0  0  0
  -28.2895  -20.0918   23.6489 C   0  0  0  0  0  0
  -30.5129  -21.3368   23.5321 C   0  0  0  0  0  0
  -30.0092  -18.3702   20.1392 C   0  0  0  0  0  0
  -28.1090  -24.1952   19.6771 C   0  0  2  0  0  0
  -29.5683  -20.3320   22.8346 C   0  0  0  0  0  0
  -28.8123  -22.1409   21.4139 N   0  0  0  0  0  0
  -29.2237  -20.7875   21.4953 N   0  0  0  0  0  0
  -29.6550  -16.7184   20.3865 N   0  0  0  0  0  0
  -31.4408  -13.1236   19.1862 H   0  0  0  0  0  0
  -30.5306  -12.0217   20.1663 H   0  0  0  0  0  0
  -29.9376  -11.7525   17.7363 H   0  0  0  0  0  0
  -29.5429  -13.4501   17.6236 H   0  0  0  0  0  0
  -28.0594  -11.2810   19.1219 H   0  0  0  0  0  0
  -27.4191  -12.3124   17.8703 H   0  0  0  0  0  0
  -27.4953  -14.2376   19.2963 H   0  0  0  0  0  0
  -28.8389  -12.5869   21.4844 H   0  0  0  0  0  0
  -28.2497  -14.2203   21.6829 H   0  0  0  0  0  0
  -25.2747   -9.5695   22.4753 H   0  0  0  0  0  0
  -23.9997   -7.4635   22.7470 H   0  0  0  0  0  0
  -21.0830   -8.8745   19.8954 H   0  0  0  0  0  0
  -22.3661  -10.9652   19.6166 H   0  0  0  0  0  0
  -21.1997   -7.6141   23.9691 H   0  0  0  0  0  0
  -21.1463   -6.0521   25.9058 H   0  0  0  0  0  0
  -22.0617   -2.7602   23.2848 H   0  0  0  0  0  0
  -22.4034  -11.9820   22.4843 H   0  0  0  0  0  0
  -21.1013  -13.1155   22.2701 H   0  0  0  0  0  0
  -24.6292  -15.8509   20.5284 H   0  0  0  0  0  0
  -26.2450  -15.6362   20.0808 H   0  0  0  0  0  0
  -26.7386  -32.5092   23.0881 H   0  0  0  0  0  0
  -25.0039  -33.9469   25.0145 H   0  0  0  0  0  0
  -22.8005  -31.2617   21.3446 H   0  0  0  0  0  0
  -23.3726  -35.9451   23.3374 H   0  0  0  0  0  0
  -24.3488  -36.8728   22.2077 H   0  0  0  0  0  0
  -23.7212  -37.6340   23.6704 H   0  0  0  0  0  0
  -26.2316  -31.3613   20.6323 H   0  0  0  0  0  0
  -26.9126  -30.6747   22.0635 H   0  0  0  0  0  0
  -28.1381  -28.5495   21.3206 H   0  0  0  0  0  0
  -25.8911  -25.7636   18.9209 H   0  0  0  0  0  0
  -24.0403  -27.2809   18.8950 H   0  0  0  0  0  0
  -23.8571  -30.5058   19.3825 H   0  0  0  0  0  0
  -22.8368  -29.1813   19.8406 H   0  0  0  0  0  0
  -25.1318  -36.1693   25.0807 H   0  0  0  0  0  0
  -21.0036  -28.3363   24.1315 H   0  0  0  0  0  0
  -20.5706  -26.2382   23.3656 H   0  0  0  0  0  0
  -21.6659  -26.7435   22.1213 H   0  0  0  0  0  0
  -19.6951  -25.6290   21.1284 H   0  0  0  0  0  0
  -19.6733  -27.3183   20.6760 H   0  0  0  0  0  0
  -17.4232  -26.6745   21.4004 H   0  0  0  0  0  0
  -18.0299  -26.0135   22.9036 H   0  0  0  0  0  0
  -19.7994  -30.7341   24.2168 H   0  0  0  0  0  0
  -17.5072  -31.6318   24.5161 H   0  0  0  0  0  0
  -15.5393  -30.3002   23.7754 H   0  0  0  0  0  0
  -15.8692  -28.0831   22.7149 H   0  0  0  0  0  0
  -24.5885  -30.7106   25.7617 H   0  0  0  0  0  0
  -24.8803  -32.3027   26.4519 H   0  0  0  0  0  0
  -25.7833  -30.9130   27.0226 H   0  0  0  0  0  0
  -26.3216  -29.6491   24.1450 H   0  0  0  0  0  0
  -27.3991  -29.7282   25.5180 H   0  0  0  0  0  0
  -27.9150  -30.4056   23.9946 H   0  0  0  0  0  0
  -27.2581  -33.3753   26.1837 H   0  0  0  0  0  0
  -28.3924  -32.6776   25.0355 H   0  0  0  0  0  0
  -28.0581  -31.8648   26.5576 H   0  0  0  0  0  0
  -28.2580  -37.9971   24.7434 H   0  0  0  0  0  0
  -28.0940  -36.2486   24.6446 H   0  0  0  0  0  0
  -27.2214  -37.1528   25.8905 H   0  0  0  0  0  0
  -20.9616  -29.8637   21.6584 H   0  0  0  0  0  0
  -26.0051  -38.2716   24.1451 H   0  0  0  0  0  0
  -28.9162  -21.0979   18.3998 H   0  0  0  0  0  0
  -29.8343  -24.6959   18.4684 H   0  0  0  0  0  0
  -28.3383  -25.3664   17.8508 H   0  0  0  0  0  0
  -28.6758  -23.6546   17.6340 H   0  0  0  0  0  0
  -28.5187  -19.7696   24.6640 H   0  0  0  0  0  0
  -27.6736  -19.3216   23.1832 H   0  0  0  0  0  0
  -27.6914  -21.0018   23.7170 H   0  0  0  0  0  0
  -30.8335  -20.9775   24.5092 H   0  0  0  0  0  0
  -30.0350  -22.3066   23.6885 H   0  0  0  0  0  0
  -31.4068  -21.5115   22.9309 H   0  0  0  0  0  0
  -30.9242  -18.4497   20.7279 H   0  0  0  0  0  0
  -30.3895  -18.3519   19.1184 H   0  0  0  0  0  0
  -27.0437  -24.0683   19.4915 H   0  0  0  0  0  0
  -30.0979  -19.3845   22.7409 H   0  0  0  0  0  0
  -28.6647  -16.5725   20.5210 H   0  0  0  0  0  0
  1 25  1  0  0  0
  1 30  2  0  0  0
  1 82  1  0  0  0
  2  3  1  0  0  0
  2 25  1  0  0  0
  2 83  1  0  0  0
  2 84  1  0  0  0
  3  4  1  0  0  0
  3 85  1  0  0  0
  3 86  1  0  0  0
  4  5  1  0  0  0
  4 87  1  0  0  0
  4 88  1  0  0  0
  5  6  1  0  0  0
  5 26  1  0  0  0
  5 89  1  0  0  0
  6 25  1  0  0  0
  6 90  1  0  0  0
  6 91  1  0  0  0
  7  8  2  0  0  0
  7 26  1  0  0  0
  7 29  1  0  0  0
  8  9  1  0  0  0
  8 22  1  0  0  0
  9 10  1  0  0  0
  9 27  2  0  0  0
 10 11  2  0  0  0
 10 15  1  0  0  0
 11 12  1  0  0  0
 11 92  1  0  0  0
 12 13  2  0  0  0
 12 93  1  0  0  0
 13 14  1  0  0  0
 13 31  1  0  0  0
 14 15  2  0  0  0
 14 94  1  0  0  0
 15 95  1  0  0  0
 16 17  2  0  0  0
 16 21  1  0  0  0
 16 31  1  0  0  0
 17 18  1  0  0  0
 17 96  1  0  0  0
 18 19  2  0  0  0
 18 97  1  0  0  0
 19 20  1  0  0  0
 19 24  1  0  0  0
 20 21  2  0  0  0
 20 98  1  0  0  0
 21 23  1  0  0  0
 22 28  1  0  0  0
 22 32  2  0  0  0
 26 27  1  0  0  0
 28 99  1  0  0  0
 28100  1  0  0  0
 29101  1  0  0  0
 29102  1  0  0  0
 33 34  1  0  0  0
 33 66  1  0  0  0
 33 70  2  0  0  0
 34 36  1  0  0  0
 34 59  1  0  0  0
 34103  1  0  0  0
 35 44  2  0  0  0
 35 45  1  0  0  0
 35 68  1  0  0  0
 36 56  1  0  0  0
 36104  1  0  0  0
 37 39  1  0  0  0
 37 47  1  0  0  0
 37 66  1  0  0  0
 37105  1  0  0  0
 38 43  2  0  0  0
 38 46  1  0  0  0
 38 47  1  0  0  0
 39 64  1  0  0  0
 39 67  2  0  0  0
 40 52  1  0  0  0
 40 53  2  0  0  0
 40 58  1  0  0  0
 41106  1  0  0  0
 41107  1  0  0  0
 41108  1  0  0  0
 41 48  1  0  0  0
 42 43  1  0  0  0
 42 66  1  0  0  0
 42109  1  0  0  0
 42110  1  0  0  0
 43 44  1  0  0  0
 44111  1  0  0  0
 45 46  2  0  0  0
 45112  1  0  0  0
 46113  1  0  0  0
 47114  1  0  0  0
 47115  1  0  0  0
 48 56  1  0  0  0
 48 65  1  0  0  0
 48116  1  0  0  0
 49 50  1  0  0  0
 49 53  1  0  0  0
 49 64  1  0  0  0
 49117  1  0  0  0
 50 51  1  0  0  0
 50118  1  0  0  0
 50119  1  0  0  0
 51 52  1  0  0  0
 51120  1  0  0  0
 51121  1  0  0  0
 52122  1  0  0  0
 52123  1  0  0  0
 53 54  1  0  0  0
 54 55  2  0  0  0
 54124  1  0  0  0
 55 57  1  0  0  0
 55125  1  0  0  0
 56 69  2  0  0  0
 57 58  2  0  0  0
 57126  1  0  0  0
 58127  1  0  0  0
 59 60  1  0  0  0
 59 61  1  0  0  0
 59 62  1  0  0  0
 60128  1  0  0  0
 60129  1  0  0  0
 60130  1  0  0  0
 61131  1  0  0  0
 61132  1  0  0  0
 61133  1  0  0  0
 62134  1  0  0  0
 62135  1  0  0  0
 62136  1  0  0  0
 63 65  1  0  0  0
 63137  1  0  0  0
 63138  1  0  0  0
 63139  1  0  0  0
 64140  1  0  0  0
 65141  1  0  0  0
 68 78  1  0  0  0
 71 72  1  0  0  0
 71 73  2  0  0  0
 71142  1  0  0  0
 72 78  1  0  0  0
 72 80  2  0  0  0
 73 77  1  0  0  0
 73 81  1  0  0  0
 74143  1  0  0  0
 74144  1  0  0  0
 74145  1  0  0  0
 74 78  1  0  0  0
 75146  1  0  0  0
 75147  1  0  0  0
 75148  1  0  0  0
 75 79  1  0  0  0
 76 79  1  0  0  0
 76149  1  0  0  0
 76150  1  0  0  0
 76151  1  0  0  0
 77 82  1  0  0  0
 77152  1  0  0  0
 77153  1  0  0  0
 78154  1  0  0  0
 79 81  1  0  0  0
 79155  1  0  0  0
 80 81  1  0  0  0
 82156  1  0  0  0
M  ISO  4   1 100  68 101  78 101  82 100
M  END
> <chiral flag>
0

> <version>
0

> <s_m_source_file>
/data/baiqing/PycharmProjects/Reinvent-master-3.2/result/LINK_invent/BTK/process_docking_weight1_custom_sum_contain_oxygen_bond_distance_aromatic_linkinvent_7_9_3/rearranged_h_0120.sdf

> <i_m_source_file_index>
81

> <r_mmod_Potential_Energy-OPLS-2005>
1479.72912597656

> <r_mmod_Stretch_Energy-OPLS-2005>
687.394714355469

> <r_mmod_Bend_Energy-OPLS-2005>
515.39306640625

> <r_mmod_Torsional_Energy-OPLS-2005>
235.129180908203

> <r_mmod_Improper_Torsional_Energy-OPLS-2005>
6.42532253265381

> <r_mmod_Van_der_Waal_Energy-OPLS-2005>
112.373001098633

> <r_mmod_Electrostatic_Energy-OPLS-2005>
-421.773040771484

> <r_mmod_Solvation_Energy-OPLS-2005>
-227.51188659668

> <b_mmod_Minimization_Converged-OPLS-2005>
0

> <r_mmod_RMS_Derivative-OPLS-2005>
3.99469614028931

$$$$
82
                    3D
 Structure written by MMmdl.
169177  0  0  1  0            999 V2000
  -30.7087  -14.4364   20.5242 C   0  0  0  0  0  0
  -30.4148  -12.2702   19.4298 C   0  0  0  0  0  0
  -29.4974  -12.5057   18.2120 C   0  0  0  0  0  0
  -28.0181  -12.3613   18.6202 C   0  0  0  0  0  0
  -27.6646  -13.1981   19.8807 C   0  0  2  0  0  0
  -28.7070  -12.9874   21.0062 C   0  0  0  0  0  0
  -25.2614  -13.8127   20.5674 C   0  0  0  0  0  0
  -24.1859  -13.0423   20.9161 C   0  0  0  0  0  0
  -24.6400  -11.6895   20.8733 C   0  0  0  0  0  0
  -23.9056  -10.4294   21.0410 C   0  0  0  0  0  0
  -24.3616   -9.4213   21.9189 C   0  0  0  0  0  0
  -23.6292   -8.2255   22.0765 C   0  0  0  0  0  0
  -22.4271   -8.0294   21.3552 C   0  0  0  0  0  0
  -21.9904   -9.0266   20.4654 C   0  0  0  0  0  0
  -22.7235  -10.2147   20.3060 C   0  0  0  0  0  0
  -21.6850   -6.0744   22.5279 C   0  0  0  0  0  0
  -21.4016   -6.5645   23.8217 C   0  0  0  0  0  0
  -21.3650   -5.6792   24.9171 C   0  0  0  0  0  0
  -21.6041   -4.3059   24.7216 C   0  0  0  0  0  0
  -21.8819   -3.8158   23.4340 C   0  0  0  0  0  0
  -21.9203   -4.6976   22.3398 C   0  0  0  0  0  0
  -22.7889  -13.5259   21.1822 C   0  0  0  0  0  0
  -22.1668   -4.2166   21.0971 F   0  0  0  0  0  0
  -21.5622   -3.4544   25.7728 F   0  0  0  0  0  0
  -30.0435  -13.2572   20.4527 N   0  0  0  0  0  0
  -26.3051  -12.9281   20.3396 N   0  0  0  0  0  0
  -25.9329  -11.6447   20.5780 N   0  0  0  0  0  0
  -22.0522  -12.8263   22.0376 N   0  0  0  0  0  0
  -25.4334  -15.1842   20.4081 N   0  0  0  0  0  0
  -31.8667  -14.5845   20.1248 O   0  0  0  0  0  0
  -21.6634   -6.8896   21.4246 O   0  0  0  0  0  0
  -22.3590  -14.5576   20.6678 O   0  0  0  0  0  0
  -24.6099  -31.8704   23.2119 C   0  0  0  0  0  0
  -25.9000  -32.4845   23.8398 C   0  0  1  0  0  0
  -27.2501  -27.4819   20.0826 C   0  0  0  0  0  0
  -25.5868  -33.8635   24.2353 N   0  0  0  0  0  0
  -23.3979  -30.4902   21.5510 C   0  0  2  0  0  0
  -24.8477  -28.9551   20.1218 C   0  0  0  0  0  0
  -22.7390  -29.4669   22.5012 C   0  0  0  0  0  0
  -18.0262  -28.1393   22.8498 C   0  0  0  0  0  0
  -24.1480  -36.7326   23.2627 C   0  0  0  0  0  0
  -25.9200  -30.8492   21.3575 C   0  0  0  0  0  0
  -26.0025  -29.4839   20.7127 C   0  0  0  0  0  0
  -27.2053  -28.7506   20.7029 C   0  0  0  0  0  0
  -26.0763  -26.9463   19.5174 C   0  0  0  0  0  0
  -24.8732  -27.6791   19.5323 C   0  0  0  0  0  0
  -23.6076  -29.8172   20.1682 C   0  0  0  0  0  0
  -25.4086  -36.3122   24.0340 C   0  0  1  0  0  0
  -20.5852  -28.3666   23.1335 C   0  0  2  0  0  0
  -20.6759  -26.9409   22.5416 C   0  0  0  0  0  0
  -19.5742  -26.6401   21.5205 C   0  0  0  0  0  0
  -18.1915  -26.7947   22.1607 C   0  0  0  0  0  0
  -19.1517  -28.8842   23.2920 C   0  0  0  0  0  0
  -18.9441  -30.1447   23.8931 C   0  0  0  0  0  0
  -17.6443  -30.6600   24.0570 C   0  0  0  0  0  0
  -25.9012  -34.9490   23.5151 C   0  0  0  0  0  0
  -16.5337  -29.9105   23.6329 C   0  0  0  0  0  0
  -16.7252  -28.6513   23.0356 C   0  0  0  0  0  0
  -26.4434  -31.6603   25.0707 C   0  0  0  0  0  0
  -25.3743  -31.3681   26.1487 C   0  0  0  0  0  0
  -27.0206  -30.3036   24.6028 C   0  0  0  0  0  0
  -27.6023  -32.4289   25.7484 C   0  0  0  0  0  0
  -27.5595  -37.1792   24.8436 C   0  0  0  0  0  0
  -21.4122  -29.3037   22.3752 N   0  0  0  0  0  0
  -26.4267  -37.3820   23.9440 N   0  0  0  0  0  0
  -24.6607  -31.0837   22.1006 N   0  0  0  0  0  0
  -23.4170  -28.8199   23.3037 O   0  0  0  0  0  0
  -28.3931  -26.7248   20.0405 O   0  0  0  0  0  0
  -26.5594  -34.8946   22.4719 O   0  0  0  0  0  0
  -23.5303  -32.1421   23.7555 O   0  0  0  0  0  0
  -29.5695  -18.3498   21.8653 C   0  0  0  0  0  0
  -29.7128  -19.6086   22.4791 C   0  0  0  0  0  0
  -31.6560  -20.0554   21.0977 C   0  0  0  0  0  0
  -30.4197  -17.9691   20.8044 C   0  0  0  0  0  0
  -31.5007  -18.8166   20.4491 C   0  0  0  0  0  0
  -30.7211  -20.4973   22.0616 C   0  0  0  0  0  0
  -32.4845  -18.4635   19.3441 C   0  0  0  0  0  0
  -28.7981  -17.0208   19.1575 C   0  0  0  0  0  0
  -30.8935  -24.1251   22.1086 C   0  0  0  0  0  0
  -31.8423  -25.2428   21.6419 C   0  0  0  0  0  0
  -30.7326  -26.4335   19.7710 C   0  0  0  0  0  0
  -31.5623  -22.7543   22.0229 C   0  0  0  0  0  0
  -29.5466  -27.3603   19.4965 C   0  0  0  0  0  0
  -30.0683  -16.7401   19.9758 C   0  0  2  0  0  0
  -29.9196  -15.4994   20.7431 N   0  0  0  0  0  0
  -31.0982  -26.4398   21.2072 N   0  3  0  0  0  0
  -30.7150  -21.7643   22.6049 O   0  0  0  0  0  0
  -31.4639  -12.3415   19.1379 H   0  0  0  0  0  0
  -30.2826  -11.2597   19.8193 H   0  0  0  0  0  0
  -29.7407  -11.8065   17.4112 H   0  0  0  0  0  0
  -29.6691  -13.5045   17.8077 H   0  0  0  0  0  0
  -27.8301  -11.3037   18.8092 H   0  0  0  0  0  0
  -27.3717  -12.6441   17.7892 H   0  0  0  0  0  0
  -27.7048  -14.2427   19.5790 H   0  0  0  0  0  0
  -28.6703  -11.9610   21.3739 H   0  0  0  0  0  0
  -28.4882  -13.6211   21.8676 H   0  0  0  0  0  0
  -25.2771   -9.5686   22.4759 H   0  0  0  0  0  0
  -24.0000   -7.4646   22.7491 H   0  0  0  0  0  0
  -21.0838   -8.8787   19.8963 H   0  0  0  0  0  0
  -22.3706  -10.9683   19.6164 H   0  0  0  0  0  0
  -21.2005   -7.6152   23.9721 H   0  0  0  0  0  0
  -21.1462   -6.0521   25.9070 H   0  0  0  0  0  0
  -22.0609   -2.7625   23.2830 H   0  0  0  0  0  0
  -22.4141  -11.9919   22.4750 H   0  0  0  0  0  0
  -21.1160  -13.1310   22.2604 H   0  0  0  0  0  0
  -24.6593  -15.8309   20.5113 H   0  0  0  0  0  0
  -26.2771  -15.6293   20.0713 H   0  0  0  0  0  0
  -26.7089  -32.5591   23.1190 H   0  0  0  0  0  0
  -25.0006  -33.9792   25.0490 H   0  0  0  0  0  0
  -22.6857  -31.3041   21.4062 H   0  0  0  0  0  0
  -23.3754  -35.9643   23.3234 H   0  0  0  0  0  0
  -24.3592  -36.8996   22.2051 H   0  0  0  0  0  0
  -23.7212  -37.6503   23.6672 H   0  0  0  0  0  0
  -26.0191  -31.6100   20.5825 H   0  0  0  0  0  0
  -26.8129  -30.9166   21.9657 H   0  0  0  0  0  0
  -28.0838  -29.1593   21.1810 H   0  0  0  0  0  0
  -26.0984  -25.9652   19.0633 H   0  0  0  0  0  0
  -23.9778  -27.2548   19.0981 H   0  0  0  0  0  0
  -23.7200  -30.5872   19.4044 H   0  0  0  0  0  0
  -22.7330  -29.2331   19.8744 H   0  0  0  0  0  0
  -25.1264  -36.1963   25.0830 H   0  0  0  0  0  0
  -20.9934  -28.3225   24.1455 H   0  0  0  0  0  0
  -20.5644  -26.2280   23.3598 H   0  0  0  0  0  0
  -21.6632  -26.7437   22.1219 H   0  0  0  0  0  0
  -19.6903  -25.6311   21.1242 H   0  0  0  0  0  0
  -19.6714  -27.3208   20.6736 H   0  0  0  0  0  0
  -17.4194  -26.6710   21.4003 H   0  0  0  0  0  0
  -18.0291  -26.0103   22.9004 H   0  0  0  0  0  0
  -19.7904  -30.7270   24.2340 H   0  0  0  0  0  0
  -17.4981  -31.6292   24.5150 H   0  0  0  0  0  0
  -15.5335  -30.3013   23.7646 H   0  0  0  0  0  0
  -15.8642  -28.0841   22.7081 H   0  0  0  0  0  0
  -24.5919  -30.7009   25.7854 H   0  0  0  0  0  0
  -24.8922  -32.2826   26.4964 H   0  0  0  0  0  0
  -25.8160  -30.8849   27.0219 H   0  0  0  0  0  0
  -26.2700  -29.6863   24.1074 H   0  0  0  0  0  0
  -27.3946  -29.7209   25.4458 H   0  0  0  0  0  0
  -27.8572  -30.4324   23.9155 H   0  0  0  0  0  0
  -27.2636  -33.3554   26.2133 H   0  0  0  0  0  0
  -28.3829  -32.6903   25.0331 H   0  0  0  0  0  0
  -28.0690  -31.8352   26.5360 H   0  0  0  0  0  0
  -28.2540  -38.0168   24.7604 H   0  0  0  0  0  0
  -28.1173  -36.2709   24.6094 H   0  0  0  0  0  0
  -27.2334  -37.1229   25.8839 H   0  0  0  0  0  0
  -20.9279  -29.8756   21.6981 H   0  0  0  0  0  0
  -26.0152  -38.2874   24.1534 H   0  0  0  0  0  0
  -28.7491  -17.7090   22.1573 H   0  0  0  0  0  0
  -29.0090  -19.9133   23.2408 H   0  0  0  0  0  0
  -32.4866  -20.6744   20.7956 H   0  0  0  0  0  0
  -33.2479  -19.2309   19.2194 H   0  0  0  0  0  0
  -31.9715  -18.3658   18.3873 H   0  0  0  0  0  0
  -32.9932  -17.5257   19.5694 H   0  0  0  0  0  0
  -28.9580  -17.8712   18.4931 H   0  0  0  0  0  0
  -27.9450  -17.2661   19.7908 H   0  0  0  0  0  0
  -28.5272  -16.1746   18.5268 H   0  0  0  0  0  0
  -29.9938  -24.1063   21.4911 H   0  0  0  0  0  0
  -30.5631  -24.3212   23.1288 H   0  0  0  0  0  0
  -32.4938  -24.9038   20.8337 H   0  0  0  0  0  0
  -32.5036  -25.5124   22.4665 H   0  0  0  0  0  0
  -31.5980  -26.7460   19.1846 H   0  0  0  0  0  0
  -30.4790  -25.4250   19.4397 H   0  0  0  0  0  0
  -32.5218  -22.7486   22.5413 H   0  0  0  0  0  0
  -31.7483  -22.5912   20.9603 H   0  0  0  0  0  0
  -29.4106  -27.4744   18.4199 H   0  0  0  0  0  0
  -29.7350  -28.3507   19.9109 H   0  0  0  0  0  0
  -30.8385  -16.5880   19.2220 H   0  0  0  0  0  0
  -29.0114  -15.3084   21.1359 H   0  0  0  0  0  0
  -31.6608  -27.2535   21.4024 H   0  0  0  0  0  0
  -30.2598  -26.5140   21.7625 H   0  0  0  0  0  0
  1 25  1  0  0  0
  1 30  2  0  0  0
  1 85  1  0  0  0
  2  3  1  0  0  0
  2 25  1  0  0  0
  2 88  1  0  0  0
  2 89  1  0  0  0
  3  4  1  0  0  0
  3 90  1  0  0  0
  3 91  1  0  0  0
  4  5  1  0  0  0
  4 92  1  0  0  0
  4 93  1  0  0  0
  5  6  1  0  0  0
  5 26  1  0  0  0
  5 94  1  0  0  0
  6 25  1  0  0  0
  6 95  1  0  0  0
  6 96  1  0  0  0
  7  8  2  0  0  0
  7 26  1  0  0  0
  7 29  1  0  0  0
  8  9  1  0  0  0
  8 22  1  0  0  0
  9 10  1  0  0  0
  9 27  2  0  0  0
 10 11  2  0  0  0
 10 15  1  0  0  0
 11 12  1  0  0  0
 11 97  1  0  0  0
 12 13  2  0  0  0
 12 98  1  0  0  0
 13 14  1  0  0  0
 13 31  1  0  0  0
 14 15  2  0  0  0
 14 99  1  0  0  0
 15100  1  0  0  0
 16 17  2  0  0  0
 16 21  1  0  0  0
 16 31  1  0  0  0
 17 18  1  0  0  0
 17101  1  0  0  0
 18 19  2  0  0  0
 18102  1  0  0  0
 19 20  1  0  0  0
 19 24  1  0  0  0
 20 21  2  0  0  0
 20103  1  0  0  0
 21 23  1  0  0  0
 22 28  1  0  0  0
 22 32  2  0  0  0
 26 27  1  0  0  0
 28104  1  0  0  0
 28105  1  0  0  0
 29106  1  0  0  0
 29107  1  0  0  0
 33 34  1  0  0  0
 33 66  1  0  0  0
 33 70  2  0  0  0
 34 36  1  0  0  0
 34 59  1  0  0  0
 34108  1  0  0  0
 35 44  2  0  0  0
 35 45  1  0  0  0
 35 68  1  0  0  0
 36 56  1  0  0  0
 36109  1  0  0  0
 37 39  1  0  0  0
 37 47  1  0  0  0
 37 66  1  0  0  0
 37110  1  0  0  0
 38 43  2  0  0  0
 38 46  1  0  0  0
 38 47  1  0  0  0
 39 64  1  0  0  0
 39 67  2  0  0  0
 40 52  1  0  0  0
 40 53  2  0  0  0
 40 58  1  0  0  0
 41111  1  0  0  0
 41112  1  0  0  0
 41113  1  0  0  0
 41 48  1  0  0  0
 42 43  1  0  0  0
 42 66  1  0  0  0
 42114  1  0  0  0
 42115  1  0  0  0
 43 44  1  0  0  0
 44116  1  0  0  0
 45 46  2  0  0  0
 45117  1  0  0  0
 46118  1  0  0  0
 47119  1  0  0  0
 47120  1  0  0  0
 48 56  1  0  0  0
 48 65  1  0  0  0
 48121  1  0  0  0
 49 50  1  0  0  0
 49 53  1  0  0  0
 49 64  1  0  0  0
 49122  1  0  0  0
 50 51  1  0  0  0
 50123  1  0  0  0
 50124  1  0  0  0
 51 52  1  0  0  0
 51125  1  0  0  0
 51126  1  0  0  0
 52127  1  0  0  0
 52128  1  0  0  0
 53 54  1  0  0  0
 54 55  2  0  0  0
 54129  1  0  0  0
 55 57  1  0  0  0
 55130  1  0  0  0
 56 69  2  0  0  0
 57 58  2  0  0  0
 57131  1  0  0  0
 58132  1  0  0  0
 59 60  1  0  0  0
 59 61  1  0  0  0
 59 62  1  0  0  0
 60133  1  0  0  0
 60134  1  0  0  0
 60135  1  0  0  0
 61136  1  0  0  0
 61137  1  0  0  0
 61138  1  0  0  0
 62139  1  0  0  0
 62140  1  0  0  0
 62141  1  0  0  0
 63 65  1  0  0  0
 63142  1  0  0  0
 63143  1  0  0  0
 63144  1  0  0  0
 64145  1  0  0  0
 65146  1  0  0  0
 68 83  1  0  0  0
 71 72  2  0  0  0
 71 74  1  0  0  0
 71147  1  0  0  0
 72 76  1  0  0  0
 72148  1  0  0  0
 73 75  1  0  0  0
 73 76  2  0  0  0
 73149  1  0  0  0
 74 75  2  0  0  0
 74 84  1  0  0  0
 75 77  1  0  0  0
 76 87  1  0  0  0
 77150  1  0  0  0
 77151  1  0  0  0
 77152  1  0  0  0
 78153  1  0  0  0
 78154  1  0  0  0
 78155  1  0  0  0
 78 84  1  0  0  0
 79 80  1  0  0  0
 79 82  1  0  0  0
 79156  1  0  0  0
 79157  1  0  0  0
 80 86  1  0  0  0
 80158  1  0  0  0
 80159  1  0  0  0
 81 83  1  0  0  0
 81 86  1  0  0  0
 81160  1  0  0  0
 81161  1  0  0  0
 82 87  1  0  0  0
 82162  1  0  0  0
 82163  1  0  0  0
 83164  1  0  0  0
 83165  1  0  0  0
 84 85  1  0  0  0
 84166  1  0  0  0
 85167  1  0  0  0
 86168  1  0  0  0
 86169  1  0  0  0
M  CHG  1  86   1
M  ISO  4   1 100  68 101  83 101  85 100
M  END
> <chiral flag>
0

> <version>
0

> <s_m_source_file>
/data/baiqing/PycharmProjects/Reinvent-master-3.2/result/LINK_invent/BTK/process_docking_weight1_custom_sum_contain_oxygen_bond_distance_aromatic_linkinvent_7_9_3/rearranged_h_0120.sdf

> <i_m_source_file_index>
82

> <r_mmod_Potential_Energy-OPLS-2005>
-203.17024230957

> <r_mmod_Stretch_Energy-OPLS-2005>
31.9047145843506

> <r_mmod_Bend_Energy-OPLS-2005>
97.8357696533203

> <r_mmod_Torsional_Energy-OPLS-2005>
257.699035644531

> <r_mmod_Improper_Torsional_Energy-OPLS-2005>
10.8418025970459

> <r_mmod_Van_der_Waal_Energy-OPLS-2005>
162.757507324219

> <r_mmod_Electrostatic_Energy-OPLS-2005>
-323.338897705078

> <r_mmod_Solvation_Energy-OPLS-2005>
-452.184692382812

> <b_mmod_Minimization_Converged-OPLS-2005>
0

> <r_mmod_RMS_Derivative-OPLS-2005>
2.59235048294067

$$$$
83
                    3D
 Structure written by MMmdl.
157165  0  0  1  0            999 V2000
  -30.7492  -14.4588   20.6056 C   0  0  0  0  0  0
  -30.4150  -12.3176   19.4167 C   0  0  0  0  0  0
  -29.4860  -12.5060   18.2025 C   0  0  0  0  0  0
  -28.0125  -12.3524   18.6223 C   0  0  0  0  0  0
  -27.6573  -13.2019   19.8706 C   0  0  2  0  0  0
  -28.7035  -13.0098   20.9932 C   0  0  0  0  0  0
  -25.2584  -13.8147   20.5691 C   0  0  0  0  0  0
  -24.1838  -13.0428   20.9195 C   0  0  0  0  0  0
  -24.6388  -11.6896   20.8753 C   0  0  0  0  0  0
  -23.9054  -10.4286   21.0415 C   0  0  0  0  0  0
  -24.3608   -9.4199   21.9189 C   0  0  0  0  0  0
  -23.6284   -8.2234   22.0755 C   0  0  0  0  0  0
  -22.4267   -8.0273   21.3544 C   0  0  0  0  0  0
  -21.9903   -9.0252   20.4644 C   0  0  0  0  0  0
  -22.7230  -10.2134   20.3057 C   0  0  0  0  0  0
  -21.6849   -6.0731   22.5277 C   0  0  0  0  0  0
  -21.4011   -6.5637   23.8212 C   0  0  0  0  0  0
  -21.3658   -5.6791   24.9174 C   0  0  0  0  0  0
  -21.6047   -4.3055   24.7225 C   0  0  0  0  0  0
  -21.8818   -3.8145   23.4346 C   0  0  0  0  0  0
  -21.9192   -4.6960   22.3402 C   0  0  0  0  0  0
  -22.7863  -13.5235   21.1847 C   0  0  0  0  0  0
  -22.1660   -4.2147   21.0979 F   0  0  0  0  0  0
  -21.5632   -3.4538   25.7738 F   0  0  0  0  0  0
  -30.0338  -13.3094   20.4366 N   0  0  0  0  0  0
  -26.3007  -12.9303   20.3370 N   0  0  0  0  0  0
  -25.9311  -11.6471   20.5785 N   0  0  0  0  0  0
  -22.0499  -12.8234   22.0404 N   0  0  0  0  0  0
  -25.4282  -15.1864   20.4076 N   0  0  0  0  0  0
  -31.8557  -14.6279   20.0824 O   0  0  0  0  0  0
  -21.6631   -6.8872   21.4238 O   0  0  0  0  0  0
  -22.3558  -14.5540   20.6687 O   0  0  0  0  0  0
  -24.6166  -31.8681   23.2120 C   0  0  0  0  0  0
  -25.9059  -32.4816   23.8408 C   0  0  1  0  0  0
  -27.2262  -27.4172   20.0948 C   0  0  0  0  0  0
  -25.5912  -33.8617   24.2335 N   0  0  0  0  0  0
  -23.4036  -30.4948   21.5535 C   0  0  2  0  0  0
  -24.8473  -28.9659   20.1115 C   0  0  0  0  0  0
  -22.7418  -29.4668   22.4996 C   0  0  0  0  0  0
  -18.0270  -28.1379   22.8486 C   0  0  0  0  0  0
  -24.1484  -36.7317   23.2631 C   0  0  0  0  0  0
  -25.9355  -30.8289   21.3682 C   0  0  0  0  0  0
  -26.0101  -29.4638   20.7123 C   0  0  0  0  0  0
  -27.2006  -28.6969   20.7023 C   0  0  0  0  0  0
  -26.0460  -26.9571   19.4603 C   0  0  0  0  0  0
  -24.8621  -27.7126   19.4815 C   0  0  0  0  0  0
  -23.6103  -29.8326   20.1664 C   0  0  0  0  0  0
  -25.4099  -36.3103   24.0334 C   0  0  1  0  0  0
  -20.5860  -28.3666   23.1312 C   0  0  2  0  0  0
  -20.6759  -26.9403   22.5411 C   0  0  0  0  0  0
  -19.5740  -26.6385   21.5207 C   0  0  0  0  0  0
  -18.1917  -26.7924   22.1616 C   0  0  0  0  0  0
  -19.1518  -28.8838   23.2893 C   0  0  0  0  0  0
  -18.9447  -30.1444   23.8899 C   0  0  0  0  0  0
  -17.6450  -30.6582   24.0563 C   0  0  0  0  0  0
  -25.9036  -34.9470   23.5128 C   0  0  0  0  0  0
  -16.5338  -29.9083   23.6330 C   0  0  0  0  0  0
  -16.7260  -28.6505   23.0342 C   0  0  0  0  0  0
  -26.4481  -31.6594   25.0733 C   0  0  0  0  0  0
  -25.3737  -31.3694   26.1477 C   0  0  0  0  0  0
  -27.0330  -30.3036   24.6123 C   0  0  0  0  0  0
  -27.6065  -32.4317   25.7484 C   0  0  0  0  0  0
  -27.5585  -37.1794   24.8453 C   0  0  0  0  0  0
  -21.4145  -29.3036   22.3724 N   0  0  0  0  0  0
  -26.4280  -37.3795   23.9418 N   0  0  0  0  0  0
  -24.6704  -31.0780   22.1024 N   0  0  0  0  0  0
  -23.4190  -28.8201   23.3034 O   0  0  0  0  0  0
  -28.3838  -26.6544   20.1442 O   0  0  0  0  0  0
  -26.5595  -34.8917   22.4688 O   0  0  0  0  0  0
  -23.5356  -32.1447   23.7503 O   0  0  0  0  0  0
  -29.8456  -18.5676   19.9378 C   0  0  0  0  0  0
  -29.9546  -19.9709   20.0409 C   0  0  0  0  0  0
  -29.0727  -18.5524   22.2184 C   0  0  0  0  0  0
  -29.3849  -17.8291   21.0483 C   0  0  0  0  0  0
  -29.6195  -20.5987   21.2552 C   0  0  0  0  0  0
  -31.1091  -15.9620   22.4669 C   0  0  0  0  0  0
  -29.1553  -16.3076   20.9576 C   0  0  0  0  0  0
  -29.2555  -24.3677   20.7245 C   0  0  0  0  0  0
  -29.0701  -22.8477   20.4512 C   0  0  0  0  0  0
  -28.2571  -25.2326   19.9206 C   0  0  0  0  0  0
  -29.2011  -19.8974   22.3246 N   0  0  0  0  0  0
  -29.7154  -21.9851   21.4462 N   0  0  0  0  0  0
  -30.2348  -15.4070   21.4299 N   0  0  0  0  0  0
  -31.4585  -12.4072   19.1087 H   0  0  0  0  0  0
  -30.3155  -11.3094   19.8230 H   0  0  0  0  0  0
  -29.7299  -11.7803   17.4253 H   0  0  0  0  0  0
  -29.6443  -13.4919   17.7624 H   0  0  0  0  0  0
  -27.8386  -11.2966   18.8324 H   0  0  0  0  0  0
  -27.3538  -12.6082   17.7915 H   0  0  0  0  0  0
  -27.6864  -14.2407   19.5506 H   0  0  0  0  0  0
  -28.6858  -11.9818   21.3580 H   0  0  0  0  0  0
  -28.4601  -13.6282   21.8579 H   0  0  0  0  0  0
  -25.2755   -9.5676   22.4764 H   0  0  0  0  0  0
  -23.9996   -7.4622   22.7474 H   0  0  0  0  0  0
  -21.0834   -8.8765   19.8950 H   0  0  0  0  0  0
  -22.3685  -10.9673   19.6165 H   0  0  0  0  0  0
  -21.2001   -7.6145   23.9714 H   0  0  0  0  0  0
  -21.1484   -6.0521   25.9078 H   0  0  0  0  0  0
  -22.0600   -2.7607   23.2844 H   0  0  0  0  0  0
  -22.4112  -11.9896   22.4796 H   0  0  0  0  0  0
  -21.1117  -13.1264   22.2598 H   0  0  0  0  0  0
  -24.6552  -15.8350   20.5090 H   0  0  0  0  0  0
  -26.2681  -15.6274   20.0576 H   0  0  0  0  0  0
  -26.7124  -32.5526   23.1172 H   0  0  0  0  0  0
  -25.0052  -33.9770   25.0476 H   0  0  0  0  0  0
  -22.6919  -31.3121   21.4184 H   0  0  0  0  0  0
  -23.3743  -35.9654   23.3273 H   0  0  0  0  0  0
  -24.3587  -36.8964   22.2051 H   0  0  0  0  0  0
  -23.7236  -37.6509   23.6669 H   0  0  0  0  0  0
  -26.0484  -31.5960   20.6010 H   0  0  0  0  0  0
  -26.8236  -30.8815   21.9863 H   0  0  0  0  0  0
  -28.0952  -29.0747   21.1773 H   0  0  0  0  0  0
  -26.0141  -26.0126   18.9369 H   0  0  0  0  0  0
  -23.9718  -27.3306   19.0011 H   0  0  0  0  0  0
  -23.7151  -30.6096   19.4087 H   0  0  0  0  0  0
  -22.7337  -29.2524   19.8717 H   0  0  0  0  0  0
  -25.1273  -36.1958   25.0827 H   0  0  0  0  0  0
  -20.9938  -28.3229   24.1441 H   0  0  0  0  0  0
  -20.5672  -26.2274   23.3594 H   0  0  0  0  0  0
  -21.6630  -26.7460   22.1199 H   0  0  0  0  0  0
  -19.6903  -25.6301   21.1229 H   0  0  0  0  0  0
  -19.6671  -27.3196   20.6735 H   0  0  0  0  0  0
  -17.4188  -26.6668   21.4017 H   0  0  0  0  0  0
  -18.0318  -26.0067   22.9012 H   0  0  0  0  0  0
  -19.7921  -30.7258   24.2269 H   0  0  0  0  0  0
  -17.5007  -31.6264   24.5162 H   0  0  0  0  0  0
  -15.5338  -30.2984   23.7663 H   0  0  0  0  0  0
  -15.8657  -28.0833   22.7045 H   0  0  0  0  0  0
  -24.5920  -30.7037   25.7801 H   0  0  0  0  0  0
  -24.8905  -32.2840   26.4920 H   0  0  0  0  0  0
  -25.8085  -30.8859   27.0235 H   0  0  0  0  0  0
  -26.2887  -29.6761   24.1200 H   0  0  0  0  0  0
  -27.4128  -29.7304   25.4594 H   0  0  0  0  0  0
  -27.8712  -30.4356   23.9276 H   0  0  0  0  0  0
  -27.2705  -33.3624   26.2069 H   0  0  0  0  0  0
  -28.3858  -32.6861   25.0288 H   0  0  0  0  0  0
  -28.0751  -31.8432   26.5380 H   0  0  0  0  0  0
  -28.2564  -38.0130   24.7564 H   0  0  0  0  0  0
  -28.1121  -36.2664   24.6202 H   0  0  0  0  0  0
  -27.2312  -37.1354   25.8856 H   0  0  0  0  0  0
  -20.9307  -29.8767   21.6949 H   0  0  0  0  0  0
  -26.0165  -38.2867   24.1452 H   0  0  0  0  0  0
  -30.0941  -18.0719   19.0105 H   0  0  0  0  0  0
  -30.3072  -20.5413   19.1930 H   0  0  0  0  0  0
  -28.6992  -18.0404   23.0930 H   0  0  0  0  0  0
  -30.5259  -16.3715   23.2911 H   0  0  0  0  0  0
  -31.7458  -16.7498   22.0603 H   0  0  0  0  0  0
  -31.7602  -15.1941   22.8891 H   0  0  0  0  0  0
  -28.9190  -16.0862   19.9152 H   0  0  0  0  0  0
  -28.2507  -16.0648   21.5174 H   0  0  0  0  0  0
  -30.2792  -24.6659   20.4949 H   0  0  0  0  0  0
  -29.1046  -24.5751   21.7847 H   0  0  0  0  0  0
  -29.4414  -22.6143   19.4529 H   0  0  0  0  0  0
  -28.0058  -22.6047   20.4488 H   0  0  0  0  0  0
  -27.2742  -24.8729   20.2263 H   0  0  0  0  0  0
  -28.3590  -25.0314   18.8528 H   0  0  0  0  0  0
  -29.5077  -22.2521   22.4028 H   0  0  0  0  0  0
  1 25  1  0  0  0
  1 30  2  0  0  0
  1 83  1  0  0  0
  2  3  1  0  0  0
  2 25  1  0  0  0
  2 84  1  0  0  0
  2 85  1  0  0  0
  3  4  1  0  0  0
  3 86  1  0  0  0
  3 87  1  0  0  0
  4  5  1  0  0  0
  4 88  1  0  0  0
  4 89  1  0  0  0
  5  6  1  0  0  0
  5 26  1  0  0  0
  5 90  1  0  0  0
  6 25  1  0  0  0
  6 91  1  0  0  0
  6 92  1  0  0  0
  7  8  2  0  0  0
  7 26  1  0  0  0
  7 29  1  0  0  0
  8  9  1  0  0  0
  8 22  1  0  0  0
  9 10  1  0  0  0
  9 27  2  0  0  0
 10 11  2  0  0  0
 10 15  1  0  0  0
 11 12  1  0  0  0
 11 93  1  0  0  0
 12 13  2  0  0  0
 12 94  1  0  0  0
 13 14  1  0  0  0
 13 31  1  0  0  0
 14 15  2  0  0  0
 14 95  1  0  0  0
 15 96  1  0  0  0
 16 17  2  0  0  0
 16 21  1  0  0  0
 16 31  1  0  0  0
 17 18  1  0  0  0
 17 97  1  0  0  0
 18 19  2  0  0  0
 18 98  1  0  0  0
 19 20  1  0  0  0
 19 24  1  0  0  0
 20 21  2  0  0  0
 20 99  1  0  0  0
 21 23  1  0  0  0
 22 28  1  0  0  0
 22 32  2  0  0  0
 26 27  1  0  0  0
 28100  1  0  0  0
 28101  1  0  0  0
 29102  1  0  0  0
 29103  1  0  0  0
 33 34  1  0  0  0
 33 66  1  0  0  0
 33 70  2  0  0  0
 34 36  1  0  0  0
 34 59  1  0  0  0
 34104  1  0  0  0
 35 44  2  0  0  0
 35 45  1  0  0  0
 35 68  1  0  0  0
 36 56  1  0  0  0
 36105  1  0  0  0
 37 39  1  0  0  0
 37 47  1  0  0  0
 37 66  1  0  0  0
 37106  1  0  0  0
 38 43  2  0  0  0
 38 46  1  0  0  0
 38 47  1  0  0  0
 39 64  1  0  0  0
 39 67  2  0  0  0
 40 52  1  0  0  0
 40 53  2  0  0  0
 40 58  1  0  0  0
 41107  1  0  0  0
 41108  1  0  0  0
 41109  1  0  0  0
 41 48  1  0  0  0
 42 43  1  0  0  0
 42 66  1  0  0  0
 42110  1  0  0  0
 42111  1  0  0  0
 43 44  1  0  0  0
 44112  1  0  0  0
 45 46  2  0  0  0
 45113  1  0  0  0
 46114  1  0  0  0
 47115  1  0  0  0
 47116  1  0  0  0
 48 56  1  0  0  0
 48 65  1  0  0  0
 48117  1  0  0  0
 49 50  1  0  0  0
 49 53  1  0  0  0
 49 64  1  0  0  0
 49118  1  0  0  0
 50 51  1  0  0  0
 50119  1  0  0  0
 50120  1  0  0  0
 51 52  1  0  0  0
 51121  1  0  0  0
 51122  1  0  0  0
 52123  1  0  0  0
 52124  1  0  0  0
 53 54  1  0  0  0
 54 55  2  0  0  0
 54125  1  0  0  0
 55 57  1  0  0  0
 55126  1  0  0  0
 56 69  2  0  0  0
 57 58  2  0  0  0
 57127  1  0  0  0
 58128  1  0  0  0
 59 60  1  0  0  0
 59 61  1  0  0  0
 59 62  1  0  0  0
 60129  1  0  0  0
 60130  1  0  0  0
 60131  1  0  0  0
 61132  1  0  0  0
 61133  1  0  0  0
 61134  1  0  0  0
 62135  1  0  0  0
 62136  1  0  0  0
 62137  1  0  0  0
 63 65  1  0  0  0
 63138  1  0  0  0
 63139  1  0  0  0
 63140  1  0  0  0
 64141  1  0  0  0
 65142  1  0  0  0
 68 80  1  0  0  0
 71 72  2  0  0  0
 71 74  1  0  0  0
 71143  1  0  0  0
 72 75  1  0  0  0
 72144  1  0  0  0
 73 74  2  0  0  0
 73 81  1  0  0  0
 73145  1  0  0  0
 74 77  1  0  0  0
 75 81  2  0  0  0
 75 82  1  0  0  0
 76 83  1  0  0  0
 76146  1  0  0  0
 76147  1  0  0  0
 76148  1  0  0  0
 77 83  1  0  0  0
 77149  1  0  0  0
 77150  1  0  0  0
 78 79  1  0  0  0
 78 80  1  0  0  0
 78151  1  0  0  0
 78152  1  0  0  0
 79 82  1  0  0  0
 79153  1  0  0  0
 79154  1  0  0  0
 80155  1  0  0  0
 80156  1  0  0  0
 82157  1  0  0  0
M  ISO  4   1 100  68 101  80 101  83 100
M  END
> <chiral flag>
0

> <version>
0

> <s_m_source_file>
/data/baiqing/PycharmProjects/Reinvent-master-3.2/result/LINK_invent/BTK/process_docking_weight1_custom_sum_contain_oxygen_bond_distance_aromatic_linkinvent_7_9_3/rearranged_h_0120.sdf

> <i_m_source_file_index>
83

> <r_mmod_Potential_Energy-OPLS-2005>
-109.964874267578

> <r_mmod_Stretch_Energy-OPLS-2005>
40.2171287536621

> <r_mmod_Bend_Energy-OPLS-2005>
102.572937011719

> <r_mmod_Torsional_Energy-OPLS-2005>
270.097991943359

> <r_mmod_Improper_Torsional_Energy-OPLS-2005>
8.50847625732422

> <r_mmod_Van_der_Waal_Energy-OPLS-2005>
160.217727661133

> <r_mmod_Electrostatic_Energy-OPLS-2005>
-482.546264648438

> <r_mmod_Solvation_Energy-OPLS-2005>
-224.070892333984

> <b_mmod_Minimization_Converged-OPLS-2005>
0

> <r_mmod_RMS_Derivative-OPLS-2005>
1.05429899692535

$$$$
84
                    3D
 Structure written by MMmdl.
158167  0  0  1  0            999 V2000
  -30.6721  -14.5598   20.5499 C   0  0  0  0  0  0
  -30.4216  -12.3609   19.4309 C   0  0  0  0  0  0
  -29.4912  -12.5110   18.2086 C   0  0  0  0  0  0
  -28.0146  -12.3612   18.6250 C   0  0  0  0  0  0
  -27.6520  -13.2162   19.8684 C   0  0  2  0  0  0
  -28.6969  -13.0442   20.9916 C   0  0  0  0  0  0
  -25.2546  -13.8176   20.5701 C   0  0  0  0  0  0
  -24.1815  -13.0444   20.9200 C   0  0  0  0  0  0
  -24.6380  -11.6916   20.8741 C   0  0  0  0  0  0
  -23.9058  -10.4296   21.0408 C   0  0  0  0  0  0
  -24.3613   -9.4214   21.9185 C   0  0  0  0  0  0
  -23.6296   -8.2241   22.0753 C   0  0  0  0  0  0
  -22.4275   -8.0277   21.3549 C   0  0  0  0  0  0
  -21.9908   -9.0253   20.4647 C   0  0  0  0  0  0
  -22.7232  -10.2139   20.3063 C   0  0  0  0  0  0
  -21.6850   -6.0735   22.5279 C   0  0  0  0  0  0
  -21.4012   -6.5638   23.8214 C   0  0  0  0  0  0
  -21.3662   -5.6792   24.9179 C   0  0  0  0  0  0
  -21.6046   -4.3056   24.7229 C   0  0  0  0  0  0
  -21.8820   -3.8148   23.4344 C   0  0  0  0  0  0
  -21.9192   -4.6966   22.3403 C   0  0  0  0  0  0
  -22.7840  -13.5229   21.1862 C   0  0  0  0  0  0
  -22.1666   -4.2154   21.0985 F   0  0  0  0  0  0
  -21.5633   -3.4540   25.7740 F   0  0  0  0  0  0
  -30.0131  -13.3704   20.4250 N   0  0  0  0  0  0
  -26.2976  -12.9360   20.3357 N   0  0  0  0  0  0
  -25.9310  -11.6512   20.5757 N   0  0  0  0  0  0
  -22.0501  -12.8204   22.0412 N   0  0  0  0  0  0
  -25.4269  -15.1895   20.4104 N   0  0  0  0  0  0
  -31.8265  -14.7061   20.1406 O   0  0  0  0  0  0
  -21.6641   -6.8877   21.4243 O   0  0  0  0  0  0
  -22.3518  -14.5539   20.6718 O   0  0  0  0  0  0
  -24.6194  -31.8642   23.2057 C   0  0  0  0  0  0
  -25.9064  -32.4804   23.8373 C   0  0  1  0  0  0
  -27.2255  -27.3769   20.1162 C   0  0  0  0  0  0
  -25.5899  -33.8604   24.2306 N   0  0  0  0  0  0
  -23.4104  -30.4850   21.5479 C   0  0  2  0  0  0
  -24.8571  -28.9389   20.1203 C   0  0  0  0  0  0
  -22.7434  -29.4636   22.4981 C   0  0  0  0  0  0
  -18.0276  -28.1373   22.8493 C   0  0  0  0  0  0
  -24.1486  -36.7305   23.2641 C   0  0  0  0  0  0
  -25.9447  -30.8106   21.3687 C   0  0  0  0  0  0
  -26.0207  -29.4379   20.7211 C   0  0  0  0  0  0
  -27.2116  -28.6649   20.7136 C   0  0  0  0  0  0
  -26.0478  -26.9031   19.5070 C   0  0  0  0  0  0
  -24.8677  -27.6724   19.5089 C   0  0  0  0  0  0
  -23.6221  -29.8137   20.1651 C   0  0  0  0  0  0
  -25.4107  -36.3102   24.0334 C   0  0  1  0  0  0
  -20.5871  -28.3664   23.1307 C   0  0  2  0  0  0
  -20.6764  -26.9395   22.5417 C   0  0  0  0  0  0
  -19.5745  -26.6377   21.5214 C   0  0  0  0  0  0
  -18.1923  -26.7920   22.1625 C   0  0  0  0  0  0
  -19.1527  -28.8835   23.2894 C   0  0  0  0  0  0
  -18.9456  -30.1440   23.8904 C   0  0  0  0  0  0
  -17.6458  -30.6582   24.0560 C   0  0  0  0  0  0
  -25.9041  -34.9468   23.5125 C   0  0  0  0  0  0
  -16.5347  -29.9078   23.6326 C   0  0  0  0  0  0
  -16.7266  -28.6491   23.0353 C   0  0  0  0  0  0
  -26.4473  -31.6595   25.0722 C   0  0  0  0  0  0
  -25.3729  -31.3712   26.1463 C   0  0  0  0  0  0
  -27.0308  -30.3033   24.6124 C   0  0  0  0  0  0
  -27.6045  -32.4314   25.7484 C   0  0  0  0  0  0
  -27.5583  -37.1807   24.8465 C   0  0  0  0  0  0
  -21.4158  -29.3030   22.3717 N   0  0  0  0  0  0
  -26.4296  -37.3788   23.9408 N   0  0  0  0  0  0
  -24.6766  -31.0689   22.0987 N   0  0  0  0  0  0
  -23.4184  -28.8190   23.3049 O   0  0  0  0  0  0
  -28.3625  -26.5898   20.0532 O   0  0  0  0  0  0
  -26.5609  -34.8926   22.4691 O   0  0  0  0  0  0
  -23.5371  -32.1420   23.7410 O   0  0  0  0  0  0
  -30.5045  -19.5115   21.2054 C   0  0  0  0  0  0
  -28.5816  -18.3840   20.3122 C   0  0  0  0  0  0
  -29.8369  -18.2836   20.9524 C   0  0  0  0  0  0
  -29.9381  -20.7433   20.7909 C   0  0  0  0  0  0
  -28.6842  -20.7192   20.1525 C   0  0  0  0  0  0
  -30.2874  -22.9479   20.0109 C   0  0  2  0  0  0
  -28.7555  -23.1547   19.8221 C   0  0  2  0  0  0
  -30.9939  -22.5821   18.6908 C   0  0  0  0  0  0
  -30.5045  -16.9493   21.4072 C   0  0  0  0  0  0
  -28.0304  -24.1012   20.8429 C   0  0  0  0  0  0
  -28.5298  -25.5792   21.0793 C   0  0  0  0  0  0
  -28.0184  -19.5626   19.9248 N   0  0  0  0  0  0
  -29.9553  -15.6167   21.0228 N   0  0  0  0  0  0
  -30.5956  -21.9370   20.9798 O   0  0  0  0  0  0
  -28.0699  -21.8779   19.6884 O   0  0  0  0  0  0
  -31.4627  -12.4741   19.1254 H   0  0  0  0  0  0
  -30.3441  -11.3588   19.8568 H   0  0  0  0  0  0
  -29.7409  -11.7715   17.4467 H   0  0  0  0  0  0
  -29.6427  -13.4873   17.7440 H   0  0  0  0  0  0
  -27.8326  -11.3056   18.8331 H   0  0  0  0  0  0
  -27.3626  -12.6221   17.7909 H   0  0  0  0  0  0
  -27.6796  -14.2576   19.5473 H   0  0  0  0  0  0
  -28.6968  -12.0176   21.3618 H   0  0  0  0  0  0
  -28.4517  -13.6677   21.8524 H   0  0  0  0  0  0
  -25.2772   -9.5690   22.4746 H   0  0  0  0  0  0
  -24.0020   -7.4624   22.7457 H   0  0  0  0  0  0
  -21.0849   -8.8762   19.8933 H   0  0  0  0  0  0
  -22.3695  -10.9676   19.6157 H   0  0  0  0  0  0
  -21.2004   -7.6149   23.9722 H   0  0  0  0  0  0
  -21.1484   -6.0523   25.9077 H   0  0  0  0  0  0
  -22.0596   -2.7607   23.2851 H   0  0  0  0  0  0
  -22.4135  -11.9863   22.4777 H   0  0  0  0  0  0
  -21.1112  -13.1212   22.2637 H   0  0  0  0  0  0
  -24.6578  -15.8427   20.5163 H   0  0  0  0  0  0
  -26.2700  -15.6238   20.0598 H   0  0  0  0  0  0
  -26.7136  -32.5493   23.1129 H   0  0  0  0  0  0
  -25.0043  -33.9759   25.0447 H   0  0  0  0  0  0
  -22.7022  -31.3034   21.4049 H   0  0  0  0  0  0
  -23.3752  -35.9637   23.3308 H   0  0  0  0  0  0
  -24.3581  -36.8916   22.2055 H   0  0  0  0  0  0
  -23.7235  -37.6509   23.6652 H   0  0  0  0  0  0
  -26.0646  -31.5699   20.5945 H   0  0  0  0  0  0
  -26.8298  -30.8652   21.9906 H   0  0  0  0  0  0
  -28.1138  -29.0480   21.1696 H   0  0  0  0  0  0
  -26.0451  -25.9330   19.0304 H   0  0  0  0  0  0
  -23.9743  -27.2829   19.0403 H   0  0  0  0  0  0
  -23.7371  -30.5868   19.4047 H   0  0  0  0  0  0
  -22.7441  -29.2382   19.8671 H   0  0  0  0  0  0
  -25.1289  -36.1967   25.0831 H   0  0  0  0  0  0
  -20.9958  -28.3227   24.1427 H   0  0  0  0  0  0
  -20.5662  -26.2273   23.3611 H   0  0  0  0  0  0
  -21.6636  -26.7429   22.1214 H   0  0  0  0  0  0
  -19.6905  -25.6289   21.1239 H   0  0  0  0  0  0
  -19.6682  -27.3190   20.6750 H   0  0  0  0  0  0
  -17.4193  -26.6670   21.4024 H   0  0  0  0  0  0
  -18.0318  -26.0053   22.9017 H   0  0  0  0  0  0
  -19.7930  -30.7254   24.2280 H   0  0  0  0  0  0
  -17.5011  -31.6264   24.5153 H   0  0  0  0  0  0
  -15.5347  -30.2983   23.7644 H   0  0  0  0  0  0
  -15.8667  -28.0810   22.7075 H   0  0  0  0  0  0
  -24.5882  -30.7085   25.7791 H   0  0  0  0  0  0
  -24.8940  -32.2872   26.4932 H   0  0  0  0  0  0
  -25.8064  -30.8853   27.0211 H   0  0  0  0  0  0
  -26.2866  -29.6795   24.1158 H   0  0  0  0  0  0
  -27.4051  -29.7268   25.4593 H   0  0  0  0  0  0
  -27.8711  -30.4348   23.9303 H   0  0  0  0  0  0
  -27.2667  -33.3600   26.2093 H   0  0  0  0  0  0
  -28.3834  -32.6895   25.0299 H   0  0  0  0  0  0
  -28.0736  -31.8421   26.5370 H   0  0  0  0  0  0
  -28.2604  -38.0103   24.7515 H   0  0  0  0  0  0
  -28.1078  -36.2634   24.6286 H   0  0  0  0  0  0
  -27.2304  -37.1451   25.8872 H   0  0  0  0  0  0
  -20.9331  -29.8743   21.6924 H   0  0  0  0  0  0
  -26.0185  -38.2869   24.1404 H   0  0  0  0  0  0
  -31.4663  -19.5113   21.6984 H   0  0  0  0  0  0
  -28.0055  -17.4938   20.1052 H   0  0  0  0  0  0
  -30.7369  -23.8779   20.3557 H   0  0  0  0  0  0
  -28.6281  -23.6471   18.8578 H   0  0  0  0  0  0
  -30.5936  -21.6694   18.2487 H   0  0  0  0  0  0
  -32.0614  -22.4304   18.8512 H   0  0  0  0  0  0
  -30.8838  -23.3754   17.9510 H   0  0  0  0  0  0
  -30.5109  -16.9643   22.4985 H   0  0  0  0  0  0
  -31.5573  -17.0106   21.1230 H   0  0  0  0  0  0
  -28.0647  -23.5990   21.8101 H   0  0  0  0  0  0
  -26.9726  -24.1400   20.5831 H   0  0  0  0  0  0
  -29.5878  -25.5597   21.3375 H   0  0  0  0  0  0
  -28.0440  -25.9450   21.9862 H   0  0  0  0  0  0
  -29.0067  -15.4116   21.2987 H   0  0  0  0  0  0
  1 25  1  0  0  0
  1 30  2  0  0  0
  1 83  1  0  0  0
  2  3  1  0  0  0
  2 25  1  0  0  0
  2 86  1  0  0  0
  2 87  1  0  0  0
  3  4  1  0  0  0
  3 88  1  0  0  0
  3 89  1  0  0  0
  4  5  1  0  0  0
  4 90  1  0  0  0
  4 91  1  0  0  0
  5  6  1  0  0  0
  5 26  1  0  0  0
  5 92  1  0  0  0
  6 25  1  0  0  0
  6 93  1  0  0  0
  6 94  1  0  0  0
  7  8  2  0  0  0
  7 26  1  0  0  0
  7 29  1  0  0  0
  8  9  1  0  0  0
  8 22  1  0  0  0
  9 10  1  0  0  0
  9 27  2  0  0  0
 10 11  2  0  0  0
 10 15  1  0  0  0
 11 12  1  0  0  0
 11 95  1  0  0  0
 12 13  2  0  0  0
 12 96  1  0  0  0
 13 14  1  0  0  0
 13 31  1  0  0  0
 14 15  2  0  0  0
 14 97  1  0  0  0
 15 98  1  0  0  0
 16 17  2  0  0  0
 16 21  1  0  0  0
 16 31  1  0  0  0
 17 18  1  0  0  0
 17 99  1  0  0  0
 18 19  2  0  0  0
 18100  1  0  0  0
 19 20  1  0  0  0
 19 24  1  0  0  0
 20 21  2  0  0  0
 20101  1  0  0  0
 21 23  1  0  0  0
 22 28  1  0  0  0
 22 32  2  0  0  0
 26 27  1  0  0  0
 28102  1  0  0  0
 28103  1  0  0  0
 29104  1  0  0  0
 29105  1  0  0  0
 33 34  1  0  0  0
 33 66  1  0  0  0
 33 70  2  0  0  0
 34 36  1  0  0  0
 34 59  1  0  0  0
 34106  1  0  0  0
 35 44  2  0  0  0
 35 45  1  0  0  0
 35 68  1  0  0  0
 36 56  1  0  0  0
 36107  1  0  0  0
 37 39  1  0  0  0
 37 47  1  0  0  0
 37 66  1  0  0  0
 37108  1  0  0  0
 38 43  2  0  0  0
 38 46  1  0  0  0
 38 47  1  0  0  0
 39 64  1  0  0  0
 39 67  2  0  0  0
 40 52  1  0  0  0
 40 53  2  0  0  0
 40 58  1  0  0  0
 41109  1  0  0  0
 41110  1  0  0  0
 41111  1  0  0  0
 41 48  1  0  0  0
 42 43  1  0  0  0
 42 66  1  0  0  0
 42112  1  0  0  0
 42113  1  0  0  0
 43 44  1  0  0  0
 44114  1  0  0  0
 45 46  2  0  0  0
 45115  1  0  0  0
 46116  1  0  0  0
 47117  1  0  0  0
 47118  1  0  0  0
 48 56  1  0  0  0
 48 65  1  0  0  0
 48119  1  0  0  0
 49 50  1  0  0  0
 49 53  1  0  0  0
 49 64  1  0  0  0
 49120  1  0  0  0
 50 51  1  0  0  0
 50121  1  0  0  0
 50122  1  0  0  0
 51 52  1  0  0  0
 51123  1  0  0  0
 51124  1  0  0  0
 52125  1  0  0  0
 52126  1  0  0  0
 53 54  1  0  0  0
 54 55  2  0  0  0
 54127  1  0  0  0
 55 57  1  0  0  0
 55128  1  0  0  0
 56 69  2  0  0  0
 57 58  2  0  0  0
 57129  1  0  0  0
 58130  1  0  0  0
 59 60  1  0  0  0
 59 61  1  0  0  0
 59 62  1  0  0  0
 60131  1  0  0  0
 60132  1  0  0  0
 60133  1  0  0  0
 61134  1  0  0  0
 61135  1  0  0  0
 61136  1  0  0  0
 62137  1  0  0  0
 62138  1  0  0  0
 62139  1  0  0  0
 63 65  1  0  0  0
 63140  1  0  0  0
 63141  1  0  0  0
 63142  1  0  0  0
 64143  1  0  0  0
 65144  1  0  0  0
 68 81  1  0  0  0
 71 73  2  0  0  0
 71 74  1  0  0  0
 71145  1  0  0  0
 72 73  1  0  0  0
 72 82  2  0  0  0
 72146  1  0  0  0
 73 79  1  0  0  0
 74 75  2  0  0  0
 74 84  1  0  0  0
 75 82  1  0  0  0
 75 85  1  0  0  0
 76 77  1  0  0  0
 76 78  1  0  0  0
 76 84  1  0  0  0
 76147  1  0  0  0
 77 80  1  0  0  0
 77 85  1  0  0  0
 77148  1  0  0  0
 78149  1  0  0  0
 78150  1  0  0  0
 78151  1  0  0  0
 79 83  1  0  0  0
 79152  1  0  0  0
 79153  1  0  0  0
 80 81  1  0  0  0
 80154  1  0  0  0
 80155  1  0  0  0
 81156  1  0  0  0
 81157  1  0  0  0
 83158  1  0  0  0
M  ISO  4   1 100  68 101  81 101  83 100
M  END
> <chiral flag>
0

> <version>
0

> <s_m_source_file>
/data/baiqing/PycharmProjects/Reinvent-master-3.2/result/LINK_invent/BTK/process_docking_weight1_custom_sum_contain_oxygen_bond_distance_aromatic_linkinvent_7_9_3/rearranged_h_0120.sdf

> <i_m_source_file_index>
84

> <r_mmod_Potential_Energy-OPLS-2005>
-105.414627075195

> <r_mmod_Stretch_Energy-OPLS-2005>
55.2185173034668

> <r_mmod_Bend_Energy-OPLS-2005>
135.044418334961

> <r_mmod_Torsional_Energy-OPLS-2005>
227.629592895508

> <r_mmod_Improper_Torsional_Energy-OPLS-2005>
3.42248964309692

> <r_mmod_Van_der_Waal_Energy-OPLS-2005>
150.121154785156

> <r_mmod_Electrostatic_Energy-OPLS-2005>
-477.391143798828

> <r_mmod_Solvation_Energy-OPLS-2005>
-224.69677734375

> <b_mmod_Minimization_Converged-OPLS-2005>
0

> <r_mmod_RMS_Derivative-OPLS-2005>
1.66581404209137

$$$$
85
                    3D
 Structure written by MMmdl.
166174  0  0  1  0            999 V2000
  -30.7045  -14.4679   20.5907 C   0  0  0  0  0  0
  -30.4234  -12.3135   19.4166 C   0  0  0  0  0  0
  -29.4936  -12.5136   18.2030 C   0  0  0  0  0  0
  -28.0153  -12.3711   18.6168 C   0  0  0  0  0  0
  -27.6615  -13.2080   19.8754 C   0  0  2  0  0  0
  -28.7034  -12.9868   20.9944 C   0  0  0  0  0  0
  -25.2591  -13.8166   20.5683 C   0  0  0  0  0  0
  -24.1841  -13.0439   20.9173 C   0  0  0  0  0  0
  -24.6398  -11.6905   20.8734 C   0  0  0  0  0  0
  -23.9065  -10.4292   21.0403 C   0  0  0  0  0  0
  -24.3615   -9.4207   21.9184 C   0  0  0  0  0  0
  -23.6289   -8.2243   22.0757 C   0  0  0  0  0  0
  -22.4272   -8.0282   21.3546 C   0  0  0  0  0  0
  -21.9906   -9.0251   20.4646 C   0  0  0  0  0  0
  -22.7235  -10.2132   20.3053 C   0  0  0  0  0  0
  -21.6851   -6.0734   22.5279 C   0  0  0  0  0  0
  -21.4011   -6.5635   23.8211 C   0  0  0  0  0  0
  -21.3660   -5.6790   24.9172 C   0  0  0  0  0  0
  -21.6046   -4.3057   24.7227 C   0  0  0  0  0  0
  -21.8820   -3.8145   23.4347 C   0  0  0  0  0  0
  -21.9191   -4.6961   22.3402 C   0  0  0  0  0  0
  -22.7866  -13.5240   21.1841 C   0  0  0  0  0  0
  -22.1660   -4.2147   21.0982 F   0  0  0  0  0  0
  -21.5631   -3.4542   25.7737 F   0  0  0  0  0  0
  -30.0328  -13.2948   20.4410 N   0  0  0  0  0  0
  -26.3027  -12.9332   20.3379 N   0  0  0  0  0  0
  -25.9327  -11.6493   20.5767 N   0  0  0  0  0  0
  -22.0505  -12.8222   22.0389 N   0  0  0  0  0  0
  -25.4315  -15.1881   20.4088 N   0  0  0  0  0  0
  -31.8279  -14.6637   20.1200 O   0  0  0  0  0  0
  -21.6642   -6.8876   21.4241 O   0  0  0  0  0  0
  -22.3557  -14.5550   20.6697 O   0  0  0  0  0  0
  -24.6136  -31.8691   23.2102 C   0  0  0  0  0  0
  -25.9030  -32.4824   23.8399 C   0  0  1  0  0  0
  -27.2407  -27.4426   20.1027 C   0  0  0  0  0  0
  -25.5897  -33.8622   24.2336 N   0  0  0  0  0  0
  -23.4029  -30.4895   21.5504 C   0  0  2  0  0  0
  -24.8520  -28.9494   20.1226 C   0  0  0  0  0  0
  -22.7409  -29.4664   22.5013 C   0  0  0  0  0  0
  -18.0271  -28.1377   22.8489 C   0  0  0  0  0  0
  -24.1488  -36.7312   23.2638 C   0  0  0  0  0  0
  -25.9283  -30.8347   21.3635 C   0  0  0  0  0  0
  -26.0079  -29.4639   20.7236 C   0  0  0  0  0  0
  -27.2059  -28.7133   20.7198 C   0  0  0  0  0  0
  -26.0745  -26.9390   19.4956 C   0  0  0  0  0  0
  -24.8782  -27.6832   19.5102 C   0  0  0  0  0  0
  -23.6125  -29.8154   20.1675 C   0  0  0  0  0  0
  -25.4108  -36.3109   24.0339 C   0  0  1  0  0  0
  -20.5860  -28.3661   23.1336 C   0  0  2  0  0  0
  -20.6761  -26.9405   22.5424 C   0  0  0  0  0  0
  -19.5739  -26.6386   21.5217 C   0  0  0  0  0  0
  -18.1914  -26.7922   22.1622 C   0  0  0  0  0  0
  -19.1521  -28.8832   23.2909 C   0  0  0  0  0  0
  -18.9451  -30.1431   23.8922 C   0  0  0  0  0  0
  -17.6454  -30.6584   24.0564 C   0  0  0  0  0  0
  -25.9039  -34.9471   23.5137 C   0  0  0  0  0  0
  -16.5347  -29.9090   23.6331 C   0  0  0  0  0  0
  -16.7261  -28.6508   23.0352 C   0  0  0  0  0  0
  -26.4464  -31.6593   25.0720 C   0  0  0  0  0  0
  -25.3728  -31.3664   26.1466 C   0  0  0  0  0  0
  -27.0298  -30.3051   24.6061 C   0  0  0  0  0  0
  -27.6057  -32.4295   25.7476 C   0  0  0  0  0  0
  -27.5576  -37.1806   24.8463 C   0  0  0  0  0  0
  -21.4141  -29.3033   22.3748 N   0  0  0  0  0  0
  -26.4286  -37.3801   23.9416 N   0  0  0  0  0  0
  -24.6662  -31.0795   22.1003 N   0  0  0  0  0  0
  -23.4174  -28.8228   23.3079 O   0  0  0  0  0  0
  -28.4037  -26.7145   20.0137 O   0  0  0  0  0  0
  -26.5601  -34.8917   22.4696 O   0  0  0  0  0  0
  -23.5333  -32.1437   23.7511 O   0  0  0  0  0  0
  -28.8714  -23.5323   20.2821 C   0  0  0  0  0  0
  -27.6521  -23.9082   22.1053 C   0  0  0  0  0  0
  -28.4422  -24.5462   21.1927 C   0  0  0  0  0  0
  -28.3198  -22.3250   20.6398 C   0  0  0  0  0  0
  -25.2743  -22.0237   22.5578 C   0  0  0  0  0  0
  -27.3131  -21.4165   23.9532 C   0  0  0  0  0  0
  -28.8088  -26.0234   21.1964 C   0  0  0  0  0  0
  -28.4136  -20.9732   19.9566 C   0  0  0  0  0  0
  -30.6125  -17.7910   20.3002 C   0  0  0  0  0  0
  -30.5109  -16.8141   21.5065 C   0  0  0  0  0  0
  -29.3670  -18.6633   19.9694 C   0  0  0  0  0  0
  -26.7504  -21.6002   22.5366 C   0  0  0  0  0  0
  -27.5513  -22.5625   21.7796 N   0  0  0  0  0  0
  -30.0170  -15.4612   21.1880 N   0  0  0  0  0  0
  -29.3913  -20.0326   20.5623 N   0  3  0  0  0  0
  -31.4673  -12.4150   19.1144 H   0  0  0  0  0  0
  -30.3266  -11.3005   19.8106 H   0  0  0  0  0  0
  -29.7327  -11.7932   17.4197 H   0  0  0  0  0  0
  -29.6599  -13.5020   17.7716 H   0  0  0  0  0  0
  -27.8253  -11.3148   18.8097 H   0  0  0  0  0  0
  -27.3634  -12.6492   17.7880 H   0  0  0  0  0  0
  -27.7060  -14.2570   19.5817 H   0  0  0  0  0  0
  -28.6812  -11.9504   21.3341 H   0  0  0  0  0  0
  -28.4643  -13.5836   21.8754 H   0  0  0  0  0  0
  -25.2758   -9.5684   22.4762 H   0  0  0  0  0  0
  -23.9992   -7.4639   22.7482 H   0  0  0  0  0  0
  -21.0839   -8.8775   19.8954 H   0  0  0  0  0  0
  -22.3697  -10.9673   19.6167 H   0  0  0  0  0  0
  -21.2003   -7.6145   23.9712 H   0  0  0  0  0  0
  -21.1483   -6.0524   25.9075 H   0  0  0  0  0  0
  -22.0599   -2.7607   23.2851 H   0  0  0  0  0  0
  -22.4108  -11.9866   22.4753 H   0  0  0  0  0  0
  -21.1127  -13.1253   22.2608 H   0  0  0  0  0  0
  -24.6631  -15.8422   20.5072 H   0  0  0  0  0  0
  -26.2825  -15.6227   20.0764 H   0  0  0  0  0  0
  -26.7104  -32.5556   23.1173 H   0  0  0  0  0  0
  -25.0048  -33.9781   25.0478 H   0  0  0  0  0  0
  -22.6922  -31.3063   21.4069 H   0  0  0  0  0  0
  -23.3747  -35.9647   23.3315 H   0  0  0  0  0  0
  -24.3577  -36.8924   22.2050 H   0  0  0  0  0  0
  -23.7245  -37.6521   23.6647 H   0  0  0  0  0  0
  -26.0306  -31.5948   20.5877 H   0  0  0  0  0  0
  -26.8197  -30.9001   21.9749 H   0  0  0  0  0  0
  -28.1030  -29.1114   21.1734 H   0  0  0  0  0  0
  -26.0967  -25.9728   19.0111 H   0  0  0  0  0  0
  -23.9895  -27.2819   19.0436 H   0  0  0  0  0  0
  -23.7170  -30.5867   19.4037 H   0  0  0  0  0  0
  -22.7378  -29.2316   19.8740 H   0  0  0  0  0  0
  -25.1277  -36.1977   25.0831 H   0  0  0  0  0  0
  -20.9937  -28.3221   24.1463 H   0  0  0  0  0  0
  -20.5688  -26.2269   23.3604 H   0  0  0  0  0  0
  -21.6629  -26.7459   22.1201 H   0  0  0  0  0  0
  -19.6920  -25.6308   21.1223 H   0  0  0  0  0  0
  -19.6686  -27.3219   20.6765 H   0  0  0  0  0  0
  -17.4192  -26.6687   21.4016 H   0  0  0  0  0  0
  -18.0306  -26.0052   22.9004 H   0  0  0  0  0  0
  -19.7926  -30.7232   24.2313 H   0  0  0  0  0  0
  -17.5013  -31.6267   24.5155 H   0  0  0  0  0  0
  -15.5348  -30.2999   23.7642 H   0  0  0  0  0  0
  -15.8661  -28.0829   22.7071 H   0  0  0  0  0  0
  -24.5930  -30.6988   25.7784 H   0  0  0  0  0  0
  -24.8874  -32.2796   26.4920 H   0  0  0  0  0  0
  -25.8078  -30.8828   27.0223 H   0  0  0  0  0  0
  -26.2832  -29.6813   24.1133 H   0  0  0  0  0  0
  -27.4127  -29.7279   25.4488 H   0  0  0  0  0  0
  -27.8637  -30.4404   23.9165 H   0  0  0  0  0  0
  -27.2708  -33.3602   26.2061 H   0  0  0  0  0  0
  -28.3859  -32.6840   25.0288 H   0  0  0  0  0  0
  -28.0722  -31.8397   26.5380 H   0  0  0  0  0  0
  -28.2590  -38.0102   24.7514 H   0  0  0  0  0  0
  -28.1073  -36.2638   24.6285 H   0  0  0  0  0  0
  -27.2282  -37.1444   25.8858 H   0  0  0  0  0  0
  -20.9317  -29.8744   21.6950 H   0  0  0  0  0  0
  -26.0182  -38.2883   24.1418 H   0  0  0  0  0  0
  -29.5163  -23.6833   19.4268 H   0  0  0  0  0  0
  -27.1342  -24.3042   22.9698 H   0  0  0  0  0  0
  -24.6553  -21.2639   23.0341 H   0  0  0  0  0  0
  -24.8946  -22.1710   21.5463 H   0  0  0  0  0  0
  -25.1282  -22.9558   23.1043 H   0  0  0  0  0  0
  -26.7800  -20.6274   24.4836 H   0  0  0  0  0  0
  -27.2245  -22.3288   24.5439 H   0  0  0  0  0  0
  -28.3668  -21.1375   23.9275 H   0  0  0  0  0  0
  -29.8941  -26.0970   21.2672 H   0  0  0  0  0  0
  -28.4151  -26.4992   22.0967 H   0  0  0  0  0  0
  -28.6929  -21.1270   18.9132 H   0  0  0  0  0  0
  -27.4289  -20.5060   19.9176 H   0  0  0  0  0  0
  -30.8749  -17.2160   19.4118 H   0  0  0  0  0  0
  -31.4702  -18.4475   20.4512 H   0  0  0  0  0  0
  -29.8919  -17.2474   22.2929 H   0  0  0  0  0  0
  -31.5025  -16.7047   21.9503 H   0  0  0  0  0  0
  -28.4454  -18.1470   20.2413 H   0  0  0  0  0  0
  -29.3308  -18.7796   18.8846 H   0  0  0  0  0  0
  -26.7998  -20.6308   22.0442 H   0  0  0  0  0  0
  -29.0946  -15.2198   21.5197 H   0  0  0  0  0  0
  -29.2240  -19.9758   21.5525 H   0  0  0  0  0  0
  -30.3037  -20.4366   20.4295 H   0  0  0  0  0  0
  1 25  1  0  0  0
  1 30  2  0  0  0
  1 84  1  0  0  0
  2  3  1  0  0  0
  2 25  1  0  0  0
  2 86  1  0  0  0
  2 87  1  0  0  0
  3  4  1  0  0  0
  3 88  1  0  0  0
  3 89  1  0  0  0
  4  5  1  0  0  0
  4 90  1  0  0  0
  4 91  1  0  0  0
  5  6  1  0  0  0
  5 26  1  0  0  0
  5 92  1  0  0  0
  6 25  1  0  0  0
  6 93  1  0  0  0
  6 94  1  0  0  0
  7  8  2  0  0  0
  7 26  1  0  0  0
  7 29  1  0  0  0
  8  9  1  0  0  0
  8 22  1  0  0  0
  9 10  1  0  0  0
  9 27  2  0  0  0
 10 11  2  0  0  0
 10 15  1  0  0  0
 11 12  1  0  0  0
 11 95  1  0  0  0
 12 13  2  0  0  0
 12 96  1  0  0  0
 13 14  1  0  0  0
 13 31  1  0  0  0
 14 15  2  0  0  0
 14 97  1  0  0  0
 15 98  1  0  0  0
 16 17  2  0  0  0
 16 21  1  0  0  0
 16 31  1  0  0  0
 17 18  1  0  0  0
 17 99  1  0  0  0
 18 19  2  0  0  0
 18100  1  0  0  0
 19 20  1  0  0  0
 19 24  1  0  0  0
 20 21  2  0  0  0
 20101  1  0  0  0
 21 23  1  0  0  0
 22 28  1  0  0  0
 22 32  2  0  0  0
 26 27  1  0  0  0
 28102  1  0  0  0
 28103  1  0  0  0
 29104  1  0  0  0
 29105  1  0  0  0
 33 34  1  0  0  0
 33 66  1  0  0  0
 33 70  2  0  0  0
 34 36  1  0  0  0
 34 59  1  0  0  0
 34106  1  0  0  0
 35 44  2  0  0  0
 35 45  1  0  0  0
 35 68  1  0  0  0
 36 56  1  0  0  0
 36107  1  0  0  0
 37 39  1  0  0  0
 37 47  1  0  0  0
 37 66  1  0  0  0
 37108  1  0  0  0
 38 43  2  0  0  0
 38 46  1  0  0  0
 38 47  1  0  0  0
 39 64  1  0  0  0
 39 67  2  0  0  0
 40 52  1  0  0  0
 40 53  2  0  0  0
 40 58  1  0  0  0
 41109  1  0  0  0
 41110  1  0  0  0
 41111  1  0  0  0
 41 48  1  0  0  0
 42 43  1  0  0  0
 42 66  1  0  0  0
 42112  1  0  0  0
 42113  1  0  0  0
 43 44  1  0  0  0
 44114  1  0  0  0
 45 46  2  0  0  0
 45115  1  0  0  0
 46116  1  0  0  0
 47117  1  0  0  0
 47118  1  0  0  0
 48 56  1  0  0  0
 48 65  1  0  0  0
 48119  1  0  0  0
 49 50  1  0  0  0
 49 53  1  0  0  0
 49 64  1  0  0  0
 49120  1  0  0  0
 50 51  1  0  0  0
 50121  1  0  0  0
 50122  1  0  0  0
 51 52  1  0  0  0
 51123  1  0  0  0
 51124  1  0  0  0
 52125  1  0  0  0
 52126  1  0  0  0
 53 54  1  0  0  0
 54 55  2  0  0  0
 54127  1  0  0  0
 55 57  1  0  0  0
 55128  1  0  0  0
 56 69  2  0  0  0
 57 58  2  0  0  0
 57129  1  0  0  0
 58130  1  0  0  0
 59 60  1  0  0  0
 59 61  1  0  0  0
 59 62  1  0  0  0
 60131  1  0  0  0
 60132  1  0  0  0
 60133  1  0  0  0
 61134  1  0  0  0
 61135  1  0  0  0
 61136  1  0  0  0
 62137  1  0  0  0
 62138  1  0  0  0
 62139  1  0  0  0
 63 65  1  0  0  0
 63140  1  0  0  0
 63141  1  0  0  0
 63142  1  0  0  0
 64143  1  0  0  0
 65144  1  0  0  0
 68 77  1  0  0  0
 71 73  1  0  0  0
 71 74  2  0  0  0
 71145  1  0  0  0
 72 73  2  0  0  0
 72 83  1  0  0  0
 72146  1  0  0  0
 73 77  1  0  0  0
 74 78  1  0  0  0
 74 83  1  0  0  0
 75147  1  0  0  0
 75148  1  0  0  0
 75149  1  0  0  0
 75 82  1  0  0  0
 76 82  1  0  0  0
 76150  1  0  0  0
 76151  1  0  0  0
 76152  1  0  0  0
 77153  1  0  0  0
 77154  1  0  0  0
 78 85  1  0  0  0
 78155  1  0  0  0
 78156  1  0  0  0
 79 80  1  0  0  0
 79 81  1  0  0  0
 79157  1  0  0  0
 79158  1  0  0  0
 80 84  1  0  0  0
 80159  1  0  0  0
 80160  1  0  0  0
 81 85  1  0  0  0
 81161  1  0  0  0
 81162  1  0  0  0
 82 83  1  0  0  0
 82163  1  0  0  0
 84164  1  0  0  0
 85165  1  0  0  0
 85166  1  0  0  0
M  CHG  1  85   1
M  ISO  4   1 100  68 101  77 101  84 100
M  END
> <chiral flag>
0

> <version>
0

> <s_m_source_file>
/data/baiqing/PycharmProjects/Reinvent-master-3.2/result/LINK_invent/BTK/process_docking_weight1_custom_sum_contain_oxygen_bond_distance_aromatic_linkinvent_7_9_3/rearranged_h_0120.sdf

> <i_m_source_file_index>
85

> <r_mmod_Potential_Energy-OPLS-2005>
-224.139526367188

> <r_mmod_Stretch_Energy-OPLS-2005>
36.1033821105957

> <r_mmod_Bend_Energy-OPLS-2005>
99.7551345825195

> <r_mmod_Torsional_Energy-OPLS-2005>
270.839965820312

> <r_mmod_Improper_Torsional_Energy-OPLS-2005>
3.03466129302979

> <r_mmod_Van_der_Waal_Energy-OPLS-2005>
117.515754699707

> <r_mmod_Electrostatic_Energy-OPLS-2005>
-289.754364013672

> <r_mmod_Solvation_Energy-OPLS-2005>
-472.287261962891

> <b_mmod_Minimization_Converged-OPLS-2005>
0

> <r_mmod_RMS_Derivative-OPLS-2005>
1.3749030828476

$$$$
86
                    3D
 Structure written by MMmdl.
178186  0  0  1  0            999 V2000
  -29.3298  -14.5578   19.9410 C   0  0  0  0  0  0
  -30.6115  -12.5816   19.2864 C   0  0  0  0  0  0
  -29.5725  -12.1335   18.2515 C   0  0  0  0  0  0
  -28.4430  -11.4556   19.0859 C   0  0  0  0  0  0
  -28.1905  -12.1399   20.5474 C   0  0  2  0  0  0
  -29.2947  -12.6758   21.3109 C   0  0  0  0  0  0
  -25.6443  -14.0772   21.5204 C   0  0  0  0  0  0
  -24.2289  -13.5116   20.7138 C   0  0  0  0  0  0
  -24.5112  -11.9350   19.9877 C   0  0  0  0  0  0
  -23.8147  -10.6446   20.5525 C   0  0  0  0  0  0
  -24.3266   -9.7244   21.5592 C   0  0  0  0  0  0
  -23.6680   -8.5006   21.9321 C   0  0  0  0  0  0
  -22.4418   -8.1617   21.3223 C   0  0  0  0  0  0
  -21.8985   -9.0880   20.4160 C   0  0  0  0  0  0
  -22.5444  -10.2868   20.0556 C   0  0  0  0  0  0
  -21.7523   -6.1395   22.5213 C   0  0  0  0  0  0
  -21.4556   -6.6136   23.8163 C   0  0  0  0  0  0
  -21.3857   -5.7089   24.9041 C   0  0  0  0  0  0
  -21.5999   -4.3358   24.6975 C   0  0  0  0  0  0
  -21.8810   -3.8574   23.4104 C   0  0  0  0  0  0
  -21.9453   -4.7526   22.3237 C   0  0  0  0  0  0
  -22.8250  -13.8197   21.1248 C   0  0  0  0  0  0
  -22.1775   -4.2716   21.0798 F   0  0  0  0  0  0
  -21.5438   -3.4700   25.7442 F   0  0  0  0  0  0
  -29.9018  -13.3946   20.2878 N   0  0  0  0  0  0
  -26.9821  -12.5950   21.1137 N   0  0  0  0  0  0
  -26.0607  -11.5007   20.1274 N   0  0  0  0  0  0
  -22.2165  -12.9842   21.9593 N   0  0  0  0  0  0
  -25.8714  -15.3799   21.6924 N   0  0  0  0  0  0
  -30.3080  -15.3535   19.8478 O   0  0  0  0  0  0
  -21.7416   -6.9647   21.4292 O   0  0  0  0  0  0
  -22.2380  -14.7690   20.6454 O   0  0  0  0  0  0
  -24.6301  -31.8769   23.2170 C   0  0  0  0  0  0
  -25.9121  -32.4923   23.8478 C   0  0  1  0  0  0
  -27.1205  -27.2510   20.1342 C   0  0  0  0  0  0
  -25.5939  -33.8748   24.2411 N   0  0  0  0  0  0
  -23.4343  -30.4924   21.5674 C   0  0  2  0  0  0
  -24.8595  -28.9821   20.1059 C   0  0  0  0  0  0
  -22.7523  -29.4627   22.4947 C   0  0  0  0  0  0
  -18.0253  -28.1371   22.8468 C   0  0  0  0  0  0
  -24.1434  -36.7237   23.2668 C   0  0  0  0  0  0
  -25.9846  -30.7754   21.4270 C   0  0  0  0  0  0
  -26.0402  -29.4107   20.7280 C   0  0  0  0  0  0
  -27.1818  -28.5402   20.7528 C   0  0  0  0  0  0
  -25.9696  -26.9680   19.3685 C   0  0  0  0  0  0
  -24.8277  -27.7639   19.4055 C   0  0  0  0  0  0
  -23.6483  -29.8786   20.1660 C   0  0  0  0  0  0
  -25.4103  -36.3222   24.0378 C   0  0  1  0  0  0
  -20.5889  -28.3706   23.1224 C   0  0  2  0  0  0
  -20.6764  -26.9399   22.5420 C   0  0  0  0  0  0
  -19.5762  -26.6334   21.5234 C   0  0  0  0  0  0
  -18.1909  -26.7897   22.1594 C   0  0  0  0  0  0
  -19.1524  -28.8847   23.2828 C   0  0  0  0  0  0
  -18.9421  -30.1435   23.8862 C   0  0  0  0  0  0
  -17.6431  -30.6588   24.0534 C   0  0  0  0  0  0
  -25.9050  -34.9571   23.5195 C   0  0  0  0  0  0
  -16.5311  -29.9075   23.6374 C   0  0  0  0  0  0
  -16.7227  -28.6490   23.0398 C   0  0  0  0  0  0
  -26.4512  -31.6713   25.0843 C   0  0  0  0  0  0
  -25.3599  -31.3882   26.1409 C   0  0  0  0  0  0
  -27.0424  -30.3070   24.6633 C   0  0  0  0  0  0
  -27.6131  -32.4416   25.7537 C   0  0  0  0  0  0
  -27.5610  -37.1770   24.8486 C   0  0  0  0  0  0
  -21.4208  -29.3060   22.3603 N   0  0  0  0  0  0
  -26.4336  -37.3876   23.9415 N   0  0  0  0  0  0
  -24.7024  -31.0628   22.1237 N   0  0  0  0  0  0
  -23.4147  -28.8154   23.3079 O   0  0  0  0  0  0
  -28.0306  -26.1700   20.2441 O   0  0  0  0  0  0
  -26.5629  -34.9054   22.4777 O   0  0  0  0  0  0
  -23.5374  -32.1674   23.7362 O   0  0  0  0  0  0
  -25.1033  -19.3330   19.3920 C   0  0  0  0  0  0
  -25.8845  -20.4642   19.2039 C   0  0  0  0  0  0
  -23.6159  -19.5712   19.3317 C   0  0  0  0  0  0
  -23.3106  -19.3823   20.8074 C   0  0  0  0  0  0
  -24.0808  -18.0957   21.1685 C   0  0  0  0  0  0
  -25.2751  -17.9307   20.1221 C   0  0  2  0  0  0
  -26.6178  -17.9868   20.9095 C   0  0  0  0  0  0
  -28.2863  -19.9855   18.6912 C   0  0  0  0  0  0
  -29.5391  -23.1533   20.7978 C   0  0  0  0  0  0
  -25.9637  -24.6421   21.0711 C   0  0  0  0  0  0
  -24.8872  -16.5657   19.2080 C   0  0  0  0  0  0
  -25.5646  -15.1253   18.6800 C   0  0  0  0  0  0
  -26.1920  -13.7569   19.4197 C   0  0  0  0  0  0
  -27.3461  -20.9111   19.4920 C   0  0  1  0  0  0
  -28.0456  -23.3043   20.4436 C   0  0  1  0  0  0
  -27.4685  -24.8095   20.7024 C   0  0  1  0  0  0
  -27.8064  -14.6533   19.6292 N   0  0  0  0  0  0
  -27.6001  -22.4191   19.2651 N   0  3  0  0  0  0
  -31.4038  -13.1573   18.8070 H   0  0  0  0  0  0
  -31.0775  -11.7092   19.7382 H   0  0  0  0  0  0
  -29.9972  -11.4370   17.5206 H   0  0  0  0  0  0
  -29.1661  -12.9791   17.6946 H   0  0  0  0  0  0
  -28.7879  -10.4506   19.3341 H   0  0  0  0  0  0
  -27.6088  -11.2424   18.4028 H   0  0  0  0  0  0
  -27.9954  -12.5655   19.6508 H   0  0  0  0  0  0
  -29.9687  -11.8937   21.6598 H   0  0  0  0  0  0
  -29.0274  -13.2763   22.1827 H   0  0  0  0  0  0
  -25.2852   -9.9406   22.0098 H   0  0  0  0  0  0
  -24.1385   -7.8337   22.6489 H   0  0  0  0  0  0
  -20.9445   -8.8531   19.9607 H   0  0  0  0  0  0
  -22.0674  -10.9339   19.3280 H   0  0  0  0  0  0
  -21.2766   -7.6665   23.9743 H   0  0  0  0  0  0
  -21.1649   -6.0883   25.8910 H   0  0  0  0  0  0
  -22.0418   -2.8073   23.2296 H   0  0  0  0  0  0
  -22.7125  -12.1904   22.3428 H   0  0  0  0  0  0
  -21.2696  -13.1855   22.2474 H   0  0  0  0  0  0
  -25.1719  -16.0274   21.3469 H   0  0  0  0  0  0
  -26.7961  -15.7193   21.4806 H   0  0  0  0  0  0
  -26.7264  -32.5602   23.1272 H   0  0  0  0  0  0
  -24.9941  -33.9934   25.0469 H   0  0  0  0  0  0
  -22.7336  -31.3138   21.4507 H   0  0  0  0  0  0
  -23.3867  -35.9398   23.3380 H   0  0  0  0  0  0
  -24.3527  -36.8784   22.2076 H   0  0  0  0  0  0
  -23.6969  -37.6377   23.6616 H   0  0  0  0  0  0
  -26.1872  -31.5733   20.7134 H   0  0  0  0  0  0
  -26.8338  -30.7682   22.0948 H   0  0  0  0  0  0
  -28.0620  -28.8526   21.3102 H   0  0  0  0  0  0
  -25.9289  -26.0593   18.7891 H   0  0  0  0  0  0
  -23.9318  -27.4746   18.8778 H   0  0  0  0  0  0
  -23.7737  -30.6945   19.4487 H   0  0  0  0  0  0
  -22.7646  -29.3204   19.8599 H   0  0  0  0  0  0
  -25.1268  -36.2196   25.0879 H   0  0  0  0  0  0
  -20.9984  -28.3265   24.1338 H   0  0  0  0  0  0
  -20.5712  -26.2265   23.3613 H   0  0  0  0  0  0
  -21.6579  -26.7384   22.1178 H   0  0  0  0  0  0
  -19.6939  -25.6249   21.1283 H   0  0  0  0  0  0
  -19.6771  -27.3076   20.6729 H   0  0  0  0  0  0
  -17.4190  -26.6594   21.3995 H   0  0  0  0  0  0
  -18.0275  -26.0081   22.9024 H   0  0  0  0  0  0
  -19.7900  -30.7260   24.2183 H   0  0  0  0  0  0
  -17.4993  -31.6276   24.5063 H   0  0  0  0  0  0
  -15.5318  -30.2952   23.7803 H   0  0  0  0  0  0
  -15.8583  -28.0823   22.7195 H   0  0  0  0  0  0
  -24.5797  -30.7366   25.7482 H   0  0  0  0  0  0
  -24.8777  -32.3057   26.4795 H   0  0  0  0  0  0
  -25.7659  -30.8900   27.0219 H   0  0  0  0  0  0
  -26.3114  -29.6669   24.1726 H   0  0  0  0  0  0
  -27.3949  -29.7601   25.5409 H   0  0  0  0  0  0
  -27.9066  -30.4197   24.0082 H   0  0  0  0  0  0
  -27.2908  -33.3747   26.2194 H   0  0  0  0  0  0
  -28.3848  -32.6949   25.0231 H   0  0  0  0  0  0
  -28.0970  -31.8519   26.5353 H   0  0  0  0  0  0
  -28.2671  -38.0047   24.7681 H   0  0  0  0  0  0
  -28.1080  -36.2625   24.6156 H   0  0  0  0  0  0
  -27.2335  -37.1203   25.8891 H   0  0  0  0  0  0
  -20.9338  -29.8682   21.6800 H   0  0  0  0  0  0
  -26.0295  -38.2985   24.1457 H   0  0  0  0  0  0
  -25.3371  -21.3103   18.8235 H   0  0  0  0  0  0
  -23.1240  -18.8196   18.7122 H   0  0  0  0  0  0
  -23.3074  -20.5521   18.9575 H   0  0  0  0  0  0
  -22.2450  -19.3703   21.0418 H   0  0  0  0  0  0
  -23.7516  -20.2188   21.3623 H   0  0  0  0  0  0
  -23.3549  -17.2749   21.1559 H   0  0  0  0  0  0
  -24.3971  -18.1435   22.2197 H   0  0  0  0  0  0
  -26.8014  -18.9943   21.2672 H   0  0  0  0  0  0
  -27.4419  -17.5913   20.3249 H   0  0  0  0  0  0
  -26.6670  -17.5204   21.8864 H   0  0  0  0  0  0
  -28.3865  -19.0236   19.1789 H   0  0  0  0  0  0
  -29.3077  -20.3407   18.6165 H   0  0  0  0  0  0
  -27.8770  -19.7675   17.7028 H   0  0  0  0  0  0
  -29.7521  -23.6191   21.7668 H   0  0  0  0  0  0
  -30.1982  -23.6177   20.0634 H   0  0  0  0  0  0
  -29.8180  -22.1011   20.9019 H   0  0  0  0  0  0
  -25.7621  -23.7711   21.7065 H   0  0  0  0  0  0
  -25.2989  -24.5620   20.2110 H   0  0  0  0  0  0
  -25.6481  -25.4850   21.6791 H   0  0  0  0  0  0
  -24.6331  -17.0288   18.2595 H   0  0  0  0  0  0
  -23.8915  -16.2354   19.4910 H   0  0  0  0  0  0
  -26.3212  -15.3953   17.9182 H   0  0  0  0  0  0
  -24.7719  -14.7085   18.0352 H   0  0  0  0  0  0
  -26.3071  -13.1292   18.5179 H   0  0  0  0  0  0
  -25.2994  -12.3007   21.6128 H   0  0  0  0  0  0
  -27.5438  -20.7318   20.5385 H   0  0  0  0  0  0
  -27.5816  -22.7467   21.2592 H   0  0  0  0  0  0
  -27.8354  -24.9411   21.7155 H   0  0  0  0  0  0
  -27.6601  -15.6320   19.4083 H   0  0  0  0  0  0
  -26.7827  -22.8149   18.8367 H   0  0  0  0  0  0
  -28.3135  -22.4901   18.5558 H   0  0  0  0  0  0
  1 25  1  0  0  0
  1 30  2  0  0  0
  1 87  1  0  0  0
  2  3  1  0  0  0
  2 25  1  0  0  0
  2 89  1  0  0  0
  2 90  1  0  0  0
  3  4  1  0  0  0
  3 91  1  0  0  0
  3 92  1  0  0  0
  4  5  1  0  0  0
  4 93  1  0  0  0
  4 94  1  0  0  0
  5  6  1  0  0  0
  5 26  1  0  0  0
  5 95  1  0  0  0
  6 25  1  0  0  0
  6 96  1  0  0  0
  6 97  1  0  0  0
  7  8  2  0  0  0
  7 26  1  0  0  0
  7 29  1  0  0  0
  8  9  1  0  0  0
  8 22  1  0  0  0
  9 10  1  0  0  0
  9 27  2  0  0  0
 10 11  2  0  0  0
 10 15  1  0  0  0
 11 12  1  0  0  0
 11 98  1  0  0  0
 12 13  2  0  0  0
 12 99  1  0  0  0
 13 14  1  0  0  0
 13 31  1  0  0  0
 14 15  2  0  0  0
 14100  1  0  0  0
 15101  1  0  0  0
 16 17  2  0  0  0
 16 21  1  0  0  0
 16 31  1  0  0  0
 17 18  1  0  0  0
 17102  1  0  0  0
 18 19  2  0  0  0
 18103  1  0  0  0
 19 20  1  0  0  0
 19 24  1  0  0  0
 20 21  2  0  0  0
 20104  1  0  0  0
 21 23  1  0  0  0
 22 28  1  0  0  0
 22 32  2  0  0  0
 26 27  1  0  0  0
 28105  1  0  0  0
 28106  1  0  0  0
 29107  1  0  0  0
 29108  1  0  0  0
 33 34  1  0  0  0
 33 66  1  0  0  0
 33 70  2  0  0  0
 34 36  1  0  0  0
 34 59  1  0  0  0
 34109  1  0  0  0
 35 44  2  0  0  0
 35 45  1  0  0  0
 35 68  1  0  0  0
 36 56  1  0  0  0
 36110  1  0  0  0
 37 39  1  0  0  0
 37 47  1  0  0  0
 37 66  1  0  0  0
 37111  1  0  0  0
 38 43  2  0  0  0
 38 46  1  0  0  0
 38 47  1  0  0  0
 39 64  1  0  0  0
 39 67  2  0  0  0
 40 52  1  0  0  0
 40 53  2  0  0  0
 40 58  1  0  0  0
 41112  1  0  0  0
 41113  1  0  0  0
 41114  1  0  0  0
 41 48  1  0  0  0
 42 43  1  0  0  0
 42 66  1  0  0  0
 42115  1  0  0  0
 42116  1  0  0  0
 43 44  1  0  0  0
 44117  1  0  0  0
 45 46  2  0  0  0
 45118  1  0  0  0
 46119  1  0  0  0
 47120  1  0  0  0
 47121  1  0  0  0
 48 56  1  0  0  0
 48 65  1  0  0  0
 48122  1  0  0  0
 49 50  1  0  0  0
 49 53  1  0  0  0
 49 64  1  0  0  0
 49123  1  0  0  0
 50 51  1  0  0  0
 50124  1  0  0  0
 50125  1  0  0  0
 51 52  1  0  0  0
 51126  1  0  0  0
 51127  1  0  0  0
 52128  1  0  0  0
 52129  1  0  0  0
 53 54  1  0  0  0
 54 55  2  0  0  0
 54130  1  0  0  0
 55 57  1  0  0  0
 55131  1  0  0  0
 56 69  2  0  0  0
 57 58  2  0  0  0
 57132  1  0  0  0
 58133  1  0  0  0
 59 60  1  0  0  0
 59 61  1  0  0  0
 59 62  1  0  0  0
 60134  1  0  0  0
 60135  1  0  0  0
 60136  1  0  0  0
 61137  1  0  0  0
 61138  1  0  0  0
 61139  1  0  0  0
 62140  1  0  0  0
 62141  1  0  0  0
 62142  1  0  0  0
 63 65  1  0  0  0
 63143  1  0  0  0
 63144  1  0  0  0
 63145  1  0  0  0
 64146  1  0  0  0
 65147  1  0  0  0
 68 86  1  0  0  0
 71 72  2  0  0  0
 71 73  1  0  0  0
 71 76  1  0  0  0
 72 84  1  0  0  0
 72148  1  0  0  0
 73 74  1  0  0  0
 73149  1  0  0  0
 73150  1  0  0  0
 74 75  1  0  0  0
 74151  1  0  0  0
 74152  1  0  0  0
 75 76  1  0  0  0
 75153  1  0  0  0
 75154  1  0  0  0
 76 77  1  0  0  0
 76 81  1  0  0  0
 77155  1  0  0  0
 77156  1  0  0  0
 77157  1  0  0  0
 78158  1  0  0  0
 78159  1  0  0  0
 78160  1  0  0  0
 78 84  1  0  0  0
 79161  1  0  0  0
 79162  1  0  0  0
 79163  1  0  0  0
 79 85  1  0  0  0
 80164  1  0  0  0
 80165  1  0  0  0
 80166  1  0  0  0
 80 86  1  0  0  0
 81 82  1  0  0  0
 81167  1  0  0  0
 81168  1  0  0  0
 82 83  1  0  0  0
 82169  1  0  0  0
 82170  1  0  0  0
 83 87  1  0  0  0
 83171  1  0  0  0
 83172  1  0  0  0
 84 88  1  0  0  0
 84173  1  0  0  0
 85 86  1  0  0  0
 85 88  1  0  0  0
 85174  1  0  0  0
 86175  1  0  0  0
 87176  1  0  0  0
 88177  1  0  0  0
 88178  1  0  0  0
M  CHG  1  88   1
M  ISO  4   1 100  68 101  86 101  87 100
M  END
> <chiral flag>
0

> <version>
0

> <s_m_source_file>
/data/baiqing/PycharmProjects/Reinvent-master-3.2/result/LINK_invent/BTK/process_docking_weight1_custom_sum_contain_oxygen_bond_distance_aromatic_linkinvent_7_9_3/rearranged_h_0120.sdf

> <i_m_source_file_index>
86

> <r_mmod_Potential_Energy-OPLS-2005>
11647.2353515625

> <r_mmod_Stretch_Energy-OPLS-2005>
6352.25

> <r_mmod_Bend_Energy-OPLS-2005>
1091.71411132812

> <r_mmod_Torsional_Energy-OPLS-2005>
606.874389648438

> <r_mmod_Improper_Torsional_Energy-OPLS-2005>
59.7285079956055

> <r_mmod_Van_der_Waal_Energy-OPLS-2005>
2568.20556640625

> <r_mmod_Electrostatic_Energy-OPLS-2005>
-313.862396240234

> <r_mmod_Solvation_Energy-OPLS-2005>
-402.208038330078

> <b_mmod_Minimization_Converged-OPLS-2005>
0

> <r_mmod_RMS_Derivative-OPLS-2005>
35.46337890625

$$$$
87
                    3D
 Structure written by MMmdl.
171179  0  0  1  0            999 V2000
  -30.6844  -14.4500   20.5054 C   0  0  0  0  0  0
  -30.4202  -12.2702   19.4325 C   0  0  0  0  0  0
  -29.4955  -12.4808   18.2136 C   0  0  0  0  0  0
  -28.0137  -12.3541   18.6220 C   0  0  0  0  0  0
  -27.6590  -13.1974   19.8755 C   0  0  2  0  0  0
  -28.7009  -12.9860   21.0014 C   0  0  0  0  0  0
  -25.2575  -13.8121   20.5664 C   0  0  0  0  0  0
  -24.1822  -13.0411   20.9177 C   0  0  0  0  0  0
  -24.6368  -11.6870   20.8732 C   0  0  0  0  0  0
  -23.9030  -10.4266   21.0407 C   0  0  0  0  0  0
  -24.3589   -9.4184   21.9179 C   0  0  0  0  0  0
  -23.6275   -8.2213   22.0737 C   0  0  0  0  0  0
  -22.4258   -8.0256   21.3530 C   0  0  0  0  0  0
  -21.9893   -9.0227   20.4633 C   0  0  0  0  0  0
  -22.7209  -10.2113   20.3047 C   0  0  0  0  0  0
  -21.6842   -6.0718   22.5281 C   0  0  0  0  0  0
  -21.4006   -6.5627   23.8213 C   0  0  0  0  0  0
  -21.3659   -5.6781   24.9181 C   0  0  0  0  0  0
  -21.6052   -4.3042   24.7234 C   0  0  0  0  0  0
  -21.8821   -3.8127   23.4348 C   0  0  0  0  0  0
  -21.9188   -4.6942   22.3405 C   0  0  0  0  0  0
  -22.7853  -13.5220   21.1853 C   0  0  0  0  0  0
  -22.1652   -4.2131   21.0982 F   0  0  0  0  0  0
  -21.5641   -3.4536   25.7749 F   0  0  0  0  0  0
  -30.0367  -13.2596   20.4471 N   0  0  0  0  0  0
  -26.2999  -12.9265   20.3362 N   0  0  0  0  0  0
  -25.9291  -11.6439   20.5777 N   0  0  0  0  0  0
  -22.0488  -12.8212   22.0406 N   0  0  0  0  0  0
  -25.4310  -15.1844   20.4041 N   0  0  0  0  0  0
  -31.8479  -14.6137   20.1300 O   0  0  0  0  0  0
  -21.6614   -6.8858   21.4242 O   0  0  0  0  0  0
  -22.3553  -14.5545   20.6722 O   0  0  0  0  0  0
  -24.6112  -31.8714   23.2129 C   0  0  0  0  0  0
  -25.9017  -32.4841   23.8420 C   0  0  1  0  0  0
  -27.2314  -27.4616   20.0877 C   0  0  0  0  0  0
  -25.5889  -33.8640   24.2357 N   0  0  0  0  0  0
  -23.3958  -30.4966   21.5535 C   0  0  2  0  0  0
  -24.8391  -28.9615   20.1215 C   0  0  0  0  0  0
  -22.7385  -29.4687   22.5013 C   0  0  0  0  0  0
  -18.0267  -28.1374   22.8495 C   0  0  0  0  0  0
  -24.1487  -36.7324   23.2640 C   0  0  0  0  0  0
  -25.9221  -30.8450   21.3600 C   0  0  0  0  0  0
  -25.9981  -29.4803   20.7102 C   0  0  0  0  0  0
  -27.1965  -28.7387   20.6870 C   0  0  0  0  0  0
  -26.0524  -26.9472   19.4994 C   0  0  0  0  0  0
  -24.8593  -27.6933   19.5172 C   0  0  0  0  0  0
  -23.6018  -29.8275   20.1687 C   0  0  0  0  0  0
  -25.4107  -36.3130   24.0350 C   0  0  1  0  0  0
  -20.5853  -28.3659   23.1332 C   0  0  2  0  0  0
  -20.6758  -26.9401   22.5419 C   0  0  0  0  0  0
  -19.5742  -26.6389   21.5210 C   0  0  0  0  0  0
  -18.1918  -26.7925   22.1618 C   0  0  0  0  0  0
  -19.1514  -28.8832   23.2912 C   0  0  0  0  0  0
  -18.9442  -30.1438   23.8920 C   0  0  0  0  0  0
  -17.6446  -30.6584   24.0568 C   0  0  0  0  0  0
  -25.9030  -34.9490   23.5152 C   0  0  0  0  0  0
  -16.5338  -29.9089   23.6320 C   0  0  0  0  0  0
  -16.7259  -28.6504   23.0343 C   0  0  0  0  0  0
  -26.4460  -31.6607   25.0728 C   0  0  0  0  0  0
  -25.3743  -31.3689   26.1488 C   0  0  0  0  0  0
  -27.0284  -30.3063   24.6062 C   0  0  0  0  0  0
  -27.6059  -32.4310   25.7466 C   0  0  0  0  0  0
  -27.5588  -37.1815   24.8466 C   0  0  0  0  0  0
  -21.4119  -29.3035   22.3745 N   0  0  0  0  0  0
  -26.4301  -37.3805   23.9411 N   0  0  0  0  0  0
  -24.6614  -31.0851   22.1008 N   0  0  0  0  0  0
  -23.4186  -28.8227   23.3030 O   0  0  0  0  0  0
  -28.4363  -26.8021   20.0518 O   0  0  0  0  0  0
  -26.5584  -34.8933   22.4707 O   0  0  0  0  0  0
  -23.5313  -32.1450   23.7544 O   0  0  0  0  0  0
  -30.4491  -21.2788   20.9881 C   0  0  0  0  0  0
  -29.7830  -21.2560   18.5613 C   0  0  0  0  0  0
  -29.9269  -22.7268   21.0663 C   0  0  0  0  0  0
  -29.7530  -20.4557   19.8838 C   0  0  1  0  0  0
  -29.2582  -22.7038   18.7014 C   0  0  2  0  0  0
  -29.2703  -23.3876   17.3155 C   0  0  0  0  0  0
  -30.9479  -25.5880   20.7171 C   0  0  0  0  0  0
  -31.2116  -17.9431   21.7269 C   0  0  0  0  0  0
  -29.9962  -16.7181   19.8496 C   0  0  0  0  0  0
  -28.4513  -25.3827   20.1844 C   0  0  0  0  0  0
  -29.8800  -24.9180   19.8208 C   0  0  2  0  0  0
  -30.1192  -18.0356   20.6441 C   0  0  2  0  0  0
  -29.8640  -15.4993   20.6597 N   0  0  0  0  0  0
  -30.0486  -23.4259   19.7542 N   0  3  1  0  0  0
  -30.3935  -19.1280   19.6732 N   0  3  0  0  0  0
  -31.4672  -12.3610   19.1351 H   0  0  0  0  0  0
  -30.3065  -11.2612   19.8326 H   0  0  0  0  0  0
  -29.7294  -11.7553   17.4334 H   0  0  0  0  0  0
  -29.6752  -13.4663   17.7800 H   0  0  0  0  0  0
  -27.8153  -11.2994   18.8188 H   0  0  0  0  0  0
  -27.3669  -12.6344   17.7897 H   0  0  0  0  0  0
  -27.6975  -14.2411   19.5661 H   0  0  0  0  0  0
  -28.6604  -11.9601   21.3713 H   0  0  0  0  0  0
  -28.4796  -13.6184   21.8631 H   0  0  0  0  0  0
  -25.2731   -9.5661   22.4759 H   0  0  0  0  0  0
  -23.9985   -7.4601   22.7448 H   0  0  0  0  0  0
  -21.0820   -8.8739   19.8945 H   0  0  0  0  0  0
  -22.3661  -10.9646   19.6151 H   0  0  0  0  0  0
  -21.1986   -7.6133   23.9708 H   0  0  0  0  0  0
  -21.1490   -6.0511   25.9090 H   0  0  0  0  0  0
  -22.0605   -2.7586   23.2843 H   0  0  0  0  0  0
  -22.4093  -11.9859   22.4782 H   0  0  0  0  0  0
  -21.1116  -13.1255   22.2617 H   0  0  0  0  0  0
  -24.6636  -15.8386   20.5110 H   0  0  0  0  0  0
  -26.2755  -15.6204   20.0581 H   0  0  0  0  0  0
  -26.7085  -32.5568   23.1187 H   0  0  0  0  0  0
  -25.0051  -33.9810   25.0509 H   0  0  0  0  0  0
  -22.6831  -31.3126   21.4157 H   0  0  0  0  0  0
  -23.3752  -35.9653   23.3313 H   0  0  0  0  0  0
  -24.3585  -36.8921   22.2052 H   0  0  0  0  0  0
  -23.7231  -37.6535   23.6632 H   0  0  0  0  0  0
  -26.0285  -31.6105   20.5904 H   0  0  0  0  0  0
  -26.8131  -30.9005   21.9735 H   0  0  0  0  0  0
  -28.0975  -29.1439   21.1264 H   0  0  0  0  0  0
  -26.0318  -25.9939   18.9938 H   0  0  0  0  0  0
  -23.9676  -27.2907   19.0567 H   0  0  0  0  0  0
  -23.7116  -30.6014   19.4080 H   0  0  0  0  0  0
  -22.7256  -29.2473   19.8729 H   0  0  0  0  0  0
  -25.1276  -36.2013   25.0843 H   0  0  0  0  0  0
  -20.9951  -28.3220   24.1451 H   0  0  0  0  0  0
  -20.5662  -26.2267   23.3600 H   0  0  0  0  0  0
  -21.6630  -26.7450   22.1213 H   0  0  0  0  0  0
  -19.6905  -25.6307   21.1221 H   0  0  0  0  0  0
  -19.6688  -27.3212   20.6751 H   0  0  0  0  0  0
  -17.4196  -26.6687   21.4009 H   0  0  0  0  0  0
  -18.0315  -26.0056   22.9004 H   0  0  0  0  0  0
  -19.7920  -30.7237   24.2311 H   0  0  0  0  0  0
  -17.5005  -31.6266   24.5167 H   0  0  0  0  0  0
  -15.5339  -30.2995   23.7629 H   0  0  0  0  0  0
  -15.8663  -28.0830   22.7039 H   0  0  0  0  0  0
  -24.5909  -30.7044   25.7821 H   0  0  0  0  0  0
  -24.8935  -32.2833   26.4979 H   0  0  0  0  0  0
  -25.8111  -30.8828   27.0222 H   0  0  0  0  0  0
  -26.2808  -29.6822   24.1148 H   0  0  0  0  0  0
  -27.4116  -29.7295   25.4490 H   0  0  0  0  0  0
  -27.8618  -30.4408   23.9160 H   0  0  0  0  0  0
  -27.2712  -33.3606   26.2080 H   0  0  0  0  0  0
  -28.3838  -32.6874   25.0261 H   0  0  0  0  0  0
  -28.0762  -31.8408   26.5341 H   0  0  0  0  0  0
  -28.2613  -38.0105   24.7515 H   0  0  0  0  0  0
  -28.1075  -36.2639   24.6284 H   0  0  0  0  0  0
  -27.2309  -37.1469   25.8870 H   0  0  0  0  0  0
  -20.9272  -29.8769   21.6981 H   0  0  0  0  0  0
  -26.0204  -38.2893   24.1393 H   0  0  0  0  0  0
  -30.2908  -20.8116   21.9591 H   0  0  0  0  0  0
  -31.5271  -21.2964   20.8235 H   0  0  0  0  0  0
  -29.1861  -20.7334   17.8121 H   0  0  0  0  0  0
  -30.8006  -21.2852   18.1669 H   0  0  0  0  0  0
  -30.4952  -23.2403   21.8402 H   0  0  0  0  0  0
  -28.8875  -22.7315   21.3971 H   0  0  0  0  0  0
  -28.7069  -20.3054   20.1580 H   0  0  0  0  0  0
  -28.2176  -22.6519   19.0267 H   0  0  0  0  0  0
  -30.2860  -23.5567   16.9570 H   0  0  0  0  0  0
  -28.7437  -24.3420   17.3146 H   0  0  0  0  0  0
  -28.7646  -22.7663   16.5746 H   0  0  0  0  0  0
  -30.9621  -26.6681   20.5639 H   0  0  0  0  0  0
  -31.9504  -25.2257   20.4886 H   0  0  0  0  0  0
  -30.7647  -25.4306   21.7800 H   0  0  0  0  0  0
  -30.9611  -17.1844   22.4691 H   0  0  0  0  0  0
  -31.3360  -18.8774   22.2691 H   0  0  0  0  0  0
  -32.1782  -17.6738   21.3022 H   0  0  0  0  0  0
  -30.8400  -16.6321   19.1611 H   0  0  0  0  0  0
  -29.1142  -16.7650   19.2079 H   0  0  0  0  0  0
  -28.1950  -25.1143   21.2102 H   0  0  0  0  0  0
  -27.7345  -24.8968   19.5277 H   0  0  0  0  0  0
  -30.0906  -25.3050   18.8244 H   0  0  0  0  0  0
  -29.1608  -18.2255   21.1304 H   0  0  0  0  0  0
  -28.9425  -15.2843   21.0088 H   0  0  0  0  0  0
  -31.0147  -23.3163   19.4801 H   0  0  0  0  0  0
  -31.3893  -19.2270   19.5478 H   0  0  0  0  0  0
  -30.0325  -18.7921   18.7938 H   0  0  0  0  0  0
  1 25  1  0  0  0
  1 30  2  0  0  0
  1 83  1  0  0  0
  2  3  1  0  0  0
  2 25  1  0  0  0
  2 86  1  0  0  0
  2 87  1  0  0  0
  3  4  1  0  0  0
  3 88  1  0  0  0
  3 89  1  0  0  0
  4  5  1  0  0  0
  4 90  1  0  0  0
  4 91  1  0  0  0
  5  6  1  0  0  0
  5 26  1  0  0  0
  5 92  1  0  0  0
  6 25  1  0  0  0
  6 93  1  0  0  0
  6 94  1  0  0  0
  7  8  2  0  0  0
  7 26  1  0  0  0
  7 29  1  0  0  0
  8  9  1  0  0  0
  8 22  1  0  0  0
  9 10  1  0  0  0
  9 27  2  0  0  0
 10 11  2  0  0  0
 10 15  1  0  0  0
 11 12  1  0  0  0
 11 95  1  0  0  0
 12 13  2  0  0  0
 12 96  1  0  0  0
 13 14  1  0  0  0
 13 31  1  0  0  0
 14 15  2  0  0  0
 14 97  1  0  0  0
 15 98  1  0  0  0
 16 17  2  0  0  0
 16 21  1  0  0  0
 16 31  1  0  0  0
 17 18  1  0  0  0
 17 99  1  0  0  0
 18 19  2  0  0  0
 18100  1  0  0  0
 19 20  1  0  0  0
 19 24  1  0  0  0
 20 21  2  0  0  0
 20101  1  0  0  0
 21 23  1  0  0  0
 22 28  1  0  0  0
 22 32  2  0  0  0
 26 27  1  0  0  0
 28102  1  0  0  0
 28103  1  0  0  0
 29104  1  0  0  0
 29105  1  0  0  0
 33 34  1  0  0  0
 33 66  1  0  0  0
 33 70  2  0  0  0
 34 36  1  0  0  0
 34 59  1  0  0  0
 34106  1  0  0  0
 35 44  2  0  0  0
 35 45  1  0  0  0
 35 68  1  0  0  0
 36 56  1  0  0  0
 36107  1  0  0  0
 37 39  1  0  0  0
 37 47  1  0  0  0
 37 66  1  0  0  0
 37108  1  0  0  0
 38 43  2  0  0  0
 38 46  1  0  0  0
 38 47  1  0  0  0
 39 64  1  0  0  0
 39 67  2  0  0  0
 40 52  1  0  0  0
 40 53  2  0  0  0
 40 58  1  0  0  0
 41109  1  0  0  0
 41110  1  0  0  0
 41111  1  0  0  0
 41 48  1  0  0  0
 42 43  1  0  0  0
 42 66  1  0  0  0
 42112  1  0  0  0
 42113  1  0  0  0
 43 44  1  0  0  0
 44114  1  0  0  0
 45 46  2  0  0  0
 45115  1  0  0  0
 46116  1  0  0  0
 47117  1  0  0  0
 47118  1  0  0  0
 48 56  1  0  0  0
 48 65  1  0  0  0
 48119  1  0  0  0
 49 50  1  0  0  0
 49 53  1  0  0  0
 49 64  1  0  0  0
 49120  1  0  0  0
 50 51  1  0  0  0
 50121  1  0  0  0
 50122  1  0  0  0
 51 52  1  0  0  0
 51123  1  0  0  0
 51124  1  0  0  0
 52125  1  0  0  0
 52126  1  0  0  0
 53 54  1  0  0  0
 54 55  2  0  0  0
 54127  1  0  0  0
 55 57  1  0  0  0
 55128  1  0  0  0
 56 69  2  0  0  0
 57 58  2  0  0  0
 57129  1  0  0  0
 58130  1  0  0  0
 59 60  1  0  0  0
 59 61  1  0  0  0
 59 62  1  0  0  0
 60131  1  0  0  0
 60132  1  0  0  0
 60133  1  0  0  0
 61134  1  0  0  0
 61135  1  0  0  0
 61136  1  0  0  0
 62137  1  0  0  0
 62138  1  0  0  0
 62139  1  0  0  0
 63 65  1  0  0  0
 63140  1  0  0  0
 63141  1  0  0  0
 63142  1  0  0  0
 64143  1  0  0  0
 65144  1  0  0  0
 68 80  1  0  0  0
 71 73  1  0  0  0
 71 74  1  0  0  0
 71145  1  0  0  0
 71146  1  0  0  0
 72 74  1  0  0  0
 72 75  1  0  0  0
 72147  1  0  0  0
 72148  1  0  0  0
 73149  1  0  0  0
 73150  1  0  0  0
 73 84  1  0  0  0
 74 85  1  0  0  0
 74151  1  0  0  0
 75 76  1  0  0  0
 75 84  1  0  0  0
 75152  1  0  0  0
 76153  1  0  0  0
 76154  1  0  0  0
 76155  1  0  0  0
 77156  1  0  0  0
 77157  1  0  0  0
 77158  1  0  0  0
 77 81  1  0  0  0
 78159  1  0  0  0
 78160  1  0  0  0
 78161  1  0  0  0
 78 82  1  0  0  0
 79 82  1  0  0  0
 79 83  1  0  0  0
 79162  1  0  0  0
 79163  1  0  0  0
 80 81  1  0  0  0
 80164  1  0  0  0
 80165  1  0  0  0
 81 84  1  0  0  0
 81166  1  0  0  0
 82 85  1  0  0  0
 82167  1  0  0  0
 83168  1  0  0  0
 84169  1  0  0  0
 85170  1  0  0  0
 85171  1  0  0  0
M  CHG  2  84   1  85   1
M  ISO  4   1 100  68 101  80 101  83 100
M  END
> <chiral flag>
0

> <version>
0

> <s_m_source_file>
/data/baiqing/PycharmProjects/Reinvent-master-3.2/result/LINK_invent/BTK/process_docking_weight1_custom_sum_contain_oxygen_bond_distance_aromatic_linkinvent_7_9_3/rearranged_h_0120.sdf

> <i_m_source_file_index>
87

> <r_mmod_Potential_Energy-OPLS-2005>
-250.702499389648

> <r_mmod_Stretch_Energy-OPLS-2005>
36.2235794067383

> <r_mmod_Bend_Energy-OPLS-2005>
112.837646484375

> <r_mmod_Torsional_Energy-OPLS-2005>
283.029205322266

> <r_mmod_Improper_Torsional_Energy-OPLS-2005>
11.3066263198853

> <r_mmod_Van_der_Waal_Energy-OPLS-2005>
145.503540039062

> <r_mmod_Electrostatic_Energy-OPLS-2005>
106.373191833496

> <r_mmod_Solvation_Energy-OPLS-2005>
-959.486572265625

> <b_mmod_Minimization_Converged-OPLS-2005>
0

> <r_mmod_RMS_Derivative-OPLS-2005>
1.72343742847443

$$$$
88
                    3D
 Structure written by MMmdl.
179188  0  0  1  0            999 V2000
  -30.7707  -14.3283   20.7259 C   0  0  0  0  0  0
  -30.4217  -12.2892   19.3745 C   0  0  0  0  0  0
  -29.4803  -12.5395   18.1821 C   0  0  0  0  0  0
  -28.0050  -12.3912   18.6004 C   0  0  0  0  0  0
  -27.6687  -13.1971   19.8811 C   0  0  2  0  0  0
  -28.7047  -12.9045   20.9869 C   0  0  0  0  0  0
  -25.2615  -13.8142   20.5665 C   0  0  0  0  0  0
  -24.1852  -13.0434   20.9157 C   0  0  0  0  0  0
  -24.6391  -11.6895   20.8716 C   0  0  0  0  0  0
  -23.9052  -10.4290   21.0394 C   0  0  0  0  0  0
  -24.3603   -9.4211   21.9181 C   0  0  0  0  0  0
  -23.6285   -8.2245   22.0752 C   0  0  0  0  0  0
  -22.4270   -8.0278   21.3543 C   0  0  0  0  0  0
  -21.9902   -9.0248   20.4643 C   0  0  0  0  0  0
  -22.7226  -10.2128   20.3043 C   0  0  0  0  0  0
  -21.6850   -6.0735   22.5279 C   0  0  0  0  0  0
  -21.4012   -6.5636   23.8216 C   0  0  0  0  0  0
  -21.3657   -5.6788   24.9177 C   0  0  0  0  0  0
  -21.6043   -4.3052   24.7225 C   0  0  0  0  0  0
  -21.8819   -3.8150   23.4344 C   0  0  0  0  0  0
  -21.9194   -4.6968   22.3402 C   0  0  0  0  0  0
  -22.7879  -13.5244   21.1828 C   0  0  0  0  0  0
  -22.1665   -4.2154   21.0979 F   0  0  0  0  0  0
  -21.5623   -3.4530   25.7735 F   0  0  0  0  0  0
  -30.0530  -13.2069   20.4605 N   0  0  0  0  0  0
  -26.3054  -12.9299   20.3375 N   0  0  0  0  0  0
  -25.9316  -11.6462   20.5745 N   0  0  0  0  0  0
  -22.0500  -12.8229   22.0361 N   0  0  0  0  0  0
  -25.4348  -15.1861   20.4083 N   0  0  0  0  0  0
  -31.7617  -14.6705   20.0716 O   0  0  0  0  0  0
  -21.6632   -6.8878   21.4242 O   0  0  0  0  0  0
  -22.3576  -14.5567   20.6703 O   0  0  0  0  0  0
  -24.6066  -31.8715   23.2126 C   0  0  0  0  0  0
  -25.8985  -32.4846   23.8415 C   0  0  1  0  0  0
  -27.2666  -27.4958   20.0944 C   0  0  0  0  0  0
  -25.5871  -33.8643   24.2351 N   0  0  0  0  0  0
  -23.3923  -30.4921   21.5506 C   0  0  2  0  0  0
  -24.8450  -28.9609   20.1198 C   0  0  0  0  0  0
  -22.7361  -29.4672   22.5016 C   0  0  0  0  0  0
  -18.0254  -28.1373   22.8488 C   0  0  0  0  0  0
  -24.1481  -36.7323   23.2638 C   0  0  0  0  0  0
  -25.9104  -30.8614   21.3508 C   0  0  0  0  0  0
  -25.9963  -29.4965   20.7058 C   0  0  0  0  0  0
  -27.2059  -28.7784   20.6913 C   0  0  0  0  0  0
  -26.0935  -26.9626   19.5188 C   0  0  0  0  0  0
  -24.8850  -27.6875   19.5242 C   0  0  0  0  0  0
  -23.5996  -29.8158   20.1672 C   0  0  0  0  0  0
  -25.4102  -36.3132   24.0343 C   0  0  1  0  0  0
  -20.5839  -28.3648   23.1350 C   0  0  2  0  0  0
  -20.6739  -26.9391   22.5443 C   0  0  0  0  0  0
  -19.5740  -26.6392   21.5214 C   0  0  0  0  0  0
  -18.1904  -26.7928   22.1599 C   0  0  0  0  0  0
  -19.1502  -28.8824   23.2919 C   0  0  0  0  0  0
  -18.9439  -30.1428   23.8929 C   0  0  0  0  0  0
  -17.6444  -30.6580   24.0569 C   0  0  0  0  0  0
  -25.9025  -34.9493   23.5146 C   0  0  0  0  0  0
  -16.5335  -29.9087   23.6323 C   0  0  0  0  0  0
  -16.7246  -28.6503   23.0341 C   0  0  0  0  0  0
  -26.4453  -31.6602   25.0712 C   0  0  0  0  0  0
  -25.3746  -31.3669   26.1475 C   0  0  0  0  0  0
  -27.0290  -30.3062   24.6029 C   0  0  0  0  0  0
  -27.6045  -32.4306   25.7470 C   0  0  0  0  0  0
  -27.5586  -37.1819   24.8452 C   0  0  0  0  0  0
  -21.4098  -29.3019   22.3756 N   0  0  0  0  0  0
  -26.4289  -37.3818   23.9411 N   0  0  0  0  0  0
  -24.6545  -31.0875   22.0985 N   0  0  0  0  0  0
  -23.4164  -28.8224   23.3042 O   0  0  0  0  0  0
  -28.3978  -26.7102   20.0376 O   0  0  0  0  0  0
  -26.5589  -34.8935   22.4708 O   0  0  0  0  0  0
  -23.5279  -32.1426   23.7565 O   0  0  0  0  0  0
  -29.6881  -16.9422   23.0412 C   0  0  0  0  0  0
  -31.9515  -16.8574   22.1443 C   0  0  0  0  0  0
  -29.9392  -18.2228   23.5633 C   0  0  0  0  0  0
  -32.2027  -18.1375   22.6762 C   0  0  0  0  0  0
  -30.6807  -16.2614   22.3091 C   0  0  0  0  0  0
  -31.1976  -18.8411   23.3681 C   0  0  0  0  0  0
  -28.8156  -23.5356   23.1412 C   0  0  0  0  0  0
  -29.4610  -24.0771   21.8535 C   0  0  0  0  0  0
  -31.0079  -25.4584   23.2103 C   0  0  0  0  0  0
  -29.8186  -23.4898   24.3166 C   0  0  2  0  0  0
  -30.3689  -24.9261   24.5186 C   0  0  1  0  0  0
  -32.3279  -26.5711   27.5231 C   0  0  0  0  0  0
  -30.9270  -22.4162   24.1451 C   0  0  0  0  0  0
  -31.2972  -25.0489   25.7485 C   0  0  0  0  0  0
  -31.4771  -26.4931   26.2502 C   0  0  0  0  0  0
  -30.5517  -26.0598   20.8367 C   0  0  0  0  0  0
  -30.4064  -20.9750   24.0804 C   0  0  0  0  0  0
  -29.6571  -27.2415   20.4517 C   0  0  0  0  0  0
  -30.3428  -14.9780   21.8183 N   0  0  0  0  0  0
  -30.0416  -25.4243   22.0805 N   0  3  1  0  0  0
  -31.5013  -20.1055   23.8192 O   0  0  0  0  0  0
  -31.4612  -12.4092   19.0640 H   0  0  0  0  0  0
  -30.3343  -11.2580   19.7191 H   0  0  0  0  0  0
  -29.7084  -11.8488   17.3693 H   0  0  0  0  0  0
  -29.6496  -13.5424   17.7870 H   0  0  0  0  0  0
  -27.8056  -11.3318   18.7654 H   0  0  0  0  0  0
  -27.3510  -12.6992   17.7836 H   0  0  0  0  0  0
  -27.7370  -14.2560   19.6300 H   0  0  0  0  0  0
  -28.6645  -11.8509   21.2666 H   0  0  0  0  0  0
  -28.4381  -13.4460   21.8945 H   0  0  0  0  0  0
  -25.2747   -9.5692   22.4756 H   0  0  0  0  0  0
  -23.9997   -7.4633   22.7468 H   0  0  0  0  0  0
  -21.0836   -8.8761   19.8950 H   0  0  0  0  0  0
  -22.3689  -10.9656   19.6138 H   0  0  0  0  0  0
  -21.2002   -7.6145   23.9721 H   0  0  0  0  0  0
  -21.1474   -6.0515   25.9080 H   0  0  0  0  0  0
  -22.0599   -2.7612   23.2837 H   0  0  0  0  0  0
  -22.4087  -11.9858   22.4707 H   0  0  0  0  0  0
  -21.1122  -13.1263   22.2561 H   0  0  0  0  0  0
  -24.6701  -15.8438   20.5172 H   0  0  0  0  0  0
  -26.2959  -15.6246   20.1057 H   0  0  0  0  0  0
  -26.7062  -32.5609   23.1200 H   0  0  0  0  0  0
  -25.0022  -33.9818   25.0494 H   0  0  0  0  0  0
  -22.6785  -31.3064   21.4100 H   0  0  0  0  0  0
  -23.3759  -35.9643   23.3295 H   0  0  0  0  0  0
  -24.3582  -36.8941   22.2056 H   0  0  0  0  0  0
  -23.7209  -37.6516   23.6651 H   0  0  0  0  0  0
  -26.0045  -31.6273   20.5793 H   0  0  0  0  0  0
  -26.8029  -30.9276   21.9608 H   0  0  0  0  0  0
  -28.0658  -29.2487   21.1408 H   0  0  0  0  0  0
  -26.1205  -25.9845   19.0592 H   0  0  0  0  0  0
  -23.9992  -27.2620   19.0731 H   0  0  0  0  0  0
  -23.6982  -30.5853   19.4009 H   0  0  0  0  0  0
  -22.7290  -29.2240   19.8789 H   0  0  0  0  0  0
  -25.1274  -36.2010   25.0835 H   0  0  0  0  0  0
  -20.9933  -28.3214   24.1470 H   0  0  0  0  0  0
  -20.5632  -26.2256   23.3622 H   0  0  0  0  0  0
  -21.6620  -26.7435   22.1260 H   0  0  0  0  0  0
  -19.6911  -25.6315   21.1220 H   0  0  0  0  0  0
  -19.6702  -27.3223   20.6765 H   0  0  0  0  0  0
  -17.4201  -26.6711   21.3969 H   0  0  0  0  0  0
  -18.0271  -26.0052   22.8968 H   0  0  0  0  0  0
  -19.7920  -30.7219   24.2325 H   0  0  0  0  0  0
  -17.5010  -31.6265   24.5166 H   0  0  0  0  0  0
  -15.5339  -30.2997   23.7639 H   0  0  0  0  0  0
  -15.8645  -28.0838   22.7034 H   0  0  0  0  0  0
  -24.5944  -30.6980   25.7821 H   0  0  0  0  0  0
  -24.8898  -32.2806   26.4928 H   0  0  0  0  0  0
  -25.8129  -30.8858   27.0229 H   0  0  0  0  0  0
  -26.2817  -29.6833   24.1096 H   0  0  0  0  0  0
  -27.4107  -29.7275   25.4452 H   0  0  0  0  0  0
  -27.8626  -30.4414   23.9130 H   0  0  0  0  0  0
  -27.2679  -33.3594   26.2086 H   0  0  0  0  0  0
  -28.3836  -32.6881   25.0283 H   0  0  0  0  0  0
  -28.0739  -31.8405   26.5351 H   0  0  0  0  0  0
  -28.2596  -38.0126   24.7522 H   0  0  0  0  0  0
  -28.1082  -36.2658   24.6232 H   0  0  0  0  0  0
  -27.2316  -37.1424   25.8858 H   0  0  0  0  0  0
  -20.9242  -29.8733   21.6980 H   0  0  0  0  0  0
  -26.0181  -38.2897   24.1424 H   0  0  0  0  0  0
  -28.7166  -16.4939   23.1987 H   0  0  0  0  0  0
  -32.7467  -16.3494   21.6188 H   0  0  0  0  0  0
  -29.1463  -18.7112   24.1108 H   0  0  0  0  0  0
  -33.1739  -18.5902   22.5356 H   0  0  0  0  0  0
  -28.3648  -22.5626   22.9530 H   0  0  0  0  0  0
  -27.9765  -24.1782   23.4125 H   0  0  0  0  0  0
  -28.7049  -24.1332   21.0691 H   0  0  0  0  0  0
  -30.2305  -23.3938   21.4912 H   0  0  0  0  0  0
  -31.9000  -24.8856   22.9531 H   0  0  0  0  0  0
  -31.3373  -26.4880   23.3522 H   0  0  0  0  0  0
  -29.2548  -23.2235   25.2124 H   0  0  0  0  0  0
  -29.5043  -25.5572   24.7331 H   0  0  0  0  0  0
  -32.4308  -27.6037   27.8586 H   0  0  0  0  0  0
  -33.3310  -26.1775   27.3552 H   0  0  0  0  0  0
  -31.8764  -26.0027   28.3374 H   0  0  0  0  0  0
  -31.6254  -22.4687   24.9800 H   0  0  0  0  0  0
  -31.5207  -22.6140   23.2532 H   0  0  0  0  0  0
  -32.2738  -24.6139   25.5308 H   0  0  0  0  0  0
  -30.8780  -24.4572   26.5639 H   0  0  0  0  0  0
  -31.9432  -27.1074   25.4796 H   0  0  0  0  0  0
  -30.5012  -26.9388   26.4500 H   0  0  0  0  0  0
  -31.5690  -26.4252   20.9853 H   0  0  0  0  0  0
  -30.6102  -25.3449   20.0146 H   0  0  0  0  0  0
  -29.6755  -20.8795   23.2777 H   0  0  0  0  0  0
  -29.9190  -20.7059   25.0189 H   0  0  0  0  0  0
  -30.0972  -27.8077   19.6300 H   0  0  0  0  0  0
  -29.6015  -27.9005   21.3167 H   0  0  0  0  0  0
  -29.5360  -14.5480   22.2434 H   0  0  0  0  0  0
  -29.2637  -26.0007   22.3685 H   0  0  0  0  0  0
  1 25  1  0  0  0
  1 30  2  0  0  0
  1 89  1  0  0  0
  2  3  1  0  0  0
  2 25  1  0  0  0
  2 92  1  0  0  0
  2 93  1  0  0  0
  3  4  1  0  0  0
  3 94  1  0  0  0
  3 95  1  0  0  0
  4  5  1  0  0  0
  4 96  1  0  0  0
  4 97  1  0  0  0
  5  6  1  0  0  0
  5 26  1  0  0  0
  5 98  1  0  0  0
  6 25  1  0  0  0
  6 99  1  0  0  0
  6100  1  0  0  0
  7  8  2  0  0  0
  7 26  1  0  0  0
  7 29  1  0  0  0
  8  9  1  0  0  0
  8 22  1  0  0  0
  9 10  1  0  0  0
  9 27  2  0  0  0
 10 11  2  0  0  0
 10 15  1  0  0  0
 11 12  1  0  0  0
 11101  1  0  0  0
 12 13  2  0  0  0
 12102  1  0  0  0
 13 14  1  0  0  0
 13 31  1  0  0  0
 14 15  2  0  0  0
 14103  1  0  0  0
 15104  1  0  0  0
 16 17  2  0  0  0
 16 21  1  0  0  0
 16 31  1  0  0  0
 17 18  1  0  0  0
 17105  1  0  0  0
 18 19  2  0  0  0
 18106  1  0  0  0
 19 20  1  0  0  0
 19 24  1  0  0  0
 20 21  2  0  0  0
 20107  1  0  0  0
 21 23  1  0  0  0
 22 28  1  0  0  0
 22 32  2  0  0  0
 26 27  1  0  0  0
 28108  1  0  0  0
 28109  1  0  0  0
 29110  1  0  0  0
 29111  1  0  0  0
 33 34  1  0  0  0
 33 66  1  0  0  0
 33 70  2  0  0  0
 34 36  1  0  0  0
 34 59  1  0  0  0
 34112  1  0  0  0
 35 44  2  0  0  0
 35 45  1  0  0  0
 35 68  1  0  0  0
 36 56  1  0  0  0
 36113  1  0  0  0
 37 39  1  0  0  0
 37 47  1  0  0  0
 37 66  1  0  0  0
 37114  1  0  0  0
 38 43  2  0  0  0
 38 46  1  0  0  0
 38 47  1  0  0  0
 39 64  1  0  0  0
 39 67  2  0  0  0
 40 52  1  0  0  0
 40 53  2  0  0  0
 40 58  1  0  0  0
 41115  1  0  0  0
 41116  1  0  0  0
 41117  1  0  0  0
 41 48  1  0  0  0
 42 43  1  0  0  0
 42 66  1  0  0  0
 42118  1  0  0  0
 42119  1  0  0  0
 43 44  1  0  0  0
 44120  1  0  0  0
 45 46  2  0  0  0
 45121  1  0  0  0
 46122  1  0  0  0
 47123  1  0  0  0
 47124  1  0  0  0
 48 56  1  0  0  0
 48 65  1  0  0  0
 48125  1  0  0  0
 49 50  1  0  0  0
 49 53  1  0  0  0
 49 64  1  0  0  0
 49126  1  0  0  0
 50 51  1  0  0  0
 50127  1  0  0  0
 50128  1  0  0  0
 51 52  1  0  0  0
 51129  1  0  0  0
 51130  1  0  0  0
 52131  1  0  0  0
 52132  1  0  0  0
 53 54  1  0  0  0
 54 55  2  0  0  0
 54133  1  0  0  0
 55 57  1  0  0  0
 55134  1  0  0  0
 56 69  2  0  0  0
 57 58  2  0  0  0
 57135  1  0  0  0
 58136  1  0  0  0
 59 60  1  0  0  0
 59 61  1  0  0  0
 59 62  1  0  0  0
 60137  1  0  0  0
 60138  1  0  0  0
 60139  1  0  0  0
 61140  1  0  0  0
 61141  1  0  0  0
 61142  1  0  0  0
 62143  1  0  0  0
 62144  1  0  0  0
 62145  1  0  0  0
 63 65  1  0  0  0
 63146  1  0  0  0
 63147  1  0  0  0
 63148  1  0  0  0
 64149  1  0  0  0
 65150  1  0  0  0
 68 88  1  0  0  0
 71 73  2  0  0  0
 71 75  1  0  0  0
 71151  1  0  0  0
 72 74  1  0  0  0
 72 75  2  0  0  0
 72152  1  0  0  0
 73 76  1  0  0  0
 73153  1  0  0  0
 74 76  2  0  0  0
 74154  1  0  0  0
 75 89  1  0  0  0
 76 91  1  0  0  0
 77 78  1  0  0  0
 77 80  1  0  0  0
 77155  1  0  0  0
 77156  1  0  0  0
 78 90  1  0  0  0
 78157  1  0  0  0
 78158  1  0  0  0
 79 81  1  0  0  0
 79 90  1  0  0  0
 79159  1  0  0  0
 79160  1  0  0  0
 80 81  1  0  0  0
 80 83  1  0  0  0
 80161  1  0  0  0
 81 84  1  0  0  0
 81162  1  0  0  0
 82 85  1  0  0  0
 82163  1  0  0  0
 82164  1  0  0  0
 82165  1  0  0  0
 83 87  1  0  0  0
 83166  1  0  0  0
 83167  1  0  0  0
 84 85  1  0  0  0
 84168  1  0  0  0
 84169  1  0  0  0
 85170  1  0  0  0
 85171  1  0  0  0
 86 88  1  0  0  0
 86172  1  0  0  0
 86173  1  0  0  0
 86 90  1  0  0  0
 87 91  1  0  0  0
 87174  1  0  0  0
 87175  1  0  0  0
 88176  1  0  0  0
 88177  1  0  0  0
 89178  1  0  0  0
 90179  1  0  0  0
M  CHG  1  90   1
M  ISO  4   1 100  68 101  88 101  89 100
M  END
> <chiral flag>
0

> <version>
0

> <s_m_source_file>
/data/baiqing/PycharmProjects/Reinvent-master-3.2/result/LINK_invent/BTK/process_docking_weight1_custom_sum_contain_oxygen_bond_distance_aromatic_linkinvent_7_9_3/rearranged_h_0120.sdf

> <i_m_source_file_index>
88

> <r_mmod_Potential_Energy-OPLS-2005>
-66.7539443969727

> <r_mmod_Stretch_Energy-OPLS-2005>
35.060661315918

> <r_mmod_Bend_Energy-OPLS-2005>
117.89803314209

> <r_mmod_Torsional_Energy-OPLS-2005>
266.068664550781

> <r_mmod_Improper_Torsional_Energy-OPLS-2005>
2.49085545539856

> <r_mmod_Van_der_Waal_Energy-OPLS-2005>
171.889175415039

> <r_mmod_Electrostatic_Energy-OPLS-2005>
-259.5888671875

> <r_mmod_Solvation_Energy-OPLS-2005>
-406.753509521484

> <b_mmod_Minimization_Converged-OPLS-2005>
0

> <r_mmod_RMS_Derivative-OPLS-2005>
0.894058346748352

$$$$
89
                    3D
 Structure written by MMmdl.
166174  0  0  1  0            999 V2000
  -30.6972  -14.4524   20.5527 C   0  0  0  0  0  0
  -30.4255  -12.2824   19.4191 C   0  0  0  0  0  0
  -29.4966  -12.4953   18.2057 C   0  0  0  0  0  0
  -28.0161  -12.3669   18.6176 C   0  0  0  0  0  0
  -27.6678  -13.2011   19.8796 C   0  0  2  0  0  0
  -28.7108  -12.9696   20.9987 C   0  0  0  0  0  0
  -25.2617  -13.8160   20.5668 C   0  0  0  0  0  0
  -24.1850  -13.0439   20.9164 C   0  0  0  0  0  0
  -24.6394  -11.6905   20.8731 C   0  0  0  0  0  0
  -23.9064  -10.4287   21.0399 C   0  0  0  0  0  0
  -24.3614   -9.4209   21.9181 C   0  0  0  0  0  0
  -23.6283   -8.2243   22.0759 C   0  0  0  0  0  0
  -22.4269   -8.0275   21.3543 C   0  0  0  0  0  0
  -21.9909   -9.0251   20.4645 C   0  0  0  0  0  0
  -22.7236  -10.2135   20.3050 C   0  0  0  0  0  0
  -21.6865   -6.0737   22.5272 C   0  0  0  0  0  0
  -21.4009   -6.5632   23.8206 C   0  0  0  0  0  0
  -21.3656   -5.6786   24.9173 C   0  0  0  0  0  0
  -21.6053   -4.3055   24.7227 C   0  0  0  0  0  0
  -21.8815   -3.8150   23.4346 C   0  0  0  0  0  0
  -21.9184   -4.6960   22.3399 C   0  0  0  0  0  0
  -22.7876  -13.5236   21.1815 C   0  0  0  0  0  0
  -22.1657   -4.2143   21.0982 F   0  0  0  0  0  0
  -21.5632   -3.4534   25.7747 F   0  0  0  0  0  0
  -30.0455  -13.2643   20.4473 N   0  0  0  0  0  0
  -26.3064  -12.9311   20.3398 N   0  0  0  0  0  0
  -25.9320  -11.6487   20.5786 N   0  0  0  0  0  0
  -22.0509  -12.8239   22.0378 N   0  0  0  0  0  0
  -25.4343  -15.1871   20.4060 N   0  0  0  0  0  0
  -31.8148  -14.6568   20.0721 O   0  0  0  0  0  0
  -21.6633   -6.8881   21.4239 O   0  0  0  0  0  0
  -22.3568  -14.5526   20.6652 O   0  0  0  0  0  0
  -24.6100  -31.8681   23.2142 C   0  0  0  0  0  0
  -25.8998  -32.4860   23.8424 C   0  0  1  0  0  0
  -27.2416  -27.4531   20.0913 C   0  0  0  0  0  0
  -25.5825  -33.8657   24.2307 N   0  0  0  0  0  0
  -23.4037  -30.4913   21.5500 C   0  0  2  0  0  0
  -24.8547  -28.9599   20.1199 C   0  0  0  0  0  0
  -22.7426  -29.4622   22.4958 C   0  0  0  0  0  0
  -18.0257  -28.1397   22.8458 C   0  0  0  0  0  0
  -24.1481  -36.7345   23.2644 C   0  0  0  0  0  0
  -25.9324  -30.8400   21.3663 C   0  0  0  0  0  0
  -26.0132  -29.4714   20.7221 C   0  0  0  0  0  0
  -27.2117  -28.7233   20.7096 C   0  0  0  0  0  0
  -26.0731  -26.9515   19.4835 C   0  0  0  0  0  0
  -24.8773  -27.6951   19.5041 C   0  0  0  0  0  0
  -23.6188  -29.8284   20.1639 C   0  0  0  0  0  0
  -25.4106  -36.3125   24.0324 C   0  0  1  0  0  0
  -20.5850  -28.3658   23.1303 C   0  0  2  0  0  0
  -20.6776  -26.9401   22.5401 C   0  0  0  0  0  0
  -19.5751  -26.6388   21.5199 C   0  0  0  0  0  0
  -18.1908  -26.7946   22.1599 C   0  0  0  0  0  0
  -19.1506  -28.8840   23.2878 C   0  0  0  0  0  0
  -18.9440  -30.1435   23.8895 C   0  0  0  0  0  0
  -17.6456  -30.6589   24.0552 C   0  0  0  0  0  0
  -25.9005  -34.9496   23.5104 C   0  0  0  0  0  0
  -16.5329  -29.9113   23.6321 C   0  0  0  0  0  0
  -16.7251  -28.6543   23.0330 C   0  0  0  0  0  0
  -26.4432  -31.6680   25.0770 C   0  0  0  0  0  0
  -25.3687  -31.3799   26.1519 C   0  0  0  0  0  0
  -27.0301  -30.3136   24.6144 C   0  0  0  0  0  0
  -27.5995  -32.4442   25.7527 C   0  0  0  0  0  0
  -27.5585  -37.1838   24.8451 C   0  0  0  0  0  0
  -21.4146  -29.3044   22.3739 N   0  0  0  0  0  0
  -26.4307  -37.3793   23.9391 N   0  0  0  0  0  0
  -24.6677  -31.0794   22.1047 N   0  0  0  0  0  0
  -23.4198  -28.8104   23.2966 O   0  0  0  0  0  0
  -28.4022  -26.7249   20.0043 O   0  0  0  0  0  0
  -26.5624  -34.8935   22.4703 O   0  0  0  0  0  0
  -23.5293  -32.1430   23.7520 O   0  0  0  0  0  0
  -28.2978  -21.2841   21.3836 C   0  0  0  0  0  0
  -28.4446  -19.8807   21.3543 C   0  0  0  0  0  0
  -30.6038  -21.5001   22.0996 C   0  0  0  0  0  0
  -30.7531  -20.0927   22.1190 C   0  0  0  0  0  0
  -29.3675  -22.1039   21.7943 C   0  0  0  0  0  0
  -29.6503  -19.2654   21.7670 C   0  0  0  0  0  0
  -32.0637  -19.5145   22.5829 C   0  0  0  0  0  0
  -30.3812  -19.4525   25.3766 C   0  0  0  0  0  0
  -29.1725  -23.5997   22.0376 C   0  0  0  0  0  0
  -29.6549  -17.7436   21.9810 C   0  0  0  0  0  0
  -28.7971  -24.4495   20.8087 C   0  0  0  0  0  0
  -31.6125  -20.2690   24.9537 C   0  0  0  0  0  0
  -30.1750  -16.8912   20.8042 C   0  0  0  0  0  0
  -28.7359  -25.9532   21.1557 C   0  0  0  0  0  0
  -32.3800  -19.6341   23.8812 N   0  0  0  0  0  0
  -29.9536  -15.4573   21.0429 N   0  0  0  0  0  0
  -32.8108  -18.9424   21.7890 O   0  0  0  0  0  0
  -31.4706  -12.3749   19.1179 H   0  0  0  0  0  0
  -30.3213  -11.2682   19.8099 H   0  0  0  0  0  0
  -29.7275  -11.7695   17.4251 H   0  0  0  0  0  0
  -29.6766  -13.4816   17.7740 H   0  0  0  0  0  0
  -27.8148  -11.3116   18.8063 H   0  0  0  0  0  0
  -27.3703  -12.6556   17.7875 H   0  0  0  0  0  0
  -27.7149  -14.2496   19.5863 H   0  0  0  0  0  0
  -28.6823  -11.9340   21.3388 H   0  0  0  0  0  0
  -28.4804  -13.5672   21.8818 H   0  0  0  0  0  0
  -25.2758   -9.5685   22.4755 H   0  0  0  0  0  0
  -23.9988   -7.4647   22.7483 H   0  0  0  0  0  0
  -21.0843   -8.8762   19.8955 H   0  0  0  0  0  0
  -22.3682  -10.9668   19.6153 H   0  0  0  0  0  0
  -21.2000   -7.6135   23.9710 H   0  0  0  0  0  0
  -21.1484   -6.0523   25.9082 H   0  0  0  0  0  0
  -22.0599   -2.7608   23.2851 H   0  0  0  0  0  0
  -22.4101  -11.9897   22.4761 H   0  0  0  0  0  0
  -21.1122  -13.1271   22.2553 H   0  0  0  0  0  0
  -24.6696  -15.8449   20.5144 H   0  0  0  0  0  0
  -26.2867  -15.6260   20.0793 H   0  0  0  0  0  0
  -26.7104  -32.5605   23.1235 H   0  0  0  0  0  0
  -24.9928  -33.9822   25.0405 H   0  0  0  0  0  0
  -22.6871  -31.3026   21.4088 H   0  0  0  0  0  0
  -23.3711  -35.9711   23.3319 H   0  0  0  0  0  0
  -24.3537  -36.8964   22.2052 H   0  0  0  0  0  0
  -23.7270  -37.6559   23.6675 H   0  0  0  0  0  0
  -26.0329  -31.6045   20.5929 H   0  0  0  0  0  0
  -26.8261  -30.9032   21.9760 H   0  0  0  0  0  0
  -28.1134  -29.1180   21.1594 H   0  0  0  0  0  0
  -26.0894  -25.9922   18.9830 H   0  0  0  0  0  0
  -23.9909  -27.2953   19.0318 H   0  0  0  0  0  0
  -23.7317  -30.6057   19.4073 H   0  0  0  0  0  0
  -22.7442  -29.2497   19.8581 H   0  0  0  0  0  0
  -25.1274  -36.2023   25.0818 H   0  0  0  0  0  0
  -20.9907  -28.3268   24.1436 H   0  0  0  0  0  0
  -20.5679  -26.2272   23.3601 H   0  0  0  0  0  0
  -21.6652  -26.7480   22.1170 H   0  0  0  0  0  0
  -19.6910  -25.6292   21.1249 H   0  0  0  0  0  0
  -19.6723  -27.3198   20.6733 H   0  0  0  0  0  0
  -17.4196  -26.6661   21.3994 H   0  0  0  0  0  0
  -18.0289  -26.0097   22.9001 H   0  0  0  0  0  0
  -19.7915  -30.7217   24.2309 H   0  0  0  0  0  0
  -17.5020  -31.6271   24.5153 H   0  0  0  0  0  0
  -15.5333  -30.3021   23.7652 H   0  0  0  0  0  0
  -15.8646  -28.0870   22.7046 H   0  0  0  0  0  0
  -24.5815  -30.7195   25.7840 H   0  0  0  0  0  0
  -24.8922  -32.2981   26.4985 H   0  0  0  0  0  0
  -25.8010  -30.8940   27.0277 H   0  0  0  0  0  0
  -26.2876  -29.6864   24.1206 H   0  0  0  0  0  0
  -27.4080  -29.7391   25.4605 H   0  0  0  0  0  0
  -27.8658  -30.4433   23.9265 H   0  0  0  0  0  0
  -27.2576  -33.3728   26.2108 H   0  0  0  0  0  0
  -28.3786  -32.7074   25.0359 H   0  0  0  0  0  0
  -28.0693  -31.8606   26.5451 H   0  0  0  0  0  0
  -28.2599  -38.0149   24.7487 H   0  0  0  0  0  0
  -28.1083  -36.2677   24.6275 H   0  0  0  0  0  0
  -27.2283  -37.1442   25.8849 H   0  0  0  0  0  0
  -20.9315  -29.8852   21.7019 H   0  0  0  0  0  0
  -26.0184  -38.2848   24.1458 H   0  0  0  0  0  0
  -27.3419  -21.7227   21.1402 H   0  0  0  0  0  0
  -27.5918  -19.2711   21.0835 H   0  0  0  0  0  0
  -31.4309  -22.1186   22.4135 H   0  0  0  0  0  0
  -29.8902  -19.9212   26.2311 H   0  0  0  0  0  0
  -30.6461  -18.4319   25.6569 H   0  0  0  0  0  0
  -29.6427  -19.3946   24.5761 H   0  0  0  0  0  0
  -30.0803  -24.0048   22.4852 H   0  0  0  0  0  0
  -28.4032  -23.7132   22.8025 H   0  0  0  0  0  0
  -28.6328  -17.4438   22.2163 H   0  0  0  0  0  0
  -30.2210  -17.5017   22.8813 H   0  0  0  0  0  0
  -27.8357  -24.1266   20.4080 H   0  0  0  0  0  0
  -29.5345  -24.2993   20.0186 H   0  0  0  0  0  0
  -32.2752  -20.3844   25.8119 H   0  0  0  0  0  0
  -31.3150  -21.2791   24.6742 H   0  0  0  0  0  0
  -31.2285  -17.1004   20.6209 H   0  0  0  0  0  0
  -29.6428  -17.1645   19.8925 H   0  0  0  0  0  0
  -29.7120  -26.2899   21.5075 H   0  0  0  0  0  0
  -28.0408  -26.1265   21.9791 H   0  0  0  0  0  0
  -33.2723  -19.2449   24.1518 H   0  0  0  0  0  0
  -29.0573  -15.1873   21.4199 H   0  0  0  0  0  0
  1 25  1  0  0  0
  1 30  2  0  0  0
  1 86  1  0  0  0
  2  3  1  0  0  0
  2 25  1  0  0  0
  2 88  1  0  0  0
  2 89  1  0  0  0
  3  4  1  0  0  0
  3 90  1  0  0  0
  3 91  1  0  0  0
  4  5  1  0  0  0
  4 92  1  0  0  0
  4 93  1  0  0  0
  5  6  1  0  0  0
  5 26  1  0  0  0
  5 94  1  0  0  0
  6 25  1  0  0  0
  6 95  1  0  0  0
  6 96  1  0  0  0
  7  8  2  0  0  0
  7 26  1  0  0  0
  7 29  1  0  0  0
  8  9  1  0  0  0
  8 22  1  0  0  0
  9 10  1  0  0  0
  9 27  2  0  0  0
 10 11  2  0  0  0
 10 15  1  0  0  0
 11 12  1  0  0  0
 11 97  1  0  0  0
 12 13  2  0  0  0
 12 98  1  0  0  0
 13 14  1  0  0  0
 13 31  1  0  0  0
 14 15  2  0  0  0
 14 99  1  0  0  0
 15100  1  0  0  0
 16 17  2  0  0  0
 16 21  1  0  0  0
 16 31  1  0  0  0
 17 18  1  0  0  0
 17101  1  0  0  0
 18 19  2  0  0  0
 18102  1  0  0  0
 19 20  1  0  0  0
 19 24  1  0  0  0
 20 21  2  0  0  0
 20103  1  0  0  0
 21 23  1  0  0  0
 22 28  1  0  0  0
 22 32  2  0  0  0
 26 27  1  0  0  0
 28104  1  0  0  0
 28105  1  0  0  0
 29106  1  0  0  0
 29107  1  0  0  0
 33 34  1  0  0  0
 33 66  1  0  0  0
 33 70  2  0  0  0
 34 36  1  0  0  0
 34 59  1  0  0  0
 34108  1  0  0  0
 35 44  2  0  0  0
 35 45  1  0  0  0
 35 68  1  0  0  0
 36 56  1  0  0  0
 36109  1  0  0  0
 37 39  1  0  0  0
 37 47  1  0  0  0
 37 66  1  0  0  0
 37110  1  0  0  0
 38 43  2  0  0  0
 38 46  1  0  0  0
 38 47  1  0  0  0
 39 64  1  0  0  0
 39 67  2  0  0  0
 40 52  1  0  0  0
 40 53  2  0  0  0
 40 58  1  0  0  0
 41111  1  0  0  0
 41112  1  0  0  0
 41113  1  0  0  0
 41 48  1  0  0  0
 42 43  1  0  0  0
 42 66  1  0  0  0
 42114  1  0  0  0
 42115  1  0  0  0
 43 44  1  0  0  0
 44116  1  0  0  0
 45 46  2  0  0  0
 45117  1  0  0  0
 46118  1  0  0  0
 47119  1  0  0  0
 47120  1  0  0  0
 48 56  1  0  0  0
 48 65  1  0  0  0
 48121  1  0  0  0
 49 50  1  0  0  0
 49 53  1  0  0  0
 49 64  1  0  0  0
 49122  1  0  0  0
 50 51  1  0  0  0
 50123  1  0  0  0
 50124  1  0  0  0
 51 52  1  0  0  0
 51125  1  0  0  0
 51126  1  0  0  0
 52127  1  0  0  0
 52128  1  0  0  0
 53 54  1  0  0  0
 54 55  2  0  0  0
 54129  1  0  0  0
 55 57  1  0  0  0
 55130  1  0  0  0
 56 69  2  0  0  0
 57 58  2  0  0  0
 57131  1  0  0  0
 58132  1  0  0  0
 59 60  1  0  0  0
 59 61  1  0  0  0
 59 62  1  0  0  0
 60133  1  0  0  0
 60134  1  0  0  0
 60135  1  0  0  0
 61136  1  0  0  0
 61137  1  0  0  0
 61138  1  0  0  0
 62139  1  0  0  0
 62140  1  0  0  0
 62141  1  0  0  0
 63 65  1  0  0  0
 63142  1  0  0  0
 63143  1  0  0  0
 63144  1  0  0  0
 64145  1  0  0  0
 65146  1  0  0  0
 68 84  1  0  0  0
 71 72  2  0  0  0
 71 75  1  0  0  0
 71147  1  0  0  0
 72 76  1  0  0  0
 72148  1  0  0  0
 73 74  1  0  0  0
 73 75  2  0  0  0
 73149  1  0  0  0
 74 76  2  0  0  0
 74 77  1  0  0  0
 75 79  1  0  0  0
 76 80  1  0  0  0
 77 85  1  0  0  0
 77 87  2  0  0  0
 78 82  1  0  0  0
 78150  1  0  0  0
 78151  1  0  0  0
 78152  1  0  0  0
 79 81  1  0  0  0
 79153  1  0  0  0
 79154  1  0  0  0
 80 83  1  0  0  0
 80155  1  0  0  0
 80156  1  0  0  0
 81 84  1  0  0  0
 81157  1  0  0  0
 81158  1  0  0  0
 82 85  1  0  0  0
 82159  1  0  0  0
 82160  1  0  0  0
 83 86  1  0  0  0
 83161  1  0  0  0
 83162  1  0  0  0
 84163  1  0  0  0
 84164  1  0  0  0
 85165  1  0  0  0
 86166  1  0  0  0
M  ISO  4   1 100  68 101  84 101  86 100
M  END
> <chiral flag>
0

> <version>
0

> <s_m_source_file>
/data/baiqing/PycharmProjects/Reinvent-master-3.2/result/LINK_invent/BTK/process_docking_weight1_custom_sum_contain_oxygen_bond_distance_aromatic_linkinvent_7_9_3/rearranged_h_0120.sdf

> <i_m_source_file_index>
89

> <r_mmod_Potential_Energy-OPLS-2005>
-85.4627151489258

> <r_mmod_Stretch_Energy-OPLS-2005>
35.8185501098633

> <r_mmod_Bend_Energy-OPLS-2005>
95.338249206543

> <r_mmod_Torsional_Energy-OPLS-2005>
270.166076660156

> <r_mmod_Improper_Torsional_Energy-OPLS-2005>
6.45769071578979

> <r_mmod_Van_der_Waal_Energy-OPLS-2005>
143.035385131836

> <r_mmod_Electrostatic_Energy-OPLS-2005>
-403.991363525391

> <r_mmod_Solvation_Energy-OPLS-2005>
-242.346008300781

> <b_mmod_Minimization_Converged-OPLS-2005>
0

> <r_mmod_RMS_Derivative-OPLS-2005>
4.07460737228394

$$$$
90
                    3D
 Structure written by MMmdl.
167176  0  0  1  0            999 V2000
  -30.7845  -14.3381   20.6793 C   0  0  0  0  0  0
  -30.4116  -12.2734   19.3939 C   0  0  0  0  0  0
  -29.4839  -12.5314   18.1932 C   0  0  0  0  0  0
  -28.0056  -12.3973   18.6025 C   0  0  0  0  0  0
  -27.6666  -13.2035   19.8843 C   0  0  2  0  0  0
  -28.7052  -12.9374   20.9971 C   0  0  0  0  0  0
  -25.2600  -13.8158   20.5680 C   0  0  0  0  0  0
  -24.1845  -13.0442   20.9145 C   0  0  0  0  0  0
  -24.6390  -11.6902   20.8707 C   0  0  0  0  0  0
  -23.9064  -10.4288   21.0396 C   0  0  0  0  0  0
  -24.3614   -9.4204   21.9178 C   0  0  0  0  0  0
  -23.6295   -8.2246   22.0752 C   0  0  0  0  0  0
  -22.4278   -8.0280   21.3552 C   0  0  0  0  0  0
  -21.9911   -9.0242   20.4647 C   0  0  0  0  0  0
  -22.7234  -10.2129   20.3048 C   0  0  0  0  0  0
  -21.6858   -6.0736   22.5284 C   0  0  0  0  0  0
  -21.4010   -6.5645   23.8212 C   0  0  0  0  0  0
  -21.3656   -5.6801   24.9180 C   0  0  0  0  0  0
  -21.6043   -4.3058   24.7237 C   0  0  0  0  0  0
  -21.8821   -3.8149   23.4355 C   0  0  0  0  0  0
  -21.9193   -4.6964   22.3408 C   0  0  0  0  0  0
  -22.7864  -13.5229   21.1828 C   0  0  0  0  0  0
  -22.1668   -4.2144   21.0986 F   0  0  0  0  0  0
  -21.5630   -3.4545   25.7753 F   0  0  0  0  0  0
  -30.0516  -13.2165   20.4606 N   0  0  0  0  0  0
  -26.3037  -12.9329   20.3385 N   0  0  0  0  0  0
  -25.9318  -11.6482   20.5732 N   0  0  0  0  0  0
  -22.0519  -12.8205   22.0387 N   0  0  0  0  0  0
  -25.4320  -15.1883   20.4140 N   0  0  0  0  0  0
  -31.8367  -14.5846   20.0851 O   0  0  0  0  0  0
  -21.6649   -6.8875   21.4241 O   0  0  0  0  0  0
  -22.3538  -14.5545   20.6701 O   0  0  0  0  0  0
  -24.6123  -31.8715   23.2119 C   0  0  0  0  0  0
  -25.9042  -32.4834   23.8395 C   0  0  1  0  0  0
  -27.2311  -27.4519   20.0876 C   0  0  0  0  0  0
  -25.5910  -33.8636   24.2310 N   0  0  0  0  0  0
  -23.3950  -30.4962   21.5550 C   0  0  2  0  0  0
  -24.8386  -28.9649   20.1157 C   0  0  0  0  0  0
  -22.7403  -29.4675   22.5029 C   0  0  0  0  0  0
  -18.0279  -28.1343   22.8490 C   0  0  0  0  0  0
  -24.1486  -36.7317   23.2638 C   0  0  0  0  0  0
  -25.9228  -30.8363   21.3669 C   0  0  0  0  0  0
  -25.9999  -29.4756   20.7081 C   0  0  0  0  0  0
  -27.1980  -28.7260   20.6925 C   0  0  0  0  0  0
  -26.0461  -26.9538   19.4915 C   0  0  0  0  0  0
  -24.8554  -27.6981   19.5074 C   0  0  0  0  0  0
  -23.5995  -29.8282   20.1688 C   0  0  0  0  0  0
  -25.4096  -36.3119   24.0325 C   0  0  1  0  0  0
  -20.5859  -28.3648   23.1310 C   0  0  2  0  0  0
  -20.6760  -26.9381   22.5415 C   0  0  0  0  0  0
  -19.5741  -26.6356   21.5203 C   0  0  0  0  0  0
  -18.1915  -26.7889   22.1611 C   0  0  0  0  0  0
  -19.1522  -28.8810   23.2896 C   0  0  0  0  0  0
  -18.9472  -30.1427   23.8891 C   0  0  0  0  0  0
  -17.6484  -30.6586   24.0539 C   0  0  0  0  0  0
  -25.9017  -34.9491   23.5102 C   0  0  0  0  0  0
  -16.5364  -29.9067   23.6347 C   0  0  0  0  0  0
  -16.7266  -28.6466   23.0370 C   0  0  0  0  0  0
  -26.4457  -31.6641   25.0742 C   0  0  0  0  0  0
  -25.3724  -31.3779   26.1510 C   0  0  0  0  0  0
  -27.0285  -30.3076   24.6126 C   0  0  0  0  0  0
  -27.6001  -32.4385   25.7533 C   0  0  0  0  0  0
  -27.5581  -37.1805   24.8455 C   0  0  0  0  0  0
  -21.4145  -29.3017   22.3751 N   0  0  0  0  0  0
  -26.4286  -37.3798   23.9401 N   0  0  0  0  0  0
  -24.6603  -31.0821   22.1022 N   0  0  0  0  0  0
  -23.4213  -28.8218   23.3047 O   0  0  0  0  0  0
  -28.4149  -26.7432   20.1005 O   0  0  0  0  0  0
  -26.5600  -34.8945   22.4680 O   0  0  0  0  0  0
  -23.5330  -32.1498   23.7513 O   0  0  0  0  0  0
  -27.7039  -17.4759   18.8794 C   0  0  0  0  0  0
  -27.7240  -18.7932   19.4011 C   0  0  0  0  0  0
  -28.8695  -16.8819   19.2561 C   0  0  0  0  0  0
  -28.9010  -18.9761   20.0809 C   0  0  0  0  0  0
  -30.3287  -20.9535   19.6246 C   0  0  0  0  0  0
  -28.3490  -21.1522   21.2342 C   0  0  0  0  0  0
  -30.6808  -22.4150   19.9622 C   0  0  0  0  0  0
  -28.8517  -22.5633   21.5555 C   0  0  0  0  0  0
  -29.4619  -20.2337   20.6878 C   0  0  1  0  0  0
  -30.8996  -17.4683   20.6256 C   0  0  0  0  0  0
  -30.8030  -16.5337   21.8594 C   0  0  0  0  0  0
  -29.6090  -24.6324   20.3965 C   0  0  0  0  0  0
  -28.3144  -25.3295   19.9447 C   0  0  0  0  0  0
  -29.5986  -17.7714   20.0304 N   0  0  0  0  0  0
  -30.2698  -15.2014   21.5609 N   0  0  0  0  0  0
  -29.4543  -23.1554   20.3363 N   0  3  1  0  0  0
  -31.4543  -12.3646   19.0864 H   0  0  0  0  0  0
  -30.3002  -11.2488   19.7511 H   0  0  0  0  0  0
  -29.7107  -11.8388   17.3817 H   0  0  0  0  0  0
  -29.6643  -13.5330   17.7999 H   0  0  0  0  0  0
  -27.7948  -11.3388   18.7585 H   0  0  0  0  0  0
  -27.3625  -12.7178   17.7813 H   0  0  0  0  0  0
  -27.7226  -14.2586   19.6236 H   0  0  0  0  0  0
  -28.6560  -11.8935   21.3119 H   0  0  0  0  0  0
  -28.4596  -13.5150   21.8882 H   0  0  0  0  0  0
  -25.2768   -9.5696   22.4741 H   0  0  0  0  0  0
  -24.0013   -7.4647   22.7482 H   0  0  0  0  0  0
  -21.0842   -8.8755   19.8956 H   0  0  0  0  0  0
  -22.3687  -10.9661   19.6153 H   0  0  0  0  0  0
  -21.1999   -7.6155   23.9711 H   0  0  0  0  0  0
  -21.1480   -6.0538   25.9082 H   0  0  0  0  0  0
  -22.0602   -2.7610   23.2867 H   0  0  0  0  0  0
  -22.4158  -11.9869   22.4761 H   0  0  0  0  0  0
  -21.1125  -13.1197   22.2586 H   0  0  0  0  0  0
  -24.6708  -15.8453   20.5431 H   0  0  0  0  0  0
  -26.3003  -15.6385   20.1499 H   0  0  0  0  0  0
  -26.7136  -32.5527   23.1178 H   0  0  0  0  0  0
  -25.0091  -33.9790   25.0479 H   0  0  0  0  0  0
  -22.6796  -31.3114   21.4209 H   0  0  0  0  0  0
  -23.3762  -35.9650   23.3309 H   0  0  0  0  0  0
  -24.3594  -36.8923   22.2058 H   0  0  0  0  0  0
  -23.7237  -37.6507   23.6671 H   0  0  0  0  0  0
  -26.0381  -31.6066   20.6024 H   0  0  0  0  0  0
  -26.8066  -30.8803   21.9898 H   0  0  0  0  0  0
  -28.0940  -29.1150   21.1575 H   0  0  0  0  0  0
  -26.0131  -25.9916   19.0028 H   0  0  0  0  0  0
  -23.9625  -27.2950   19.0470 H   0  0  0  0  0  0
  -23.6978  -30.6025   19.4068 H   0  0  0  0  0  0
  -22.7227  -29.2424   19.8844 H   0  0  0  0  0  0
  -25.1283  -36.1979   25.0816 H   0  0  0  0  0  0
  -20.9909  -28.3214   24.1440 H   0  0  0  0  0  0
  -20.5668  -26.2239   23.3610 H   0  0  0  0  0  0
  -21.6633  -26.7436   22.1193 H   0  0  0  0  0  0
  -19.6913  -25.6258   21.1256 H   0  0  0  0  0  0
  -19.6684  -27.3150   20.6726 H   0  0  0  0  0  0
  -17.4177  -26.6661   21.4017 H   0  0  0  0  0  0
  -18.0292  -26.0016   22.8990 H   0  0  0  0  0  0
  -19.7972  -30.7216   24.2249 H   0  0  0  0  0  0
  -17.5065  -31.6278   24.5144 H   0  0  0  0  0  0
  -15.5364  -30.2973   23.7703 H   0  0  0  0  0  0
  -15.8647  -28.0807   22.7092 H   0  0  0  0  0  0
  -24.5835  -30.7174   25.7888 H   0  0  0  0  0  0
  -24.9002  -32.2964   26.5017 H   0  0  0  0  0  0
  -25.8079  -30.8928   27.0255 H   0  0  0  0  0  0
  -26.2824  -29.6852   24.1164 H   0  0  0  0  0  0
  -27.4025  -29.7307   25.4598 H   0  0  0  0  0  0
  -27.8689  -30.4379   23.9291 H   0  0  0  0  0  0
  -27.2550  -33.3650   26.2146 H   0  0  0  0  0  0
  -28.3812  -32.7012   25.0382 H   0  0  0  0  0  0
  -28.0669  -31.8507   26.5444 H   0  0  0  0  0  0
  -28.2574  -38.0131   24.7547 H   0  0  0  0  0  0
  -28.1100  -36.2662   24.6231 H   0  0  0  0  0  0
  -27.2309  -37.1376   25.8861 H   0  0  0  0  0  0
  -20.9309  -29.8722   21.6954 H   0  0  0  0  0  0
  -26.0191  -38.2873   24.1449 H   0  0  0  0  0  0
  -26.9287  -17.0252   18.2737 H   0  0  0  0  0  0
  -26.9642  -19.5465   19.2431 H   0  0  0  0  0  0
  -29.2469  -15.8954   19.0358 H   0  0  0  0  0  0
  -31.2418  -20.3860   19.4401 H   0  0  0  0  0  0
  -29.7909  -20.9503   18.6745 H   0  0  0  0  0  0
  -27.5396  -21.2506   20.5128 H   0  0  0  0  0  0
  -27.9058  -20.7027   22.1234 H   0  0  0  0  0  0
  -31.1418  -22.8709   19.0842 H   0  0  0  0  0  0
  -31.4198  -22.4660   20.7644 H   0  0  0  0  0  0
  -29.5825  -22.5412   22.3666 H   0  0  0  0  0  0
  -28.0150  -23.1632   21.9129 H   0  0  0  0  0  0
  -30.0926  -19.9899   21.5434 H   0  0  0  0  0  0
  -31.5401  -17.0510   19.8500 H   0  0  0  0  0  0
  -31.4031  -18.3871   20.9198 H   0  0  0  0  0  0
  -30.1730  -16.9922   22.6223 H   0  0  0  0  0  0
  -31.7907  -16.4208   22.3103 H   0  0  0  0  0  0
  -29.8812  -24.9348   21.4080 H   0  0  0  0  0  0
  -30.4172  -24.9567   19.7403 H   0  0  0  0  0  0
  -27.4800  -24.9556   20.5400 H   0  0  0  0  0  0
  -28.1038  -25.0848   18.9005 H   0  0  0  0  0  0
  -29.4063  -14.9386   22.0116 H   0  0  0  0  0  0
  -28.8051  -22.9832   19.5821 H   0  0  0  0  0  0
  1 25  1  0  0  0
  1 30  2  0  0  0
  1 85  1  0  0  0
  2  3  1  0  0  0
  2 25  1  0  0  0
  2 87  1  0  0  0
  2 88  1  0  0  0
  3  4  1  0  0  0
  3 89  1  0  0  0
  3 90  1  0  0  0
  4  5  1  0  0  0
  4 91  1  0  0  0
  4 92  1  0  0  0
  5  6  1  0  0  0
  5 26  1  0  0  0
  5 93  1  0  0  0
  6 25  1  0  0  0
  6 94  1  0  0  0
  6 95  1  0  0  0
  7  8  2  0  0  0
  7 26  1  0  0  0
  7 29  1  0  0  0
  8  9  1  0  0  0
  8 22  1  0  0  0
  9 10  1  0  0  0
  9 27  2  0  0  0
 10 11  2  0  0  0
 10 15  1  0  0  0
 11 12  1  0  0  0
 11 96  1  0  0  0
 12 13  2  0  0  0
 12 97  1  0  0  0
 13 14  1  0  0  0
 13 31  1  0  0  0
 14 15  2  0  0  0
 14 98  1  0  0  0
 15 99  1  0  0  0
 16 17  2  0  0  0
 16 21  1  0  0  0
 16 31  1  0  0  0
 17 18  1  0  0  0
 17100  1  0  0  0
 18 19  2  0  0  0
 18101  1  0  0  0
 19 20  1  0  0  0
 19 24  1  0  0  0
 20 21  2  0  0  0
 20102  1  0  0  0
 21 23  1  0  0  0
 22 28  1  0  0  0
 22 32  2  0  0  0
 26 27  1  0  0  0
 28103  1  0  0  0
 28104  1  0  0  0
 29105  1  0  0  0
 29106  1  0  0  0
 33 34  1  0  0  0
 33 66  1  0  0  0
 33 70  2  0  0  0
 34 36  1  0  0  0
 34 59  1  0  0  0
 34107  1  0  0  0
 35 44  2  0  0  0
 35 45  1  0  0  0
 35 68  1  0  0  0
 36 56  1  0  0  0
 36108  1  0  0  0
 37 39  1  0  0  0
 37 47  1  0  0  0
 37 66  1  0  0  0
 37109  1  0  0  0
 38 43  2  0  0  0
 38 46  1  0  0  0
 38 47  1  0  0  0
 39 64  1  0  0  0
 39 67  2  0  0  0
 40 52  1  0  0  0
 40 53  2  0  0  0
 40 58  1  0  0  0
 41110  1  0  0  0
 41111  1  0  0  0
 41112  1  0  0  0
 41 48  1  0  0  0
 42 43  1  0  0  0
 42 66  1  0  0  0
 42113  1  0  0  0
 42114  1  0  0  0
 43 44  1  0  0  0
 44115  1  0  0  0
 45 46  2  0  0  0
 45116  1  0  0  0
 46117  1  0  0  0
 47118  1  0  0  0
 47119  1  0  0  0
 48 56  1  0  0  0
 48 65  1  0  0  0
 48120  1  0  0  0
 49 50  1  0  0  0
 49 53  1  0  0  0
 49 64  1  0  0  0
 49121  1  0  0  0
 50 51  1  0  0  0
 50122  1  0  0  0
 50123  1  0  0  0
 51 52  1  0  0  0
 51124  1  0  0  0
 51125  1  0  0  0
 52126  1  0  0  0
 52127  1  0  0  0
 53 54  1  0  0  0
 54 55  2  0  0  0
 54128  1  0  0  0
 55 57  1  0  0  0
 55129  1  0  0  0
 56 69  2  0  0  0
 57 58  2  0  0  0
 57130  1  0  0  0
 58131  1  0  0  0
 59 60  1  0  0  0
 59 61  1  0  0  0
 59 62  1  0  0  0
 60132  1  0  0  0
 60133  1  0  0  0
 60134  1  0  0  0
 61135  1  0  0  0
 61136  1  0  0  0
 61137  1  0  0  0
 62138  1  0  0  0
 62139  1  0  0  0
 62140  1  0  0  0
 63 65  1  0  0  0
 63141  1  0  0  0
 63142  1  0  0  0
 63143  1  0  0  0
 64144  1  0  0  0
 65145  1  0  0  0
 68 83  1  0  0  0
 71 72  1  0  0  0
 71 73  2  0  0  0
 71146  1  0  0  0
 72 74  2  0  0  0
 72147  1  0  0  0
 73 84  1  0  0  0
 73148  1  0  0  0
 74 84  1  0  0  0
 74 79  1  0  0  0
 75 77  1  0  0  0
 75 79  1  0  0  0
 75149  1  0  0  0
 75150  1  0  0  0
 76 78  1  0  0  0
 76 79  1  0  0  0
 76151  1  0  0  0
 76152  1  0  0  0
 77 86  1  0  0  0
 77153  1  0  0  0
 77154  1  0  0  0
 78 86  1  0  0  0
 78155  1  0  0  0
 78156  1  0  0  0
 79157  1  0  0  0
 80 81  1  0  0  0
 80 84  1  0  0  0
 80158  1  0  0  0
 80159  1  0  0  0
 81 85  1  0  0  0
 81160  1  0  0  0
 81161  1  0  0  0
 82 83  1  0  0  0
 82162  1  0  0  0
 82163  1  0  0  0
 82 86  1  0  0  0
 83164  1  0  0  0
 83165  1  0  0  0
 85166  1  0  0  0
 86167  1  0  0  0
M  CHG  1  86   1
M  ISO  4   1 100  68 101  83 101  85 100
M  END
> <chiral flag>
0

> <version>
0

> <s_m_source_file>
/data/baiqing/PycharmProjects/Reinvent-master-3.2/result/LINK_invent/BTK/process_docking_weight1_custom_sum_contain_oxygen_bond_distance_aromatic_linkinvent_7_9_3/rearranged_h_0120.sdf

> <i_m_source_file_index>
90

> <r_mmod_Potential_Energy-OPLS-2005>
-180.208953857422

> <r_mmod_Stretch_Energy-OPLS-2005>
33.0052223205566

> <r_mmod_Bend_Energy-OPLS-2005>
98.5921249389648

> <r_mmod_Torsional_Energy-OPLS-2005>
248.717010498047

> <r_mmod_Improper_Torsional_Energy-OPLS-2005>
2.22302675247192

> <r_mmod_Van_der_Waal_Energy-OPLS-2005>
140.311553955078

> <r_mmod_Electrostatic_Energy-OPLS-2005>
-284.079193115234

> <r_mmod_Solvation_Energy-OPLS-2005>
-427.911956787109

> <b_mmod_Minimization_Converged-OPLS-2005>
0

> <r_mmod_RMS_Derivative-OPLS-2005>
2.94370532035828

$$$$
91
                    3D
 Structure written by MMmdl.
153162  0  0  1  0            999 V2000
  -30.4690  -15.2059   20.3749 C   0  0  0  0  0  0
  -30.4365  -12.7671   19.5205 C   0  0  0  0  0  0
  -29.5311  -12.5657   18.2808 C   0  0  0  0  0  0
  -28.0769  -12.3018   18.7081 C   0  0  0  0  0  0
  -27.6134  -13.2718   19.8241 C   0  0  2  0  0  0
  -28.6494  -13.4277   20.9577 C   0  0  0  0  0  0
  -25.2398  -13.8247   20.5745 C   0  0  0  0  0  0
  -24.1747  -13.0440   20.9260 C   0  0  0  0  0  0
  -24.6396  -11.6935   20.8764 C   0  0  0  0  0  0
  -23.9089  -10.4294   21.0407 C   0  0  0  0  0  0
  -24.3634   -9.4207   21.9184 C   0  0  0  0  0  0
  -23.6304   -8.2244   22.0754 C   0  0  0  0  0  0
  -22.4285   -8.0283   21.3544 C   0  0  0  0  0  0
  -21.9926   -9.0258   20.4646 C   0  0  0  0  0  0
  -22.7260  -10.2135   20.3056 C   0  0  0  0  0  0
  -21.6857   -6.0738   22.5278 C   0  0  0  0  0  0
  -21.4017   -6.5642   23.8212 C   0  0  0  0  0  0
  -21.3659   -5.6794   24.9174 C   0  0  0  0  0  0
  -21.6044   -4.3056   24.7224 C   0  0  0  0  0  0
  -21.8818   -3.8148   23.4346 C   0  0  0  0  0  0
  -21.9194   -4.6965   22.3401 C   0  0  0  0  0  0
  -22.7765  -13.5194   21.1905 C   0  0  0  0  0  0
  -22.1662   -4.2150   21.0979 F   0  0  0  0  0  0
  -21.5627   -3.4540   25.7737 F   0  0  0  0  0  0
  -29.8892  -13.9121   20.3320 N   0  0  0  0  0  0
  -26.2823  -12.9516   20.3223 N   0  0  0  0  0  0
  -25.9332  -11.6624   20.5727 N   0  0  0  0  0  0
  -22.0423  -12.8174   22.0459 N   0  0  0  0  0  0
  -25.4033  -15.1979   20.4167 N   0  0  0  0  0  0
  -31.6889  -15.2031   20.1624 O   0  0  0  0  0  0
  -21.6645   -6.8882   21.4241 O   0  0  0  0  0  0
  -22.3442  -14.5493   20.6742 O   0  0  0  0  0  0
  -24.6603  -31.8272   23.1744 C   0  0  0  0  0  0
  -25.9299  -32.4607   23.8193 C   0  0  1  0  0  0
  -27.2153  -26.9605   20.1746 C   0  0  0  0  0  0
  -25.5978  -33.8421   24.2096 N   0  0  0  0  0  0
  -23.4735  -30.4416   21.5226 C   0  0  2  0  0  0
  -24.9267  -28.8392   20.1099 C   0  0  0  0  0  0
  -22.7658  -29.4462   22.4788 C   0  0  0  0  0  0
  -18.0321  -28.1410   22.8468 C   0  0  0  0  0  0
  -24.1491  -36.7212   23.2647 C   0  0  0  0  0  0
  -26.0419  -30.6437   21.4016 C   0  0  0  0  0  0
  -26.1103  -29.2380   20.7436 C   0  0  0  0  0  0
  -27.2507  -28.3190   20.7545 C   0  0  0  0  0  0
  -26.0044  -26.7134   19.4873 C   0  0  0  0  0  0
  -24.8976  -27.5960   19.4618 C   0  0  0  0  0  0
  -23.7116  -29.7627   20.1468 C   0  0  0  0  0  0
  -25.4132  -36.2977   24.0302 C   0  0  1  0  0  0
  -20.5946  -28.3753   23.1190 C   0  0  2  0  0  0
  -20.6799  -26.9436   22.5400 C   0  0  0  0  0  0
  -19.5771  -26.6379   21.5215 C   0  0  0  0  0  0
  -18.1954  -26.7943   22.1624 C   0  0  0  0  0  0
  -19.1583  -28.8902   23.2817 C   0  0  0  0  0  0
  -18.9495  -30.1493   23.8851 C   0  0  0  0  0  0
  -17.6489  -30.6600   24.0558 C   0  0  0  0  0  0
  -25.9097  -34.9359   23.5017 C   0  0  0  0  0  0
  -16.5379  -29.9088   23.6345 C   0  0  0  0  0  0
  -16.7304  -28.6509   23.0362 C   0  0  0  0  0  0
  -26.4558  -31.6542   25.0709 C   0  0  0  0  0  0
  -25.3691  -31.3787   26.1369 C   0  0  0  0  0  0
  -27.0457  -30.2913   24.6430 C   0  0  0  0  0  0
  -27.6051  -32.4351   25.7509 C   0  0  0  0  0  0
  -27.5567  -37.1763   24.8467 C   0  0  0  0  0  0
  -21.4330  -29.3048   22.3541 N   0  0  0  0  0  0
  -26.4277  -37.3710   23.9410 N   0  0  0  0  0  0
  -24.7463  -30.9967   22.0865 N   0  0  0  0  0  0
  -23.4221  -28.8024   23.3013 O   0  0  0  0  0  0
  -28.2006  -25.8492   20.2641 O   0  0  0  0  0  0
  -26.5702  -34.8889   22.4610 O   0  0  0  0  0  0
  -23.5679  -32.1228   23.6854 O   0  0  0  0  0  0
  -28.2571  -21.7568   21.2880 C   0  0  0  0  0  0
  -29.3093  -21.9312   19.2726 C   0  0  0  0  0  0
  -28.6378  -20.3188   21.3430 C   0  0  0  0  0  0
  -28.5667  -22.7226   20.2417 C   0  0  0  0  0  0
  -29.3906  -19.6287   20.3109 C   0  0  0  0  0  0
  -27.3907  -18.2921   22.4458 C   0  0  0  0  0  0
  -26.8239  -19.5419   23.0754 C   0  0  0  0  0  0
  -28.2448  -19.5347   22.5589 C   0  0  0  0  0  0
  -27.8248  -24.2827   20.0107 C   0  0  0  0  0  0
  -30.1549  -18.0635   20.3396 C   0  0  0  0  0  0
  -29.6937  -20.5590   19.3140 N   0  0  0  0  0  0
  -29.7275  -16.4756   20.4498 N   0  0  0  0  0  0
  -31.4593  -12.9571   19.1925 H   0  0  0  0  0  0
  -30.4858  -11.8554   20.1180 H   0  0  0  0  0  0
  -29.8994  -11.7410   17.6691 H   0  0  0  0  0  0
  -29.5715  -13.4570   17.6527 H   0  0  0  0  0  0
  -28.0231  -11.2748   19.0714 H   0  0  0  0  0  0
  -27.4084  -12.3576   17.8481 H   0  0  0  0  0  0
  -27.5349  -14.2435   19.3352 H   0  0  0  0  0  0
  -28.8026  -12.4894   21.4929 H   0  0  0  0  0  0
  -28.3003  -14.1537   21.6937 H   0  0  0  0  0  0
  -25.2775   -9.5683   22.4766 H   0  0  0  0  0  0
  -24.0008   -7.4636   22.7475 H   0  0  0  0  0  0
  -21.0856   -8.8781   19.8951 H   0  0  0  0  0  0
  -22.3716  -10.9676   19.6168 H   0  0  0  0  0  0
  -21.2012   -7.6150   23.9715 H   0  0  0  0  0  0
  -21.1481   -6.0524   25.9076 H   0  0  0  0  0  0
  -22.0597   -2.7610   23.2846 H   0  0  0  0  0  0
  -22.4058  -11.9845   22.4849 H   0  0  0  0  0  0
  -21.1033  -13.1178   22.2661 H   0  0  0  0  0  0
  -24.6301  -15.8450   20.5247 H   0  0  0  0  0  0
  -26.2381  -15.6369   20.0528 H   0  0  0  0  0  0
  -26.7367  -32.5153   23.0909 H   0  0  0  0  0  0
  -25.0081  -33.9507   25.0216 H   0  0  0  0  0  0
  -22.7852  -31.2729   21.3558 H   0  0  0  0  0  0
  -23.3764  -35.9531   23.3283 H   0  0  0  0  0  0
  -24.3568  -36.8881   22.2067 H   0  0  0  0  0  0
  -23.7238  -37.6390   23.6717 H   0  0  0  0  0  0
  -26.2207  -31.3879   20.6244 H   0  0  0  0  0  0
  -26.9028  -30.6973   22.0562 H   0  0  0  0  0  0
  -28.1437  -28.6197   21.2840 H   0  0  0  0  0  0
  -25.8672  -25.7676   18.9855 H   0  0  0  0  0  0
  -23.9991  -27.2857   18.9461 H   0  0  0  0  0  0
  -23.8651  -30.5336   19.3909 H   0  0  0  0  0  0
  -22.8221  -29.2163   19.8282 H   0  0  0  0  0  0
  -25.1329  -36.1775   25.0793 H   0  0  0  0  0  0
  -21.0036  -28.3356   24.1313 H   0  0  0  0  0  0
  -20.5685  -26.2371   23.3640 H   0  0  0  0  0  0
  -21.6662  -26.7416   22.1204 H   0  0  0  0  0  0
  -19.6930  -25.6278   21.1273 H   0  0  0  0  0  0
  -19.6708  -27.3166   20.6727 H   0  0  0  0  0  0
  -17.4223  -26.6688   21.4028 H   0  0  0  0  0  0
  -18.0347  -26.0098   22.9032 H   0  0  0  0  0  0
  -19.7972  -30.7323   24.2196 H   0  0  0  0  0  0
  -17.5042  -31.6275   24.5170 H   0  0  0  0  0  0
  -15.5378  -30.2976   23.7698 H   0  0  0  0  0  0
  -15.8704  -28.0815   22.7100 H   0  0  0  0  0  0
  -24.5886  -30.7123   25.7680 H   0  0  0  0  0  0
  -24.8869  -32.2988   26.4678 H   0  0  0  0  0  0
  -25.7929  -30.9030   27.0224 H   0  0  0  0  0  0
  -26.3126  -29.6589   24.1410 H   0  0  0  0  0  0
  -27.3971  -29.7272   25.5081 H   0  0  0  0  0  0
  -27.9072  -30.4102   23.9857 H   0  0  0  0  0  0
  -27.2618  -33.3693   26.1964 H   0  0  0  0  0  0
  -28.3923  -32.6846   25.0383 H   0  0  0  0  0  0
  -28.0650  -31.8561   26.5528 H   0  0  0  0  0  0
  -28.2570  -38.0073   24.7511 H   0  0  0  0  0  0
  -28.1077  -36.2599   24.6298 H   0  0  0  0  0  0
  -27.2284  -37.1409   25.8870 H   0  0  0  0  0  0
  -20.9579  -29.8742   21.6676 H   0  0  0  0  0  0
  -26.0125  -38.2768   24.1421 H   0  0  0  0  0  0
  -27.6521  -22.1264   22.1034 H   0  0  0  0  0  0
  -29.5884  -22.4200   18.3508 H   0  0  0  0  0  0
  -27.0062  -18.0150   21.4659 H   0  0  0  0  0  0
  -27.6088  -17.4609   23.1142 H   0  0  0  0  0  0
  -26.6734  -19.5228   24.1533 H   0  0  0  0  0  0
  -26.0675  -20.0813   22.5080 H   0  0  0  0  0  0
  -29.0484  -19.5285   23.2940 H   0  0  0  0  0  0
  -26.8686  -24.1667   20.5218 H   0  0  0  0  0  0
  -27.5666  -24.2571   18.9519 H   0  0  0  0  0  0
  -30.8771  -18.1718   21.1489 H   0  0  0  0  0  0
  -30.7768  -18.0791   19.4444 H   0  0  0  0  0  0
  -28.7350  -16.3475   20.5710 H   0  0  0  0  0  0
  1 25  1  0  0  0
  1 30  2  0  0  0
  1 82  1  0  0  0
  2  3  1  0  0  0
  2 25  1  0  0  0
  2 83  1  0  0  0
  2 84  1  0  0  0
  3  4  1  0  0  0
  3 85  1  0  0  0
  3 86  1  0  0  0
  4  5  1  0  0  0
  4 87  1  0  0  0
  4 88  1  0  0  0
  5  6  1  0  0  0
  5 26  1  0  0  0
  5 89  1  0  0  0
  6 25  1  0  0  0
  6 90  1  0  0  0
  6 91  1  0  0  0
  7  8  2  0  0  0
  7 26  1  0  0  0
  7 29  1  0  0  0
  8  9  1  0  0  0
  8 22  1  0  0  0
  9 10  1  0  0  0
  9 27  2  0  0  0
 10 11  2  0  0  0
 10 15  1  0  0  0
 11 12  1  0  0  0
 11 92  1  0  0  0
 12 13  2  0  0  0
 12 93  1  0  0  0
 13 14  1  0  0  0
 13 31  1  0  0  0
 14 15  2  0  0  0
 14 94  1  0  0  0
 15 95  1  0  0  0
 16 17  2  0  0  0
 16 21  1  0  0  0
 16 31  1  0  0  0
 17 18  1  0  0  0
 17 96  1  0  0  0
 18 19  2  0  0  0
 18 97  1  0  0  0
 19 20  1  0  0  0
 19 24  1  0  0  0
 20 21  2  0  0  0
 20 98  1  0  0  0
 21 23  1  0  0  0
 22 28  1  0  0  0
 22 32  2  0  0  0
 26 27  1  0  0  0
 28 99  1  0  0  0
 28100  1  0  0  0
 29101  1  0  0  0
 29102  1  0  0  0
 33 34  1  0  0  0
 33 66  1  0  0  0
 33 70  2  0  0  0
 34 36  1  0  0  0
 34 59  1  0  0  0
 34103  1  0  0  0
 35 44  2  0  0  0
 35 45  1  0  0  0
 35 68  1  0  0  0
 36 56  1  0  0  0
 36104  1  0  0  0
 37 39  1  0  0  0
 37 47  1  0  0  0
 37 66  1  0  0  0
 37105  1  0  0  0
 38 43  2  0  0  0
 38 46  1  0  0  0
 38 47  1  0  0  0
 39 64  1  0  0  0
 39 67  2  0  0  0
 40 52  1  0  0  0
 40 53  2  0  0  0
 40 58  1  0  0  0
 41106  1  0  0  0
 41107  1  0  0  0
 41108  1  0  0  0
 41 48  1  0  0  0
 42 43  1  0  0  0
 42 66  1  0  0  0
 42109  1  0  0  0
 42110  1  0  0  0
 43 44  1  0  0  0
 44111  1  0  0  0
 45 46  2  0  0  0
 45112  1  0  0  0
 46113  1  0  0  0
 47114  1  0  0  0
 47115  1  0  0  0
 48 56  1  0  0  0
 48 65  1  0  0  0
 48116  1  0  0  0
 49 50  1  0  0  0
 49 53  1  0  0  0
 49 64  1  0  0  0
 49117  1  0  0  0
 50 51  1  0  0  0
 50118  1  0  0  0
 50119  1  0  0  0
 51 52  1  0  0  0
 51120  1  0  0  0
 51121  1  0  0  0
 52122  1  0  0  0
 52123  1  0  0  0
 53 54  1  0  0  0
 54 55  2  0  0  0
 54124  1  0  0  0
 55 57  1  0  0  0
 55125  1  0  0  0
 56 69  2  0  0  0
 57 58  2  0  0  0
 57126  1  0  0  0
 58127  1  0  0  0
 59 60  1  0  0  0
 59 61  1  0  0  0
 59 62  1  0  0  0
 60128  1  0  0  0
 60129  1  0  0  0
 60130  1  0  0  0
 61131  1  0  0  0
 61132  1  0  0  0
 61133  1  0  0  0
 62134  1  0  0  0
 62135  1  0  0  0
 62136  1  0  0  0
 63 65  1  0  0  0
 63137  1  0  0  0
 63138  1  0  0  0
 63139  1  0  0  0
 64140  1  0  0  0
 65141  1  0  0  0
 68 79  1  0  0  0
 71 73  2  0  0  0
 71 74  1  0  0  0
 71142  1  0  0  0
 72 74  2  0  0  0
 72 81  1  0  0  0
 72143  1  0  0  0
 73 75  1  0  0  0
 73 78  1  0  0  0
 74 79  1  0  0  0
 75 80  1  0  0  0
 75 81  2  0  0  0
 76 77  1  0  0  0
 76 78  1  0  0  0
 76144  1  0  0  0
 76145  1  0  0  0
 77 78  1  0  0  0
 77146  1  0  0  0
 77147  1  0  0  0
 78148  1  0  0  0
 79149  1  0  0  0
 79150  1  0  0  0
 80 82  1  0  0  0
 80151  1  0  0  0
 80152  1  0  0  0
 82153  1  0  0  0
M  ISO  4   1 100  68 101  79 101  82 100
M  END
> <chiral flag>
0

> <version>
0

> <s_m_source_file>
/data/baiqing/PycharmProjects/Reinvent-master-3.2/result/LINK_invent/BTK/process_docking_weight1_custom_sum_contain_oxygen_bond_distance_aromatic_linkinvent_7_9_3/rearranged_h_0120.sdf

> <i_m_source_file_index>
91

> <r_mmod_Potential_Energy-OPLS-2005>
891.687194824219

> <r_mmod_Stretch_Energy-OPLS-2005>
460.960510253906

> <r_mmod_Bend_Energy-OPLS-2005>
421.799865722656

> <r_mmod_Torsional_Energy-OPLS-2005>
253.798202514648

> <r_mmod_Improper_Torsional_Energy-OPLS-2005>
9.46309757232666

> <r_mmod_Van_der_Waal_Energy-OPLS-2005>
125.601737976074

> <r_mmod_Electrostatic_Energy-OPLS-2005>
-559.551025390625

> <r_mmod_Solvation_Energy-OPLS-2005>
-228.503387451172

> <b_mmod_Minimization_Converged-OPLS-2005>
0

> <r_mmod_RMS_Derivative-OPLS-2005>
0.205412924289703

$$$$
92
                    3D
 Structure written by MMmdl.
162171  0  0  1  0            999 V2000
  -30.6166  -14.6250   20.5162 C   0  0  0  0  0  0
  -30.4445  -12.3858   19.4434 C   0  0  0  0  0  0
  -29.5085  -12.5119   18.2191 C   0  0  0  0  0  0
  -28.0313  -12.3497   18.6324 C   0  0  0  0  0  0
  -27.6585  -13.2099   19.8687 C   0  0  2  0  0  0
  -28.7041  -13.0372   20.9941 C   0  0  0  0  0  0
  -25.2592  -13.8149   20.5692 C   0  0  0  0  0  0
  -24.1841  -13.0428   20.9180 C   0  0  0  0  0  0
  -24.6399  -11.6895   20.8724 C   0  0  0  0  0  0
  -23.9059  -10.4285   21.0399 C   0  0  0  0  0  0
  -24.3606   -9.4203   21.9180 C   0  0  0  0  0  0
  -23.6278   -8.2241   22.0759 C   0  0  0  0  0  0
  -22.4262   -8.0274   21.3548 C   0  0  0  0  0  0
  -21.9892   -9.0254   20.4656 C   0  0  0  0  0  0
  -22.7222  -10.2130   20.3059 C   0  0  0  0  0  0
  -21.6851   -6.0730   22.5279 C   0  0  0  0  0  0
  -21.4014   -6.5635   23.8211 C   0  0  0  0  0  0
  -21.3658   -5.6786   24.9173 C   0  0  0  0  0  0
  -21.6038   -4.3050   24.7225 C   0  0  0  0  0  0
  -21.8817   -3.8145   23.4347 C   0  0  0  0  0  0
  -21.9197   -4.6959   22.3403 C   0  0  0  0  0  0
  -22.7865  -13.5237   21.1841 C   0  0  0  0  0  0
  -22.1664   -4.2146   21.0981 F   0  0  0  0  0  0
  -21.5629   -3.4533   25.7739 F   0  0  0  0  0  0
  -30.0212  -13.3918   20.4382 N   0  0  0  0  0  0
  -26.3016  -12.9324   20.3334 N   0  0  0  0  0  0
  -25.9325  -11.6480   20.5742 N   0  0  0  0  0  0
  -22.0499  -12.8242   22.0400 N   0  0  0  0  0  0
  -25.4317  -15.1867   20.4126 N   0  0  0  0  0  0
  -31.7665  -14.8065   20.1001 O   0  0  0  0  0  0
  -21.6632   -6.8868   21.4237 O   0  0  0  0  0  0
  -22.3558  -14.5550   20.6694 O   0  0  0  0  0  0
  -24.6241  -31.8596   23.2036 C   0  0  0  0  0  0
  -25.9104  -32.4772   23.8351 C   0  0  1  0  0  0
  -27.2310  -27.3315   20.1136 C   0  0  0  0  0  0
  -25.5928  -33.8574   24.2272 N   0  0  0  0  0  0
  -23.4163  -30.4840   21.5440 C   0  0  2  0  0  0
  -24.8627  -28.9377   20.1105 C   0  0  0  0  0  0
  -22.7461  -29.4625   22.4930 C   0  0  0  0  0  0
  -18.0282  -28.1389   22.8484 C   0  0  0  0  0  0
  -24.1485  -36.7286   23.2640 C   0  0  0  0  0  0
  -25.9557  -30.7934   21.3737 C   0  0  0  0  0  0
  -26.0279  -29.4221   20.7152 C   0  0  0  0  0  0
  -27.2093  -28.6286   20.7090 C   0  0  0  0  0  0
  -26.0370  -26.8868   19.4989 C   0  0  0  0  0  0
  -24.8686  -27.6751   19.4960 C   0  0  0  0  0  0
  -23.6314  -29.8189   20.1583 C   0  0  0  0  0  0
  -25.4112  -36.3074   24.0323 C   0  0  1  0  0  0
  -20.5881  -28.3687   23.1293 C   0  0  2  0  0  0
  -20.6776  -26.9410   22.5423 C   0  0  0  0  0  0
  -19.5757  -26.6385   21.5219 C   0  0  0  0  0  0
  -18.1931  -26.7932   22.1620 C   0  0  0  0  0  0
  -19.1535  -28.8853   23.2885 C   0  0  0  0  0  0
  -18.9459  -30.1455   23.8902 C   0  0  0  0  0  0
  -17.6461  -30.6591   24.0566 C   0  0  0  0  0  0
  -25.9049  -34.9446   23.5094 C   0  0  0  0  0  0
  -16.5351  -29.9090   23.6332 C   0  0  0  0  0  0
  -16.7271  -28.6511   23.0347 C   0  0  0  0  0  0
  -26.4503  -31.6591   25.0724 C   0  0  0  0  0  0
  -25.3752  -31.3740   26.1466 C   0  0  0  0  0  0
  -27.0350  -30.3012   24.6188 C   0  0  0  0  0  0
  -27.6049  -32.4343   25.7498 C   0  0  0  0  0  0
  -27.5574  -37.1798   24.8461 C   0  0  0  0  0  0
  -21.4176  -29.3035   22.3680 N   0  0  0  0  0  0
  -26.4284  -37.3773   23.9409 N   0  0  0  0  0  0
  -24.6835  -31.0629   22.0971 N   0  0  0  0  0  0
  -23.4195  -28.8166   23.3005 O   0  0  0  0  0  0
  -28.3915  -26.5485   20.1826 O   0  0  0  0  0  0
  -26.5615  -34.8914   22.4659 O   0  0  0  0  0  0
  -23.5411  -32.1387   23.7385 O   0  0  0  0  0  0
  -30.6730  -19.2610   20.0588 C   0  0  0  0  0  0
  -30.7082  -17.8352   20.0638 C   0  0  0  0  0  0
  -28.8978  -19.1465   21.6370 C   0  0  0  0  0  0
  -29.7699  -19.9754   20.8925 C   0  0  0  0  0  0
  -29.8312  -17.0879   20.8901 C   0  0  0  0  0  0
  -31.2750  -21.7990   21.8044 C   0  0  0  0  0  0
  -31.8473  -23.2065   21.5505 C   0  0  0  0  0  0
  -30.7804  -22.9420   19.2843 C   0  0  0  0  0  0
  -29.8692  -21.5272   21.1890 C   0  0  1  0  0  0
  -29.4913  -22.6259   20.0816 C   0  0  1  0  0  0
  -28.7798  -23.9752   20.6104 C   0  0  0  0  0  0
  -28.5206  -25.1938   19.6149 C   0  0  0  0  0  0
  -28.9251  -17.7825   21.6274 N   0  0  0  0  0  0
  -29.8056  -15.6332   20.9640 N   0  0  0  0  0  0
  -31.8307  -23.5836   20.1152 N   0  3  0  0  0  0
  -31.4844  -12.5182   19.1387 H   0  0  0  0  0  0
  -30.3866  -11.3836   19.8715 H   0  0  0  0  0  0
  -29.7694  -11.7666   17.4661 H   0  0  0  0  0  0
  -29.6503  -13.4850   17.7457 H   0  0  0  0  0  0
  -27.8646  -11.2951   18.8547 H   0  0  0  0  0  0
  -27.3770  -12.5903   17.7939 H   0  0  0  0  0  0
  -27.6853  -14.2497   19.5417 H   0  0  0  0  0  0
  -28.7157  -12.0050   21.3482 H   0  0  0  0  0  0
  -28.4486  -13.6399   21.8669 H   0  0  0  0  0  0
  -25.2755   -9.5678   22.4750 H   0  0  0  0  0  0
  -23.9993   -7.4629   22.7471 H   0  0  0  0  0  0
  -21.0825   -8.8773   19.8961 H   0  0  0  0  0  0
  -22.3684  -10.9668   19.6167 H   0  0  0  0  0  0
  -21.2006   -7.6143   23.9712 H   0  0  0  0  0  0
  -21.1477   -6.0518   25.9074 H   0  0  0  0  0  0
  -22.0602   -2.7607   23.2848 H   0  0  0  0  0  0
  -22.4115  -11.9900   22.4785 H   0  0  0  0  0  0
  -21.1125  -13.1296   22.2616 H   0  0  0  0  0  0
  -24.6692  -15.8431   20.5421 H   0  0  0  0  0  0
  -26.2829  -15.6298   20.0909 H   0  0  0  0  0  0
  -26.7167  -32.5441   23.1094 H   0  0  0  0  0  0
  -25.0091  -33.9720   25.0427 H   0  0  0  0  0  0
  -22.7087  -31.3037   21.4020 H   0  0  0  0  0  0
  -23.3746  -35.9620   23.3306 H   0  0  0  0  0  0
  -24.3571  -36.8911   22.2054 H   0  0  0  0  0  0
  -23.7244  -37.6488   23.6668 H   0  0  0  0  0  0
  -26.0910  -31.5597   20.6091 H   0  0  0  0  0  0
  -26.8346  -30.8372   22.0056 H   0  0  0  0  0  0
  -28.1044  -28.9989   21.1888 H   0  0  0  0  0  0
  -25.9605  -25.9196   19.0303 H   0  0  0  0  0  0
  -23.9715  -27.2954   19.0267 H   0  0  0  0  0  0
  -23.7552  -30.5968   19.4037 H   0  0  0  0  0  0
  -22.7508  -29.2516   19.8522 H   0  0  0  0  0  0
  -25.1297  -36.1914   25.0814 H   0  0  0  0  0  0
  -20.9970  -28.3268   24.1414 H   0  0  0  0  0  0
  -20.5681  -26.2291   23.3619 H   0  0  0  0  0  0
  -21.6645  -26.7446   22.1216 H   0  0  0  0  0  0
  -19.6920  -25.6297   21.1247 H   0  0  0  0  0  0
  -19.6703  -27.3198   20.6752 H   0  0  0  0  0  0
  -17.4204  -26.6680   21.4017 H   0  0  0  0  0  0
  -18.0322  -26.0075   22.9015 H   0  0  0  0  0  0
  -19.7935  -30.7268   24.2273 H   0  0  0  0  0  0
  -17.5017  -31.6271   24.5170 H   0  0  0  0  0  0
  -15.5353  -30.2995   23.7660 H   0  0  0  0  0  0
  -15.8667  -28.0838   22.7054 H   0  0  0  0  0  0
  -24.5899  -30.7113   25.7815 H   0  0  0  0  0  0
  -24.8984  -32.2915   26.4919 H   0  0  0  0  0  0
  -25.8093  -30.8901   27.0223 H   0  0  0  0  0  0
  -26.2924  -29.6757   24.1218 H   0  0  0  0  0  0
  -27.4049  -29.7279   25.4701 H   0  0  0  0  0  0
  -27.8794  -30.4296   23.9411 H   0  0  0  0  0  0
  -27.2630  -33.3626   26.2089 H   0  0  0  0  0  0
  -28.3852  -32.6940   25.0332 H   0  0  0  0  0  0
  -28.0729  -31.8472   26.5410 H   0  0  0  0  0  0
  -28.2591  -38.0096   24.7505 H   0  0  0  0  0  0
  -28.1067  -36.2625   24.6285 H   0  0  0  0  0  0
  -27.2291  -37.1449   25.8865 H   0  0  0  0  0  0
  -20.9346  -29.8749   21.6889 H   0  0  0  0  0  0
  -26.0157  -38.2839   24.1430 H   0  0  0  0  0  0
  -31.3977  -19.7941   19.4618 H   0  0  0  0  0  0
  -31.4341  -17.3290   19.4420 H   0  0  0  0  0  0
  -28.1922  -19.5856   22.3266 H   0  0  0  0  0  0
  -31.2592  -21.5856   22.8742 H   0  0  0  0  0  0
  -32.0084  -21.1049   21.3949 H   0  0  0  0  0  0
  -32.8755  -23.2614   21.9102 H   0  0  0  0  0  0
  -31.3044  -23.9437   22.1389 H   0  0  0  0  0  0
  -30.5813  -23.5495   18.4024 H   0  0  0  0  0  0
  -31.1883  -22.0112   18.8916 H   0  0  0  0  0  0
  -29.1486  -21.7005   21.9902 H   0  0  0  0  0  0
  -28.7790  -22.1635   19.3971 H   0  0  0  0  0  0
  -29.3391  -24.3741   21.4514 H   0  0  0  0  0  0
  -27.8203  -23.6997   21.0491 H   0  0  0  0  0  0
  -27.7342  -24.9249   18.9154 H   0  0  0  0  0  0
  -29.3962  -25.2969   18.9791 H   0  0  0  0  0  0
  -28.9605  -15.2752   21.3770 H   0  0  0  0  0  0
  -32.7250  -23.3586   19.7087 H   0  0  0  0  0  0
  -31.7429  -24.5857   20.0586 H   0  0  0  0  0  0
  1 25  1  0  0  0
  1 30  2  0  0  0
  1 84  1  0  0  0
  2  3  1  0  0  0
  2 25  1  0  0  0
  2 86  1  0  0  0
  2 87  1  0  0  0
  3  4  1  0  0  0
  3 88  1  0  0  0
  3 89  1  0  0  0
  4  5  1  0  0  0
  4 90  1  0  0  0
  4 91  1  0  0  0
  5  6  1  0  0  0
  5 26  1  0  0  0
  5 92  1  0  0  0
  6 25  1  0  0  0
  6 93  1  0  0  0
  6 94  1  0  0  0
  7  8  2  0  0  0
  7 26  1  0  0  0
  7 29  1  0  0  0
  8  9  1  0  0  0
  8 22  1  0  0  0
  9 10  1  0  0  0
  9 27  2  0  0  0
 10 11  2  0  0  0
 10 15  1  0  0  0
 11 12  1  0  0  0
 11 95  1  0  0  0
 12 13  2  0  0  0
 12 96  1  0  0  0
 13 14  1  0  0  0
 13 31  1  0  0  0
 14 15  2  0  0  0
 14 97  1  0  0  0
 15 98  1  0  0  0
 16 17  2  0  0  0
 16 21  1  0  0  0
 16 31  1  0  0  0
 17 18  1  0  0  0
 17 99  1  0  0  0
 18 19  2  0  0  0
 18100  1  0  0  0
 19 20  1  0  0  0
 19 24  1  0  0  0
 20 21  2  0  0  0
 20101  1  0  0  0
 21 23  1  0  0  0
 22 28  1  0  0  0
 22 32  2  0  0  0
 26 27  1  0  0  0
 28102  1  0  0  0
 28103  1  0  0  0
 29104  1  0  0  0
 29105  1  0  0  0
 33 34  1  0  0  0
 33 66  1  0  0  0
 33 70  2  0  0  0
 34 36  1  0  0  0
 34 59  1  0  0  0
 34106  1  0  0  0
 35 44  2  0  0  0
 35 45  1  0  0  0
 35 68  1  0  0  0
 36 56  1  0  0  0
 36107  1  0  0  0
 37 39  1  0  0  0
 37 47  1  0  0  0
 37 66  1  0  0  0
 37108  1  0  0  0
 38 43  2  0  0  0
 38 46  1  0  0  0
 38 47  1  0  0  0
 39 64  1  0  0  0
 39 67  2  0  0  0
 40 52  1  0  0  0
 40 53  2  0  0  0
 40 58  1  0  0  0
 41109  1  0  0  0
 41110  1  0  0  0
 41111  1  0  0  0
 41 48  1  0  0  0
 42 43  1  0  0  0
 42 66  1  0  0  0
 42112  1  0  0  0
 42113  1  0  0  0
 43 44  1  0  0  0
 44114  1  0  0  0
 45 46  2  0  0  0
 45115  1  0  0  0
 46116  1  0  0  0
 47117  1  0  0  0
 47118  1  0  0  0
 48 56  1  0  0  0
 48 65  1  0  0  0
 48119  1  0  0  0
 49 50  1  0  0  0
 49 53  1  0  0  0
 49 64  1  0  0  0
 49120  1  0  0  0
 50 51  1  0  0  0
 50121  1  0  0  0
 50122  1  0  0  0
 51 52  1  0  0  0
 51123  1  0  0  0
 51124  1  0  0  0
 52125  1  0  0  0
 52126  1  0  0  0
 53 54  1  0  0  0
 54 55  2  0  0  0
 54127  1  0  0  0
 55 57  1  0  0  0
 55128  1  0  0  0
 56 69  2  0  0  0
 57 58  2  0  0  0
 57129  1  0  0  0
 58130  1  0  0  0
 59 60  1  0  0  0
 59 61  1  0  0  0
 59 62  1  0  0  0
 60131  1  0  0  0
 60132  1  0  0  0
 60133  1  0  0  0
 61134  1  0  0  0
 61135  1  0  0  0
 61136  1  0  0  0
 62137  1  0  0  0
 62138  1  0  0  0
 62139  1  0  0  0
 63 65  1  0  0  0
 63140  1  0  0  0
 63141  1  0  0  0
 63142  1  0  0  0
 64143  1  0  0  0
 65144  1  0  0  0
 68 82  1  0  0  0
 71 72  2  0  0  0
 71 74  1  0  0  0
 71145  1  0  0  0
 72 75  1  0  0  0
 72146  1  0  0  0
 73 74  2  0  0  0
 73 83  1  0  0  0
 73147  1  0  0  0
 74 79  1  0  0  0
 75 83  2  0  0  0
 75 84  1  0  0  0
 76 77  1  0  0  0
 76 79  1  0  0  0
 76148  1  0  0  0
 76149  1  0  0  0
 77 85  1  0  0  0
 77150  1  0  0  0
 77151  1  0  0  0
 78 80  1  0  0  0
 78 85  1  0  0  0
 78152  1  0  0  0
 78153  1  0  0  0
 79 80  1  0  0  0
 79154  1  0  0  0
 80 81  1  0  0  0
 80155  1  0  0  0
 81 82  1  0  0  0
 81156  1  0  0  0
 81157  1  0  0  0
 82158  1  0  0  0
 82159  1  0  0  0
 84160  1  0  0  0
 85161  1  0  0  0
 85162  1  0  0  0
M  CHG  1  85   1
M  ISO  4   1 100  68 101  82 101  84 100
M  END
> <chiral flag>
0

> <version>
0

> <s_m_source_file>
/data/baiqing/PycharmProjects/Reinvent-master-3.2/result/LINK_invent/BTK/process_docking_weight1_custom_sum_contain_oxygen_bond_distance_aromatic_linkinvent_7_9_3/rearranged_h_0120.sdf

> <i_m_source_file_index>
92

> <r_mmod_Potential_Energy-OPLS-2005>
-171.078399658203

> <r_mmod_Stretch_Energy-OPLS-2005>
83.239143371582

> <r_mmod_Bend_Energy-OPLS-2005>
174.105926513672

> <r_mmod_Torsional_Energy-OPLS-2005>
279.782775878906

> <r_mmod_Improper_Torsional_Energy-OPLS-2005>
4.52682876586914

> <r_mmod_Van_der_Waal_Energy-OPLS-2005>
157.275924682617

> <r_mmod_Electrostatic_Energy-OPLS-2005>
-430.762054443359

> <r_mmod_Solvation_Energy-OPLS-2005>
-480.290374755859

> <b_mmod_Minimization_Converged-OPLS-2005>
0

> <r_mmod_RMS_Derivative-OPLS-2005>
1.03390848636627

$$$$
93
                    3D
 Structure written by MMmdl.
185193  0  0  1  0            999 V2000
  -30.7301  -14.4147   20.6339 C   0  0  0  0  0  0
  -30.4216  -12.2975   19.4060 C   0  0  0  0  0  0
  -29.4907  -12.5174   18.1975 C   0  0  0  0  0  0
  -28.0114  -12.3788   18.6102 C   0  0  0  0  0  0
  -27.6640  -13.2050   19.8772 C   0  0  2  0  0  0
  -28.7022  -12.9543   20.9925 C   0  0  0  0  0  0
  -25.2593  -13.8172   20.5674 C   0  0  0  0  0  0
  -24.1834  -13.0450   20.9158 C   0  0  0  0  0  0
  -24.6383  -11.6912   20.8713 C   0  0  0  0  0  0
  -23.9053  -10.4297   21.0399 C   0  0  0  0  0  0
  -24.3605   -9.4213   21.9178 C   0  0  0  0  0  0
  -23.6286   -8.2245   22.0750 C   0  0  0  0  0  0
  -22.4264   -8.0279   21.3546 C   0  0  0  0  0  0
  -21.9898   -9.0251   20.4647 C   0  0  0  0  0  0
  -22.7225  -10.2133   20.3051 C   0  0  0  0  0  0
  -21.6855   -6.0728   22.5274 C   0  0  0  0  0  0
  -21.4016   -6.5633   23.8207 C   0  0  0  0  0  0
  -21.3662   -5.6786   24.9168 C   0  0  0  0  0  0
  -21.6046   -4.3052   24.7221 C   0  0  0  0  0  0
  -21.8816   -3.8139   23.4344 C   0  0  0  0  0  0
  -21.9192   -4.6955   22.3396 C   0  0  0  0  0  0
  -22.7852  -13.5242   21.1826 C   0  0  0  0  0  0
  -22.1656   -4.2141   21.0977 F   0  0  0  0  0  0
  -21.5637   -3.4535   25.7741 F   0  0  0  0  0  0
  -30.0389  -13.2596   20.4497 N   0  0  0  0  0  0
  -26.3031  -12.9332   20.3362 N   0  0  0  0  0  0
  -25.9312  -11.6493   20.5741 N   0  0  0  0  0  0
  -22.0489  -12.8243   22.0394 N   0  0  0  0  0  0
  -25.4342  -15.1887   20.4084 N   0  0  0  0  0  0
  -31.8117  -14.6517   20.0892 O   0  0  0  0  0  0
  -21.6635   -6.8870   21.4237 O   0  0  0  0  0  0
  -22.3525  -14.5546   20.6676 O   0  0  0  0  0  0
  -24.6144  -31.8693   23.2138 C   0  0  0  0  0  0
  -25.9044  -32.4831   23.8410 C   0  0  1  0  0  0
  -27.2308  -27.4402   20.0736 C   0  0  0  0  0  0
  -25.5901  -33.8628   24.2337 N   0  0  0  0  0  0
  -23.4007  -30.4973   21.5546 C   0  0  2  0  0  0
  -24.8438  -28.9714   20.1161 C   0  0  0  0  0  0
  -22.7414  -29.4662   22.4991 C   0  0  0  0  0  0
  -18.0269  -28.1371   22.8493 C   0  0  0  0  0  0
  -24.1488  -36.7319   23.2635 C   0  0  0  0  0  0
  -25.9323  -30.8367   21.3679 C   0  0  0  0  0  0
  -26.0075  -29.4733   20.7102 C   0  0  0  0  0  0
  -27.2022  -28.7156   20.6872 C   0  0  0  0  0  0
  -26.0340  -26.9533   19.4887 C   0  0  0  0  0  0
  -24.8512  -27.7096   19.5057 C   0  0  0  0  0  0
  -23.6079  -29.8378   20.1671 C   0  0  0  0  0  0
  -25.4110  -36.3116   24.0334 C   0  0  1  0  0  0
  -20.5862  -28.3658   23.1323 C   0  0  2  0  0  0
  -20.6763  -26.9394   22.5420 C   0  0  0  0  0  0
  -19.5740  -26.6384   21.5216 C   0  0  0  0  0  0
  -18.1916  -26.7917   22.1625 C   0  0  0  0  0  0
  -19.1518  -28.8831   23.2903 C   0  0  0  0  0  0
  -18.9446  -30.1439   23.8914 C   0  0  0  0  0  0
  -17.6448  -30.6579   24.0565 C   0  0  0  0  0  0
  -25.9034  -34.9479   23.5130 C   0  0  0  0  0  0
  -16.5340  -29.9084   23.6321 C   0  0  0  0  0  0
  -16.7258  -28.6498   23.0345 C   0  0  0  0  0  0
  -26.4480  -31.6603   25.0727 C   0  0  0  0  0  0
  -25.3749  -31.3713   26.1478 C   0  0  0  0  0  0
  -27.0301  -30.3039   24.6102 C   0  0  0  0  0  0
  -27.6056  -32.4322   25.7489 C   0  0  0  0  0  0
  -27.5580  -37.1814   24.8461 C   0  0  0  0  0  0
  -21.4141  -29.3027   22.3734 N   0  0  0  0  0  0
  -26.4296  -37.3800   23.9402 N   0  0  0  0  0  0
  -24.6673  -31.0810   22.1035 N   0  0  0  0  0  0
  -23.4195  -28.8182   23.3009 O   0  0  0  0  0  0
  -28.4134  -26.7186   20.0623 O   0  0  0  0  0  0
  -26.5592  -34.8924   22.4688 O   0  0  0  0  0  0
  -23.5338  -32.1438   23.7542 O   0  0  0  0  0  0
  -32.9859  -20.5534   21.5657 C   0  0  0  0  0  0
  -32.4746  -19.1397   21.2801 C   0  0  0  0  0  0
  -32.5908  -21.5150   20.4305 C   0  0  1  0  0  0
  -30.9521  -19.1329   21.0485 C   0  0  2  0  0  0
  -31.0617  -21.4342   20.1512 C   0  0  1  0  0  0
  -31.8786  -26.2877   16.7039 C   0  0  0  0  0  0
  -35.0570  -23.3808   22.0557 C   0  0  0  0  0  0
  -34.6437  -24.4863   19.8146 C   0  0  0  0  0  0
  -30.4178  -17.7212   20.6916 C   0  0  0  0  0  0
  -30.6745  -22.2328   18.8730 C   0  0  0  0  0  0
  -30.6930  -25.5389   17.3264 C   0  0  0  0  0  0
  -29.4598  -23.1797   19.0082 C   0  0  0  0  0  0
  -30.8285  -25.3969   18.8546 C   0  0  0  0  0  0
  -30.6590  -16.6431   21.7786 C   0  0  0  0  0  0
  -28.3570  -25.3894   19.5263 C   0  0  0  0  0  0
  -29.6950  -24.6146   19.5656 C   0  0  1  0  0  0
  -34.4307  -23.2199   20.6595 C   0  0  0  0  0  0
  -30.6542  -20.0370   19.9329 N   0  0  0  0  0  0
  -30.1281  -15.3245   21.4162 N   0  0  0  0  0  0
  -32.9846  -22.9064   20.7547 N   0  3  0  0  0  0
  -31.4654  -12.4038   19.1039 H   0  0  0  0  0  0
  -30.3263  -11.2788   19.7856 H   0  0  0  0  0  0
  -29.7275  -11.8038   17.4071 H   0  0  0  0  0  0
  -29.6637  -13.5081   17.7744 H   0  0  0  0  0  0
  -27.8148  -11.3219   18.7928 H   0  0  0  0  0  0
  -27.3609  -12.6677   17.7837 H   0  0  0  0  0  0
  -27.7193  -14.2577   19.5973 H   0  0  0  0  0  0
  -28.6694  -11.9093   21.3056 H   0  0  0  0  0  0
  -28.4558  -13.5253   21.8879 H   0  0  0  0  0  0
  -25.2756   -9.5694   22.4741 H   0  0  0  0  0  0
  -24.0000   -7.4637   22.7469 H   0  0  0  0  0  0
  -21.0827   -8.8773   19.8952 H   0  0  0  0  0  0
  -22.3692  -10.9664   19.6149 H   0  0  0  0  0  0
  -21.2007   -7.6139   23.9709 H   0  0  0  0  0  0
  -21.1491   -6.0516   25.9075 H   0  0  0  0  0  0
  -22.0598   -2.7600   23.2845 H   0  0  0  0  0  0
  -22.4096  -11.9906   22.4788 H   0  0  0  0  0  0
  -21.1107  -13.1275   22.2602 H   0  0  0  0  0  0
  -24.6756  -15.8532   20.5167 H   0  0  0  0  0  0
  -26.2972  -15.6215   20.1030 H   0  0  0  0  0  0
  -26.7108  -32.5552   23.1167 H   0  0  0  0  0  0
  -25.0049  -33.9795   25.0481 H   0  0  0  0  0  0
  -22.6878  -31.3137   21.4209 H   0  0  0  0  0  0
  -23.3744  -35.9658   23.3314 H   0  0  0  0  0  0
  -24.3581  -36.8919   22.2045 H   0  0  0  0  0  0
  -23.7252  -37.6532   23.6643 H   0  0  0  0  0  0
  -26.0469  -31.6075   20.6045 H   0  0  0  0  0  0
  -26.8195  -30.8846   21.9878 H   0  0  0  0  0  0
  -28.1031  -29.1061   21.1392 H   0  0  0  0  0  0
  -25.9746  -25.9905   19.0049 H   0  0  0  0  0  0
  -23.9544  -27.3191   19.0444 H   0  0  0  0  0  0
  -23.7177  -30.6153   19.4104 H   0  0  0  0  0  0
  -22.7321  -29.2590   19.8682 H   0  0  0  0  0  0
  -25.1289  -36.1979   25.0828 H   0  0  0  0  0  0
  -20.9948  -28.3220   24.1446 H   0  0  0  0  0  0
  -20.5676  -26.2257   23.3602 H   0  0  0  0  0  0
  -21.6633  -26.7445   22.1207 H   0  0  0  0  0  0
  -19.6903  -25.6306   21.1220 H   0  0  0  0  0  0
  -19.6674  -27.3217   20.6763 H   0  0  0  0  0  0
  -17.4189  -26.6668   21.4023 H   0  0  0  0  0  0
  -18.0311  -26.0055   22.9016 H   0  0  0  0  0  0
  -19.7923  -30.7247   24.2292 H   0  0  0  0  0  0
  -17.5005  -31.6261   24.5164 H   0  0  0  0  0  0
  -15.5341  -30.2990   23.7641 H   0  0  0  0  0  0
  -15.8657  -28.0828   22.7048 H   0  0  0  0  0  0
  -24.5910  -30.7074   25.7815 H   0  0  0  0  0  0
  -24.8959  -32.2875   26.4941 H   0  0  0  0  0  0
  -25.8102  -30.8865   27.0226 H   0  0  0  0  0  0
  -26.2837  -29.6808   24.1161 H   0  0  0  0  0  0
  -27.4066  -29.7268   25.4558 H   0  0  0  0  0  0
  -27.8681  -30.4342   23.9251 H   0  0  0  0  0  0
  -27.2667  -33.3604   26.2104 H   0  0  0  0  0  0
  -28.3849  -32.6914   25.0309 H   0  0  0  0  0  0
  -28.0747  -31.8426   26.5377 H   0  0  0  0  0  0
  -28.2608  -38.0103   24.7508 H   0  0  0  0  0  0
  -28.1065  -36.2634   24.6288 H   0  0  0  0  0  0
  -27.2292  -37.1472   25.8863 H   0  0  0  0  0  0
  -20.9295  -29.8757   21.6969 H   0  0  0  0  0  0
  -26.0182  -38.2875   24.1411 H   0  0  0  0  0  0
  -34.0685  -20.5213   21.6855 H   0  0  0  0  0  0
  -32.5713  -20.8977   22.5142 H   0  0  0  0  0  0
  -32.7333  -18.5106   22.1311 H   0  0  0  0  0  0
  -32.9935  -18.7182   20.4168 H   0  0  0  0  0  0
  -33.1131  -21.2157   19.5193 H   0  0  0  0  0  0
  -30.4394  -19.4922   21.9437 H   0  0  0  0  0  0
  -30.5151  -21.8199   21.0147 H   0  0  0  0  0  0
  -31.7202  -26.4513   15.6375 H   0  0  0  0  0  0
  -32.8069  -25.7258   16.8145 H   0  0  0  0  0  0
  -32.0212  -27.2635   17.1693 H   0  0  0  0  0  0
  -36.1280  -23.5724   21.9802 H   0  0  0  0  0  0
  -34.9367  -22.4839   22.6633 H   0  0  0  0  0  0
  -34.6157  -24.2154   22.6012 H   0  0  0  0  0  0
  -35.7055  -24.7145   19.7151 H   0  0  0  0  0  0
  -34.1637  -25.3571   20.2625 H   0  0  0  0  0  0
  -34.2475  -24.3659   18.8054 H   0  0  0  0  0  0
  -30.8716  -17.3884   19.7568 H   0  0  0  0  0  0
  -29.3455  -17.7882   20.4987 H   0  0  0  0  0  0
  -30.4380  -21.5328   18.0692 H   0  0  0  0  0  0
  -31.5269  -22.7754   18.4668 H   0  0  0  0  0  0
  -30.6181  -24.5575   16.8579 H   0  0  0  0  0  0
  -29.7726  -26.0693   17.0814 H   0  0  0  0  0  0
  -28.6936  -22.6778   19.6008 H   0  0  0  0  0  0
  -29.0148  -23.2756   18.0169 H   0  0  0  0  0  0
  -30.8937  -26.3931   19.2947 H   0  0  0  0  0  0
  -31.7861  -24.9338   19.0799 H   0  0  0  0  0  0
  -30.1903  -16.9553   22.7124 H   0  0  0  0  0  0
  -31.7236  -16.5373   21.9917 H   0  0  0  0  0  0
  -27.6172  -24.8189   20.0917 H   0  0  0  0  0  0
  -28.0145  -25.4298   18.4915 H   0  0  0  0  0  0
  -29.9780  -24.5185   20.6145 H   0  0  0  0  0  0
  -34.9481  -22.4039   20.1512 H   0  0  0  0  0  0
  -31.1282  -19.6855   19.1063 H   0  0  0  0  0  0
  -29.2409  -15.0548   21.8155 H   0  0  0  0  0  0
  -32.6344  -23.1611   21.6644 H   0  0  0  0  0  0
  -32.5165  -23.4893   20.0807 H   0  0  0  0  0  0
  1 25  1  0  0  0
  1 30  2  0  0  0
  1 89  1  0  0  0
  2  3  1  0  0  0
  2 25  1  0  0  0
  2 91  1  0  0  0
  2 92  1  0  0  0
  3  4  1  0  0  0
  3 93  1  0  0  0
  3 94  1  0  0  0
  4  5  1  0  0  0
  4 95  1  0  0  0
  4 96  1  0  0  0
  5  6  1  0  0  0
  5 26  1  0  0  0
  5 97  1  0  0  0
  6 25  1  0  0  0
  6 98  1  0  0  0
  6 99  1  0  0  0
  7  8  2  0  0  0
  7 26  1  0  0  0
  7 29  1  0  0  0
  8  9  1  0  0  0
  8 22  1  0  0  0
  9 10  1  0  0  0
  9 27  2  0  0  0
 10 11  2  0  0  0
 10 15  1  0  0  0
 11 12  1  0  0  0
 11100  1  0  0  0
 12 13  2  0  0  0
 12101  1  0  0  0
 13 14  1  0  0  0
 13 31  1  0  0  0
 14 15  2  0  0  0
 14102  1  0  0  0
 15103  1  0  0  0
 16 17  2  0  0  0
 16 21  1  0  0  0
 16 31  1  0  0  0
 17 18  1  0  0  0
 17104  1  0  0  0
 18 19  2  0  0  0
 18105  1  0  0  0
 19 20  1  0  0  0
 19 24  1  0  0  0
 20 21  2  0  0  0
 20106  1  0  0  0
 21 23  1  0  0  0
 22 28  1  0  0  0
 22 32  2  0  0  0
 26 27  1  0  0  0
 28107  1  0  0  0
 28108  1  0  0  0
 29109  1  0  0  0
 29110  1  0  0  0
 33 34  1  0  0  0
 33 66  1  0  0  0
 33 70  2  0  0  0
 34 36  1  0  0  0
 34 59  1  0  0  0
 34111  1  0  0  0
 35 44  2  0  0  0
 35 45  1  0  0  0
 35 68  1  0  0  0
 36 56  1  0  0  0
 36112  1  0  0  0
 37 39  1  0  0  0
 37 47  1  0  0  0
 37 66  1  0  0  0
 37113  1  0  0  0
 38 43  2  0  0  0
 38 46  1  0  0  0
 38 47  1  0  0  0
 39 64  1  0  0  0
 39 67  2  0  0  0
 40 52  1  0  0  0
 40 53  2  0  0  0
 40 58  1  0  0  0
 41114  1  0  0  0
 41115  1  0  0  0
 41116  1  0  0  0
 41 48  1  0  0  0
 42 43  1  0  0  0
 42 66  1  0  0  0
 42117  1  0  0  0
 42118  1  0  0  0
 43 44  1  0  0  0
 44119  1  0  0  0
 45 46  2  0  0  0
 45120  1  0  0  0
 46121  1  0  0  0
 47122  1  0  0  0
 47123  1  0  0  0
 48 56  1  0  0  0
 48 65  1  0  0  0
 48124  1  0  0  0
 49 50  1  0  0  0
 49 53  1  0  0  0
 49 64  1  0  0  0
 49125  1  0  0  0
 50 51  1  0  0  0
 50126  1  0  0  0
 50127  1  0  0  0
 51 52  1  0  0  0
 51128  1  0  0  0
 51129  1  0  0  0
 52130  1  0  0  0
 52131  1  0  0  0
 53 54  1  0  0  0
 54 55  2  0  0  0
 54132  1  0  0  0
 55 57  1  0  0  0
 55133  1  0  0  0
 56 69  2  0  0  0
 57 58  2  0  0  0
 57134  1  0  0  0
 58135  1  0  0  0
 59 60  1  0  0  0
 59 61  1  0  0  0
 59 62  1  0  0  0
 60136  1  0  0  0
 60137  1  0  0  0
 60138  1  0  0  0
 61139  1  0  0  0
 61140  1  0  0  0
 61141  1  0  0  0
 62142  1  0  0  0
 62143  1  0  0  0
 62144  1  0  0  0
 63 65  1  0  0  0
 63145  1  0  0  0
 63146  1  0  0  0
 63147  1  0  0  0
 64148  1  0  0  0
 65149  1  0  0  0
 68 85  1  0  0  0
 71 72  1  0  0  0
 71 73  1  0  0  0
 71150  1  0  0  0
 71151  1  0  0  0
 72 74  1  0  0  0
 72152  1  0  0  0
 72153  1  0  0  0
 73 75  1  0  0  0
 73 90  1  0  0  0
 73154  1  0  0  0
 74 79  1  0  0  0
 74 88  1  0  0  0
 74155  1  0  0  0
 75 80  1  0  0  0
 75 88  1  0  0  0
 75156  1  0  0  0
 76 81  1  0  0  0
 76157  1  0  0  0
 76158  1  0  0  0
 76159  1  0  0  0
 77160  1  0  0  0
 77161  1  0  0  0
 77162  1  0  0  0
 77 87  1  0  0  0
 78 87  1  0  0  0
 78163  1  0  0  0
 78164  1  0  0  0
 78165  1  0  0  0
 79 84  1  0  0  0
 79166  1  0  0  0
 79167  1  0  0  0
 80 82  1  0  0  0
 80168  1  0  0  0
 80169  1  0  0  0
 81 83  1  0  0  0
 81170  1  0  0  0
 81171  1  0  0  0
 82172  1  0  0  0
 82173  1  0  0  0
 82 86  1  0  0  0
 83 86  1  0  0  0
 83174  1  0  0  0
 83175  1  0  0  0
 84 89  1  0  0  0
 84176  1  0  0  0
 84177  1  0  0  0
 85 86  1  0  0  0
 85178  1  0  0  0
 85179  1  0  0  0
 86180  1  0  0  0
 87 90  1  0  0  0
 87181  1  0  0  0
 88182  1  0  0  0
 89183  1  0  0  0
 90184  1  0  0  0
 90185  1  0  0  0
M  CHG  1  90   1
M  ISO  4   1 100  68 101  85 101  89 100
M  END
> <chiral flag>
0

> <version>
0

> <s_m_source_file>
/data/baiqing/PycharmProjects/Reinvent-master-3.2/result/LINK_invent/BTK/process_docking_weight1_custom_sum_contain_oxygen_bond_distance_aromatic_linkinvent_7_9_3/rearranged_h_0120.sdf

> <i_m_source_file_index>
93

> <r_mmod_Potential_Energy-OPLS-2005>
-126.489616394043

> <r_mmod_Stretch_Energy-OPLS-2005>
38.7383995056152

> <r_mmod_Bend_Energy-OPLS-2005>
110.573776245117

> <r_mmod_Torsional_Energy-OPLS-2005>
268.583618164062

> <r_mmod_Improper_Torsional_Energy-OPLS-2005>
1.90412771701813

> <r_mmod_Van_der_Waal_Energy-OPLS-2005>
141.078384399414

> <r_mmod_Electrostatic_Energy-OPLS-2005>
-263.705047607422

> <r_mmod_Solvation_Energy-OPLS-2005>
-432.817260742188

> <b_mmod_Minimization_Converged-OPLS-2005>
0

> <r_mmod_RMS_Derivative-OPLS-2005>
1.31891167163849

$$$$
94
                    3D
 Structure written by MMmdl.
168176  0  0  1  0            999 V2000
  -30.7057  -14.4174   20.6385 C   0  0  0  0  0  0
  -30.4288  -12.2858   19.4332 C   0  0  0  0  0  0
  -29.5036  -12.5174   18.2188 C   0  0  0  0  0  0
  -28.0220  -12.3814   18.6211 C   0  0  0  0  0  0
  -27.6724  -13.2027   19.8915 C   0  0  2  0  0  0
  -28.7039  -12.9351   21.0105 C   0  0  0  0  0  0
  -25.2584  -13.8111   20.5709 C   0  0  0  0  0  0
  -24.1832  -13.0409   20.9172 C   0  0  0  0  0  0
  -24.6402  -11.6897   20.8727 C   0  0  0  0  0  0
  -23.9065  -10.4297   21.0379 C   0  0  0  0  0  0
  -24.3628   -9.4228   21.9146 C   0  0  0  0  0  0
  -23.6310   -8.2263   22.0731 C   0  0  0  0  0  0
  -22.4285   -8.0301   21.3530 C   0  0  0  0  0  0
  -21.9914   -9.0271   20.4620 C   0  0  0  0  0  0
  -22.7235  -10.2145   20.3019 C   0  0  0  0  0  0
  -21.6853   -6.0765   22.5293 C   0  0  0  0  0  0
  -21.4011   -6.5646   23.8230 C   0  0  0  0  0  0
  -21.3639   -5.6788   24.9184 C   0  0  0  0  0  0
  -21.6066   -4.3064   24.7223 C   0  0  0  0  0  0
  -21.8837   -3.8158   23.4342 C   0  0  0  0  0  0
  -21.9207   -4.6992   22.3411 C   0  0  0  0  0  0
  -22.7858  -13.5212   21.1848 C   0  0  0  0  0  0
  -22.1678   -4.2196   21.0986 F   0  0  0  0  0  0
  -21.5635   -3.4531   25.7722 F   0  0  0  0  0  0
  -30.0518  -13.2337   20.4909 N   0  0  0  0  0  0
  -26.3075  -12.9321   20.3417 N   0  0  0  0  0  0
  -25.9349  -11.6480   20.5807 N   0  0  0  0  0  0
  -22.0511  -12.8165   22.0389 N   0  0  0  0  0  0
  -25.4173  -15.1819   20.4208 N   0  0  0  0  0  0
  -31.7578  -14.6930   20.0538 O   0  0  0  0  0  0
  -21.6623   -6.8915   21.4257 O   0  0  0  0  0  0
  -22.3538  -14.5547   20.6753 O   0  0  0  0  0  0
  -24.6057  -31.8729   23.2131 C   0  0  0  0  0  0
  -25.8964  -32.4860   23.8416 C   0  0  1  0  0  0
  -27.2330  -27.4925   20.1146 C   0  0  0  0  0  0
  -25.5840  -33.8666   24.2357 N   0  0  0  0  0  0
  -23.3916  -30.4943   21.5471 C   0  0  2  0  0  0
  -24.8412  -28.9661   20.1122 C   0  0  0  0  0  0
  -22.7336  -29.4700   22.4970 C   0  0  0  0  0  0
  -18.0263  -28.1391   22.8476 C   0  0  0  0  0  0
  -24.1492  -36.7336   23.2635 C   0  0  0  0  0  0
  -25.9107  -30.8633   21.3516 C   0  0  0  0  0  0
  -25.9917  -29.4969   20.7110 C   0  0  0  0  0  0
  -27.1910  -28.7642   20.7166 C   0  0  0  0  0  0
  -26.0810  -26.9654   19.5010 C   0  0  0  0  0  0
  -24.8769  -27.6967   19.5051 C   0  0  0  0  0  0
  -23.5973  -29.8234   20.1620 C   0  0  0  0  0  0
  -25.4105  -36.3152   24.0350 C   0  0  1  0  0  0
  -20.5836  -28.3649   23.1307 C   0  0  2  0  0  0
  -20.6716  -26.9384   22.5399 C   0  0  0  0  0  0
  -19.5678  -26.6330   21.5208 C   0  0  0  0  0  0
  -18.1867  -26.7932   22.1608 C   0  0  0  0  0  0
  -19.1518  -28.8833   23.2899 C   0  0  0  0  0  0
  -18.9456  -30.1435   23.8924 C   0  0  0  0  0  0
  -17.6465  -30.6575   24.0606 C   0  0  0  0  0  0
  -25.9024  -34.9502   23.5149 C   0  0  0  0  0  0
  -16.5328  -29.9103   23.6364 C   0  0  0  0  0  0
  -16.7254  -28.6527   23.0368 C   0  0  0  0  0  0
  -26.4468  -31.6616   25.0691 C   0  0  0  0  0  0
  -25.3798  -31.3683   26.1480 C   0  0  0  0  0  0
  -27.0295  -30.3078   24.5969 C   0  0  0  0  0  0
  -27.6064  -32.4343   25.7411 C   0  0  0  0  0  0
  -27.5590  -37.1825   24.8465 C   0  0  0  0  0  0
  -21.4085  -29.3003   22.3682 N   0  0  0  0  0  0
  -26.4309  -37.3809   23.9417 N   0  0  0  0  0  0
  -24.6534  -31.0886   22.0980 N   0  0  0  0  0  0
  -23.4117  -28.8278   23.3039 O   0  0  0  0  0  0
  -28.3903  -26.7658   20.1438 O   0  0  0  0  0  0
  -26.5596  -34.8929   22.4726 O   0  0  0  0  0  0
  -23.5261  -32.1423   23.7587 O   0  0  0  0  0  0
  -27.9868  -18.5659   20.8710 C   0  0  0  0  0  0
  -30.4238  -19.1203   20.5118 C   0  0  0  0  0  0
  -28.2976  -17.0811   21.1588 C   0  0  0  0  0  0
  -30.7217  -17.7902   21.2621 C   0  0  0  0  0  0
  -29.0069  -19.1464   19.8796 C   0  0  2  0  0  0
  -29.7504  -16.6766   20.8222 C   0  0  1  0  0  0
  -28.6095  -20.4615   19.1896 C   0  0  0  0  0  0
  -28.3026  -21.6963   20.0512 C   0  0  0  0  0  0
  -28.3471  -24.6101   21.2015 C   0  0  0  0  0  0
  -26.9493  -21.7040   20.8052 C   0  0  0  0  0  0
  -27.0334  -24.0543   21.8072 C   0  0  0  0  0  0
  -28.6045  -26.1136   21.3977 C   0  0  0  0  0  0
  -30.0334  -15.3389   21.3454 N   0  0  0  0  0  0
  -26.3428  -23.0548   20.9480 N   0  3  0  0  0  0
  -31.4760  -12.3912   19.1452 H   0  0  0  0  0  0
  -30.3239  -11.2660   19.8077 H   0  0  0  0  0  0
  -29.7405  -11.8108   17.4220 H   0  0  0  0  0  0
  -29.6778  -13.5122   17.8041 H   0  0  0  0  0  0
  -27.8165  -11.3252   18.7981 H   0  0  0  0  0  0
  -27.3772  -12.6804   17.7932 H   0  0  0  0  0  0
  -27.7339  -14.2563   19.6200 H   0  0  0  0  0  0
  -28.6605  -11.8872   21.3095 H   0  0  0  0  0  0
  -28.4564  -13.4996   21.9097 H   0  0  0  0  0  0
  -25.2800   -9.5705   22.4678 H   0  0  0  0  0  0
  -24.0043   -7.4658   22.7445 H   0  0  0  0  0  0
  -21.0833   -8.8790   19.8934 H   0  0  0  0  0  0
  -22.3702  -10.9684   19.6116 H   0  0  0  0  0  0
  -21.1986   -7.6154   23.9726 H   0  0  0  0  0  0
  -21.1397   -6.0516   25.9077 H   0  0  0  0  0  0
  -22.0609   -2.7616   23.2832 H   0  0  0  0  0  0
  -22.4131  -11.9809   22.4733 H   0  0  0  0  0  0
  -21.1157  -13.1174   22.2691 H   0  0  0  0  0  0
  -24.6685  -15.8383   20.6116 H   0  0  0  0  0  0
  -26.2647  -15.6260   20.0969 H   0  0  0  0  0  0
  -26.7026  -32.5607   23.1205 H   0  0  0  0  0  0
  -25.0021  -33.9845   25.0503 H   0  0  0  0  0  0
  -22.6802  -31.3107   21.4074 H   0  0  0  0  0  0
  -23.3749  -35.9678   23.3317 H   0  0  0  0  0  0
  -24.3593  -36.8905   22.2046 H   0  0  0  0  0  0
  -23.7243  -37.6551   23.6622 H   0  0  0  0  0  0
  -26.0001  -31.6247   20.5756 H   0  0  0  0  0  0
  -26.8052  -30.9267   21.9594 H   0  0  0  0  0  0
  -28.0797  -29.1683   21.1793 H   0  0  0  0  0  0
  -26.1155  -25.9929   19.0354 H   0  0  0  0  0  0
  -23.9935  -27.2808   19.0406 H   0  0  0  0  0  0
  -23.6938  -30.5965   19.3945 H   0  0  0  0  0  0
  -22.7248  -29.2326   19.8769 H   0  0  0  0  0  0
  -25.1284  -36.2045   25.0843 H   0  0  0  0  0  0
  -20.9934  -28.3268   24.1438 H   0  0  0  0  0  0
  -21.6558  -26.7443   22.1139 H   0  0  0  0  0  0
  -20.5651  -26.2252   23.3585 H   0  0  0  0  0  0
  -19.6814  -25.6191   21.1330 H   0  0  0  0  0  0
  -19.6650  -27.3029   20.6664 H   0  0  0  0  0  0
  -17.4121  -26.6744   21.4023 H   0  0  0  0  0  0
  -18.0204  -26.0058   22.8967 H   0  0  0  0  0  0
  -19.7947  -30.7237   24.2281 H   0  0  0  0  0  0
  -17.5059  -31.6252   24.5246 H   0  0  0  0  0  0
  -15.5343  -30.3042   23.7683 H   0  0  0  0  0  0
  -15.8661  -28.0861   22.7068 H   0  0  0  0  0  0
  -24.5971  -30.7023   25.7839 H   0  0  0  0  0  0
  -24.8992  -32.2814   26.4995 H   0  0  0  0  0  0
  -25.8190  -30.8840   27.0203 H   0  0  0  0  0  0
  -26.2831  -29.6881   24.0956 H   0  0  0  0  0  0
  -27.4068  -29.7247   25.4379 H   0  0  0  0  0  0
  -27.8664  -30.4461   23.9095 H   0  0  0  0  0  0
  -27.2736  -33.3679   26.1984 H   0  0  0  0  0  0
  -28.3854  -32.6850   25.0184 H   0  0  0  0  0  0
  -28.0781  -31.8462   26.5303 H   0  0  0  0  0  0
  -28.2625  -38.0117   24.7512 H   0  0  0  0  0  0
  -28.1075  -36.2632   24.6297 H   0  0  0  0  0  0
  -27.2310  -37.1485   25.8875 H   0  0  0  0  0  0
  -20.9246  -29.8579   21.6762 H   0  0  0  0  0  0
  -26.0205  -38.2899   24.1394 H   0  0  0  0  0  0
  -28.0322  -19.1309   21.8041 H   0  0  0  0  0  0
  -26.9649  -18.6643   20.5001 H   0  0  0  0  0  0
  -31.1640  -19.2648   19.7250 H   0  0  0  0  0  0
  -30.5580  -19.9587   21.1943 H   0  0  0  0  0  0
  -27.6389  -16.4648   20.5600 H   0  0  0  0  0  0
  -28.0573  -16.8672   22.2013 H   0  0  0  0  0  0
  -30.6215  -17.9500   22.3368 H   0  0  0  0  0  0
  -31.7565  -17.4964   21.0855 H   0  0  0  0  0  0
  -29.0351  -18.4614   19.0301 H   0  0  0  0  0  0
  -29.8265  -16.5916   19.7369 H   0  0  0  0  0  0
  -27.7581  -20.2741   18.5324 H   0  0  0  0  0  0
  -29.4271  -20.7260   18.5156 H   0  0  0  0  0  0
  -28.2933  -22.5108   19.3307 H   0  0  0  0  0  0
  -29.1241  -21.8945   20.7387 H   0  0  0  0  0  0
  -28.3791  -24.4459   20.1274 H   0  0  0  0  0  0
  -29.1844  -24.0518   21.6172 H   0  0  0  0  0  0
  -27.0513  -21.2491   21.7889 H   0  0  0  0  0  0
  -26.2266  -21.0895   20.2623 H   0  0  0  0  0  0
  -26.3310  -24.8704   21.9745 H   0  0  0  0  0  0
  -27.2265  -23.6169   22.7880 H   0  0  0  0  0  0
  -29.6416  -26.2775   21.6920 H   0  0  0  0  0  0
  -27.9978  -26.5232   22.2087 H   0  0  0  0  0  0
  -29.3077  -14.9600   21.9352 H   0  0  0  0  0  0
  -25.4371  -22.9114   21.3706 H   0  0  0  0  0  0
  -26.1598  -23.4445   20.0377 H   0  0  0  0  0  0
  1 25  1  0  0  0
  1 30  2  0  0  0
  1 83  1  0  0  0
  2  3  1  0  0  0
  2 25  1  0  0  0
  2 85  1  0  0  0
  2 86  1  0  0  0
  3  4  1  0  0  0
  3 87  1  0  0  0
  3 88  1  0  0  0
  4  5  1  0  0  0
  4 89  1  0  0  0
  4 90  1  0  0  0
  5  6  1  0  0  0
  5 26  1  0  0  0
  5 91  1  0  0  0
  6 25  1  0  0  0
  6 92  1  0  0  0
  6 93  1  0  0  0
  7  8  2  0  0  0
  7 26  1  0  0  0
  7 29  1  0  0  0
  8  9  1  0  0  0
  8 22  1  0  0  0
  9 10  1  0  0  0
  9 27  2  0  0  0
 10 11  2  0  0  0
 10 15  1  0  0  0
 11 12  1  0  0  0
 11 94  1  0  0  0
 12 13  2  0  0  0
 12 95  1  0  0  0
 13 14  1  0  0  0
 13 31  1  0  0  0
 14 15  2  0  0  0
 14 96  1  0  0  0
 15 97  1  0  0  0
 16 17  2  0  0  0
 16 21  1  0  0  0
 16 31  1  0  0  0
 17 18  1  0  0  0
 17 98  1  0  0  0
 18 19  2  0  0  0
 18 99  1  0  0  0
 19 20  1  0  0  0
 19 24  1  0  0  0
 20 21  2  0  0  0
 20100  1  0  0  0
 21 23  1  0  0  0
 22 28  1  0  0  0
 22 32  2  0  0  0
 26 27  1  0  0  0
 28101  1  0  0  0
 28102  1  0  0  0
 29103  1  0  0  0
 29104  1  0  0  0
 33 34  1  0  0  0
 33 66  1  0  0  0
 33 70  2  0  0  0
 34 36  1  0  0  0
 34 59  1  0  0  0
 34105  1  0  0  0
 35 44  2  0  0  0
 35 45  1  0  0  0
 35 68  1  0  0  0
 36 56  1  0  0  0
 36106  1  0  0  0
 37 39  1  0  0  0
 37 47  1  0  0  0
 37 66  1  0  0  0
 37107  1  0  0  0
 38 43  2  0  0  0
 38 46  1  0  0  0
 38 47  1  0  0  0
 39 64  1  0  0  0
 39 67  2  0  0  0
 40 52  1  0  0  0
 40 53  2  0  0  0
 40 58  1  0  0  0
 41108  1  0  0  0
 41109  1  0  0  0
 41110  1  0  0  0
 41 48  1  0  0  0
 42 43  1  0  0  0
 42 66  1  0  0  0
 42111  1  0  0  0
 42112  1  0  0  0
 43 44  1  0  0  0
 44113  1  0  0  0
 45 46  2  0  0  0
 45114  1  0  0  0
 46115  1  0  0  0
 47116  1  0  0  0
 47117  1  0  0  0
 48 56  1  0  0  0
 48 65  1  0  0  0
 48118  1  0  0  0
 49 50  1  0  0  0
 49 53  1  0  0  0
 49 64  1  0  0  0
 49119  1  0  0  0
 50 51  1  0  0  0
 50120  1  0  0  0
 50121  1  0  0  0
 51 52  1  0  0  0
 51122  1  0  0  0
 51123  1  0  0  0
 52124  1  0  0  0
 52125  1  0  0  0
 53 54  1  0  0  0
 54 55  2  0  0  0
 54126  1  0  0  0
 55 57  1  0  0  0
 55127  1  0  0  0
 56 69  2  0  0  0
 57 58  2  0  0  0
 57128  1  0  0  0
 58129  1  0  0  0
 59 60  1  0  0  0
 59 61  1  0  0  0
 59 62  1  0  0  0
 60130  1  0  0  0
 60131  1  0  0  0
 60132  1  0  0  0
 61133  1  0  0  0
 61134  1  0  0  0
 61135  1  0  0  0
 62136  1  0  0  0
 62137  1  0  0  0
 62138  1  0  0  0
 63 65  1  0  0  0
 63139  1  0  0  0
 63140  1  0  0  0
 63141  1  0  0  0
 64142  1  0  0  0
 65143  1  0  0  0
 68 82  1  0  0  0
 71 73  1  0  0  0
 71 75  1  0  0  0
 71144  1  0  0  0
 71145  1  0  0  0
 72 74  1  0  0  0
 72 75  1  0  0  0
 72146  1  0  0  0
 72147  1  0  0  0
 73 76  1  0  0  0
 73148  1  0  0  0
 73149  1  0  0  0
 74 76  1  0  0  0
 74150  1  0  0  0
 74151  1  0  0  0
 75 77  1  0  0  0
 75152  1  0  0  0
 76 83  1  0  0  0
 76153  1  0  0  0
 77 78  1  0  0  0
 77154  1  0  0  0
 77155  1  0  0  0
 78 80  1  0  0  0
 78156  1  0  0  0
 78157  1  0  0  0
 79 81  1  0  0  0
 79 82  1  0  0  0
 79158  1  0  0  0
 79159  1  0  0  0
 80 84  1  0  0  0
 80160  1  0  0  0
 80161  1  0  0  0
 81 84  1  0  0  0
 81162  1  0  0  0
 81163  1  0  0  0
 82164  1  0  0  0
 82165  1  0  0  0
 83166  1  0  0  0
 84167  1  0  0  0
 84168  1  0  0  0
M  CHG  1  84   1
M  ISO  4   1 100  68 101  82 101  83 100
M  END
> <chiral flag>
0

> <version>
0

> <s_m_source_file>
/data/baiqing/PycharmProjects/Reinvent-master-3.2/result/LINK_invent/BTK/process_docking_weight1_custom_sum_contain_oxygen_bond_distance_aromatic_linkinvent_7_9_3/rearranged_h_0120.sdf

> <i_m_source_file_index>
94

> <r_mmod_Potential_Energy-OPLS-2005>
-107.073661804199

> <r_mmod_Stretch_Energy-OPLS-2005>
33.5389595031738

> <r_mmod_Bend_Energy-OPLS-2005>
113.219062805176

> <r_mmod_Torsional_Energy-OPLS-2005>
326.127166748047

> <r_mmod_Improper_Torsional_Energy-OPLS-2005>
6.38772964477539

> <r_mmod_Van_der_Waal_Energy-OPLS-2005>
143.645263671875

> <r_mmod_Electrostatic_Energy-OPLS-2005>
-280.9736328125

> <r_mmod_Solvation_Energy-OPLS-2005>
-457.559265136719

> <b_mmod_Minimization_Converged-OPLS-2005>
0

> <r_mmod_RMS_Derivative-OPLS-2005>
4.79910135269165

$$$$
95
                    3D
 Structure written by MMmdl.
160168  0  0  1  0            999 V2000
  -30.5870  -14.7415   20.4602 C   0  0  0  0  0  0
  -30.4463  -12.4558   19.4589 C   0  0  0  0  0  0
  -29.5155  -12.5102   18.2262 C   0  0  0  0  0  0
  -28.0417  -12.3208   18.6455 C   0  0  0  0  0  0
  -27.6473  -13.2218   19.8476 C   0  0  2  0  0  0
  -28.6901  -13.1346   20.9809 C   0  0  0  0  0  0
  -25.2556  -13.8188   20.5622 C   0  0  0  0  0  0
  -24.1814  -13.0471   20.9143 C   0  0  0  0  0  0
  -24.6381  -11.6940   20.8716 C   0  0  0  0  0  0
  -23.9058  -10.4316   21.0395 C   0  0  0  0  0  0
  -24.3615   -9.4236   21.9182 C   0  0  0  0  0  0
  -23.6284   -8.2279   22.0770 C   0  0  0  0  0  0
  -22.4272   -8.0297   21.3550 C   0  0  0  0  0  0
  -21.9901   -9.0272   20.4657 C   0  0  0  0  0  0
  -22.7235  -10.2141   20.3046 C   0  0  0  0  0  0
  -21.6859   -6.0737   22.5268 C   0  0  0  0  0  0
  -21.4030   -6.5646   23.8199 C   0  0  0  0  0  0
  -21.3655   -5.6792   24.9157 C   0  0  0  0  0  0
  -21.6034   -4.3057   24.7201 C   0  0  0  0  0  0
  -21.8828   -3.8147   23.4326 C   0  0  0  0  0  0
  -21.9198   -4.6972   22.3386 C   0  0  0  0  0  0
  -22.7844  -13.5280   21.1771 C   0  0  0  0  0  0
  -22.1662   -4.2163   21.0960 F   0  0  0  0  0  0
  -21.5631   -3.4531   25.7707 F   0  0  0  0  0  0
  -29.9893  -13.5025   20.4013 N   0  0  0  0  0  0
  -26.2971  -12.9363   20.3256 N   0  0  0  0  0  0
  -25.9311  -11.6529   20.5716 N   0  0  0  0  0  0
  -22.0439  -12.8321   22.0323 N   0  0  0  0  0  0
  -25.4338  -15.1898   20.3976 N   0  0  0  0  0  0
  -31.7744  -14.8682   20.1484 O   0  0  0  0  0  0
  -21.6659   -6.8883   21.4225 O   0  0  0  0  0  0
  -22.3556  -14.5574   20.6583 O   0  0  0  0  0  0
  -24.6279  -31.8534   23.1948 C   0  0  0  0  0  0
  -25.9112  -32.4741   23.8264 C   0  0  1  0  0  0
  -27.2106  -27.2569   20.1480 C   0  0  0  0  0  0
  -25.5878  -33.8528   24.2185 N   0  0  0  0  0  0
  -23.4231  -30.4757   21.5388 C   0  0  2  0  0  0
  -24.8681  -28.9099   20.1187 C   0  0  0  0  0  0
  -22.7468  -29.4604   22.4914 C   0  0  0  0  0  0
  -18.0289  -28.1431   22.8506 C   0  0  0  0  0  0
  -24.1467  -36.7278   23.2645 C   0  0  0  0  0  0
  -25.9649  -30.7687   21.3702 C   0  0  0  0  0  0
  -26.0381  -29.3850   20.7265 C   0  0  0  0  0  0
  -27.2141  -28.5708   20.7238 C   0  0  0  0  0  0
  -26.0225  -26.8408   19.5186 C   0  0  0  0  0  0
  -24.8637  -27.6450   19.5055 C   0  0  0  0  0  0
  -23.6391  -29.7966   20.1592 C   0  0  0  0  0  0
  -25.4100  -36.3052   24.0310 C   0  0  1  0  0  0
  -20.5889  -28.3716   23.1290 C   0  0  2  0  0  0
  -20.6758  -26.9427   22.5433 C   0  0  0  0  0  0
  -19.5720  -26.6414   21.5241 C   0  0  0  0  0  0
  -18.1913  -26.7972   22.1662 C   0  0  0  0  0  0
  -19.1551  -28.8894   23.2891 C   0  0  0  0  0  0
  -18.9472  -30.1505   23.8888 C   0  0  0  0  0  0
  -17.6474  -30.6626   24.0598 C   0  0  0  0  0  0
  -25.9047  -34.9432   23.5063 C   0  0  0  0  0  0
  -16.5360  -29.9121   23.6377 C   0  0  0  0  0  0
  -16.7280  -28.6556   23.0364 C   0  0  0  0  0  0
  -26.4471  -31.6576   25.0665 C   0  0  0  0  0  0
  -25.3691  -31.3750   26.1389 C   0  0  0  0  0  0
  -27.0290  -30.2972   24.6166 C   0  0  0  0  0  0
  -27.5996  -32.4336   25.7464 C   0  0  0  0  0  0
  -27.5559  -37.1789   24.8459 C   0  0  0  0  0  0
  -21.4185  -29.3044   22.3647 N   0  0  0  0  0  0
  -26.4274  -37.3765   23.9414 N   0  0  0  0  0  0
  -24.6913  -31.0505   22.0926 N   0  0  0  0  0  0
  -23.4180  -28.8157   23.3011 O   0  0  0  0  0  0
  -28.3397  -26.4190   20.0854 O   0  0  0  0  0  0
  -26.5675  -34.8922   22.4665 O   0  0  0  0  0  0
  -23.5443  -32.1331   23.7287 O   0  0  0  0  0  0
  -29.8567  -22.0519   19.3742 C   0  0  0  0  0  0
  -28.6552  -22.3122   19.9910 C   0  0  0  0  0  0
  -29.1380  -20.0130   20.0529 C   0  0  0  0  0  0
  -26.4157  -23.3790   20.6048 C   0  0  0  0  0  0
  -31.5703  -20.6805   17.3211 C   0  0  0  0  0  0
  -28.9462  -18.4281   20.1908 C   0  0  0  0  0  0
  -30.1024  -17.3539   20.6114 C   0  0  0  0  0  0
  -28.4018  -25.0296   20.6672 C   0  0  0  0  0  0
  -27.8085  -23.6645   20.0157 C   0  0  1  0  0  0
  -31.1830  -20.0084   18.6480 C   0  0  2  0  0  0
  -30.0809  -20.6797   19.3549 N   0  0  0  0  0  0
  -28.2668  -21.0171   20.4142 N   0  3  0  0  0  0
  -29.7762  -15.8516   20.6611 N   0  0  0  0  0  0
  -32.5586  -20.0034   19.7848 Cl  0  0  0  0  0  0
  -31.4855  -12.6032   19.1520 H   0  0  0  0  0  0
  -30.4160  -11.4727   19.9305 H   0  0  0  0  0  0
  -29.8046  -11.7502   17.4981 H   0  0  0  0  0  0
  -29.6338  -13.4745   17.7257 H   0  0  0  0  0  0
  -27.9059  -11.2714   18.9120 H   0  0  0  0  0  0
  -27.3806  -12.5029   17.7969 H   0  0  0  0  0  0
  -27.6533  -14.2465   19.4728 H   0  0  0  0  0  0
  -28.7217  -12.1260   21.3950 H   0  0  0  0  0  0
  -28.4289  -13.7939   21.8090 H   0  0  0  0  0  0
  -25.2760   -9.5747   22.4750 H   0  0  0  0  0  0
  -24.0000   -7.4690   22.7521 H   0  0  0  0  0  0
  -21.0829   -8.8785   19.8963 H   0  0  0  0  0  0
  -22.3698  -10.9668   19.6142 H   0  0  0  0  0  0
  -21.2038   -7.6154   23.9701 H   0  0  0  0  0  0
  -21.1462   -6.0521   25.9059 H   0  0  0  0  0  0
  -22.0609   -2.7616   23.2809 H   0  0  0  0  0  0
  -22.4031  -12.0035   22.4827 H   0  0  0  0  0  0
  -21.1053  -13.1428   22.2445 H   0  0  0  0  0  0
  -24.6689  -15.8483   20.4822 H   0  0  0  0  0  0
  -26.2779  -15.6053   20.0267 H   0  0  0  0  0  0
  -26.7157  -32.5401   23.0988 H   0  0  0  0  0  0
  -24.9870  -33.9611   25.0216 H   0  0  0  0  0  0
  -22.7214  -31.2991   21.3892 H   0  0  0  0  0  0
  -23.3715  -35.9626   23.3308 H   0  0  0  0  0  0
  -24.3546  -36.8918   22.2059 H   0  0  0  0  0  0
  -23.7228  -37.6473   23.6690 H   0  0  0  0  0  0
  -26.0898  -31.5194   20.5894 H   0  0  0  0  0  0
  -26.8482  -30.8316   21.9934 H   0  0  0  0  0  0
  -28.1192  -28.9380   21.1870 H   0  0  0  0  0  0
  -25.9835  -25.8827   19.0220 H   0  0  0  0  0  0
  -23.9690  -27.2789   19.0243 H   0  0  0  0  0  0
  -23.7595  -30.5609   19.3911 H   0  0  0  0  0  0
  -22.7570  -29.2236   19.8681 H   0  0  0  0  0  0
  -25.1285  -36.1875   25.0802 H   0  0  0  0  0  0
  -21.0018  -28.3311   24.1398 H   0  0  0  0  0  0
  -20.5679  -26.2310   23.3633 H   0  0  0  0  0  0
  -21.6622  -26.7447   22.1214 H   0  0  0  0  0  0
  -19.6849  -25.6321   21.1272 H   0  0  0  0  0  0
  -19.6665  -27.3226   20.6766 H   0  0  0  0  0  0
  -17.4174  -26.6754   21.4067 H   0  0  0  0  0  0
  -18.0297  -26.0122   22.9066 H   0  0  0  0  0  0
  -19.7939  -30.7366   24.2213 H   0  0  0  0  0  0
  -17.5018  -31.6308   24.5205 H   0  0  0  0  0  0
  -15.5351  -30.3028   23.7719 H   0  0  0  0  0  0
  -15.8677  -28.0900   22.7044 H   0  0  0  0  0  0
  -24.5864  -30.7097   25.7722 H   0  0  0  0  0  0
  -24.8889  -32.2937   26.4769 H   0  0  0  0  0  0
  -25.8015  -30.8956   27.0179 H   0  0  0  0  0  0
  -26.2845  -29.6743   24.1200 H   0  0  0  0  0  0
  -27.3913  -29.7233   25.4700 H   0  0  0  0  0  0
  -27.8753  -30.4164   23.9402 H   0  0  0  0  0  0
  -27.2542  -33.3622   26.2012 H   0  0  0  0  0  0
  -28.3842  -32.6930   25.0349 H   0  0  0  0  0  0
  -28.0617  -31.8487   26.5420 H   0  0  0  0  0  0
  -28.2591  -38.0080   24.7527 H   0  0  0  0  0  0
  -28.1051  -36.2614   24.6272 H   0  0  0  0  0  0
  -27.2291  -37.1431   25.8871 H   0  0  0  0  0  0
  -20.9362  -29.8697   21.6798 H   0  0  0  0  0  0
  -26.0129  -38.2826   24.1462 H   0  0  0  0  0  0
  -30.5144  -22.7394   18.8627 H   0  0  0  0  0  0
  -25.8691  -22.6571   19.9951 H   0  0  0  0  0  0
  -25.8090  -24.2822   20.6558 H   0  0  0  0  0  0
  -26.4833  -22.9910   21.6214 H   0  0  0  0  0  0
  -30.6977  -20.8022   16.6777 H   0  0  0  0  0  0
  -32.2938  -20.0672   16.7828 H   0  0  0  0  0  0
  -32.0158  -21.6643   17.4682 H   0  0  0  0  0  0
  -28.5783  -18.1240   19.2099 H   0  0  0  0  0  0
  -28.1011  -18.3084   20.8666 H   0  0  0  0  0  0
  -30.4671  -17.6261   21.6028 H   0  0  0  0  0  0
  -30.9640  -17.4584   19.9538 H   0  0  0  0  0  0
  -29.4728  -24.8550   20.7655 H   0  0  0  0  0  0
  -28.0549  -25.0927   21.6997 H   0  0  0  0  0  0
  -27.6489  -23.9098   18.9645 H   0  0  0  0  0  0
  -30.8984  -18.9820   18.4334 H   0  0  0  0  0  0
  -27.3946  -20.8320   20.8943 H   0  0  0  0  0  0
  -28.8169  -15.6267   20.8800 H   0  0  0  0  0  0
  1 25  1  0  0  0
  1 30  2  0  0  0
  1 83  1  0  0  0
  2  3  1  0  0  0
  2 25  1  0  0  0
  2 85  1  0  0  0
  2 86  1  0  0  0
  3  4  1  0  0  0
  3 87  1  0  0  0
  3 88  1  0  0  0
  4  5  1  0  0  0
  4 89  1  0  0  0
  4 90  1  0  0  0
  5  6  1  0  0  0
  5 26  1  0  0  0
  5 91  1  0  0  0
  6 25  1  0  0  0
  6 92  1  0  0  0
  6 93  1  0  0  0
  7  8  2  0  0  0
  7 26  1  0  0  0
  7 29  1  0  0  0
  8  9  1  0  0  0
  8 22  1  0  0  0
  9 10  1  0  0  0
  9 27  2  0  0  0
 10 11  2  0  0  0
 10 15  1  0  0  0
 11 12  1  0  0  0
 11 94  1  0  0  0
 12 13  2  0  0  0
 12 95  1  0  0  0
 13 14  1  0  0  0
 13 31  1  0  0  0
 14 15  2  0  0  0
 14 96  1  0  0  0
 15 97  1  0  0  0
 16 17  2  0  0  0
 16 21  1  0  0  0
 16 31  1  0  0  0
 17 18  1  0  0  0
 17 98  1  0  0  0
 18 19  2  0  0  0
 18 99  1  0  0  0
 19 20  1  0  0  0
 19 24  1  0  0  0
 20 21  2  0  0  0
 20100  1  0  0  0
 21 23  1  0  0  0
 22 28  1  0  0  0
 22 32  2  0  0  0
 26 27  1  0  0  0
 28101  1  0  0  0
 28102  1  0  0  0
 29103  1  0  0  0
 29104  1  0  0  0
 33 34  1  0  0  0
 33 66  1  0  0  0
 33 70  2  0  0  0
 34 36  1  0  0  0
 34 59  1  0  0  0
 34105  1  0  0  0
 35 44  2  0  0  0
 35 45  1  0  0  0
 35 68  1  0  0  0
 36 56  1  0  0  0
 36106  1  0  0  0
 37 39  1  0  0  0
 37 47  1  0  0  0
 37 66  1  0  0  0
 37107  1  0  0  0
 38 43  2  0  0  0
 38 46  1  0  0  0
 38 47  1  0  0  0
 39 64  1  0  0  0
 39 67  2  0  0  0
 40 52  1  0  0  0
 40 53  2  0  0  0
 40 58  1  0  0  0
 41108  1  0  0  0
 41109  1  0  0  0
 41110  1  0  0  0
 41 48  1  0  0  0
 42 43  1  0  0  0
 42 66  1  0  0  0
 42111  1  0  0  0
 42112  1  0  0  0
 43 44  1  0  0  0
 44113  1  0  0  0
 45 46  2  0  0  0
 45114  1  0  0  0
 46115  1  0  0  0
 47116  1  0  0  0
 47117  1  0  0  0
 48 56  1  0  0  0
 48 65  1  0  0  0
 48118  1  0  0  0
 49 50  1  0  0  0
 49 53  1  0  0  0
 49 64  1  0  0  0
 49119  1  0  0  0
 50 51  1  0  0  0
 50120  1  0  0  0
 50121  1  0  0  0
 51 52  1  0  0  0
 51122  1  0  0  0
 51123  1  0  0  0
 52124  1  0  0  0
 52125  1  0  0  0
 53 54  1  0  0  0
 54 55  2  0  0  0
 54126  1  0  0  0
 55 57  1  0  0  0
 55127  1  0  0  0
 56 69  2  0  0  0
 57 58  2  0  0  0
 57128  1  0  0  0
 58129  1  0  0  0
 59 60  1  0  0  0
 59 61  1  0  0  0
 59 62  1  0  0  0
 60130  1  0  0  0
 60131  1  0  0  0
 60132  1  0  0  0
 61133  1  0  0  0
 61134  1  0  0  0
 61135  1  0  0  0
 62136  1  0  0  0
 62137  1  0  0  0
 62138  1  0  0  0
 63 65  1  0  0  0
 63139  1  0  0  0
 63140  1  0  0  0
 63141  1  0  0  0
 64142  1  0  0  0
 65143  1  0  0  0
 68 78  1  0  0  0
 71 72  2  0  0  0
 71 81  1  0  0  0
 71144  1  0  0  0
 72 79  1  0  0  0
 72 82  1  0  0  0
 73 76  1  0  0  0
 73 81  1  0  0  0
 73 82  2  0  0  0
 74145  1  0  0  0
 74146  1  0  0  0
 74147  1  0  0  0
 74 79  1  0  0  0
 75148  1  0  0  0
 75149  1  0  0  0
 75150  1  0  0  0
 75 80  1  0  0  0
 76 77  1  0  0  0
 76151  1  0  0  0
 76152  1  0  0  0
 77 83  1  0  0  0
 77153  1  0  0  0
 77154  1  0  0  0
 78 79  1  0  0  0
 78155  1  0  0  0
 78156  1  0  0  0
 79157  1  0  0  0
 80 81  1  0  0  0
 80 84  1  0  0  0
 80158  1  0  0  0
 82159  1  0  0  0
 83160  1  0  0  0
M  CHG  1  82   1
M  ISO  4   1 100  68 101  78 101  83 100
M  END
> <chiral flag>
0

> <version>
0

> <s_m_source_file>
/data/baiqing/PycharmProjects/Reinvent-master-3.2/result/LINK_invent/BTK/process_docking_weight1_custom_sum_contain_oxygen_bond_distance_aromatic_linkinvent_7_9_3/rearranged_h_0120.sdf

> <i_m_source_file_index>
95

> <r_mmod_Potential_Energy-OPLS-2005>
142.058059692383

> <r_mmod_Stretch_Energy-OPLS-2005>
132.770767211914

> <r_mmod_Bend_Energy-OPLS-2005>
191.473663330078

> <r_mmod_Torsional_Energy-OPLS-2005>
269.211669921875

> <r_mmod_Improper_Torsional_Energy-OPLS-2005>
7.1770167350769

> <r_mmod_Van_der_Waal_Energy-OPLS-2005>
108.411766052246

> <r_mmod_Electrostatic_Energy-OPLS-2005>
-204.647567749023

> <r_mmod_Solvation_Energy-OPLS-2005>
-441.614593505859

> <b_mmod_Minimization_Converged-OPLS-2005>
0

> <r_mmod_RMS_Derivative-OPLS-2005>
4.00902938842773

$$$$
96
                    3D
 Structure written by MMmdl.
158167  0  0  1  0            999 V2000
  -30.6085  -14.7413   20.4515 C   0  0  0  0  0  0
  -30.4316  -12.4494   19.4789 C   0  0  0  0  0  0
  -29.5120  -12.5072   18.2390 C   0  0  0  0  0  0
  -28.0374  -12.3327   18.6503 C   0  0  0  0  0  0
  -27.6432  -13.2314   19.8534 C   0  0  2  0  0  0
  -28.6862  -13.1643   20.9910 C   0  0  0  0  0  0
  -25.2516  -13.8196   20.5694 C   0  0  0  0  0  0
  -24.1805  -13.0441   20.9207 C   0  0  0  0  0  0
  -24.6397  -11.6919   20.8749 C   0  0  0  0  0  0
  -23.9071  -10.4296   21.0407 C   0  0  0  0  0  0
  -24.3621   -9.4206   21.9180 C   0  0  0  0  0  0
  -23.6292   -8.2241   22.0751 C   0  0  0  0  0  0
  -22.4274   -8.0281   21.3543 C   0  0  0  0  0  0
  -21.9910   -9.0259   20.4650 C   0  0  0  0  0  0
  -22.7242  -10.2137   20.3059 C   0  0  0  0  0  0
  -21.6853   -6.0737   22.5278 C   0  0  0  0  0  0
  -21.4013   -6.5639   23.8213 C   0  0  0  0  0  0
  -21.3660   -5.6794   24.9178 C   0  0  0  0  0  0
  -21.6043   -4.3056   24.7229 C   0  0  0  0  0  0
  -21.8815   -3.8149   23.4350 C   0  0  0  0  0  0
  -21.9194   -4.6963   22.3407 C   0  0  0  0  0  0
  -22.7828  -13.5224   21.1867 C   0  0  0  0  0  0
  -22.1663   -4.2150   21.0984 F   0  0  0  0  0  0
  -21.5632   -3.4537   25.7739 F   0  0  0  0  0  0
  -29.9887  -13.5126   20.4116 N   0  0  0  0  0  0
  -26.2942  -12.9404   20.3290 N   0  0  0  0  0  0
  -25.9328  -11.6547   20.5757 N   0  0  0  0  0  0
  -22.0474  -12.8223   22.0427 N   0  0  0  0  0  0
  -25.4197  -15.1919   20.4105 N   0  0  0  0  0  0
  -31.7897  -14.8455   20.1129 O   0  0  0  0  0  0
  -21.6641   -6.8875   21.4238 O   0  0  0  0  0  0
  -22.3512  -14.5528   20.6708 O   0  0  0  0  0  0
  -24.6310  -31.8538   23.1969 C   0  0  0  0  0  0
  -25.9141  -32.4742   23.8310 C   0  0  1  0  0  0
  -27.2255  -27.2582   20.1225 C   0  0  0  0  0  0
  -25.5938  -33.8545   24.2242 N   0  0  0  0  0  0
  -23.4275  -30.4755   21.5401 C   0  0  2  0  0  0
  -24.8746  -28.9189   20.1077 C   0  0  0  0  0  0
  -22.7497  -29.4593   22.4909 C   0  0  0  0  0  0
  -18.0292  -28.1381   22.8488 C   0  0  0  0  0  0
  -24.1489  -36.7272   23.2640 C   0  0  0  0  0  0
  -25.9723  -30.7652   21.3765 C   0  0  0  0  0  0
  -26.0441  -29.3869   20.7181 C   0  0  0  0  0  0
  -27.2168  -28.5670   20.7167 C   0  0  0  0  0  0
  -26.0266  -26.8498   19.4963 C   0  0  0  0  0  0
  -24.8710  -27.6585   19.4887 C   0  0  0  0  0  0
  -23.6455  -29.8071   20.1564 C   0  0  0  0  0  0
  -25.4118  -36.3058   24.0324 C   0  0  1  0  0  0
  -20.5895  -28.3693   23.1273 C   0  0  2  0  0  0
  -20.6777  -26.9410   22.5413 C   0  0  0  0  0  0
  -19.5754  -26.6382   21.5213 C   0  0  0  0  0  0
  -18.1934  -26.7926   22.1626 C   0  0  0  0  0  0
  -19.1544  -28.8854   23.2876 C   0  0  0  0  0  0
  -18.9466  -30.1456   23.8894 C   0  0  0  0  0  0
  -17.6465  -30.6585   24.0560 C   0  0  0  0  0  0
  -25.9059  -34.9433   23.5086 C   0  0  0  0  0  0
  -16.5356  -29.9082   23.6329 C   0  0  0  0  0  0
  -16.7277  -28.6497   23.0354 C   0  0  0  0  0  0
  -26.4505  -31.6572   25.0705 C   0  0  0  0  0  0
  -25.3721  -31.3731   26.1422 C   0  0  0  0  0  0
  -27.0354  -30.2985   24.6203 C   0  0  0  0  0  0
  -27.6054  -32.4311   25.7487 C   0  0  0  0  0  0
  -27.5576  -37.1792   24.8467 C   0  0  0  0  0  0
  -21.4205  -29.3037   22.3656 N   0  0  0  0  0  0
  -26.4288  -37.3763   23.9411 N   0  0  0  0  0  0
  -24.6959  -31.0498   22.0944 N   0  0  0  0  0  0
  -23.4197  -28.8142   23.3011 O   0  0  0  0  0  0
  -28.3465  -26.3996   20.2128 O   0  0  0  0  0  0
  -26.5633  -34.8913   22.4658 O   0  0  0  0  0  0
  -23.5463  -32.1363   23.7270 O   0  0  0  0  0  0
  -27.5940  -22.3851   22.2288 C   0  0  0  0  0  0
  -27.7296  -23.6025   21.5287 C   0  0  0  0  0  0
  -28.1768  -21.1872   21.7611 C   0  0  0  0  0  0
  -29.0897  -22.4291   19.8738 C   0  0  0  0  0  0
  -28.4682  -23.6760   20.3328 C   0  0  0  0  0  0
  -28.9441  -21.1528   20.5750 C   0  0  0  0  0  0
  -31.2374  -21.7588   18.4819 C   0  0  0  0  0  0
  -31.1637  -23.2625   18.4803 C   0  0  0  0  0  0
  -29.8920  -22.4480   18.5995 C   0  0  0  0  0  0
  -28.4712  -25.0638   19.5346 C   0  0  0  0  0  0
  -30.1754  -17.3195   20.2313 C   0  0  0  0  0  0
  -29.3051  -18.5881   20.7545 C   0  0  0  0  0  0
  -29.8366  -15.8788   20.6354 N   0  0  0  0  0  0
  -29.5313  -19.9277   20.1205 O   0  0  0  0  0  0
  -31.4738  -12.5690   19.1784 H   0  0  0  0  0  0
  -30.3714  -11.4720   19.9599 H   0  0  0  0  0  0
  -29.7937  -11.7365   17.5204 H   0  0  0  0  0  0
  -29.6413  -13.4633   17.7296 H   0  0  0  0  0  0
  -27.8926  -11.2836   18.9110 H   0  0  0  0  0  0
  -27.3820  -12.5274   17.8006 H   0  0  0  0  0  0
  -27.6389  -14.2532   19.4736 H   0  0  0  0  0  0
  -28.7173  -12.1676   21.4336 H   0  0  0  0  0  0
  -28.4229  -13.8506   21.7977 H   0  0  0  0  0  0
  -25.2764   -9.5686   22.4757 H   0  0  0  0  0  0
  -24.0002   -7.4635   22.7469 H   0  0  0  0  0  0
  -21.0838   -8.8784   19.8960 H   0  0  0  0  0  0
  -22.3693  -10.9680   19.6175 H   0  0  0  0  0  0
  -21.1997   -7.6147   23.9716 H   0  0  0  0  0  0
  -21.1489   -6.0526   25.9082 H   0  0  0  0  0  0
  -22.0593   -2.7609   23.2854 H   0  0  0  0  0  0
  -22.4091  -11.9886   22.4822 H   0  0  0  0  0  0
  -21.1090  -13.1245   22.2630 H   0  0  0  0  0  0
  -24.6467  -15.8407   20.5104 H   0  0  0  0  0  0
  -26.2617  -15.6322   20.0627 H   0  0  0  0  0  0
  -26.7206  -32.5389   23.1047 H   0  0  0  0  0  0
  -25.0076  -33.9677   25.0382 H   0  0  0  0  0  0
  -22.7237  -31.2979   21.3940 H   0  0  0  0  0  0
  -23.3752  -35.9603   23.3299 H   0  0  0  0  0  0
  -24.3574  -36.8898   22.2055 H   0  0  0  0  0  0
  -23.7244  -37.6472   23.6668 H   0  0  0  0  0  0
  -26.1123  -31.5263   20.6072 H   0  0  0  0  0  0
  -26.8493  -30.8132   22.0106 H   0  0  0  0  0  0
  -28.1115  -28.9202   21.2102 H   0  0  0  0  0  0
  -25.9364  -25.8768   19.0396 H   0  0  0  0  0  0
  -23.9707  -27.2896   19.0166 H   0  0  0  0  0  0
  -23.7710  -30.5827   19.4000 H   0  0  0  0  0  0
  -22.7632  -29.2416   19.8512 H   0  0  0  0  0  0
  -25.1302  -36.1896   25.0815 H   0  0  0  0  0  0
  -20.9990  -28.3276   24.1394 H   0  0  0  0  0  0
  -20.5677  -26.2302   23.3617 H   0  0  0  0  0  0
  -21.6643  -26.7432   22.1209 H   0  0  0  0  0  0
  -19.6914  -25.6294   21.1242 H   0  0  0  0  0  0
  -19.6691  -27.3191   20.6744 H   0  0  0  0  0  0
  -17.4205  -26.6675   21.4027 H   0  0  0  0  0  0
  -18.0332  -26.0067   22.9022 H   0  0  0  0  0  0
  -19.7943  -30.7272   24.2263 H   0  0  0  0  0  0
  -17.5019  -31.6267   24.5160 H   0  0  0  0  0  0
  -15.5355  -30.2982   23.7654 H   0  0  0  0  0  0
  -15.8678  -28.0813   22.7072 H   0  0  0  0  0  0
  -24.5911  -30.7061   25.7753 H   0  0  0  0  0  0
  -24.8892  -32.2899   26.4807 H   0  0  0  0  0  0
  -25.8030  -30.8940   27.0221 H   0  0  0  0  0  0
  -26.2938  -29.6728   24.1219 H   0  0  0  0  0  0
  -27.4023  -29.7255   25.4728 H   0  0  0  0  0  0
  -27.8822  -30.4249   23.9452 H   0  0  0  0  0  0
  -27.2661  -33.3623   26.2038 H   0  0  0  0  0  0
  -28.3884  -32.6851   25.0326 H   0  0  0  0  0  0
  -28.0700  -31.8448   26.5425 H   0  0  0  0  0  0
  -28.2593  -38.0090   24.7506 H   0  0  0  0  0  0
  -28.1070  -36.2617   24.6301 H   0  0  0  0  0  0
  -27.2289  -37.1452   25.8870 H   0  0  0  0  0  0
  -20.9394  -29.8746   21.6848 H   0  0  0  0  0  0
  -26.0159  -38.2834   24.1411 H   0  0  0  0  0  0
  -27.0139  -22.3659   23.1410 H   0  0  0  0  0  0
  -27.2399  -24.4895   21.9064 H   0  0  0  0  0  0
  -28.0188  -20.2914   22.3423 H   0  0  0  0  0  0
  -31.6644  -21.2918   19.3675 H   0  0  0  0  0  0
  -31.4819  -21.2779   17.5370 H   0  0  0  0  0  0
  -31.3589  -23.7647   17.5347 H   0  0  0  0  0  0
  -31.5302  -23.7766   19.3672 H   0  0  0  0  0  0
  -29.2342  -22.4097   17.7332 H   0  0  0  0  0  0
  -27.7773  -24.9676   18.7026 H   0  0  0  0  0  0
  -29.4380  -25.1342   19.0429 H   0  0  0  0  0  0
  -31.2202  -17.5035   20.4856 H   0  0  0  0  0  0
  -30.1430  -17.3362   19.1413 H   0  0  0  0  0  0
  -29.4809  -18.6792   21.8263 H   0  0  0  0  0  0
  -28.2467  -18.3535   20.6372 H   0  0  0  0  0  0
  -28.8790  -15.7103   20.9060 H   0  0  0  0  0  0
  1 25  1  0  0  0
  1 30  2  0  0  0
  1 83  1  0  0  0
  2  3  1  0  0  0
  2 25  1  0  0  0
  2 85  1  0  0  0
  2 86  1  0  0  0
  3  4  1  0  0  0
  3 87  1  0  0  0
  3 88  1  0  0  0
  4  5  1  0  0  0
  4 89  1  0  0  0
  4 90  1  0  0  0
  5  6  1  0  0  0
  5 26  1  0  0  0
  5 91  1  0  0  0
  6 25  1  0  0  0
  6 92  1  0  0  0
  6 93  1  0  0  0
  7  8  2  0  0  0
  7 26  1  0  0  0
  7 29  1  0  0  0
  8  9  1  0  0  0
  8 22  1  0  0  0
  9 10  1  0  0  0
  9 27  2  0  0  0
 10 11  2  0  0  0
 10 15  1  0  0  0
 11 12  1  0  0  0
 11 94  1  0  0  0
 12 13  2  0  0  0
 12 95  1  0  0  0
 13 14  1  0  0  0
 13 31  1  0  0  0
 14 15  2  0  0  0
 14 96  1  0  0  0
 15 97  1  0  0  0
 16 17  2  0  0  0
 16 21  1  0  0  0
 16 31  1  0  0  0
 17 18  1  0  0  0
 17 98  1  0  0  0
 18 19  2  0  0  0
 18 99  1  0  0  0
 19 20  1  0  0  0
 19 24  1  0  0  0
 20 21  2  0  0  0
 20100  1  0  0  0
 21 23  1  0  0  0
 22 28  1  0  0  0
 22 32  2  0  0  0
 26 27  1  0  0  0
 28101  1  0  0  0
 28102  1  0  0  0
 29103  1  0  0  0
 29104  1  0  0  0
 33 34  1  0  0  0
 33 66  1  0  0  0
 33 70  2  0  0  0
 34 36  1  0  0  0
 34 59  1  0  0  0
 34105  1  0  0  0
 35 44  2  0  0  0
 35 45  1  0  0  0
 35 68  1  0  0  0
 36 56  1  0  0  0
 36106  1  0  0  0
 37 39  1  0  0  0
 37 47  1  0  0  0
 37 66  1  0  0  0
 37107  1  0  0  0
 38 43  2  0  0  0
 38 46  1  0  0  0
 38 47  1  0  0  0
 39 64  1  0  0  0
 39 67  2  0  0  0
 40 52  1  0  0  0
 40 53  2  0  0  0
 40 58  1  0  0  0
 41108  1  0  0  0
 41109  1  0  0  0
 41110  1  0  0  0
 41 48  1  0  0  0
 42 43  1  0  0  0
 42 66  1  0  0  0
 42111  1  0  0  0
 42112  1  0  0  0
 43 44  1  0  0  0
 44113  1  0  0  0
 45 46  2  0  0  0
 45114  1  0  0  0
 46115  1  0  0  0
 47116  1  0  0  0
 47117  1  0  0  0
 48 56  1  0  0  0
 48 65  1  0  0  0
 48118  1  0  0  0
 49 50  1  0  0  0
 49 53  1  0  0  0
 49 64  1  0  0  0
 49119  1  0  0  0
 50 51  1  0  0  0
 50120  1  0  0  0
 50121  1  0  0  0
 51 52  1  0  0  0
 51122  1  0  0  0
 51123  1  0  0  0
 52124  1  0  0  0
 52125  1  0  0  0
 53 54  1  0  0  0
 54 55  2  0  0  0
 54126  1  0  0  0
 55 57  1  0  0  0
 55127  1  0  0  0
 56 69  2  0  0  0
 57 58  2  0  0  0
 57128  1  0  0  0
 58129  1  0  0  0
 59 60  1  0  0  0
 59 61  1  0  0  0
 59 62  1  0  0  0
 60130  1  0  0  0
 60131  1  0  0  0
 60132  1  0  0  0
 61133  1  0  0  0
 61134  1  0  0  0
 61135  1  0  0  0
 62136  1  0  0  0
 62137  1  0  0  0
 62138  1  0  0  0
 63 65  1  0  0  0
 63139  1  0  0  0
 63140  1  0  0  0
 63141  1  0  0  0
 64142  1  0  0  0
 65143  1  0  0  0
 68 80  1  0  0  0
 71 72  2  0  0  0
 71 73  1  0  0  0
 71144  1  0  0  0
 72 75  1  0  0  0
 72145  1  0  0  0
 73 76  2  0  0  0
 73146  1  0  0  0
 74 75  2  0  0  0
 74 76  1  0  0  0
 74 79  1  0  0  0
 75 80  1  0  0  0
 76 84  1  0  0  0
 77 78  1  0  0  0
 77 79  1  0  0  0
 77147  1  0  0  0
 77148  1  0  0  0
 78 79  1  0  0  0
 78149  1  0  0  0
 78150  1  0  0  0
 79151  1  0  0  0
 80152  1  0  0  0
 80153  1  0  0  0
 81 82  1  0  0  0
 81 83  1  0  0  0
 81154  1  0  0  0
 81155  1  0  0  0
 82 84  1  0  0  0
 82156  1  0  0  0
 82157  1  0  0  0
 83158  1  0  0  0
M  ISO  4   1 100  68 101  80 101  83 100
M  END
> <chiral flag>
0

> <version>
0

> <s_m_source_file>
/data/baiqing/PycharmProjects/Reinvent-master-3.2/result/LINK_invent/BTK/process_docking_weight1_custom_sum_contain_oxygen_bond_distance_aromatic_linkinvent_7_9_3/rearranged_h_0120.sdf

> <i_m_source_file_index>
96

> <r_mmod_Potential_Energy-OPLS-2005>
157.739974975586

> <r_mmod_Stretch_Energy-OPLS-2005>
129.146224975586

> <r_mmod_Bend_Energy-OPLS-2005>
176.122360229492

> <r_mmod_Torsional_Energy-OPLS-2005>
238.55012512207

> <r_mmod_Improper_Torsional_Energy-OPLS-2005>
6.29862546920776

> <r_mmod_Van_der_Waal_Energy-OPLS-2005>
135.569686889648

> <r_mmod_Electrostatic_Energy-OPLS-2005>
-399.407592773438

> <r_mmod_Solvation_Energy-OPLS-2005>
-212.272583007812

> <b_mmod_Minimization_Converged-OPLS-2005>
0

> <r_mmod_RMS_Derivative-OPLS-2005>
0.749812245368958

$$$$
97
                    3D
 Structure written by MMmdl.
159167  0  0  1  0            999 V2000
  -30.6600  -14.5899   20.5237 C   0  0  0  0  0  0
  -30.4282  -12.3697   19.4414 C   0  0  0  0  0  0
  -29.4994  -12.4998   18.2157 C   0  0  0  0  0  0
  -28.0230  -12.3445   18.6312 C   0  0  0  0  0  0
  -27.6514  -13.2152   19.8614 C   0  0  2  0  0  0
  -28.6962  -13.0666   20.9893 C   0  0  0  0  0  0
  -25.2549  -13.8169   20.5680 C   0  0  0  0  0  0
  -24.1820  -13.0436   20.9195 C   0  0  0  0  0  0
  -24.6387  -11.6907   20.8746 C   0  0  0  0  0  0
  -23.9058  -10.4291   21.0410 C   0  0  0  0  0  0
  -24.3612   -9.4206   21.9186 C   0  0  0  0  0  0
  -23.6289   -8.2241   22.0754 C   0  0  0  0  0  0
  -22.4272   -8.0278   21.3543 C   0  0  0  0  0  0
  -21.9906   -9.0252   20.4646 C   0  0  0  0  0  0
  -22.7232  -10.2132   20.3058 C   0  0  0  0  0  0
  -21.6851   -6.0733   22.5279 C   0  0  0  0  0  0
  -21.4014   -6.5639   23.8212 C   0  0  0  0  0  0
  -21.3660   -5.6792   24.9175 C   0  0  0  0  0  0
  -21.6044   -4.3054   24.7226 C   0  0  0  0  0  0
  -21.8819   -3.8146   23.4348 C   0  0  0  0  0  0
  -21.9192   -4.6962   22.3403 C   0  0  0  0  0  0
  -22.7844  -13.5230   21.1859 C   0  0  0  0  0  0
  -22.1661   -4.2147   21.0980 F   0  0  0  0  0  0
  -21.5630   -3.4538   25.7740 F   0  0  0  0  0  0
  -30.0118  -13.3915   20.4193 N   0  0  0  0  0  0
  -26.2975  -12.9350   20.3316 N   0  0  0  0  0  0
  -25.9313  -11.6506   20.5762 N   0  0  0  0  0  0
  -22.0486  -12.8220   22.0414 N   0  0  0  0  0  0
  -25.4258  -15.1890   20.4076 N   0  0  0  0  0  0
  -31.8254  -14.7329   20.1469 O   0  0  0  0  0  0
  -21.6637   -6.8875   21.4240 O   0  0  0  0  0  0
  -22.3534  -14.5541   20.6712 O   0  0  0  0  0  0
  -24.6231  -31.8618   23.2043 C   0  0  0  0  0  0
  -25.9092  -32.4789   23.8362 C   0  0  1  0  0  0
  -27.2295  -27.3491   20.0973 C   0  0  0  0  0  0
  -25.5916  -33.8589   24.2289 N   0  0  0  0  0  0
  -23.4140  -30.4863   21.5472 C   0  0  2  0  0  0
  -24.8578  -28.9431   20.1133 C   0  0  0  0  0  0
  -22.7452  -29.4636   22.4955 C   0  0  0  0  0  0
  -18.0280  -28.1381   22.8488 C   0  0  0  0  0  0
  -24.1487  -36.7298   23.2639 C   0  0  0  0  0  0
  -25.9523  -30.8012   21.3693 C   0  0  0  0  0  0
  -26.0253  -29.4306   20.7116 C   0  0  0  0  0  0
  -27.2095  -28.6429   20.6971 C   0  0  0  0  0  0
  -26.0264  -26.8933   19.5068 C   0  0  0  0  0  0
  -24.8578  -27.6775   19.5084 C   0  0  0  0  0  0
  -23.6251  -29.8200   20.1624 C   0  0  0  0  0  0
  -25.4111  -36.3089   24.0328 C   0  0  1  0  0  0
  -20.5877  -28.3679   23.1294 C   0  0  2  0  0  0
  -20.6767  -26.9407   22.5412 C   0  0  0  0  0  0
  -19.5745  -26.6385   21.5210 C   0  0  0  0  0  0
  -18.1925  -26.7927   22.1621 C   0  0  0  0  0  0
  -19.1532  -28.8847   23.2887 C   0  0  0  0  0  0
  -18.9457  -30.1450   23.8902 C   0  0  0  0  0  0
  -17.6458  -30.6586   24.0563 C   0  0  0  0  0  0
  -25.9045  -34.9458   23.5108 C   0  0  0  0  0  0
  -16.5349  -29.9085   23.6330 C   0  0  0  0  0  0
  -16.7268  -28.6502   23.0352 C   0  0  0  0  0  0
  -26.4488  -31.6598   25.0726 C   0  0  0  0  0  0
  -25.3731  -31.3724   26.1459 C   0  0  0  0  0  0
  -27.0331  -30.3029   24.6162 C   0  0  0  0  0  0
  -27.6054  -32.4332   25.7491 C   0  0  0  0  0  0
  -27.5579  -37.1801   24.8463 C   0  0  0  0  0  0
  -21.4170  -29.3038   22.3693 N   0  0  0  0  0  0
  -26.4290  -37.3782   23.9409 N   0  0  0  0  0  0
  -24.6821  -31.0657   22.0976 N   0  0  0  0  0  0
  -23.4192  -28.8174   23.3020 O   0  0  0  0  0  0
  -28.3927  -26.5723   20.1424 O   0  0  0  0  0  0
  -26.5614  -34.8920   22.4674 O   0  0  0  0  0  0
  -23.5404  -32.1403   23.7393 O   0  0  0  0  0  0
  -30.2488  -23.4205   20.0100 C   0  0  0  0  0  0
  -27.8420  -22.7879   19.9187 C   0  0  0  0  0  0
  -30.5655  -22.0617   20.7047 C   0  0  0  0  0  0
  -28.1730  -21.4188   20.6131 C   0  0  0  0  0  0
  -28.8126  -23.9652   20.2524 C   0  0  2  0  0  0
  -29.6091  -20.8952   20.3200 C   0  0  2  0  0  0
  -28.5251  -25.2970   19.4291 C   0  0  0  0  0  0
  -30.3725  -17.0644   21.1702 C   0  0  0  0  0  0
  -29.5485  -18.2671   20.5430 C   0  0  0  0  0  0
  -29.9109  -15.6632   20.9056 N   0  0  0  0  0  0
  -29.9958  -19.6206   21.0417 N   0  3  0  0  0  0
  -31.4708  -12.4828   19.1391 H   0  0  0  0  0  0
  -30.3504  -11.3738   19.8804 H   0  0  0  0  0  0
  -29.7570  -11.7505   17.4660 H   0  0  0  0  0  0
  -29.6475  -13.4712   17.7411 H   0  0  0  0  0  0
  -27.8561  -11.2916   18.8616 H   0  0  0  0  0  0
  -27.3672  -12.5779   17.7917 H   0  0  0  0  0  0
  -27.6724  -14.2512   19.5228 H   0  0  0  0  0  0
  -28.6993  -12.0473   21.3784 H   0  0  0  0  0  0
  -28.4499  -13.7082   21.8367 H   0  0  0  0  0  0
  -25.2757   -9.5683   22.4761 H   0  0  0  0  0  0
  -24.0000   -7.4632   22.7472 H   0  0  0  0  0  0
  -21.0839   -8.8769   19.8951 H   0  0  0  0  0  0
  -22.3690  -10.9672   19.6167 H   0  0  0  0  0  0
  -21.2005   -7.6147   23.9715 H   0  0  0  0  0  0
  -21.1483   -6.0522   25.9077 H   0  0  0  0  0  0
  -22.0598   -2.7608   23.2848 H   0  0  0  0  0  0
  -22.4100  -11.9875   22.4791 H   0  0  0  0  0  0
  -21.1105  -13.1246   22.2627 H   0  0  0  0  0  0
  -24.6544  -15.8402   20.5059 H   0  0  0  0  0  0
  -26.2672  -15.6245   20.0524 H   0  0  0  0  0  0
  -26.7156  -32.5466   23.1111 H   0  0  0  0  0  0
  -25.0061  -33.9740   25.0430 H   0  0  0  0  0  0
  -22.7066  -31.3060   21.4056 H   0  0  0  0  0  0
  -23.3747  -35.9632   23.3306 H   0  0  0  0  0  0
  -24.3574  -36.8917   22.2051 H   0  0  0  0  0  0
  -23.7244  -37.6503   23.6657 H   0  0  0  0  0  0
  -26.0786  -31.5656   20.6012 H   0  0  0  0  0  0
  -26.8350  -30.8499   21.9954 H   0  0  0  0  0  0
  -28.1095  -29.0173   21.1645 H   0  0  0  0  0  0
  -25.9333  -25.9172   19.0603 H   0  0  0  0  0  0
  -23.9558  -27.2899   19.0549 H   0  0  0  0  0  0
  -23.7406  -30.5947   19.4036 H   0  0  0  0  0  0
  -22.7457  -29.2464   19.8636 H   0  0  0  0  0  0
  -25.1292  -36.1940   25.0822 H   0  0  0  0  0  0
  -20.9969  -28.3250   24.1414 H   0  0  0  0  0  0
  -20.5664  -26.2289   23.3607 H   0  0  0  0  0  0
  -21.6637  -26.7437   22.1210 H   0  0  0  0  0  0
  -19.6905  -25.6296   21.1237 H   0  0  0  0  0  0
  -19.6685  -27.3195   20.6740 H   0  0  0  0  0  0
  -17.4195  -26.6676   21.4022 H   0  0  0  0  0  0
  -18.0324  -26.0067   22.9015 H   0  0  0  0  0  0
  -19.7934  -30.7263   24.2277 H   0  0  0  0  0  0
  -17.5015  -31.6268   24.5160 H   0  0  0  0  0  0
  -15.5350  -30.2988   23.7656 H   0  0  0  0  0  0
  -15.8667  -28.0824   22.7066 H   0  0  0  0  0  0
  -24.5910  -30.7066   25.7792 H   0  0  0  0  0  0
  -24.8912  -32.2883   26.4888 H   0  0  0  0  0  0
  -25.8066  -30.8906   27.0232 H   0  0  0  0  0  0
  -26.2897  -29.6779   24.1198 H   0  0  0  0  0  0
  -27.4053  -29.7285   25.4656 H   0  0  0  0  0  0
  -27.8754  -30.4329   23.9362 H   0  0  0  0  0  0
  -27.2671  -33.3633   26.2071 H   0  0  0  0  0  0
  -28.3858  -32.6895   25.0313 H   0  0  0  0  0  0
  -28.0727  -31.8458   26.5404 H   0  0  0  0  0  0
  -28.2596  -38.0099   24.7518 H   0  0  0  0  0  0
  -28.1078  -36.2632   24.6282 H   0  0  0  0  0  0
  -27.2298  -37.1444   25.8867 H   0  0  0  0  0  0
  -20.9339  -29.8769   21.6916 H   0  0  0  0  0  0
  -26.0173  -38.2856   24.1418 H   0  0  0  0  0  0
  -30.4108  -23.3026   18.9372 H   0  0  0  0  0  0
  -30.9740  -24.1663   20.3385 H   0  0  0  0  0  0
  -26.8245  -23.0831   20.1782 H   0  0  0  0  0  0
  -27.8359  -22.6320   18.8387 H   0  0  0  0  0  0
  -30.5390  -22.2121   21.7850 H   0  0  0  0  0  0
  -31.5934  -21.7836   20.4682 H   0  0  0  0  0  0
  -27.4432  -20.6722   20.2977 H   0  0  0  0  0  0
  -28.0397  -21.5326   21.6897 H   0  0  0  0  0  0
  -28.7072  -24.1973   21.3132 H   0  0  0  0  0  0
  -29.7095  -20.7141   19.2485 H   0  0  0  0  0  0
  -27.7420  -25.1134   18.7002 H   0  0  0  0  0  0
  -29.3853  -25.4639   18.7801 H   0  0  0  0  0  0
  -30.3799  -17.1783   22.2549 H   0  0  0  0  0  0
  -31.4149  -17.1640   20.8631 H   0  0  0  0  0  0
  -28.4861  -18.1523   20.7600 H   0  0  0  0  0  0
  -29.6483  -18.2374   19.4574 H   0  0  0  0  0  0
  -28.9503  -15.4568   21.1364 H   0  0  0  0  0  0
  -29.7430  -19.7042   22.0133 H   0  0  0  0  0  0
  -31.0021  -19.5921   21.0124 H   0  0  0  0  0  0
  1 25  1  0  0  0
  1 30  2  0  0  0
  1 80  1  0  0  0
  2  3  1  0  0  0
  2 25  1  0  0  0
  2 82  1  0  0  0
  2 83  1  0  0  0
  3  4  1  0  0  0
  3 84  1  0  0  0
  3 85  1  0  0  0
  4  5  1  0  0  0
  4 86  1  0  0  0
  4 87  1  0  0  0
  5  6  1  0  0  0
  5 26  1  0  0  0
  5 88  1  0  0  0
  6 25  1  0  0  0
  6 89  1  0  0  0
  6 90  1  0  0  0
  7  8  2  0  0  0
  7 26  1  0  0  0
  7 29  1  0  0  0
  8  9  1  0  0  0
  8 22  1  0  0  0
  9 10  1  0  0  0
  9 27  2  0  0  0
 10 11  2  0  0  0
 10 15  1  0  0  0
 11 12  1  0  0  0
 11 91  1  0  0  0
 12 13  2  0  0  0
 12 92  1  0  0  0
 13 14  1  0  0  0
 13 31  1  0  0  0
 14 15  2  0  0  0
 14 93  1  0  0  0
 15 94  1  0  0  0
 16 17  2  0  0  0
 16 21  1  0  0  0
 16 31  1  0  0  0
 17 18  1  0  0  0
 17 95  1  0  0  0
 18 19  2  0  0  0
 18 96  1  0  0  0
 19 20  1  0  0  0
 19 24  1  0  0  0
 20 21  2  0  0  0
 20 97  1  0  0  0
 21 23  1  0  0  0
 22 28  1  0  0  0
 22 32  2  0  0  0
 26 27  1  0  0  0
 28 98  1  0  0  0
 28 99  1  0  0  0
 29100  1  0  0  0
 29101  1  0  0  0
 33 34  1  0  0  0
 33 66  1  0  0  0
 33 70  2  0  0  0
 34 36  1  0  0  0
 34 59  1  0  0  0
 34102  1  0  0  0
 35 44  2  0  0  0
 35 45  1  0  0  0
 35 68  1  0  0  0
 36 56  1  0  0  0
 36103  1  0  0  0
 37 39  1  0  0  0
 37 47  1  0  0  0
 37 66  1  0  0  0
 37104  1  0  0  0
 38 43  2  0  0  0
 38 46  1  0  0  0
 38 47  1  0  0  0
 39 64  1  0  0  0
 39 67  2  0  0  0
 40 52  1  0  0  0
 40 53  2  0  0  0
 40 58  1  0  0  0
 41105  1  0  0  0
 41106  1  0  0  0
 41107  1  0  0  0
 41 48  1  0  0  0
 42 43  1  0  0  0
 42 66  1  0  0  0
 42108  1  0  0  0
 42109  1  0  0  0
 43 44  1  0  0  0
 44110  1  0  0  0
 45 46  2  0  0  0
 45111  1  0  0  0
 46112  1  0  0  0
 47113  1  0  0  0
 47114  1  0  0  0
 48 56  1  0  0  0
 48 65  1  0  0  0
 48115  1  0  0  0
 49 50  1  0  0  0
 49 53  1  0  0  0
 49 64  1  0  0  0
 49116  1  0  0  0
 50 51  1  0  0  0
 50117  1  0  0  0
 50118  1  0  0  0
 51 52  1  0  0  0
 51119  1  0  0  0
 51120  1  0  0  0
 52121  1  0  0  0
 52122  1  0  0  0
 53 54  1  0  0  0
 54 55  2  0  0  0
 54123  1  0  0  0
 55 57  1  0  0  0
 55124  1  0  0  0
 56 69  2  0  0  0
 57 58  2  0  0  0
 57125  1  0  0  0
 58126  1  0  0  0
 59 60  1  0  0  0
 59 61  1  0  0  0
 59 62  1  0  0  0
 60127  1  0  0  0
 60128  1  0  0  0
 60129  1  0  0  0
 61130  1  0  0  0
 61131  1  0  0  0
 61132  1  0  0  0
 62133  1  0  0  0
 62134  1  0  0  0
 62135  1  0  0  0
 63 65  1  0  0  0
 63136  1  0  0  0
 63137  1  0  0  0
 63138  1  0  0  0
 64139  1  0  0  0
 65140  1  0  0  0
 68 77  1  0  0  0
 71 73  1  0  0  0
 71 75  1  0  0  0
 71141  1  0  0  0
 71142  1  0  0  0
 72 74  1  0  0  0
 72 75  1  0  0  0
 72143  1  0  0  0
 72144  1  0  0  0
 73 76  1  0  0  0
 73145  1  0  0  0
 73146  1  0  0  0
 74 76  1  0  0  0
 74147  1  0  0  0
 74148  1  0  0  0
 75 77  1  0  0  0
 75149  1  0  0  0
 76 81  1  0  0  0
 76150  1  0  0  0
 77151  1  0  0  0
 77152  1  0  0  0
 78 79  1  0  0  0
 78 80  1  0  0  0
 78153  1  0  0  0
 78154  1  0  0  0
 79 81  1  0  0  0
 79155  1  0  0  0
 79156  1  0  0  0
 80157  1  0  0  0
 81158  1  0  0  0
 81159  1  0  0  0
M  CHG  1  81   1
M  ISO  4   1 100  68 101  77 101  80 100
M  END
> <chiral flag>
0

> <version>
0

> <s_m_source_file>
/data/baiqing/PycharmProjects/Reinvent-master-3.2/result/LINK_invent/BTK/process_docking_weight1_custom_sum_contain_oxygen_bond_distance_aromatic_linkinvent_7_9_3/rearranged_h_0120.sdf

> <i_m_source_file_index>
97

> <r_mmod_Potential_Energy-OPLS-2005>
-152.838165283203

> <r_mmod_Stretch_Energy-OPLS-2005>
64.4404754638672

> <r_mmod_Bend_Energy-OPLS-2005>
140.56721496582

> <r_mmod_Torsional_Energy-OPLS-2005>
229.718780517578

> <r_mmod_Improper_Torsional_Energy-OPLS-2005>
3.75444364547729

> <r_mmod_Van_der_Waal_Energy-OPLS-2005>
130.652481079102

> <r_mmod_Electrostatic_Energy-OPLS-2005>
-277.11572265625

> <r_mmod_Solvation_Energy-OPLS-2005>
-479.000396728516

> <b_mmod_Minimization_Converged-OPLS-2005>
0

> <r_mmod_RMS_Derivative-OPLS-2005>
0.337198555469513

$$$$
98
                    3D
 Structure written by MMmdl.
178187  0  0  1  0            999 V2000
  -29.7258  -14.7537   19.5645 C   0  0  0  0  0  0
  -30.6182  -12.5164   19.2676 C   0  0  0  0  0  0
  -29.5531  -12.2605   18.2014 C   0  0  0  0  0  0
  -28.2429  -12.0567   18.9692 C   0  0  0  0  0  0
  -28.0785  -12.8952   20.3988 C   0  0  2  0  0  0
  -29.2477  -12.9663   21.2207 C   0  0  0  0  0  0
  -25.7172  -14.4884   21.7131 C   0  0  0  0  0  0
  -24.2704  -13.4836   21.6797 C   0  0  0  0  0  0
  -24.8438  -11.9517   20.8783 C   0  0  0  0  0  0
  -24.5975  -10.6245   20.6561 C   0  0  0  0  0  0
  -23.8504  -10.3556   22.0329 C   0  0  0  0  0  0
  -22.6018   -9.4512   22.1480 C   0  0  0  0  0  0
  -21.9618   -8.6628   20.9909 C   0  0  0  0  0  0
  -22.4917   -9.0021   19.5070 C   0  0  0  0  0  0
  -23.9404   -9.8820   19.1919 C   0  0  0  0  0  0
  -21.6415   -6.3806   22.3857 C   0  0  0  0  0  0
  -21.3546   -6.7368   23.7378 C   0  0  0  0  0  0
  -21.3516   -5.8076   24.8166 C   0  0  0  0  0  0
  -21.6183   -4.4429   24.6076 C   0  0  0  0  0  0
  -21.9058   -4.0311   23.2971 C   0  0  0  0  0  0
  -21.9120   -4.9628   22.2184 C   0  0  0  0  0  0
  -22.8168  -13.8708   21.7856 C   0  0  0  0  0  0
  -22.1505   -4.4360   20.9925 F   0  0  0  0  0  0
  -21.5795   -3.5511   25.6375 F   0  0  0  0  0  0
  -30.0240  -13.5341   20.1426 N   0  0  0  0  0  0
  -26.8909  -13.3149   20.7627 N   0  0  0  0  0  0
  -26.1660  -12.0112   20.3635 N   0  0  0  0  0  0
  -22.0530  -13.1622   22.5932 N   0  0  0  0  0  0
  -26.1256  -15.7132   22.0146 N   0  0  0  0  0  0
  -30.7996  -15.3984   19.5521 O   0  0  0  0  0  0
  -21.4537   -7.3083   21.2739 O   0  0  0  0  0  0
  -22.3263  -14.6795   21.0029 O   0  0  0  0  0  0
  -24.7309  -31.7374   23.1206 C   0  0  0  0  0  0
  -25.9708  -32.4097   23.7839 C   0  0  1  0  0  0
  -26.5819  -25.9981   20.1767 C   0  0  0  0  0  0
  -25.6110  -33.7984   24.1641 N   0  0  0  0  0  0
  -23.5384  -30.3707   21.4956 C   0  0  2  0  0  0
  -24.8694  -28.6205   20.0596 C   0  0  0  0  0  0
  -22.7804  -29.4097   22.4539 C   0  0  0  0  0  0
  -18.0340  -28.1421   22.8442 C   0  0  0  0  0  0
  -24.1499  -36.6984   23.2662 C   0  0  0  0  0  0
  -26.1194  -30.1924   21.4855 C   0  0  0  0  0  0
  -26.0447  -28.7143   20.8009 C   0  0  0  0  0  0
  -26.9016  -27.4236   20.8308 C   0  0  0  0  0  0
  -25.5455  -26.3251   19.2914 C   0  0  0  0  0  0
  -24.7147  -27.4804   19.2648 C   0  0  0  0  0  0
  -23.7784  -29.7058   20.1107 C   0  0  0  0  0  0
  -25.4174  -36.2684   24.0232 C   0  0  1  0  0  0
  -20.5977  -28.3791   23.1060 C   0  0  2  0  0  0
  -20.6774  -26.9425   22.5388 C   0  0  0  0  0  0
  -19.5760  -26.6347   21.5195 C   0  0  0  0  0  0
  -18.1949  -26.7946   22.1605 C   0  0  0  0  0  0
  -19.1615  -28.8930   23.2737 C   0  0  0  0  0  0
  -18.9536  -30.1506   23.8799 C   0  0  0  0  0  0
  -17.6531  -30.6605   24.0547 C   0  0  0  0  0  0
  -25.9213  -34.9094   23.4804 C   0  0  0  0  0  0
  -16.5412  -29.9089   23.6356 C   0  0  0  0  0  0
  -16.7324  -28.6505   23.0378 C   0  0  0  0  0  0
  -26.4711  -31.6431   25.0720 C   0  0  0  0  0  0
  -25.3647  -31.3935   26.1248 C   0  0  0  0  0  0
  -27.0743  -30.2718   24.7092 C   0  0  0  0  0  0
  -27.6034  -32.4455   25.7557 C   0  0  0  0  0  0
  -27.5549  -37.1641   24.8454 C   0  0  0  0  0  0
  -21.4430  -29.2989   22.3313 N   0  0  0  0  0  0
  -26.4232  -37.3528   23.9425 N   0  0  0  0  0  0
  -24.8375  -30.8226   22.0795 N   0  0  0  0  0  0
  -23.4111  -28.7689   23.2986 O   0  0  0  0  0  0
  -26.9459  -24.3425   20.2127 O   0  0  0  0  0  0
  -26.5910  -34.8786   22.4465 O   0  0  0  0  0  0
  -23.6275  -32.0844   23.5866 O   0  0  0  0  0  0
  -24.9144  -19.2614   20.4777 C   0  0  0  0  0  0
  -26.1300  -17.5118   19.0777 C   0  0  0  0  0  0
  -24.6044  -17.6500   20.4086 C   0  0  0  0  0  0
  -25.1750  -16.3498   19.6572 C   0  0  0  0  0  0
  -25.9269  -20.3122   19.8964 C   0  0  0  0  0  0
  -21.1238  -12.8816   18.7267 C   0  0  0  0  0  0
  -22.4929  -13.4870   18.3400 C   0  0  0  0  0  0
  -21.2600  -11.4112   19.1995 C   0  0  1  0  0  0
  -22.5482  -11.3138   20.1352 C   0  0  1  0  0  0
  -23.4640  -17.3560   21.3678 C   0  0  0  0  0  0
  -19.9305  -10.9245   19.8221 C   0  0  0  0  0  0
  -25.5658   -5.0783   19.6420 C   0  0  0  0  0  0
  -26.1105  -22.4926   19.8061 C   0  0  0  0  0  0
  -24.3027   -8.3963   20.8257 C   0  0  0  0  0  0
  -26.6655  -14.4685   18.5851 C   0  0  0  0  0  0
  -24.6163   -7.2330   19.7994 C   0  0  0  0  0  0
  -25.0862  -14.0769   19.6661 C   0  0  2  0  0  0
  -26.4152  -19.0740   19.1459 N   0  0  0  0  0  0
  -28.3260  -15.0700   18.9378 N   0  0  0  0  0  0
  -23.5063  -12.8753   19.2107 N   0  3  2  0  0  0
  -25.4351   -6.2542   20.4278 O   0  0  0  0  0  0
  -31.5444  -12.8772   18.8166 H   0  0  0  0  0  0
  -30.8722  -11.6017   19.8066 H   0  0  0  0  0  0
  -29.8030  -11.3746   17.6173 H   0  0  0  0  0  0
  -29.4756  -13.0741   17.4789 H   0  0  0  0  0  0
  -28.3257  -11.0238   19.3157 H   0  0  0  0  0  0
  -27.4094  -11.9345   18.2851 H   0  0  0  0  0  0
  -27.9200  -13.9171   20.6862 H   0  0  0  0  0  0
  -29.5848  -11.9796   21.5410 H   0  0  0  0  0  0
  -29.2074  -13.6227   22.0973 H   0  0  0  0  0  0
  -24.1784  -10.8607   22.9333 H   0  0  0  0  0  0
  -22.2697   -9.2580   23.1544 H   0  0  0  0  0  0
  -22.0514   -8.4629   18.6794 H   0  0  0  0  0  0
  -24.2864  -10.1010   18.1897 H   0  0  0  0  0  0
  -21.0593   -7.7490   23.9634 H   0  0  0  0  0  0
  -21.1049   -6.1516   25.8116 H   0  0  0  0  0  0
  -22.1102   -2.9882   23.1024 H   0  0  0  0  0  0
  -22.4485  -12.5072   23.2511 H   0  0  0  0  0  0
  -21.0699  -13.3834   22.6571 H   0  0  0  0  0  0
  -25.5725  -16.3734   22.5443 H   0  0  0  0  0  0
  -27.0701  -16.0398   21.8546 H   0  0  0  0  0  0
  -26.7792  -32.4325   23.0514 H   0  0  0  0  0  0
  -25.0100  -33.8939   24.9695 H   0  0  0  0  0  0
  -22.8992  -31.2387   21.3197 H   0  0  0  0  0  0
  -23.3819  -35.9249   23.3181 H   0  0  0  0  0  0
  -24.3555  -36.8834   22.2108 H   0  0  0  0  0  0
  -23.7201  -37.6070   23.6886 H   0  0  0  0  0  0
  -26.4537  -30.8736   20.7024 H   0  0  0  0  0  0
  -26.9424  -30.1824   22.1843 H   0  0  0  0  0  0
  -27.7517  -27.4494   21.4988 H   0  0  0  0  0  0
  -25.2135  -25.5159   18.6567 H   0  0  0  0  0  0
  -23.8564  -27.4403   18.6083 H   0  0  0  0  0  0
  -24.0603  -30.4759   19.3928 H   0  0  0  0  0  0
  -22.8416  -29.2918   19.7349 H   0  0  0  0  0  0
  -25.1407  -36.1347   25.0715 H   0  0  0  0  0  0
  -21.0072  -28.3442   24.1185 H   0  0  0  0  0  0
  -20.5564  -26.2443   23.3683 H   0  0  0  0  0  0
  -21.6639  -26.7290   22.1261 H   0  0  0  0  0  0
  -19.6906  -25.6224   21.1299 H   0  0  0  0  0  0
  -19.6702  -27.3090   20.6668 H   0  0  0  0  0  0
  -17.4214  -26.6698   21.4013 H   0  0  0  0  0  0
  -18.0341  -26.0097   22.9008 H   0  0  0  0  0  0
  -19.8019  -30.7332   24.2128 H   0  0  0  0  0  0
  -17.5093  -31.6275   24.5171 H   0  0  0  0  0  0
  -15.5411  -30.2976   23.7719 H   0  0  0  0  0  0
  -15.8726  -28.0787   22.7161 H   0  0  0  0  0  0
  -24.5884  -30.7211   25.7583 H   0  0  0  0  0  0
  -24.8794  -32.3216   26.4269 H   0  0  0  0  0  0
  -25.7722  -30.9390   27.0287 H   0  0  0  0  0  0
  -26.3470  -29.6034   24.2475 H   0  0  0  0  0  0
  -27.4277  -29.7543   25.6022 H   0  0  0  0  0  0
  -27.9439  -30.3717   24.0593 H   0  0  0  0  0  0
  -27.2476  -33.3884   26.1720 H   0  0  0  0  0  0
  -28.4051  -32.6813   25.0548 H   0  0  0  0  0  0
  -28.0478  -31.8898   26.5823 H   0  0  0  0  0  0
  -28.2443  -38.0052   24.7586 H   0  0  0  0  0  0
  -28.1165  -36.2569   24.6173 H   0  0  0  0  0  0
  -27.2272  -37.1126   25.8852 H   0  0  0  0  0  0
  -20.9759  -29.8693   21.6408 H   0  0  0  0  0  0
  -25.9989  -38.2524   24.1521 H   0  0  0  0  0  0
  -24.2168  -19.7971   21.1074 H   0  0  0  0  0  0
  -26.8693  -17.1444   18.3859 H   0  0  0  0  0  0
  -20.4349  -12.9557   17.8844 H   0  0  0  0  0  0
  -20.6779  -13.4786   19.5219 H   0  0  0  0  0  0
  -22.4968  -14.5751   18.4099 H   0  0  0  0  0  0
  -22.7424  -13.2298   17.3103 H   0  0  0  0  0  0
  -21.4200  -10.8606   18.2715 H   0  0  0  0  0  0
  -22.0128  -11.5814   21.0134 H   0  0  0  0  0  0
  -22.5257  -17.2343   20.8276 H   0  0  0  0  0  0
  -23.3230  -18.1463   22.1045 H   0  0  0  0  0  0
  -23.6665  -16.4714   21.9583 H   0  0  0  0  0  0
  -19.7599  -11.3594   20.8071 H   0  0  0  0  0  0
  -19.8860   -9.8410   19.9200 H   0  0  0  0  0  0
  -19.0837  -11.2044   19.1967 H   0  0  0  0  0  0
  -26.2393   -4.3738   20.1291 H   0  0  0  0  0  0
  -25.9723   -5.3042   18.6561 H   0  0  0  0  0  0
  -24.6027   -4.5816   19.5157 H   0  0  0  0  0  0
  -25.0794  -22.7355   20.0646 H   0  0  0  0  0  0
  -26.1298  -22.5763   18.7196 H   0  0  0  0  0  0
  -24.0416   -7.7598   21.6842 H   0  0  0  0  0  0
  -25.3391   -8.5502   21.1686 H   0  0  0  0  0  0
  -26.3044  -15.1894   17.8568 H   0  0  0  0  0  0
  -26.7462  -13.6979   17.8359 H   0  0  0  0  0  0
  -25.1310   -7.6013   18.9112 H   0  0  0  0  0  0
  -23.6951   -6.7506   19.4679 H   0  0  0  0  0  0
  -25.8916  -12.7559   22.1359 H   0  0  0  0  0  0
  -28.4085  -15.9910   18.5335 H   0  0  0  0  0  0
  -23.9955  -12.3237   18.5193 H   0  0  0  0  0  0
  1 25  1  0  0  0
  1 30  2  0  0  0
  1 89  1  0  0  0
  2  3  1  0  0  0
  2 25  1  0  0  0
  2 92  1  0  0  0
  2 93  1  0  0  0
  3  4  1  0  0  0
  3 94  1  0  0  0
  3 95  1  0  0  0
  4  5  1  0  0  0
  4 96  1  0  0  0
  4 97  1  0  0  0
  5  6  1  0  0  0
  5 26  1  0  0  0
  5 98  1  0  0  0
  6 25  1  0  0  0
  6 99  1  0  0  0
  6100  1  0  0  0
  7  8  2  0  0  0
  7 26  1  0  0  0
  7 29  1  0  0  0
  8  9  1  0  0  0
  8 22  1  0  0  0
  9 10  1  0  0  0
  9 27  2  0  0  0
 10 11  2  0  0  0
 10 15  1  0  0  0
 11 12  1  0  0  0
 11101  1  0  0  0
 12 13  2  0  0  0
 12102  1  0  0  0
 13 14  1  0  0  0
 13 31  1  0  0  0
 14 15  2  0  0  0
 14103  1  0  0  0
 15104  1  0  0  0
 16 17  2  0  0  0
 16 21  1  0  0  0
 16 31  1  0  0  0
 17 18  1  0  0  0
 17105  1  0  0  0
 18 19  2  0  0  0
 18106  1  0  0  0
 19 20  1  0  0  0
 19 24  1  0  0  0
 20 21  2  0  0  0
 20107  1  0  0  0
 21 23  1  0  0  0
 22 28  1  0  0  0
 22 32  2  0  0  0
 26 27  1  0  0  0
 28108  1  0  0  0
 28109  1  0  0  0
 29110  1  0  0  0
 29111  1  0  0  0
 33 34  1  0  0  0
 33 66  1  0  0  0
 33 70  2  0  0  0
 34 36  1  0  0  0
 34 59  1  0  0  0
 34112  1  0  0  0
 35 44  2  0  0  0
 35 45  1  0  0  0
 35 68  1  0  0  0
 36 56  1  0  0  0
 36113  1  0  0  0
 37 39  1  0  0  0
 37 47  1  0  0  0
 37 66  1  0  0  0
 37114  1  0  0  0
 38 43  2  0  0  0
 38 46  1  0  0  0
 38 47  1  0  0  0
 39 64  1  0  0  0
 39 67  2  0  0  0
 40 52  1  0  0  0
 40 53  2  0  0  0
 40 58  1  0  0  0
 41115  1  0  0  0
 41116  1  0  0  0
 41117  1  0  0  0
 41 48  1  0  0  0
 42 43  1  0  0  0
 42 66  1  0  0  0
 42118  1  0  0  0
 42119  1  0  0  0
 43 44  1  0  0  0
 44120  1  0  0  0
 45 46  2  0  0  0
 45121  1  0  0  0
 46122  1  0  0  0
 47123  1  0  0  0
 47124  1  0  0  0
 48 56  1  0  0  0
 48 65  1  0  0  0
 48125  1  0  0  0
 49 50  1  0  0  0
 49 53  1  0  0  0
 49 64  1  0  0  0
 49126  1  0  0  0
 50 51  1  0  0  0
 50127  1  0  0  0
 50128  1  0  0  0
 51 52  1  0  0  0
 51129  1  0  0  0
 51130  1  0  0  0
 52131  1  0  0  0
 52132  1  0  0  0
 53 54  1  0  0  0
 54 55  2  0  0  0
 54133  1  0  0  0
 55 57  1  0  0  0
 55134  1  0  0  0
 56 69  2  0  0  0
 57 58  2  0  0  0
 57135  1  0  0  0
 58136  1  0  0  0
 59 60  1  0  0  0
 59 61  1  0  0  0
 59 62  1  0  0  0
 60137  1  0  0  0
 60138  1  0  0  0
 60139  1  0  0  0
 61140  1  0  0  0
 61141  1  0  0  0
 61142  1  0  0  0
 62143  1  0  0  0
 62144  1  0  0  0
 62145  1  0  0  0
 63 65  1  0  0  0
 63146  1  0  0  0
 63147  1  0  0  0
 63148  1  0  0  0
 64149  1  0  0  0
 65150  1  0  0  0
 68 83  1  0  0  0
 71 73  2  0  0  0
 71 75  1  0  0  0
 71151  1  0  0  0
 72 74  2  0  0  0
 72 88  1  0  0  0
 72152  1  0  0  0
 73 74  1  0  0  0
 73 80  1  0  0  0
 74 87  1  0  0  0
 75 83  1  0  0  0
 75 88  2  0  0  0
 76 77  1  0  0  0
 76 78  1  0  0  0
 76153  1  0  0  0
 76154  1  0  0  0
 77155  1  0  0  0
 77156  1  0  0  0
 77 90  1  0  0  0
 78 79  1  0  0  0
 78 81  1  0  0  0
 78157  1  0  0  0
 79 84  1  0  0  0
 79 90  1  0  0  0
 79158  1  0  0  0
 80159  1  0  0  0
 80160  1  0  0  0
 80161  1  0  0  0
 81162  1  0  0  0
 81163  1  0  0  0
 81164  1  0  0  0
 82 91  1  0  0  0
 82165  1  0  0  0
 82166  1  0  0  0
 82167  1  0  0  0
 83168  1  0  0  0
 83169  1  0  0  0
 84 86  1  0  0  0
 84170  1  0  0  0
 84171  1  0  0  0
 85 89  1  0  0  0
 85172  1  0  0  0
 85173  1  0  0  0
 85 87  1  0  0  0
 86 91  1  0  0  0
 86174  1  0  0  0
 86175  1  0  0  0
 87 90  1  0  0  0
 87176  1  0  0  0
 89177  1  0  0  0
 90178  1  0  0  0
M  CHG  1  90   1
M  ISO  4   1 100  68 101  83 101  89 100
M  END
> <chiral flag>
0

> <version>
0

> <s_m_source_file>
/data/baiqing/PycharmProjects/Reinvent-master-3.2/result/LINK_invent/BTK/process_docking_weight1_custom_sum_contain_oxygen_bond_distance_aromatic_linkinvent_7_9_3/rearranged_h_0120.sdf

> <i_m_source_file_index>
98

> <r_mmod_Potential_Energy-OPLS-2005>
26292.7265625

> <r_mmod_Stretch_Energy-OPLS-2005>
15485.630859375

> <r_mmod_Bend_Energy-OPLS-2005>
2332.33032226562

> <r_mmod_Torsional_Energy-OPLS-2005>
584.76318359375

> <r_mmod_Improper_Torsional_Energy-OPLS-2005>
55.7576675415039

> <r_mmod_Van_der_Waal_Energy-OPLS-2005>
4823.12353515625

> <r_mmod_Electrostatic_Energy-OPLS-2005>
-450.266326904297

> <r_mmod_Solvation_Energy-OPLS-2005>
-426.476501464844

> <b_mmod_Minimization_Converged-OPLS-2005>
0

> <r_mmod_RMS_Derivative-OPLS-2005>
5.39719390869141

$$$$
