0
                    3D
 Structure written by MMmdl.
164172  0  0  1  0            999 V2000
  -30.7686  -14.3918   20.6870 C   0  0  0  0  0  0
  -30.4102  -12.3198   19.4022 C   0  0  0  0  0  0
  -29.4777  -12.5231   18.1943 C   0  0  0  0  0  0
  -28.0043  -12.3734   18.6148 C   0  0  0  0  0  0
  -27.6591  -13.2068   19.8780 C   0  0  2  0  0  0
  -28.6973  -12.9598   20.9920 C   0  0  0  0  0  0
  -25.2555  -13.8161   20.5650 C   0  0  0  0  0  0
  -24.1812  -13.0428   20.9144 C   0  0  0  0  0  0
  -24.6380  -11.6900   20.8738 C   0  0  0  0  0  0
  -23.9044  -10.4270   21.0383 C   0  0  0  0  0  0
  -24.3611   -9.4193   21.9167 C   0  0  0  0  0  0
  -23.6293   -8.2236   22.0760 C   0  0  0  0  0  0
  -22.4280   -8.0267   21.3544 C   0  0  0  0  0  0
  -21.9895   -9.0229   20.4641 C   0  0  0  0  0  0
  -22.7211  -10.2107   20.3030 C   0  0  0  0  0  0
  -21.6851   -6.0728   22.5281 C   0  0  0  0  0  0
  -21.4005   -6.5623   23.8215 C   0  0  0  0  0  0
  -21.3668   -5.6768   24.9179 C   0  0  0  0  0  0
  -21.6046   -4.3033   24.7209 C   0  0  0  0  0  0
  -21.8831   -3.8138   23.4333 C   0  0  0  0  0  0
  -21.9188   -4.6960   22.3401 C   0  0  0  0  0  0
  -22.7832  -13.5231   21.1813 C   0  0  0  0  0  0
  -22.1660   -4.2148   21.0973 F   0  0  0  0  0  0
  -21.5631   -3.4520   25.7730 F   0  0  0  0  0  0
  -30.0240  -13.2788   20.4517 N   0  0  0  0  0  0
  -26.3004  -12.9340   20.3381 N   0  0  0  0  0  0
  -25.9300  -11.6492   20.5766 N   0  0  0  0  0  0
  -22.0485  -12.8233   22.0381 N   0  0  0  0  0  0
  -25.4215  -15.1883   20.4101 N   0  0  0  0  0  0
  -31.8298  -14.6082   20.0997 O   0  0  0  0  0  0
  -21.6631   -6.8872   21.4251 O   0  0  0  0  0  0
  -22.3510  -14.5538   20.6663 O   0  0  0  0  0  0
  -24.6164  -31.8677   23.2084 C   0  0  0  0  0  0
  -25.9040  -32.4804   23.8392 C   0  0  1  0  0  0
  -27.2300  -27.4223   20.0831 C   0  0  0  0  0  0
  -25.5882  -33.8606   24.2286 N   0  0  0  0  0  0
  -23.4014  -30.4912   21.5521 C   0  0  2  0  0  0
  -24.8432  -28.9544   20.1190 C   0  0  0  0  0  0
  -22.7404  -29.4637   22.4988 C   0  0  0  0  0  0
  -18.0292  -28.1322   22.8492 C   0  0  0  0  0  0
  -24.1504  -36.7328   23.2641 C   0  0  0  0  0  0
  -25.9362  -30.8285   21.3649 C   0  0  0  0  0  0
  -26.0101  -29.4659   20.7033 C   0  0  0  0  0  0
  -27.2038  -28.7081   20.6773 C   0  0  0  0  0  0
  -26.0341  -26.9180   19.5230 C   0  0  0  0  0  0
  -24.8504  -27.6788   19.5327 C   0  0  0  0  0  0
  -23.6087  -29.8266   20.1658 C   0  0  0  0  0  0
  -25.4124  -36.3109   24.0334 C   0  0  1  0  0  0
  -20.5850  -28.3644   23.1323 C   0  0  2  0  0  0
  -20.6788  -26.9375   22.5425 C   0  0  0  0  0  0
  -19.5766  -26.6375   21.5200 C   0  0  0  0  0  0
  -18.1947  -26.7886   22.1596 C   0  0  0  0  0  0
  -19.1516  -28.8800   23.2905 C   0  0  0  0  0  0
  -18.9440  -30.1410   23.8875 C   0  0  0  0  0  0
  -17.6434  -30.6541   24.0513 C   0  0  0  0  0  0
  -25.9059  -34.9468   23.5127 C   0  0  0  0  0  0
  -16.5336  -29.9022   23.6277 C   0  0  0  0  0  0
  -16.7279  -28.6427   23.0349 C   0  0  0  0  0  0
  -26.4478  -31.6604   25.0738 C   0  0  0  0  0  0
  -25.3734  -31.3695   26.1473 C   0  0  0  0  0  0
  -27.0314  -30.3028   24.6158 C   0  0  0  0  0  0
  -27.6047  -32.4356   25.7475 C   0  0  0  0  0  0
  -27.5590  -37.1822   24.8460 C   0  0  0  0  0  0
  -21.4133  -29.3036   22.3747 N   0  0  0  0  0  0
  -26.4313  -37.3780   23.9411 N   0  0  0  0  0  0
  -24.6693  -31.0774   22.0979 N   0  0  0  0  0  0
  -23.4184  -28.8171   23.3003 O   0  0  0  0  0  0
  -28.4161  -26.7103   20.0893 O   0  0  0  0  0  0
  -26.5629  -34.8939   22.4695 O   0  0  0  0  0  0
  -23.5355  -32.1431   23.7502 O   0  0  0  0  0  0
  -28.3598  -15.9861   22.7569 C   0  0  0  0  0  0
  -27.1714  -18.0028   22.0786 C   0  0  0  0  0  0
  -27.3231  -16.9140   22.9613 C   0  0  0  0  0  0
  -29.1099  -17.2359   20.7896 C   0  0  0  0  0  0
  -29.2512  -16.1185   21.6688 C   0  0  0  0  0  0
  -28.0786  -18.1898   21.0102 C   0  0  0  0  0  0
  -26.4140  -16.7664   24.1671 C   0  0  0  0  0  0
  -30.0693  -17.4795   19.6305 C   0  0  0  0  0  0
  -27.1237  -23.1080   20.0606 C   0  0  0  0  0  0
  -27.4516  -21.6540   19.6026 C   0  0  0  0  0  0
  -28.2983  -24.1424   20.1947 C   0  0  0  0  0  0
  -27.7673  -20.6390   20.7223 C   0  0  0  0  0  0
  -28.5320  -25.4619   19.3698 C   0  0  0  0  0  0
  -30.3838  -15.2513   21.6492 N   0  0  0  0  0  0
  -27.9828  -19.3057   20.1580 N   0  0  0  0  0  0
  -31.4513  -12.4277   19.0898 H   0  0  0  0  0  0
  -30.3293  -11.3019   19.7835 H   0  0  0  0  0  0
  -29.7150  -11.8008   17.4113 H   0  0  0  0  0  0
  -29.6400  -13.5104   17.7605 H   0  0  0  0  0  0
  -27.8180  -11.3151   18.8052 H   0  0  0  0  0  0
  -27.3477  -12.6511   17.7899 H   0  0  0  0  0  0
  -27.7097  -14.2583   19.5972 H   0  0  0  0  0  0
  -28.6762  -11.9147   21.3061 H   0  0  0  0  0  0
  -28.4496  -13.5179   21.8910 H   0  0  0  0  0  0
  -25.2764   -9.5671   22.4711 H   0  0  0  0  0  0
  -24.0001   -7.4625   22.7480 H   0  0  0  0  0  0
  -21.0824   -8.8727   19.8944 H   0  0  0  0  0  0
  -22.3672  -10.9636   19.6124 H   0  0  0  0  0  0
  -21.1996   -7.6135   23.9724 H   0  0  0  0  0  0
  -21.1482   -6.0496   25.9082 H   0  0  0  0  0  0
  -22.0613   -2.7605   23.2826 H   0  0  0  0  0  0
  -22.4130  -11.9920   22.4784 H   0  0  0  0  0  0
  -21.1086  -13.1230   22.2541 H   0  0  0  0  0  0
  -24.6647  -15.8421   20.5728 H   0  0  0  0  0  0
  -26.3021  -15.6443   20.2076 H   0  0  0  0  0  0
  -26.7106  -32.5490   23.1151 H   0  0  0  0  0  0
  -24.9998  -33.9767   25.0401 H   0  0  0  0  0  0
  -22.6909  -31.3099   21.4176 H   0  0  0  0  0  0
  -23.3755  -35.9672   23.3312 H   0  0  0  0  0  0
  -24.3592  -36.8940   22.2052 H   0  0  0  0  0  0
  -23.7281  -37.6546   23.6656 H   0  0  0  0  0  0
  -26.0693  -31.6029   20.6088 H   0  0  0  0  0  0
  -26.8161  -30.8604   21.9966 H   0  0  0  0  0  0
  -28.1109  -29.1107   21.1044 H   0  0  0  0  0  0
  -25.9790  -25.9330   19.0870 H   0  0  0  0  0  0
  -23.9479  -27.2685   19.1032 H   0  0  0  0  0  0
  -23.7267  -30.6079   19.4144 H   0  0  0  0  0  0
  -22.7265  -29.2592   19.8595 H   0  0  0  0  0  0
  -25.1305  -36.1983   25.0822 H   0  0  0  0  0  0
  -20.9946  -28.3225   24.1434 H   0  0  0  0  0  0
  -21.6665  -26.7378   22.1248 H   0  0  0  0  0  0
  -20.5639  -26.2208   23.3588 H   0  0  0  0  0  0
  -19.6931  -25.6305   21.1219 H   0  0  0  0  0  0
  -19.6689  -27.3226   20.6754 H   0  0  0  0  0  0
  -17.4223  -26.6663   21.3976 H   0  0  0  0  0  0
  -18.0346  -25.9979   22.8951 H   0  0  0  0  0  0
  -19.7923  -30.7211   24.2254 H   0  0  0  0  0  0
  -17.4945  -31.6246   24.5032 H   0  0  0  0  0  0
  -15.5317  -30.2901   23.7533 H   0  0  0  0  0  0
  -15.8669  -28.0737   22.7071 H   0  0  0  0  0  0
  -24.5904  -30.7050   25.7787 H   0  0  0  0  0  0
  -24.8939  -32.2842   26.4964 H   0  0  0  0  0  0
  -25.8092  -30.8817   27.0196 H   0  0  0  0  0  0
  -26.2852  -29.6761   24.1246 H   0  0  0  0  0  0
  -27.4060  -29.7301   25.4654 H   0  0  0  0  0  0
  -27.8710  -30.4298   23.9317 H   0  0  0  0  0  0
  -27.2629  -33.3632   26.2074 H   0  0  0  0  0  0
  -28.3808  -32.6961   25.0264 H   0  0  0  0  0  0
  -28.0765  -31.8481   26.5359 H   0  0  0  0  0  0
  -28.2612  -38.0108   24.7498 H   0  0  0  0  0  0
  -28.1088  -36.2650   24.6309 H   0  0  0  0  0  0
  -27.2312  -37.1489   25.8858 H   0  0  0  0  0  0
  -20.9285  -29.8812   21.7038 H   0  0  0  0  0  0
  -26.0215  -38.2874   24.1363 H   0  0  0  0  0  0
  -28.4997  -15.1871   23.4741 H   0  0  0  0  0  0
  -26.3598  -18.7012   22.2363 H   0  0  0  0  0  0
  -27.0129  -16.5928   25.0625 H   0  0  0  0  0  0
  -25.7308  -15.9249   24.0492 H   0  0  0  0  0  0
  -25.8246  -17.6666   24.3413 H   0  0  0  0  0  0
  -30.9614  -16.8670   19.6453 H   0  0  0  0  0  0
  -30.4282  -18.5068   19.6497 H   0  0  0  0  0  0
  -29.5574  -17.3056   18.6837 H   0  0  0  0  0  0
  -26.3927  -23.5058   19.3502 H   0  0  0  0  0  0
  -26.5765  -23.0304   21.0057 H   0  0  0  0  0  0
  -28.2339  -21.6421   18.8432 H   0  0  0  0  0  0
  -26.5677  -21.2724   19.0895 H   0  0  0  0  0  0
  -27.4964  -24.7509   20.6135 H   0  0  0  0  0  0
  -28.5818  -23.7270   19.2304 H   0  0  0  0  0  0
  -26.9433  -20.6289   21.4366 H   0  0  0  0  0  0
  -28.6607  -20.9469   21.2687 H   0  0  0  0  0  0
  -27.9496  -25.4830   18.4448 H   0  0  0  0  0  0
  -29.5666  -25.4639   19.0144 H   0  0  0  0  0  0
  -31.2083  -15.7531   21.9477 H   0  0  0  0  0  0
  -28.6761  -19.3023   19.4163 H   0  0  0  0  0  0
  1 25  1  0  0  0
  1 30  2  0  0  0
  1 84  1  0  0  0
  2  3  1  0  0  0
  2 25  1  0  0  0
  2 86  1  0  0  0
  2 87  1  0  0  0
  3  4  1  0  0  0
  3 88  1  0  0  0
  3 89  1  0  0  0
  4  5  1  0  0  0
  4 90  1  0  0  0
  4 91  1  0  0  0
  5  6  1  0  0  0
  5 26  1  0  0  0
  5 92  1  0  0  0
  6 25  1  0  0  0
  6 93  1  0  0  0
  6 94  1  0  0  0
  7  8  2  0  0  0
  7 26  1  0  0  0
  7 29  1  0  0  0
  8  9  1  0  0  0
  8 22  1  0  0  0
  9 10  1  0  0  0
  9 27  2  0  0  0
 10 11  2  0  0  0
 10 15  1  0  0  0
 11 12  1  0  0  0
 11 95  1  0  0  0
 12 13  2  0  0  0
 12 96  1  0  0  0
 13 14  1  0  0  0
 13 31  1  0  0  0
 14 15  2  0  0  0
 14 97  1  0  0  0
 15 98  1  0  0  0
 16 17  2  0  0  0
 16 21  1  0  0  0
 16 31  1  0  0  0
 17 18  1  0  0  0
 17 99  1  0  0  0
 18 19  2  0  0  0
 18100  1  0  0  0
 19 20  1  0  0  0
 19 24  1  0  0  0
 20 21  2  0  0  0
 20101  1  0  0  0
 21 23  1  0  0  0
 22 28  1  0  0  0
 22 32  2  0  0  0
 26 27  1  0  0  0
 28102  1  0  0  0
 28103  1  0  0  0
 29104  1  0  0  0
 29105  1  0  0  0
 33 34  1  0  0  0
 33 66  1  0  0  0
 33 70  2  0  0  0
 34 36  1  0  0  0
 34 59  1  0  0  0
 34106  1  0  0  0
 35 44  2  0  0  0
 35 45  1  0  0  0
 35 68  1  0  0  0
 36 56  1  0  0  0
 36107  1  0  0  0
 37 39  1  0  0  0
 37 47  1  0  0  0
 37 66  1  0  0  0
 37108  1  0  0  0
 38 43  2  0  0  0
 38 46  1  0  0  0
 38 47  1  0  0  0
 39 64  1  0  0  0
 39 67  2  0  0  0
 40 52  1  0  0  0
 40 53  2  0  0  0
 40 58  1  0  0  0
 41109  1  0  0  0
 41110  1  0  0  0
 41111  1  0  0  0
 41 48  1  0  0  0
 42 43  1  0  0  0
 42 66  1  0  0  0
 42112  1  0  0  0
 42113  1  0  0  0
 43 44  1  0  0  0
 44114  1  0  0  0
 45 46  2  0  0  0
 45115  1  0  0  0
 46116  1  0  0  0
 47117  1  0  0  0
 47118  1  0  0  0
 48 56  1  0  0  0
 48 65  1  0  0  0
 48119  1  0  0  0
 49 50  1  0  0  0
 49 53  1  0  0  0
 49 64  1  0  0  0
 49120  1  0  0  0
 50 51  1  0  0  0
 50121  1  0  0  0
 50122  1  0  0  0
 51 52  1  0  0  0
 51123  1  0  0  0
 51124  1  0  0  0
 52125  1  0  0  0
 52126  1  0  0  0
 53 54  1  0  0  0
 54 55  2  0  0  0
 54127  1  0  0  0
 55 57  1  0  0  0
 55128  1  0  0  0
 56 69  2  0  0  0
 57 58  2  0  0  0
 57129  1  0  0  0
 58130  1  0  0  0
 59 60  1  0  0  0
 59 61  1  0  0  0
 59 62  1  0  0  0
 60131  1  0  0  0
 60132  1  0  0  0
 60133  1  0  0  0
 61134  1  0  0  0
 61135  1  0  0  0
 61136  1  0  0  0
 62137  1  0  0  0
 62138  1  0  0  0
 62139  1  0  0  0
 63 65  1  0  0  0
 63140  1  0  0  0
 63141  1  0  0  0
 63142  1  0  0  0
 64143  1  0  0  0
 65144  1  0  0  0
 68 83  1  0  0  0
 71 73  2  0  0  0
 71 75  1  0  0  0
 71145  1  0  0  0
 72 73  1  0  0  0
 72 76  2  0  0  0
 72146  1  0  0  0
 73 77  1  0  0  0
 74 75  2  0  0  0
 74 76  1  0  0  0
 74 78  1  0  0  0
 75 84  1  0  0  0
 76 85  1  0  0  0
 77147  1  0  0  0
 77148  1  0  0  0
 77149  1  0  0  0
 78150  1  0  0  0
 78151  1  0  0  0
 78152  1  0  0  0
 79 80  1  0  0  0
 79 81  1  0  0  0
 79153  1  0  0  0
 79154  1  0  0  0
 80 82  1  0  0  0
 80155  1  0  0  0
 80156  1  0  0  0
 81 83  1  0  0  0
 81157  1  0  0  0
 81158  1  0  0  0
 82 85  1  0  0  0
 82159  1  0  0  0
 82160  1  0  0  0
 83161  1  0  0  0
 83162  1  0  0  0
 84163  1  0  0  0
 85164  1  0  0  0
M  ISO  4   1 100  68 101  83 101  84 100
M  END
> <chiral flag>
0

> <version>
0

> <s_m_source_file>
/data/baiqing/PycharmProjects/Reinvent-master-3.2/result/LINK_invent/BTK/process_docking_weight1_custom_sum_contain_oxygen_bond_distance_aromatic_linkinvent_7_9_3/rearranged_h_0015.sdf

> <i_m_source_file_index>
1

> <r_mmod_Potential_Energy-OPLS-2005>
265.019134521484

> <r_mmod_Stretch_Energy-OPLS-2005>
42.6425590515137

> <r_mmod_Bend_Energy-OPLS-2005>
361.370239257812

> <r_mmod_Torsional_Energy-OPLS-2005>
259.637756347656

> <r_mmod_Improper_Torsional_Energy-OPLS-2005>
11.3173341751099

> <r_mmod_Van_der_Waal_Energy-OPLS-2005>
167.510345458984

> <r_mmod_Electrostatic_Energy-OPLS-2005>
-399.095733642578

> <r_mmod_Solvation_Energy-OPLS-2005>
-189.224624633789

> <b_mmod_Minimization_Converged-OPLS-2005>
0

> <r_mmod_RMS_Derivative-OPLS-2005>
4.6411657333374

$$$$
1
                    3D
 Structure written by MMmdl.
165173  0  0  1  0            999 V2000
  -30.6438  -14.7216   20.4667 C   0  0  0  0  0  0
  -30.4213  -12.4407   19.4760 C   0  0  0  0  0  0
  -29.5043  -12.5025   18.2346 C   0  0  0  0  0  0
  -28.0317  -12.3295   18.6496 C   0  0  0  0  0  0
  -27.6398  -13.2327   19.8508 C   0  0  2  0  0  0
  -28.6848  -13.1751   20.9874 C   0  0  0  0  0  0
  -25.2509  -13.8193   20.5698 C   0  0  0  0  0  0
  -24.1802  -13.0437   20.9209 C   0  0  0  0  0  0
  -24.6395  -11.6916   20.8749 C   0  0  0  0  0  0
  -23.9071  -10.4291   21.0403 C   0  0  0  0  0  0
  -24.3623   -9.4211   21.9186 C   0  0  0  0  0  0
  -23.6298   -8.2246   22.0760 C   0  0  0  0  0  0
  -22.4282   -8.0280   21.3547 C   0  0  0  0  0  0
  -21.9915   -9.0253   20.4643 C   0  0  0  0  0  0
  -22.7243  -10.2129   20.3055 C   0  0  0  0  0  0
  -21.6856   -6.0736   22.5282 C   0  0  0  0  0  0
  -21.4010   -6.5642   23.8214 C   0  0  0  0  0  0
  -21.3659   -5.6790   24.9173 C   0  0  0  0  0  0
  -21.6040   -4.3053   24.7216 C   0  0  0  0  0  0
  -21.8818   -3.8146   23.4337 C   0  0  0  0  0  0
  -21.9196   -4.6964   22.3399 C   0  0  0  0  0  0
  -22.7824  -13.5227   21.1862 C   0  0  0  0  0  0
  -22.1663   -4.2154   21.0973 F   0  0  0  0  0  0
  -21.5631   -3.4536   25.7725 F   0  0  0  0  0  0
  -29.9876  -13.5124   20.4025 N   0  0  0  0  0  0
  -26.2935  -12.9406   20.3294 N   0  0  0  0  0  0
  -25.9330  -11.6542   20.5764 N   0  0  0  0  0  0
  -22.0470  -12.8205   22.0404 N   0  0  0  0  0  0
  -25.4185  -15.1908   20.4081 N   0  0  0  0  0  0
  -31.8290  -14.7675   20.1291 O   0  0  0  0  0  0
  -21.6646   -6.8877   21.4246 O   0  0  0  0  0  0
  -22.3507  -14.5541   20.6724 O   0  0  0  0  0  0
  -24.6312  -31.8531   23.1977 C   0  0  0  0  0  0
  -25.9136  -32.4732   23.8303 C   0  0  1  0  0  0
  -27.2110  -27.2617   20.1214 C   0  0  0  0  0  0
  -25.5936  -33.8549   24.2227 N   0  0  0  0  0  0
  -23.4266  -30.4791   21.5398 C   0  0  2  0  0  0
  -24.8719  -28.9337   20.1013 C   0  0  0  0  0  0
  -22.7487  -29.4609   22.4886 C   0  0  0  0  0  0
  -18.0292  -28.1373   22.8479 C   0  0  0  0  0  0
  -24.1498  -36.7293   23.2643 C   0  0  0  0  0  0
  -25.9744  -30.7665   21.3783 C   0  0  0  0  0  0
  -26.0449  -29.3935   20.7139 C   0  0  0  0  0  0
  -27.2172  -28.5711   20.7112 C   0  0  0  0  0  0
  -26.0216  -26.8847   19.4559 C   0  0  0  0  0  0
  -24.8674  -27.6873   19.4603 C   0  0  0  0  0  0
  -23.6414  -29.8162   20.1541 C   0  0  0  0  0  0
  -25.4118  -36.3061   24.0328 C   0  0  1  0  0  0
  -20.5899  -28.3701   23.1248 C   0  0  2  0  0  0
  -20.6779  -26.9411   22.5394 C   0  0  0  0  0  0
  -19.5758  -26.6366   21.5200 C   0  0  0  0  0  0
  -18.1938  -26.7923   22.1595 C   0  0  0  0  0  0
  -19.1548  -28.8845   23.2865 C   0  0  0  0  0  0
  -18.9471  -30.1436   23.8884 C   0  0  0  0  0  0
  -17.6474  -30.6577   24.0556 C   0  0  0  0  0  0
  -25.9056  -34.9441   23.5076 C   0  0  0  0  0  0
  -16.5367  -29.9068   23.6340 C   0  0  0  0  0  0
  -16.7279  -28.6486   23.0362 C   0  0  0  0  0  0
  -26.4504  -31.6561   25.0696 C   0  0  0  0  0  0
  -25.3730  -31.3684   26.1412 C   0  0  0  0  0  0
  -27.0373  -30.2976   24.6203 C   0  0  0  0  0  0
  -27.6045  -32.4326   25.7471 C   0  0  0  0  0  0
  -27.5586  -37.1788   24.8462 C   0  0  0  0  0  0
  -21.4192  -29.3059   22.3627 N   0  0  0  0  0  0
  -26.4288  -37.3766   23.9413 N   0  0  0  0  0  0
  -24.6966  -31.0508   22.0941 N   0  0  0  0  0  0
  -23.4194  -28.8145   23.2966 O   0  0  0  0  0  0
  -28.2895  -26.3461   20.2131 O   0  0  0  0  0  0
  -26.5629  -34.8923   22.4641 O   0  0  0  0  0  0
  -23.5461  -32.1355   23.7264 O   0  0  0  0  0  0
  -31.6750  -17.6681   20.7806 C   0  0  0  0  0  0
  -32.1152  -19.0060   20.7838 C   0  0  0  0  0  0
  -29.3689  -18.4478   20.6368 C   0  0  0  0  0  0
  -29.8068  -19.8509   20.6695 C   0  0  0  0  0  0
  -30.3044  -17.3236   20.6838 C   0  0  0  0  0  0
  -31.1976  -20.0711   20.7173 C   0  0  0  0  0  0
  -33.5967  -19.3098   20.9013 C   0  0  0  0  0  0
  -27.8878  -18.1021   20.5785 C   0  0  0  0  0  0
  -30.4555  -24.4136   19.5196 C   0  0  0  0  0  0
  -27.0627  -24.5153   21.3512 C   0  0  0  0  0  0
  -28.9210  -21.1763   20.8350 C   0  0  0  0  0  0
  -29.2781  -23.8237   20.3196 C   0  0  1  0  0  0
  -28.0311  -24.8515   20.1992 C   0  0  2  0  0  0
  -29.9074  -15.8828   20.6898 N   0  0  0  0  0  0
  -29.0942  -22.3529   19.8641 N   0  3  0  0  0  0
  -31.6652  -21.3432   20.7345 F   0  0  0  0  0  0
  -31.4659  -12.5416   19.1766 H   0  0  0  0  0  0
  -30.3461  -11.4671   19.9623 H   0  0  0  0  0  0
  -29.7856  -11.7277   17.5197 H   0  0  0  0  0  0
  -29.6342  -13.4561   17.7211 H   0  0  0  0  0  0
  -27.8886  -11.2815   18.9131 H   0  0  0  0  0  0
  -27.3734  -12.5192   17.8008 H   0  0  0  0  0  0
  -27.6321  -14.2523   19.4666 H   0  0  0  0  0  0
  -28.7150  -12.1832   21.4409 H   0  0  0  0  0  0
  -28.4225  -13.8684   21.7885 H   0  0  0  0  0  0
  -25.2765   -9.5693   22.4763 H   0  0  0  0  0  0
  -24.0010   -7.4637   22.7482 H   0  0  0  0  0  0
  -21.0849   -8.8761   19.8939 H   0  0  0  0  0  0
  -22.3702  -10.9669   19.6162 H   0  0  0  0  0  0
  -21.1995   -7.6147   23.9717 H   0  0  0  0  0  0
  -21.1484   -6.0516   25.9074 H   0  0  0  0  0  0
  -22.0594   -2.7609   23.2831 H   0  0  0  0  0  0
  -22.4099  -11.9861   22.4771 H   0  0  0  0  0  0
  -21.1088  -13.1217   22.2614 H   0  0  0  0  0  0
  -24.6413  -15.8357   20.4994 H   0  0  0  0  0  0
  -26.2494  -15.6241   20.0314 H   0  0  0  0  0  0
  -26.7186  -32.5370   23.1031 H   0  0  0  0  0  0
  -25.0096  -33.9676   25.0376 H   0  0  0  0  0  0
  -22.7266  -31.3039   21.3925 H   0  0  0  0  0  0
  -23.3769  -35.9611   23.3269 H   0  0  0  0  0  0
  -24.3622  -36.8946   22.2068 H   0  0  0  0  0  0
  -23.7241  -37.6477   23.6697 H   0  0  0  0  0  0
  -26.1226  -31.5322   20.6154 H   0  0  0  0  0  0
  -26.8492  -30.8049   22.0159 H   0  0  0  0  0  0
  -28.1118  -28.9168   21.2113 H   0  0  0  0  0  0
  -25.9380  -25.9372   18.9473 H   0  0  0  0  0  0
  -23.9735  -27.3332   18.9651 H   0  0  0  0  0  0
  -23.7524  -30.5922   19.3964 H   0  0  0  0  0  0
  -22.7620  -29.2413   19.8544 H   0  0  0  0  0  0
  -25.1295  -36.1897   25.0820 H   0  0  0  0  0  0
  -20.9993  -28.3266   24.1364 H   0  0  0  0  0  0
  -20.5665  -26.2308   23.3597 H   0  0  0  0  0  0
  -21.6650  -26.7416   22.1183 H   0  0  0  0  0  0
  -19.6930  -25.6275   21.1230 H   0  0  0  0  0  0
  -19.6700  -27.3170   20.6730 H   0  0  0  0  0  0
  -17.4201  -26.6684   21.3998 H   0  0  0  0  0  0
  -18.0335  -26.0050   22.8977 H   0  0  0  0  0  0
  -19.7953  -30.7257   24.2253 H   0  0  0  0  0  0
  -17.5034  -31.6273   24.5127 H   0  0  0  0  0  0
  -15.5367  -30.2968   23.7682 H   0  0  0  0  0  0
  -15.8680  -28.0801   22.7101 H   0  0  0  0  0  0
  -24.5947  -30.6986   25.7729 H   0  0  0  0  0  0
  -24.8888  -32.2842   26.4822 H   0  0  0  0  0  0
  -25.8066  -30.8875   27.0195 H   0  0  0  0  0  0
  -26.2953  -29.6690   24.1261 H   0  0  0  0  0  0
  -27.4084  -29.7274   25.4734 H   0  0  0  0  0  0
  -27.8825  -30.4247   23.9433 H   0  0  0  0  0  0
  -27.2635  -33.3660   26.1978 H   0  0  0  0  0  0
  -28.3888  -32.6830   25.0310 H   0  0  0  0  0  0
  -28.0676  -31.8494   26.5443 H   0  0  0  0  0  0
  -28.2544  -38.0140   24.7550 H   0  0  0  0  0  0
  -28.1125  -36.2667   24.6210 H   0  0  0  0  0  0
  -27.2319  -37.1336   25.8866 H   0  0  0  0  0  0
  -20.9363  -29.8818   21.6872 H   0  0  0  0  0  0
  -26.0159  -38.2832   24.1417 H   0  0  0  0  0  0
  -32.4337  -16.9077   20.8729 H   0  0  0  0  0  0
  -34.2052  -18.4105   20.8035 H   0  0  0  0  0  0
  -33.8124  -19.7573   21.8720 H   0  0  0  0  0  0
  -33.9087  -20.0126   20.1286 H   0  0  0  0  0  0
  -27.2493  -18.9557   20.3668 H   0  0  0  0  0  0
  -27.5640  -17.6607   21.5222 H   0  0  0  0  0  0
  -27.7032  -17.3756   19.7864 H   0  0  0  0  0  0
  -30.6946  -25.4206   19.8617 H   0  0  0  0  0  0
  -30.2284  -24.4766   18.4530 H   0  0  0  0  0  0
  -31.3637  -23.8212   19.6333 H   0  0  0  0  0  0
  -26.8852  -23.4421   21.4171 H   0  0  0  0  0  0
  -26.0887  -24.9865   21.2440 H   0  0  0  0  0  0
  -27.4782  -24.8414   22.3052 H   0  0  0  0  0  0
  -29.1511  -21.5503   21.8328 H   0  0  0  0  0  0
  -27.8622  -20.9352   20.8847 H   0  0  0  0  0  0
  -29.6048  -23.8070   21.3596 H   0  0  0  0  0  0
  -27.5581  -24.6123   19.2480 H   0  0  0  0  0  0
  -28.9249  -15.7125   20.8353 H   0  0  0  0  0  0
  -28.3779  -22.2918   19.1558 H   0  0  0  0  0  0
  -29.9594  -22.1270   19.3988 H   0  0  0  0  0  0
  1 25  1  0  0  0
  1 30  2  0  0  0
  1 84  1  0  0  0
  2  3  1  0  0  0
  2 25  1  0  0  0
  2 87  1  0  0  0
  2 88  1  0  0  0
  3  4  1  0  0  0
  3 89  1  0  0  0
  3 90  1  0  0  0
  4  5  1  0  0  0
  4 91  1  0  0  0
  4 92  1  0  0  0
  5  6  1  0  0  0
  5 26  1  0  0  0
  5 93  1  0  0  0
  6 25  1  0  0  0
  6 94  1  0  0  0
  6 95  1  0  0  0
  7  8  2  0  0  0
  7 26  1  0  0  0
  7 29  1  0  0  0
  8  9  1  0  0  0
  8 22  1  0  0  0
  9 10  1  0  0  0
  9 27  2  0  0  0
 10 11  2  0  0  0
 10 15  1  0  0  0
 11 12  1  0  0  0
 11 96  1  0  0  0
 12 13  2  0  0  0
 12 97  1  0  0  0
 13 14  1  0  0  0
 13 31  1  0  0  0
 14 15  2  0  0  0
 14 98  1  0  0  0
 15 99  1  0  0  0
 16 17  2  0  0  0
 16 21  1  0  0  0
 16 31  1  0  0  0
 17 18  1  0  0  0
 17100  1  0  0  0
 18 19  2  0  0  0
 18101  1  0  0  0
 19 20  1  0  0  0
 19 24  1  0  0  0
 20 21  2  0  0  0
 20102  1  0  0  0
 21 23  1  0  0  0
 22 28  1  0  0  0
 22 32  2  0  0  0
 26 27  1  0  0  0
 28103  1  0  0  0
 28104  1  0  0  0
 29105  1  0  0  0
 29106  1  0  0  0
 33 34  1  0  0  0
 33 66  1  0  0  0
 33 70  2  0  0  0
 34 36  1  0  0  0
 34 59  1  0  0  0
 34107  1  0  0  0
 35 44  2  0  0  0
 35 45  1  0  0  0
 35 68  1  0  0  0
 36 56  1  0  0  0
 36108  1  0  0  0
 37 39  1  0  0  0
 37 47  1  0  0  0
 37 66  1  0  0  0
 37109  1  0  0  0
 38 43  2  0  0  0
 38 46  1  0  0  0
 38 47  1  0  0  0
 39 64  1  0  0  0
 39 67  2  0  0  0
 40 52  1  0  0  0
 40 53  2  0  0  0
 40 58  1  0  0  0
 41110  1  0  0  0
 41111  1  0  0  0
 41112  1  0  0  0
 41 48  1  0  0  0
 42 43  1  0  0  0
 42 66  1  0  0  0
 42113  1  0  0  0
 42114  1  0  0  0
 43 44  1  0  0  0
 44115  1  0  0  0
 45 46  2  0  0  0
 45116  1  0  0  0
 46117  1  0  0  0
 47118  1  0  0  0
 47119  1  0  0  0
 48 56  1  0  0  0
 48 65  1  0  0  0
 48120  1  0  0  0
 49 50  1  0  0  0
 49 53  1  0  0  0
 49 64  1  0  0  0
 49121  1  0  0  0
 50 51  1  0  0  0
 50122  1  0  0  0
 50123  1  0  0  0
 51 52  1  0  0  0
 51124  1  0  0  0
 51125  1  0  0  0
 52126  1  0  0  0
 52127  1  0  0  0
 53 54  1  0  0  0
 54 55  2  0  0  0
 54128  1  0  0  0
 55 57  1  0  0  0
 55129  1  0  0  0
 56 69  2  0  0  0
 57 58  2  0  0  0
 57130  1  0  0  0
 58131  1  0  0  0
 59 60  1  0  0  0
 59 61  1  0  0  0
 59 62  1  0  0  0
 60132  1  0  0  0
 60133  1  0  0  0
 60134  1  0  0  0
 61135  1  0  0  0
 61136  1  0  0  0
 61137  1  0  0  0
 62138  1  0  0  0
 62139  1  0  0  0
 62140  1  0  0  0
 63 65  1  0  0  0
 63141  1  0  0  0
 63142  1  0  0  0
 63143  1  0  0  0
 64144  1  0  0  0
 65145  1  0  0  0
 68 83  1  0  0  0
 71 72  2  0  0  0
 71 75  1  0  0  0
 71146  1  0  0  0
 72 76  1  0  0  0
 72 77  1  0  0  0
 73 74  1  0  0  0
 73 75  2  0  0  0
 73 78  1  0  0  0
 74 76  2  0  0  0
 74 81  1  0  0  0
 75 84  1  0  0  0
 76 86  1  0  0  0
 77147  1  0  0  0
 77148  1  0  0  0
 77149  1  0  0  0
 78150  1  0  0  0
 78151  1  0  0  0
 78152  1  0  0  0
 79153  1  0  0  0
 79154  1  0  0  0
 79155  1  0  0  0
 79 82  1  0  0  0
 80156  1  0  0  0
 80157  1  0  0  0
 80158  1  0  0  0
 80 83  1  0  0  0
 81 85  1  0  0  0
 81159  1  0  0  0
 81160  1  0  0  0
 82 83  1  0  0  0
 82 85  1  0  0  0
 82161  1  0  0  0
 83162  1  0  0  0
 84163  1  0  0  0
 85164  1  0  0  0
 85165  1  0  0  0
M  CHG  1  85   1
M  ISO  4   1 100  68 101  83 101  84 100
M  END
> <chiral flag>
0

> <version>
0

> <s_m_source_file>
/data/baiqing/PycharmProjects/Reinvent-master-3.2/result/LINK_invent/BTK/process_docking_weight1_custom_sum_contain_oxygen_bond_distance_aromatic_linkinvent_7_9_3/rearranged_h_0015.sdf

> <i_m_source_file_index>
2

> <r_mmod_Potential_Energy-OPLS-2005>
20.2343921661377

> <r_mmod_Stretch_Energy-OPLS-2005>
133.64436340332

> <r_mmod_Bend_Energy-OPLS-2005>
175.359619140625

> <r_mmod_Torsional_Energy-OPLS-2005>
233.827896118164

> <r_mmod_Improper_Torsional_Energy-OPLS-2005>
5.94242286682129

> <r_mmod_Van_der_Waal_Energy-OPLS-2005>
146.684906005859

> <r_mmod_Electrostatic_Energy-OPLS-2005>
-328.954040527344

> <r_mmod_Solvation_Energy-OPLS-2005>
-429.421417236328

> <b_mmod_Minimization_Converged-OPLS-2005>
0

> <r_mmod_RMS_Derivative-OPLS-2005>
2.31281042098999

$$$$
2
                    3D
 Structure written by MMmdl.
162170  0  0  1  0            999 V2000
  -30.4925  -15.0570   20.4200 C   0  0  0  0  0  0
  -30.4365  -12.6703   19.5007 C   0  0  0  0  0  0
  -29.5192  -12.5374   18.2642 C   0  0  0  0  0  0
  -28.0628  -12.2913   18.6974 C   0  0  0  0  0  0
  -27.6134  -13.2535   19.8293 C   0  0  2  0  0  0
  -28.6504  -13.3500   20.9614 C   0  0  0  0  0  0
  -25.2417  -13.8239   20.5827 C   0  0  0  0  0  0
  -24.1712  -13.0475   20.9284 C   0  0  0  0  0  0
  -24.6339  -11.6959   20.8814 C   0  0  0  0  0  0
  -23.9070  -10.4322   21.0481 C   0  0  0  0  0  0
  -24.3644   -9.4235   21.9243 C   0  0  0  0  0  0
  -23.6331   -8.2257   22.0787 C   0  0  0  0  0  0
  -22.4304   -8.0300   21.3588 C   0  0  0  0  0  0
  -21.9941   -9.0284   20.4697 C   0  0  0  0  0  0
  -22.7254  -10.2167   20.3116 C   0  0  0  0  0  0
  -21.6845   -6.0759   22.5304 C   0  0  0  0  0  0
  -21.4000   -6.5669   23.8233 C   0  0  0  0  0  0
  -21.3661   -5.6821   24.9187 C   0  0  0  0  0  0
  -21.6047   -4.3083   24.7234 C   0  0  0  0  0  0
  -21.8803   -3.8178   23.4353 C   0  0  0  0  0  0
  -21.9182   -4.6994   22.3408 C   0  0  0  0  0  0
  -22.7720  -13.5254   21.1935 C   0  0  0  0  0  0
  -22.1656   -4.2169   21.0984 F   0  0  0  0  0  0
  -21.5629   -3.4568   25.7754 F   0  0  0  0  0  0
  -29.9060  -13.7876   20.3367 N   0  0  0  0  0  0
  -26.2817  -12.9464   20.3279 N   0  0  0  0  0  0
  -25.9272  -11.6597   20.5770 N   0  0  0  0  0  0
  -22.0369  -12.8222   22.0472 N   0  0  0  0  0  0
  -25.4185  -15.1977   20.4424 N   0  0  0  0  0  0
  -31.7157  -15.0981   20.2470 O   0  0  0  0  0  0
  -21.6663   -6.8894   21.4262 O   0  0  0  0  0  0
  -22.3439  -14.5587   20.6800 O   0  0  0  0  0  0
  -24.6480  -31.8380   23.1861 C   0  0  0  0  0  0
  -25.9215  -32.4659   23.8237 C   0  0  1  0  0  0
  -27.2100  -27.0800   20.1545 C   0  0  0  0  0  0
  -25.5991  -33.8466   24.2177 N   0  0  0  0  0  0
  -23.4526  -30.4580   21.5331 C   0  0  2  0  0  0
  -24.9013  -28.8782   20.1082 C   0  0  0  0  0  0
  -22.7539  -29.4515   22.4804 C   0  0  0  0  0  0
  -18.0316  -28.1337   22.8519 C   0  0  0  0  0  0
  -24.1509  -36.7245   23.2644 C   0  0  0  0  0  0
  -26.0098  -30.6982   21.3907 C   0  0  0  0  0  0
  -26.0802  -29.3016   20.7355 C   0  0  0  0  0  0
  -27.2302  -28.4170   20.7476 C   0  0  0  0  0  0
  -26.0144  -26.7793   19.4661 C   0  0  0  0  0  0
  -24.8858  -27.6345   19.4607 C   0  0  0  0  0  0
  -23.6827  -29.7954   20.1483 C   0  0  0  0  0  0
  -25.4144  -36.3019   24.0316 C   0  0  1  0  0  0
  -20.5904  -28.3788   23.1266 C   0  0  2  0  0  0
  -20.6830  -26.9416   22.5585 C   0  0  0  0  0  0
  -19.5834  -26.6192   21.5403 C   0  0  0  0  0  0
  -18.2008  -26.7792   22.1820 C   0  0  0  0  0  0
  -19.1548  -28.8890   23.2827 C   0  0  0  0  0  0
  -18.9477  -30.1496   23.8786 C   0  0  0  0  0  0
  -17.6482  -30.6655   24.0435 C   0  0  0  0  0  0
  -25.9105  -34.9394   23.5081 C   0  0  0  0  0  0
  -16.5372  -29.9090   23.6305 C   0  0  0  0  0  0
  -16.7297  -28.6445   23.0423 C   0  0  0  0  0  0
  -26.4565  -31.6515   25.0675 C   0  0  0  0  0  0
  -25.3740  -31.3724   26.1364 C   0  0  0  0  0  0
  -27.0448  -30.2938   24.6214 C   0  0  0  0  0  0
  -27.6122  -32.4263   25.7442 C   0  0  0  0  0  0
  -27.5593  -37.1775   24.8470 C   0  0  0  0  0  0
  -21.4223  -29.3031   22.3536 N   0  0  0  0  0  0
  -26.4300  -37.3746   23.9421 N   0  0  0  0  0  0
  -24.7231  -31.0193   22.0935 N   0  0  0  0  0  0
  -23.4129  -28.8114   23.3020 O   0  0  0  0  0  0
  -28.2600  -26.0728   20.2656 O   0  0  0  0  0  0
  -26.5639  -34.8910   22.4630 O   0  0  0  0  0  0
  -23.5582  -32.1293   23.7050 O   0  0  0  0  0  0
  -30.0494  -20.4950   21.8769 C   0  0  0  0  0  0
  -30.6009  -19.3808   22.5522 C   0  0  0  0  0  0
  -30.4237  -18.0384   22.0968 C   0  0  0  0  0  0
  -29.3155  -20.3947   20.6787 C   0  0  0  0  0  0
  -29.8167  -17.7505   20.8364 C   0  0  0  0  0  0
  -29.2346  -18.9739   20.1688 C   0  0  0  0  0  0
  -31.3860  -19.6786   23.8273 C   0  0  0  0  0  0
  -30.8212  -16.9056   23.0422 C   0  0  0  0  0  0
  -27.6326  -23.0473   21.8730 C   0  0  0  0  0  0
  -27.2702  -19.1335   18.7935 C   0  0  0  0  0  0
  -28.2067  -24.5472   19.8361 C   0  0  0  0  0  0
  -28.6410  -23.1389   20.7154 C   0  0  2  0  0  0
  -29.6852  -16.2576   20.3953 N   0  0  0  0  0  0
  -28.8033  -21.6872   20.0945 N   0  0  0  0  0  0
  -28.6287  -18.7265   18.9556 O   0  0  0  0  0  0
  -31.4584  -12.8623   19.1775 H   0  0  0  0  0  0
  -30.4681  -11.7396   20.0725 H   0  0  0  0  0  0
  -29.8629  -11.7268   17.6200 H   0  0  0  0  0  0
  -29.5743  -13.4468   17.6655 H   0  0  0  0  0  0
  -27.9959  -11.2622   19.0523 H   0  0  0  0  0  0
  -27.3959  -12.3568   17.8387 H   0  0  0  0  0  0
  -27.5535  -14.2374   19.3670 H   0  0  0  0  0  0
  -28.7630  -12.4041   21.4924 H   0  0  0  0  0  0
  -28.3218  -14.0822   21.7017 H   0  0  0  0  0  0
  -25.2766   -9.5693   22.4849 H   0  0  0  0  0  0
  -24.0036   -7.4629   22.7495 H   0  0  0  0  0  0
  -21.0870   -8.8820   19.9008 H   0  0  0  0  0  0
  -22.3730  -10.9740   19.6249 H   0  0  0  0  0  0
  -21.1996   -7.6175   23.9731 H   0  0  0  0  0  0
  -21.1500   -6.0562   25.9085 H   0  0  0  0  0  0
  -22.0578   -2.7643   23.2860 H   0  0  0  0  0  0
  -22.3957  -11.9853   22.4819 H   0  0  0  0  0  0
  -21.1033  -13.1306   22.2738 H   0  0  0  0  0  0
  -24.6800  -15.8666   20.6325 H   0  0  0  0  0  0
  -26.2945  -15.6457   20.2146 H   0  0  0  0  0  0
  -26.7236  -32.5251   23.0913 H   0  0  0  0  0  0
  -25.0185  -33.9564   25.0360 H   0  0  0  0  0  0
  -22.7642  -31.2915   21.3819 H   0  0  0  0  0  0
  -23.3801  -35.9547   23.3283 H   0  0  0  0  0  0
  -24.3594  -36.8873   22.2062 H   0  0  0  0  0  0
  -23.7243  -37.6432   23.6686 H   0  0  0  0  0  0
  -26.1649  -31.4496   20.6167 H   0  0  0  0  0  0
  -26.8776  -30.7553   22.0337 H   0  0  0  0  0  0
  -28.1186  -28.7341   21.2762 H   0  0  0  0  0  0
  -25.9039  -25.8462   18.9333 H   0  0  0  0  0  0
  -23.9972  -27.3160   18.9371 H   0  0  0  0  0  0
  -23.8284  -30.5808   19.4045 H   0  0  0  0  0  0
  -22.7916  -29.2490   19.8288 H   0  0  0  0  0  0
  -25.1328  -36.1858   25.0799 H   0  0  0  0  0  0
  -20.9926  -28.3597   24.1416 H   0  0  0  0  0  0
  -20.5772  -26.2450   23.3938 H   0  0  0  0  0  0
  -21.6724  -26.7323   22.1481 H   0  0  0  0  0  0
  -19.7046  -25.6022   21.1723 H   0  0  0  0  0  0
  -19.6799  -27.2801   20.6765 H   0  0  0  0  0  0
  -17.4193  -26.6191   21.4355 H   0  0  0  0  0  0
  -18.0625  -26.0049   22.9403 H   0  0  0  0  0  0
  -19.7999  -30.7271   24.2086 H   0  0  0  0  0  0
  -17.5048  -31.6392   24.4945 H   0  0  0  0  0  0
  -15.5350  -30.2955   23.7611 H   0  0  0  0  0  0
  -15.8673  -28.0697   22.7331 H   0  0  0  0  0  0
  -24.5934  -30.7054   25.7709 H   0  0  0  0  0  0
  -24.8913  -32.2891   26.4741 H   0  0  0  0  0  0
  -25.8001  -30.8942   27.0188 H   0  0  0  0  0  0
  -26.3055  -29.6641   24.1251 H   0  0  0  0  0  0
  -27.4174  -29.7253   25.4750 H   0  0  0  0  0  0
  -27.8917  -30.4264   23.9481 H   0  0  0  0  0  0
  -27.2770  -33.3612   26.1962 H   0  0  0  0  0  0
  -28.3963  -32.6688   25.0256 H   0  0  0  0  0  0
  -28.0747  -31.8377   26.5381 H   0  0  0  0  0  0
  -28.2599  -38.0084   24.7497 H   0  0  0  0  0  0
  -28.1085  -36.2599   24.6310 H   0  0  0  0  0  0
  -27.2284  -37.1435   25.8863 H   0  0  0  0  0  0
  -20.9429  -29.8711   21.6679 H   0  0  0  0  0  0
  -26.0174  -38.2822   24.1410 H   0  0  0  0  0  0
  -30.2032  -21.4694   22.3162 H   0  0  0  0  0  0
  -31.8236  -20.6782   23.8003 H   0  0  0  0  0  0
  -32.2197  -18.9901   23.9608 H   0  0  0  0  0  0
  -30.7458  -19.6147   24.7092 H   0  0  0  0  0  0
  -30.6716  -17.1916   24.0835 H   0  0  0  0  0  0
  -31.8644  -16.6236   22.9080 H   0  0  0  0  0  0
  -30.1920  -16.0244   22.9229 H   0  0  0  0  0  0
  -27.5226  -24.0140   22.3642 H   0  0  0  0  0  0
  -27.9271  -22.3289   22.6384 H   0  0  0  0  0  0
  -26.6396  -22.7638   21.5125 H   0  0  0  0  0  0
  -27.0049  -20.0758   19.2681 H   0  0  0  0  0  0
  -26.5993  -18.3681   19.1834 H   0  0  0  0  0  0
  -27.0513  -19.2423   17.7300 H   0  0  0  0  0  0
  -28.8596  -24.5316   18.9620 H   0  0  0  0  0  0
  -27.2279  -24.3318   19.4153 H   0  0  0  0  0  0
  -29.6137  -23.3652   21.1523 H   0  0  0  0  0  0
  -28.7591  -16.0506   20.0586 H   0  0  0  0  0  0
  -28.4336  -21.6012   19.1506 H   0  0  0  0  0  0
  1 25  1  0  0  0
  1 30  2  0  0  0
  1 83  1  0  0  0
  2  3  1  0  0  0
  2 25  1  0  0  0
  2 86  1  0  0  0
  2 87  1  0  0  0
  3  4  1  0  0  0
  3 88  1  0  0  0
  3 89  1  0  0  0
  4  5  1  0  0  0
  4 90  1  0  0  0
  4 91  1  0  0  0
  5  6  1  0  0  0
  5 26  1  0  0  0
  5 92  1  0  0  0
  6 25  1  0  0  0
  6 93  1  0  0  0
  6 94  1  0  0  0
  7  8  2  0  0  0
  7 26  1  0  0  0
  7 29  1  0  0  0
  8  9  1  0  0  0
  8 22  1  0  0  0
  9 10  1  0  0  0
  9 27  2  0  0  0
 10 11  2  0  0  0
 10 15  1  0  0  0
 11 12  1  0  0  0
 11 95  1  0  0  0
 12 13  2  0  0  0
 12 96  1  0  0  0
 13 14  1  0  0  0
 13 31  1  0  0  0
 14 15  2  0  0  0
 14 97  1  0  0  0
 15 98  1  0  0  0
 16 17  2  0  0  0
 16 21  1  0  0  0
 16 31  1  0  0  0
 17 18  1  0  0  0
 17 99  1  0  0  0
 18 19  2  0  0  0
 18100  1  0  0  0
 19 20  1  0  0  0
 19 24  1  0  0  0
 20 21  2  0  0  0
 20101  1  0  0  0
 21 23  1  0  0  0
 22 28  1  0  0  0
 22 32  2  0  0  0
 26 27  1  0  0  0
 28102  1  0  0  0
 28103  1  0  0  0
 29104  1  0  0  0
 29105  1  0  0  0
 33 34  1  0  0  0
 33 66  1  0  0  0
 33 70  2  0  0  0
 34 36  1  0  0  0
 34 59  1  0  0  0
 34106  1  0  0  0
 35 44  2  0  0  0
 35 45  1  0  0  0
 35 68  1  0  0  0
 36 56  1  0  0  0
 36107  1  0  0  0
 37 39  1  0  0  0
 37 47  1  0  0  0
 37 66  1  0  0  0
 37108  1  0  0  0
 38 43  2  0  0  0
 38 46  1  0  0  0
 38 47  1  0  0  0
 39 64  1  0  0  0
 39 67  2  0  0  0
 40 52  1  0  0  0
 40 53  2  0  0  0
 40 58  1  0  0  0
 41109  1  0  0  0
 41110  1  0  0  0
 41111  1  0  0  0
 41 48  1  0  0  0
 42 43  1  0  0  0
 42 66  1  0  0  0
 42112  1  0  0  0
 42113  1  0  0  0
 43 44  1  0  0  0
 44114  1  0  0  0
 45 46  2  0  0  0
 45115  1  0  0  0
 46116  1  0  0  0
 47117  1  0  0  0
 47118  1  0  0  0
 48 56  1  0  0  0
 48 65  1  0  0  0
 48119  1  0  0  0
 49 50  1  0  0  0
 49 53  1  0  0  0
 49 64  1  0  0  0
 49120  1  0  0  0
 50 51  1  0  0  0
 50121  1  0  0  0
 50122  1  0  0  0
 51 52  1  0  0  0
 51123  1  0  0  0
 51124  1  0  0  0
 52125  1  0  0  0
 52126  1  0  0  0
 53 54  1  0  0  0
 54 55  2  0  0  0
 54127  1  0  0  0
 55 57  1  0  0  0
 55128  1  0  0  0
 56 69  2  0  0  0
 57 58  2  0  0  0
 57129  1  0  0  0
 58130  1  0  0  0
 59 60  1  0  0  0
 59 61  1  0  0  0
 59 62  1  0  0  0
 60131  1  0  0  0
 60132  1  0  0  0
 60133  1  0  0  0
 61134  1  0  0  0
 61135  1  0  0  0
 61136  1  0  0  0
 62137  1  0  0  0
 62138  1  0  0  0
 62139  1  0  0  0
 63 65  1  0  0  0
 63140  1  0  0  0
 63141  1  0  0  0
 63142  1  0  0  0
 64143  1  0  0  0
 65144  1  0  0  0
 68 81  1  0  0  0
 71 72  2  0  0  0
 71 74  1  0  0  0
 71145  1  0  0  0
 72 73  1  0  0  0
 72 77  1  0  0  0
 73 75  2  0  0  0
 73 78  1  0  0  0
 74 76  2  0  0  0
 74 84  1  0  0  0
 75 76  1  0  0  0
 75 83  1  0  0  0
 76 85  1  0  0  0
 77146  1  0  0  0
 77147  1  0  0  0
 77148  1  0  0  0
 78149  1  0  0  0
 78150  1  0  0  0
 78151  1  0  0  0
 79152  1  0  0  0
 79153  1  0  0  0
 79154  1  0  0  0
 79 82  1  0  0  0
 80 85  1  0  0  0
 80155  1  0  0  0
 80156  1  0  0  0
 80157  1  0  0  0
 81 82  1  0  0  0
 81158  1  0  0  0
 81159  1  0  0  0
 82 84  1  0  0  0
 82160  1  0  0  0
 83161  1  0  0  0
 84162  1  0  0  0
M  ISO  4   1 100  68 101  81 101  83 100
M  END
> <chiral flag>
0

> <version>
0

> <s_m_source_file>
/data/baiqing/PycharmProjects/Reinvent-master-3.2/result/LINK_invent/BTK/process_docking_weight1_custom_sum_contain_oxygen_bond_distance_aromatic_linkinvent_7_9_3/rearranged_h_0015.sdf

> <i_m_source_file_index>
3

> <r_mmod_Potential_Energy-OPLS-2005>
684.466552734375

> <r_mmod_Stretch_Energy-OPLS-2005>
328.320281982422

> <r_mmod_Bend_Energy-OPLS-2005>
300.352142333984

> <r_mmod_Torsional_Energy-OPLS-2005>
254.586410522461

> <r_mmod_Improper_Torsional_Energy-OPLS-2005>
7.97233581542969

> <r_mmod_Van_der_Waal_Energy-OPLS-2005>
136.719451904297

> <r_mmod_Electrostatic_Energy-OPLS-2005>
-395.255828857422

> <r_mmod_Solvation_Energy-OPLS-2005>
-216.980773925781

> <b_mmod_Minimization_Converged-OPLS-2005>
0

> <r_mmod_RMS_Derivative-OPLS-2005>
6.20205354690552

$$$$
3
                    3D
 Structure written by MMmdl.
161169  0  0  1  0            999 V2000
  -30.4873  -15.0595   20.4105 C   0  0  0  0  0  0
  -30.4449  -12.6724   19.4872 C   0  0  0  0  0  0
  -29.5199  -12.5390   18.2548 C   0  0  0  0  0  0
  -28.0598  -12.2997   18.6861 C   0  0  0  0  0  0
  -27.6195  -13.2511   19.8276 C   0  0  2  0  0  0
  -28.6649  -13.3317   20.9573 C   0  0  0  0  0  0
  -25.2422  -13.8209   20.5752 C   0  0  0  0  0  0
  -24.1747  -13.0428   20.9275 C   0  0  0  0  0  0
  -24.6365  -11.6921   20.8771 C   0  0  0  0  0  0
  -23.9052  -10.4289   21.0409 C   0  0  0  0  0  0
  -24.3605   -9.4204   21.9181 C   0  0  0  0  0  0
  -23.6286   -8.2236   22.0748 C   0  0  0  0  0  0
  -22.4270   -8.0270   21.3533 C   0  0  0  0  0  0
  -21.9901   -9.0244   20.4634 C   0  0  0  0  0  0
  -22.7225  -10.2130   20.3049 C   0  0  0  0  0  0
  -21.6848   -6.0732   22.5284 C   0  0  0  0  0  0
  -21.4008   -6.5637   23.8214 C   0  0  0  0  0  0
  -21.3661   -5.6796   24.9183 C   0  0  0  0  0  0
  -21.6041   -4.3059   24.7236 C   0  0  0  0  0  0
  -21.8815   -3.8145   23.4358 C   0  0  0  0  0  0
  -21.9194   -4.6963   22.3411 C   0  0  0  0  0  0
  -22.7765  -13.5199   21.1941 C   0  0  0  0  0  0
  -22.1663   -4.2143   21.0989 F   0  0  0  0  0  0
  -21.5631   -3.4545   25.7749 F   0  0  0  0  0  0
  -29.9146  -13.7832   20.3339 N   0  0  0  0  0  0
  -26.2843  -12.9440   20.3242 N   0  0  0  0  0  0
  -25.9298  -11.6567   20.5731 N   0  0  0  0  0  0
  -22.0412  -12.8171   22.0484 N   0  0  0  0  0  0
  -25.4067  -15.1942   20.4188 N   0  0  0  0  0  0
  -31.7123  -15.1061   20.2450 O   0  0  0  0  0  0
  -21.6636   -6.8872   21.4237 O   0  0  0  0  0  0
  -22.3461  -14.5506   20.6792 O   0  0  0  0  0  0
  -24.6479  -31.8394   23.1806 C   0  0  0  0  0  0
  -25.9217  -32.4667   23.8223 C   0  0  1  0  0  0
  -27.2162  -27.0569   20.1963 C   0  0  0  0  0  0
  -25.5943  -33.8480   24.2152 N   0  0  0  0  0  0
  -23.4553  -30.4524   21.5293 C   0  0  2  0  0  0
  -24.9055  -28.8536   20.1257 C   0  0  0  0  0  0
  -22.7580  -29.4515   22.4845 C   0  0  0  0  0  0
  -18.0305  -28.1394   22.8489 C   0  0  0  0  0  0
  -24.1506  -36.7242   23.2642 C   0  0  0  0  0  0
  -26.0143  -30.6889   21.3902 C   0  0  0  0  0  0
  -26.0851  -29.2875   20.7444 C   0  0  0  0  0  0
  -27.2431  -28.4113   20.7491 C   0  0  0  0  0  0
  -26.0066  -26.7278   19.5521 C   0  0  0  0  0  0
  -24.8834  -27.5893   19.5121 C   0  0  0  0  0  0
  -23.6877  -29.7702   20.1551 C   0  0  0  0  0  0
  -25.4140  -36.3013   24.0310 C   0  0  1  0  0  0
  -20.5917  -28.3730   23.1235 C   0  0  2  0  0  0
  -20.6793  -26.9431   22.5417 C   0  0  0  0  0  0
  -19.5765  -26.6375   21.5230 C   0  0  0  0  0  0
  -18.1940  -26.7933   22.1637 C   0  0  0  0  0  0
  -19.1562  -28.8885   23.2849 C   0  0  0  0  0  0
  -18.9476  -30.1481   23.8867 C   0  0  0  0  0  0
  -17.6469  -30.6591   24.0560 C   0  0  0  0  0  0
  -25.9094  -34.9394   23.5053 C   0  0  0  0  0  0
  -16.5362  -29.9085   23.6324 C   0  0  0  0  0  0
  -16.7289  -28.6503   23.0350 C   0  0  0  0  0  0
  -26.4522  -31.6539   25.0686 C   0  0  0  0  0  0
  -25.3683  -31.3751   26.1365 C   0  0  0  0  0  0
  -27.0389  -30.2917   24.6313 C   0  0  0  0  0  0
  -27.6039  -32.4328   25.7477 C   0  0  0  0  0  0
  -27.5581  -37.1786   24.8459 C   0  0  0  0  0  0
  -21.4266  -29.3048   22.3601 N   0  0  0  0  0  0
  -26.4296  -37.3734   23.9399 N   0  0  0  0  0  0
  -24.7258  -31.0176   22.0876 N   0  0  0  0  0  0
  -23.4194  -28.8081   23.3035 O   0  0  0  0  0  0
  -28.3085  -26.1030   20.1041 O   0  0  0  0  0  0
  -26.5696  -34.8900   22.4641 O   0  0  0  0  0  0
  -23.5586  -32.1309   23.6977 O   0  0  0  0  0  0
  -29.9434  -20.4810   21.8375 C   0  0  0  0  0  0
  -30.5352  -19.3523   22.4629 C   0  0  0  0  0  0
  -29.2292  -18.9999   20.0546 C   0  0  0  0  0  0
  -29.2942  -20.4150   20.5899 C   0  0  0  0  0  0
  -29.8061  -17.7605   20.7040 C   0  0  0  0  0  0
  -30.4685  -18.0415   21.9204 C   0  0  0  0  0  0
  -31.2844  -19.5651   23.7663 C   0  0  0  0  0  0
  -28.4936  -18.7946   18.7437 C   0  0  0  0  0  0
  -26.9386  -22.5513   21.2118 C   0  0  0  0  0  0
  -29.9141  -22.0046   18.8528 C   0  0  0  0  0  0
  -28.4958  -24.6239   20.6647 C   0  0  0  0  0  0
  -28.0395  -23.0075   20.2446 C   0  0  2  0  0  0
  -29.6703  -16.2481   20.3287 N   0  0  0  0  0  0
  -28.9902  -21.7568   19.9553 N   0  0  0  0  0  0
  -31.0145  -17.0214   22.6267 F   0  0  0  0  0  0
  -31.4654  -12.8742   19.1587 H   0  0  0  0  0  0
  -30.4913  -11.7401   20.0508 H   0  0  0  0  0  0
  -29.8587  -11.7244   17.6134 H   0  0  0  0  0  0
  -29.5774  -13.4490   17.6556 H   0  0  0  0  0  0
  -27.9842  -11.2661   19.0250 H   0  0  0  0  0  0
  -27.3878  -12.3925   17.8312 H   0  0  0  0  0  0
  -27.5622  -14.2387   19.3694 H   0  0  0  0  0  0
  -28.7901  -12.3695   21.4547 H   0  0  0  0  0  0
  -28.3473  -14.0415   21.7241 H   0  0  0  0  0  0
  -25.2732   -9.5705   22.4779 H   0  0  0  0  0  0
  -24.0001   -7.4627   22.7459 H   0  0  0  0  0  0
  -21.0840   -8.8745   19.8938 H   0  0  0  0  0  0
  -22.3647  -10.9674   19.6180 H   0  0  0  0  0  0
  -21.1988   -7.6143   23.9720 H   0  0  0  0  0  0
  -21.1488   -6.0526   25.9086 H   0  0  0  0  0  0
  -22.0590   -2.7608   23.2862 H   0  0  0  0  0  0
  -22.4025  -11.9832   22.4867 H   0  0  0  0  0  0
  -21.1027  -13.1172   22.2682 H   0  0  0  0  0  0
  -24.6335  -15.8398   20.5367 H   0  0  0  0  0  0
  -26.2468  -15.6436   20.0823 H   0  0  0  0  0  0
  -26.7285  -32.5269   23.0945 H   0  0  0  0  0  0
  -25.0016  -33.9607   25.0251 H   0  0  0  0  0  0
  -22.7597  -31.2776   21.3672 H   0  0  0  0  0  0
  -23.3781  -35.9563   23.3285 H   0  0  0  0  0  0
  -24.3572  -36.8898   22.2055 H   0  0  0  0  0  0
  -23.7266  -37.6431   23.6708 H   0  0  0  0  0  0
  -26.1756  -31.4364   20.6114 H   0  0  0  0  0  0
  -26.8811  -30.7475   22.0378 H   0  0  0  0  0  0
  -28.1526  -28.7569   21.2210 H   0  0  0  0  0  0
  -25.9264  -25.7623   19.0718 H   0  0  0  0  0  0
  -23.9855  -27.2530   19.0137 H   0  0  0  0  0  0
  -23.8338  -30.5401   19.3977 H   0  0  0  0  0  0
  -22.8005  -29.2172   19.8430 H   0  0  0  0  0  0
  -25.1345  -36.1825   25.0806 H   0  0  0  0  0  0
  -21.0008  -28.3328   24.1360 H   0  0  0  0  0  0
  -20.5700  -26.2341   23.3648 H   0  0  0  0  0  0
  -21.6657  -26.7448   22.1207 H   0  0  0  0  0  0
  -19.6933  -25.6280   21.1273 H   0  0  0  0  0  0
  -19.6691  -27.3177   20.6753 H   0  0  0  0  0  0
  -17.4217  -26.6675   21.4030 H   0  0  0  0  0  0
  -18.0331  -26.0086   22.9040 H   0  0  0  0  0  0
  -19.7952  -30.7302   24.2220 H   0  0  0  0  0  0
  -17.5023  -31.6268   24.5171 H   0  0  0  0  0  0
  -15.5364  -30.2973   23.7669 H   0  0  0  0  0  0
  -15.8686  -28.0810   22.7075 H   0  0  0  0  0  0
  -24.5869  -30.7105   25.7659 H   0  0  0  0  0  0
  -24.8867  -32.2946   26.4710 H   0  0  0  0  0  0
  -25.7928  -30.8955   27.0192 H   0  0  0  0  0  0
  -26.3018  -29.6619   24.1318 H   0  0  0  0  0  0
  -27.3956  -29.7238   25.4911 H   0  0  0  0  0  0
  -27.8941  -30.4104   23.9659 H   0  0  0  0  0  0
  -27.2612  -33.3644   26.1988 H   0  0  0  0  0  0
  -28.3868  -32.6866   25.0319 H   0  0  0  0  0  0
  -28.0688  -31.8506   26.5439 H   0  0  0  0  0  0
  -28.2594  -38.0086   24.7506 H   0  0  0  0  0  0
  -28.1090  -36.2619   24.6305 H   0  0  0  0  0  0
  -27.2288  -37.1438   25.8857 H   0  0  0  0  0  0
  -20.9484  -29.8732   21.6745 H   0  0  0  0  0  0
  -26.0154  -38.2804   24.1387 H   0  0  0  0  0  0
  -30.0542  -21.4474   22.3087 H   0  0  0  0  0  0
  -31.6802  -20.5780   23.8236 H   0  0  0  0  0  0
  -32.1278  -18.8789   23.8544 H   0  0  0  0  0  0
  -30.6222  -19.4067   24.6187 H   0  0  0  0  0  0
  -27.4169  -18.8246   18.9118 H   0  0  0  0  0  0
  -28.7402  -17.8342   18.2893 H   0  0  0  0  0  0
  -28.7431  -19.5701   18.0237 H   0  0  0  0  0  0
  -27.3278  -22.4217   22.2223 H   0  0  0  0  0  0
  -26.5010  -21.6037   20.8992 H   0  0  0  0  0  0
  -26.1272  -23.2782   21.2576 H   0  0  0  0  0  0
  -30.7802  -22.5650   19.2095 H   0  0  0  0  0  0
  -29.4344  -22.5886   18.0649 H   0  0  0  0  0  0
  -30.2826  -21.0865   18.3941 H   0  0  0  0  0  0
  -29.5822  -24.5578   20.7075 H   0  0  0  0  0  0
  -28.2338  -24.7288   21.7181 H   0  0  0  0  0  0
  -27.5260  -23.1396   19.2908 H   0  0  0  0  0  0
  -28.7250  -16.0050   20.0835 H   0  0  0  0  0  0
  1 25  1  0  0  0
  1 30  2  0  0  0
  1 83  1  0  0  0
  2  3  1  0  0  0
  2 25  1  0  0  0
  2 86  1  0  0  0
  2 87  1  0  0  0
  3  4  1  0  0  0
  3 88  1  0  0  0
  3 89  1  0  0  0
  4  5  1  0  0  0
  4 90  1  0  0  0
  4 91  1  0  0  0
  5  6  1  0  0  0
  5 26  1  0  0  0
  5 92  1  0  0  0
  6 25  1  0  0  0
  6 93  1  0  0  0
  6 94  1  0  0  0
  7  8  2  0  0  0
  7 26  1  0  0  0
  7 29  1  0  0  0
  8  9  1  0  0  0
  8 22  1  0  0  0
  9 10  1  0  0  0
  9 27  2  0  0  0
 10 11  2  0  0  0
 10 15  1  0  0  0
 11 12  1  0  0  0
 11 95  1  0  0  0
 12 13  2  0  0  0
 12 96  1  0  0  0
 13 14  1  0  0  0
 13 31  1  0  0  0
 14 15  2  0  0  0
 14 97  1  0  0  0
 15 98  1  0  0  0
 16 17  2  0  0  0
 16 21  1  0  0  0
 16 31  1  0  0  0
 17 18  1  0  0  0
 17 99  1  0  0  0
 18 19  2  0  0  0
 18100  1  0  0  0
 19 20  1  0  0  0
 19 24  1  0  0  0
 20 21  2  0  0  0
 20101  1  0  0  0
 21 23  1  0  0  0
 22 28  1  0  0  0
 22 32  2  0  0  0
 26 27  1  0  0  0
 28102  1  0  0  0
 28103  1  0  0  0
 29104  1  0  0  0
 29105  1  0  0  0
 33 34  1  0  0  0
 33 66  1  0  0  0
 33 70  2  0  0  0
 34 36  1  0  0  0
 34 59  1  0  0  0
 34106  1  0  0  0
 35 44  2  0  0  0
 35 45  1  0  0  0
 35 68  1  0  0  0
 36 56  1  0  0  0
 36107  1  0  0  0
 37 39  1  0  0  0
 37 47  1  0  0  0
 37 66  1  0  0  0
 37108  1  0  0  0
 38 43  2  0  0  0
 38 46  1  0  0  0
 38 47  1  0  0  0
 39 64  1  0  0  0
 39 67  2  0  0  0
 40 52  1  0  0  0
 40 53  2  0  0  0
 40 58  1  0  0  0
 41109  1  0  0  0
 41110  1  0  0  0
 41111  1  0  0  0
 41 48  1  0  0  0
 42 43  1  0  0  0
 42 66  1  0  0  0
 42112  1  0  0  0
 42113  1  0  0  0
 43 44  1  0  0  0
 44114  1  0  0  0
 45 46  2  0  0  0
 45115  1  0  0  0
 46116  1  0  0  0
 47117  1  0  0  0
 47118  1  0  0  0
 48 56  1  0  0  0
 48 65  1  0  0  0
 48119  1  0  0  0
 49 50  1  0  0  0
 49 53  1  0  0  0
 49 64  1  0  0  0
 49120  1  0  0  0
 50 51  1  0  0  0
 50121  1  0  0  0
 50122  1  0  0  0
 51 52  1  0  0  0
 51123  1  0  0  0
 51124  1  0  0  0
 52125  1  0  0  0
 52126  1  0  0  0
 53 54  1  0  0  0
 54 55  2  0  0  0
 54127  1  0  0  0
 55 57  1  0  0  0
 55128  1  0  0  0
 56 69  2  0  0  0
 57 58  2  0  0  0
 57129  1  0  0  0
 58130  1  0  0  0
 59 60  1  0  0  0
 59 61  1  0  0  0
 59 62  1  0  0  0
 60131  1  0  0  0
 60132  1  0  0  0
 60133  1  0  0  0
 61134  1  0  0  0
 61135  1  0  0  0
 61136  1  0  0  0
 62137  1  0  0  0
 62138  1  0  0  0
 62139  1  0  0  0
 63 65  1  0  0  0
 63140  1  0  0  0
 63141  1  0  0  0
 63142  1  0  0  0
 64143  1  0  0  0
 65144  1  0  0  0
 68 81  1  0  0  0
 71 72  2  0  0  0
 71 74  1  0  0  0
 71145  1  0  0  0
 72 76  1  0  0  0
 72 77  1  0  0  0
 73 74  2  0  0  0
 73 75  1  0  0  0
 73 78  1  0  0  0
 74 84  1  0  0  0
 75 76  2  0  0  0
 75 83  1  0  0  0
 76 85  1  0  0  0
 77146  1  0  0  0
 77147  1  0  0  0
 77148  1  0  0  0
 78149  1  0  0  0
 78150  1  0  0  0
 78151  1  0  0  0
 79152  1  0  0  0
 79153  1  0  0  0
 79154  1  0  0  0
 79 82  1  0  0  0
 80 84  1  0  0  0
 80155  1  0  0  0
 80156  1  0  0  0
 80157  1  0  0  0
 81 82  1  0  0  0
 81158  1  0  0  0
 81159  1  0  0  0
 82 84  1  0  0  0
 82160  1  0  0  0
 83161  1  0  0  0
M  ISO  4   1 100  68 101  81 101  83 100
M  END
> <chiral flag>
0

> <version>
0

> <s_m_source_file>
/data/baiqing/PycharmProjects/Reinvent-master-3.2/result/LINK_invent/BTK/process_docking_weight1_custom_sum_contain_oxygen_bond_distance_aromatic_linkinvent_7_9_3/rearranged_h_0015.sdf

> <i_m_source_file_index>
4

> <r_mmod_Potential_Energy-OPLS-2005>
795.066833496094

> <r_mmod_Stretch_Energy-OPLS-2005>
344.662170410156

> <r_mmod_Bend_Energy-OPLS-2005>
379.462127685547

> <r_mmod_Torsional_Energy-OPLS-2005>
290.64208984375

> <r_mmod_Improper_Torsional_Energy-OPLS-2005>
11.4030447006226

> <r_mmod_Van_der_Waal_Energy-OPLS-2005>
120.74666595459

> <r_mmod_Electrostatic_Energy-OPLS-2005>
-405.966491699219

> <r_mmod_Solvation_Energy-OPLS-2005>
-210.402938842773

> <b_mmod_Minimization_Converged-OPLS-2005>
0

> <r_mmod_RMS_Derivative-OPLS-2005>
2.62449502944946

$$$$
4
                    3D
 Structure written by MMmdl.
158166  0  0  1  0            999 V2000
  -30.4885  -15.0472   20.3643 C   0  0  0  0  0  0
  -30.4385  -12.6397   19.5332 C   0  0  0  0  0  0
  -29.5353  -12.5275   18.2807 C   0  0  0  0  0  0
  -28.0668  -12.3100   18.6906 C   0  0  0  0  0  0
  -27.6240  -13.2588   19.8349 C   0  0  2  0  0  0
  -28.6572  -13.3297   20.9796 C   0  0  0  0  0  0
  -25.2439  -13.8231   20.5737 C   0  0  0  0  0  0
  -24.1766  -13.0441   20.9247 C   0  0  0  0  0  0
  -24.6395  -11.6935   20.8776 C   0  0  0  0  0  0
  -23.9094  -10.4289   21.0412 C   0  0  0  0  0  0
  -24.3644   -9.4204   21.9194 C   0  0  0  0  0  0
  -23.6313   -8.2234   22.0757 C   0  0  0  0  0  0
  -22.4287   -8.0284   21.3548 C   0  0  0  0  0  0
  -21.9920   -9.0266   20.4656 C   0  0  0  0  0  0
  -22.7253  -10.2141   20.3068 C   0  0  0  0  0  0
  -21.6843   -6.0762   22.5298 C   0  0  0  0  0  0
  -21.4017   -6.5663   23.8229 C   0  0  0  0  0  0
  -21.3661   -5.6812   24.9186 C   0  0  0  0  0  0
  -21.6027   -4.3072   24.7230 C   0  0  0  0  0  0
  -21.8809   -3.8172   23.4342 C   0  0  0  0  0  0
  -21.9182   -4.6995   22.3404 C   0  0  0  0  0  0
  -22.7788  -13.5225   21.1884 C   0  0  0  0  0  0
  -22.1648   -4.2185   21.0984 F   0  0  0  0  0  0
  -21.5611   -3.4548   25.7729 F   0  0  0  0  0  0
  -29.9274  -13.7613   20.3829 N   0  0  0  0  0  0
  -26.2862  -12.9482   20.3226 N   0  0  0  0  0  0
  -25.9327  -11.6605   20.5736 N   0  0  0  0  0  0
  -22.0408  -12.8254   22.0439 N   0  0  0  0  0  0
  -25.4091  -15.1959   20.4185 N   0  0  0  0  0  0
  -31.6873  -15.0983   20.0600 O   0  0  0  0  0  0
  -21.6630   -6.8901   21.4252 O   0  0  0  0  0  0
  -22.3496  -14.5528   20.6707 O   0  0  0  0  0  0
  -24.6459  -31.8369   23.1799 C   0  0  0  0  0  0
  -25.9210  -32.4653   23.8200 C   0  0  1  0  0  0
  -27.2159  -27.0693   20.1592 C   0  0  0  0  0  0
  -25.5946  -33.8465   24.2122 N   0  0  0  0  0  0
  -23.4523  -30.4520   21.5254 C   0  0  2  0  0  0
  -24.9019  -28.8604   20.1012 C   0  0  0  0  0  0
  -22.7580  -29.4514   22.4816 C   0  0  0  0  0  0
  -18.0320  -28.1394   22.8474 C   0  0  0  0  0  0
  -24.1498  -36.7233   23.2643 C   0  0  0  0  0  0
  -26.0099  -30.6845   21.3915 C   0  0  0  0  0  0
  -26.0757  -29.2901   20.7312 C   0  0  0  0  0  0
  -27.2243  -28.4077   20.7473 C   0  0  0  0  0  0
  -26.0207  -26.7502   19.4819 C   0  0  0  0  0  0
  -24.8915  -27.6077   19.4611 C   0  0  0  0  0  0
  -23.6800  -29.7706   20.1469 C   0  0  0  0  0  0
  -25.4134  -36.3005   24.0302 C   0  0  1  0  0  0
  -20.5932  -28.3730   23.1225 C   0  0  2  0  0  0
  -20.6798  -26.9420   22.5413 C   0  0  0  0  0  0
  -19.5777  -26.6367   21.5216 C   0  0  0  0  0  0
  -18.1961  -26.7934   22.1620 C   0  0  0  0  0  0
  -19.1576  -28.8878   23.2845 C   0  0  0  0  0  0
  -18.9493  -30.1474   23.8870 C   0  0  0  0  0  0
  -17.6490  -30.6588   24.0557 C   0  0  0  0  0  0
  -25.9088  -34.9383   23.5030 C   0  0  0  0  0  0
  -16.5383  -29.9078   23.6338 C   0  0  0  0  0  0
  -16.7305  -28.6497   23.0358 C   0  0  0  0  0  0
  -26.4510  -31.6558   25.0682 C   0  0  0  0  0  0
  -25.3666  -31.3782   26.1358 C   0  0  0  0  0  0
  -27.0395  -30.2942   24.6339 C   0  0  0  0  0  0
  -27.6017  -32.4349   25.7480 C   0  0  0  0  0  0
  -27.5579  -37.1774   24.8458 C   0  0  0  0  0  0
  -21.4269  -29.3039   22.3565 N   0  0  0  0  0  0
  -26.4290  -37.3723   23.9406 N   0  0  0  0  0  0
  -24.7225  -31.0160   22.0863 N   0  0  0  0  0  0
  -23.4200  -28.8089   23.3008 O   0  0  0  0  0  0
  -28.2679  -26.0777   20.3105 O   0  0  0  0  0  0
  -26.5691  -34.8902   22.4625 O   0  0  0  0  0  0
  -23.5573  -32.1276   23.6995 O   0  0  0  0  0  0
  -29.4841  -19.0276   17.8576 C   0  0  0  0  0  0
  -29.3445  -19.0206   20.5808 C   0  0  0  0  0  0
  -29.6805  -17.7890   18.5207 C   0  0  0  0  0  0
  -29.2263  -20.2659   18.4976 C   0  0  0  0  0  0
  -29.6327  -17.6829   19.9390 C   0  0  0  0  0  0
  -29.1333  -20.3652   19.9120 C   0  0  0  0  0  0
  -29.8944  -16.5718   17.6331 C   0  0  0  0  0  0
  -29.1046  -21.4893   17.5957 C   0  0  0  0  0  0
  -29.4997  -21.7781   21.8760 C   0  0  0  0  0  0
  -28.0273  -23.0018   20.2143 C   0  0  0  0  0  0
  -28.4464  -24.6079   19.7378 C   0  0  0  0  0  0
  -29.7094  -16.2475   20.5699 N   0  0  0  0  0  0
  -28.9647  -21.7441   20.5188 N   0  0  0  0  0  0
  -31.4747  -12.7958   19.2296 H   0  0  0  0  0  0
  -30.4402  -11.7076   20.0992 H   0  0  0  0  0  0
  -29.8722  -11.7035   17.6503 H   0  0  0  0  0  0
  -29.6280  -13.4313   17.6771 H   0  0  0  0  0  0
  -27.9777  -11.2768   19.0255 H   0  0  0  0  0  0
  -27.4050  -12.4080   17.8281 H   0  0  0  0  0  0
  -27.5759  -14.2516   19.3863 H   0  0  0  0  0  0
  -28.7592  -12.3670   21.4830 H   0  0  0  0  0  0
  -28.3339  -14.0432   21.7398 H   0  0  0  0  0  0
  -25.2774   -9.5671   22.4804 H   0  0  0  0  0  0
  -24.0004   -7.4619   22.7489 H   0  0  0  0  0  0
  -21.0826   -8.8810   19.8984 H   0  0  0  0  0  0
  -22.3702  -10.9705   19.6206 H   0  0  0  0  0  0
  -21.2026   -7.6174   23.9752 H   0  0  0  0  0  0
  -21.1489   -6.0535   25.9093 H   0  0  0  0  0  0
  -22.0582   -2.7640   23.2825 H   0  0  0  0  0  0
  -22.3992  -11.9931   22.4895 H   0  0  0  0  0  0
  -21.1032  -13.1323   22.2599 H   0  0  0  0  0  0
  -24.6383  -15.8445   20.5307 H   0  0  0  0  0  0
  -26.2485  -15.6372   20.0675 H   0  0  0  0  0  0
  -26.7270  -32.5224   23.0909 H   0  0  0  0  0  0
  -25.0037  -33.9566   25.0233 H   0  0  0  0  0  0
  -22.7583  -31.2797   21.3652 H   0  0  0  0  0  0
  -23.3774  -35.9548   23.3276 H   0  0  0  0  0  0
  -24.3573  -36.8907   22.2063 H   0  0  0  0  0  0
  -23.7244  -37.6411   23.6714 H   0  0  0  0  0  0
  -26.1810  -31.4370   20.6211 H   0  0  0  0  0  0
  -26.8737  -30.7293   22.0423 H   0  0  0  0  0  0
  -28.1100  -28.7242   21.2797 H   0  0  0  0  0  0
  -25.9263  -25.7822   19.0115 H   0  0  0  0  0  0
  -23.9922  -27.2732   18.9615 H   0  0  0  0  0  0
  -23.8181  -30.5407   19.3870 H   0  0  0  0  0  0
  -22.7926  -29.2147   19.8390 H   0  0  0  0  0  0
  -25.1331  -36.1808   25.0792 H   0  0  0  0  0  0
  -21.0038  -28.3341   24.1338 H   0  0  0  0  0  0
  -20.5702  -26.2340   23.3641 H   0  0  0  0  0  0
  -21.6669  -26.7435   22.1209 H   0  0  0  0  0  0
  -19.6947  -25.6267   21.1277 H   0  0  0  0  0  0
  -19.6725  -27.3151   20.6728 H   0  0  0  0  0  0
  -17.4233  -26.6689   21.4018 H   0  0  0  0  0  0
  -18.0364  -26.0082   22.9023 H   0  0  0  0  0  0
  -19.7967  -30.7305   24.2225 H   0  0  0  0  0  0
  -17.5044  -31.6268   24.5152 H   0  0  0  0  0  0
  -15.5387  -30.2977   23.7673 H   0  0  0  0  0  0
  -15.8705  -28.0811   22.7089 H   0  0  0  0  0  0
  -24.5835  -30.7152   25.7660 H   0  0  0  0  0  0
  -24.8862  -32.2982   26.4701 H   0  0  0  0  0  0
  -25.7902  -30.8984   27.0188 H   0  0  0  0  0  0
  -26.3031  -29.6643   24.1338 H   0  0  0  0  0  0
  -27.3964  -29.7274   25.4947 H   0  0  0  0  0  0
  -27.8956  -30.4157   23.9699 H   0  0  0  0  0  0
  -27.2586  -33.3679   26.1965 H   0  0  0  0  0  0
  -28.3873  -32.6870   25.0344 H   0  0  0  0  0  0
  -28.0632  -31.8538   26.5475 H   0  0  0  0  0  0
  -28.2574  -38.0092   24.7520 H   0  0  0  0  0  0
  -28.1104  -36.2621   24.6273 H   0  0  0  0  0  0
  -27.2296  -37.1401   25.8860 H   0  0  0  0  0  0
  -20.9484  -29.8698   21.6693 H   0  0  0  0  0  0
  -26.0149  -38.2788   24.1411 H   0  0  0  0  0  0
  -29.5353  -19.0294   16.7769 H   0  0  0  0  0  0
  -29.2796  -19.0132   21.6589 H   0  0  0  0  0  0
  -29.7395  -16.8060   16.5800 H   0  0  0  0  0  0
  -29.1949  -15.7764   17.8853 H   0  0  0  0  0  0
  -30.9109  -16.1940   17.7329 H   0  0  0  0  0  0
  -29.5745  -21.3138   16.6277 H   0  0  0  0  0  0
  -29.6026  -22.3592   18.0224 H   0  0  0  0  0  0
  -28.0578  -21.7362   17.4150 H   0  0  0  0  0  0
  -28.7725  -21.3781   22.5839 H   0  0  0  0  0  0
  -29.7297  -22.8016   22.1753 H   0  0  0  0  0  0
  -30.4170  -21.1942   21.9673 H   0  0  0  0  0  0
  -27.3198  -22.6493   19.4631 H   0  0  0  0  0  0
  -27.3948  -23.1109   21.0960 H   0  0  0  0  0  0
  -28.0712  -24.6896   18.7182 H   0  0  0  0  0  0
  -29.5251  -24.5565   19.5868 H   0  0  0  0  0  0
  -28.8813  -16.0346   21.1067 H   0  0  0  0  0  0
  1 25  1  0  0  0
  1 30  2  0  0  0
  1 82  1  0  0  0
  2  3  1  0  0  0
  2 25  1  0  0  0
  2 84  1  0  0  0
  2 85  1  0  0  0
  3  4  1  0  0  0
  3 86  1  0  0  0
  3 87  1  0  0  0
  4  5  1  0  0  0
  4 88  1  0  0  0
  4 89  1  0  0  0
  5  6  1  0  0  0
  5 26  1  0  0  0
  5 90  1  0  0  0
  6 25  1  0  0  0
  6 91  1  0  0  0
  6 92  1  0  0  0
  7  8  2  0  0  0
  7 26  1  0  0  0
  7 29  1  0  0  0
  8  9  1  0  0  0
  8 22  1  0  0  0
  9 10  1  0  0  0
  9 27  2  0  0  0
 10 11  2  0  0  0
 10 15  1  0  0  0
 11 12  1  0  0  0
 11 93  1  0  0  0
 12 13  2  0  0  0
 12 94  1  0  0  0
 13 14  1  0  0  0
 13 31  1  0  0  0
 14 15  2  0  0  0
 14 95  1  0  0  0
 15 96  1  0  0  0
 16 17  2  0  0  0
 16 21  1  0  0  0
 16 31  1  0  0  0
 17 18  1  0  0  0
 17 97  1  0  0  0
 18 19  2  0  0  0
 18 98  1  0  0  0
 19 20  1  0  0  0
 19 24  1  0  0  0
 20 21  2  0  0  0
 20 99  1  0  0  0
 21 23  1  0  0  0
 22 28  1  0  0  0
 22 32  2  0  0  0
 26 27  1  0  0  0
 28100  1  0  0  0
 28101  1  0  0  0
 29102  1  0  0  0
 29103  1  0  0  0
 33 34  1  0  0  0
 33 66  1  0  0  0
 33 70  2  0  0  0
 34 36  1  0  0  0
 34 59  1  0  0  0
 34104  1  0  0  0
 35 44  2  0  0  0
 35 45  1  0  0  0
 35 68  1  0  0  0
 36 56  1  0  0  0
 36105  1  0  0  0
 37 39  1  0  0  0
 37 47  1  0  0  0
 37 66  1  0  0  0
 37106  1  0  0  0
 38 43  2  0  0  0
 38 46  1  0  0  0
 38 47  1  0  0  0
 39 64  1  0  0  0
 39 67  2  0  0  0
 40 52  1  0  0  0
 40 53  2  0  0  0
 40 58  1  0  0  0
 41107  1  0  0  0
 41108  1  0  0  0
 41109  1  0  0  0
 41 48  1  0  0  0
 42 43  1  0  0  0
 42 66  1  0  0  0
 42110  1  0  0  0
 42111  1  0  0  0
 43 44  1  0  0  0
 44112  1  0  0  0
 45 46  2  0  0  0
 45113  1  0  0  0
 46114  1  0  0  0
 47115  1  0  0  0
 47116  1  0  0  0
 48 56  1  0  0  0
 48 65  1  0  0  0
 48117  1  0  0  0
 49 50  1  0  0  0
 49 53  1  0  0  0
 49 64  1  0  0  0
 49118  1  0  0  0
 50 51  1  0  0  0
 50119  1  0  0  0
 50120  1  0  0  0
 51 52  1  0  0  0
 51121  1  0  0  0
 51122  1  0  0  0
 52123  1  0  0  0
 52124  1  0  0  0
 53 54  1  0  0  0
 54 55  2  0  0  0
 54125  1  0  0  0
 55 57  1  0  0  0
 55126  1  0  0  0
 56 69  2  0  0  0
 57 58  2  0  0  0
 57127  1  0  0  0
 58128  1  0  0  0
 59 60  1  0  0  0
 59 61  1  0  0  0
 59 62  1  0  0  0
 60129  1  0  0  0
 60130  1  0  0  0
 60131  1  0  0  0
 61132  1  0  0  0
 61133  1  0  0  0
 61134  1  0  0  0
 62135  1  0  0  0
 62136  1  0  0  0
 62137  1  0  0  0
 63 65  1  0  0  0
 63138  1  0  0  0
 63139  1  0  0  0
 63140  1  0  0  0
 64141  1  0  0  0
 65142  1  0  0  0
 68 81  1  0  0  0
 71 73  2  0  0  0
 71 74  1  0  0  0
 71143  1  0  0  0
 72 75  2  0  0  0
 72 76  1  0  0  0
 72144  1  0  0  0
 73 75  1  0  0  0
 73 77  1  0  0  0
 74 76  2  0  0  0
 74 78  1  0  0  0
 75 82  1  0  0  0
 76 83  1  0  0  0
 77145  1  0  0  0
 77146  1  0  0  0
 77147  1  0  0  0
 78148  1  0  0  0
 78149  1  0  0  0
 78150  1  0  0  0
 79 83  1  0  0  0
 79151  1  0  0  0
 79152  1  0  0  0
 79153  1  0  0  0
 80 81  1  0  0  0
 80 83  1  0  0  0
 80154  1  0  0  0
 80155  1  0  0  0
 81156  1  0  0  0
 81157  1  0  0  0
 82158  1  0  0  0
M  ISO  4   1 100  68 101  81 101  82 100
M  END
> <chiral flag>
0

> <version>
0

> <s_m_source_file>
/data/baiqing/PycharmProjects/Reinvent-master-3.2/result/LINK_invent/BTK/process_docking_weight1_custom_sum_contain_oxygen_bond_distance_aromatic_linkinvent_7_9_3/rearranged_h_0015.sdf

> <i_m_source_file_index>
5

> <r_mmod_Potential_Energy-OPLS-2005>
768.332336425781

> <r_mmod_Stretch_Energy-OPLS-2005>
345.999298095703

> <r_mmod_Bend_Energy-OPLS-2005>
366.934448242188

> <r_mmod_Torsional_Energy-OPLS-2005>
249.822296142578

> <r_mmod_Improper_Torsional_Energy-OPLS-2005>
5.72839260101318

> <r_mmod_Van_der_Waal_Energy-OPLS-2005>
132.692718505859

> <r_mmod_Electrostatic_Energy-OPLS-2005>
-370.313079833984

> <r_mmod_Solvation_Energy-OPLS-2005>
-227.91845703125

> <b_mmod_Minimization_Converged-OPLS-2005>
0

> <r_mmod_RMS_Derivative-OPLS-2005>
2.55058646202087

$$$$
5
                    3D
 Structure written by MMmdl.
158166  0  0  1  0            999 V2000
  -30.5324  -15.0209   20.4161 C   0  0  0  0  0  0
  -30.4387  -12.6389   19.5014 C   0  0  0  0  0  0
  -29.5221  -12.5398   18.2598 C   0  0  0  0  0  0
  -28.0593  -12.3111   18.6825 C   0  0  0  0  0  0
  -27.6248  -13.2559   19.8331 C   0  0  2  0  0  0
  -28.6687  -13.3237   20.9682 C   0  0  0  0  0  0
  -25.2442  -13.8229   20.5724 C   0  0  0  0  0  0
  -24.1763  -13.0434   20.9229 C   0  0  0  0  0  0
  -24.6397  -11.6930   20.8749 C   0  0  0  0  0  0
  -23.9084  -10.4294   21.0405 C   0  0  0  0  0  0
  -24.3630   -9.4204   21.9181 C   0  0  0  0  0  0
  -23.6294   -8.2243   22.0756 C   0  0  0  0  0  0
  -22.4279   -8.0282   21.3543 C   0  0  0  0  0  0
  -21.9920   -9.0256   20.4644 C   0  0  0  0  0  0
  -22.7257  -10.2131   20.3051 C   0  0  0  0  0  0
  -21.6857   -6.0732   22.5277 C   0  0  0  0  0  0
  -21.4017   -6.5638   23.8209 C   0  0  0  0  0  0
  -21.3658   -5.6790   24.9170 C   0  0  0  0  0  0
  -21.6043   -4.3053   24.7224 C   0  0  0  0  0  0
  -21.8819   -3.8146   23.4347 C   0  0  0  0  0  0
  -21.9194   -4.6959   22.3402 C   0  0  0  0  0  0
  -22.7781  -13.5199   21.1878 C   0  0  0  0  0  0
  -22.1660   -4.2144   21.0981 F   0  0  0  0  0  0
  -21.5628   -3.4539   25.7740 F   0  0  0  0  0  0
  -29.9319  -13.7565   20.3566 N   0  0  0  0  0  0
  -26.2872  -12.9476   20.3243 N   0  0  0  0  0  0
  -25.9334  -11.6600   20.5738 N   0  0  0  0  0  0
  -22.0438  -12.8180   22.0437 N   0  0  0  0  0  0
  -25.4073  -15.1960   20.4141 N   0  0  0  0  0  0
  -31.7404  -15.0446   20.1554 O   0  0  0  0  0  0
  -21.6643   -6.8877   21.4240 O   0  0  0  0  0  0
  -22.3459  -14.5495   20.6714 O   0  0  0  0  0  0
  -24.6481  -31.8376   23.1843 C   0  0  0  0  0  0
  -25.9234  -32.4662   23.8241 C   0  0  1  0  0  0
  -27.2202  -27.0833   20.1601 C   0  0  0  0  0  0
  -25.5972  -33.8473   24.2156 N   0  0  0  0  0  0
  -23.4542  -30.4541   21.5308 C   0  0  2  0  0  0
  -24.9057  -28.8713   20.1109 C   0  0  0  0  0  0
  -22.7592  -29.4496   22.4845 C   0  0  0  0  0  0
  -18.0300  -28.1379   22.8460 C   0  0  0  0  0  0
  -24.1482  -36.7232   23.2639 C   0  0  0  0  0  0
  -26.0135  -30.6952   21.3905 C   0  0  0  0  0  0
  -26.0848  -29.3012   20.7321 C   0  0  0  0  0  0
  -27.2420  -28.4260   20.7351 C   0  0  0  0  0  0
  -26.0122  -26.7656   19.5008 C   0  0  0  0  0  0
  -24.8854  -27.6190   19.4782 C   0  0  0  0  0  0
  -23.6842  -29.7791   20.1522 C   0  0  0  0  0  0
  -25.4117  -36.3006   24.0303 C   0  0  1  0  0  0
  -20.5916  -28.3707   23.1218 C   0  0  2  0  0  0
  -20.6786  -26.9406   22.5402 C   0  0  0  0  0  0
  -19.5769  -26.6366   21.5196 C   0  0  0  0  0  0
  -18.1942  -26.7917   22.1602 C   0  0  0  0  0  0
  -19.1560  -28.8862   23.2823 C   0  0  0  0  0  0
  -18.9483  -30.1459   23.8846 C   0  0  0  0  0  0
  -17.6481  -30.6583   24.0536 C   0  0  0  0  0  0
  -25.9082  -34.9391   23.5040 C   0  0  0  0  0  0
  -16.5367  -29.9068   23.6339 C   0  0  0  0  0  0
  -16.7287  -28.6490   23.0348 C   0  0  0  0  0  0
  -26.4542  -31.6552   25.0704 C   0  0  0  0  0  0
  -25.3704  -31.3772   26.1382 C   0  0  0  0  0  0
  -27.0426  -30.2935   24.6341 C   0  0  0  0  0  0
  -27.6047  -32.4346   25.7500 C   0  0  0  0  0  0
  -27.5572  -37.1767   24.8461 C   0  0  0  0  0  0
  -21.4277  -29.3027   22.3595 N   0  0  0  0  0  0
  -26.4271  -37.3734   23.9418 N   0  0  0  0  0  0
  -24.7249  -31.0193   22.0890 N   0  0  0  0  0  0
  -23.4216  -28.8047   23.3014 O   0  0  0  0  0  0
  -28.2641  -26.0708   20.2311 O   0  0  0  0  0  0
  -26.5674  -34.8896   22.4623 O   0  0  0  0  0  0
  -23.5591  -32.1257   23.7051 O   0  0  0  0  0  0
  -31.3895  -19.5233   21.8460 C   0  0  0  0  0  0
  -30.6171  -20.5983   21.3641 C   0  0  0  0  0  0
  -31.1139  -18.1597   21.5792 C   0  0  0  0  0  0
  -29.2224  -18.9509   20.2573 C   0  0  0  0  0  0
  -29.4788  -20.4105   20.5610 C   0  0  0  0  0  0
  -30.0349  -17.7635   20.7314 C   0  0  0  0  0  0
  -32.0044  -17.1624   22.3061 C   0  0  0  0  0  0
  -28.0216  -18.6461   19.3821 C   0  0  0  0  0  0
  -30.3164  -23.4899   19.4679 C   0  0  0  0  0  0
  -28.0036  -24.5155   20.0862 C   0  0  0  0  0  0
  -29.0840  -23.1999   20.3377 C   0  0  2  0  0  0
  -29.7579  -16.2361   20.5152 N   0  0  0  0  0  0
  -28.7237  -21.6586   20.1755 N   0  0  0  0  0  0
  -31.4701  -12.8001   19.1839 H   0  0  0  0  0  0
  -30.4436  -11.6995   20.0567 H   0  0  0  0  0  0
  -29.8546  -11.7348   17.6024 H   0  0  0  0  0  0
  -29.5938  -13.4601   17.6781 H   0  0  0  0  0  0
  -27.9691  -11.2735   19.0052 H   0  0  0  0  0  0
  -27.3934  -12.4205   17.8260 H   0  0  0  0  0  0
  -27.5737  -14.2486   19.3850 H   0  0  0  0  0  0
  -28.7773  -12.3584   21.4651 H   0  0  0  0  0  0
  -28.3587  -14.0362   21.7339 H   0  0  0  0  0  0
  -25.2775   -9.5679   22.4755 H   0  0  0  0  0  0
  -23.9998   -7.4642   22.7486 H   0  0  0  0  0  0
  -21.0850   -8.8778   19.8954 H   0  0  0  0  0  0
  -22.3718  -10.9664   19.6157 H   0  0  0  0  0  0
  -21.2014   -7.6147   23.9710 H   0  0  0  0  0  0
  -21.1476   -6.0524   25.9072 H   0  0  0  0  0  0
  -22.0599   -2.7609   23.2852 H   0  0  0  0  0  0
  -22.4067  -11.9851   22.4835 H   0  0  0  0  0  0
  -21.1051  -13.1191   22.2638 H   0  0  0  0  0  0
  -24.6348  -15.8433   20.5284 H   0  0  0  0  0  0
  -26.2476  -15.6414   20.0716 H   0  0  0  0  0  0
  -26.7294  -32.5246   23.0963 H   0  0  0  0  0  0
  -25.0106  -33.9576   25.0296 H   0  0  0  0  0  0
  -22.7580  -31.2805   21.3746 H   0  0  0  0  0  0
  -23.3754  -35.9555   23.3281 H   0  0  0  0  0  0
  -24.3569  -36.8898   22.2062 H   0  0  0  0  0  0
  -23.7229  -37.6412   23.6700 H   0  0  0  0  0  0
  -26.1778  -31.4459   20.6164 H   0  0  0  0  0  0
  -26.8788  -30.7460   22.0399 H   0  0  0  0  0  0
  -28.1399  -28.7536   21.2409 H   0  0  0  0  0  0
  -25.9049  -25.8085   19.0134 H   0  0  0  0  0  0
  -23.9841  -27.2850   18.9822 H   0  0  0  0  0  0
  -23.8250  -30.5519   19.3954 H   0  0  0  0  0  0
  -22.7977  -29.2240   19.8390 H   0  0  0  0  0  0
  -25.1312  -36.1809   25.0794 H   0  0  0  0  0  0
  -20.9983  -28.3291   24.1347 H   0  0  0  0  0  0
  -20.5659  -26.2317   23.3626 H   0  0  0  0  0  0
  -21.6653  -26.7399   22.1209 H   0  0  0  0  0  0
  -19.6935  -25.6267   21.1247 H   0  0  0  0  0  0
  -19.6713  -27.3147   20.6702 H   0  0  0  0  0  0
  -17.4214  -26.6639   21.4003 H   0  0  0  0  0  0
  -18.0352  -26.0059   22.9001 H   0  0  0  0  0  0
  -19.7966  -30.7276   24.2191 H   0  0  0  0  0  0
  -17.5044  -31.6260   24.5149 H   0  0  0  0  0  0
  -15.5368  -30.2959   23.7703 H   0  0  0  0  0  0
  -15.8681  -28.0805   22.7089 H   0  0  0  0  0  0
  -24.5895  -30.7112   25.7700 H   0  0  0  0  0  0
  -24.8883  -32.2970   26.4696 H   0  0  0  0  0  0
  -25.7954  -30.9017   27.0227 H   0  0  0  0  0  0
  -26.3061  -29.6639   24.1330 H   0  0  0  0  0  0
  -27.3994  -29.7263   25.4950 H   0  0  0  0  0  0
  -27.8991  -30.4155   23.9704 H   0  0  0  0  0  0
  -27.2610  -33.3675   26.1973 H   0  0  0  0  0  0
  -28.3899  -32.6859   25.0362 H   0  0  0  0  0  0
  -28.0654  -31.8543   26.5502 H   0  0  0  0  0  0
  -28.2551  -38.0101   24.7552 H   0  0  0  0  0  0
  -28.1108  -36.2636   24.6227 H   0  0  0  0  0  0
  -27.2308  -37.1336   25.8868 H   0  0  0  0  0  0
  -20.9503  -29.8756   21.6776 H   0  0  0  0  0  0
  -26.0123  -38.2785   24.1468 H   0  0  0  0  0  0
  -32.2262  -19.7720   22.4839 H   0  0  0  0  0  0
  -30.9117  -21.5937   21.6615 H   0  0  0  0  0  0
  -32.4869  -17.6217   23.1695 H   0  0  0  0  0  0
  -32.7968  -16.8019   21.6508 H   0  0  0  0  0  0
  -31.4369  -16.3169   22.6917 H   0  0  0  0  0  0
  -27.9234  -19.3905   18.5919 H   0  0  0  0  0  0
  -27.1074  -18.6534   19.9752 H   0  0  0  0  0  0
  -28.1135  -17.6724   18.9016 H   0  0  0  0  0  0
  -30.6789  -24.5049   19.6349 H   0  0  0  0  0  0
  -30.0792  -23.4004   18.4076 H   0  0  0  0  0  0
  -31.1451  -22.8152   19.6793 H   0  0  0  0  0  0
  -27.1431  -24.3182   20.7263 H   0  0  0  0  0  0
  -27.6326  -24.3867   19.0694 H   0  0  0  0  0  0
  -29.4012  -23.2987   21.3765 H   0  0  0  0  0  0
  -28.7732  -16.0279   20.4630 H   0  0  0  0  0  0
  -27.8514  -21.4977   19.6787 H   0  0  0  0  0  0
  1 25  1  0  0  0
  1 30  2  0  0  0
  1 82  1  0  0  0
  2  3  1  0  0  0
  2 25  1  0  0  0
  2 84  1  0  0  0
  2 85  1  0  0  0
  3  4  1  0  0  0
  3 86  1  0  0  0
  3 87  1  0  0  0
  4  5  1  0  0  0
  4 88  1  0  0  0
  4 89  1  0  0  0
  5  6  1  0  0  0
  5 26  1  0  0  0
  5 90  1  0  0  0
  6 25  1  0  0  0
  6 91  1  0  0  0
  6 92  1  0  0  0
  7  8  2  0  0  0
  7 26  1  0  0  0
  7 29  1  0  0  0
  8  9  1  0  0  0
  8 22  1  0  0  0
  9 10  1  0  0  0
  9 27  2  0  0  0
 10 11  2  0  0  0
 10 15  1  0  0  0
 11 12  1  0  0  0
 11 93  1  0  0  0
 12 13  2  0  0  0
 12 94  1  0  0  0
 13 14  1  0  0  0
 13 31  1  0  0  0
 14 15  2  0  0  0
 14 95  1  0  0  0
 15 96  1  0  0  0
 16 17  2  0  0  0
 16 21  1  0  0  0
 16 31  1  0  0  0
 17 18  1  0  0  0
 17 97  1  0  0  0
 18 19  2  0  0  0
 18 98  1  0  0  0
 19 20  1  0  0  0
 19 24  1  0  0  0
 20 21  2  0  0  0
 20 99  1  0  0  0
 21 23  1  0  0  0
 22 28  1  0  0  0
 22 32  2  0  0  0
 26 27  1  0  0  0
 28100  1  0  0  0
 28101  1  0  0  0
 29102  1  0  0  0
 29103  1  0  0  0
 33 34  1  0  0  0
 33 66  1  0  0  0
 33 70  2  0  0  0
 34 36  1  0  0  0
 34 59  1  0  0  0
 34104  1  0  0  0
 35 44  2  0  0  0
 35 45  1  0  0  0
 35 68  1  0  0  0
 36 56  1  0  0  0
 36105  1  0  0  0
 37 39  1  0  0  0
 37 47  1  0  0  0
 37 66  1  0  0  0
 37106  1  0  0  0
 38 43  2  0  0  0
 38 46  1  0  0  0
 38 47  1  0  0  0
 39 64  1  0  0  0
 39 67  2  0  0  0
 40 52  1  0  0  0
 40 53  2  0  0  0
 40 58  1  0  0  0
 41107  1  0  0  0
 41108  1  0  0  0
 41109  1  0  0  0
 41 48  1  0  0  0
 42 43  1  0  0  0
 42 66  1  0  0  0
 42110  1  0  0  0
 42111  1  0  0  0
 43 44  1  0  0  0
 44112  1  0  0  0
 45 46  2  0  0  0
 45113  1  0  0  0
 46114  1  0  0  0
 47115  1  0  0  0
 47116  1  0  0  0
 48 56  1  0  0  0
 48 65  1  0  0  0
 48117  1  0  0  0
 49 50  1  0  0  0
 49 53  1  0  0  0
 49 64  1  0  0  0
 49118  1  0  0  0
 50 51  1  0  0  0
 50119  1  0  0  0
 50120  1  0  0  0
 51 52  1  0  0  0
 51121  1  0  0  0
 51122  1  0  0  0
 52123  1  0  0  0
 52124  1  0  0  0
 53 54  1  0  0  0
 54 55  2  0  0  0
 54125  1  0  0  0
 55 57  1  0  0  0
 55126  1  0  0  0
 56 69  2  0  0  0
 57 58  2  0  0  0
 57127  1  0  0  0
 58128  1  0  0  0
 59 60  1  0  0  0
 59 61  1  0  0  0
 59 62  1  0  0  0
 60129  1  0  0  0
 60130  1  0  0  0
 60131  1  0  0  0
 61132  1  0  0  0
 61133  1  0  0  0
 61134  1  0  0  0
 62135  1  0  0  0
 62136  1  0  0  0
 62137  1  0  0  0
 63 65  1  0  0  0
 63138  1  0  0  0
 63139  1  0  0  0
 63140  1  0  0  0
 64141  1  0  0  0
 65142  1  0  0  0
 68 80  1  0  0  0
 71 72  2  0  0  0
 71 73  1  0  0  0
 71143  1  0  0  0
 72 75  1  0  0  0
 72144  1  0  0  0
 73 76  2  0  0  0
 73 77  1  0  0  0
 74 75  2  0  0  0
 74 76  1  0  0  0
 74 78  1  0  0  0
 75 83  1  0  0  0
 76 82  1  0  0  0
 77145  1  0  0  0
 77146  1  0  0  0
 77147  1  0  0  0
 78148  1  0  0  0
 78149  1  0  0  0
 78150  1  0  0  0
 79151  1  0  0  0
 79152  1  0  0  0
 79153  1  0  0  0
 79 81  1  0  0  0
 80 81  1  0  0  0
 80154  1  0  0  0
 80155  1  0  0  0
 81 83  1  0  0  0
 81156  1  0  0  0
 82157  1  0  0  0
 83158  1  0  0  0
M  ISO  4   1 100  68 101  80 101  82 100
M  END
> <chiral flag>
0

> <version>
0

> <s_m_source_file>
/data/baiqing/PycharmProjects/Reinvent-master-3.2/result/LINK_invent/BTK/process_docking_weight1_custom_sum_contain_oxygen_bond_distance_aromatic_linkinvent_7_9_3/rearranged_h_0015.sdf

> <i_m_source_file_index>
6

> <r_mmod_Potential_Energy-OPLS-2005>
590.544250488281

> <r_mmod_Stretch_Energy-OPLS-2005>
331.603668212891

> <r_mmod_Bend_Energy-OPLS-2005>
286.616729736328

> <r_mmod_Torsional_Energy-OPLS-2005>
212.996734619141

> <r_mmod_Improper_Torsional_Energy-OPLS-2005>
6.0115270614624

> <r_mmod_Van_der_Waal_Energy-OPLS-2005>
134.14892578125

> <r_mmod_Electrostatic_Energy-OPLS-2005>
-409.285430908203

> <r_mmod_Solvation_Energy-OPLS-2005>
-214.550964355469

> <b_mmod_Minimization_Converged-OPLS-2005>
0

> <r_mmod_RMS_Derivative-OPLS-2005>
1.36115288734436

$$$$
6
                    3D
 Structure written by MMmdl.
165173  0  0  1  0            999 V2000
  -30.6582  -14.7265   20.5522 C   0  0  0  0  0  0
  -30.4289  -12.4667   19.4776 C   0  0  0  0  0  0
  -29.5100  -12.5314   18.2377 C   0  0  0  0  0  0
  -28.0339  -12.3520   18.6377 C   0  0  0  0  0  0
  -27.6440  -13.2279   19.8559 C   0  0  2  0  0  0
  -28.6817  -13.1040   20.9864 C   0  0  0  0  0  0
  -25.2508  -13.8188   20.5674 C   0  0  0  0  0  0
  -24.1789  -13.0441   20.9190 C   0  0  0  0  0  0
  -24.6374  -11.6916   20.8717 C   0  0  0  0  0  0
  -23.9049  -10.4289   21.0382 C   0  0  0  0  0  0
  -24.3606   -9.4211   21.9171 C   0  0  0  0  0  0
  -23.6286   -8.2244   22.0749 C   0  0  0  0  0  0
  -22.4270   -8.0269   21.3541 C   0  0  0  0  0  0
  -21.9890   -9.0235   20.4640 C   0  0  0  0  0  0
  -22.7212  -10.2120   20.3043 C   0  0  0  0  0  0
  -21.6856   -6.0725   22.5282 C   0  0  0  0  0  0
  -21.4013   -6.5635   23.8212 C   0  0  0  0  0  0
  -21.3660   -5.6792   24.9179 C   0  0  0  0  0  0
  -21.6049   -4.3055   24.7234 C   0  0  0  0  0  0
  -21.8822   -3.8142   23.4356 C   0  0  0  0  0  0
  -21.9193   -4.6953   22.3407 C   0  0  0  0  0  0
  -22.7821  -13.5223   21.1861 C   0  0  0  0  0  0
  -22.1659   -4.2135   21.0983 F   0  0  0  0  0  0
  -21.5625   -3.4542   25.7748 F   0  0  0  0  0  0
  -29.9872  -13.5148   20.4393 N   0  0  0  0  0  0
  -26.2928  -12.9390   20.3266 N   0  0  0  0  0  0
  -25.9302  -11.6536   20.5721 N   0  0  0  0  0  0
  -22.0478  -12.8199   22.0420 N   0  0  0  0  0  0
  -25.4220  -15.1902   20.4077 N   0  0  0  0  0  0
  -31.7956  -14.7831   20.0765 O   0  0  0  0  0  0
  -21.6643   -6.8862   21.4240 O   0  0  0  0  0  0
  -22.3497  -14.5535   20.6717 O   0  0  0  0  0  0
  -24.6313  -31.8532   23.1978 C   0  0  0  0  0  0
  -25.9129  -32.4752   23.8335 C   0  0  1  0  0  0
  -27.2309  -27.2741   20.1249 C   0  0  0  0  0  0
  -25.5909  -33.8552   24.2258 N   0  0  0  0  0  0
  -23.4279  -30.4730   21.5402 C   0  0  2  0  0  0
  -24.8748  -28.9166   20.1112 C   0  0  0  0  0  0
  -22.7500  -29.4582   22.4921 C   0  0  0  0  0  0
  -18.0281  -28.1381   22.8492 C   0  0  0  0  0  0
  -24.1481  -36.7297   23.2643 C   0  0  0  0  0  0
  -25.9710  -30.7707   21.3733 C   0  0  0  0  0  0
  -26.0430  -29.3921   20.7186 C   0  0  0  0  0  0
  -27.2183  -28.5808   20.7162 C   0  0  0  0  0  0
  -26.0356  -26.8536   19.4999 C   0  0  0  0  0  0
  -24.8744  -27.6555   19.4929 C   0  0  0  0  0  0
  -23.6454  -29.8012   20.1576 C   0  0  0  0  0  0
  -25.4106  -36.3077   24.0331 C   0  0  1  0  0  0
  -20.5884  -28.3690   23.1283 C   0  0  2  0  0  0
  -20.6765  -26.9408   22.5410 C   0  0  0  0  0  0
  -19.5744  -26.6382   21.5209 C   0  0  0  0  0  0
  -18.1923  -26.7925   22.1619 C   0  0  0  0  0  0
  -19.1536  -28.8854   23.2878 C   0  0  0  0  0  0
  -18.9453  -30.1447   23.8911 C   0  0  0  0  0  0
  -17.6454  -30.6586   24.0563 C   0  0  0  0  0  0
  -25.9043  -34.9443   23.5104 C   0  0  0  0  0  0
  -16.5346  -29.9084   23.6331 C   0  0  0  0  0  0
  -16.7267  -28.6490   23.0379 C   0  0  0  0  0  0
  -26.4495  -31.6585   25.0730 C   0  0  0  0  0  0
  -25.3722  -31.3717   26.1454 C   0  0  0  0  0  0
  -27.0351  -30.3013   24.6206 C   0  0  0  0  0  0
  -27.6056  -32.4328   25.7489 C   0  0  0  0  0  0
  -27.5574  -37.1794   24.8464 C   0  0  0  0  0  0
  -21.4206  -29.3036   22.3678 N   0  0  0  0  0  0
  -26.4292  -37.3770   23.9405 N   0  0  0  0  0  0
  -24.6959  -31.0502   22.0944 N   0  0  0  0  0  0
  -23.4197  -28.8123   23.3025 O   0  0  0  0  0  0
  -28.3681  -26.4428   20.2003 O   0  0  0  0  0  0
  -26.5628  -34.8925   22.4679 O   0  0  0  0  0  0
  -23.5464  -32.1345   23.7279 O   0  0  0  0  0  0
  -31.6213  -17.7200   20.3820 C   0  0  0  0  0  0
  -31.9827  -19.0699   20.1901 C   0  0  0  0  0  0
  -29.3139  -18.4115   20.7295 C   0  0  0  0  0  0
  -29.6755  -19.8226   20.5609 C   0  0  0  0  0  0
  -30.2914  -17.3175   20.6665 C   0  0  0  0  0  0
  -31.0283  -20.0999   20.2831 C   0  0  0  0  0  0
  -33.4351  -19.4357   19.9461 C   0  0  0  0  0  0
  -27.8553  -18.0740   21.0046 C   0  0  0  0  0  0
  -26.9180  -23.5789   21.1354 C   0  0  0  0  0  0
  -29.5081  -15.7877   22.4289 C   0  0  0  0  0  0
  -28.7276  -21.0849   20.8243 C   0  0  0  0  0  0
  -28.4583  -25.0431   19.6690 C   0  0  0  0  0  0
  -28.3663  -23.7408   20.6280 C   0  0  2  0  0  0
  -30.0322  -15.8869   21.0578 N   0  0  0  0  0  0
  -28.9259  -22.4080   20.0653 N   0  3  0  0  0  0
  -31.4318  -21.3872   20.1416 F   0  0  0  0  0  0
  -31.4678  -12.5817   19.1664 H   0  0  0  0  0  0
  -30.3806  -11.4810   19.9414 H   0  0  0  0  0  0
  -29.7979  -11.7688   17.5123 H   0  0  0  0  0  0
  -29.6381  -13.4941   17.7406 H   0  0  0  0  0  0
  -27.8826  -11.2988   18.8760 H   0  0  0  0  0  0
  -27.3819  -12.5697   17.7910 H   0  0  0  0  0  0
  -27.6560  -14.2625   19.5134 H   0  0  0  0  0  0
  -28.7289  -12.0737   21.3422 H   0  0  0  0  0  0
  -28.3569  -13.6725   21.8487 H   0  0  0  0  0  0
  -25.2744   -9.5699   22.4752 H   0  0  0  0  0  0
  -23.9997   -7.4639   22.7470 H   0  0  0  0  0  0
  -21.0820   -8.8737   19.8948 H   0  0  0  0  0  0
  -22.3649  -10.9651   19.6152 H   0  0  0  0  0  0
  -21.2008   -7.6144   23.9707 H   0  0  0  0  0  0
  -21.1485   -6.0530   25.9079 H   0  0  0  0  0  0
  -22.0604   -2.7602   23.2872 H   0  0  0  0  0  0
  -22.4097  -11.9842   22.4768 H   0  0  0  0  0  0
  -21.1111  -13.1224   22.2678 H   0  0  0  0  0  0
  -24.6585  -15.8498   20.5078 H   0  0  0  0  0  0
  -26.2733  -15.6142   20.0642 H   0  0  0  0  0  0
  -26.7200  -32.5413   23.1083 H   0  0  0  0  0  0
  -25.0051  -33.9676   25.0400 H   0  0  0  0  0  0
  -22.7270  -31.2965   21.3897 H   0  0  0  0  0  0
  -23.3750  -35.9624   23.3303 H   0  0  0  0  0  0
  -24.3583  -36.8929   22.2061 H   0  0  0  0  0  0
  -23.7228  -37.6491   23.6677 H   0  0  0  0  0  0
  -26.1074  -31.5289   20.6008 H   0  0  0  0  0  0
  -26.8509  -30.8246   22.0029 H   0  0  0  0  0  0
  -28.1160  -28.9390   21.2011 H   0  0  0  0  0  0
  -25.9614  -25.8848   19.0318 H   0  0  0  0  0  0
  -23.9760  -27.2850   19.0180 H   0  0  0  0  0  0
  -23.7717  -30.5736   19.3992 H   0  0  0  0  0  0
  -22.7664  -29.2294   19.8535 H   0  0  0  0  0  0
  -25.1284  -36.1929   25.0827 H   0  0  0  0  0  0
  -20.9969  -28.3257   24.1405 H   0  0  0  0  0  0
  -20.5667  -26.2292   23.3606 H   0  0  0  0  0  0
  -21.6635  -26.7428   22.1204 H   0  0  0  0  0  0
  -19.6912  -25.6293   21.1243 H   0  0  0  0  0  0
  -19.6692  -27.3192   20.6740 H   0  0  0  0  0  0
  -17.4188  -26.6691   21.4020 H   0  0  0  0  0  0
  -18.0322  -26.0060   22.9009 H   0  0  0  0  0  0
  -19.7928  -30.7252   24.2310 H   0  0  0  0  0  0
  -17.5005  -31.6275   24.5144 H   0  0  0  0  0  0
  -15.5351  -30.2992   23.7633 H   0  0  0  0  0  0
  -15.8665  -28.0790   22.7134 H   0  0  0  0  0  0
  -24.5909  -30.7053   25.7776 H   0  0  0  0  0  0
  -24.8901  -32.2878   26.4882 H   0  0  0  0  0  0
  -25.8053  -30.8893   27.0230 H   0  0  0  0  0  0
  -26.2938  -29.6744   24.1241 H   0  0  0  0  0  0
  -27.4059  -29.7283   25.4714 H   0  0  0  0  0  0
  -27.8801  -30.4312   23.9442 H   0  0  0  0  0  0
  -27.2682  -33.3649   26.2041 H   0  0  0  0  0  0
  -28.3870  -32.6854   25.0306 H   0  0  0  0  0  0
  -28.0727  -31.8472   26.5416 H   0  0  0  0  0  0
  -28.2580  -38.0100   24.7525 H   0  0  0  0  0  0
  -28.1082  -36.2630   24.6278 H   0  0  0  0  0  0
  -27.2303  -37.1434   25.8872 H   0  0  0  0  0  0
  -20.9396  -29.8762   21.6883 H   0  0  0  0  0  0
  -26.0177  -38.2847   24.1410 H   0  0  0  0  0  0
  -32.4249  -17.0017   20.3727 H   0  0  0  0  0  0
  -34.0545  -18.5559   19.7704 H   0  0  0  0  0  0
  -33.8397  -19.9674   20.8082 H   0  0  0  0  0  0
  -33.5197  -20.0889   19.0780 H   0  0  0  0  0  0
  -27.1812  -18.6801   20.4017 H   0  0  0  0  0  0
  -27.6162  -18.2248   22.0576 H   0  0  0  0  0  0
  -27.6294  -17.0414   20.7453 H   0  0  0  0  0  0
  -26.5493  -24.5131   21.5613 H   0  0  0  0  0  0
  -26.8395  -22.8295   21.9222 H   0  0  0  0  0  0
  -26.2369  -23.2938   20.3327 H   0  0  0  0  0  0
  -29.8089  -16.6530   23.0217 H   0  0  0  0  0  0
  -29.8863  -14.9155   22.9663 H   0  0  0  0  0  0
  -28.4197  -15.7563   22.4446 H   0  0  0  0  0  0
  -28.8430  -21.3116   21.8845 H   0  0  0  0  0  0
  -27.6849  -20.7995   20.7015 H   0  0  0  0  0  0
  -27.8087  -24.9078   18.8066 H   0  0  0  0  0  0
  -29.4550  -25.0145   19.2283 H   0  0  0  0  0  0
  -28.9871  -23.9649   21.4972 H   0  0  0  0  0  0
  -28.5651  -22.2636   19.1350 H   0  0  0  0  0  0
  -29.9290  -22.5062   19.9655 H   0  0  0  0  0  0
  1 25  1  0  0  0
  1 30  2  0  0  0
  1 84  1  0  0  0
  2  3  1  0  0  0
  2 25  1  0  0  0
  2 87  1  0  0  0
  2 88  1  0  0  0
  3  4  1  0  0  0
  3 89  1  0  0  0
  3 90  1  0  0  0
  4  5  1  0  0  0
  4 91  1  0  0  0
  4 92  1  0  0  0
  5  6  1  0  0  0
  5 26  1  0  0  0
  5 93  1  0  0  0
  6 25  1  0  0  0
  6 94  1  0  0  0
  6 95  1  0  0  0
  7  8  2  0  0  0
  7 26  1  0  0  0
  7 29  1  0  0  0
  8  9  1  0  0  0
  8 22  1  0  0  0
  9 10  1  0  0  0
  9 27  2  0  0  0
 10 11  2  0  0  0
 10 15  1  0  0  0
 11 12  1  0  0  0
 11 96  1  0  0  0
 12 13  2  0  0  0
 12 97  1  0  0  0
 13 14  1  0  0  0
 13 31  1  0  0  0
 14 15  2  0  0  0
 14 98  1  0  0  0
 15 99  1  0  0  0
 16 17  2  0  0  0
 16 21  1  0  0  0
 16 31  1  0  0  0
 17 18  1  0  0  0
 17100  1  0  0  0
 18 19  2  0  0  0
 18101  1  0  0  0
 19 20  1  0  0  0
 19 24  1  0  0  0
 20 21  2  0  0  0
 20102  1  0  0  0
 21 23  1  0  0  0
 22 28  1  0  0  0
 22 32  2  0  0  0
 26 27  1  0  0  0
 28103  1  0  0  0
 28104  1  0  0  0
 29105  1  0  0  0
 29106  1  0  0  0
 33 34  1  0  0  0
 33 66  1  0  0  0
 33 70  2  0  0  0
 34 36  1  0  0  0
 34 59  1  0  0  0
 34107  1  0  0  0
 35 44  2  0  0  0
 35 45  1  0  0  0
 35 68  1  0  0  0
 36 56  1  0  0  0
 36108  1  0  0  0
 37 39  1  0  0  0
 37 47  1  0  0  0
 37 66  1  0  0  0
 37109  1  0  0  0
 38 43  2  0  0  0
 38 46  1  0  0  0
 38 47  1  0  0  0
 39 64  1  0  0  0
 39 67  2  0  0  0
 40 52  1  0  0  0
 40 53  2  0  0  0
 40 58  1  0  0  0
 41110  1  0  0  0
 41111  1  0  0  0
 41112  1  0  0  0
 41 48  1  0  0  0
 42 43  1  0  0  0
 42 66  1  0  0  0
 42113  1  0  0  0
 42114  1  0  0  0
 43 44  1  0  0  0
 44115  1  0  0  0
 45 46  2  0  0  0
 45116  1  0  0  0
 46117  1  0  0  0
 47118  1  0  0  0
 47119  1  0  0  0
 48 56  1  0  0  0
 48 65  1  0  0  0
 48120  1  0  0  0
 49 50  1  0  0  0
 49 53  1  0  0  0
 49 64  1  0  0  0
 49121  1  0  0  0
 50 51  1  0  0  0
 50122  1  0  0  0
 50123  1  0  0  0
 51 52  1  0  0  0
 51124  1  0  0  0
 51125  1  0  0  0
 52126  1  0  0  0
 52127  1  0  0  0
 53 54  1  0  0  0
 54 55  2  0  0  0
 54128  1  0  0  0
 55 57  1  0  0  0
 55129  1  0  0  0
 56 69  2  0  0  0
 57 58  2  0  0  0
 57130  1  0  0  0
 58131  1  0  0  0
 59 60  1  0  0  0
 59 61  1  0  0  0
 59 62  1  0  0  0
 60132  1  0  0  0
 60133  1  0  0  0
 60134  1  0  0  0
 61135  1  0  0  0
 61136  1  0  0  0
 61137  1  0  0  0
 62138  1  0  0  0
 62139  1  0  0  0
 62140  1  0  0  0
 63 65  1  0  0  0
 63141  1  0  0  0
 63142  1  0  0  0
 63143  1  0  0  0
 64144  1  0  0  0
 65145  1  0  0  0
 68 82  1  0  0  0
 71 72  2  0  0  0
 71 75  1  0  0  0
 71146  1  0  0  0
 72 76  1  0  0  0
 72 77  1  0  0  0
 73 74  1  0  0  0
 73 75  2  0  0  0
 73 78  1  0  0  0
 74 76  2  0  0  0
 74 81  1  0  0  0
 75 84  1  0  0  0
 76 86  1  0  0  0
 77147  1  0  0  0
 77148  1  0  0  0
 77149  1  0  0  0
 78150  1  0  0  0
 78151  1  0  0  0
 78152  1  0  0  0
 79153  1  0  0  0
 79154  1  0  0  0
 79155  1  0  0  0
 79 83  1  0  0  0
 80 84  1  0  0  0
 80156  1  0  0  0
 80157  1  0  0  0
 80158  1  0  0  0
 81 85  1  0  0  0
 81159  1  0  0  0
 81160  1  0  0  0
 82 83  1  0  0  0
 82161  1  0  0  0
 82162  1  0  0  0
 83 85  1  0  0  0
 83163  1  0  0  0
 85164  1  0  0  0
 85165  1  0  0  0
M  CHG  1  85   1
M  ISO  4   1 100  68 101  82 101  84 100
M  END
> <chiral flag>
0

> <version>
0

> <s_m_source_file>
/data/baiqing/PycharmProjects/Reinvent-master-3.2/result/LINK_invent/BTK/process_docking_weight1_custom_sum_contain_oxygen_bond_distance_aromatic_linkinvent_7_9_3/rearranged_h_0015.sdf

> <i_m_source_file_index>
7

> <r_mmod_Potential_Energy-OPLS-2005>
201.026992797852

> <r_mmod_Stretch_Energy-OPLS-2005>
140.561172485352

> <r_mmod_Bend_Energy-OPLS-2005>
193.244049072266

> <r_mmod_Torsional_Energy-OPLS-2005>
286.68505859375

> <r_mmod_Improper_Torsional_Energy-OPLS-2005>
6.2093563079834

> <r_mmod_Van_der_Waal_Energy-OPLS-2005>
155.810897827148

> <r_mmod_Electrostatic_Energy-OPLS-2005>
-235.376647949219

> <r_mmod_Solvation_Energy-OPLS-2005>
-414.944610595703

> <b_mmod_Minimization_Converged-OPLS-2005>
0

> <r_mmod_RMS_Derivative-OPLS-2005>
1.72313714027405

$$$$
7
                    3D
 Structure written by MMmdl.
158166  0  0  1  0            999 V2000
  -30.4397  -15.3652   20.3904 C   0  0  0  0  0  0
  -30.4145  -12.8924   19.5077 C   0  0  0  0  0  0
  -29.5195  -12.6034   18.2750 C   0  0  0  0  0  0
  -28.0725  -12.3076   18.7011 C   0  0  0  0  0  0
  -27.5932  -13.2747   19.8093 C   0  0  2  0  0  0
  -28.6323  -13.4846   20.9342 C   0  0  0  0  0  0
  -25.2266  -13.8203   20.5767 C   0  0  0  0  0  0
  -24.1649  -13.0360   20.9278 C   0  0  0  0  0  0
  -24.6345  -11.6887   20.8770 C   0  0  0  0  0  0
  -23.9060  -10.4254   21.0412 C   0  0  0  0  0  0
  -24.3648   -9.4188   21.9184 C   0  0  0  0  0  0
  -23.6338   -8.2215   22.0727 C   0  0  0  0  0  0
  -22.4302   -8.0271   21.3536 C   0  0  0  0  0  0
  -21.9937   -9.0223   20.4619 C   0  0  0  0  0  0
  -22.7242  -10.2107   20.3050 C   0  0  0  0  0  0
  -21.6865   -6.0751   22.5286 C   0  0  0  0  0  0
  -21.4005   -6.5648   23.8216 C   0  0  0  0  0  0
  -21.3657   -5.6798   24.9175 C   0  0  0  0  0  0
  -21.6048   -4.3063   24.7223 C   0  0  0  0  0  0
  -21.8829   -3.8159   23.4346 C   0  0  0  0  0  0
  -21.9196   -4.6978   22.3405 C   0  0  0  0  0  0
  -22.7679  -13.5129   21.1929 C   0  0  0  0  0  0
  -22.1683   -4.2172   21.0976 F   0  0  0  0  0  0
  -21.5616   -3.4538   25.7725 F   0  0  0  0  0  0
  -29.8342  -14.0598   20.2923 N   0  0  0  0  0  0
  -26.2703  -12.9497   20.3209 N   0  0  0  0  0  0
  -25.9274  -11.6597   20.5714 N   0  0  0  0  0  0
  -22.0381  -12.8083   22.0502 N   0  0  0  0  0  0
  -25.3797  -15.1937   20.4213 N   0  0  0  0  0  0
  -31.6651  -15.2277   20.2461 O   0  0  0  0  0  0
  -21.6658   -6.8884   21.4240 O   0  0  0  0  0  0
  -22.3342  -14.5422   20.6762 O   0  0  0  0  0  0
  -24.6655  -31.8164   23.1653 C   0  0  0  0  0  0
  -25.9314  -32.4542   23.8131 C   0  0  1  0  0  0
  -27.2195  -26.8809   20.1939 C   0  0  0  0  0  0
  -25.5972  -33.8353   24.2044 N   0  0  0  0  0  0
  -23.4837  -30.4235   21.5139 C   0  0  2  0  0  0
  -24.9433  -28.8048   20.1058 C   0  0  0  0  0  0
  -22.7662  -29.4387   22.4749 C   0  0  0  0  0  0
  -18.0290  -28.1401   22.8440 C   0  0  0  0  0  0
  -24.1519  -36.7211   23.2653 C   0  0  0  0  0  0
  -26.0557  -30.6063   21.4050 C   0  0  0  0  0  0
  -26.1238  -29.1915   20.7504 C   0  0  0  0  0  0
  -27.2542  -28.2513   20.7715 C   0  0  0  0  0  0
  -26.0197  -26.6641   19.4788 C   0  0  0  0  0  0
  -24.9227  -27.5652   19.4429 C   0  0  0  0  0  0
  -23.7273  -29.7322   20.1423 C   0  0  0  0  0  0
  -25.4154  -36.2934   24.0298 C   0  0  1  0  0  0
  -20.5926  -28.3741   23.1170 C   0  0  2  0  0  0
  -20.6761  -26.9412   22.5401 C   0  0  0  0  0  0
  -19.5751  -26.6374   21.5191 C   0  0  0  0  0  0
  -18.1932  -26.7928   22.1602 C   0  0  0  0  0  0
  -19.1560  -28.8891   23.2789 C   0  0  0  0  0  0
  -18.9467  -30.1472   23.8836 C   0  0  0  0  0  0
  -17.6464  -30.6585   24.0541 C   0  0  0  0  0  0
  -25.9124  -34.9316   23.5005 C   0  0  0  0  0  0
  -16.5357  -29.9071   23.6325 C   0  0  0  0  0  0
  -16.7272  -28.6491   23.0353 C   0  0  0  0  0  0
  -26.4577  -31.6478   25.0646 C   0  0  0  0  0  0
  -25.3717  -31.3691   26.1296 C   0  0  0  0  0  0
  -27.0491  -30.2841   24.6417 C   0  0  0  0  0  0
  -27.6078  -32.4291   25.7413 C   0  0  0  0  0  0
  -27.5579  -37.1744   24.8454 C   0  0  0  0  0  0
  -21.4338  -29.3037   22.3526 N   0  0  0  0  0  0
  -26.4292  -37.3670   23.9393 N   0  0  0  0  0  0
  -24.7563  -30.9757   22.0837 N   0  0  0  0  0  0
  -23.4176  -28.7934   23.3007 O   0  0  0  0  0  0
  -28.2065  -25.7519   20.2878 O   0  0  0  0  0  0
  -26.5732  -34.8855   22.4602 O   0  0  0  0  0  0
  -23.5711  -32.1199   23.6685 O   0  0  0  0  0  0
  -31.0476  -20.6188   21.0581 C   0  0  0  0  0  0
  -31.7299  -18.1721   20.0080 C   0  0  0  0  0  0
  -32.3990  -20.3065   20.8996 C   0  0  0  0  0  0
  -29.9549  -19.8483   20.5643 C   0  0  0  0  0  0
  -30.3482  -18.2932   20.3423 C   0  0  0  0  0  0
  -32.7288  -19.1192   20.2625 C   0  0  0  0  0  0
  -33.4642  -21.3127   21.3020 C   0  0  0  0  0  0
  -28.3846  -16.7471   20.8665 C   0  0  0  0  0  0
  -27.8207  -20.4459   19.4398 C   0  0  0  0  0  0
  -29.0045  -22.6167   20.4590 C   0  0  0  0  0  0
  -27.9712  -24.0961   20.1555 C   0  0  0  0  0  0
  -29.7761  -16.7503   20.4347 N   0  0  0  0  0  0
  -28.8554  -20.9413   20.3428 N   0  0  0  0  0  0
  -34.0197  -18.8540   19.9479 F   0  0  0  0  0  0
  -31.4233  -13.1068   19.1527 H   0  0  0  0  0  0
  -30.5063  -11.9996   20.1289 H   0  0  0  0  0  0
  -29.9161  -11.7681   17.6953 H   0  0  0  0  0  0
  -29.5316  -13.4716   17.6137 H   0  0  0  0  0  0
  -28.0286  -11.2789   19.0576 H   0  0  0  0  0  0
  -27.4063  -12.3595   17.8381 H   0  0  0  0  0  0
  -27.4830  -14.2208   19.2838 H   0  0  0  0  0  0
  -28.8394  -12.5468   21.4517 H   0  0  0  0  0  0
  -28.2416  -14.1570   21.6935 H   0  0  0  0  0  0
  -25.2800   -9.5675   22.4753 H   0  0  0  0  0  0
  -24.0064   -7.4590   22.7425 H   0  0  0  0  0  0
  -21.0874   -8.8713   19.8915 H   0  0  0  0  0  0
  -22.3701  -10.9640   19.6160 H   0  0  0  0  0  0
  -21.2002   -7.6150   23.9720 H   0  0  0  0  0  0
  -21.1472   -6.0526   25.9074 H   0  0  0  0  0  0
  -22.0616   -2.7620   23.2835 H   0  0  0  0  0  0
  -22.4091  -11.9784   22.4899 H   0  0  0  0  0  0
  -21.0965  -13.1003   22.2706 H   0  0  0  0  0  0
  -24.6184  -15.8499   20.5572 H   0  0  0  0  0  0
  -26.2330  -15.6378   20.1140 H   0  0  0  0  0  0
  -26.7366  -32.5067   23.0826 H   0  0  0  0  0  0
  -25.0024  -33.9439   25.0124 H   0  0  0  0  0  0
  -22.7993  -31.2544   21.3327 H   0  0  0  0  0  0
  -23.3784  -35.9533   23.3255 H   0  0  0  0  0  0
  -24.3634  -36.8931   22.2086 H   0  0  0  0  0  0
  -23.7281  -37.6381   23.6769 H   0  0  0  0  0  0
  -26.2426  -31.3409   20.6197 H   0  0  0  0  0  0
  -26.9143  -30.6678   22.0619 H   0  0  0  0  0  0
  -28.1423  -28.5380   21.3158 H   0  0  0  0  0  0
  -25.9030  -25.7234   18.9626 H   0  0  0  0  0  0
  -24.0360  -27.2716   18.8986 H   0  0  0  0  0  0
  -23.8809  -30.4962   19.3801 H   0  0  0  0  0  0
  -22.8402  -29.1818   19.8239 H   0  0  0  0  0  0
  -25.1358  -36.1742   25.0790 H   0  0  0  0  0  0
  -20.9991  -28.3346   24.1301 H   0  0  0  0  0  0
  -20.5612  -26.2351   23.3647 H   0  0  0  0  0  0
  -21.6620  -26.7368   22.1223 H   0  0  0  0  0  0
  -19.6927  -25.6284   21.1224 H   0  0  0  0  0  0
  -19.6698  -27.3160   20.6705 H   0  0  0  0  0  0
  -17.4193  -26.6629   21.4018 H   0  0  0  0  0  0
  -18.0350  -26.0100   22.9034 H   0  0  0  0  0  0
  -19.7955  -30.7295   24.2200 H   0  0  0  0  0  0
  -17.5020  -31.6258   24.5162 H   0  0  0  0  0  0
  -15.5359  -30.2955   23.7722 H   0  0  0  0  0  0
  -15.8661  -28.0808   22.7111 H   0  0  0  0  0  0
  -24.5922  -30.7036   25.7564 H   0  0  0  0  0  0
  -24.8889  -32.2865   26.4666 H   0  0  0  0  0  0
  -25.7960  -30.8870   27.0111 H   0  0  0  0  0  0
  -26.3180  -29.6468   24.1440 H   0  0  0  0  0  0
  -27.4014  -29.7245   25.5092 H   0  0  0  0  0  0
  -27.9109  -30.3993   23.9844 H   0  0  0  0  0  0
  -27.2672  -33.3631   26.1885 H   0  0  0  0  0  0
  -28.3904  -32.6798   25.0236 H   0  0  0  0  0  0
  -28.0739  -31.8506   26.5404 H   0  0  0  0  0  0
  -28.2533  -38.0092   24.7529 H   0  0  0  0  0  0
  -28.1140  -36.2625   24.6253 H   0  0  0  0  0  0
  -27.2302  -37.1322   25.8851 H   0  0  0  0  0  0
  -20.9609  -29.8747   21.6670 H   0  0  0  0  0  0
  -26.0148  -38.2727   24.1397 H   0  0  0  0  0  0
  -30.9076  -21.5890   21.4969 H   0  0  0  0  0  0
  -32.1216  -17.2897   19.5458 H   0  0  0  0  0  0
  -33.1623  -21.8623   22.1928 H   0  0  0  0  0  0
  -33.6202  -22.0370   20.5022 H   0  0  0  0  0  0
  -34.4189  -20.8316   21.5174 H   0  0  0  0  0  0
  -27.7841  -16.1408   20.1999 H   0  0  0  0  0  0
  -27.9448  -17.7440   20.8585 H   0  0  0  0  0  0
  -28.2963  -16.3751   21.8880 H   0  0  0  0  0  0
  -28.2564  -20.0893   18.5032 H   0  0  0  0  0  0
  -27.1009  -21.2274   19.1932 H   0  0  0  0  0  0
  -27.2631  -19.6198   19.8836 H   0  0  0  0  0  0
  -29.2405  -22.7602   21.5138 H   0  0  0  0  0  0
  -29.9310  -22.8342   19.9268 H   0  0  0  0  0  0
  -27.0731  -23.9213   20.7476 H   0  0  0  0  0  0
  -27.6249  -23.9784   19.1291 H   0  0  0  0  0  0
  1 25  1  0  0  0
  1 30  2  0  0  0
  1 82  1  0  0  0
  2  3  1  0  0  0
  2 25  1  0  0  0
  2 85  1  0  0  0
  2 86  1  0  0  0
  3  4  1  0  0  0
  3 87  1  0  0  0
  3 88  1  0  0  0
  4  5  1  0  0  0
  4 89  1  0  0  0
  4 90  1  0  0  0
  5  6  1  0  0  0
  5 26  1  0  0  0
  5 91  1  0  0  0
  6 25  1  0  0  0
  6 92  1  0  0  0
  6 93  1  0  0  0
  7  8  2  0  0  0
  7 26  1  0  0  0
  7 29  1  0  0  0
  8  9  1  0  0  0
  8 22  1  0  0  0
  9 10  1  0  0  0
  9 27  2  0  0  0
 10 11  2  0  0  0
 10 15  1  0  0  0
 11 12  1  0  0  0
 11 94  1  0  0  0
 12 13  2  0  0  0
 12 95  1  0  0  0
 13 14  1  0  0  0
 13 31  1  0  0  0
 14 15  2  0  0  0
 14 96  1  0  0  0
 15 97  1  0  0  0
 16 17  2  0  0  0
 16 21  1  0  0  0
 16 31  1  0  0  0
 17 18  1  0  0  0
 17 98  1  0  0  0
 18 19  2  0  0  0
 18 99  1  0  0  0
 19 20  1  0  0  0
 19 24  1  0  0  0
 20 21  2  0  0  0
 20100  1  0  0  0
 21 23  1  0  0  0
 22 28  1  0  0  0
 22 32  2  0  0  0
 26 27  1  0  0  0
 28101  1  0  0  0
 28102  1  0  0  0
 29103  1  0  0  0
 29104  1  0  0  0
 33 34  1  0  0  0
 33 66  1  0  0  0
 33 70  2  0  0  0
 34 36  1  0  0  0
 34 59  1  0  0  0
 34105  1  0  0  0
 35 44  2  0  0  0
 35 45  1  0  0  0
 35 68  1  0  0  0
 36 56  1  0  0  0
 36106  1  0  0  0
 37 39  1  0  0  0
 37 47  1  0  0  0
 37 66  1  0  0  0
 37107  1  0  0  0
 38 43  2  0  0  0
 38 46  1  0  0  0
 38 47  1  0  0  0
 39 64  1  0  0  0
 39 67  2  0  0  0
 40 52  1  0  0  0
 40 53  2  0  0  0
 40 58  1  0  0  0
 41108  1  0  0  0
 41109  1  0  0  0
 41110  1  0  0  0
 41 48  1  0  0  0
 42 43  1  0  0  0
 42 66  1  0  0  0
 42111  1  0  0  0
 42112  1  0  0  0
 43 44  1  0  0  0
 44113  1  0  0  0
 45 46  2  0  0  0
 45114  1  0  0  0
 46115  1  0  0  0
 47116  1  0  0  0
 47117  1  0  0  0
 48 56  1  0  0  0
 48 65  1  0  0  0
 48118  1  0  0  0
 49 50  1  0  0  0
 49 53  1  0  0  0
 49 64  1  0  0  0
 49119  1  0  0  0
 50 51  1  0  0  0
 50120  1  0  0  0
 50121  1  0  0  0
 51 52  1  0  0  0
 51122  1  0  0  0
 51123  1  0  0  0
 52124  1  0  0  0
 52125  1  0  0  0
 53 54  1  0  0  0
 54 55  2  0  0  0
 54126  1  0  0  0
 55 57  1  0  0  0
 55127  1  0  0  0
 56 69  2  0  0  0
 57 58  2  0  0  0
 57128  1  0  0  0
 58129  1  0  0  0
 59 60  1  0  0  0
 59 61  1  0  0  0
 59 62  1  0  0  0
 60130  1  0  0  0
 60131  1  0  0  0
 60132  1  0  0  0
 61133  1  0  0  0
 61134  1  0  0  0
 61135  1  0  0  0
 62136  1  0  0  0
 62137  1  0  0  0
 62138  1  0  0  0
 63 65  1  0  0  0
 63139  1  0  0  0
 63140  1  0  0  0
 63141  1  0  0  0
 64142  1  0  0  0
 65143  1  0  0  0
 68 81  1  0  0  0
 71 73  2  0  0  0
 71 74  1  0  0  0
 71144  1  0  0  0
 72 75  1  0  0  0
 72 76  2  0  0  0
 72145  1  0  0  0
 73 76  1  0  0  0
 73 77  1  0  0  0
 74 75  2  0  0  0
 74 83  1  0  0  0
 75 82  1  0  0  0
 76 84  1  0  0  0
 77146  1  0  0  0
 77147  1  0  0  0
 77148  1  0  0  0
 78 82  1  0  0  0
 78149  1  0  0  0
 78150  1  0  0  0
 78151  1  0  0  0
 79 83  1  0  0  0
 79152  1  0  0  0
 79153  1  0  0  0
 79154  1  0  0  0
 80 81  1  0  0  0
 80 83  1  0  0  0
 80155  1  0  0  0
 80156  1  0  0  0
 81157  1  0  0  0
 81158  1  0  0  0
M  ISO  4   1 100  68 101  81 101  82 100
M  END
> <chiral flag>
0

> <version>
0

> <s_m_source_file>
/data/baiqing/PycharmProjects/Reinvent-master-3.2/result/LINK_invent/BTK/process_docking_weight1_custom_sum_contain_oxygen_bond_distance_aromatic_linkinvent_7_9_3/rearranged_h_0015.sdf

> <i_m_source_file_index>
8

> <r_mmod_Potential_Energy-OPLS-2005>
1853.57653808594

> <r_mmod_Stretch_Energy-OPLS-2005>
749.492126464844

> <r_mmod_Bend_Energy-OPLS-2005>
576.576477050781

> <r_mmod_Torsional_Energy-OPLS-2005>
336.483978271484

> <r_mmod_Improper_Torsional_Energy-OPLS-2005>
7.71248722076416

> <r_mmod_Van_der_Waal_Energy-OPLS-2005>
157.995254516602

> <r_mmod_Electrostatic_Energy-OPLS-2005>
-303.71533203125

> <r_mmod_Solvation_Energy-OPLS-2005>
-210.926788330078

> <b_mmod_Minimization_Converged-OPLS-2005>
0

> <r_mmod_RMS_Derivative-OPLS-2005>
4.06320190429688

$$$$
8
                    3D
 Structure written by MMmdl.
161169  0  0  1  0            999 V2000
  -30.6183  -14.7181   20.4289 C   0  0  0  0  0  0
  -30.4333  -12.4251   19.4771 C   0  0  0  0  0  0
  -29.5098  -12.4656   18.2389 C   0  0  0  0  0  0
  -28.0326  -12.3200   18.6510 C   0  0  0  0  0  0
  -27.6440  -13.2276   19.8489 C   0  0  2  0  0  0
  -28.6885  -13.1582   20.9842 C   0  0  0  0  0  0
  -25.2529  -13.8196   20.5693 C   0  0  0  0  0  0
  -24.1813  -13.0447   20.9205 C   0  0  0  0  0  0
  -24.6393  -11.6923   20.8751 C   0  0  0  0  0  0
  -23.9068  -10.4299   21.0410 C   0  0  0  0  0  0
  -24.3620   -9.4213   21.9185 C   0  0  0  0  0  0
  -23.6296   -8.2247   22.0755 C   0  0  0  0  0  0
  -22.4278   -8.0282   21.3544 C   0  0  0  0  0  0
  -21.9913   -9.0257   20.4647 C   0  0  0  0  0  0
  -22.7241  -10.2138   20.3057 C   0  0  0  0  0  0
  -21.6854   -6.0736   22.5277 C   0  0  0  0  0  0
  -21.4018   -6.5641   23.8210 C   0  0  0  0  0  0
  -21.3661   -5.6794   24.9172 C   0  0  0  0  0  0
  -21.6041   -4.3056   24.7223 C   0  0  0  0  0  0
  -21.8821   -3.8148   23.4345 C   0  0  0  0  0  0
  -21.9194   -4.6964   22.3401 C   0  0  0  0  0  0
  -22.7834  -13.5230   21.1866 C   0  0  0  0  0  0
  -22.1662   -4.2151   21.0979 F   0  0  0  0  0  0
  -21.5627   -3.4540   25.7736 F   0  0  0  0  0  0
  -29.9945  -13.4930   20.4028 N   0  0  0  0  0  0
  -26.2952  -12.9398   20.3283 N   0  0  0  0  0  0
  -25.9323  -11.6546   20.5768 N   0  0  0  0  0  0
  -22.0480  -12.8215   22.0420 N   0  0  0  0  0  0
  -25.4224  -15.1919   20.4103 N   0  0  0  0  0  0
  -31.8192  -14.8006   20.1603 O   0  0  0  0  0  0
  -21.6643   -6.8878   21.4239 O   0  0  0  0  0  0
  -22.3517  -14.5534   20.6712 O   0  0  0  0  0  0
  -24.6301  -31.8562   23.2010 C   0  0  0  0  0  0
  -25.9136  -32.4757   23.8342 C   0  0  1  0  0  0
  -27.2169  -27.2773   20.1246 C   0  0  0  0  0  0
  -25.5933  -33.8559   24.2265 N   0  0  0  0  0  0
  -23.4256  -30.4811   21.5442 C   0  0  2  0  0  0
  -24.8724  -28.9351   20.1075 C   0  0  0  0  0  0
  -22.7494  -29.4605   22.4921 C   0  0  0  0  0  0
  -18.0289  -28.1382   22.8478 C   0  0  0  0  0  0
  -24.1495  -36.7286   23.2641 C   0  0  0  0  0  0
  -25.9714  -30.7739   21.3806 C   0  0  0  0  0  0
  -26.0434  -29.3998   20.7194 C   0  0  0  0  0  0
  -27.2183  -28.5826   20.7192 C   0  0  0  0  0  0
  -26.0246  -26.8859   19.4710 C   0  0  0  0  0  0
  -24.8673  -27.6856   19.4726 C   0  0  0  0  0  0
  -23.6428  -29.8202   20.1584 C   0  0  0  0  0  0
  -25.4120  -36.3073   24.0327 C   0  0  1  0  0  0
  -20.5891  -28.3683   23.1275 C   0  0  2  0  0  0
  -20.6779  -26.9403   22.5409 C   0  0  0  0  0  0
  -19.5755  -26.6376   21.5210 C   0  0  0  0  0  0
  -18.1930  -26.7923   22.1619 C   0  0  0  0  0  0
  -19.1542  -28.8851   23.2866 C   0  0  0  0  0  0
  -18.9466  -30.1452   23.8881 C   0  0  0  0  0  0
  -17.6466  -30.6580   24.0559 C   0  0  0  0  0  0
  -25.9059  -34.9440   23.5098 C   0  0  0  0  0  0
  -16.5356  -29.9077   23.6334 C   0  0  0  0  0  0
  -16.7275  -28.6499   23.0345 C   0  0  0  0  0  0
  -26.4506  -31.6580   25.0727 C   0  0  0  0  0  0
  -25.3729  -31.3723   26.1444 C   0  0  0  0  0  0
  -27.0359  -30.2998   24.6214 C   0  0  0  0  0  0
  -27.6056  -32.4327   25.7500 C   0  0  0  0  0  0
  -27.5583  -37.1797   24.8464 C   0  0  0  0  0  0
  -21.4205  -29.3036   22.3668 N   0  0  0  0  0  0
  -26.4296  -37.3768   23.9408 N   0  0  0  0  0  0
  -24.6946  -31.0544   22.0980 N   0  0  0  0  0  0
  -23.4204  -28.8142   23.3011 O   0  0  0  0  0  0
  -28.3078  -26.3811   20.2027 O   0  0  0  0  0  0
  -26.5631  -34.8909   22.4665 O   0  0  0  0  0  0
  -23.5458  -32.1384   23.7314 O   0  0  0  0  0  0
  -30.5479  -18.7640   18.1820 C   0  0  0  0  0  0
  -30.1738  -19.8972   18.9184 C   0  0  0  0  0  0
  -30.4357  -17.4583   18.7008 C   0  0  0  0  0  0
  -29.5348  -18.4312   20.7589 C   0  0  0  0  0  0
  -29.6477  -19.7937   20.2178 C   0  0  0  0  0  0
  -29.9749  -17.2376   20.0342 C   0  0  0  0  0  0
  -30.7519  -16.3346   17.7266 C   0  0  0  0  0  0
  -28.8847  -18.2107   22.1186 C   0  0  0  0  0  0
  -29.6961  -21.1790   22.2822 C   0  0  0  0  0  0
  -29.0181  -23.7498   20.5278 C   0  0  0  0  0  0
  -28.5970  -22.2149   20.2245 C   0  0  0  0  0  0
  -28.0508  -24.9188   19.9868 C   0  0  0  0  0  0
  -29.8283  -15.8499   20.5670 N   0  0  0  0  0  0
  -29.3444  -21.0601   20.8700 N   0  0  0  0  0  0
  -31.4747  -12.5425   19.1724 H   0  0  0  0  0  0
  -30.3750  -11.4526   19.9689 H   0  0  0  0  0  0
  -29.7801  -11.6685   17.5452 H   0  0  0  0  0  0
  -29.6497  -13.3952   17.6917 H   0  0  0  0  0  0
  -27.8749  -11.2743   18.9171 H   0  0  0  0  0  0
  -27.3800  -12.5162   17.7993 H   0  0  0  0  0  0
  -27.6414  -14.2479   19.4646 H   0  0  0  0  0  0
  -28.7139  -12.1626   21.4303 H   0  0  0  0  0  0
  -28.4308  -13.8473   21.7901 H   0  0  0  0  0  0
  -25.2764   -9.5690   22.4762 H   0  0  0  0  0  0
  -24.0005   -7.4640   22.7477 H   0  0  0  0  0  0
  -21.0845   -8.8773   19.8953 H   0  0  0  0  0  0
  -22.3696  -10.9676   19.6169 H   0  0  0  0  0  0
  -21.2013   -7.6150   23.9713 H   0  0  0  0  0  0
  -21.1480   -6.0525   25.9075 H   0  0  0  0  0  0
  -22.0599   -2.7610   23.2844 H   0  0  0  0  0  0
  -22.4103  -11.9873   22.4800 H   0  0  0  0  0  0
  -21.1098  -13.1237   22.2632 H   0  0  0  0  0  0
  -24.6515  -15.8425   20.5143 H   0  0  0  0  0  0
  -26.2634  -15.6309   20.0586 H   0  0  0  0  0  0
  -26.7200  -32.5419   23.1084 H   0  0  0  0  0  0
  -25.0073  -33.9690   25.0405 H   0  0  0  0  0  0
  -22.7211  -31.3034   21.4016 H   0  0  0  0  0  0
  -23.3754  -35.9622   23.3301 H   0  0  0  0  0  0
  -24.3590  -36.8912   22.2056 H   0  0  0  0  0  0
  -23.7248  -37.6485   23.6669 H   0  0  0  0  0  0
  -26.1117  -31.5376   20.6145 H   0  0  0  0  0  0
  -26.8478  -30.8186   22.0157 H   0  0  0  0  0  0
  -28.1117  -28.9292   21.2193 H   0  0  0  0  0  0
  -25.9501  -25.9366   18.9624 H   0  0  0  0  0  0
  -23.9722  -27.3267   18.9832 H   0  0  0  0  0  0
  -23.7658  -30.5991   19.4047 H   0  0  0  0  0  0
  -22.7615  -29.2539   19.8526 H   0  0  0  0  0  0
  -25.1302  -36.1922   25.0820 H   0  0  0  0  0  0
  -20.9975  -28.3259   24.1399 H   0  0  0  0  0  0
  -20.5677  -26.2291   23.3608 H   0  0  0  0  0  0
  -21.6646  -26.7430   22.1203 H   0  0  0  0  0  0
  -19.6918  -25.6286   21.1239 H   0  0  0  0  0  0
  -19.6699  -27.3185   20.6739 H   0  0  0  0  0  0
  -17.4202  -26.6666   21.4018 H   0  0  0  0  0  0
  -18.0330  -26.0065   22.9018 H   0  0  0  0  0  0
  -19.7944  -30.7267   24.2244 H   0  0  0  0  0  0
  -17.5021  -31.6262   24.5158 H   0  0  0  0  0  0
  -15.5353  -30.2971   23.7668 H   0  0  0  0  0  0
  -15.8678  -28.0816   22.7060 H   0  0  0  0  0  0
  -24.5916  -30.7060   25.7768 H   0  0  0  0  0  0
  -24.8904  -32.2887   26.4851 H   0  0  0  0  0  0
  -25.8041  -30.8911   27.0232 H   0  0  0  0  0  0
  -26.2942  -29.6735   24.1240 H   0  0  0  0  0  0
  -27.4044  -29.7269   25.4734 H   0  0  0  0  0  0
  -27.8820  -30.4269   23.9457 H   0  0  0  0  0  0
  -27.2660  -33.3636   26.2051 H   0  0  0  0  0  0
  -28.3875  -32.6872   25.0331 H   0  0  0  0  0  0
  -28.0717  -31.8473   26.5436 H   0  0  0  0  0  0
  -28.2589  -38.0102   24.7514 H   0  0  0  0  0  0
  -28.1087  -36.2630   24.6287 H   0  0  0  0  0  0
  -27.2299  -37.1443   25.8866 H   0  0  0  0  0  0
  -20.9387  -29.8773   21.6888 H   0  0  0  0  0  0
  -26.0176  -38.2843   24.1403 H   0  0  0  0  0  0
  -30.9186  -18.9126   17.1772 H   0  0  0  0  0  0
  -30.3115  -20.8658   18.4602 H   0  0  0  0  0  0
  -30.7307  -16.6855   16.6946 H   0  0  0  0  0  0
  -30.0063  -15.5469   17.7965 H   0  0  0  0  0  0
  -31.7438  -15.9212   17.9039 H   0  0  0  0  0  0
  -29.6363  -18.1948   22.9073 H   0  0  0  0  0  0
  -28.3362  -17.2704   22.1553 H   0  0  0  0  0  0
  -28.1554  -18.9883   22.3391 H   0  0  0  0  0  0
  -30.4031  -20.4092   22.5932 H   0  0  0  0  0  0
  -28.8091  -21.1137   22.9135 H   0  0  0  0  0  0
  -30.1768  -22.1363   22.4827 H   0  0  0  0  0  0
  -30.0213  -23.9189   20.1366 H   0  0  0  0  0  0
  -29.0930  -23.8867   21.6059 H   0  0  0  0  0  0
  -28.5847  -22.0763   19.1435 H   0  0  0  0  0  0
  -27.5544  -22.1023   20.5255 H   0  0  0  0  0  0
  -27.0782  -24.6865   20.4224 H   0  0  0  0  0  0
  -27.9423  -24.7750   18.9111 H   0  0  0  0  0  0
  -28.9308  -15.6566   20.9830 H   0  0  0  0  0  0
  1 25  1  0  0  0
  1 30  2  0  0  0
  1 83  1  0  0  0
  2  3  1  0  0  0
  2 25  1  0  0  0
  2 85  1  0  0  0
  2 86  1  0  0  0
  3  4  1  0  0  0
  3 87  1  0  0  0
  3 88  1  0  0  0
  4  5  1  0  0  0
  4 89  1  0  0  0
  4 90  1  0  0  0
  5  6  1  0  0  0
  5 26  1  0  0  0
  5 91  1  0  0  0
  6 25  1  0  0  0
  6 92  1  0  0  0
  6 93  1  0  0  0
  7  8  2  0  0  0
  7 26  1  0  0  0
  7 29  1  0  0  0
  8  9  1  0  0  0
  8 22  1  0  0  0
  9 10  1  0  0  0
  9 27  2  0  0  0
 10 11  2  0  0  0
 10 15  1  0  0  0
 11 12  1  0  0  0
 11 94  1  0  0  0
 12 13  2  0  0  0
 12 95  1  0  0  0
 13 14  1  0  0  0
 13 31  1  0  0  0
 14 15  2  0  0  0
 14 96  1  0  0  0
 15 97  1  0  0  0
 16 17  2  0  0  0
 16 21  1  0  0  0
 16 31  1  0  0  0
 17 18  1  0  0  0
 17 98  1  0  0  0
 18 19  2  0  0  0
 18 99  1  0  0  0
 19 20  1  0  0  0
 19 24  1  0  0  0
 20 21  2  0  0  0
 20100  1  0  0  0
 21 23  1  0  0  0
 22 28  1  0  0  0
 22 32  2  0  0  0
 26 27  1  0  0  0
 28101  1  0  0  0
 28102  1  0  0  0
 29103  1  0  0  0
 29104  1  0  0  0
 33 34  1  0  0  0
 33 66  1  0  0  0
 33 70  2  0  0  0
 34 36  1  0  0  0
 34 59  1  0  0  0
 34105  1  0  0  0
 35 44  2  0  0  0
 35 45  1  0  0  0
 35 68  1  0  0  0
 36 56  1  0  0  0
 36106  1  0  0  0
 37 39  1  0  0  0
 37 47  1  0  0  0
 37 66  1  0  0  0
 37107  1  0  0  0
 38 43  2  0  0  0
 38 46  1  0  0  0
 38 47  1  0  0  0
 39 64  1  0  0  0
 39 67  2  0  0  0
 40 52  1  0  0  0
 40 53  2  0  0  0
 40 58  1  0  0  0
 41108  1  0  0  0
 41109  1  0  0  0
 41110  1  0  0  0
 41 48  1  0  0  0
 42 43  1  0  0  0
 42 66  1  0  0  0
 42111  1  0  0  0
 42112  1  0  0  0
 43 44  1  0  0  0
 44113  1  0  0  0
 45 46  2  0  0  0
 45114  1  0  0  0
 46115  1  0  0  0
 47116  1  0  0  0
 47117  1  0  0  0
 48 56  1  0  0  0
 48 65  1  0  0  0
 48118  1  0  0  0
 49 50  1  0  0  0
 49 53  1  0  0  0
 49 64  1  0  0  0
 49119  1  0  0  0
 50 51  1  0  0  0
 50120  1  0  0  0
 50121  1  0  0  0
 51 52  1  0  0  0
 51122  1  0  0  0
 51123  1  0  0  0
 52124  1  0  0  0
 52125  1  0  0  0
 53 54  1  0  0  0
 54 55  2  0  0  0
 54126  1  0  0  0
 55 57  1  0  0  0
 55127  1  0  0  0
 56 69  2  0  0  0
 57 58  2  0  0  0
 57128  1  0  0  0
 58129  1  0  0  0
 59 60  1  0  0  0
 59 61  1  0  0  0
 59 62  1  0  0  0
 60130  1  0  0  0
 60131  1  0  0  0
 60132  1  0  0  0
 61133  1  0  0  0
 61134  1  0  0  0
 61135  1  0  0  0
 62136  1  0  0  0
 62137  1  0  0  0
 62138  1  0  0  0
 63 65  1  0  0  0
 63139  1  0  0  0
 63140  1  0  0  0
 63141  1  0  0  0
 64142  1  0  0  0
 65143  1  0  0  0
 68 82  1  0  0  0
 71 72  2  0  0  0
 71 73  1  0  0  0
 71144  1  0  0  0
 72 75  1  0  0  0
 72145  1  0  0  0
 73 76  2  0  0  0
 73 77  1  0  0  0
 74 75  2  0  0  0
 74 76  1  0  0  0
 74 78  1  0  0  0
 75 84  1  0  0  0
 76 83  1  0  0  0
 77146  1  0  0  0
 77147  1  0  0  0
 77148  1  0  0  0
 78149  1  0  0  0
 78150  1  0  0  0
 78151  1  0  0  0
 79 84  1  0  0  0
 79152  1  0  0  0
 79153  1  0  0  0
 79154  1  0  0  0
 80 81  1  0  0  0
 80 82  1  0  0  0
 80155  1  0  0  0
 80156  1  0  0  0
 81 84  1  0  0  0
 81157  1  0  0  0
 81158  1  0  0  0
 82159  1  0  0  0
 82160  1  0  0  0
 83161  1  0  0  0
M  ISO  4   1 100  68 101  82 101  83 100
M  END
> <chiral flag>
0

> <version>
0

> <s_m_source_file>
/data/baiqing/PycharmProjects/Reinvent-master-3.2/result/LINK_invent/BTK/process_docking_weight1_custom_sum_contain_oxygen_bond_distance_aromatic_linkinvent_7_9_3/rearranged_h_0015.sdf

> <i_m_source_file_index>
9

> <r_mmod_Potential_Energy-OPLS-2005>
162.947998046875

> <r_mmod_Stretch_Energy-OPLS-2005>
123.238662719727

> <r_mmod_Bend_Energy-OPLS-2005>
170.350631713867

> <r_mmod_Torsional_Energy-OPLS-2005>
243.83805847168

> <r_mmod_Improper_Torsional_Energy-OPLS-2005>
5.43829965591431

> <r_mmod_Van_der_Waal_Energy-OPLS-2005>
154.637344360352

> <r_mmod_Electrostatic_Energy-OPLS-2005>
-392.307861328125

> <r_mmod_Solvation_Energy-OPLS-2005>
-221.356582641602

> <b_mmod_Minimization_Converged-OPLS-2005>
0

> <r_mmod_RMS_Derivative-OPLS-2005>
0.712538301944733

$$$$
9
                    3D
 Structure written by MMmdl.
154162  0  0  1  0            999 V2000
  -30.6056  -14.6877   20.4736 C   0  0  0  0  0  0
  -30.4410  -12.4155   19.4617 C   0  0  0  0  0  0
  -29.5144  -12.5091   18.2298 C   0  0  0  0  0  0
  -28.0408  -12.3280   18.6499 C   0  0  0  0  0  0
  -27.6510  -13.2195   19.8594 C   0  0  2  0  0  0
  -28.6984  -13.0976   20.9902 C   0  0  0  0  0  0
  -25.2525  -13.8145   20.5669 C   0  0  0  0  0  0
  -24.1805  -13.0402   20.9173 C   0  0  0  0  0  0
  -24.6395  -11.6885   20.8736 C   0  0  0  0  0  0
  -23.9059  -10.4272   21.0396 C   0  0  0  0  0  0
  -24.3605   -9.4186   21.9179 C   0  0  0  0  0  0
  -23.6285   -8.2219   22.0756 C   0  0  0  0  0  0
  -22.4270   -8.0254   21.3541 C   0  0  0  0  0  0
  -21.9895   -9.0235   20.4643 C   0  0  0  0  0  0
  -22.7230  -10.2110   20.3059 C   0  0  0  0  0  0
  -21.6841   -6.0715   22.5270 C   0  0  0  0  0  0
  -21.4016   -6.5629   23.8210 C   0  0  0  0  0  0
  -21.3676   -5.6781   24.9179 C   0  0  0  0  0  0
  -21.6040   -4.3039   24.7228 C   0  0  0  0  0  0
  -21.8823   -3.8135   23.4347 C   0  0  0  0  0  0
  -21.9193   -4.6942   22.3401 C   0  0  0  0  0  0
  -22.7829  -13.5205   21.1829 C   0  0  0  0  0  0
  -22.1641   -4.2127   21.0981 F   0  0  0  0  0  0
  -21.5645   -3.4533   25.7747 F   0  0  0  0  0  0
  -30.0102  -13.4518   20.4194 N   0  0  0  0  0  0
  -26.2985  -12.9362   20.3323 N   0  0  0  0  0  0
  -25.9348  -11.6499   20.5791 N   0  0  0  0  0  0
  -22.0462  -12.8239   22.0410 N   0  0  0  0  0  0
  -25.4169  -15.1865   20.4118 N   0  0  0  0  0  0
  -31.7764  -14.8530   20.1201 O   0  0  0  0  0  0
  -21.6632   -6.8847   21.4237 O   0  0  0  0  0  0
  -22.3514  -14.5498   20.6655 O   0  0  0  0  0  0
  -24.6262  -31.8591   23.2040 C   0  0  0  0  0  0
  -25.9120  -32.4773   23.8377 C   0  0  1  0  0  0
  -27.2346  -27.3264   20.1293 C   0  0  0  0  0  0
  -25.5931  -33.8577   24.2300 N   0  0  0  0  0  0
  -23.4196  -30.4818   21.5433 C   0  0  2  0  0  0
  -24.8663  -28.9346   20.1098 C   0  0  0  0  0  0
  -22.7490  -29.4611   22.4929 C   0  0  0  0  0  0
  -18.0285  -28.1386   22.8488 C   0  0  0  0  0  0
  -24.1475  -36.7325   23.2634 C   0  0  0  0  0  0
  -25.9564  -30.7925   21.3690 C   0  0  0  0  0  0
  -26.0312  -29.4168   20.7216 C   0  0  0  0  0  0
  -27.2152  -28.6253   20.7210 C   0  0  0  0  0  0
  -26.0458  -26.8915   19.4932 C   0  0  0  0  0  0
  -24.8780  -27.6782   19.4823 C   0  0  0  0  0  0
  -23.6345  -29.8146   20.1577 C   0  0  0  0  0  0
  -25.4089  -36.3100   24.0341 C   0  0  1  0  0  0
  -20.5886  -28.3693   23.1277 C   0  0  2  0  0  0
  -20.6767  -26.9421   22.5396 C   0  0  0  0  0  0
  -19.5749  -26.6382   21.5200 C   0  0  0  0  0  0
  -18.1931  -26.7924   22.1618 C   0  0  0  0  0  0
  -19.1540  -28.8856   23.2875 C   0  0  0  0  0  0
  -18.9465  -30.1445   23.8911 C   0  0  0  0  0  0
  -17.6470  -30.6589   24.0555 C   0  0  0  0  0  0
  -25.9038  -34.9456   23.5121 C   0  0  0  0  0  0
  -16.5359  -29.9092   23.6313 C   0  0  0  0  0  0
  -16.7270  -28.6496   23.0356 C   0  0  0  0  0  0
  -26.4504  -31.6574   25.0736 C   0  0  0  0  0  0
  -25.3771  -31.3693   26.1493 C   0  0  0  0  0  0
  -27.0312  -30.3009   24.6121 C   0  0  0  0  0  0
  -27.6064  -32.4295   25.7517 C   0  0  0  0  0  0
  -27.5579  -37.1809   24.8461 C   0  0  0  0  0  0
  -21.4202  -29.3056   22.3700 N   0  0  0  0  0  0
  -26.4270  -37.3797   23.9439 N   0  0  0  0  0  0
  -24.6862  -31.0610   22.0974 N   0  0  0  0  0  0
  -23.4197  -28.8154   23.3024 O   0  0  0  0  0  0
  -28.3674  -26.5006   20.1873 O   0  0  0  0  0  0
  -26.5605  -34.8921   22.4687 O   0  0  0  0  0  0
  -23.5427  -32.1382   23.7374 O   0  0  0  0  0  0
  -28.4373  -19.2744   20.4044 C   0  0  0  0  0  0
  -30.9347  -18.0507   20.7627 C   0  0  0  0  0  0
  -29.5381  -20.1340   20.6447 C   0  0  0  0  0  0
  -29.8061  -17.1960   20.5998 C   0  0  0  0  0  0
  -28.5674  -17.8577   20.3886 C   0  0  0  0  0  0
  -30.8045  -19.4845   20.7962 C   0  0  0  0  0  0
  -29.2920  -21.6277   20.9703 C   0  0  0  0  0  0
  -29.8742  -22.4203   18.6826 C   0  0  0  0  0  0
  -29.4389  -24.1337   20.4326 C   0  0  0  0  0  0
  -28.1949  -25.0394   20.0461 C   0  0  0  0  0  0
  -29.7597  -15.7321   20.7490 N   0  0  0  0  0  0
  -29.4388  -22.6568   20.0613 N   0  0  0  0  0  0
  -28.9370  -21.8736   22.1249 O   0  0  0  0  0  0
  -27.4584  -17.1045   20.2013 F   0  0  0  0  0  0
  -32.2240  -20.4282   21.0986 Cl  0  0  0  0  0  0
  -31.4876  -12.5260   19.1700 H   0  0  0  0  0  0
  -30.3614  -11.4288   19.9181 H   0  0  0  0  0  0
  -29.7905  -11.7465   17.5012 H   0  0  0  0  0  0
  -29.6468  -13.4727   17.7319 H   0  0  0  0  0  0
  -27.9143  -11.2786   18.9224 H   0  0  0  0  0  0
  -27.3747  -12.5046   17.8067 H   0  0  0  0  0  0
  -27.6585  -14.2502   19.5025 H   0  0  0  0  0  0
  -28.7223  -12.0778   21.3791 H   0  0  0  0  0  0
  -28.4405  -13.7332   21.8400 H   0  0  0  0  0  0
  -25.2732   -9.5670   22.4763 H   0  0  0  0  0  0
  -23.9983   -7.4621   22.7470 H   0  0  0  0  0  0
  -21.0826   -8.8759   19.8947 H   0  0  0  0  0  0
  -22.3676  -10.9656   19.6185 H   0  0  0  0  0  0
  -21.2002   -7.6131   23.9711 H   0  0  0  0  0  0
  -21.1497   -6.0505   25.9074 H   0  0  0  0  0  0
  -22.0590   -2.7594   23.2863 H   0  0  0  0  0  0
  -22.4071  -11.9947   22.4871 H   0  0  0  0  0  0
  -21.1079  -13.1298   22.2596 H   0  0  0  0  0  0
  -24.6431  -15.8307   20.5289 H   0  0  0  0  0  0
  -26.2801  -15.6620   20.1666 H   0  0  0  0  0  0
  -26.7184  -32.5441   23.1121 H   0  0  0  0  0  0
  -25.0104  -33.9711   25.0464 H   0  0  0  0  0  0
  -22.7123  -31.3018   21.4017 H   0  0  0  0  0  0
  -23.3731  -35.9664   23.3269 H   0  0  0  0  0  0
  -24.3574  -36.8974   22.2057 H   0  0  0  0  0  0
  -23.7224  -37.6520   23.6662 H   0  0  0  0  0  0
  -26.0729  -31.5435   20.5858 H   0  0  0  0  0  0
  -26.8443  -30.8552   21.9861 H   0  0  0  0  0  0
  -28.1045  -28.9932   21.2121 H   0  0  0  0  0  0
  -25.9936  -25.9295   19.0059 H   0  0  0  0  0  0
  -23.9927  -27.3039   18.9827 H   0  0  0  0  0  0
  -23.7566  -30.5915   19.4024 H   0  0  0  0  0  0
  -22.7538  -29.2446   19.8540 H   0  0  0  0  0  0
  -25.1249  -36.1955   25.0831 H   0  0  0  0  0  0
  -20.9957  -28.3260   24.1404 H   0  0  0  0  0  0
  -20.5649  -26.2324   23.3608 H   0  0  0  0  0  0
  -21.6645  -26.7438   22.1213 H   0  0  0  0  0  0
  -19.6918  -25.6286   21.1247 H   0  0  0  0  0  0
  -19.6680  -27.3172   20.6719 H   0  0  0  0  0  0
  -17.4197  -26.6665   21.4016 H   0  0  0  0  0  0
  -18.0341  -26.0052   22.9007 H   0  0  0  0  0  0
  -19.7950  -30.7247   24.2302 H   0  0  0  0  0  0
  -17.5029  -31.6272   24.5159 H   0  0  0  0  0  0
  -15.5357  -30.3010   23.7619 H   0  0  0  0  0  0
  -15.8658  -28.0799   22.7092 H   0  0  0  0  0  0
  -24.5948  -30.7010   25.7879 H   0  0  0  0  0  0
  -24.8951  -32.2836   26.4957 H   0  0  0  0  0  0
  -25.8146  -30.8890   27.0254 H   0  0  0  0  0  0
  -26.2843  -29.6797   24.1158 H   0  0  0  0  0  0
  -27.4059  -29.7211   25.4564 H   0  0  0  0  0  0
  -27.8701  -30.4323   23.9286 H   0  0  0  0  0  0
  -27.2674  -33.3586   26.2112 H   0  0  0  0  0  0
  -28.3886  -32.6866   25.0364 H   0  0  0  0  0  0
  -28.0723  -31.8410   26.5428 H   0  0  0  0  0  0
  -28.2569  -38.0130   24.7532 H   0  0  0  0  0  0
  -28.1094  -36.2664   24.6226 H   0  0  0  0  0  0
  -27.2321  -37.1406   25.8868 H   0  0  0  0  0  0
  -20.9397  -29.8826   21.6949 H   0  0  0  0  0  0
  -26.0153  -38.2873   24.1442 H   0  0  0  0  0  0
  -27.4539  -19.7080   20.2911 H   0  0  0  0  0  0
  -31.9083  -17.6130   20.9266 H   0  0  0  0  0  0
  -29.2204  -22.9486   17.9889 H   0  0  0  0  0  0
  -29.8611  -21.3717   18.3845 H   0  0  0  0  0  0
  -30.8941  -22.7825   18.5327 H   0  0  0  0  0  0
  -29.6117  -24.2392   21.5036 H   0  0  0  0  0  0
  -30.3210  -24.5882   19.9801 H   0  0  0  0  0  0
  -27.3466  -24.7246   20.6568 H   0  0  0  0  0  0
  -27.9262  -24.8337   19.0120 H   0  0  0  0  0  0
  -28.8292  -15.4018   20.9608 H   0  0  0  0  0  0
  1 25  1  0  0  0
  1 30  2  0  0  0
  1 81  1  0  0  0
  2  3  1  0  0  0
  2 25  1  0  0  0
  2 86  1  0  0  0
  2 87  1  0  0  0
  3  4  1  0  0  0
  3 88  1  0  0  0
  3 89  1  0  0  0
  4  5  1  0  0  0
  4 90  1  0  0  0
  4 91  1  0  0  0
  5  6  1  0  0  0
  5 26  1  0  0  0
  5 92  1  0  0  0
  6 25  1  0  0  0
  6 93  1  0  0  0
  6 94  1  0  0  0
  7  8  2  0  0  0
  7 26  1  0  0  0
  7 29  1  0  0  0
  8  9  1  0  0  0
  8 22  1  0  0  0
  9 10  1  0  0  0
  9 27  2  0  0  0
 10 11  2  0  0  0
 10 15  1  0  0  0
 11 12  1  0  0  0
 11 95  1  0  0  0
 12 13  2  0  0  0
 12 96  1  0  0  0
 13 14  1  0  0  0
 13 31  1  0  0  0
 14 15  2  0  0  0
 14 97  1  0  0  0
 15 98  1  0  0  0
 16 17  2  0  0  0
 16 21  1  0  0  0
 16 31  1  0  0  0
 17 18  1  0  0  0
 17 99  1  0  0  0
 18 19  2  0  0  0
 18100  1  0  0  0
 19 20  1  0  0  0
 19 24  1  0  0  0
 20 21  2  0  0  0
 20101  1  0  0  0
 21 23  1  0  0  0
 22 28  1  0  0  0
 22 32  2  0  0  0
 26 27  1  0  0  0
 28102  1  0  0  0
 28103  1  0  0  0
 29104  1  0  0  0
 29105  1  0  0  0
 33 34  1  0  0  0
 33 66  1  0  0  0
 33 70  2  0  0  0
 34 36  1  0  0  0
 34 59  1  0  0  0
 34106  1  0  0  0
 35 44  2  0  0  0
 35 45  1  0  0  0
 35 68  1  0  0  0
 36 56  1  0  0  0
 36107  1  0  0  0
 37 39  1  0  0  0
 37 47  1  0  0  0
 37 66  1  0  0  0
 37108  1  0  0  0
 38 43  2  0  0  0
 38 46  1  0  0  0
 38 47  1  0  0  0
 39 64  1  0  0  0
 39 67  2  0  0  0
 40 52  1  0  0  0
 40 53  2  0  0  0
 40 58  1  0  0  0
 41109  1  0  0  0
 41110  1  0  0  0
 41111  1  0  0  0
 41 48  1  0  0  0
 42 43  1  0  0  0
 42 66  1  0  0  0
 42112  1  0  0  0
 42113  1  0  0  0
 43 44  1  0  0  0
 44114  1  0  0  0
 45 46  2  0  0  0
 45115  1  0  0  0
 46116  1  0  0  0
 47117  1  0  0  0
 47118  1  0  0  0
 48 56  1  0  0  0
 48 65  1  0  0  0
 48119  1  0  0  0
 49 50  1  0  0  0
 49 53  1  0  0  0
 49 64  1  0  0  0
 49120  1  0  0  0
 50 51  1  0  0  0
 50121  1  0  0  0
 50122  1  0  0  0
 51 52  1  0  0  0
 51123  1  0  0  0
 51124  1  0  0  0
 52125  1  0  0  0
 52126  1  0  0  0
 53 54  1  0  0  0
 54 55  2  0  0  0
 54127  1  0  0  0
 55 57  1  0  0  0
 55128  1  0  0  0
 56 69  2  0  0  0
 57 58  2  0  0  0
 57129  1  0  0  0
 58130  1  0  0  0
 59 60  1  0  0  0
 59 61  1  0  0  0
 59 62  1  0  0  0
 60131  1  0  0  0
 60132  1  0  0  0
 60133  1  0  0  0
 61134  1  0  0  0
 61135  1  0  0  0
 61136  1  0  0  0
 62137  1  0  0  0
 62138  1  0  0  0
 62139  1  0  0  0
 63 65  1  0  0  0
 63140  1  0  0  0
 63141  1  0  0  0
 63142  1  0  0  0
 64143  1  0  0  0
 65144  1  0  0  0
 68 80  1  0  0  0
 71 73  2  0  0  0
 71 75  1  0  0  0
 71145  1  0  0  0
 72 74  1  0  0  0
 72 76  2  0  0  0
 72146  1  0  0  0
 73 76  1  0  0  0
 73 77  1  0  0  0
 74 75  2  0  0  0
 74 81  1  0  0  0
 75 84  1  0  0  0
 76 85  1  0  0  0
 77 82  1  0  0  0
 77 83  2  0  0  0
 78 82  1  0  0  0
 78147  1  0  0  0
 78148  1  0  0  0
 78149  1  0  0  0
 79 80  1  0  0  0
 79 82  1  0  0  0
 79150  1  0  0  0
 79151  1  0  0  0
 80152  1  0  0  0
 80153  1  0  0  0
 81154  1  0  0  0
M  ISO  4   1 100  68 101  80 101  81 100
M  END
> <chiral flag>
0

> <version>
0

> <s_m_source_file>
/data/baiqing/PycharmProjects/Reinvent-master-3.2/result/LINK_invent/BTK/process_docking_weight1_custom_sum_contain_oxygen_bond_distance_aromatic_linkinvent_7_9_3/rearranged_h_0015.sdf

> <i_m_source_file_index>
10

> <r_mmod_Potential_Energy-OPLS-2005>
67.5472259521484

> <r_mmod_Stretch_Energy-OPLS-2005>
84.4087066650391

> <r_mmod_Bend_Energy-OPLS-2005>
151.848434448242

> <r_mmod_Torsional_Energy-OPLS-2005>
275.162719726562

> <r_mmod_Improper_Torsional_Energy-OPLS-2005>
6.89191675186157

> <r_mmod_Van_der_Waal_Energy-OPLS-2005>
141.888305664062

> <r_mmod_Electrostatic_Energy-OPLS-2005>
-432.847839355469

> <r_mmod_Solvation_Energy-OPLS-2005>
-216.483871459961

> <b_mmod_Minimization_Converged-OPLS-2005>
0

> <r_mmod_RMS_Derivative-OPLS-2005>
4.08338212966919

$$$$
10
                    3D
 Structure written by MMmdl.
157165  0  0  1  0            999 V2000
  -30.4010  -15.3621   20.2710 C   0  0  0  0  0  0
  -30.4494  -12.8606   19.5093 C   0  0  0  0  0  0
  -29.5438  -12.5228   18.2954 C   0  0  0  0  0  0
  -28.1028  -12.2136   18.7466 C   0  0  0  0  0  0
  -27.5996  -13.2129   19.8103 C   0  0  2  0  0  0
  -28.6419  -13.5093   20.9165 C   0  0  0  0  0  0
  -25.2433  -13.8039   20.5841 C   0  0  0  0  0  0
  -24.1719  -13.0319   20.9295 C   0  0  0  0  0  0
  -24.6313  -11.6803   20.8813 C   0  0  0  0  0  0
  -23.9003  -10.4217   21.0446 C   0  0  0  0  0  0
  -24.3578   -9.4138   21.9211 C   0  0  0  0  0  0
  -23.6259   -8.2177   22.0761 C   0  0  0  0  0  0
  -22.4242   -8.0234   21.3542 C   0  0  0  0  0  0
  -21.9871   -9.0205   20.4646 C   0  0  0  0  0  0
  -22.7193  -10.2082   20.3070 C   0  0  0  0  0  0
  -21.6831   -6.0713   22.5281 C   0  0  0  0  0  0
  -21.4001   -6.5625   23.8213 C   0  0  0  0  0  0
  -21.3655   -5.6783   24.9178 C   0  0  0  0  0  0
  -21.6042   -4.3046   24.7231 C   0  0  0  0  0  0
  -21.8818   -3.8134   23.4355 C   0  0  0  0  0  0
  -21.9184   -4.6945   22.3408 C   0  0  0  0  0  0
  -22.7755  -13.5151   21.1915 C   0  0  0  0  0  0
  -22.1657   -4.2134   21.0984 F   0  0  0  0  0  0
  -21.5630   -3.4533   25.7747 F   0  0  0  0  0  0
  -29.8581  -14.0307   20.2575 N   0  0  0  0  0  0
  -26.2782  -12.9170   20.3311 N   0  0  0  0  0  0
  -25.9227  -11.6353   20.5801 N   0  0  0  0  0  0
  -22.0381  -12.8170   22.0471 N   0  0  0  0  0  0
  -25.4101  -15.1777   20.4367 N   0  0  0  0  0  0
  -31.6417  -15.3503   20.2568 O   0  0  0  0  0  0
  -21.6604   -6.8842   21.4239 O   0  0  0  0  0  0
  -22.3475  -14.5464   20.6742 O   0  0  0  0  0  0
  -24.6628  -31.8225   23.1684 C   0  0  0  0  0  0
  -25.9306  -32.4582   23.8160 C   0  0  1  0  0  0
  -27.2390  -26.9334   20.1848 C   0  0  0  0  0  0
  -25.5967  -33.8397   24.2068 N   0  0  0  0  0  0
  -23.4791  -30.4310   21.5164 C   0  0  2  0  0  0
  -24.9372  -28.8151   20.1105 C   0  0  0  0  0  0
  -22.7671  -29.4428   22.4770 C   0  0  0  0  0  0
  -18.0322  -28.1408   22.8463 C   0  0  0  0  0  0
  -24.1491  -36.7210   23.2651 C   0  0  0  0  0  0
  -26.0467  -30.6304   21.3983 C   0  0  0  0  0  0
  -26.1177  -29.2192   20.7451 C   0  0  0  0  0  0
  -27.2589  -28.2988   20.7591 C   0  0  0  0  0  0
  -26.0300  -26.6793   19.4973 C   0  0  0  0  0  0
  -24.9184  -27.5651   19.4666 C   0  0  0  0  0  0
  -23.7207  -29.7415   20.1438 C   0  0  0  0  0  0
  -25.4132  -36.2965   24.0301 C   0  0  1  0  0  0
  -20.5947  -28.3752   23.1186 C   0  0  2  0  0  0
  -20.6796  -26.9430   22.5406 C   0  0  0  0  0  0
  -19.5771  -26.6372   21.5216 C   0  0  0  0  0  0
  -18.1953  -26.7939   22.1624 C   0  0  0  0  0  0
  -19.1584  -28.8901   23.2812 C   0  0  0  0  0  0
  -18.9495  -30.1490   23.8850 C   0  0  0  0  0  0
  -17.6488  -30.6596   24.0555 C   0  0  0  0  0  0
  -25.9095  -34.9348   23.5009 C   0  0  0  0  0  0
  -16.5379  -29.9086   23.6340 C   0  0  0  0  0  0
  -16.7305  -28.6507   23.0358 C   0  0  0  0  0  0
  -26.4555  -31.6529   25.0693 C   0  0  0  0  0  0
  -25.3680  -31.3786   26.1350 C   0  0  0  0  0  0
  -27.0457  -30.2896   24.6428 C   0  0  0  0  0  0
  -27.6040  -32.4343   25.7501 C   0  0  0  0  0  0
  -27.5566  -37.1766   24.8469 C   0  0  0  0  0  0
  -21.4338  -29.3040   22.3530 N   0  0  0  0  0  0
  -26.4279  -37.3700   23.9403 N   0  0  0  0  0  0
  -24.7505  -30.9887   22.0815 N   0  0  0  0  0  0
  -23.4216  -28.8010   23.3024 O   0  0  0  0  0  0
  -28.2619  -25.8499   20.2960 O   0  0  0  0  0  0
  -26.5711  -34.8885   22.4608 O   0  0  0  0  0  0
  -23.5697  -32.1192   23.6775 O   0  0  0  0  0  0
  -29.4681  -19.8386   20.6012 C   0  0  0  0  0  0
  -30.4860  -23.1748   20.6803 C   0  0  0  0  0  0
  -28.4143  -17.3628   17.9490 C   0  0  0  0  0  0
  -28.5636  -18.5867   18.7670 C   0  0  0  0  0  0
  -28.6534  -16.2429   18.9321 C   0  0  0  0  0  0
  -29.7241  -18.3220   19.7481 C   0  0  2  0  0  0
  -31.9867  -24.6225   21.8372 C   0  0  0  0  0  0
  -28.1700  -24.2256   19.9768 C   0  0  0  0  0  0
  -29.0105  -22.7575   20.6253 C   0  0  1  0  0  0
  -29.6146  -16.6249   19.9906 N   0  0  0  0  0  0
  -29.0415  -21.1698   20.0846 N   0  0  0  0  0  0
  -29.7203  -19.7896   21.8050 O   0  0  0  0  0  0
  -31.3659  -22.7346   19.9319 O   0  0  0  0  0  0
  -30.6857  -24.0928   21.6390 O   0  0  0  0  0  0
  -31.4540  -13.0960   19.1546 H   0  0  0  0  0  0
  -30.5619  -11.9958   20.1655 H   0  0  0  0  0  0
  -29.9504  -11.6690   17.7515 H   0  0  0  0  0  0
  -29.5452  -13.3517   17.5879 H   0  0  0  0  0  0
  -28.0982  -11.2081   19.1691 H   0  0  0  0  0  0
  -27.4288  -12.1867   17.8894 H   0  0  0  0  0  0
  -27.4289  -14.0892   19.2122 H   0  0  0  0  0  0
  -28.8504  -12.6220   21.5155 H   0  0  0  0  0  0
  -28.2560  -14.2644   21.6028 H   0  0  0  0  0  0
  -25.2722   -9.5618   22.4787 H   0  0  0  0  0  0
  -23.9964   -7.4561   22.7473 H   0  0  0  0  0  0
  -21.0800   -8.8721   19.8958 H   0  0  0  0  0  0
  -22.3659  -10.9626   19.6183 H   0  0  0  0  0  0
  -21.1996   -7.6136   23.9712 H   0  0  0  0  0  0
  -21.1479   -6.0518   25.9080 H   0  0  0  0  0  0
  -22.0608   -2.7597   23.2857 H   0  0  0  0  0  0
  -22.3987  -11.9842   22.4885 H   0  0  0  0  0  0
  -21.1003  -13.1212   22.2672 H   0  0  0  0  0  0
  -24.6486  -15.8304   20.5850 H   0  0  0  0  0  0
  -26.2767  -15.6317   20.1849 H   0  0  0  0  0  0
  -26.7381  -32.5125   23.0884 H   0  0  0  0  0  0
  -25.0052  -33.9468   25.0177 H   0  0  0  0  0  0
  -22.7927  -31.2623   21.3422 H   0  0  0  0  0  0
  -23.3754  -35.9541   23.3298 H   0  0  0  0  0  0
  -24.3566  -36.8870   22.2068 H   0  0  0  0  0  0
  -23.7253  -37.6398   23.6715 H   0  0  0  0  0  0
  -26.2252  -31.3702   20.6167 H   0  0  0  0  0  0
  -26.9075  -30.6908   22.0524 H   0  0  0  0  0  0
  -28.1499  -28.6063   21.2883 H   0  0  0  0  0  0
  -25.9122  -25.7243   19.0060 H   0  0  0  0  0  0
  -24.0225  -27.2492   18.9501 H   0  0  0  0  0  0
  -23.8757  -30.5083   19.3840 H   0  0  0  0  0  0
  -22.8315  -29.1941   19.8264 H   0  0  0  0  0  0
  -25.1332  -36.1765   25.0792 H   0  0  0  0  0  0
  -21.0037  -28.3363   24.1309 H   0  0  0  0  0  0
  -20.5666  -26.2373   23.3650 H   0  0  0  0  0  0
  -21.6661  -26.7395   22.1221 H   0  0  0  0  0  0
  -19.6928  -25.6269   21.1281 H   0  0  0  0  0  0
  -19.6711  -27.3153   20.6722 H   0  0  0  0  0  0
  -17.4220  -26.6676   21.4030 H   0  0  0  0  0  0
  -18.0349  -26.0097   22.9036 H   0  0  0  0  0  0
  -19.7971  -30.7317   24.2200 H   0  0  0  0  0  0
  -17.5039  -31.6270   24.5171 H   0  0  0  0  0  0
  -15.5376  -30.2975   23.7687 H   0  0  0  0  0  0
  -15.8705  -28.0812   22.7097 H   0  0  0  0  0  0
  -24.5867  -30.7130   25.7662 H   0  0  0  0  0  0
  -24.8864  -32.2990   26.4659 H   0  0  0  0  0  0
  -25.7909  -30.9029   27.0206 H   0  0  0  0  0  0
  -26.3124  -29.6565   24.1419 H   0  0  0  0  0  0
  -27.3971  -29.7270   25.5088 H   0  0  0  0  0  0
  -27.9070  -30.4079   23.9852 H   0  0  0  0  0  0
  -27.2599  -33.3681   26.1960 H   0  0  0  0  0  0
  -28.3915  -32.6844   25.0379 H   0  0  0  0  0  0
  -28.0637  -31.8550   26.5519 H   0  0  0  0  0  0
  -28.2576  -38.0065   24.7486 H   0  0  0  0  0  0
  -28.1064  -36.2589   24.6327 H   0  0  0  0  0  0
  -27.2279  -37.1450   25.8871 H   0  0  0  0  0  0
  -20.9595  -29.8729   21.6655 H   0  0  0  0  0  0
  -26.0127  -38.2761   24.1391 H   0  0  0  0  0  0
  -29.1793  -17.3440   17.1705 H   0  0  0  0  0  0
  -27.4413  -17.2956   17.4590 H   0  0  0  0  0  0
  -27.6211  -18.7508   19.2968 H   0  0  0  0  0  0
  -28.7347  -19.4437   18.1128 H   0  0  0  0  0  0
  -28.9086  -15.3689   18.3327 H   0  0  0  0  0  0
  -27.7099  -16.0864   19.4442 H   0  0  0  0  0  0
  -30.6723  -18.4536   19.2249 H   0  0  0  0  0  0
  -31.9761  -25.3420   22.6560 H   0  0  0  0  0  0
  -32.3411  -25.1339   20.9410 H   0  0  0  0  0  0
  -32.6950  -23.8323   22.0898 H   0  0  0  0  0  0
  -27.1116  -23.9971   20.0972 H   0  0  0  0  0  0
  -28.3243  -24.1807   18.8988 H   0  0  0  0  0  0
  -28.6690  -22.6689   21.6566 H   0  0  0  0  0  0
  -28.8385  -21.1292   19.0957 H   0  0  0  0  0  0
  1 25  1  0  0  0
  1 30  2  0  0  0
  1 80  1  0  0  0
  2  3  1  0  0  0
  2 25  1  0  0  0
  2 85  1  0  0  0
  2 86  1  0  0  0
  3  4  1  0  0  0
  3 87  1  0  0  0
  3 88  1  0  0  0
  4  5  1  0  0  0
  4 89  1  0  0  0
  4 90  1  0  0  0
  5  6  1  0  0  0
  5 26  1  0  0  0
  5 91  1  0  0  0
  6 25  1  0  0  0
  6 92  1  0  0  0
  6 93  1  0  0  0
  7  8  2  0  0  0
  7 26  1  0  0  0
  7 29  1  0  0  0
  8  9  1  0  0  0
  8 22  1  0  0  0
  9 10  1  0  0  0
  9 27  2  0  0  0
 10 11  2  0  0  0
 10 15  1  0  0  0
 11 12  1  0  0  0
 11 94  1  0  0  0
 12 13  2  0  0  0
 12 95  1  0  0  0
 13 14  1  0  0  0
 13 31  1  0  0  0
 14 15  2  0  0  0
 14 96  1  0  0  0
 15 97  1  0  0  0
 16 17  2  0  0  0
 16 21  1  0  0  0
 16 31  1  0  0  0
 17 18  1  0  0  0
 17 98  1  0  0  0
 18 19  2  0  0  0
 18 99  1  0  0  0
 19 20  1  0  0  0
 19 24  1  0  0  0
 20 21  2  0  0  0
 20100  1  0  0  0
 21 23  1  0  0  0
 22 28  1  0  0  0
 22 32  2  0  0  0
 26 27  1  0  0  0
 28101  1  0  0  0
 28102  1  0  0  0
 29103  1  0  0  0
 29104  1  0  0  0
 33 34  1  0  0  0
 33 66  1  0  0  0
 33 70  2  0  0  0
 34 36  1  0  0  0
 34 59  1  0  0  0
 34105  1  0  0  0
 35 44  2  0  0  0
 35 45  1  0  0  0
 35 68  1  0  0  0
 36 56  1  0  0  0
 36106  1  0  0  0
 37 39  1  0  0  0
 37 47  1  0  0  0
 37 66  1  0  0  0
 37107  1  0  0  0
 38 43  2  0  0  0
 38 46  1  0  0  0
 38 47  1  0  0  0
 39 64  1  0  0  0
 39 67  2  0  0  0
 40 52  1  0  0  0
 40 53  2  0  0  0
 40 58  1  0  0  0
 41108  1  0  0  0
 41109  1  0  0  0
 41110  1  0  0  0
 41 48  1  0  0  0
 42 43  1  0  0  0
 42 66  1  0  0  0
 42111  1  0  0  0
 42112  1  0  0  0
 43 44  1  0  0  0
 44113  1  0  0  0
 45 46  2  0  0  0
 45114  1  0  0  0
 46115  1  0  0  0
 47116  1  0  0  0
 47117  1  0  0  0
 48 56  1  0  0  0
 48 65  1  0  0  0
 48118  1  0  0  0
 49 50  1  0  0  0
 49 53  1  0  0  0
 49 64  1  0  0  0
 49119  1  0  0  0
 50 51  1  0  0  0
 50120  1  0  0  0
 50121  1  0  0  0
 51 52  1  0  0  0
 51122  1  0  0  0
 51123  1  0  0  0
 52124  1  0  0  0
 52125  1  0  0  0
 53 54  1  0  0  0
 54 55  2  0  0  0
 54126  1  0  0  0
 55 57  1  0  0  0
 55127  1  0  0  0
 56 69  2  0  0  0
 57 58  2  0  0  0
 57128  1  0  0  0
 58129  1  0  0  0
 59 60  1  0  0  0
 59 61  1  0  0  0
 59 62  1  0  0  0
 60130  1  0  0  0
 60131  1  0  0  0
 60132  1  0  0  0
 61133  1  0  0  0
 61134  1  0  0  0
 61135  1  0  0  0
 62136  1  0  0  0
 62137  1  0  0  0
 62138  1  0  0  0
 63 65  1  0  0  0
 63139  1  0  0  0
 63140  1  0  0  0
 63141  1  0  0  0
 64142  1  0  0  0
 65143  1  0  0  0
 68 78  1  0  0  0
 71 81  1  0  0  0
 71 82  2  0  0  0
 71 76  1  0  0  0
 72 79  1  0  0  0
 72 83  2  0  0  0
 72 84  1  0  0  0
 73 74  1  0  0  0
 73 75  1  0  0  0
 73144  1  0  0  0
 73145  1  0  0  0
 74 76  1  0  0  0
 74146  1  0  0  0
 74147  1  0  0  0
 75 80  1  0  0  0
 75148  1  0  0  0
 75149  1  0  0  0
 76 80  1  0  0  0
 76150  1  0  0  0
 77 84  1  0  0  0
 77151  1  0  0  0
 77152  1  0  0  0
 77153  1  0  0  0
 78154  1  0  0  0
 78155  1  0  0  0
 78 79  1  0  0  0
 79 81  1  0  0  0
 79156  1  0  0  0
 81157  1  0  0  0
M  ISO  4   1 100  68 101  78 101  80 100
M  END
> <chiral flag>
0

> <version>
0

> <s_m_source_file>
/data/baiqing/PycharmProjects/Reinvent-master-3.2/result/LINK_invent/BTK/process_docking_weight1_custom_sum_contain_oxygen_bond_distance_aromatic_linkinvent_7_9_3/rearranged_h_0015.sdf

> <i_m_source_file_index>
11

> <r_mmod_Potential_Energy-OPLS-2005>
1449.74890136719

> <r_mmod_Stretch_Energy-OPLS-2005>
659.849975585938

> <r_mmod_Bend_Energy-OPLS-2005>
537.002258300781

> <r_mmod_Torsional_Energy-OPLS-2005>
280.961975097656

> <r_mmod_Improper_Torsional_Energy-OPLS-2005>
12.2257232666016

> <r_mmod_Van_der_Waal_Energy-OPLS-2005>
127.759628295898

> <r_mmod_Electrostatic_Energy-OPLS-2005>
-437.141693115234

> <r_mmod_Solvation_Energy-OPLS-2005>
-257.681701660156

> <b_mmod_Minimization_Converged-OPLS-2005>
0

> <r_mmod_RMS_Derivative-OPLS-2005>
0.771433770656586

$$$$
11
                    3D
 Structure written by MMmdl.
167175  0  0  1  0            999 V2000
  -30.4206  -15.3660   20.3548 C   0  0  0  0  0  0
  -30.4305  -12.8905   19.4982 C   0  0  0  0  0  0
  -29.5321  -12.5957   18.2704 C   0  0  0  0  0  0
  -28.0797  -12.3144   18.6951 C   0  0  0  0  0  0
  -27.6005  -13.2834   19.8068 C   0  0  2  0  0  0
  -28.6446  -13.4659   20.9301 C   0  0  0  0  0  0
  -25.2249  -13.8222   20.5672 C   0  0  0  0  0  0
  -24.1661  -13.0384   20.9236 C   0  0  0  0  0  0
  -24.6373  -11.6900   20.8735 C   0  0  0  0  0  0
  -23.9066  -10.4262   21.0369 C   0  0  0  0  0  0
  -24.3617   -9.4191   21.9156 C   0  0  0  0  0  0
  -23.6287   -8.2220   22.0740 C   0  0  0  0  0  0
  -22.4274   -8.0244   21.3530 C   0  0  0  0  0  0
  -21.9902   -9.0213   20.4637 C   0  0  0  0  0  0
  -22.7224  -10.2093   20.3030 C   0  0  0  0  0  0
  -21.6847   -6.0693   22.5258 C   0  0  0  0  0  0
  -21.4008   -6.5615   23.8187 C   0  0  0  0  0  0
  -21.3670   -5.6780   24.9161 C   0  0  0  0  0  0
  -21.6059   -4.3041   24.7208 C   0  0  0  0  0  0
  -21.8821   -3.8112   23.4336 C   0  0  0  0  0  0
  -21.9192   -4.6925   22.3385 C   0  0  0  0  0  0
  -22.7672  -13.5109   21.1882 C   0  0  0  0  0  0
  -22.1665   -4.2109   21.0961 F   0  0  0  0  0  0
  -21.5645   -3.4536   25.7724 F   0  0  0  0  0  0
  -29.8398  -14.0480   20.2832 N   0  0  0  0  0  0
  -26.2737  -12.9556   20.3149 N   0  0  0  0  0  0
  -25.9325  -11.6649   20.5684 N   0  0  0  0  0  0
  -22.0339  -12.8135   22.0484 N   0  0  0  0  0  0
  -25.3687  -15.1955   20.4036 N   0  0  0  0  0  0
  -31.6529  -15.2713   20.2146 O   0  0  0  0  0  0
  -21.6636   -6.8836   21.4220 O   0  0  0  0  0  0
  -22.3319  -14.5363   20.6659 O   0  0  0  0  0  0
  -24.6680  -31.8174   23.1653 C   0  0  0  0  0  0
  -25.9339  -32.4551   23.8129 C   0  0  1  0  0  0
  -27.2147  -26.8664   20.1975 C   0  0  0  0  0  0
  -25.5987  -33.8366   24.2033 N   0  0  0  0  0  0
  -23.4848  -30.4273   21.5175 C   0  0  2  0  0  0
  -24.9321  -28.7917   20.1235 C   0  0  0  0  0  0
  -22.7676  -29.4425   22.4784 C   0  0  0  0  0  0
  -18.0332  -28.1405   22.8475 C   0  0  0  0  0  0
  -24.1494  -36.7191   23.2649 C   0  0  0  0  0  0
  -26.0564  -30.6028   21.4023 C   0  0  0  0  0  0
  -26.1201  -29.1830   20.7552 C   0  0  0  0  0  0
  -27.2562  -28.2454   20.7591 C   0  0  0  0  0  0
  -25.9942  -26.6354   19.5263 C   0  0  0  0  0  0
  -24.8957  -27.5386   19.4909 C   0  0  0  0  0  0
  -23.7246  -29.7317   20.1487 C   0  0  0  0  0  0
  -25.4131  -36.2939   24.0294 C   0  0  1  0  0  0
  -20.5954  -28.3753   23.1181 C   0  0  2  0  0  0
  -20.6804  -26.9432   22.5402 C   0  0  0  0  0  0
  -19.5774  -26.6371   21.5219 C   0  0  0  0  0  0
  -18.1960  -26.7941   22.1630 C   0  0  0  0  0  0
  -19.1594  -28.8905   23.2812 C   0  0  0  0  0  0
  -18.9500  -30.1493   23.8838 C   0  0  0  0  0  0
  -17.6492  -30.6596   24.0554 C   0  0  0  0  0  0
  -25.9102  -34.9328   23.4996 C   0  0  0  0  0  0
  -16.5385  -29.9076   23.6356 C   0  0  0  0  0  0
  -16.7312  -28.6499   23.0372 C   0  0  0  0  0  0
  -26.4573  -31.6524   25.0687 C   0  0  0  0  0  0
  -25.3693  -31.3797   26.1343 C   0  0  0  0  0  0
  -27.0483  -30.2889   24.6462 C   0  0  0  0  0  0
  -27.6050  -32.4347   25.7505 C   0  0  0  0  0  0
  -27.5566  -37.1746   24.8459 C   0  0  0  0  0  0
  -21.4346  -29.3037   22.3520 N   0  0  0  0  0  0
  -26.4265  -37.3683   23.9419 N   0  0  0  0  0  0
  -24.7585  -30.9788   22.0814 N   0  0  0  0  0  0
  -23.4187  -28.8018   23.3057 O   0  0  0  0  0  0
  -28.2392  -25.7641   20.1814 O   0  0  0  0  0  0
  -26.5716  -34.8878   22.4591 O   0  0  0  0  0  0
  -23.5737  -32.1166   23.6730 O   0  0  0  0  0  0
  -31.2686  -17.9358   18.9648 C   0  0  0  0  0  0
  -31.1423  -20.5623   19.7465 C   0  0  0  0  0  0
  -32.2381  -18.8294   18.4990 C   0  0  0  0  0  0
  -32.2382  -20.1314   18.9936 C   0  0  0  0  0  0
  -30.2206  -18.2250   19.8842 C   0  0  0  0  0  0
  -29.9613  -19.8223   20.0122 C   0  0  0  0  0  0
  -33.2986  -18.3553   17.5214 C   0  0  0  0  0  0
  -33.3592  -21.1016   18.6598 C   0  0  0  0  0  0
  -28.5224  -17.0004   22.5026 C   0  0  0  0  0  0
  -29.6574  -22.9404   18.6531 C   0  0  0  0  0  0
  -27.8788  -20.4656   21.2136 C   0  0  0  0  0  0
  -28.4127  -16.8147   20.9831 C   0  0  0  0  0  0
  -28.1312  -24.1207   20.5194 C   0  0  0  0  0  0
  -28.6946  -22.5389   19.7816 C   0  0  2  0  0  0
  -29.7236  -16.7325   20.3533 N   0  0  0  0  0  0
  -28.9460  -20.9681   20.3658 N   0  0  0  0  0  0
  -31.4369  -13.1177   19.1426 H   0  0  0  0  0  0
  -30.5389  -11.9990   20.1193 H   0  0  0  0  0  0
  -29.9270  -11.7566   17.6962 H   0  0  0  0  0  0
  -29.5546  -13.4508   17.5938 H   0  0  0  0  0  0
  -28.0322  -11.2858   19.0549 H   0  0  0  0  0  0
  -27.4173  -12.3649   17.8307 H   0  0  0  0  0  0
  -27.5007  -14.2429   19.2965 H   0  0  0  0  0  0
  -28.8522  -12.5160   21.4256 H   0  0  0  0  0  0
  -28.2756  -14.1215   21.7154 H   0  0  0  0  0  0
  -25.2765   -9.5681   22.4728 H   0  0  0  0  0  0
  -23.9989   -7.4623   22.7481 H   0  0  0  0  0  0
  -21.0824   -8.8712   19.8968 H   0  0  0  0  0  0
  -22.3653  -10.9612   19.6128 H   0  0  0  0  0  0
  -21.1997   -7.6123   23.9670 H   0  0  0  0  0  0
  -21.1506   -6.0521   25.9067 H   0  0  0  0  0  0
  -22.0596   -2.7573   23.2833 H   0  0  0  0  0  0
  -22.3980  -11.9888   22.5001 H   0  0  0  0  0  0
  -21.0930  -13.1146   22.2577 H   0  0  0  0  0  0
  -24.5988  -15.8416   20.5456 H   0  0  0  0  0  0
  -26.2125  -15.6475   20.0823 H   0  0  0  0  0  0
  -26.7413  -32.5066   23.0833 H   0  0  0  0  0  0
  -25.0088  -33.9423   25.0160 H   0  0  0  0  0  0
  -22.8030  -31.2614   21.3411 H   0  0  0  0  0  0
  -23.3771  -35.9506   23.3257 H   0  0  0  0  0  0
  -24.3583  -36.8894   22.2078 H   0  0  0  0  0  0
  -23.7235  -37.6357   23.6743 H   0  0  0  0  0  0
  -26.2375  -31.3330   20.6125 H   0  0  0  0  0  0
  -26.9169  -30.6666   22.0572 H   0  0  0  0  0  0
  -28.1631  -28.5508   21.2622 H   0  0  0  0  0  0
  -25.8641  -25.6835   19.0297 H   0  0  0  0  0  0
  -23.9922  -27.2307   18.9817 H   0  0  0  0  0  0
  -23.8897  -30.4933   19.3857 H   0  0  0  0  0  0
  -22.8301  -29.1905   19.8350 H   0  0  0  0  0  0
  -25.1336  -36.1721   25.0784 H   0  0  0  0  0  0
  -21.0052  -28.3367   24.1302 H   0  0  0  0  0  0
  -20.5691  -26.2374   23.3644 H   0  0  0  0  0  0
  -21.6664  -26.7403   22.1209 H   0  0  0  0  0  0
  -19.6928  -25.6267   21.1284 H   0  0  0  0  0  0
  -19.6718  -27.3150   20.6726 H   0  0  0  0  0  0
  -17.4234  -26.6697   21.4027 H   0  0  0  0  0  0
  -18.0347  -26.0084   22.9030 H   0  0  0  0  0  0
  -19.7975  -30.7332   24.2167 H   0  0  0  0  0  0
  -17.5049  -31.6277   24.5153 H   0  0  0  0  0  0
  -15.5381  -30.2958   23.7712 H   0  0  0  0  0  0
  -15.8719  -28.0796   22.7111 H   0  0  0  0  0  0
  -24.5837  -30.7196   25.7650 H   0  0  0  0  0  0
  -24.8920  -32.3010   26.4690 H   0  0  0  0  0  0
  -25.7897  -30.8992   27.0182 H   0  0  0  0  0  0
  -26.3163  -29.6553   24.1437 H   0  0  0  0  0  0
  -27.3972  -29.7272   25.5138 H   0  0  0  0  0  0
  -27.9120  -30.4076   23.9914 H   0  0  0  0  0  0
  -27.2598  -33.3682   26.1960 H   0  0  0  0  0  0
  -28.3927  -32.6850   25.0391 H   0  0  0  0  0  0
  -28.0645  -31.8555   26.5525 H   0  0  0  0  0  0
  -28.2539  -38.0081   24.7530 H   0  0  0  0  0  0
  -28.1102  -36.2610   24.6249 H   0  0  0  0  0  0
  -27.2293  -37.1341   25.8859 H   0  0  0  0  0  0
  -20.9600  -29.8700   21.6622 H   0  0  0  0  0  0
  -26.0106  -38.2736   24.1439 H   0  0  0  0  0  0
  -31.3868  -16.9408   18.5708 H   0  0  0  0  0  0
  -31.2070  -21.5787   20.0967 H   0  0  0  0  0  0
  -33.2939  -17.2706   17.4103 H   0  0  0  0  0  0
  -34.2943  -18.6471   17.8512 H   0  0  0  0  0  0
  -33.1245  -18.7959   16.5391 H   0  0  0  0  0  0
  -33.1496  -22.1080   19.0248 H   0  0  0  0  0  0
  -33.4949  -21.1686   17.5795 H   0  0  0  0  0  0
  -34.2990  -20.7752   19.1060 H   0  0  0  0  0  0
  -27.5857  -17.3724   22.9197 H   0  0  0  0  0  0
  -29.3014  -17.7190   22.7577 H   0  0  0  0  0  0
  -28.7584  -16.0623   23.0048 H   0  0  0  0  0  0
  -29.2191  -23.7537   18.0720 H   0  0  0  0  0  0
  -29.8386  -22.1228   17.9534 H   0  0  0  0  0  0
  -30.6081  -23.3152   19.0296 H   0  0  0  0  0  0
  -28.2990  -20.0246   22.1179 H   0  0  0  0  0  0
  -27.2820  -19.7148   20.6972 H   0  0  0  0  0  0
  -27.2067  -21.2706   21.5126 H   0  0  0  0  0  0
  -27.8838  -17.6615   20.5505 H   0  0  0  0  0  0
  -27.7896  -15.9685   20.7313 H   0  0  0  0  0  0
  -28.5778  -24.0863   21.5118 H   0  0  0  0  0  0
  -27.0715  -23.9632   20.7242 H   0  0  0  0  0  0
  -27.8028  -22.3127   19.1945 H   0  0  0  0  0  0
  1 25  1  0  0  0
  1 30  2  0  0  0
  1 85  1  0  0  0
  2  3  1  0  0  0
  2 25  1  0  0  0
  2 87  1  0  0  0
  2 88  1  0  0  0
  3  4  1  0  0  0
  3 89  1  0  0  0
  3 90  1  0  0  0
  4  5  1  0  0  0
  4 91  1  0  0  0
  4 92  1  0  0  0
  5  6  1  0  0  0
  5 26  1  0  0  0
  5 93  1  0  0  0
  6 25  1  0  0  0
  6 94  1  0  0  0
  6 95  1  0  0  0
  7  8  2  0  0  0
  7 26  1  0  0  0
  7 29  1  0  0  0
  8  9  1  0  0  0
  8 22  1  0  0  0
  9 10  1  0  0  0
  9 27  2  0  0  0
 10 11  2  0  0  0
 10 15  1  0  0  0
 11 12  1  0  0  0
 11 96  1  0  0  0
 12 13  2  0  0  0
 12 97  1  0  0  0
 13 14  1  0  0  0
 13 31  1  0  0  0
 14 15  2  0  0  0
 14 98  1  0  0  0
 15 99  1  0  0  0
 16 17  2  0  0  0
 16 21  1  0  0  0
 16 31  1  0  0  0
 17 18  1  0  0  0
 17100  1  0  0  0
 18 19  2  0  0  0
 18101  1  0  0  0
 19 20  1  0  0  0
 19 24  1  0  0  0
 20 21  2  0  0  0
 20102  1  0  0  0
 21 23  1  0  0  0
 22 28  1  0  0  0
 22 32  2  0  0  0
 26 27  1  0  0  0
 28103  1  0  0  0
 28104  1  0  0  0
 29105  1  0  0  0
 29106  1  0  0  0
 33 34  1  0  0  0
 33 66  1  0  0  0
 33 70  2  0  0  0
 34 36  1  0  0  0
 34 59  1  0  0  0
 34107  1  0  0  0
 35 44  2  0  0  0
 35 45  1  0  0  0
 35 68  1  0  0  0
 36 56  1  0  0  0
 36108  1  0  0  0
 37 39  1  0  0  0
 37 47  1  0  0  0
 37 66  1  0  0  0
 37109  1  0  0  0
 38 43  2  0  0  0
 38 46  1  0  0  0
 38 47  1  0  0  0
 39 64  1  0  0  0
 39 67  2  0  0  0
 40 52  1  0  0  0
 40 53  2  0  0  0
 40 58  1  0  0  0
 41110  1  0  0  0
 41111  1  0  0  0
 41112  1  0  0  0
 41 48  1  0  0  0
 42 43  1  0  0  0
 42 66  1  0  0  0
 42113  1  0  0  0
 42114  1  0  0  0
 43 44  1  0  0  0
 44115  1  0  0  0
 45 46  2  0  0  0
 45116  1  0  0  0
 46117  1  0  0  0
 47118  1  0  0  0
 47119  1  0  0  0
 48 56  1  0  0  0
 48 65  1  0  0  0
 48120  1  0  0  0
 49 50  1  0  0  0
 49 53  1  0  0  0
 49 64  1  0  0  0
 49121  1  0  0  0
 50 51  1  0  0  0
 50122  1  0  0  0
 50123  1  0  0  0
 51 52  1  0  0  0
 51124  1  0  0  0
 51125  1  0  0  0
 52126  1  0  0  0
 52127  1  0  0  0
 53 54  1  0  0  0
 54 55  2  0  0  0
 54128  1  0  0  0
 55 57  1  0  0  0
 55129  1  0  0  0
 56 69  2  0  0  0
 57 58  2  0  0  0
 57130  1  0  0  0
 58131  1  0  0  0
 59 60  1  0  0  0
 59 61  1  0  0  0
 59 62  1  0  0  0
 60132  1  0  0  0
 60133  1  0  0  0
 60134  1  0  0  0
 61135  1  0  0  0
 61136  1  0  0  0
 61137  1  0  0  0
 62138  1  0  0  0
 62139  1  0  0  0
 62140  1  0  0  0
 63 65  1  0  0  0
 63141  1  0  0  0
 63142  1  0  0  0
 63143  1  0  0  0
 64144  1  0  0  0
 65145  1  0  0  0
 68 83  1  0  0  0
 71 73  2  0  0  0
 71 75  1  0  0  0
 71146  1  0  0  0
 72 74  2  0  0  0
 72 76  1  0  0  0
 72147  1  0  0  0
 73 74  1  0  0  0
 73 77  1  0  0  0
 74 78  1  0  0  0
 75 76  2  0  0  0
 75 85  1  0  0  0
 76 86  1  0  0  0
 77148  1  0  0  0
 77149  1  0  0  0
 77150  1  0  0  0
 78151  1  0  0  0
 78152  1  0  0  0
 78153  1  0  0  0
 79 82  1  0  0  0
 79154  1  0  0  0
 79155  1  0  0  0
 79156  1  0  0  0
 80157  1  0  0  0
 80158  1  0  0  0
 80159  1  0  0  0
 80 84  1  0  0  0
 81 86  1  0  0  0
 81160  1  0  0  0
 81161  1  0  0  0
 81162  1  0  0  0
 82 85  1  0  0  0
 82163  1  0  0  0
 82164  1  0  0  0
 83 84  1  0  0  0
 83165  1  0  0  0
 83166  1  0  0  0
 84 86  1  0  0  0
 84167  1  0  0  0
M  ISO  4   1 100  68 101  83 101  85 100
M  END
> <chiral flag>
0

> <version>
0

> <s_m_source_file>
/data/baiqing/PycharmProjects/Reinvent-master-3.2/result/LINK_invent/BTK/process_docking_weight1_custom_sum_contain_oxygen_bond_distance_aromatic_linkinvent_7_9_3/rearranged_h_0015.sdf

> <i_m_source_file_index>
12

> <r_mmod_Potential_Energy-OPLS-2005>
1942.13171386719

> <r_mmod_Stretch_Energy-OPLS-2005>
763.512084960938

> <r_mmod_Bend_Energy-OPLS-2005>
628.749389648438

> <r_mmod_Torsional_Energy-OPLS-2005>
346.463165283203

> <r_mmod_Improper_Torsional_Energy-OPLS-2005>
5.69710874557495

> <r_mmod_Van_der_Waal_Energy-OPLS-2005>
150.108993530273

> <r_mmod_Electrostatic_Energy-OPLS-2005>
-290.565002441406

> <r_mmod_Solvation_Energy-OPLS-2005>
-202.675521850586

> <b_mmod_Minimization_Converged-OPLS-2005>
0

> <r_mmod_RMS_Derivative-OPLS-2005>
3.43909335136414

$$$$
12
                    3D
 Structure written by MMmdl.
151159  0  0  1  0            999 V2000
  -30.5235  -14.9191   20.4428 C   0  0  0  0  0  0
  -30.4645  -12.5656   19.4960 C   0  0  0  0  0  0
  -29.5336  -12.5025   18.2611 C   0  0  0  0  0  0
  -28.0658  -12.2957   18.6839 C   0  0  0  0  0  0
  -27.6433  -13.2318   19.8456 C   0  0  2  0  0  0
  -28.6875  -13.2277   20.9821 C   0  0  0  0  0  0
  -25.2511  -13.8168   20.5690 C   0  0  0  0  0  0
  -24.1817  -13.0432   20.9238 C   0  0  0  0  0  0
  -24.6394  -11.6915   20.8760 C   0  0  0  0  0  0
  -23.9076  -10.4291   21.0420 C   0  0  0  0  0  0
  -24.3631   -9.4200   21.9170 C   0  0  0  0  0  0
  -23.6295   -8.2234   22.0738 C   0  0  0  0  0  0
  -22.4266   -8.0290   21.3545 C   0  0  0  0  0  0
  -21.9898   -9.0270   20.4663 C   0  0  0  0  0  0
  -22.7245  -10.2145   20.3067 C   0  0  0  0  0  0
  -21.6849   -6.0739   22.5259 C   0  0  0  0  0  0
  -21.4018   -6.5630   23.8213 C   0  0  0  0  0  0
  -21.3653   -5.6794   24.9161 C   0  0  0  0  0  0
  -21.6033   -4.3048   24.7231 C   0  0  0  0  0  0
  -21.8826   -3.8147   23.4340 C   0  0  0  0  0  0
  -21.9199   -4.6948   22.3404 C   0  0  0  0  0  0
  -22.7820  -13.5211   21.1896 C   0  0  0  0  0  0
  -22.1665   -4.2137   21.0972 F   0  0  0  0  0  0
  -21.5620   -3.4537   25.7739 F   0  0  0  0  0  0
  -29.9741  -13.6414   20.3993 N   0  0  0  0  0  0
  -26.2951  -12.9381   20.3257 N   0  0  0  0  0  0
  -25.9320  -11.6528   20.5741 N   0  0  0  0  0  0
  -22.0507  -12.8214   22.0475 N   0  0  0  0  0  0
  -25.4174  -15.1891   20.3993 N   0  0  0  0  0  0
  -31.7130  -15.0562   20.1288 O   0  0  0  0  0  0
  -21.6634   -6.8873   21.4240 O   0  0  0  0  0  0
  -22.3505  -14.5510   20.6725 O   0  0  0  0  0  0
  -24.6415  -31.8417   23.1896 C   0  0  0  0  0  0
  -25.9188  -32.4679   23.8278 C   0  0  1  0  0  0
  -27.2383  -27.1481   20.1574 C   0  0  0  0  0  0
  -25.5936  -33.8480   24.2188 N   0  0  0  0  0  0
  -23.4452  -30.4598   21.5355 C   0  0  2  0  0  0
  -24.8992  -28.8854   20.1179 C   0  0  0  0  0  0
  -22.7555  -29.4537   22.4894 C   0  0  0  0  0  0
  -18.0291  -28.1377   22.8470 C   0  0  0  0  0  0
  -24.1475  -36.7228   23.2638 C   0  0  0  0  0  0
  -26.0000  -30.7184   21.3887 C   0  0  0  0  0  0
  -26.0753  -29.3306   20.7334 C   0  0  0  0  0  0
  -27.2432  -28.4785   20.7374 C   0  0  0  0  0  0
  -26.0352  -26.8061   19.4954 C   0  0  0  0  0  0
  -24.8915  -27.6341   19.4824 C   0  0  0  0  0  0
  -23.6718  -29.7812   20.1581 C   0  0  0  0  0  0
  -25.4091  -36.3013   24.0337 C   0  0  1  0  0  0
  -20.5907  -28.3685   23.1234 C   0  0  2  0  0  0
  -20.6774  -26.9380   22.5413 C   0  0  0  0  0  0
  -19.5761  -26.6359   21.5192 C   0  0  0  0  0  0
  -18.1945  -26.7912   22.1611 C   0  0  0  0  0  0
  -19.1556  -28.8847   23.2849 C   0  0  0  0  0  0
  -18.9465  -30.1445   23.8890 C   0  0  0  0  0  0
  -17.6465  -30.6568   24.0554 C   0  0  0  0  0  0
  -25.9067  -34.9393   23.5075 C   0  0  0  0  0  0
  -16.5354  -29.9062   23.6331 C   0  0  0  0  0  0
  -16.7276  -28.6474   23.0351 C   0  0  0  0  0  0
  -26.4529  -31.6566   25.0728 C   0  0  0  0  0  0
  -25.3743  -31.3768   26.1460 C   0  0  0  0  0  0
  -27.0394  -30.2963   24.6317 C   0  0  0  0  0  0
  -27.6095  -32.4333   25.7455 C   0  0  0  0  0  0
  -27.5595  -37.1713   24.8428 C   0  0  0  0  0  0
  -21.4250  -29.3001   22.3620 N   0  0  0  0  0  0
  -26.4230  -37.3754   23.9492 N   0  0  0  0  0  0
  -24.7155  -31.0289   22.0929 N   0  0  0  0  0  0
  -23.4194  -28.8079   23.3049 O   0  0  0  0  0  0
  -28.3114  -26.1816   20.2104 O   0  0  0  0  0  0
  -26.5657  -34.8909   22.4664 O   0  0  0  0  0  0
  -23.5539  -32.1279   23.7143 O   0  0  0  0  0  0
  -28.2279  -18.0639   20.3283 C   0  0  0  0  0  0
  -30.4830  -18.5942   20.7442 C   0  0  0  0  0  0
  -27.8891  -19.4672   20.2721 C   0  0  0  0  0  0
  -29.5286  -17.5245   20.5538 C   0  0  0  0  0  0
  -28.8381  -20.5419   20.4029 C   0  0  0  0  0  0
  -30.1563  -20.0258   20.6751 C   0  0  0  0  0  0
  -26.4141  -19.8001   20.1068 C   0  0  0  0  0  0
  -28.0304  -24.6599   20.4039 C   0  0  0  0  0  0
  -29.0343  -23.3057   20.3530 C   0  0  0  0  0  0
  -29.6403  -15.9994   20.6727 N   0  0  0  0  0  0
  -28.3611  -21.9239   20.2879 O   0  0  0  0  0  0
  -31.1399  -20.9244   20.9180 F   0  0  0  0  0  0
  -31.4917  -12.7504   19.1757 H   0  0  0  0  0  0
  -30.4826  -11.6081   20.0192 H   0  0  0  0  0  0
  -29.8408  -11.6876   17.6047 H   0  0  0  0  0  0
  -29.6273  -13.4172   17.6745 H   0  0  0  0  0  0
  -27.9614  -11.2572   19.0006 H   0  0  0  0  0  0
  -27.4020  -12.4183   17.8299 H   0  0  0  0  0  0
  -27.6160  -14.2354   19.4203 H   0  0  0  0  0  0
  -28.7612  -12.2369   21.4312 H   0  0  0  0  0  0
  -28.3855  -13.9030   21.7854 H   0  0  0  0  0  0
  -25.2782   -9.5648   22.4749 H   0  0  0  0  0  0
  -24.0003   -7.4596   22.7418 H   0  0  0  0  0  0
  -21.0838   -8.8819   19.8960 H   0  0  0  0  0  0
  -22.3716  -10.9690   19.6198 H   0  0  0  0  0  0
  -21.2019   -7.6137   23.9705 H   0  0  0  0  0  0
  -21.1454   -6.0512   25.9063 H   0  0  0  0  0  0
  -22.0611   -2.7598   23.2856 H   0  0  0  0  0  0
  -22.4145  -11.9933   22.4969 H   0  0  0  0  0  0
  -21.1112  -13.1203   22.2697 H   0  0  0  0  0  0
  -24.6394  -15.8338   20.4860 H   0  0  0  0  0  0
  -26.2294  -15.6058   19.9689 H   0  0  0  0  0  0
  -26.7245  -32.5292   23.1005 H   0  0  0  0  0  0
  -25.0081  -33.9565   25.0333 H   0  0  0  0  0  0
  -22.7488  -31.2866   21.3779 H   0  0  0  0  0  0
  -23.3795  -35.9493   23.3167 H   0  0  0  0  0  0
  -24.3598  -36.8980   22.2078 H   0  0  0  0  0  0
  -23.7145  -37.6358   23.6738 H   0  0  0  0  0  0
  -26.1562  -31.4720   20.6164 H   0  0  0  0  0  0
  -26.8699  -30.7675   22.0324 H   0  0  0  0  0  0
  -28.1370  -28.8148   21.2445 H   0  0  0  0  0  0
  -25.9465  -25.8650   18.9755 H   0  0  0  0  0  0
  -23.9960  -27.2922   18.9818 H   0  0  0  0  0  0
  -23.7968  -30.5444   19.3890 H   0  0  0  0  0  0
  -22.7901  -29.2111   19.8608 H   0  0  0  0  0  0
  -25.1257  -36.1814   25.0821 H   0  0  0  0  0  0
  -20.9983  -28.3259   24.1354 H   0  0  0  0  0  0
  -20.5592  -26.2285   23.3623 H   0  0  0  0  0  0
  -21.6658  -26.7350   22.1262 H   0  0  0  0  0  0
  -19.6921  -25.6262   21.1225 H   0  0  0  0  0  0
  -19.6707  -27.3158   20.6711 H   0  0  0  0  0  0
  -17.4204  -26.6608   21.4035 H   0  0  0  0  0  0
  -18.0380  -26.0056   22.9011 H   0  0  0  0  0  0
  -19.7943  -30.7252   24.2275 H   0  0  0  0  0  0
  -17.5011  -31.6247   24.5159 H   0  0  0  0  0  0
  -15.5360  -30.2947   23.7675 H   0  0  0  0  0  0
  -15.8669  -28.0773   22.7104 H   0  0  0  0  0  0
  -24.5774  -30.7306   25.7751 H   0  0  0  0  0  0
  -24.9134  -32.2980   26.5042 H   0  0  0  0  0  0
  -25.8023  -30.8751   27.0154 H   0  0  0  0  0  0
  -26.3006  -29.6674   24.1335 H   0  0  0  0  0  0
  -27.4008  -29.7283   25.4906 H   0  0  0  0  0  0
  -27.8915  -30.4202   23.9630 H   0  0  0  0  0  0
  -27.2696  -33.3587   26.2117 H   0  0  0  0  0  0
  -28.3823  -32.6989   25.0224 H   0  0  0  0  0  0
  -28.0873  -31.8436   26.5294 H   0  0  0  0  0  0
  -28.2483  -38.0139   24.7731 H   0  0  0  0  0  0
  -28.1233  -36.2721   24.5914 H   0  0  0  0  0  0
  -27.2390  -37.0948   25.8829 H   0  0  0  0  0  0
  -20.9473  -29.8667   21.6757 H   0  0  0  0  0  0
  -26.0094  -38.2780   24.1688 H   0  0  0  0  0  0
  -27.4260  -17.3556   20.1855 H   0  0  0  0  0  0
  -31.5041  -18.3421   20.9782 H   0  0  0  0  0  0
  -25.8174  -18.9038   19.9237 H   0  0  0  0  0  0
  -26.2683  -20.4782   19.2685 H   0  0  0  0  0  0
  -26.0137  -20.2724   21.0062 H   0  0  0  0  0  0
  -27.5689  -24.6062   21.3927 H   0  0  0  0  0  0
  -27.2489  -24.3920   19.6968 H   0  0  0  0  0  0
  -29.7138  -23.3198   21.2150 H   0  0  0  0  0  0
  -29.6837  -23.4075   19.4757 H   0  0  0  0  0  0
  -28.7343  -15.5992   20.8568 H   0  0  0  0  0  0
  1 25  1  0  0  0
  1 30  2  0  0  0
  1 80  1  0  0  0
  2  3  1  0  0  0
  2 25  1  0  0  0
  2 83  1  0  0  0
  2 84  1  0  0  0
  3  4  1  0  0  0
  3 85  1  0  0  0
  3 86  1  0  0  0
  4  5  1  0  0  0
  4 87  1  0  0  0
  4 88  1  0  0  0
  5  6  1  0  0  0
  5 26  1  0  0  0
  5 89  1  0  0  0
  6 25  1  0  0  0
  6 90  1  0  0  0
  6 91  1  0  0  0
  7  8  2  0  0  0
  7 26  1  0  0  0
  7 29  1  0  0  0
  8  9  1  0  0  0
  8 22  1  0  0  0
  9 10  1  0  0  0
  9 27  2  0  0  0
 10 11  2  0  0  0
 10 15  1  0  0  0
 11 12  1  0  0  0
 11 92  1  0  0  0
 12 13  2  0  0  0
 12 93  1  0  0  0
 13 14  1  0  0  0
 13 31  1  0  0  0
 14 15  2  0  0  0
 14 94  1  0  0  0
 15 95  1  0  0  0
 16 17  2  0  0  0
 16 21  1  0  0  0
 16 31  1  0  0  0
 17 18  1  0  0  0
 17 96  1  0  0  0
 18 19  2  0  0  0
 18 97  1  0  0  0
 19 20  1  0  0  0
 19 24  1  0  0  0
 20 21  2  0  0  0
 20 98  1  0  0  0
 21 23  1  0  0  0
 22 28  1  0  0  0
 22 32  2  0  0  0
 26 27  1  0  0  0
 28 99  1  0  0  0
 28100  1  0  0  0
 29101  1  0  0  0
 29102  1  0  0  0
 33 34  1  0  0  0
 33 66  1  0  0  0
 33 70  2  0  0  0
 34 36  1  0  0  0
 34 59  1  0  0  0
 34103  1  0  0  0
 35 44  2  0  0  0
 35 45  1  0  0  0
 35 68  1  0  0  0
 36 56  1  0  0  0
 36104  1  0  0  0
 37 39  1  0  0  0
 37 47  1  0  0  0
 37 66  1  0  0  0
 37105  1  0  0  0
 38 43  2  0  0  0
 38 46  1  0  0  0
 38 47  1  0  0  0
 39 64  1  0  0  0
 39 67  2  0  0  0
 40 52  1  0  0  0
 40 53  2  0  0  0
 40 58  1  0  0  0
 41106  1  0  0  0
 41107  1  0  0  0
 41108  1  0  0  0
 41 48  1  0  0  0
 42 43  1  0  0  0
 42 66  1  0  0  0
 42109  1  0  0  0
 42110  1  0  0  0
 43 44  1  0  0  0
 44111  1  0  0  0
 45 46  2  0  0  0
 45112  1  0  0  0
 46113  1  0  0  0
 47114  1  0  0  0
 47115  1  0  0  0
 48 56  1  0  0  0
 48 65  1  0  0  0
 48116  1  0  0  0
 49 50  1  0  0  0
 49 53  1  0  0  0
 49 64  1  0  0  0
 49117  1  0  0  0
 50 51  1  0  0  0
 50118  1  0  0  0
 50119  1  0  0  0
 51 52  1  0  0  0
 51120  1  0  0  0
 51121  1  0  0  0
 52122  1  0  0  0
 52123  1  0  0  0
 53 54  1  0  0  0
 54 55  2  0  0  0
 54124  1  0  0  0
 55 57  1  0  0  0
 55125  1  0  0  0
 56 69  2  0  0  0
 57 58  2  0  0  0
 57126  1  0  0  0
 58127  1  0  0  0
 59 60  1  0  0  0
 59 61  1  0  0  0
 59 62  1  0  0  0
 60128  1  0  0  0
 60129  1  0  0  0
 60130  1  0  0  0
 61131  1  0  0  0
 61132  1  0  0  0
 61133  1  0  0  0
 62134  1  0  0  0
 62135  1  0  0  0
 62136  1  0  0  0
 63 65  1  0  0  0
 63137  1  0  0  0
 63138  1  0  0  0
 63139  1  0  0  0
 64140  1  0  0  0
 65141  1  0  0  0
 68 78  1  0  0  0
 71 73  2  0  0  0
 71 74  1  0  0  0
 71142  1  0  0  0
 72 74  2  0  0  0
 72 76  1  0  0  0
 72143  1  0  0  0
 73 75  1  0  0  0
 73 77  1  0  0  0
 74 80  1  0  0  0
 75 76  2  0  0  0
 75 81  1  0  0  0
 76 82  1  0  0  0
 77144  1  0  0  0
 77145  1  0  0  0
 77146  1  0  0  0
 78 79  1  0  0  0
 78147  1  0  0  0
 78148  1  0  0  0
 79 81  1  0  0  0
 79149  1  0  0  0
 79150  1  0  0  0
 80151  1  0  0  0
M  ISO  4   1 100  68 101  78 101  80 100
M  END
> <chiral flag>
0

> <version>
0

> <s_m_source_file>
/data/baiqing/PycharmProjects/Reinvent-master-3.2/result/LINK_invent/BTK/process_docking_weight1_custom_sum_contain_oxygen_bond_distance_aromatic_linkinvent_7_9_3/rearranged_h_0015.sdf

> <i_m_source_file_index>
13

> <r_mmod_Potential_Energy-OPLS-2005>
512.259521484375

> <r_mmod_Stretch_Energy-OPLS-2005>
224.897552490234

> <r_mmod_Bend_Energy-OPLS-2005>
301.614196777344

> <r_mmod_Torsional_Energy-OPLS-2005>
224.318084716797

> <r_mmod_Improper_Torsional_Energy-OPLS-2005>
5.20036172866821

> <r_mmod_Van_der_Waal_Energy-OPLS-2005>
128.478485107422

> <r_mmod_Electrostatic_Energy-OPLS-2005>
-338.723327636719

> <r_mmod_Solvation_Energy-OPLS-2005>
-210.350769042969

> <b_mmod_Minimization_Converged-OPLS-2005>
0

> <r_mmod_RMS_Derivative-OPLS-2005>
6.30243062973022

$$$$
13
                    3D
 Structure written by MMmdl.
168176  0  0  1  0            999 V2000
  -30.6332  -14.7114   20.5491 C   0  0  0  0  0  0
  -30.4295  -12.4570   19.4692 C   0  0  0  0  0  0
  -29.5055  -12.5340   18.2310 C   0  0  0  0  0  0
  -28.0274  -12.3593   18.6297 C   0  0  0  0  0  0
  -27.6404  -13.2285   19.8531 C   0  0  2  0  0  0
  -28.6801  -13.0921   20.9813 C   0  0  0  0  0  0
  -25.2492  -13.8203   20.5640 C   0  0  0  0  0  0
  -24.1775  -13.0453   20.9234 C   0  0  0  0  0  0
  -24.6355  -11.6931   20.8777 C   0  0  0  0  0  0
  -23.9024  -10.4296   21.0439 C   0  0  0  0  0  0
  -24.3577   -9.4202   21.9210 C   0  0  0  0  0  0
  -23.6277   -8.2219   22.0750 C   0  0  0  0  0  0
  -22.4271   -8.0247   21.3539 C   0  0  0  0  0  0
  -21.9905   -9.0205   20.4640 C   0  0  0  0  0  0
  -22.7203  -10.2113   20.3066 C   0  0  0  0  0  0
  -21.6834   -6.0734   22.5279 C   0  0  0  0  0  0
  -21.3998   -6.5644   23.8209 C   0  0  0  0  0  0
  -21.3667   -5.6801   24.9179 C   0  0  0  0  0  0
  -21.6044   -4.3058   24.7226 C   0  0  0  0  0  0
  -21.8810   -3.8152   23.4345 C   0  0  0  0  0  0
  -21.9182   -4.6967   22.3403 C   0  0  0  0  0  0
  -22.7788  -13.5231   21.1893 C   0  0  0  0  0  0
  -22.1669   -4.2161   21.0981 F   0  0  0  0  0  0
  -21.5612   -3.4538   25.7738 F   0  0  0  0  0  0
  -29.9859  -13.4945   20.4364 N   0  0  0  0  0  0
  -26.2899  -12.9386   20.3245 N   0  0  0  0  0  0
  -25.9283  -11.6543   20.5747 N   0  0  0  0  0  0
  -22.0440  -12.8196   22.0461 N   0  0  0  0  0  0
  -25.4259  -15.1895   20.3939 N   0  0  0  0  0  0
  -31.7776  -14.8241   20.1026 O   0  0  0  0  0  0
  -21.6628   -6.8863   21.4239 O   0  0  0  0  0  0
  -22.3446  -14.5500   20.6712 O   0  0  0  0  0  0
  -24.6284  -31.8589   23.1944 C   0  0  0  0  0  0
  -25.9127  -32.4761   23.8301 C   0  0  1  0  0  0
  -27.2214  -27.2771   20.1251 C   0  0  0  0  0  0
  -25.5946  -33.8570   24.2221 N   0  0  0  0  0  0
  -23.4218  -30.4792   21.5399 C   0  0  2  0  0  0
  -24.8660  -28.9207   20.1112 C   0  0  0  0  0  0
  -22.7489  -29.4622   22.4921 C   0  0  0  0  0  0
  -18.0299  -28.1390   22.8460 C   0  0  0  0  0  0
  -24.1497  -36.7286   23.2632 C   0  0  0  0  0  0
  -25.9663  -30.7705   21.3748 C   0  0  0  0  0  0
  -26.0360  -29.3949   20.7162 C   0  0  0  0  0  0
  -27.2107  -28.5846   20.7110 C   0  0  0  0  0  0
  -26.0242  -26.8536   19.5055 C   0  0  0  0  0  0
  -24.8633  -27.6540   19.5020 C   0  0  0  0  0  0
  -23.6383  -29.8090   20.1561 C   0  0  0  0  0  0
  -25.4130  -36.3070   24.0308 C   0  0  1  0  0  0
  -20.5908  -28.3712   23.1259 C   0  0  2  0  0  0
  -20.6812  -26.9435   22.5406 C   0  0  0  0  0  0
  -19.5788  -26.6377   21.5211 C   0  0  0  0  0  0
  -18.1951  -26.7935   22.1603 C   0  0  0  0  0  0
  -19.1555  -28.8868   23.2848 C   0  0  0  0  0  0
  -18.9490  -30.1462   23.8878 C   0  0  0  0  0  0
  -17.6494  -30.6592   24.0559 C   0  0  0  0  0  0
  -25.9081  -34.9440   23.5058 C   0  0  0  0  0  0
  -16.5378  -29.9093   23.6331 C   0  0  0  0  0  0
  -16.7293  -28.6505   23.0343 C   0  0  0  0  0  0
  -26.4490  -31.6611   25.0714 C   0  0  0  0  0  0
  -25.3680  -31.3797   26.1420 C   0  0  0  0  0  0
  -27.0356  -30.3028   24.6220 C   0  0  0  0  0  0
  -27.6037  -32.4396   25.7485 C   0  0  0  0  0  0
  -27.5586  -37.1787   24.8450 C   0  0  0  0  0  0
  -21.4219  -29.3054   22.3654 N   0  0  0  0  0  0
  -26.4294  -37.3777   23.9404 N   0  0  0  0  0  0
  -24.6911  -31.0560   22.0921 N   0  0  0  0  0  0
  -23.4191  -28.8184   23.3035 O   0  0  0  0  0  0
  -28.3580  -26.4500   20.2110 O   0  0  0  0  0  0
  -26.5652  -34.8915   22.4629 O   0  0  0  0  0  0
  -23.5452  -32.1435   23.7253 O   0  0  0  0  0  0
  -28.8508  -16.8607   18.9639 C   0  0  0  0  0  0
  -30.9766  -18.8707   21.4858 C   0  0  0  0  0  0
  -30.6212  -21.2918   21.4436 C   0  0  0  0  0  0
  -29.9304  -18.6301   20.5725 C   0  0  0  0  0  0
  -29.5518  -21.1966   20.5224 C   0  0  0  0  0  0
  -31.3010  -20.1622   21.9282 C   0  0  0  0  0  0
  -29.1960  -19.8261   20.1280 C   0  0  0  0  0  0
  -30.7803  -22.9151   18.1838 C   0  0  0  0  0  0
  -27.0447  -23.4089   20.9778 C   0  0  0  0  0  0
  -29.2917  -24.1002   21.8229 C   0  0  0  0  0  0
  -29.5790  -16.1047   22.3001 C   0  0  0  0  0  0
  -29.3367  -22.4744   18.4714 C   0  0  0  0  0  0
  -28.4659  -25.0694   19.6475 C   0  0  0  0  0  0
  -29.8488  -17.1156   20.0140 C   0  0  1  0  0  0
  -28.4944  -23.7154   20.5647 C   0  0  0  0  0  0
  -28.0665  -16.6315   18.1390 N   0  0  0  0  0  0
  -29.0458  -22.4341   19.9088 N   0  0  0  0  0  0
  -29.9213  -15.8598   20.8957 N   0  0  0  0  0  0
  -32.3395  -20.3257   22.7798 F   0  0  0  0  0  0
  -27.8194  -19.6469   19.0973 Cl  0  0  0  0  0  0
  -31.4685  -12.5873   19.1650 H   0  0  0  0  0  0
  -30.3810  -11.4650   19.9238 H   0  0  0  0  0  0
  -29.7878  -11.7821   17.4926 H   0  0  0  0  0  0
  -29.6322  -13.5010   17.7425 H   0  0  0  0  0  0
  -27.8654  -11.3047   18.8561 H   0  0  0  0  0  0
  -27.3812  -12.5919   17.7821 H   0  0  0  0  0  0
  -27.6494  -14.2645   19.5174 H   0  0  0  0  0  0
  -28.7196  -12.0538   21.3161 H   0  0  0  0  0  0
  -28.3718  -13.6636   21.8499 H   0  0  0  0  0  0
  -25.2699   -9.5681   22.4809 H   0  0  0  0  0  0
  -23.9991   -7.4596   22.7443 H   0  0  0  0  0  0
  -21.0858   -8.8676   19.8928 H   0  0  0  0  0  0
  -22.3632  -10.9628   19.6171 H   0  0  0  0  0  0
  -21.1988   -7.6148   23.9711 H   0  0  0  0  0  0
  -21.1526   -6.0542   25.9082 H   0  0  0  0  0  0
  -22.0594   -2.7620   23.2831 H   0  0  0  0  0  0
  -22.4082  -11.9864   22.4841 H   0  0  0  0  0  0
  -21.1031  -13.1164   22.2643 H   0  0  0  0  0  0
  -24.6585  -15.8495   20.4538 H   0  0  0  0  0  0
  -26.2414  -15.5815   19.9375 H   0  0  0  0  0  0
  -26.7189  -32.5415   23.1044 H   0  0  0  0  0  0
  -25.0121  -33.9728   25.0382 H   0  0  0  0  0  0
  -22.7157  -31.2998   21.3918 H   0  0  0  0  0  0
  -23.3768  -35.9609   23.3288 H   0  0  0  0  0  0
  -24.3578  -36.8939   22.2048 H   0  0  0  0  0  0
  -23.7253  -37.6475   23.6696 H   0  0  0  0  0  0
  -26.1106  -31.5292   20.6050 H   0  0  0  0  0  0
  -26.8423  -30.8148   22.0102 H   0  0  0  0  0  0
  -28.1107  -28.9437   21.1910 H   0  0  0  0  0  0
  -25.9411  -25.8818   19.0468 H   0  0  0  0  0  0
  -23.9610  -27.2775   19.0380 H   0  0  0  0  0  0
  -23.7682  -30.5841   19.3999 H   0  0  0  0  0  0
  -22.7541  -29.2474   19.8494 H   0  0  0  0  0  0
  -25.1311  -36.1895   25.0802 H   0  0  0  0  0  0
  -20.9986  -28.3318   24.1385 H   0  0  0  0  0  0
  -20.5742  -26.2335   23.3617 H   0  0  0  0  0  0
  -21.6678  -26.7487   22.1181 H   0  0  0  0  0  0
  -19.6962  -25.6272   21.1271 H   0  0  0  0  0  0
  -19.6729  -27.3165   20.6711 H   0  0  0  0  0  0
  -17.4234  -26.6686   21.3985 H   0  0  0  0  0  0
  -18.0336  -26.0067   22.8983 H   0  0  0  0  0  0
  -19.7977  -30.7278   24.2240 H   0  0  0  0  0  0
  -17.5061  -31.6281   24.5170 H   0  0  0  0  0  0
  -15.5390  -30.3001   23.7685 H   0  0  0  0  0  0
  -15.8679  -28.0847   22.7060 H   0  0  0  0  0  0
  -24.5852  -30.7145   25.7750 H   0  0  0  0  0  0
  -24.8853  -32.2976   26.4781 H   0  0  0  0  0  0
  -25.7944  -30.9021   27.0238 H   0  0  0  0  0  0
  -26.2948  -29.6772   24.1216 H   0  0  0  0  0  0
  -27.4018  -29.7306   25.4754 H   0  0  0  0  0  0
  -27.8827  -30.4321   23.9478 H   0  0  0  0  0  0
  -27.2633  -33.3734   26.1972 H   0  0  0  0  0  0
  -28.3861  -32.6912   25.0311 H   0  0  0  0  0  0
  -28.0675  -31.8586   26.5461 H   0  0  0  0  0  0
  -28.2560  -38.0123   24.7556 H   0  0  0  0  0  0
  -28.1136  -36.2655   24.6222 H   0  0  0  0  0  0
  -27.2310  -37.1369   25.8852 H   0  0  0  0  0  0
  -20.9431  -29.8765   21.6838 H   0  0  0  0  0  0
  -26.0164  -38.2840   24.1451 H   0  0  0  0  0  0
  -31.5975  -18.0551   21.8219 H   0  0  0  0  0  0
  -31.0176  -22.2435   21.7528 H   0  0  0  0  0  0
  -31.2680  -22.1979   17.5223 H   0  0  0  0  0  0
  -31.3886  -22.9974   19.0858 H   0  0  0  0  0  0
  -30.8054  -23.8850   17.6882 H   0  0  0  0  0  0
  -26.5996  -24.2372   21.5302 H   0  0  0  0  0  0
  -26.9894  -22.5244   21.6137 H   0  0  0  0  0  0
  -26.4120  -23.2260   20.1079 H   0  0  0  0  0  0
  -28.8648  -24.9800   22.3047 H   0  0  0  0  0  0
  -30.3195  -24.3551   21.5598 H   0  0  0  0  0  0
  -29.2960  -23.3144   22.5765 H   0  0  0  0  0  0
  -28.7482  -16.8074   22.3720 H   0  0  0  0  0  0
  -30.4268  -16.5253   22.8375 H   0  0  0  0  0  0
  -29.3039  -15.2123   22.8551 H   0  0  0  0  0  0
  -29.1737  -21.5096   17.9987 H   0  0  0  0  0  0
  -28.6389  -23.1329   17.9558 H   0  0  0  0  0  0
  -27.7810  -24.9465   18.8116 H   0  0  0  0  0  0
  -29.4431  -25.1203   19.1701 H   0  0  0  0  0  0
  -30.7701  -17.0843   19.4291 H   0  0  0  0  0  0
  1 25  1  0  0  0
  1 30  2  0  0  0
  1 88  1  0  0  0
  2  3  1  0  0  0
  2 25  1  0  0  0
  2 91  1  0  0  0
  2 92  1  0  0  0
  3  4  1  0  0  0
  3 93  1  0  0  0
  3 94  1  0  0  0
  4  5  1  0  0  0
  4 95  1  0  0  0
  4 96  1  0  0  0
  5  6  1  0  0  0
  5 26  1  0  0  0
  5 97  1  0  0  0
  6 25  1  0  0  0
  6 98  1  0  0  0
  6 99  1  0  0  0
  7  8  2  0  0  0
  7 26  1  0  0  0
  7 29  1  0  0  0
  8  9  1  0  0  0
  8 22  1  0  0  0
  9 10  1  0  0  0
  9 27  2  0  0  0
 10 11  2  0  0  0
 10 15  1  0  0  0
 11 12  1  0  0  0
 11100  1  0  0  0
 12 13  2  0  0  0
 12101  1  0  0  0
 13 14  1  0  0  0
 13 31  1  0  0  0
 14 15  2  0  0  0
 14102  1  0  0  0
 15103  1  0  0  0
 16 17  2  0  0  0
 16 21  1  0  0  0
 16 31  1  0  0  0
 17 18  1  0  0  0
 17104  1  0  0  0
 18 19  2  0  0  0
 18105  1  0  0  0
 19 20  1  0  0  0
 19 24  1  0  0  0
 20 21  2  0  0  0
 20106  1  0  0  0
 21 23  1  0  0  0
 22 28  1  0  0  0
 22 32  2  0  0  0
 26 27  1  0  0  0
 28107  1  0  0  0
 28108  1  0  0  0
 29109  1  0  0  0
 29110  1  0  0  0
 33 34  1  0  0  0
 33 66  1  0  0  0
 33 70  2  0  0  0
 34 36  1  0  0  0
 34 59  1  0  0  0
 34111  1  0  0  0
 35 44  2  0  0  0
 35 45  1  0  0  0
 35 68  1  0  0  0
 36 56  1  0  0  0
 36112  1  0  0  0
 37 39  1  0  0  0
 37 47  1  0  0  0
 37 66  1  0  0  0
 37113  1  0  0  0
 38 43  2  0  0  0
 38 46  1  0  0  0
 38 47  1  0  0  0
 39 64  1  0  0  0
 39 67  2  0  0  0
 40 52  1  0  0  0
 40 53  2  0  0  0
 40 58  1  0  0  0
 41114  1  0  0  0
 41115  1  0  0  0
 41116  1  0  0  0
 41 48  1  0  0  0
 42 43  1  0  0  0
 42 66  1  0  0  0
 42117  1  0  0  0
 42118  1  0  0  0
 43 44  1  0  0  0
 44119  1  0  0  0
 45 46  2  0  0  0
 45120  1  0  0  0
 46121  1  0  0  0
 47122  1  0  0  0
 47123  1  0  0  0
 48 56  1  0  0  0
 48 65  1  0  0  0
 48124  1  0  0  0
 49 50  1  0  0  0
 49 53  1  0  0  0
 49 64  1  0  0  0
 49125  1  0  0  0
 50 51  1  0  0  0
 50126  1  0  0  0
 50127  1  0  0  0
 51 52  1  0  0  0
 51128  1  0  0  0
 51129  1  0  0  0
 52130  1  0  0  0
 52131  1  0  0  0
 53 54  1  0  0  0
 54 55  2  0  0  0
 54132  1  0  0  0
 55 57  1  0  0  0
 55133  1  0  0  0
 56 69  2  0  0  0
 57 58  2  0  0  0
 57134  1  0  0  0
 58135  1  0  0  0
 59 60  1  0  0  0
 59 61  1  0  0  0
 59 62  1  0  0  0
 60136  1  0  0  0
 60137  1  0  0  0
 60138  1  0  0  0
 61139  1  0  0  0
 61140  1  0  0  0
 61141  1  0  0  0
 62142  1  0  0  0
 62143  1  0  0  0
 62144  1  0  0  0
 63 65  1  0  0  0
 63145  1  0  0  0
 63146  1  0  0  0
 63147  1  0  0  0
 64148  1  0  0  0
 65149  1  0  0  0
 68 83  1  0  0  0
 71 86  3  0  0  0
 71 84  1  0  0  0
 72 74  2  0  0  0
 72 76  1  0  0  0
 72150  1  0  0  0
 73 75  1  0  0  0
 73 76  2  0  0  0
 73151  1  0  0  0
 74 77  1  0  0  0
 74 84  1  0  0  0
 75 77  2  0  0  0
 75 87  1  0  0  0
 76 89  1  0  0  0
 77 90  1  0  0  0
 78 82  1  0  0  0
 78152  1  0  0  0
 78153  1  0  0  0
 78154  1  0  0  0
 79155  1  0  0  0
 79156  1  0  0  0
 79157  1  0  0  0
 79 85  1  0  0  0
 80 85  1  0  0  0
 80158  1  0  0  0
 80159  1  0  0  0
 80160  1  0  0  0
 81 88  1  0  0  0
 81161  1  0  0  0
 81162  1  0  0  0
 81163  1  0  0  0
 82 87  1  0  0  0
 82164  1  0  0  0
 82165  1  0  0  0
 83 85  1  0  0  0
 83166  1  0  0  0
 83167  1  0  0  0
 84 88  1  0  0  0
 84168  1  0  0  0
 85 87  1  0  0  0
M  ISO  4   1 100  68 101  83 101  88 100
M  END
> <chiral flag>
0

> <version>
0

> <s_m_source_file>
/data/baiqing/PycharmProjects/Reinvent-master-3.2/result/LINK_invent/BTK/process_docking_weight1_custom_sum_contain_oxygen_bond_distance_aromatic_linkinvent_7_9_3/rearranged_h_0015.sdf

> <i_m_source_file_index>
14

> <r_mmod_Potential_Energy-OPLS-2005>
331.063232421875

> <r_mmod_Stretch_Energy-OPLS-2005>
145.549667358398

> <r_mmod_Bend_Energy-OPLS-2005>
224.809539794922

> <r_mmod_Torsional_Energy-OPLS-2005>
331.300994873047

> <r_mmod_Improper_Torsional_Energy-OPLS-2005>
10.7421226501465

> <r_mmod_Van_der_Waal_Energy-OPLS-2005>
146.782409667969

> <r_mmod_Electrostatic_Energy-OPLS-2005>
-406.648162841797

> <r_mmod_Solvation_Energy-OPLS-2005>
-188.964614868164

> <b_mmod_Minimization_Converged-OPLS-2005>
0

> <r_mmod_RMS_Derivative-OPLS-2005>
3.73834109306335

$$$$
14
                    3D
 Structure written by MMmdl.
161169  0  0  1  0            999 V2000
  -30.6381  -14.7145   20.4729 C   0  0  0  0  0  0
  -30.4312  -12.4347   19.4725 C   0  0  0  0  0  0
  -29.5078  -12.4987   18.2345 C   0  0  0  0  0  0
  -28.0334  -12.3252   18.6482 C   0  0  0  0  0  0
  -27.6417  -13.2242   19.8504 C   0  0  2  0  0  0
  -28.6871  -13.1471   20.9877 C   0  0  0  0  0  0
  -25.2507  -13.8170   20.5670 C   0  0  0  0  0  0
  -24.1807  -13.0426   20.9232 C   0  0  0  0  0  0
  -24.6390  -11.6904   20.8772 C   0  0  0  0  0  0
  -23.9064  -10.4285   21.0421 C   0  0  0  0  0  0
  -24.3618   -9.4196   21.9192 C   0  0  0  0  0  0
  -23.6290   -8.2234   22.0758 C   0  0  0  0  0  0
  -22.4274   -8.0280   21.3546 C   0  0  0  0  0  0
  -21.9911   -9.0249   20.4647 C   0  0  0  0  0  0
  -22.7239  -10.2128   20.3061 C   0  0  0  0  0  0
  -21.6849   -6.0732   22.5274 C   0  0  0  0  0  0
  -21.4008   -6.5636   23.8206 C   0  0  0  0  0  0
  -21.3661   -5.6791   24.9171 C   0  0  0  0  0  0
  -21.6043   -4.3053   24.7219 C   0  0  0  0  0  0
  -21.8820   -3.8144   23.4342 C   0  0  0  0  0  0
  -21.9190   -4.6962   22.3398 C   0  0  0  0  0  0
  -22.7829  -13.5221   21.1873 C   0  0  0  0  0  0
  -22.1662   -4.2146   21.0976 F   0  0  0  0  0  0
  -21.5629   -3.4538   25.7734 F   0  0  0  0  0  0
  -29.9961  -13.4943   20.4145 N   0  0  0  0  0  0
  -26.2930  -12.9365   20.3264 N   0  0  0  0  0  0
  -25.9318  -11.6518   20.5766 N   0  0  0  0  0  0
  -22.0460  -12.8220   22.0422 N   0  0  0  0  0  0
  -25.4175  -15.1886   20.3981 N   0  0  0  0  0  0
  -31.8257  -14.7858   20.1206 O   0  0  0  0  0  0
  -21.6641   -6.8875   21.4238 O   0  0  0  0  0  0
  -22.3534  -14.5535   20.6716 O   0  0  0  0  0  0
  -24.6303  -31.8557   23.2008 C   0  0  0  0  0  0
  -25.9140  -32.4752   23.8338 C   0  0  1  0  0  0
  -27.2150  -27.2715   20.1214 C   0  0  0  0  0  0
  -25.5938  -33.8555   24.2257 N   0  0  0  0  0  0
  -23.4254  -30.4809   21.5435 C   0  0  2  0  0  0
  -24.8710  -28.9356   20.1049 C   0  0  0  0  0  0
  -22.7498  -29.4602   22.4910 C   0  0  0  0  0  0
  -18.0287  -28.1376   22.8479 C   0  0  0  0  0  0
  -24.1486  -36.7286   23.2639 C   0  0  0  0  0  0
  -25.9714  -30.7690   21.3824 C   0  0  0  0  0  0
  -26.0409  -29.3940   20.7228 C   0  0  0  0  0  0
  -27.2119  -28.5721   20.7270 C   0  0  0  0  0  0
  -26.0284  -26.8949   19.4479 C   0  0  0  0  0  0
  -24.8702  -27.6931   19.4562 C   0  0  0  0  0  0
  -23.6410  -29.8202   20.1572 C   0  0  0  0  0  0
  -25.4109  -36.3066   24.0324 C   0  0  1  0  0  0
  -20.5894  -28.3687   23.1268 C   0  0  2  0  0  0
  -20.6777  -26.9402   22.5405 C   0  0  0  0  0  0
  -19.5754  -26.6367   21.5214 C   0  0  0  0  0  0
  -18.1932  -26.7922   22.1619 C   0  0  0  0  0  0
  -19.1542  -28.8850   23.2870 C   0  0  0  0  0  0
  -18.9473  -30.1455   23.8886 C   0  0  0  0  0  0
  -17.6470  -30.6583   24.0564 C   0  0  0  0  0  0
  -25.9048  -34.9437   23.5092 C   0  0  0  0  0  0
  -16.5355  -29.9081   23.6332 C   0  0  0  0  0  0
  -16.7274  -28.6498   23.0351 C   0  0  0  0  0  0
  -26.4507  -31.6579   25.0730 C   0  0  0  0  0  0
  -25.3724  -31.3737   26.1455 C   0  0  0  0  0  0
  -27.0358  -30.2995   24.6214 C   0  0  0  0  0  0
  -27.6043  -32.4339   25.7512 C   0  0  0  0  0  0
  -27.5576  -37.1795   24.8463 C   0  0  0  0  0  0
  -21.4206  -29.3041   22.3666 N   0  0  0  0  0  0
  -26.4281  -37.3769   23.9411 N   0  0  0  0  0  0
  -24.6944  -31.0529   22.0979 N   0  0  0  0  0  0
  -23.4209  -28.8132   23.2994 O   0  0  0  0  0  0
  -28.3084  -26.3780   20.2136 O   0  0  0  0  0  0
  -26.5625  -34.8918   22.4664 O   0  0  0  0  0  0
  -23.5455  -32.1373   23.7306 O   0  0  0  0  0  0
  -30.9784  -20.0000   20.0101 C   0  0  0  0  0  0
  -29.3041  -18.4162   20.7897 C   0  0  0  0  0  0
  -29.7001  -19.8123   20.5675 C   0  0  0  0  0  0
  -31.8242  -18.9047   19.7491 C   0  0  0  0  0  0
  -30.2041  -17.2961   20.5185 C   0  0  0  0  0  0
  -27.8966  -18.0979   21.2752 C   0  0  0  0  0  0
  -33.2214  -19.0898   19.1929 C   0  0  0  0  0  0
  -28.2801  -20.9841   22.2238 C   0  0  0  0  0  0
  -28.9232  -23.7335   20.6111 C   0  0  0  0  0  0
  -28.7320  -22.2247   20.0466 C   0  0  0  0  0  0
  -28.1293  -24.9262   19.8730 C   0  0  0  0  0  0
  -31.4153  -17.6440   20.0123 N   0  3  0  0  0  0
  -29.8899  -15.8549   20.7358 N   0  0  0  0  0  0
  -28.9724  -21.0209   20.9377 N   0  0  0  0  0  0
  -31.4732  -12.5465   19.1662 H   0  0  0  0  0  0
  -30.3705  -11.4551   19.9490 H   0  0  0  0  0  0
  -29.7858  -11.7242   17.5183 H   0  0  0  0  0  0
  -29.6371  -13.4520   17.7197 H   0  0  0  0  0  0
  -27.8896  -11.2764   18.9106 H   0  0  0  0  0  0
  -27.3749  -12.5165   17.7998 H   0  0  0  0  0  0
  -27.6368  -14.2456   19.4701 H   0  0  0  0  0  0
  -28.7166  -12.1434   21.4148 H   0  0  0  0  0  0
  -28.4181  -13.8113   21.8104 H   0  0  0  0  0  0
  -25.2762   -9.5666   22.4767 H   0  0  0  0  0  0
  -23.9988   -7.4629   22.7482 H   0  0  0  0  0  0
  -21.0838   -8.8771   19.8957 H   0  0  0  0  0  0
  -22.3702  -10.9670   19.6173 H   0  0  0  0  0  0
  -21.2001   -7.6142   23.9710 H   0  0  0  0  0  0
  -21.1483   -6.0521   25.9072 H   0  0  0  0  0  0
  -22.0601   -2.7606   23.2843 H   0  0  0  0  0  0
  -22.4063  -11.9875   22.4809 H   0  0  0  0  0  0
  -21.1079  -13.1246   22.2615 H   0  0  0  0  0  0
  -24.6150  -15.8068   20.4552 H   0  0  0  0  0  0
  -26.1802  -15.5901   19.8706 H   0  0  0  0  0  0
  -26.7204  -32.5400   23.1075 H   0  0  0  0  0  0
  -25.0094  -33.9691   25.0408 H   0  0  0  0  0  0
  -22.7203  -31.3029   21.4008 H   0  0  0  0  0  0
  -23.3751  -35.9620   23.3288 H   0  0  0  0  0  0
  -24.3579  -36.8919   22.2057 H   0  0  0  0  0  0
  -23.7235  -37.6478   23.6673 H   0  0  0  0  0  0
  -26.1123  -31.5287   20.6123 H   0  0  0  0  0  0
  -26.8495  -30.8135   22.0148 H   0  0  0  0  0  0
  -28.1022  -28.9131   21.2368 H   0  0  0  0  0  0
  -25.9553  -25.9632   18.9090 H   0  0  0  0  0  0
  -23.9800  -27.3431   18.9511 H   0  0  0  0  0  0
  -23.7600  -30.5994   19.4034 H   0  0  0  0  0  0
  -22.7594  -29.2522   19.8535 H   0  0  0  0  0  0
  -25.1288  -36.1910   25.0816 H   0  0  0  0  0  0
  -20.9978  -28.3256   24.1390 H   0  0  0  0  0  0
  -20.5668  -26.2294   23.3610 H   0  0  0  0  0  0
  -21.6640  -26.7423   22.1195 H   0  0  0  0  0  0
  -19.6921  -25.6282   21.1230 H   0  0  0  0  0  0
  -19.6697  -27.3183   20.6753 H   0  0  0  0  0  0
  -17.4203  -26.6679   21.4015 H   0  0  0  0  0  0
  -18.0323  -26.0052   22.9002 H   0  0  0  0  0  0
  -19.7955  -30.7275   24.2232 H   0  0  0  0  0  0
  -17.5027  -31.6262   24.5172 H   0  0  0  0  0  0
  -15.5357  -30.2988   23.7665 H   0  0  0  0  0  0
  -15.8667  -28.0821   22.7071 H   0  0  0  0  0  0
  -24.5919  -30.7056   25.7795 H   0  0  0  0  0  0
  -24.8906  -32.2914   26.4835 H   0  0  0  0  0  0
  -25.8042  -30.8955   27.0260 H   0  0  0  0  0  0
  -26.2951  -29.6737   24.1221 H   0  0  0  0  0  0
  -27.4030  -29.7249   25.4729 H   0  0  0  0  0  0
  -27.8826  -30.4269   23.9468 H   0  0  0  0  0  0
  -27.2629  -33.3649   26.2053 H   0  0  0  0  0  0
  -28.3875  -32.6887   25.0360 H   0  0  0  0  0  0
  -28.0691  -31.8499   26.5466 H   0  0  0  0  0  0
  -28.2573  -38.0112   24.7516 H   0  0  0  0  0  0
  -28.1091  -36.2637   24.6270 H   0  0  0  0  0  0
  -27.2301  -37.1413   25.8870 H   0  0  0  0  0  0
  -20.9383  -29.8792   21.6901 H   0  0  0  0  0  0
  -26.0157  -38.2839   24.1426 H   0  0  0  0  0  0
  -31.3377  -21.0021   19.8267 H   0  0  0  0  0  0
  -27.1826  -18.8298   20.8990 H   0  0  0  0  0  0
  -27.8513  -18.0884   22.3643 H   0  0  0  0  0  0
  -27.5524  -17.1307   20.9130 H   0  0  0  0  0  0
  -33.5729  -20.1112   19.3440 H   0  0  0  0  0  0
  -33.2375  -18.8806   18.1234 H   0  0  0  0  0  0
  -33.9288  -18.4221   19.6853 H   0  0  0  0  0  0
  -28.7087  -20.2343   22.8908 H   0  0  0  0  0  0
  -27.2193  -20.7670   22.0936 H   0  0  0  0  0  0
  -28.3563  -21.9366   22.7455 H   0  0  0  0  0  0
  -29.9887  -23.9638   20.6116 H   0  0  0  0  0  0
  -28.6221  -23.7716   21.6564 H   0  0  0  0  0  0
  -29.3255  -22.1190   19.1368 H   0  0  0  0  0  0
  -27.6988  -22.1356   19.7089 H   0  0  0  0  0  0
  -27.0896  -24.6472   20.0315 H   0  0  0  0  0  0
  -28.3064  -24.8386   18.8004 H   0  0  0  0  0  0
  -32.0733  -16.8785   19.8111 H   0  0  0  0  0  0
  -28.9564  -15.6601   21.0487 H   0  0  0  0  0  0
  1 25  1  0  0  0
  1 30  2  0  0  0
  1 83  1  0  0  0
  2  3  1  0  0  0
  2 25  1  0  0  0
  2 85  1  0  0  0
  2 86  1  0  0  0
  3  4  1  0  0  0
  3 87  1  0  0  0
  3 88  1  0  0  0
  4  5  1  0  0  0
  4 89  1  0  0  0
  4 90  1  0  0  0
  5  6  1  0  0  0
  5 26  1  0  0  0
  5 91  1  0  0  0
  6 25  1  0  0  0
  6 92  1  0  0  0
  6 93  1  0  0  0
  7  8  2  0  0  0
  7 26  1  0  0  0
  7 29  1  0  0  0
  8  9  1  0  0  0
  8 22  1  0  0  0
  9 10  1  0  0  0
  9 27  2  0  0  0
 10 11  2  0  0  0
 10 15  1  0  0  0
 11 12  1  0  0  0
 11 94  1  0  0  0
 12 13  2  0  0  0
 12 95  1  0  0  0
 13 14  1  0  0  0
 13 31  1  0  0  0
 14 15  2  0  0  0
 14 96  1  0  0  0
 15 97  1  0  0  0
 16 17  2  0  0  0
 16 21  1  0  0  0
 16 31  1  0  0  0
 17 18  1  0  0  0
 17 98  1  0  0  0
 18 19  2  0  0  0
 18 99  1  0  0  0
 19 20  1  0  0  0
 19 24  1  0  0  0
 20 21  2  0  0  0
 20100  1  0  0  0
 21 23  1  0  0  0
 22 28  1  0  0  0
 22 32  2  0  0  0
 26 27  1  0  0  0
 28101  1  0  0  0
 28102  1  0  0  0
 29103  1  0  0  0
 29104  1  0  0  0
 33 34  1  0  0  0
 33 66  1  0  0  0
 33 70  2  0  0  0
 34 36  1  0  0  0
 34 59  1  0  0  0
 34105  1  0  0  0
 35 44  2  0  0  0
 35 45  1  0  0  0
 35 68  1  0  0  0
 36 56  1  0  0  0
 36106  1  0  0  0
 37 39  1  0  0  0
 37 47  1  0  0  0
 37 66  1  0  0  0
 37107  1  0  0  0
 38 43  2  0  0  0
 38 46  1  0  0  0
 38 47  1  0  0  0
 39 64  1  0  0  0
 39 67  2  0  0  0
 40 52  1  0  0  0
 40 53  2  0  0  0
 40 58  1  0  0  0
 41108  1  0  0  0
 41109  1  0  0  0
 41110  1  0  0  0
 41 48  1  0  0  0
 42 43  1  0  0  0
 42 66  1  0  0  0
 42111  1  0  0  0
 42112  1  0  0  0
 43 44  1  0  0  0
 44113  1  0  0  0
 45 46  2  0  0  0
 45114  1  0  0  0
 46115  1  0  0  0
 47116  1  0  0  0
 47117  1  0  0  0
 48 56  1  0  0  0
 48 65  1  0  0  0
 48118  1  0  0  0
 49 50  1  0  0  0
 49 53  1  0  0  0
 49 64  1  0  0  0
 49119  1  0  0  0
 50 51  1  0  0  0
 50120  1  0  0  0
 50121  1  0  0  0
 51 52  1  0  0  0
 51122  1  0  0  0
 51123  1  0  0  0
 52124  1  0  0  0
 52125  1  0  0  0
 53 54  1  0  0  0
 54 55  2  0  0  0
 54126  1  0  0  0
 55 57  1  0  0  0
 55127  1  0  0  0
 56 69  2  0  0  0
 57 58  2  0  0  0
 57128  1  0  0  0
 58129  1  0  0  0
 59 60  1  0  0  0
 59 61  1  0  0  0
 59 62  1  0  0  0
 60130  1  0  0  0
 60131  1  0  0  0
 60132  1  0  0  0
 61133  1  0  0  0
 61134  1  0  0  0
 61135  1  0  0  0
 62136  1  0  0  0
 62137  1  0  0  0
 62138  1  0  0  0
 63 65  1  0  0  0
 63139  1  0  0  0
 63140  1  0  0  0
 63141  1  0  0  0
 64142  1  0  0  0
 65143  1  0  0  0
 68 81  1  0  0  0
 71 73  2  0  0  0
 71 74  1  0  0  0
 71144  1  0  0  0
 72 73  1  0  0  0
 72 75  2  0  0  0
 72 76  1  0  0  0
 73 84  1  0  0  0
 74 77  1  0  0  0
 74 82  2  0  0  0
 75 82  1  0  0  0
 75 83  1  0  0  0
 76145  1  0  0  0
 76146  1  0  0  0
 76147  1  0  0  0
 77148  1  0  0  0
 77149  1  0  0  0
 77150  1  0  0  0
 78 84  1  0  0  0
 78151  1  0  0  0
 78152  1  0  0  0
 78153  1  0  0  0
 79 80  1  0  0  0
 79 81  1  0  0  0
 79154  1  0  0  0
 79155  1  0  0  0
 80 84  1  0  0  0
 80156  1  0  0  0
 80157  1  0  0  0
 81158  1  0  0  0
 81159  1  0  0  0
 82160  1  0  0  0
 83161  1  0  0  0
M  CHG  1  82   1
M  ISO  4   1 100  68 101  81 101  83 100
M  END
> <chiral flag>
0

> <version>
0

> <s_m_source_file>
/data/baiqing/PycharmProjects/Reinvent-master-3.2/result/LINK_invent/BTK/process_docking_weight1_custom_sum_contain_oxygen_bond_distance_aromatic_linkinvent_7_9_3/rearranged_h_0015.sdf

> <i_m_source_file_index>
15

> <r_mmod_Potential_Energy-OPLS-2005>
160.878204345703

> <r_mmod_Stretch_Energy-OPLS-2005>
124.011245727539

> <r_mmod_Bend_Energy-OPLS-2005>
171.042877197266

> <r_mmod_Torsional_Energy-OPLS-2005>
216.656692504883

> <r_mmod_Improper_Torsional_Energy-OPLS-2005>
6.23493909835815

> <r_mmod_Van_der_Waal_Energy-OPLS-2005>
150.890884399414

> <r_mmod_Electrostatic_Energy-OPLS-2005>
-181.438354492188

> <r_mmod_Solvation_Energy-OPLS-2005>
-402.97509765625

> <b_mmod_Minimization_Converged-OPLS-2005>
0

> <r_mmod_RMS_Derivative-OPLS-2005>
1.30037319660187

$$$$
15
                    3D
 Structure written by MMmdl.
145152  0  0  1  0            999 V2000
  -30.1060  -16.1209   20.2669 C   0  0  0  0  0  0
  -30.3846  -13.4592   19.4966 C   0  0  0  0  0  0
  -29.5621  -12.7720   18.3527 C   0  0  0  0  0  0
  -28.1930  -12.2914   18.8475 C   0  0  0  0  0  0
  -27.5845  -13.3385   19.7973 C   0  0  2  0  0  0
  -28.5726  -13.8937   20.8643 C   0  0  0  0  0  0
  -25.2325  -13.8284   20.5880 C   0  0  0  0  0  0
  -24.1726  -13.0413   20.9299 C   0  0  0  0  0  0
  -24.6458  -11.6940   20.8752 C   0  0  0  0  0  0
  -23.9151  -10.4279   21.0375 C   0  0  0  0  0  0
  -24.3669   -9.4192   21.9163 C   0  0  0  0  0  0
  -23.6313   -8.2244   22.0752 C   0  0  0  0  0  0
  -22.4293   -8.0281   21.3547 C   0  0  0  0  0  0
  -21.9946   -9.0256   20.4642 C   0  0  0  0  0  0
  -22.7308  -10.2122   20.3036 C   0  0  0  0  0  0
  -21.6852   -6.0738   22.5274 C   0  0  0  0  0  0
  -21.4013   -6.5642   23.8204 C   0  0  0  0  0  0
  -21.3653   -5.6791   24.9168 C   0  0  0  0  0  0
  -21.6039   -4.3057   24.7223 C   0  0  0  0  0  0
  -21.8821   -3.8154   23.4348 C   0  0  0  0  0  0
  -21.9195   -4.6962   22.3401 C   0  0  0  0  0  0
  -22.7723  -13.5147   21.1889 C   0  0  0  0  0  0
  -22.1670   -4.2157   21.0978 F   0  0  0  0  0  0
  -21.5629   -3.4539   25.7742 F   0  0  0  0  0  0
  -29.6448  -14.6728   20.1518 N   0  0  0  0  0  0
  -26.2815  -12.9682   20.3318 N   0  0  0  0  0  0
  -25.9430  -11.6718   20.5669 N   0  0  0  0  0  0
  -22.0379  -12.8130   22.0438 N   0  0  0  0  0  0
  -25.3893  -15.2019   20.4377 N   0  0  0  0  0  0
  -31.3541  -15.9669   20.2845 O   0  0  0  0  0  0
  -21.6641   -6.8887   21.4242 O   0  0  0  0  0  0
  -22.3407  -14.5432   20.6692 O   0  0  0  0  0  0
  -24.7169  -31.7640   23.1250 C   0  0  0  0  0  0
  -25.9618  -32.4290   23.7906 C   0  0  1  0  0  0
  -27.2355  -26.3773   20.2390 C   0  0  0  0  0  0
  -25.6097  -33.8122   24.1791 N   0  0  0  0  0  0
  -23.5548  -30.3517   21.4888 C   0  0  2  0  0  0
  -25.0107  -28.6198   20.1360 C   0  0  0  0  0  0
  -22.7913  -29.4138   22.4647 C   0  0  0  0  0  0
  -18.0373  -28.1433   22.8462 C   0  0  0  0  0  0
  -24.1484  -36.7036   23.2638 C   0  0  0  0  0  0
  -26.1479  -30.3915   21.4329 C   0  0  0  0  0  0
  -26.2095  -28.9169   20.7929 C   0  0  0  0  0  0
  -27.2935  -27.8363   20.7964 C   0  0  0  0  0  0
  -25.9952  -26.3747   19.5250 C   0  0  0  0  0  0
  -24.9611  -27.3774   19.4756 C   0  0  0  0  0  0
  -23.8253  -29.6168   20.1406 C   0  0  0  0  0  0
  -25.4142  -36.2774   24.0258 C   0  0  1  0  0  0
  -20.6022  -28.3807   23.1096 C   0  0  2  0  0  0
  -20.6829  -26.9447   22.5393 C   0  0  0  0  0  0
  -19.5793  -26.6378   21.5218 C   0  0  0  0  0  0
  -18.1987  -26.7959   22.1636 C   0  0  0  0  0  0
  -19.1644  -28.8955   23.2750 C   0  0  0  0  0  0
  -18.9542  -30.1540   23.8793 C   0  0  0  0  0  0
  -17.6525  -30.6617   24.0539 C   0  0  0  0  0  0
  -25.9161  -34.9179   23.4869 C   0  0  0  0  0  0
  -16.5415  -29.9084   23.6365 C   0  0  0  0  0  0
  -16.7350  -28.6504   23.0391 C   0  0  0  0  0  0
  -26.4698  -31.6443   25.0638 C   0  0  0  0  0  0
  -25.3698  -31.3894   26.1226 C   0  0  0  0  0  0
  -27.0638  -30.2740   24.6723 C   0  0  0  0  0  0
  -27.6113  -32.4337   25.7482 C   0  0  0  0  0  0
  -27.5551  -37.1654   24.8460 C   0  0  0  0  0  0
  -21.4533  -29.2992   22.3380 N   0  0  0  0  0  0
  -26.4225  -37.3596   23.9449 N   0  0  0  0  0  0
  -24.8345  -30.8767   22.0677 N   0  0  0  0  0  0
  -23.4214  -28.7808   23.3144 O   0  0  0  0  0  0
  -28.1862  -25.0303   20.2088 O   0  0  0  0  0  0
  -26.5795  -34.8826   22.4473 O   0  0  0  0  0  0
  -23.6128  -32.0853   23.6018 O   0  0  0  0  0  0
  -29.4758  -19.2563   20.3899 C   0  0  0  0  0  0
  -27.9944  -17.3870   19.5949 C   0  0  0  0  0  0
  -28.1995  -23.1109   20.4592 C   0  0  0  0  0  0
  -28.7056  -21.0919   19.9066 C   0  0  2  0  0  0
  -29.3314  -17.6093   20.1507 N   0  0  0  0  0  0
  -27.6659  -20.7390   18.9219 N   0  3  0  0  0  0
  -30.4624  -19.4694   21.0979 O   0  0  0  0  0  0
  -31.3162  -13.8113   19.0506 H   0  0  0  0  0  0
  -30.6954  -12.7284   20.2458 H   0  0  0  0  0  0
  -30.1236  -11.9420   17.9225 H   0  0  0  0  0  0
  -29.4143  -13.4881   17.5439 H   0  0  0  0  0  0
  -28.3355  -11.3547   19.3881 H   0  0  0  0  0  0
  -27.5274  -12.0690   18.0119 H   0  0  0  0  0  0
  -27.3716  -14.1672   19.1249 H   0  0  0  0  0  0
  -28.9587  -13.1043   21.5110 H   0  0  0  0  0  0
  -28.0473  -14.5863   21.5233 H   0  0  0  0  0  0
  -25.2809   -9.5671   22.4746 H   0  0  0  0  0  0
  -24.0003   -7.4653   22.7500 H   0  0  0  0  0  0
  -21.0868   -8.8790   19.8961 H   0  0  0  0  0  0
  -22.3759  -10.9658   19.6146 H   0  0  0  0  0  0
  -21.1998   -7.6148   23.9704 H   0  0  0  0  0  0
  -21.1470   -6.0529   25.9067 H   0  0  0  0  0  0
  -22.0604   -2.7620   23.2841 H   0  0  0  0  0  0
  -22.4015  -11.9820   22.4880 H   0  0  0  0  0  0
  -21.0982  -13.1127   22.2593 H   0  0  0  0  0  0
  -24.6279  -15.8578   20.5707 H   0  0  0  0  0  0
  -26.2524  -15.6469   20.1597 H   0  0  0  0  0  0
  -26.7713  -32.4713   23.0624 H   0  0  0  0  0  0
  -25.0262  -33.9103   24.9970 H   0  0  0  0  0  0
  -22.8971  -31.1965   21.2702 H   0  0  0  0  0  0
  -23.3821  -35.9287   23.3161 H   0  0  0  0  0  0
  -24.3560  -36.8833   22.2081 H   0  0  0  0  0  0
  -23.7150  -37.6128   23.6803 H   0  0  0  0  0  0
  -26.3701  -31.0926   20.6273 H   0  0  0  0  0  0
  -26.9939  -30.4815   22.1040 H   0  0  0  0  0  0
  -28.1994  -28.0933   21.3251 H   0  0  0  0  0  0
  -25.7743  -25.4635   18.9884 H   0  0  0  0  0  0
  -24.0658  -27.1362   18.9184 H   0  0  0  0  0  0
  -24.0303  -30.3593   19.3684 H   0  0  0  0  0  0
  -22.9226  -29.0978   19.8117 H   0  0  0  0  0  0
  -25.1344  -36.1468   25.0742 H   0  0  0  0  0  0
  -21.0081  -28.3442   24.1233 H   0  0  0  0  0  0
  -20.5699  -26.2430   23.3670 H   0  0  0  0  0  0
  -21.6683  -26.7371   22.1193 H   0  0  0  0  0  0
  -19.6930  -25.6265   21.1306 H   0  0  0  0  0  0
  -19.6725  -27.3138   20.6702 H   0  0  0  0  0  0
  -17.4249  -26.6706   21.4048 H   0  0  0  0  0  0
  -18.0368  -26.0132   22.9063 H   0  0  0  0  0  0
  -19.8016  -30.7392   24.2104 H   0  0  0  0  0  0
  -17.5077  -31.6294   24.5144 H   0  0  0  0  0  0
  -15.5408  -30.2951   23.7747 H   0  0  0  0  0  0
  -15.8757  -28.0782   22.7160 H   0  0  0  0  0  0
  -24.5827  -30.7315   25.7527 H   0  0  0  0  0  0
  -24.9000  -32.3192   26.4441 H   0  0  0  0  0  0
  -25.7823  -30.9162   27.0148 H   0  0  0  0  0  0
  -26.3405  -29.6318   24.1700 H   0  0  0  0  0  0
  -27.3932  -29.7241   25.5550 H   0  0  0  0  0  0
  -27.9443  -30.3796   24.0382 H   0  0  0  0  0  0
  -27.2651  -33.3756   26.1754 H   0  0  0  0  0  0
  -28.4121  -32.6701   25.0455 H   0  0  0  0  0  0
  -28.0569  -31.8654   26.5663 H   0  0  0  0  0  0
  -28.2460  -38.0053   24.7632 H   0  0  0  0  0  0
  -28.1155  -36.2584   24.6137 H   0  0  0  0  0  0
  -27.2285  -37.1095   25.8860 H   0  0  0  0  0  0
  -20.9912  -29.8570   21.6333 H   0  0  0  0  0  0
  -26.0010  -38.2597   24.1587 H   0  0  0  0  0  0
  -27.2277  -17.6566   20.3232 H   0  0  0  0  0  0
  -27.8072  -16.3577   19.2996 H   0  0  0  0  0  0
  -27.8428  -17.9748   18.6902 H   0  0  0  0  0  0
  -28.6891  -23.1261   21.4325 H   0  0  0  0  0  0
  -27.1454  -22.9878   20.7081 H   0  0  0  0  0  0
  -29.5585  -21.3595   19.2828 H   0  0  0  0  0  0
  -26.8097  -20.4822   19.3761 H   0  0  0  0  0  0
  -27.9698  -19.9739   18.3488 H   0  0  0  0  0  0
  -27.4794  -21.5105   18.3085 H   0  0  0  0  0  0
  1 25  1  0  0  0
  1 30  2  0  0  0
  1 75  1  0  0  0
  2  3  1  0  0  0
  2 25  1  0  0  0
  2 78  1  0  0  0
  2 79  1  0  0  0
  3  4  1  0  0  0
  3 80  1  0  0  0
  3 81  1  0  0  0
  4  5  1  0  0  0
  4 82  1  0  0  0
  4 83  1  0  0  0
  5  6  1  0  0  0
  5 26  1  0  0  0
  5 84  1  0  0  0
  6 25  1  0  0  0
  6 85  1  0  0  0
  6 86  1  0  0  0
  7  8  2  0  0  0
  7 26  1  0  0  0
  7 29  1  0  0  0
  8  9  1  0  0  0
  8 22  1  0  0  0
  9 10  1  0  0  0
  9 27  2  0  0  0
 10 11  2  0  0  0
 10 15  1  0  0  0
 11 12  1  0  0  0
 11 87  1  0  0  0
 12 13  2  0  0  0
 12 88  1  0  0  0
 13 14  1  0  0  0
 13 31  1  0  0  0
 14 15  2  0  0  0
 14 89  1  0  0  0
 15 90  1  0  0  0
 16 17  2  0  0  0
 16 21  1  0  0  0
 16 31  1  0  0  0
 17 18  1  0  0  0
 17 91  1  0  0  0
 18 19  2  0  0  0
 18 92  1  0  0  0
 19 20  1  0  0  0
 19 24  1  0  0  0
 20 21  2  0  0  0
 20 93  1  0  0  0
 21 23  1  0  0  0
 22 28  1  0  0  0
 22 32  2  0  0  0
 26 27  1  0  0  0
 28 94  1  0  0  0
 28 95  1  0  0  0
 29 96  1  0  0  0
 29 97  1  0  0  0
 33 34  1  0  0  0
 33 66  1  0  0  0
 33 70  2  0  0  0
 34 36  1  0  0  0
 34 59  1  0  0  0
 34 98  1  0  0  0
 35 44  2  0  0  0
 35 45  1  0  0  0
 35 68  1  0  0  0
 36 56  1  0  0  0
 36 99  1  0  0  0
 37 39  1  0  0  0
 37 47  1  0  0  0
 37 66  1  0  0  0
 37100  1  0  0  0
 38 43  2  0  0  0
 38 46  1  0  0  0
 38 47  1  0  0  0
 39 64  1  0  0  0
 39 67  2  0  0  0
 40 52  1  0  0  0
 40 53  2  0  0  0
 40 58  1  0  0  0
 41101  1  0  0  0
 41102  1  0  0  0
 41103  1  0  0  0
 41 48  1  0  0  0
 42 43  1  0  0  0
 42 66  1  0  0  0
 42104  1  0  0  0
 42105  1  0  0  0
 43 44  1  0  0  0
 44106  1  0  0  0
 45 46  2  0  0  0
 45107  1  0  0  0
 46108  1  0  0  0
 47109  1  0  0  0
 47110  1  0  0  0
 48 56  1  0  0  0
 48 65  1  0  0  0
 48111  1  0  0  0
 49 50  1  0  0  0
 49 53  1  0  0  0
 49 64  1  0  0  0
 49112  1  0  0  0
 50 51  1  0  0  0
 50113  1  0  0  0
 50114  1  0  0  0
 51 52  1  0  0  0
 51115  1  0  0  0
 51116  1  0  0  0
 52117  1  0  0  0
 52118  1  0  0  0
 53 54  1  0  0  0
 54 55  2  0  0  0
 54119  1  0  0  0
 55 57  1  0  0  0
 55120  1  0  0  0
 56 69  2  0  0  0
 57 58  2  0  0  0
 57121  1  0  0  0
 58122  1  0  0  0
 59 60  1  0  0  0
 59 61  1  0  0  0
 59 62  1  0  0  0
 60123  1  0  0  0
 60124  1  0  0  0
 60125  1  0  0  0
 61126  1  0  0  0
 61127  1  0  0  0
 61128  1  0  0  0
 62129  1  0  0  0
 62130  1  0  0  0
 62131  1  0  0  0
 63 65  1  0  0  0
 63132  1  0  0  0
 63133  1  0  0  0
 63134  1  0  0  0
 64135  1  0  0  0
 65136  1  0  0  0
 68 73  1  0  0  0
 71 74  1  0  0  0
 71 75  1  0  0  0
 71 77  2  0  0  0
 72 75  1  0  0  0
 72137  1  0  0  0
 72138  1  0  0  0
 72139  1  0  0  0
 73 74  1  0  0  0
 73140  1  0  0  0
 73141  1  0  0  0
 74 76  1  0  0  0
 74142  1  0  0  0
 76143  1  0  0  0
 76144  1  0  0  0
 76145  1  0  0  0
M  CHG  1  76   1
M  ISO  4   1 100  68 101  73 101  75 100
M  END
> <chiral flag>
0

> <version>
0

> <s_m_source_file>
/data/baiqing/PycharmProjects/Reinvent-master-3.2/result/LINK_invent/BTK/process_docking_weight1_custom_sum_contain_oxygen_bond_distance_aromatic_linkinvent_7_9_3/rearranged_h_0015.sdf

> <i_m_source_file_index>
16

> <r_mmod_Potential_Energy-OPLS-2005>
4212.44775390625

> <r_mmod_Stretch_Energy-OPLS-2005>
2053.83618164062

> <r_mmod_Bend_Energy-OPLS-2005>
937.586975097656

> <r_mmod_Torsional_Energy-OPLS-2005>
296.878204345703

> <r_mmod_Improper_Torsional_Energy-OPLS-2005>
6.22019624710083

> <r_mmod_Van_der_Waal_Energy-OPLS-2005>
111.425727844238

> <r_mmod_Electrostatic_Energy-OPLS-2005>
-352.255554199219

> <r_mmod_Solvation_Energy-OPLS-2005>
-591.765502929688

> <b_mmod_Minimization_Converged-OPLS-2005>
0

> <r_mmod_RMS_Derivative-OPLS-2005>
2.65334486961365

$$$$
16
                    3D
 Structure written by MMmdl.
161169  0  0  1  0            999 V2000
  -30.6154  -14.6538   20.4981 C   0  0  0  0  0  0
  -30.4426  -12.4023   19.4565 C   0  0  0  0  0  0
  -29.5131  -12.5172   18.2277 C   0  0  0  0  0  0
  -28.0354  -12.3476   18.6358 C   0  0  0  0  0  0
  -27.6553  -13.2107   19.8680 C   0  0  2  0  0  0
  -28.7010  -13.0705   20.9963 C   0  0  0  0  0  0
  -25.2578  -13.8147   20.5659 C   0  0  0  0  0  0
  -24.1841  -13.0431   20.9175 C   0  0  0  0  0  0
  -24.6406  -11.6899   20.8738 C   0  0  0  0  0  0
  -23.9070  -10.4289   21.0403 C   0  0  0  0  0  0
  -24.3621   -9.4204   21.9179 C   0  0  0  0  0  0
  -23.6299   -8.2240   22.0750 C   0  0  0  0  0  0
  -22.4278   -8.0279   21.3541 C   0  0  0  0  0  0
  -21.9915   -9.0252   20.4644 C   0  0  0  0  0  0
  -22.7243  -10.2133   20.3053 C   0  0  0  0  0  0
  -21.6846   -6.0734   22.5273 C   0  0  0  0  0  0
  -21.4015   -6.5635   23.8211 C   0  0  0  0  0  0
  -21.3666   -5.6788   24.9172 C   0  0  0  0  0  0
  -21.6041   -4.3050   24.7214 C   0  0  0  0  0  0
  -21.8824   -3.8143   23.4337 C   0  0  0  0  0  0
  -21.9194   -4.6962   22.3396 C   0  0  0  0  0  0
  -22.7870  -13.5227   21.1833 C   0  0  0  0  0  0
  -22.1658   -4.2151   21.0973 F   0  0  0  0  0  0
  -21.5634   -3.4537   25.7730 F   0  0  0  0  0  0
  -30.0145  -13.4222   20.4341 N   0  0  0  0  0  0
  -26.3007  -12.9317   20.3328 N   0  0  0  0  0  0
  -25.9329  -11.6478   20.5757 N   0  0  0  0  0  0
  -22.0499  -12.8235   22.0401 N   0  0  0  0  0  0
  -25.4291  -15.1868   20.4047 N   0  0  0  0  0  0
  -31.7793  -14.8203   20.1245 O   0  0  0  0  0  0
  -21.6640   -6.8878   21.4236 O   0  0  0  0  0  0
  -22.3564  -14.5529   20.6678 O   0  0  0  0  0  0
  -24.6253  -31.8604   23.2038 C   0  0  0  0  0  0
  -25.9101  -32.4785   23.8353 C   0  0  1  0  0  0
  -27.2270  -27.3199   20.1124 C   0  0  0  0  0  0
  -25.5918  -33.8582   24.2279 N   0  0  0  0  0  0
  -23.4188  -30.4855   21.5460 C   0  0  2  0  0  0
  -24.8676  -28.9437   20.1111 C   0  0  0  0  0  0
  -22.7464  -29.4634   22.4934 C   0  0  0  0  0  0
  -18.0284  -28.1382   22.8490 C   0  0  0  0  0  0
  -24.1493  -36.7302   23.2642 C   0  0  0  0  0  0
  -25.9600  -30.7930   21.3744 C   0  0  0  0  0  0
  -26.0372  -29.4202   20.7158 C   0  0  0  0  0  0
  -27.2196  -28.6202   20.7091 C   0  0  0  0  0  0
  -26.0321  -26.9017   19.4795 C   0  0  0  0  0  0
  -24.8672  -27.6893   19.4856 C   0  0  0  0  0  0
  -23.6337  -29.8219   20.1606 C   0  0  0  0  0  0
  -25.4113  -36.3085   24.0334 C   0  0  1  0  0  0
  -20.5882  -28.3687   23.1283 C   0  0  2  0  0  0
  -20.6775  -26.9407   22.5413 C   0  0  0  0  0  0
  -19.5750  -26.6382   21.5217 C   0  0  0  0  0  0
  -18.1933  -26.7924   22.1629 C   0  0  0  0  0  0
  -19.1539  -28.8847   23.2886 C   0  0  0  0  0  0
  -18.9459  -30.1451   23.8896 C   0  0  0  0  0  0
  -17.6464  -30.6584   24.0558 C   0  0  0  0  0  0
  -25.9042  -34.9459   23.5109 C   0  0  0  0  0  0
  -16.5351  -29.9084   23.6325 C   0  0  0  0  0  0
  -16.7274  -28.6501   23.0340 C   0  0  0  0  0  0
  -26.4487  -31.6575   25.0716 C   0  0  0  0  0  0
  -25.3718  -31.3710   26.1441 C   0  0  0  0  0  0
  -27.0320  -30.2996   24.6165 C   0  0  0  0  0  0
  -27.6045  -32.4296   25.7486 C   0  0  0  0  0  0
  -27.5579  -37.1806   24.8459 C   0  0  0  0  0  0
  -21.4178  -29.3050   22.3678 N   0  0  0  0  0  0
  -26.4292  -37.3778   23.9407 N   0  0  0  0  0  0
  -24.6869  -31.0608   22.0998 N   0  0  0  0  0  0
  -23.4192  -28.8165   23.3008 O   0  0  0  0  0  0
  -28.3421  -26.4632   20.1612 O   0  0  0  0  0  0
  -26.5616  -34.8927   22.4677 O   0  0  0  0  0  0
  -23.5415  -32.1407   23.7367 O   0  0  0  0  0  0
  -29.6987  -19.2694   19.3633 C   0  0  0  0  0  0
  -30.1745  -17.9881   21.7878 C   0  0  0  0  0  0
  -29.6679  -17.8355   19.4292 C   0  0  0  0  0  0
  -29.9647  -20.0998   20.4844 C   0  0  0  0  0  0
  -29.9410  -17.1536   20.6607 C   0  0  0  0  0  0
  -30.1848  -19.4141   21.7145 C   0  0  0  0  0  0
  -29.2920  -24.0305   20.3060 C   0  0  0  0  0  0
  -29.9468  -22.1355   24.0377 C   0  0  0  0  0  0
  -30.2269  -21.6476   20.3212 C   0  0  0  0  0  0
  -28.0952  -25.0074   19.9842 C   0  0  0  0  0  0
  -29.3992  -20.8484   23.4144 C   0  0  0  0  0  0
  -29.3067  -17.0569   18.1616 C   0  0  0  0  0  0
  -29.8058  -15.7023   20.8532 N   0  0  0  0  0  0
  -29.1261  -22.6676   20.2213 N   0  0  0  0  0  0
  -30.3865  -24.5132   20.6078 O   0  0  0  0  0  0
  -30.4819  -20.1092   22.8593 O   0  0  0  0  0  0
  -29.0425  -17.8623   17.1319 F   0  0  0  0  0  0
  -30.3061  -16.2550   17.7998 F   0  0  0  0  0  0
  -28.2201  -16.3176   18.3801 F   0  0  0  0  0  0
  -31.4834  -12.5327   19.1555 H   0  0  0  0  0  0
  -30.3809  -11.4061   19.8972 H   0  0  0  0  0  0
  -29.7859  -11.7741   17.4773 H   0  0  0  0  0  0
  -29.6470  -13.4924   17.7561 H   0  0  0  0  0  0
  -27.8731  -11.2929   18.8594 H   0  0  0  0  0  0
  -27.3843  -12.5859   17.7931 H   0  0  0  0  0  0
  -27.6713  -14.2454   19.5351 H   0  0  0  0  0  0
  -28.7168  -12.0484   21.3777 H   0  0  0  0  0  0
  -28.4447  -13.7026   21.8483 H   0  0  0  0  0  0
  -25.2764   -9.5682   22.4756 H   0  0  0  0  0  0
  -24.0007   -7.4629   22.7473 H   0  0  0  0  0  0
  -21.0838   -8.8775   19.8951 H   0  0  0  0  0  0
  -22.3695  -10.9677   19.6170 H   0  0  0  0  0  0
  -21.2009   -7.6144   23.9717 H   0  0  0  0  0  0
  -21.1483   -6.0514   25.9077 H   0  0  0  0  0  0
  -22.0602   -2.7606   23.2834 H   0  0  0  0  0  0
  -22.4099  -11.9906   22.4816 H   0  0  0  0  0  0
  -21.1119  -13.1281   22.2576 H   0  0  0  0  0  0
  -24.6549  -15.8354   20.4970 H   0  0  0  0  0  0
  -26.2643  -15.6182   20.0292 H   0  0  0  0  0  0
  -26.7155  -32.5463   23.1086 H   0  0  0  0  0  0
  -25.0023  -33.9722   25.0395 H   0  0  0  0  0  0
  -22.7142  -31.3071   21.4027 H   0  0  0  0  0  0
  -23.3754  -35.9634   23.3296 H   0  0  0  0  0  0
  -24.3579  -36.8938   22.2057 H   0  0  0  0  0  0
  -23.7255  -37.6511   23.6658 H   0  0  0  0  0  0
  -26.0866  -31.5595   20.6077 H   0  0  0  0  0  0
  -26.8415  -30.8429   22.0024 H   0  0  0  0  0  0
  -28.1145  -28.9812   21.1964 H   0  0  0  0  0  0
  -25.9618  -25.9500   18.9756 H   0  0  0  0  0  0
  -23.9719  -27.3199   19.0052 H   0  0  0  0  0  0
  -23.7480  -30.5987   19.4035 H   0  0  0  0  0  0
  -22.7550  -29.2497   19.8581 H   0  0  0  0  0  0
  -25.1296  -36.1937   25.0826 H   0  0  0  0  0  0
  -20.9973  -28.3262   24.1410 H   0  0  0  0  0  0
  -20.5667  -26.2300   23.3617 H   0  0  0  0  0  0
  -21.6644  -26.7436   22.1211 H   0  0  0  0  0  0
  -19.6909  -25.6297   21.1245 H   0  0  0  0  0  0
  -19.6684  -27.3193   20.6746 H   0  0  0  0  0  0
  -17.4200  -26.6667   21.4036 H   0  0  0  0  0  0
  -18.0331  -26.0067   22.9023 H   0  0  0  0  0  0
  -19.7938  -30.7262   24.2266 H   0  0  0  0  0  0
  -17.5018  -31.6263   24.5160 H   0  0  0  0  0  0
  -15.5350  -30.2977   23.7654 H   0  0  0  0  0  0
  -15.8676  -28.0818   22.7045 H   0  0  0  0  0  0
  -24.5900  -30.7053   25.7768 H   0  0  0  0  0  0
  -24.8898  -32.2876   26.4850 H   0  0  0  0  0  0
  -25.8047  -30.8897   27.0220 H   0  0  0  0  0  0
  -26.2891  -29.6757   24.1189 H   0  0  0  0  0  0
  -27.4017  -29.7240   25.4661 H   0  0  0  0  0  0
  -27.8757  -30.4275   23.9380 H   0  0  0  0  0  0
  -27.2654  -33.3590   26.2065 H   0  0  0  0  0  0
  -28.3854  -32.6867   25.0316 H   0  0  0  0  0  0
  -28.0705  -31.8418   26.5407 H   0  0  0  0  0  0
  -28.2592  -38.0107   24.7501 H   0  0  0  0  0  0
  -28.1078  -36.2641   24.6277 H   0  0  0  0  0  0
  -27.2292  -37.1445   25.8861 H   0  0  0  0  0  0
  -20.9353  -29.8789   21.6906 H   0  0  0  0  0  0
  -26.0180  -38.2858   24.1401 H   0  0  0  0  0  0
  -29.5432  -19.7529   18.4101 H   0  0  0  0  0  0
  -30.3450  -17.5259   22.7499 H   0  0  0  0  0  0
  -30.6840  -21.9143   24.8097 H   0  0  0  0  0  0
  -29.1476  -22.7166   24.4983 H   0  0  0  0  0  0
  -30.4253  -22.7660   23.2884 H   0  0  0  0  0  0
  -30.8245  -21.7586   19.4153 H   0  0  0  0  0  0
  -30.9035  -21.9512   21.1200 H   0  0  0  0  0  0
  -27.2545  -24.6992   20.6076 H   0  0  0  0  0  0
  -27.8226  -24.8181   18.9457 H   0  0  0  0  0  0
  -28.6295  -21.0894   22.6793 H   0  0  0  0  0  0
  -28.9171  -20.2397   24.1800 H   0  0  0  0  0  0
  -28.9045  -15.4066   21.1955 H   0  0  0  0  0  0
  -28.2064  -22.3278   19.9745 H   0  0  0  0  0  0
  1 25  1  0  0  0
  1 30  2  0  0  0
  1 83  1  0  0  0
  2  3  1  0  0  0
  2 25  1  0  0  0
  2 90  1  0  0  0
  2 91  1  0  0  0
  3  4  1  0  0  0
  3 92  1  0  0  0
  3 93  1  0  0  0
  4  5  1  0  0  0
  4 94  1  0  0  0
  4 95  1  0  0  0
  5  6  1  0  0  0
  5 26  1  0  0  0
  5 96  1  0  0  0
  6 25  1  0  0  0
  6 97  1  0  0  0
  6 98  1  0  0  0
  7  8  2  0  0  0
  7 26  1  0  0  0
  7 29  1  0  0  0
  8  9  1  0  0  0
  8 22  1  0  0  0
  9 10  1  0  0  0
  9 27  2  0  0  0
 10 11  2  0  0  0
 10 15  1  0  0  0
 11 12  1  0  0  0
 11 99  1  0  0  0
 12 13  2  0  0  0
 12100  1  0  0  0
 13 14  1  0  0  0
 13 31  1  0  0  0
 14 15  2  0  0  0
 14101  1  0  0  0
 15102  1  0  0  0
 16 17  2  0  0  0
 16 21  1  0  0  0
 16 31  1  0  0  0
 17 18  1  0  0  0
 17103  1  0  0  0
 18 19  2  0  0  0
 18104  1  0  0  0
 19 20  1  0  0  0
 19 24  1  0  0  0
 20 21  2  0  0  0
 20105  1  0  0  0
 21 23  1  0  0  0
 22 28  1  0  0  0
 22 32  2  0  0  0
 26 27  1  0  0  0
 28106  1  0  0  0
 28107  1  0  0  0
 29108  1  0  0  0
 29109  1  0  0  0
 33 34  1  0  0  0
 33 66  1  0  0  0
 33 70  2  0  0  0
 34 36  1  0  0  0
 34 59  1  0  0  0
 34110  1  0  0  0
 35 44  2  0  0  0
 35 45  1  0  0  0
 35 68  1  0  0  0
 36 56  1  0  0  0
 36111  1  0  0  0
 37 39  1  0  0  0
 37 47  1  0  0  0
 37 66  1  0  0  0
 37112  1  0  0  0
 38 43  2  0  0  0
 38 46  1  0  0  0
 38 47  1  0  0  0
 39 64  1  0  0  0
 39 67  2  0  0  0
 40 52  1  0  0  0
 40 53  2  0  0  0
 40 58  1  0  0  0
 41113  1  0  0  0
 41114  1  0  0  0
 41115  1  0  0  0
 41 48  1  0  0  0
 42 43  1  0  0  0
 42 66  1  0  0  0
 42116  1  0  0  0
 42117  1  0  0  0
 43 44  1  0  0  0
 44118  1  0  0  0
 45 46  2  0  0  0
 45119  1  0  0  0
 46120  1  0  0  0
 47121  1  0  0  0
 47122  1  0  0  0
 48 56  1  0  0  0
 48 65  1  0  0  0
 48123  1  0  0  0
 49 50  1  0  0  0
 49 53  1  0  0  0
 49 64  1  0  0  0
 49124  1  0  0  0
 50 51  1  0  0  0
 50125  1  0  0  0
 50126  1  0  0  0
 51 52  1  0  0  0
 51127  1  0  0  0
 51128  1  0  0  0
 52129  1  0  0  0
 52130  1  0  0  0
 53 54  1  0  0  0
 54 55  2  0  0  0
 54131  1  0  0  0
 55 57  1  0  0  0
 55132  1  0  0  0
 56 69  2  0  0  0
 57 58  2  0  0  0
 57133  1  0  0  0
 58134  1  0  0  0
 59 60  1  0  0  0
 59 61  1  0  0  0
 59 62  1  0  0  0
 60135  1  0  0  0
 60136  1  0  0  0
 60137  1  0  0  0
 61138  1  0  0  0
 61139  1  0  0  0
 61140  1  0  0  0
 62141  1  0  0  0
 62142  1  0  0  0
 62143  1  0  0  0
 63 65  1  0  0  0
 63144  1  0  0  0
 63145  1  0  0  0
 63146  1  0  0  0
 64147  1  0  0  0
 65148  1  0  0  0
 68 80  1  0  0  0
 71 73  2  0  0  0
 71 74  1  0  0  0
 71149  1  0  0  0
 72 75  2  0  0  0
 72 76  1  0  0  0
 72150  1  0  0  0
 73 75  1  0  0  0
 73 82  1  0  0  0
 74 76  2  0  0  0
 74 79  1  0  0  0
 75 83  1  0  0  0
 76 86  1  0  0  0
 77 80  1  0  0  0
 77 84  1  0  0  0
 77 85  2  0  0  0
 78 81  1  0  0  0
 78151  1  0  0  0
 78152  1  0  0  0
 78153  1  0  0  0
 79 84  1  0  0  0
 79154  1  0  0  0
 79155  1  0  0  0
 80156  1  0  0  0
 80157  1  0  0  0
 81 86  1  0  0  0
 81158  1  0  0  0
 81159  1  0  0  0
 82 87  1  0  0  0
 82 88  1  0  0  0
 82 89  1  0  0  0
 83160  1  0  0  0
 84161  1  0  0  0
M  ISO  4   1 100  68 101  80 101  83 100
M  END
> <chiral flag>
0

> <version>
0

> <s_m_source_file>
/data/baiqing/PycharmProjects/Reinvent-master-3.2/result/LINK_invent/BTK/process_docking_weight1_custom_sum_contain_oxygen_bond_distance_aromatic_linkinvent_7_9_3/rearranged_h_0015.sdf

> <i_m_source_file_index>
17

> <r_mmod_Potential_Energy-OPLS-2005>
81.5378875732422

> <r_mmod_Stretch_Energy-OPLS-2005>
83.5987854003906

> <r_mmod_Bend_Energy-OPLS-2005>
135.036254882812

> <r_mmod_Torsional_Energy-OPLS-2005>
277.134002685547

> <r_mmod_Improper_Torsional_Energy-OPLS-2005>
6.08492136001587

> <r_mmod_Van_der_Waal_Energy-OPLS-2005>
138.073013305664

> <r_mmod_Electrostatic_Energy-OPLS-2005>
-361.366516113281

> <r_mmod_Solvation_Energy-OPLS-2005>
-247.934860229492

> <b_mmod_Minimization_Converged-OPLS-2005>
0

> <r_mmod_RMS_Derivative-OPLS-2005>
1.57433831691742

$$$$
17
                    3D
 Structure written by MMmdl.
167175  0  0  1  0            999 V2000
  -30.7165  -14.6006   20.4958 C   0  0  0  0  0  0
  -30.4207  -12.3639   19.4739 C   0  0  0  0  0  0
  -29.5087  -12.4773   18.2346 C   0  0  0  0  0  0
  -28.0275  -12.3514   18.6405 C   0  0  0  0  0  0
  -27.6547  -13.2284   19.8661 C   0  0  2  0  0  0
  -28.7009  -13.1346   21.0001 C   0  0  0  0  0  0
  -25.2540  -13.8205   20.5685 C   0  0  0  0  0  0
  -24.1853  -13.0479   20.9197 C   0  0  0  0  0  0
  -24.6406  -11.6931   20.8784 C   0  0  0  0  0  0
  -23.9076  -10.4319   21.0446 C   0  0  0  0  0  0
  -24.3666   -9.4211   21.9171 C   0  0  0  0  0  0
  -23.6339   -8.2250   22.0716 C   0  0  0  0  0  0
  -22.4312   -8.0298   21.3537 C   0  0  0  0  0  0
  -21.9970   -9.0267   20.4626 C   0  0  0  0  0  0
  -22.7284  -10.2139   20.3036 C   0  0  0  0  0  0
  -21.6870   -6.0737   22.5259 C   0  0  0  0  0  0
  -21.4026   -6.5624   23.8191 C   0  0  0  0  0  0
  -21.3653   -5.6763   24.9143 C   0  0  0  0  0  0
  -21.6050   -4.3039   24.7197 C   0  0  0  0  0  0
  -21.8821   -3.8137   23.4317 C   0  0  0  0  0  0
  -21.9210   -4.6962   22.3374 C   0  0  0  0  0  0
  -22.7861  -13.5251   21.1856 C   0  0  0  0  0  0
  -22.1678   -4.2135   21.0953 F   0  0  0  0  0  0
  -21.5641   -3.4524   25.7714 F   0  0  0  0  0  0
  -30.0159  -13.4252   20.4208 N   0  0  0  0  0  0
  -26.3004  -12.9411   20.3370 N   0  0  0  0  0  0
  -25.9339  -11.6550   20.5815 N   0  0  0  0  0  0
  -22.0546  -12.8208   22.0405 N   0  0  0  0  0  0
  -25.4256  -15.1963   20.4072 N   0  0  0  0  0  0
  -31.8970  -14.6517   20.1467 O   0  0  0  0  0  0
  -21.6657   -6.8917   21.4237 O   0  0  0  0  0  0
  -22.3500  -14.5529   20.6631 O   0  0  0  0  0  0
  -24.6249  -31.8695   23.2130 C   0  0  0  0  0  0
  -25.9104  -32.4829   23.8437 C   0  0  1  0  0  0
  -27.1770  -27.3484   20.0812 C   0  0  0  0  0  0
  -25.5944  -33.8645   24.2353 N   0  0  0  0  0  0
  -23.4090  -30.5040   21.5601 C   0  0  2  0  0  0
  -24.8367  -28.9825   20.1128 C   0  0  0  0  0  0
  -22.7456  -29.4660   22.4970 C   0  0  0  0  0  0
  -18.0279  -28.1294   22.8498 C   0  0  0  0  0  0
  -24.1504  -36.7278   23.2637 C   0  0  0  0  0  0
  -25.9562  -30.8028   21.3856 C   0  0  0  0  0  0
  -26.0146  -29.4401   20.7171 C   0  0  0  0  0  0
  -27.1868  -28.6301   20.7016 C   0  0  0  0  0  0
  -25.9706  -26.9631   19.4367 C   0  0  0  0  0  0
  -24.8132  -27.7462   19.4697 C   0  0  0  0  0  0
  -23.6131  -29.8631   20.1672 C   0  0  0  0  0  0
  -25.4122  -36.3091   24.0341 C   0  0  1  0  0  0
  -20.5903  -28.3630   23.1261 C   0  0  2  0  0  0
  -20.6770  -26.9360   22.5361 C   0  0  0  0  0  0
  -19.5733  -26.6342   21.5172 C   0  0  0  0  0  0
  -18.1923  -26.7834   22.1616 C   0  0  0  0  0  0
  -19.1543  -28.8782   23.2882 C   0  0  0  0  0  0
  -18.9460  -30.1369   23.8918 C   0  0  0  0  0  0
  -17.6456  -30.6535   24.0514 C   0  0  0  0  0  0
  -25.9062  -34.9482   23.5126 C   0  0  0  0  0  0
  -16.5358  -29.9028   23.6277 C   0  0  0  0  0  0
  -16.7274  -28.6393   23.0403 C   0  0  0  0  0  0
  -26.4513  -31.6605   25.0775 C   0  0  0  0  0  0
  -25.3754  -31.3725   26.1498 C   0  0  0  0  0  0
  -27.0340  -30.3034   24.6180 C   0  0  0  0  0  0
  -27.6099  -32.4317   25.7524 C   0  0  0  0  0  0
  -27.5583  -37.1793   24.8470 C   0  0  0  0  0  0
  -21.4192  -29.3025   22.3713 N   0  0  0  0  0  0
  -26.4288  -37.3784   23.9431 N   0  0  0  0  0  0
  -24.6828  -31.0736   22.1077 N   0  0  0  0  0  0
  -23.4220  -28.8145   23.2975 O   0  0  0  0  0  0
  -28.2869  -26.4949   20.1352 O   0  0  0  0  0  0
  -26.5606  -34.8924   22.4677 O   0  0  0  0  0  0
  -23.5415  -32.1522   23.7437 O   0  0  0  0  0  0
  -28.7479  -19.0101   20.1615 C   0  0  0  0  0  0
  -31.0802  -19.6429   20.3865 C   0  0  0  0  0  0
  -28.2718  -20.3957   20.7152 C   0  0  0  0  0  0
  -30.7623  -21.0838   20.9050 C   0  0  0  0  0  0
  -30.0756  -18.5154   20.7717 C   0  0  2  0  0  0
  -29.2946  -21.5816   20.7866 C   0  0  1  0  0  0
  -29.9417  -23.5653   17.5988 C   0  0  0  0  0  0
  -27.9348  -21.9927   17.7556 C   0  0  0  0  0  0
  -30.6083  -17.0984   20.2656 C   0  0  0  0  0  0
  -29.2776  -24.1388   20.3366 C   0  0  0  0  0  0
  -29.2691  -22.4267   18.4106 C   0  0  0  0  0  0
  -28.0539  -25.1208   20.1601 C   0  0  0  0  0  0
  -30.0369  -15.7717   20.7064 N   0  0  0  0  0  0
  -29.0640  -22.7234   19.8472 N   0  0  0  0  0  0
  -27.1970  -24.8152   21.1708 F   0  0  0  0  0  0
  -27.4952  -24.7305   18.9962 F   0  0  0  0  0  0
  -31.4643  -12.4579   19.1717 H   0  0  0  0  0  0
  -30.3290  -11.3806   19.9415 H   0  0  0  0  0  0
  -29.7727  -11.7019   17.5138 H   0  0  0  0  0  0
  -29.6786  -13.4321   17.7374 H   0  0  0  0  0  0
  -27.8512  -11.3015   18.8815 H   0  0  0  0  0  0
  -27.3877  -12.5987   17.7912 H   0  0  0  0  0  0
  -27.6724  -14.2592   19.5153 H   0  0  0  0  0  0
  -28.6941  -12.1433   21.4572 H   0  0  0  0  0  0
  -28.4656  -13.8419   21.7953 H   0  0  0  0  0  0
  -25.2836   -9.5674   22.4715 H   0  0  0  0  0  0
  -24.0052   -7.4633   22.7408 H   0  0  0  0  0  0
  -21.0896   -8.8783   19.8937 H   0  0  0  0  0  0
  -22.3777  -10.9662   19.6126 H   0  0  0  0  0  0
  -21.1990   -7.6116   23.9701 H   0  0  0  0  0  0
  -21.1499   -6.0478   25.9045 H   0  0  0  0  0  0
  -22.0625   -2.7591   23.2812 H   0  0  0  0  0  0
  -22.4227  -11.9903   22.4801 H   0  0  0  0  0  0
  -21.1120  -13.1111   22.2589 H   0  0  0  0  0  0
  -24.6641  -15.8571   20.5069 H   0  0  0  0  0  0
  -26.2675  -15.6321   20.0547 H   0  0  0  0  0  0
  -26.7174  -32.5495   23.1193 H   0  0  0  0  0  0
  -25.0182  -33.9844   25.0549 H   0  0  0  0  0  0
  -22.7002  -31.3271   21.4302 H   0  0  0  0  0  0
  -23.3778  -35.9592   23.3276 H   0  0  0  0  0  0
  -24.3590  -36.8923   22.2054 H   0  0  0  0  0  0
  -23.7257  -37.6481   23.6657 H   0  0  0  0  0  0
  -26.1000  -31.5726   20.6262 H   0  0  0  0  0  0
  -26.8367  -30.8331   22.0166 H   0  0  0  0  0  0
  -28.0967  -28.9531   21.1840 H   0  0  0  0  0  0
  -25.8360  -26.0538   18.8799 H   0  0  0  0  0  0
  -23.9046  -27.3948   18.9916 H   0  0  0  0  0  0
  -23.7461  -30.6519   19.4250 H   0  0  0  0  0  0
  -22.7258  -29.3093   19.8484 H   0  0  0  0  0  0
  -25.1288  -36.1942   25.0830 H   0  0  0  0  0  0
  -20.9998  -28.3154   24.1385 H   0  0  0  0  0  0
  -20.5581  -26.2269   23.3565 H   0  0  0  0  0  0
  -21.6648  -26.7313   22.1222 H   0  0  0  0  0  0
  -19.6877  -25.6255   21.1209 H   0  0  0  0  0  0
  -19.6637  -27.3158   20.6702 H   0  0  0  0  0  0
  -17.4185  -26.6612   21.4022 H   0  0  0  0  0  0
  -18.0302  -25.9934   22.8970 H   0  0  0  0  0  0
  -19.7951  -30.7139   24.2353 H   0  0  0  0  0  0
  -17.5025  -31.6225   24.5093 H   0  0  0  0  0  0
  -15.5358  -30.2944   23.7535 H   0  0  0  0  0  0
  -15.8680  -28.0656   22.7212 H   0  0  0  0  0  0
  -24.5912  -30.7111   25.7793 H   0  0  0  0  0  0
  -24.8973  -32.2899   26.4940 H   0  0  0  0  0  0
  -25.8073  -30.8868   27.0258 H   0  0  0  0  0  0
  -26.2901  -29.6815   24.1193 H   0  0  0  0  0  0
  -27.4062  -29.7245   25.4640 H   0  0  0  0  0  0
  -27.8771  -30.4341   23.9395 H   0  0  0  0  0  0
  -27.2731  -33.3614   26.2117 H   0  0  0  0  0  0
  -28.3881  -32.6889   25.0322 H   0  0  0  0  0  0
  -28.0794  -31.8438   26.5423 H   0  0  0  0  0  0
  -28.2579  -38.0113   24.7502 H   0  0  0  0  0  0
  -28.1090  -36.2627   24.6265 H   0  0  0  0  0  0
  -27.2286  -37.1406   25.8873 H   0  0  0  0  0  0
  -20.9322  -29.8864   21.7065 H   0  0  0  0  0  0
  -26.0159  -38.2857   24.1422 H   0  0  0  0  0  0
  -28.8674  -19.0610   19.0790 H   0  0  0  0  0  0
  -27.9683  -18.2662   20.3293 H   0  0  0  0  0  0
  -32.0774  -19.3694   20.7284 H   0  0  0  0  0  0
  -31.1543  -19.6888   19.3004 H   0  0  0  0  0  0
  -27.9257  -20.2072   21.7324 H   0  0  0  0  0  0
  -27.3663  -20.7142   20.2057 H   0  0  0  0  0  0
  -31.4392  -21.7971   20.4303 H   0  0  0  0  0  0
  -31.0290  -21.1166   21.9617 H   0  0  0  0  0  0
  -29.9853  -18.4894   21.8581 H   0  0  0  0  0  0
  -29.0748  -22.0368   21.7560 H   0  0  0  0  0  0
  -30.9363  -23.8005   17.9828 H   0  0  0  0  0  0
  -29.3669  -24.4933   17.5726 H   0  0  0  0  0  0
  -30.0664  -23.2761   16.5548 H   0  0  0  0  0  0
  -28.0752  -21.8440   16.6869 H   0  0  0  0  0  0
  -27.1365  -22.7238   17.8713 H   0  0  0  0  0  0
  -27.5534  -21.0462   18.1308 H   0  0  0  0  0  0
  -30.5653  -17.0908   19.1738 H   0  0  0  0  0  0
  -31.6702  -17.0868   20.5219 H   0  0  0  0  0  0
  -29.5358  -24.1343   21.3953 H   0  0  0  0  0  0
  -30.1459  -24.5905   19.8583 H   0  0  0  0  0  0
  -29.9515  -21.5755   18.3447 H   0  0  0  0  0  0
  -29.0587  -15.7060   20.9484 H   0  0  0  0  0  0
  1 25  1  0  0  0
  1 30  2  0  0  0
  1 83  1  0  0  0
  2  3  1  0  0  0
  2 25  1  0  0  0
  2 87  1  0  0  0
  2 88  1  0  0  0
  3  4  1  0  0  0
  3 89  1  0  0  0
  3 90  1  0  0  0
  4  5  1  0  0  0
  4 91  1  0  0  0
  4 92  1  0  0  0
  5  6  1  0  0  0
  5 26  1  0  0  0
  5 93  1  0  0  0
  6 25  1  0  0  0
  6 94  1  0  0  0
  6 95  1  0  0  0
  7  8  2  0  0  0
  7 26  1  0  0  0
  7 29  1  0  0  0
  8  9  1  0  0  0
  8 22  1  0  0  0
  9 10  1  0  0  0
  9 27  2  0  0  0
 10 11  2  0  0  0
 10 15  1  0  0  0
 11 12  1  0  0  0
 11 96  1  0  0  0
 12 13  2  0  0  0
 12 97  1  0  0  0
 13 14  1  0  0  0
 13 31  1  0  0  0
 14 15  2  0  0  0
 14 98  1  0  0  0
 15 99  1  0  0  0
 16 17  2  0  0  0
 16 21  1  0  0  0
 16 31  1  0  0  0
 17 18  1  0  0  0
 17100  1  0  0  0
 18 19  2  0  0  0
 18101  1  0  0  0
 19 20  1  0  0  0
 19 24  1  0  0  0
 20 21  2  0  0  0
 20102  1  0  0  0
 21 23  1  0  0  0
 22 28  1  0  0  0
 22 32  2  0  0  0
 26 27  1  0  0  0
 28103  1  0  0  0
 28104  1  0  0  0
 29105  1  0  0  0
 29106  1  0  0  0
 33 34  1  0  0  0
 33 66  1  0  0  0
 33 70  2  0  0  0
 34 36  1  0  0  0
 34 59  1  0  0  0
 34107  1  0  0  0
 35 44  2  0  0  0
 35 45  1  0  0  0
 35 68  1  0  0  0
 36 56  1  0  0  0
 36108  1  0  0  0
 37 39  1  0  0  0
 37 47  1  0  0  0
 37 66  1  0  0  0
 37109  1  0  0  0
 38 43  2  0  0  0
 38 46  1  0  0  0
 38 47  1  0  0  0
 39 64  1  0  0  0
 39 67  2  0  0  0
 40 52  1  0  0  0
 40 53  2  0  0  0
 40 58  1  0  0  0
 41110  1  0  0  0
 41111  1  0  0  0
 41112  1  0  0  0
 41 48  1  0  0  0
 42 43  1  0  0  0
 42 66  1  0  0  0
 42113  1  0  0  0
 42114  1  0  0  0
 43 44  1  0  0  0
 44115  1  0  0  0
 45 46  2  0  0  0
 45116  1  0  0  0
 46117  1  0  0  0
 47118  1  0  0  0
 47119  1  0  0  0
 48 56  1  0  0  0
 48 65  1  0  0  0
 48120  1  0  0  0
 49 50  1  0  0  0
 49 53  1  0  0  0
 49 64  1  0  0  0
 49121  1  0  0  0
 50 51  1  0  0  0
 50122  1  0  0  0
 50123  1  0  0  0
 51 52  1  0  0  0
 51124  1  0  0  0
 51125  1  0  0  0
 52126  1  0  0  0
 52127  1  0  0  0
 53 54  1  0  0  0
 54 55  2  0  0  0
 54128  1  0  0  0
 55 57  1  0  0  0
 55129  1  0  0  0
 56 69  2  0  0  0
 57 58  2  0  0  0
 57130  1  0  0  0
 58131  1  0  0  0
 59 60  1  0  0  0
 59 61  1  0  0  0
 59 62  1  0  0  0
 60132  1  0  0  0
 60133  1  0  0  0
 60134  1  0  0  0
 61135  1  0  0  0
 61136  1  0  0  0
 61137  1  0  0  0
 62138  1  0  0  0
 62139  1  0  0  0
 62140  1  0  0  0
 63 65  1  0  0  0
 63141  1  0  0  0
 63142  1  0  0  0
 63143  1  0  0  0
 64144  1  0  0  0
 65145  1  0  0  0
 68 82  1  0  0  0
 71 73  1  0  0  0
 71 75  1  0  0  0
 71146  1  0  0  0
 71147  1  0  0  0
 72 74  1  0  0  0
 72 75  1  0  0  0
 72148  1  0  0  0
 72149  1  0  0  0
 73 76  1  0  0  0
 73150  1  0  0  0
 73151  1  0  0  0
 74 76  1  0  0  0
 74152  1  0  0  0
 74153  1  0  0  0
 75 79  1  0  0  0
 75154  1  0  0  0
 76 84  1  0  0  0
 76155  1  0  0  0
 77156  1  0  0  0
 77157  1  0  0  0
 77158  1  0  0  0
 77 81  1  0  0  0
 78 81  1  0  0  0
 78159  1  0  0  0
 78160  1  0  0  0
 78161  1  0  0  0
 79 83  1  0  0  0
 79162  1  0  0  0
 79163  1  0  0  0
 80 82  1  0  0  0
 80 84  1  0  0  0
 80164  1  0  0  0
 80165  1  0  0  0
 81 84  1  0  0  0
 81166  1  0  0  0
 82 85  1  0  0  0
 82 86  1  0  0  0
 83167  1  0  0  0
M  ISO  4   1 100  68 101  82 101  83 100
M  END
> <chiral flag>
0

> <version>
0

> <s_m_source_file>
/data/baiqing/PycharmProjects/Reinvent-master-3.2/result/LINK_invent/BTK/process_docking_weight1_custom_sum_contain_oxygen_bond_distance_aromatic_linkinvent_7_9_3/rearranged_h_0015.sdf

> <i_m_source_file_index>
18

> <r_mmod_Potential_Energy-OPLS-2005>
169.778518676758

> <r_mmod_Stretch_Energy-OPLS-2005>
75.1381912231445

> <r_mmod_Bend_Energy-OPLS-2005>
189.624816894531

> <r_mmod_Torsional_Energy-OPLS-2005>
275.912017822266

> <r_mmod_Improper_Torsional_Energy-OPLS-2005>
6.45148038864136

> <r_mmod_Van_der_Waal_Energy-OPLS-2005>
159.939147949219

> <r_mmod_Electrostatic_Energy-OPLS-2005>
-392.834716796875

> <r_mmod_Solvation_Energy-OPLS-2005>
-191.280029296875

> <b_mmod_Minimization_Converged-OPLS-2005>
0

> <r_mmod_RMS_Derivative-OPLS-2005>
7.02784585952759

$$$$
18
                    3D
 Structure written by MMmdl.
176184  0  0  1  0            999 V2000
  -30.8189  -14.2747   20.8019 C   0  0  0  0  0  0
  -30.4261  -12.3027   19.3639 C   0  0  0  0  0  0
  -29.4739  -12.5364   18.1780 C   0  0  0  0  0  0
  -28.0063  -12.3778   18.6069 C   0  0  0  0  0  0
  -27.6686  -13.2002   19.8744 C   0  0  2  0  0  0
  -28.7038  -12.9380   20.9885 C   0  0  0  0  0  0
  -25.2621  -13.8136   20.5675 C   0  0  0  0  0  0
  -24.1867  -13.0430   20.9170 C   0  0  0  0  0  0
  -24.6397  -11.6896   20.8703 C   0  0  0  0  0  0
  -23.9039  -10.4287   21.0363 C   0  0  0  0  0  0
  -24.3584   -9.4202   21.9139 C   0  0  0  0  0  0
  -23.6256   -8.2240   22.0732 C   0  0  0  0  0  0
  -22.4240   -8.0271   21.3529 C   0  0  0  0  0  0
  -21.9876   -9.0246   20.4633 C   0  0  0  0  0  0
  -22.7201  -10.2130   20.3028 C   0  0  0  0  0  0
  -21.6840   -6.0713   22.5271 C   0  0  0  0  0  0
  -21.4017   -6.5627   23.8207 C   0  0  0  0  0  0
  -21.3651   -5.6785   24.9177 C   0  0  0  0  0  0
  -21.6052   -4.3049   24.7228 C   0  0  0  0  0  0
  -21.8834   -3.8131   23.4356 C   0  0  0  0  0  0
  -21.9196   -4.6940   22.3410 C   0  0  0  0  0  0
  -22.7885  -13.5247   21.1822 C   0  0  0  0  0  0
  -22.1678   -4.2128   21.0985 F   0  0  0  0  0  0
  -21.5613   -3.4532   25.7740 F   0  0  0  0  0  0
  -30.0615  -13.2014   20.4680 N   0  0  0  0  0  0
  -26.3066  -12.9308   20.3361 N   0  0  0  0  0  0
  -25.9332  -11.6472   20.5753 N   0  0  0  0  0  0
  -22.0531  -12.8247   22.0393 N   0  0  0  0  0  0
  -25.4388  -15.1840   20.4061 N   0  0  0  0  0  0
  -31.7432  -14.7051   20.1037 O   0  0  0  0  0  0
  -21.6634   -6.8854   21.4227 O   0  0  0  0  0  0
  -22.3581  -14.5550   20.6659 O   0  0  0  0  0  0
  -24.6109  -31.8699   23.2108 C   0  0  0  0  0  0
  -25.9018  -32.4832   23.8398 C   0  0  1  0  0  0
  -27.2440  -27.4750   20.0927 C   0  0  0  0  0  0
  -25.5882  -33.8628   24.2330 N   0  0  0  0  0  0
  -23.3970  -30.4904   21.5515 C   0  0  2  0  0  0
  -24.8444  -28.9521   20.1233 C   0  0  0  0  0  0
  -22.7390  -29.4660   22.5026 C   0  0  0  0  0  0
  -18.0269  -28.1366   22.8502 C   0  0  0  0  0  0
  -24.1479  -36.7323   23.2636 C   0  0  0  0  0  0
  -25.9201  -30.8472   21.3557 C   0  0  0  0  0  0
  -26.0004  -29.4808   20.7115 C   0  0  0  0  0  0
  -27.2050  -28.7491   20.6915 C   0  0  0  0  0  0
  -26.0736  -26.9404   19.5156 C   0  0  0  0  0  0
  -24.8723  -27.6773   19.5271 C   0  0  0  0  0  0
  -23.6039  -29.8151   20.1685 C   0  0  0  0  0  0
  -25.4095  -36.3113   24.0341 C   0  0  1  0  0  0
  -20.5857  -28.3641   23.1342 C   0  0  2  0  0  0
  -20.6754  -26.9381   22.5427 C   0  0  0  0  0  0
  -19.5733  -26.6382   21.5216 C   0  0  0  0  0  0
  -18.1911  -26.7918   22.1627 C   0  0  0  0  0  0
  -19.1520  -28.8823   23.2917 C   0  0  0  0  0  0
  -18.9446  -30.1435   23.8920 C   0  0  0  0  0  0
  -17.6447  -30.6575   24.0568 C   0  0  0  0  0  0
  -25.9029  -34.9479   23.5134 C   0  0  0  0  0  0
  -16.5340  -29.9078   23.6324 C   0  0  0  0  0  0
  -16.7260  -28.6496   23.0347 C   0  0  0  0  0  0
  -26.4465  -31.6605   25.0714 C   0  0  0  0  0  0
  -25.3752  -31.3710   26.1481 C   0  0  0  0  0  0
  -27.0273  -30.3048   24.6053 C   0  0  0  0  0  0
  -27.6049  -32.4318   25.7473 C   0  0  0  0  0  0
  -27.5581  -37.1800   24.8457 C   0  0  0  0  0  0
  -21.4126  -29.3009   22.3752 N   0  0  0  0  0  0
  -26.4280  -37.3796   23.9421 N   0  0  0  0  0  0
  -24.6609  -31.0832   22.0987 N   0  0  0  0  0  0
  -23.4181  -28.8208   23.3057 O   0  0  0  0  0  0
  -28.4378  -26.8080   20.0101 O   0  0  0  0  0  0
  -26.5596  -34.8932   22.4699 O   0  0  0  0  0  0
  -23.5313  -32.1433   23.7528 O   0  0  0  0  0  0
  -31.5923  -15.6443   24.0682 C   0  0  0  0  0  0
  -32.0944  -18.0230   24.2008 C   0  0  0  0  0  0
  -32.0761  -16.7491   24.7999 C   0  0  0  0  0  0
  -31.1291  -15.8074   22.7448 C   0  0  0  0  0  0
  -31.5981  -18.2117   22.8904 C   0  0  0  0  0  0
  -31.0962  -17.1042   22.1710 C   0  0  0  0  0  0
  -29.5735  -21.4725   19.1558 C   0  0  0  0  0  0
  -32.8591  -21.2903   19.6952 C   0  0  0  0  0  0
  -29.1840  -17.5797   20.9178 C   0  0  0  0  0  0
  -29.2810  -24.5735   19.8778 C   0  0  0  0  0  0
  -29.9818  -23.4703   20.6945 C   0  0  0  0  0  0
  -31.9079  -21.7383   21.9569 C   0  0  0  0  0  0
  -28.5430  -25.6001   20.7493 C   0  0  0  0  0  0
  -32.4158  -20.4787   22.6689 C   0  0  0  0  0  0
  -30.6367  -22.3659   19.8198 C   0  0  1  0  0  0
  -32.5797  -16.6016   26.2287 C   0  0  0  0  0  0
  -30.6225  -14.6646   22.0727 N   0  0  0  0  0  0
  -31.6326  -21.4835   20.5116 N   0  3  1  0  0  0
  -30.5787  -17.3116   20.9198 O   0  0  0  0  0  0
  -31.5274  -19.4377   22.2684 O   0  0  0  0  0  0
  -32.4602  -15.3521   26.6762 F   0  0  0  0  0  0
  -33.8649  -16.9491   26.2780 F   0  0  0  0  0  0
  -31.8913  -17.4079   27.0379 F   0  0  0  0  0  0
  -31.4564  -12.4496   19.0360 H   0  0  0  0  0  0
  -30.3688  -11.2690   19.7081 H   0  0  0  0  0  0
  -29.7040  -11.8377   17.3715 H   0  0  0  0  0  0
  -29.6313  -13.5347   17.7673 H   0  0  0  0  0  0
  -27.8208  -11.3191   18.7908 H   0  0  0  0  0  0
  -27.3473  -12.6665   17.7867 H   0  0  0  0  0  0
  -27.7302  -14.2556   19.6038 H   0  0  0  0  0  0
  -28.6486  -11.9031   21.3279 H   0  0  0  0  0  0
  -28.4354  -13.5469   21.8523 H   0  0  0  0  0  0
  -25.2727   -9.5684   22.4713 H   0  0  0  0  0  0
  -23.9955   -7.4650   22.7469 H   0  0  0  0  0  0
  -21.0801   -8.8782   19.8952 H   0  0  0  0  0  0
  -22.3644  -10.9673   19.6148 H   0  0  0  0  0  0
  -21.2035   -7.6140   23.9708 H   0  0  0  0  0  0
  -21.1442   -6.0514   25.9075 H   0  0  0  0  0  0
  -22.0620   -2.7585   23.2879 H   0  0  0  0  0  0
  -22.4143  -11.9885   22.4727 H   0  0  0  0  0  0
  -21.1156  -13.1292   22.2618 H   0  0  0  0  0  0
  -24.6793  -15.8456   20.5156 H   0  0  0  0  0  0
  -26.2959  -15.6087   20.0728 H   0  0  0  0  0  0
  -26.7094  -32.5559   23.1175 H   0  0  0  0  0  0
  -25.0017  -33.9785   25.0463 H   0  0  0  0  0  0
  -22.6838  -31.3051   21.4108 H   0  0  0  0  0  0
  -23.3730  -35.9668   23.3300 H   0  0  0  0  0  0
  -24.3577  -36.8934   22.2051 H   0  0  0  0  0  0
  -23.7240  -37.6535   23.6646 H   0  0  0  0  0  0
  -26.0213  -31.6093   20.5818 H   0  0  0  0  0  0
  -26.8126  -30.9085   21.9667 H   0  0  0  0  0  0
  -28.1052  -29.1626   21.1240 H   0  0  0  0  0  0
  -26.0988  -25.9699   19.0407 H   0  0  0  0  0  0
  -23.9818  -27.2632   19.0739 H   0  0  0  0  0  0
  -23.7081  -30.5857   19.4040 H   0  0  0  0  0  0
  -22.7295  -29.2305   19.8765 H   0  0  0  0  0  0
  -25.1261  -36.1977   25.0831 H   0  0  0  0  0  0
  -20.9949  -28.3191   24.1462 H   0  0  0  0  0  0
  -20.5642  -26.2243   23.3602 H   0  0  0  0  0  0
  -21.6624  -26.7412   22.1224 H   0  0  0  0  0  0
  -19.6884  -25.6302   21.1217 H   0  0  0  0  0  0
  -19.6669  -27.3217   20.6766 H   0  0  0  0  0  0
  -17.4178  -26.6679   21.4028 H   0  0  0  0  0  0
  -18.0301  -26.0052   22.9015 H   0  0  0  0  0  0
  -19.7921  -30.7247   24.2292 H   0  0  0  0  0  0
  -17.5000  -31.6255   24.5165 H   0  0  0  0  0  0
  -15.5339  -30.2980   23.7636 H   0  0  0  0  0  0
  -15.8664  -28.0820   22.7043 H   0  0  0  0  0  0
  -24.5910  -30.7065   25.7834 H   0  0  0  0  0  0
  -24.8966  -32.2871   26.4953 H   0  0  0  0  0  0
  -25.8127  -30.8869   27.0220 H   0  0  0  0  0  0
  -26.2786  -29.6828   24.1128 H   0  0  0  0  0  0
  -27.4075  -29.7263   25.4484 H   0  0  0  0  0  0
  -27.8613  -30.4369   23.9154 H   0  0  0  0  0  0
  -27.2664  -33.3593   26.2103 H   0  0  0  0  0  0
  -28.3834  -32.6920   25.0290 H   0  0  0  0  0  0
  -28.0747  -31.8416   26.5351 H   0  0  0  0  0  0
  -28.2583  -38.0115   24.7530 H   0  0  0  0  0  0
  -28.1090  -36.2649   24.6231 H   0  0  0  0  0  0
  -27.2315  -37.1394   25.8864 H   0  0  0  0  0  0
  -20.9278  -29.8734   21.6984 H   0  0  0  0  0  0
  -26.0170  -38.2870   24.1445 H   0  0  0  0  0  0
  -31.5821  -14.6684   24.5329 H   0  0  0  0  0  0
  -32.4672  -18.8367   24.8006 H   0  0  0  0  0  0
  -28.8948  -22.0460   18.5257 H   0  0  0  0  0  0
  -28.9693  -20.9511   19.8992 H   0  0  0  0  0  0
  -30.0317  -20.7191   18.5136 H   0  0  0  0  0  0
  -33.5062  -20.5155   20.1047 H   0  0  0  0  0  0
  -33.4367  -22.2121   19.6125 H   0  0  0  0  0  0
  -32.5982  -20.9725   18.6847 H   0  0  0  0  0  0
  -28.8728  -17.8348   19.9051 H   0  0  0  0  0  0
  -28.9315  -18.4197   21.5664 H   0  0  0  0  0  0
  -28.6076  -16.7095   21.2343 H   0  0  0  0  0  0
  -28.5697  -24.1536   19.1681 H   0  0  0  0  0  0
  -30.0362  -25.0876   19.2808 H   0  0  0  0  0  0
  -29.2745  -23.0238   21.3947 H   0  0  0  0  0  0
  -30.7443  -23.9698   21.2935 H   0  0  0  0  0  0
  -32.5938  -22.5747   22.0955 H   0  0  0  0  0  0
  -30.9882  -21.9940   22.4811 H   0  0  0  0  0  0
  -29.1177  -25.8211   21.6495 H   0  0  0  0  0  0
  -27.5778  -25.2075   21.0756 H   0  0  0  0  0  0
  -32.4044  -20.6633   23.7421 H   0  0  0  0  0  0
  -33.4413  -20.2356   22.3880 H   0  0  0  0  0  0
  -31.1637  -22.8921   19.0218 H   0  0  0  0  0  0
  -30.0490  -14.0405   22.6188 H   0  0  0  0  0  0
  -31.1938  -20.5716   20.5335 H   0  0  0  0  0  0
  1 25  1  0  0  0
  1 30  2  0  0  0
  1 87  1  0  0  0
  2  3  1  0  0  0
  2 25  1  0  0  0
  2 94  1  0  0  0
  2 95  1  0  0  0
  3  4  1  0  0  0
  3 96  1  0  0  0
  3 97  1  0  0  0
  4  5  1  0  0  0
  4 98  1  0  0  0
  4 99  1  0  0  0
  5  6  1  0  0  0
  5 26  1  0  0  0
  5100  1  0  0  0
  6 25  1  0  0  0
  6101  1  0  0  0
  6102  1  0  0  0
  7  8  2  0  0  0
  7 26  1  0  0  0
  7 29  1  0  0  0
  8  9  1  0  0  0
  8 22  1  0  0  0
  9 10  1  0  0  0
  9 27  2  0  0  0
 10 11  2  0  0  0
 10 15  1  0  0  0
 11 12  1  0  0  0
 11103  1  0  0  0
 12 13  2  0  0  0
 12104  1  0  0  0
 13 14  1  0  0  0
 13 31  1  0  0  0
 14 15  2  0  0  0
 14105  1  0  0  0
 15106  1  0  0  0
 16 17  2  0  0  0
 16 21  1  0  0  0
 16 31  1  0  0  0
 17 18  1  0  0  0
 17107  1  0  0  0
 18 19  2  0  0  0
 18108  1  0  0  0
 19 20  1  0  0  0
 19 24  1  0  0  0
 20 21  2  0  0  0
 20109  1  0  0  0
 21 23  1  0  0  0
 22 28  1  0  0  0
 22 32  2  0  0  0
 26 27  1  0  0  0
 28110  1  0  0  0
 28111  1  0  0  0
 29112  1  0  0  0
 29113  1  0  0  0
 33 34  1  0  0  0
 33 66  1  0  0  0
 33 70  2  0  0  0
 34 36  1  0  0  0
 34 59  1  0  0  0
 34114  1  0  0  0
 35 44  2  0  0  0
 35 45  1  0  0  0
 35 68  1  0  0  0
 36 56  1  0  0  0
 36115  1  0  0  0
 37 39  1  0  0  0
 37 47  1  0  0  0
 37 66  1  0  0  0
 37116  1  0  0  0
 38 43  2  0  0  0
 38 46  1  0  0  0
 38 47  1  0  0  0
 39 64  1  0  0  0
 39 67  2  0  0  0
 40 52  1  0  0  0
 40 53  2  0  0  0
 40 58  1  0  0  0
 41117  1  0  0  0
 41118  1  0  0  0
 41119  1  0  0  0
 41 48  1  0  0  0
 42 43  1  0  0  0
 42 66  1  0  0  0
 42120  1  0  0  0
 42121  1  0  0  0
 43 44  1  0  0  0
 44122  1  0  0  0
 45 46  2  0  0  0
 45123  1  0  0  0
 46124  1  0  0  0
 47125  1  0  0  0
 47126  1  0  0  0
 48 56  1  0  0  0
 48 65  1  0  0  0
 48127  1  0  0  0
 49 50  1  0  0  0
 49 53  1  0  0  0
 49 64  1  0  0  0
 49128  1  0  0  0
 50 51  1  0  0  0
 50129  1  0  0  0
 50130  1  0  0  0
 51 52  1  0  0  0
 51131  1  0  0  0
 51132  1  0  0  0
 52133  1  0  0  0
 52134  1  0  0  0
 53 54  1  0  0  0
 54 55  2  0  0  0
 54135  1  0  0  0
 55 57  1  0  0  0
 55136  1  0  0  0
 56 69  2  0  0  0
 57 58  2  0  0  0
 57137  1  0  0  0
 58138  1  0  0  0
 59 60  1  0  0  0
 59 61  1  0  0  0
 59 62  1  0  0  0
 60139  1  0  0  0
 60140  1  0  0  0
 60141  1  0  0  0
 61142  1  0  0  0
 61143  1  0  0  0
 61144  1  0  0  0
 62145  1  0  0  0
 62146  1  0  0  0
 62147  1  0  0  0
 63 65  1  0  0  0
 63148  1  0  0  0
 63149  1  0  0  0
 63150  1  0  0  0
 64151  1  0  0  0
 65152  1  0  0  0
 68 83  1  0  0  0
 71 73  2  0  0  0
 71 74  1  0  0  0
 71153  1  0  0  0
 72 73  1  0  0  0
 72 75  2  0  0  0
 72154  1  0  0  0
 73 86  1  0  0  0
 74 76  2  0  0  0
 74 87  1  0  0  0
 75 76  1  0  0  0
 75 90  1  0  0  0
 76 89  1  0  0  0
 77155  1  0  0  0
 77156  1  0  0  0
 77157  1  0  0  0
 77 85  1  0  0  0
 78158  1  0  0  0
 78159  1  0  0  0
 78160  1  0  0  0
 78 88  1  0  0  0
 79 89  1  0  0  0
 79161  1  0  0  0
 79162  1  0  0  0
 79163  1  0  0  0
 80 81  1  0  0  0
 80 83  1  0  0  0
 80164  1  0  0  0
 80165  1  0  0  0
 81 85  1  0  0  0
 81166  1  0  0  0
 81167  1  0  0  0
 82 84  1  0  0  0
 82 88  1  0  0  0
 82168  1  0  0  0
 82169  1  0  0  0
 83170  1  0  0  0
 83171  1  0  0  0
 84 90  1  0  0  0
 84172  1  0  0  0
 84173  1  0  0  0
 85 88  1  0  0  0
 85174  1  0  0  0
 86 91  1  0  0  0
 86 92  1  0  0  0
 86 93  1  0  0  0
 87175  1  0  0  0
 88176  1  0  0  0
M  CHG  1  88   1
M  ISO  4   1 100  68 101  83 101  87 100
M  END
> <chiral flag>
0

> <version>
0

> <s_m_source_file>
/data/baiqing/PycharmProjects/Reinvent-master-3.2/result/LINK_invent/BTK/process_docking_weight1_custom_sum_contain_oxygen_bond_distance_aromatic_linkinvent_7_9_3/rearranged_h_0015.sdf

> <i_m_source_file_index>
19

> <r_mmod_Potential_Energy-OPLS-2005>
-88.2144165039062

> <r_mmod_Stretch_Energy-OPLS-2005>
35.1339988708496

> <r_mmod_Bend_Energy-OPLS-2005>
113.90357208252

> <r_mmod_Torsional_Energy-OPLS-2005>
316.980651855469

> <r_mmod_Improper_Torsional_Energy-OPLS-2005>
5.40011596679688

> <r_mmod_Van_der_Waal_Energy-OPLS-2005>
158.804275512695

> <r_mmod_Electrostatic_Energy-OPLS-2005>
-308.674377441406

> <r_mmod_Solvation_Energy-OPLS-2005>
-420.053588867188

> <b_mmod_Minimization_Converged-OPLS-2005>
0

> <r_mmod_RMS_Derivative-OPLS-2005>
2.51112365722656

$$$$
20
                    3D
 Structure written by MMmdl.
162170  0  0  1  0            999 V2000
  -30.6240  -14.6229   20.5076 C   0  0  0  0  0  0
  -30.4395  -12.3829   19.4503 C   0  0  0  0  0  0
  -29.5082  -12.5093   18.2237 C   0  0  0  0  0  0
  -28.0306  -12.3493   18.6347 C   0  0  0  0  0  0
  -27.6563  -13.2146   19.8675 C   0  0  2  0  0  0
  -28.7003  -13.0543   20.9960 C   0  0  0  0  0  0
  -25.2575  -13.8168   20.5687 C   0  0  0  0  0  0
  -24.1833  -13.0436   20.9182 C   0  0  0  0  0  0
  -24.6397  -11.6906   20.8735 C   0  0  0  0  0  0
  -23.9063  -10.4292   21.0401 C   0  0  0  0  0  0
  -24.3614   -9.4209   21.9181 C   0  0  0  0  0  0
  -23.6289   -8.2244   22.0754 C   0  0  0  0  0  0
  -22.4272   -8.0280   21.3543 C   0  0  0  0  0  0
  -21.9906   -9.0253   20.4646 C   0  0  0  0  0  0
  -22.7234  -10.2133   20.3053 C   0  0  0  0  0  0
  -21.6852   -6.0734   22.5278 C   0  0  0  0  0  0
  -21.4014   -6.5639   23.8211 C   0  0  0  0  0  0
  -21.3660   -5.6792   24.9174 C   0  0  0  0  0  0
  -21.6043   -4.3054   24.7225 C   0  0  0  0  0  0
  -21.8819   -3.8145   23.4346 C   0  0  0  0  0  0
  -21.9194   -4.6962   22.3402 C   0  0  0  0  0  0
  -22.7856  -13.5234   21.1846 C   0  0  0  0  0  0
  -22.1662   -4.2148   21.0978 F   0  0  0  0  0  0
  -21.5630   -3.4537   25.7738 F   0  0  0  0  0  0
  -30.0185  -13.3961   20.4372 N   0  0  0  0  0  0
  -26.3005  -12.9345   20.3335 N   0  0  0  0  0  0
  -25.9327  -11.6501   20.5760 N   0  0  0  0  0  0
  -22.0496  -12.8227   22.0402 N   0  0  0  0  0  0
  -25.4298  -15.1888   20.4111 N   0  0  0  0  0  0
  -31.7802  -14.7940   20.1093 O   0  0  0  0  0  0
  -21.6638   -6.8876   21.4239 O   0  0  0  0  0  0
  -22.3544  -14.5542   20.6698 O   0  0  0  0  0  0
  -24.6251  -31.8609   23.2038 C   0  0  0  0  0  0
  -25.9103  -32.4787   23.8361 C   0  0  1  0  0  0
  -27.2243  -27.3304   20.1136 C   0  0  0  0  0  0
  -25.5924  -33.8587   24.2292 N   0  0  0  0  0  0
  -23.4180  -30.4856   21.5462 C   0  0  2  0  0  0
  -24.8638  -28.9434   20.1110 C   0  0  0  0  0  0
  -22.7468  -29.4633   22.4940 C   0  0  0  0  0  0
  -18.0287  -28.1387   22.8491 C   0  0  0  0  0  0
  -24.1489  -36.7295   23.2639 C   0  0  0  0  0  0
  -25.9581  -30.7959   21.3724 C   0  0  0  0  0  0
  -26.0324  -29.4243   20.7147 C   0  0  0  0  0  0
  -27.2157  -28.6296   20.7063 C   0  0  0  0  0  0
  -26.0318  -26.9018   19.4837 C   0  0  0  0  0  0
  -24.8650  -27.6872   19.4873 C   0  0  0  0  0  0
  -23.6316  -29.8221   20.1607 C   0  0  0  0  0  0
  -25.4113  -36.3089   24.0333 C   0  0  1  0  0  0
  -20.5886  -28.3688   23.1287 C   0  0  2  0  0  0
  -20.6779  -26.9413   22.5409 C   0  0  0  0  0  0
  -19.5754  -26.6388   21.5213 C   0  0  0  0  0  0
  -18.1933  -26.7932   22.1624 C   0  0  0  0  0  0
  -19.1540  -28.8852   23.2887 C   0  0  0  0  0  0
  -18.9463  -30.1455   23.8902 C   0  0  0  0  0  0
  -17.6464  -30.6589   24.0567 C   0  0  0  0  0  0
  -25.9046  -34.9457   23.5112 C   0  0  0  0  0  0
  -16.5354  -29.9090   23.6330 C   0  0  0  0  0  0
  -16.7273  -28.6507   23.0351 C   0  0  0  0  0  0
  -26.4494  -31.6588   25.0720 C   0  0  0  0  0  0
  -25.3735  -31.3714   26.1450 C   0  0  0  0  0  0
  -27.0337  -30.3019   24.6150 C   0  0  0  0  0  0
  -27.6058  -32.4312   25.7492 C   0  0  0  0  0  0
  -27.5580  -37.1805   24.8468 C   0  0  0  0  0  0
  -21.4182  -29.3048   22.3682 N   0  0  0  0  0  0
  -26.4294  -37.3781   23.9409 N   0  0  0  0  0  0
  -24.6861  -31.0635   22.0981 N   0  0  0  0  0  0
  -23.4200  -28.8166   23.3007 O   0  0  0  0  0  0
  -28.3468  -26.4909   20.1668 O   0  0  0  0  0  0
  -26.5612  -34.8922   22.4675 O   0  0  0  0  0  0
  -23.5417  -32.1397   23.7376 O   0  0  0  0  0  0
  -30.1211  -19.2166   19.4603 C   0  0  0  0  0  0
  -29.6938  -19.3582   21.8202 C   0  0  0  0  0  0
  -29.9239  -20.0404   20.5996 C   0  0  0  0  0  0
  -30.1158  -17.7878   19.5308 C   0  0  0  0  0  0
  -29.6878  -17.9337   21.9094 C   0  0  0  0  0  0
  -29.9305  -17.1084   20.7734 C   0  0  0  0  0  0
  -30.2855  -17.0094   18.2371 C   0  0  0  0  0  0
  -29.4307  -17.2937   23.2637 C   0  0  0  0  0  0
  -29.6836  -24.4201   21.9875 C   0  0  0  0  0  0
  -30.1511  -21.5976   20.5580 C   0  0  0  0  0  0
  -28.1292  -25.0300   20.0588 C   0  0  0  0  0  0
  -29.2892  -24.0535   20.5402 C   0  0  2  0  0  0
  -29.8215  -15.6557   20.9087 N   0  0  0  0  0  0
  -28.9878  -22.5556   20.4141 N   0  3  0  0  0  0
  -31.4809  -12.5085   19.1485 H   0  0  0  0  0  0
  -30.3731  -11.3840   19.8840 H   0  0  0  0  0  0
  -29.7700  -11.7620   17.4735 H   0  0  0  0  0  0
  -29.6534  -13.4815   17.7497 H   0  0  0  0  0  0
  -27.8640  -11.2954   18.8605 H   0  0  0  0  0  0
  -27.3767  -12.5857   17.7945 H   0  0  0  0  0  0
  -27.6797  -14.2526   19.5349 H   0  0  0  0  0  0
  -28.7077  -12.0284   21.3671 H   0  0  0  0  0  0
  -28.4465  -13.6761   21.8558 H   0  0  0  0  0  0
  -25.2759   -9.5686   22.4755 H   0  0  0  0  0  0
  -24.0000   -7.4636   22.7474 H   0  0  0  0  0  0
  -21.0839   -8.8769   19.8952 H   0  0  0  0  0  0
  -22.3691  -10.9669   19.6161 H   0  0  0  0  0  0
  -21.2004   -7.6147   23.9714 H   0  0  0  0  0  0
  -21.1482   -6.0522   25.9077 H   0  0  0  0  0  0
  -22.0598   -2.7607   23.2845 H   0  0  0  0  0  0
  -22.4106  -11.9882   22.4785 H   0  0  0  0  0  0
  -21.1115  -13.1256   22.2607 H   0  0  0  0  0  0
  -24.6638  -15.8442   20.5208 H   0  0  0  0  0  0
  -26.2826  -15.6287   20.0889 H   0  0  0  0  0  0
  -26.7169  -32.5461   23.1110 H   0  0  0  0  0  0
  -25.0081  -33.9737   25.0443 H   0  0  0  0  0  0
  -22.7117  -31.3061   21.4048 H   0  0  0  0  0  0
  -23.3752  -35.9626   23.3306 H   0  0  0  0  0  0
  -24.3581  -36.8906   22.2052 H   0  0  0  0  0  0
  -23.7241  -37.6500   23.6652 H   0  0  0  0  0  0
  -26.0862  -31.5596   20.6041 H   0  0  0  0  0  0
  -26.8406  -30.8456   21.9988 H   0  0  0  0  0  0
  -28.1117  -28.9946   21.1888 H   0  0  0  0  0  0
  -25.9695  -25.9457   18.9865 H   0  0  0  0  0  0
  -23.9698  -27.3145   19.0085 H   0  0  0  0  0  0
  -23.7504  -30.5996   19.4051 H   0  0  0  0  0  0
  -22.7518  -29.2513   19.8580 H   0  0  0  0  0  0
  -25.1295  -36.1945   25.0827 H   0  0  0  0  0  0
  -20.9982  -28.3259   24.1406 H   0  0  0  0  0  0
  -20.5684  -26.2296   23.3607 H   0  0  0  0  0  0
  -21.6647  -26.7450   22.1198 H   0  0  0  0  0  0
  -19.6917  -25.6301   21.1238 H   0  0  0  0  0  0
  -19.6692  -27.3202   20.6746 H   0  0  0  0  0  0
  -17.4204  -26.6680   21.4025 H   0  0  0  0  0  0
  -18.0333  -26.0074   22.9020 H   0  0  0  0  0  0
  -19.7939  -30.7272   24.2272 H   0  0  0  0  0  0
  -17.5019  -31.6269   24.5168 H   0  0  0  0  0  0
  -15.5356  -30.2995   23.7652 H   0  0  0  0  0  0
  -15.8674  -28.0830   22.7061 H   0  0  0  0  0  0
  -24.5919  -30.7051   25.7781 H   0  0  0  0  0  0
  -24.8914  -32.2875   26.4872 H   0  0  0  0  0  0
  -25.8069  -30.8900   27.0225 H   0  0  0  0  0  0
  -26.2904  -29.6771   24.1185 H   0  0  0  0  0  0
  -27.4069  -29.7270   25.4634 H   0  0  0  0  0  0
  -27.8756  -30.4327   23.9348 H   0  0  0  0  0  0
  -27.2677  -33.3616   26.2070 H   0  0  0  0  0  0
  -28.3873  -32.6863   25.0321 H   0  0  0  0  0  0
  -28.0718  -31.8431   26.5409 H   0  0  0  0  0  0
  -28.2601  -38.0098   24.7511 H   0  0  0  0  0  0
  -28.1072  -36.2630   24.6301 H   0  0  0  0  0  0
  -27.2296  -37.1462   25.8871 H   0  0  0  0  0  0
  -20.9349  -29.8779   21.6906 H   0  0  0  0  0  0
  -26.0177  -38.2859   24.1405 H   0  0  0  0  0  0
  -30.3102  -19.6919   18.5071 H   0  0  0  0  0  0
  -29.5557  -19.9411   22.7207 H   0  0  0  0  0  0
  -30.1191  -17.6439   17.3663 H   0  0  0  0  0  0
  -29.5733  -16.1861   18.1796 H   0  0  0  0  0  0
  -31.2942  -16.6031   18.1657 H   0  0  0  0  0  0
  -29.3577  -18.0393   24.0558 H   0  0  0  0  0  0
  -30.2405  -16.6118   23.5247 H   0  0  0  0  0  0
  -28.4975  -16.7301   23.2487 H   0  0  0  0  0  0
  -29.9049  -25.4850   22.0710 H   0  0  0  0  0  0
  -30.5755  -23.8940   22.3250 H   0  0  0  0  0  0
  -28.8783  -24.2023   22.6905 H   0  0  0  0  0  0
  -30.8560  -21.8108   19.7536 H   0  0  0  0  0  0
  -30.6875  -21.8425   21.4735 H   0  0  0  0  0  0
  -27.2345  -24.7725   20.6283 H   0  0  0  0  0  0
  -27.9096  -24.8013   19.0153 H   0  0  0  0  0  0
  -30.1473  -24.2580   19.8980 H   0  0  0  0  0  0
  -28.9698  -15.3412   21.3468 H   0  0  0  0  0  0
  -28.2856  -22.2956   21.0882 H   0  0  0  0  0  0
  -28.5926  -22.3792   19.5033 H   0  0  0  0  0  0
  1 25  1  0  0  0
  1 30  2  0  0  0
  1 83  1  0  0  0
  2  3  1  0  0  0
  2 25  1  0  0  0
  2 85  1  0  0  0
  2 86  1  0  0  0
  3  4  1  0  0  0
  3 87  1  0  0  0
  3 88  1  0  0  0
  4  5  1  0  0  0
  4 89  1  0  0  0
  4 90  1  0  0  0
  5  6  1  0  0  0
  5 26  1  0  0  0
  5 91  1  0  0  0
  6 25  1  0  0  0
  6 92  1  0  0  0
  6 93  1  0  0  0
  7  8  2  0  0  0
  7 26  1  0  0  0
  7 29  1  0  0  0
  8  9  1  0  0  0
  8 22  1  0  0  0
  9 10  1  0  0  0
  9 27  2  0  0  0
 10 11  2  0  0  0
 10 15  1  0  0  0
 11 12  1  0  0  0
 11 94  1  0  0  0
 12 13  2  0  0  0
 12 95  1  0  0  0
 13 14  1  0  0  0
 13 31  1  0  0  0
 14 15  2  0  0  0
 14 96  1  0  0  0
 15 97  1  0  0  0
 16 17  2  0  0  0
 16 21  1  0  0  0
 16 31  1  0  0  0
 17 18  1  0  0  0
 17 98  1  0  0  0
 18 19  2  0  0  0
 18 99  1  0  0  0
 19 20  1  0  0  0
 19 24  1  0  0  0
 20 21  2  0  0  0
 20100  1  0  0  0
 21 23  1  0  0  0
 22 28  1  0  0  0
 22 32  2  0  0  0
 26 27  1  0  0  0
 28101  1  0  0  0
 28102  1  0  0  0
 29103  1  0  0  0
 29104  1  0  0  0
 33 34  1  0  0  0
 33 66  1  0  0  0
 33 70  2  0  0  0
 34 36  1  0  0  0
 34 59  1  0  0  0
 34105  1  0  0  0
 35 44  2  0  0  0
 35 45  1  0  0  0
 35 68  1  0  0  0
 36 56  1  0  0  0
 36106  1  0  0  0
 37 39  1  0  0  0
 37 47  1  0  0  0
 37 66  1  0  0  0
 37107  1  0  0  0
 38 43  2  0  0  0
 38 46  1  0  0  0
 38 47  1  0  0  0
 39 64  1  0  0  0
 39 67  2  0  0  0
 40 52  1  0  0  0
 40 53  2  0  0  0
 40 58  1  0  0  0
 41108  1  0  0  0
 41109  1  0  0  0
 41110  1  0  0  0
 41 48  1  0  0  0
 42 43  1  0  0  0
 42 66  1  0  0  0
 42111  1  0  0  0
 42112  1  0  0  0
 43 44  1  0  0  0
 44113  1  0  0  0
 45 46  2  0  0  0
 45114  1  0  0  0
 46115  1  0  0  0
 47116  1  0  0  0
 47117  1  0  0  0
 48 56  1  0  0  0
 48 65  1  0  0  0
 48118  1  0  0  0
 49 50  1  0  0  0
 49 53  1  0  0  0
 49 64  1  0  0  0
 49119  1  0  0  0
 50 51  1  0  0  0
 50120  1  0  0  0
 50121  1  0  0  0
 51 52  1  0  0  0
 51122  1  0  0  0
 51123  1  0  0  0
 52124  1  0  0  0
 52125  1  0  0  0
 53 54  1  0  0  0
 54 55  2  0  0  0
 54126  1  0  0  0
 55 57  1  0  0  0
 55127  1  0  0  0
 56 69  2  0  0  0
 57 58  2  0  0  0
 57128  1  0  0  0
 58129  1  0  0  0
 59 60  1  0  0  0
 59 61  1  0  0  0
 59 62  1  0  0  0
 60130  1  0  0  0
 60131  1  0  0  0
 60132  1  0  0  0
 61133  1  0  0  0
 61134  1  0  0  0
 61135  1  0  0  0
 62136  1  0  0  0
 62137  1  0  0  0
 62138  1  0  0  0
 63 65  1  0  0  0
 63139  1  0  0  0
 63140  1  0  0  0
 63141  1  0  0  0
 64142  1  0  0  0
 65143  1  0  0  0
 68 81  1  0  0  0
 71 73  2  0  0  0
 71 74  1  0  0  0
 71144  1  0  0  0
 72 73  1  0  0  0
 72 75  2  0  0  0
 72145  1  0  0  0
 73 80  1  0  0  0
 74 76  2  0  0  0
 74 77  1  0  0  0
 75 76  1  0  0  0
 75 78  1  0  0  0
 76 83  1  0  0  0
 77146  1  0  0  0
 77147  1  0  0  0
 77148  1  0  0  0
 78149  1  0  0  0
 78150  1  0  0  0
 78151  1  0  0  0
 79152  1  0  0  0
 79153  1  0  0  0
 79154  1  0  0  0
 79 82  1  0  0  0
 80 84  1  0  0  0
 80155  1  0  0  0
 80156  1  0  0  0
 81 82  1  0  0  0
 81157  1  0  0  0
 81158  1  0  0  0
 82 84  1  0  0  0
 82159  1  0  0  0
 83160  1  0  0  0
 84161  1  0  0  0
 84162  1  0  0  0
M  CHG  1  84   1
M  ISO  4   1 100  68 101  81 101  83 100
M  END
> <chiral flag>
0

> <version>
0

> <s_m_source_file>
/data/baiqing/PycharmProjects/Reinvent-master-3.2/result/LINK_invent/BTK/process_docking_weight1_custom_sum_contain_oxygen_bond_distance_aromatic_linkinvent_7_9_3/rearranged_h_0015.sdf

> <i_m_source_file_index>
20

> <r_mmod_Potential_Energy-OPLS-2005>
-127.961547851562

> <r_mmod_Stretch_Energy-OPLS-2005>
77.3584976196289

> <r_mmod_Bend_Energy-OPLS-2005>
130.248825073242

> <r_mmod_Torsional_Energy-OPLS-2005>
228.477005004883

> <r_mmod_Improper_Torsional_Energy-OPLS-2005>
4.75712966918945

> <r_mmod_Van_der_Waal_Energy-OPLS-2005>
142.585479736328

> <r_mmod_Electrostatic_Energy-OPLS-2005>
-304.09765625

> <r_mmod_Solvation_Energy-OPLS-2005>
-450.624816894531

> <b_mmod_Minimization_Converged-OPLS-2005>
0

> <r_mmod_RMS_Derivative-OPLS-2005>
0.348226875066757

$$$$
21
                    3D
 Structure written by MMmdl.
174182  0  0  1  0            999 V2000
  -30.6352  -14.6569   20.4878 C   0  0  0  0  0  0
  -30.4316  -12.4010   19.4565 C   0  0  0  0  0  0
  -29.5019  -12.5144   18.2277 C   0  0  0  0  0  0
  -28.0249  -12.3572   18.6390 C   0  0  0  0  0  0
  -27.6513  -13.2257   19.8701 C   0  0  2  0  0  0
  -28.7014  -13.0881   20.9974 C   0  0  0  0  0  0
  -25.2491  -13.8142   20.5639 C   0  0  0  0  0  0
  -24.1783  -13.0398   20.9161 C   0  0  0  0  0  0
  -24.6401  -11.6895   20.8754 C   0  0  0  0  0  0
  -23.9089  -10.4272   21.0405 C   0  0  0  0  0  0
  -24.3645   -9.4179   21.9174 C   0  0  0  0  0  0
  -23.6313   -8.2231   22.0750 C   0  0  0  0  0  0
  -22.4296   -8.0276   21.3544 C   0  0  0  0  0  0
  -21.9927   -9.0245   20.4639 C   0  0  0  0  0  0
  -22.7270  -10.2123   20.3038 C   0  0  0  0  0  0
  -21.6849   -6.0739   22.5287 C   0  0  0  0  0  0
  -21.4016   -6.5637   23.8227 C   0  0  0  0  0  0
  -21.3662   -5.6795   24.9184 C   0  0  0  0  0  0
  -21.6047   -4.3059   24.7236 C   0  0  0  0  0  0
  -21.8813   -3.8151   23.4356 C   0  0  0  0  0  0
  -21.9185   -4.6961   22.3408 C   0  0  0  0  0  0
  -22.7809  -13.5181   21.1838 C   0  0  0  0  0  0
  -22.1654   -4.2146   21.0981 F   0  0  0  0  0  0
  -21.5633   -3.4542   25.7753 F   0  0  0  0  0  0
  -30.0167  -13.4322   20.4297 N   0  0  0  0  0  0
  -26.2990  -12.9385   20.3420 N   0  0  0  0  0  0
  -25.9350  -11.6527   20.5842 N   0  0  0  0  0  0
  -22.0481  -12.8162   22.0413 N   0  0  0  0  0  0
  -25.4053  -15.1847   20.4014 N   0  0  0  0  0  0
  -31.7960  -14.7872   20.0967 O   0  0  0  0  0  0
  -21.6648   -6.8886   21.4251 O   0  0  0  0  0  0
  -22.3482  -14.5495   20.6697 O   0  0  0  0  0  0
  -24.6245  -31.8603   23.2009 C   0  0  0  0  0  0
  -25.9088  -32.4792   23.8345 C   0  0  1  0  0  0
  -27.2328  -27.3338   20.1285 C   0  0  0  0  0  0
  -25.5905  -33.8593   24.2275 N   0  0  0  0  0  0
  -23.4193  -30.4807   21.5417 C   0  0  2  0  0  0
  -24.8689  -28.9310   20.1154 C   0  0  0  0  0  0
  -22.7465  -29.4624   22.4922 C   0  0  0  0  0  0
  -18.0290  -28.1380   22.8470 C   0  0  0  0  0  0
  -24.1498  -36.7317   23.2641 C   0  0  0  0  0  0
  -25.9560  -30.7974   21.3673 C   0  0  0  0  0  0
  -26.0345  -29.4224   20.7165 C   0  0  0  0  0  0
  -27.2225  -28.6368   20.7065 C   0  0  0  0  0  0
  -26.0480  -26.8799   19.5146 C   0  0  0  0  0  0
  -24.8758  -27.6636   19.5066 C   0  0  0  0  0  0
  -23.6361  -29.8105   20.1584 C   0  0  0  0  0  0
  -25.4119  -36.3097   24.0332 C   0  0  1  0  0  0
  -20.5883  -28.3695   23.1266 C   0  0  2  0  0  0
  -20.6783  -26.9416   22.5398 C   0  0  0  0  0  0
  -19.5762  -26.6380   21.5197 C   0  0  0  0  0  0
  -18.1935  -26.7923   22.1603 C   0  0  0  0  0  0
  -19.1538  -28.8854   23.2867 C   0  0  0  0  0  0
  -18.9461  -30.1451   23.8887 C   0  0  0  0  0  0
  -17.6467  -30.6588   24.0561 C   0  0  0  0  0  0
  -25.9046  -34.9466   23.5107 C   0  0  0  0  0  0
  -16.5357  -29.9088   23.6322 C   0  0  0  0  0  0
  -16.7275  -28.6504   23.0334 C   0  0  0  0  0  0
  -26.4472  -31.6602   25.0711 C   0  0  0  0  0  0
  -25.3696  -31.3730   26.1438 C   0  0  0  0  0  0
  -27.0325  -30.3036   24.6159 C   0  0  0  0  0  0
  -27.6029  -32.4339   25.7477 C   0  0  0  0  0  0
  -27.5586  -37.1813   24.8461 C   0  0  0  0  0  0
  -21.4182  -29.3049   22.3667 N   0  0  0  0  0  0
  -26.4301  -37.3789   23.9407 N   0  0  0  0  0  0
  -24.6854  -31.0627   22.0945 N   0  0  0  0  0  0
  -23.4184  -28.8163   23.3003 O   0  0  0  0  0  0
  -28.3651  -26.5128   20.1219 O   0  0  0  0  0  0
  -26.5609  -34.8929   22.4670 O   0  0  0  0  0  0
  -23.5404  -32.1383   23.7340 O   0  0  0  0  0  0
  -30.6645  -19.4300   20.1022 C   0  0  0  0  0  0
  -28.3008  -19.1670   20.4886 C   0  0  0  0  0  0
  -29.8126  -17.1617   20.6378 C   0  0  0  0  0  0
  -29.3811  -20.0354   20.1702 C   0  0  0  0  0  0
  -30.9018  -18.0229   20.3011 C   0  0  0  0  0  0
  -28.5379  -17.7811   20.7779 C   0  0  0  0  0  0
  -24.5810  -20.3752   17.4809 C   0  0  0  0  0  0
  -25.0478  -22.0978   19.2669 C   0  0  0  0  0  0
  -33.2358  -18.2748   19.7177 C   0  0  0  0  0  0
  -27.3263  -16.9594   22.5866 C   0  0  0  0  0  0
  -26.8669  -19.6978   20.4416 C   0  0  0  0  0  0
  -28.7614  -23.9041   19.8626 C   0  0  0  0  0  0
  -28.2555  -25.1581   20.7017 C   0  0  0  0  0  0
  -28.9072  -22.4920   20.5991 C   0  0  0  0  0  0
  -25.1003  -20.5994   18.9107 C   0  0  0  0  0  0
  -29.8387  -15.7064   20.8727 N   0  0  0  0  0  0
  -26.4674  -20.0442   19.0593 N   0  3  0  0  0  0
  -32.1579  -17.4659   20.1779 O   0  0  0  0  0  0
  -27.4962  -16.9835   21.1718 O   0  0  0  0  0  0
  -29.2076  -21.3622   19.7123 O   0  0  0  0  0  0
  -31.4712  -12.5172   19.1507 H   0  0  0  0  0  0
  -30.3642  -11.4085   19.9057 H   0  0  0  0  0  0
  -29.7597  -11.7584   17.4857 H   0  0  0  0  0  0
  -29.6462  -13.4804   17.7415 H   0  0  0  0  0  0
  -27.8536  -11.3040   18.8656 H   0  0  0  0  0  0
  -27.3717  -12.5929   17.7978 H   0  0  0  0  0  0
  -27.6614  -14.2613   19.5310 H   0  0  0  0  0  0
  -28.7131  -12.0673   21.3806 H   0  0  0  0  0  0
  -28.4484  -13.7201   21.8502 H   0  0  0  0  0  0
  -25.2784   -9.5643   22.4762 H   0  0  0  0  0  0
  -23.9998   -7.4612   22.7463 H   0  0  0  0  0  0
  -21.0862   -8.8763   19.8950 H   0  0  0  0  0  0
  -22.3714  -10.9662   19.6154 H   0  0  0  0  0  0
  -21.2017   -7.6148   23.9722 H   0  0  0  0  0  0
  -21.1495   -6.0539   25.9090 H   0  0  0  0  0  0
  -22.0594   -2.7611   23.2873 H   0  0  0  0  0  0
  -22.4113  -11.9819   22.4789 H   0  0  0  0  0  0
  -21.1095  -13.1153   22.2645 H   0  0  0  0  0  0
  -24.6394  -15.8319   20.5430 H   0  0  0  0  0  0
  -26.2964  -15.6506   20.2797 H   0  0  0  0  0  0
  -26.7159  -32.5475   23.1095 H   0  0  0  0  0  0
  -25.0078  -33.9760   25.0438 H   0  0  0  0  0  0
  -22.7127  -31.3010   21.3940 H   0  0  0  0  0  0
  -23.3760  -35.9645   23.3296 H   0  0  0  0  0  0
  -24.3603  -36.8960   22.2061 H   0  0  0  0  0  0
  -23.7252  -37.6517   23.6672 H   0  0  0  0  0  0
  -26.0772  -31.5569   20.5943 H   0  0  0  0  0  0
  -26.8397  -30.8564   21.9908 H   0  0  0  0  0  0
  -28.1241  -29.0157   21.1679 H   0  0  0  0  0  0
  -26.0265  -25.9076   19.0432 H   0  0  0  0  0  0
  -23.9817  -27.2808   19.0344 H   0  0  0  0  0  0
  -23.7582  -30.5851   19.4002 H   0  0  0  0  0  0
  -22.7557  -29.2413   19.8552 H   0  0  0  0  0  0
  -25.1299  -36.1963   25.0821 H   0  0  0  0  0  0
  -20.9976  -28.3280   24.1387 H   0  0  0  0  0  0
  -20.5692  -26.2304   23.3606 H   0  0  0  0  0  0
  -21.6656  -26.7451   22.1194 H   0  0  0  0  0  0
  -19.6941  -25.6285   21.1256 H   0  0  0  0  0  0
  -19.6720  -27.3172   20.6715 H   0  0  0  0  0  0
  -17.4213  -26.6677   21.3998 H   0  0  0  0  0  0
  -18.0331  -26.0056   22.8990 H   0  0  0  0  0  0
  -19.7942  -30.7272   24.2257 H   0  0  0  0  0  0
  -17.5026  -31.6273   24.5155 H   0  0  0  0  0  0
  -15.5362  -30.2992   23.7666 H   0  0  0  0  0  0
  -15.8675  -28.0857   22.7024 H   0  0  0  0  0  0
  -24.5875  -30.7088   25.7755 H   0  0  0  0  0  0
  -24.8870  -32.2891   26.4849 H   0  0  0  0  0  0
  -25.8001  -30.8908   27.0223 H   0  0  0  0  0  0
  -26.2908  -29.6781   24.1188 H   0  0  0  0  0  0
  -27.4055  -29.7301   25.4658 H   0  0  0  0  0  0
  -27.8749  -30.4362   23.9367 H   0  0  0  0  0  0
  -27.2661  -33.3663   26.2026 H   0  0  0  0  0  0
  -28.3834  -32.6882   25.0287 H   0  0  0  0  0  0
  -28.0699  -31.8483   26.5409 H   0  0  0  0  0  0
  -28.2578  -38.0128   24.7514 H   0  0  0  0  0  0
  -28.1103  -36.2660   24.6273 H   0  0  0  0  0  0
  -27.2313  -37.1460   25.8865 H   0  0  0  0  0  0
  -20.9362  -29.8790   21.6900 H   0  0  0  0  0  0
  -26.0189  -38.2867   24.1393 H   0  0  0  0  0  0
  -31.4771  -20.0903   19.8421 H   0  0  0  0  0  0
  -23.5638  -20.7535   17.3723 H   0  0  0  0  0  0
  -24.5547  -19.3157   17.2230 H   0  0  0  0  0  0
  -25.2007  -20.8864   16.7435 H   0  0  0  0  0  0
  -24.0294  -22.4771   19.1726 H   0  0  0  0  0  0
  -25.6796  -22.6896   18.6030 H   0  0  0  0  0  0
  -25.3632  -22.2896   20.2921 H   0  0  0  0  0  0
  -34.0814  -17.6400   19.4503 H   0  0  0  0  0  0
  -33.5725  -18.9590   20.4972 H   0  0  0  0  0  0
  -32.9841  -18.8473   18.8246 H   0  0  0  0  0  0
  -27.0854  -17.9513   22.9722 H   0  0  0  0  0  0
  -28.2229  -16.6047   23.0964 H   0  0  0  0  0  0
  -26.5086  -16.2881   22.8539 H   0  0  0  0  0  0
  -26.7648  -20.5551   21.1023 H   0  0  0  0  0  0
  -26.1663  -18.9577   20.8253 H   0  0  0  0  0  0
  -29.7300  -24.1558   19.4311 H   0  0  0  0  0  0
  -28.0912  -23.7808   19.0125 H   0  0  0  0  0  0
  -28.8365  -25.1887   21.6245 H   0  0  0  0  0  0
  -27.2337  -24.9652   21.0289 H   0  0  0  0  0  0
  -27.9934  -22.2991   21.1541 H   0  0  0  0  0  0
  -29.6994  -22.5606   21.3458 H   0  0  0  0  0  0
  -24.4334  -20.0557   19.5835 H   0  0  0  0  0  0
  -28.9456  -15.3679   21.1927 H   0  0  0  0  0  0
  -26.5207  -19.1943   18.5204 H   0  0  0  0  0  0
  -27.1405  -20.6868   18.6728 H   0  0  0  0  0  0
  1 25  1  0  0  0
  1 30  2  0  0  0
  1 86  1  0  0  0
  2  3  1  0  0  0
  2 25  1  0  0  0
  2 91  1  0  0  0
  2 92  1  0  0  0
  3  4  1  0  0  0
  3 93  1  0  0  0
  3 94  1  0  0  0
  4  5  1  0  0  0
  4 95  1  0  0  0
  4 96  1  0  0  0
  5  6  1  0  0  0
  5 26  1  0  0  0
  5 97  1  0  0  0
  6 25  1  0  0  0
  6 98  1  0  0  0
  6 99  1  0  0  0
  7  8  2  0  0  0
  7 26  1  0  0  0
  7 29  1  0  0  0
  8  9  1  0  0  0
  8 22  1  0  0  0
  9 10  1  0  0  0
  9 27  2  0  0  0
 10 11  2  0  0  0
 10 15  1  0  0  0
 11 12  1  0  0  0
 11100  1  0  0  0
 12 13  2  0  0  0
 12101  1  0  0  0
 13 14  1  0  0  0
 13 31  1  0  0  0
 14 15  2  0  0  0
 14102  1  0  0  0
 15103  1  0  0  0
 16 17  2  0  0  0
 16 21  1  0  0  0
 16 31  1  0  0  0
 17 18  1  0  0  0
 17104  1  0  0  0
 18 19  2  0  0  0
 18105  1  0  0  0
 19 20  1  0  0  0
 19 24  1  0  0  0
 20 21  2  0  0  0
 20106  1  0  0  0
 21 23  1  0  0  0
 22 28  1  0  0  0
 22 32  2  0  0  0
 26 27  1  0  0  0
 28107  1  0  0  0
 28108  1  0  0  0
 29109  1  0  0  0
 29110  1  0  0  0
 33 34  1  0  0  0
 33 66  1  0  0  0
 33 70  2  0  0  0
 34 36  1  0  0  0
 34 59  1  0  0  0
 34111  1  0  0  0
 35 44  2  0  0  0
 35 45  1  0  0  0
 35 68  1  0  0  0
 36 56  1  0  0  0
 36112  1  0  0  0
 37 39  1  0  0  0
 37 47  1  0  0  0
 37 66  1  0  0  0
 37113  1  0  0  0
 38 43  2  0  0  0
 38 46  1  0  0  0
 38 47  1  0  0  0
 39 64  1  0  0  0
 39 67  2  0  0  0
 40 52  1  0  0  0
 40 53  2  0  0  0
 40 58  1  0  0  0
 41114  1  0  0  0
 41115  1  0  0  0
 41116  1  0  0  0
 41 48  1  0  0  0
 42 43  1  0  0  0
 42 66  1  0  0  0
 42117  1  0  0  0
 42118  1  0  0  0
 43 44  1  0  0  0
 44119  1  0  0  0
 45 46  2  0  0  0
 45120  1  0  0  0
 46121  1  0  0  0
 47122  1  0  0  0
 47123  1  0  0  0
 48 56  1  0  0  0
 48 65  1  0  0  0
 48124  1  0  0  0
 49 50  1  0  0  0
 49 53  1  0  0  0
 49 64  1  0  0  0
 49125  1  0  0  0
 50 51  1  0  0  0
 50126  1  0  0  0
 50127  1  0  0  0
 51 52  1  0  0  0
 51128  1  0  0  0
 51129  1  0  0  0
 52130  1  0  0  0
 52131  1  0  0  0
 53 54  1  0  0  0
 54 55  2  0  0  0
 54132  1  0  0  0
 55 57  1  0  0  0
 55133  1  0  0  0
 56 69  2  0  0  0
 57 58  2  0  0  0
 57134  1  0  0  0
 58135  1  0  0  0
 59 60  1  0  0  0
 59 61  1  0  0  0
 59 62  1  0  0  0
 60136  1  0  0  0
 60137  1  0  0  0
 60138  1  0  0  0
 61139  1  0  0  0
 61140  1  0  0  0
 61141  1  0  0  0
 62142  1  0  0  0
 62143  1  0  0  0
 62144  1  0  0  0
 63 65  1  0  0  0
 63145  1  0  0  0
 63146  1  0  0  0
 63147  1  0  0  0
 64148  1  0  0  0
 65149  1  0  0  0
 68 83  1  0  0  0
 71 74  2  0  0  0
 71 75  1  0  0  0
 71150  1  0  0  0
 72 74  1  0  0  0
 72 76  2  0  0  0
 72 81  1  0  0  0
 73 75  2  0  0  0
 73 76  1  0  0  0
 73 86  1  0  0  0
 74 90  1  0  0  0
 75 88  1  0  0  0
 76 89  1  0  0  0
 77151  1  0  0  0
 77152  1  0  0  0
 77153  1  0  0  0
 77 85  1  0  0  0
 78 85  1  0  0  0
 78154  1  0  0  0
 78155  1  0  0  0
 78156  1  0  0  0
 79 88  1  0  0  0
 79157  1  0  0  0
 79158  1  0  0  0
 79159  1  0  0  0
 80 89  1  0  0  0
 80160  1  0  0  0
 80161  1  0  0  0
 80162  1  0  0  0
 81 87  1  0  0  0
 81163  1  0  0  0
 81164  1  0  0  0
 82 83  1  0  0  0
 82 84  1  0  0  0
 82165  1  0  0  0
 82166  1  0  0  0
 83167  1  0  0  0
 83168  1  0  0  0
 84 90  1  0  0  0
 84169  1  0  0  0
 84170  1  0  0  0
 85 87  1  0  0  0
 85171  1  0  0  0
 86172  1  0  0  0
 87173  1  0  0  0
 87174  1  0  0  0
M  CHG  1  87   1
M  ISO  4   1 100  68 101  83 101  86 100
M  END
> <chiral flag>
0

> <version>
0

> <s_m_source_file>
/data/baiqing/PycharmProjects/Reinvent-master-3.2/result/LINK_invent/BTK/process_docking_weight1_custom_sum_contain_oxygen_bond_distance_aromatic_linkinvent_7_9_3/rearranged_h_0015.sdf

> <i_m_source_file_index>
21

> <r_mmod_Potential_Energy-OPLS-2005>
-101.309982299805

> <r_mmod_Stretch_Energy-OPLS-2005>
84.3044281005859

> <r_mmod_Bend_Energy-OPLS-2005>
166.244888305664

> <r_mmod_Torsional_Energy-OPLS-2005>
297.586395263672

> <r_mmod_Improper_Torsional_Energy-OPLS-2005>
5.57838535308838

> <r_mmod_Van_der_Waal_Energy-OPLS-2005>
134.326034545898

> <r_mmod_Electrostatic_Energy-OPLS-2005>
-372.129913330078

> <r_mmod_Solvation_Energy-OPLS-2005>
-462.912658691406

> <b_mmod_Minimization_Converged-OPLS-2005>
0

> <r_mmod_RMS_Derivative-OPLS-2005>
2.75364303588867

$$$$
22
                    3D
 Structure written by MMmdl.
194202  0  0  1  0            999 V2000
  -30.7392  -14.3600   20.6647 C   0  0  0  0  0  0
  -30.4296  -12.2781   19.3763 C   0  0  0  0  0  0
  -29.4855  -12.5042   18.1784 C   0  0  0  0  0  0
  -28.0035  -12.3858   18.5901 C   0  0  0  0  0  0
  -27.6712  -13.1869   19.8752 C   0  0  2  0  0  0
  -28.7106  -12.8954   20.9812 C   0  0  0  0  0  0
  -25.2637  -13.8120   20.5590 C   0  0  0  0  0  0
  -24.1858  -13.0439   20.9150 C   0  0  0  0  0  0
  -24.6360  -11.6886   20.8700 C   0  0  0  0  0  0
  -23.9015  -10.4274   21.0379 C   0  0  0  0  0  0
  -24.3571   -9.4197   21.9159 C   0  0  0  0  0  0
  -23.6256   -8.2235   22.0750 C   0  0  0  0  0  0
  -22.4244   -8.0279   21.3543 C   0  0  0  0  0  0
  -21.9871   -9.0236   20.4641 C   0  0  0  0  0  0
  -22.7189  -10.2116   20.3035 C   0  0  0  0  0  0
  -21.6864   -6.0720   22.5262 C   0  0  0  0  0  0
  -21.4025   -6.5621   23.8191 C   0  0  0  0  0  0
  -21.3663   -5.6779   24.9151 C   0  0  0  0  0  0
  -21.6035   -4.3033   24.7211 C   0  0  0  0  0  0
  -21.8833   -3.8120   23.4337 C   0  0  0  0  0  0
  -21.9197   -4.6944   22.3393 C   0  0  0  0  0  0
  -22.7894  -13.5280   21.1810 C   0  0  0  0  0  0
  -22.1669   -4.2113   21.0982 F   0  0  0  0  0  0
  -21.5625   -3.4537   25.7734 F   0  0  0  0  0  0
  -30.0578  -13.2061   20.4523 N   0  0  0  0  0  0
  -26.3053  -12.9233   20.3319 N   0  0  0  0  0  0
  -25.9278  -11.6412   20.5705 N   0  0  0  0  0  0
  -22.0505  -12.8284   22.0358 N   0  0  0  0  0  0
  -25.4356  -15.1812   20.3926 N   0  0  0  0  0  0
  -31.7668  -14.6829   20.0578 O   0  0  0  0  0  0
  -21.6639   -6.8860   21.4231 O   0  0  0  0  0  0
  -22.3592  -14.5584   20.6665 O   0  0  0  0  0  0
  -24.6085  -31.8735   23.2091 C   0  0  0  0  0  0
  -25.9013  -32.4852   23.8359 C   0  0  1  0  0  0
  -27.2347  -27.4595   20.0962 C   0  0  0  0  0  0
  -25.5923  -33.8640   24.2325 N   0  0  0  0  0  0
  -23.3926  -30.4973   21.5493 C   0  0  2  0  0  0
  -24.8378  -28.9676   20.1123 C   0  0  0  0  0  0
  -22.7398  -29.4683   22.4994 C   0  0  0  0  0  0
  -18.0323  -28.1348   22.8527 C   0  0  0  0  0  0
  -24.1511  -36.7278   23.2635 C   0  0  0  0  0  0
  -25.9175  -30.8457   21.3591 C   0  0  0  0  0  0
  -25.9923  -29.4824   20.7103 C   0  0  0  0  0  0
  -27.1852  -28.7299   20.7118 C   0  0  0  0  0  0
  -26.0585  -26.9606   19.4800 C   0  0  0  0  0  0
  -24.8653  -27.7059   19.4957 C   0  0  0  0  0  0
  -23.5956  -29.8269   20.1637 C   0  0  0  0  0  0
  -25.4132  -36.3114   24.0350 C   0  0  1  0  0  0
  -20.5909  -28.3623   23.1365 C   0  0  2  0  0  0
  -20.6803  -26.9369   22.5435 C   0  0  0  0  0  0
  -19.5754  -26.6358   21.5241 C   0  0  0  0  0  0
  -18.1953  -26.7908   22.1659 C   0  0  0  0  0  0
  -19.1569  -28.8801   23.2949 C   0  0  0  0  0  0
  -18.9478  -30.1430   23.8927 C   0  0  0  0  0  0
  -17.6471  -30.6571   24.0556 C   0  0  0  0  0  0
  -25.9050  -34.9495   23.5137 C   0  0  0  0  0  0
  -16.5371  -29.9059   23.6318 C   0  0  0  0  0  0
  -16.7311  -28.6461   23.0364 C   0  0  0  0  0  0
  -26.4451  -31.6612   25.0658 C   0  0  0  0  0  0
  -25.3741  -31.3703   26.1417 C   0  0  0  0  0  0
  -27.0250  -30.3062   24.5959 C   0  0  0  0  0  0
  -27.6039  -32.4324   25.7427 C   0  0  0  0  0  0
  -27.5615  -37.1791   24.8477 C   0  0  0  0  0  0
  -21.4133  -29.3007   22.3770 N   0  0  0  0  0  0
  -26.4321  -37.3797   23.9430 N   0  0  0  0  0  0
  -24.6571  -31.0865   22.0983 N   0  0  0  0  0  0
  -23.4232  -28.8248   23.3015 O   0  0  0  0  0  0
  -28.4350  -26.7853   20.1654 O   0  0  0  0  0  0
  -26.5568  -34.8944   22.4669 O   0  0  0  0  0  0
  -23.5295  -32.1484   23.7545 O   0  0  0  0  0  0
  -29.3434  -22.8587   24.3628 C   0  0  0  0  0  0
  -27.4914  -21.8057   25.5285 C   0  0  0  0  0  0
  -28.8642  -21.8629   25.2362 C   0  0  0  0  0  0
  -28.4622  -23.8175   23.8071 C   0  0  0  0  0  0
  -27.0898  -23.8075   24.1722 C   0  0  0  0  0  0
  -26.6001  -22.7504   24.9873 C   0  0  0  0  0  0
  -26.4639  -19.3336   21.9950 C   0  0  0  0  0  0
  -29.7960  -20.8312   25.8370 C   0  0  0  0  0  0
  -26.1687  -24.9357   23.7095 C   0  0  0  0  0  0
  -26.6237  -19.3158   20.5033 C   0  0  0  0  0  0
  -30.9870  -25.3400   20.5238 C   0  0  0  0  0  0
  -24.6984  -23.0154   26.4987 C   0  0  0  0  0  0
  -29.0058  -24.7663   22.7407 C   0  0  0  0  0  0
  -28.9642  -17.1484   22.1730 C   0  0  0  0  0  0
  -23.7796  -20.8354   24.1306 C   0  0  0  0  0  0
  -28.8757  -18.6708   22.3577 C   0  0  0  0  0  0
  -30.3283  -16.5947   21.7246 C   0  0  0  0  0  0
  -24.3931  -22.2456   24.0683 C   0  0  0  0  0  0
  -24.7896  -19.6948   23.8850 C   0  0  0  0  0  0
  -28.6353  -25.5600   19.4696 C   0  0  0  0  0  0
  -29.6266  -24.6702   20.2511 C   0  0  2  0  0  0
  -27.5161  -19.0520   22.7986 N   0  0  0  0  0  0
  -30.1711  -15.1548   21.5718 N   0  0  0  0  0  0
  -25.2349  -22.5516   25.2250 N   0  0  0  0  0  0
  -25.2357  -19.6235   22.4792 N   0  3  0  0  0  0
  -29.0204  -24.0311   21.4529 N   0  3  0  0  0  0
  -31.4657  -12.4089   19.0544 H   0  0  0  0  0  0
  -30.3494  -11.2490   19.7324 H   0  0  0  0  0  0
  -29.7109  -11.7834   17.3928 H   0  0  0  0  0  0
  -29.6702  -13.4888   17.7453 H   0  0  0  0  0  0
  -27.7848  -11.3298   18.7345 H   0  0  0  0  0  0
  -27.3627  -12.7115   17.7690 H   0  0  0  0  0  0
  -27.7423  -14.2455   19.6226 H   0  0  0  0  0  0
  -28.6730  -11.8404   21.2698 H   0  0  0  0  0  0
  -28.4494  -13.4389   21.8880 H   0  0  0  0  0  0
  -25.2721   -9.5694   22.4709 H   0  0  0  0  0  0
  -23.9949   -7.4626   22.7469 H   0  0  0  0  0  0
  -21.0811   -8.8761   19.8934 H   0  0  0  0  0  0
  -22.3643  -10.9649   19.6131 H   0  0  0  0  0  0
  -21.2031   -7.6131   23.9704 H   0  0  0  0  0  0
  -21.1485   -6.0494   25.9057 H   0  0  0  0  0  0
  -22.0616   -2.7593   23.2846 H   0  0  0  0  0  0
  -22.4115  -11.9965   22.4765 H   0  0  0  0  0  0
  -21.1116  -13.1291   22.2513 H   0  0  0  0  0  0
  -24.6570  -15.8264   20.4553 H   0  0  0  0  0  0
  -26.2688  -15.6000   19.9988 H   0  0  0  0  0  0
  -26.7086  -32.5538   23.1116 H   0  0  0  0  0  0
  -25.0187  -33.9799   25.0552 H   0  0  0  0  0  0
  -22.6743  -31.3107   21.4154 H   0  0  0  0  0  0
  -23.3796  -35.9589   23.3309 H   0  0  0  0  0  0
  -24.3616  -36.8852   22.2047 H   0  0  0  0  0  0
  -23.7235  -37.6484   23.6614 H   0  0  0  0  0  0
  -26.0295  -31.6167   20.5969 H   0  0  0  0  0  0
  -26.8059  -30.8943   21.9781 H   0  0  0  0  0  0
  -28.0707  -29.1204   21.1920 H   0  0  0  0  0  0
  -26.0076  -26.0058   18.9845 H   0  0  0  0  0  0
  -23.9782  -27.3024   19.0270 H   0  0  0  0  0  0
  -23.6910  -30.5981   19.3969 H   0  0  0  0  0  0
  -22.7226  -29.2391   19.8771 H   0  0  0  0  0  0
  -25.1326  -36.1972   25.0848 H   0  0  0  0  0  0
  -21.0025  -28.3153   24.1482 H   0  0  0  0  0  0
  -20.5727  -26.2211   23.3601 H   0  0  0  0  0  0
  -21.6667  -26.7430   22.1208 H   0  0  0  0  0  0
  -19.6885  -25.6282   21.1253 H   0  0  0  0  0  0
  -19.6684  -27.3200   20.6789 H   0  0  0  0  0  0
  -17.4230  -26.6727   21.4053 H   0  0  0  0  0  0
  -18.0313  -26.0040   22.9029 H   0  0  0  0  0  0
  -19.7949  -30.7263   24.2283 H   0  0  0  0  0  0
  -17.5021  -31.6257   24.5135 H   0  0  0  0  0  0
  -15.5361  -30.2949   23.7602 H   0  0  0  0  0  0
  -15.8736  -28.0756   22.7066 H   0  0  0  0  0  0
  -24.5925  -30.7041   25.7743 H   0  0  0  0  0  0
  -24.8905  -32.2857   26.4843 H   0  0  0  0  0  0
  -25.8113  -30.8885   27.0167 H   0  0  0  0  0  0
  -26.2729  -29.6843   24.1068 H   0  0  0  0  0  0
  -27.4140  -29.7269   25.4336 H   0  0  0  0  0  0
  -27.8536  -30.4413   23.8997 H   0  0  0  0  0  0
  -27.2663  -33.3630   26.1999 H   0  0  0  0  0  0
  -28.3848  -32.6866   25.0258 H   0  0  0  0  0  0
  -28.0686  -31.8433   26.5339 H   0  0  0  0  0  0
  -28.2627  -38.0092   24.7554 H   0  0  0  0  0  0
  -28.1124  -36.2629   24.6290 H   0  0  0  0  0  0
  -27.2324  -37.1415   25.8872 H   0  0  0  0  0  0
  -20.9262  -29.8684   21.6988 H   0  0  0  0  0  0
  -26.0217  -38.2894   24.1389 H   0  0  0  0  0  0
  -30.3961  -22.8774   24.1087 H   0  0  0  0  0  0
  -27.1156  -21.0127   26.1594 H   0  0  0  0  0  0
  -30.6815  -20.6728   25.2200 H   0  0  0  0  0  0
  -29.2896  -19.8737   25.9473 H   0  0  0  0  0  0
  -30.1186  -21.1540   26.8254 H   0  0  0  0  0  0
  -26.5785  -25.8941   24.0334 H   0  0  0  0  0  0
  -25.1720  -24.8844   24.1423 H   0  0  0  0  0  0
  -26.0639  -24.9502   22.6256 H   0  0  0  0  0  0
  -26.7693  -18.2953   20.1510 H   0  0  0  0  0  0
  -27.4761  -19.9237   20.1991 H   0  0  0  0  0  0
  -25.7431  -19.7215   20.0065 H   0  0  0  0  0  0
  -31.4547  -25.6574   19.5924 H   0  0  0  0  0  0
  -31.6708  -24.6444   21.0101 H   0  0  0  0  0  0
  -30.8878  -26.2213   21.1560 H   0  0  0  0  0  0
  -25.4877  -23.3856   27.1589 H   0  0  0  0  0  0
  -24.1787  -22.2113   27.0225 H   0  0  0  0  0  0
  -23.9916  -23.8301   26.3409 H   0  0  0  0  0  0
  -30.0056  -25.0804   23.0369 H   0  0  0  0  0  0
  -28.4200  -25.6826   22.6532 H   0  0  0  0  0  0
  -28.2158  -16.8473   21.4399 H   0  0  0  0  0  0
  -28.6771  -16.6667   23.1083 H   0  0  0  0  0  0
  -22.9784  -20.7706   23.3914 H   0  0  0  0  0  0
  -23.2852  -20.6888   25.0914 H   0  0  0  0  0  0
  -29.1503  -19.1899   21.4395 H   0  0  0  0  0  0
  -29.5981  -18.9954   23.1091 H   0  0  0  0  0  0
  -30.6330  -17.0510   20.7786 H   0  0  0  0  0  0
  -31.1156  -16.8079   22.4534 H   0  0  0  0  0  0
  -23.5963  -22.9883   24.0109 H   0  0  0  0  0  0
  -24.9649  -22.3540   23.1452 H   0  0  0  0  0  0
  -24.3160  -18.7438   24.1328 H   0  0  0  0  0  0
  -25.6405  -19.8078   24.5551 H   0  0  0  0  0  0
  -27.7386  -24.9814   19.2772 H   0  0  0  0  0  0
  -29.0603  -25.8065   18.4944 H   0  0  0  0  0  0
  -29.8295  -23.8323   19.5825 H   0  0  0  0  0  0
  -27.3723  -18.9847   23.7950 H   0  0  0  0  0  0
  -29.3891  -14.7382   22.0565 H   0  0  0  0  0  0
  -24.4906  -19.7039   21.7981 H   0  0  0  0  0  0
  -28.0798  -23.7394   21.2398 H   0  0  0  0  0  0
  -29.5408  -23.1899   21.6420 H   0  0  0  0  0  0
  1 25  1  0  0  0
  1 30  2  0  0  0
  1 93  1  0  0  0
  2  3  1  0  0  0
  2 25  1  0  0  0
  2 97  1  0  0  0
  2 98  1  0  0  0
  3  4  1  0  0  0
  3 99  1  0  0  0
  3100  1  0  0  0
  4  5  1  0  0  0
  4101  1  0  0  0
  4102  1  0  0  0
  5  6  1  0  0  0
  5 26  1  0  0  0
  5103  1  0  0  0
  6 25  1  0  0  0
  6104  1  0  0  0
  6105  1  0  0  0
  7  8  2  0  0  0
  7 26  1  0  0  0
  7 29  1  0  0  0
  8  9  1  0  0  0
  8 22  1  0  0  0
  9 10  1  0  0  0
  9 27  2  0  0  0
 10 11  2  0  0  0
 10 15  1  0  0  0
 11 12  1  0  0  0
 11106  1  0  0  0
 12 13  2  0  0  0
 12107  1  0  0  0
 13 14  1  0  0  0
 13 31  1  0  0  0
 14 15  2  0  0  0
 14108  1  0  0  0
 15109  1  0  0  0
 16 17  2  0  0  0
 16 21  1  0  0  0
 16 31  1  0  0  0
 17 18  1  0  0  0
 17110  1  0  0  0
 18 19  2  0  0  0
 18111  1  0  0  0
 19 20  1  0  0  0
 19 24  1  0  0  0
 20 21  2  0  0  0
 20112  1  0  0  0
 21 23  1  0  0  0
 22 28  1  0  0  0
 22 32  2  0  0  0
 26 27  1  0  0  0
 28113  1  0  0  0
 28114  1  0  0  0
 29115  1  0  0  0
 29116  1  0  0  0
 33 34  1  0  0  0
 33 66  1  0  0  0
 33 70  2  0  0  0
 34 36  1  0  0  0
 34 59  1  0  0  0
 34117  1  0  0  0
 35 44  2  0  0  0
 35 45  1  0  0  0
 35 68  1  0  0  0
 36 56  1  0  0  0
 36118  1  0  0  0
 37 39  1  0  0  0
 37 47  1  0  0  0
 37 66  1  0  0  0
 37119  1  0  0  0
 38 43  2  0  0  0
 38 46  1  0  0  0
 38 47  1  0  0  0
 39 64  1  0  0  0
 39 67  2  0  0  0
 40 52  1  0  0  0
 40 53  2  0  0  0
 40 58  1  0  0  0
 41120  1  0  0  0
 41121  1  0  0  0
 41122  1  0  0  0
 41 48  1  0  0  0
 42 43  1  0  0  0
 42 66  1  0  0  0
 42123  1  0  0  0
 42124  1  0  0  0
 43 44  1  0  0  0
 44125  1  0  0  0
 45 46  2  0  0  0
 45126  1  0  0  0
 46127  1  0  0  0
 47128  1  0  0  0
 47129  1  0  0  0
 48 56  1  0  0  0
 48 65  1  0  0  0
 48130  1  0  0  0
 49 50  1  0  0  0
 49 53  1  0  0  0
 49 64  1  0  0  0
 49131  1  0  0  0
 50 51  1  0  0  0
 50132  1  0  0  0
 50133  1  0  0  0
 51 52  1  0  0  0
 51134  1  0  0  0
 51135  1  0  0  0
 52136  1  0  0  0
 52137  1  0  0  0
 53 54  1  0  0  0
 54 55  2  0  0  0
 54138  1  0  0  0
 55 57  1  0  0  0
 55139  1  0  0  0
 56 69  2  0  0  0
 57 58  2  0  0  0
 57140  1  0  0  0
 58141  1  0  0  0
 59 60  1  0  0  0
 59 61  1  0  0  0
 59 62  1  0  0  0
 60142  1  0  0  0
 60143  1  0  0  0
 60144  1  0  0  0
 61145  1  0  0  0
 61146  1  0  0  0
 61147  1  0  0  0
 62148  1  0  0  0
 62149  1  0  0  0
 62150  1  0  0  0
 63 65  1  0  0  0
 63151  1  0  0  0
 63152  1  0  0  0
 63153  1  0  0  0
 64154  1  0  0  0
 65155  1  0  0  0
 68 90  1  0  0  0
 71 73  2  0  0  0
 71 74  1  0  0  0
 71156  1  0  0  0
 72 73  1  0  0  0
 72 76  2  0  0  0
 72157  1  0  0  0
 73 78  1  0  0  0
 74 75  2  0  0  0
 74 83  1  0  0  0
 75 76  1  0  0  0
 75 79  1  0  0  0
 76 94  1  0  0  0
 77 80  1  0  0  0
 77 92  1  0  0  0
 77 95  2  0  0  0
 78158  1  0  0  0
 78159  1  0  0  0
 78160  1  0  0  0
 79161  1  0  0  0
 79162  1  0  0  0
 79163  1  0  0  0
 80164  1  0  0  0
 80165  1  0  0  0
 80166  1  0  0  0
 81167  1  0  0  0
 81168  1  0  0  0
 81169  1  0  0  0
 81 91  1  0  0  0
 82 94  1  0  0  0
 82170  1  0  0  0
 82171  1  0  0  0
 82172  1  0  0  0
 83 96  1  0  0  0
 83173  1  0  0  0
 83174  1  0  0  0
 84 86  1  0  0  0
 84 87  1  0  0  0
 84175  1  0  0  0
 84176  1  0  0  0
 85 88  1  0  0  0
 85 89  1  0  0  0
 85177  1  0  0  0
 85178  1  0  0  0
 86 92  1  0  0  0
 86179  1  0  0  0
 86180  1  0  0  0
 87 93  1  0  0  0
 87181  1  0  0  0
 87182  1  0  0  0
 88 94  1  0  0  0
 88183  1  0  0  0
 88184  1  0  0  0
 89 95  1  0  0  0
 89185  1  0  0  0
 89186  1  0  0  0
 90 91  1  0  0  0
 90187  1  0  0  0
 90188  1  0  0  0
 91 96  1  0  0  0
 91189  1  0  0  0
 92190  1  0  0  0
 93191  1  0  0  0
 95192  1  0  0  0
 96193  1  0  0  0
 96194  1  0  0  0
M  CHG  2  95   1  96   1
M  ISO  4   1 100  68 101  90 101  93 100
M  END
> <chiral flag>
0

> <version>
0

> <s_m_source_file>
/data/baiqing/PycharmProjects/Reinvent-master-3.2/result/LINK_invent/BTK/process_docking_weight1_custom_sum_contain_oxygen_bond_distance_aromatic_linkinvent_7_9_3/rearranged_h_0015.sdf

> <i_m_source_file_index>
22

> <r_mmod_Potential_Energy-OPLS-2005>
-202.997436523438

> <r_mmod_Stretch_Energy-OPLS-2005>
36.9483489990234

> <r_mmod_Bend_Energy-OPLS-2005>
134.909286499023

> <r_mmod_Torsional_Energy-OPLS-2005>
248.602600097656

> <r_mmod_Improper_Torsional_Energy-OPLS-2005>
4.40206670761108

> <r_mmod_Van_der_Waal_Energy-OPLS-2005>
135.571838378906

> <r_mmod_Electrostatic_Energy-OPLS-2005>
79.8101425170898

> <r_mmod_Solvation_Energy-OPLS-2005>
-853.253967285156

> <b_mmod_Minimization_Converged-OPLS-2005>
0

> <r_mmod_RMS_Derivative-OPLS-2005>
5.10290193557739

$$$$
23
                    3D
 Structure written by MMmdl.
154162  0  0  1  0            999 V2000
  -30.6410  -14.7051   20.3979 C   0  0  0  0  0  0
  -30.4391  -12.4060   19.4659 C   0  0  0  0  0  0
  -29.5030  -12.3942   18.2349 C   0  0  0  0  0  0
  -28.0232  -12.2956   18.6555 C   0  0  0  0  0  0
  -27.6425  -13.2167   19.8470 C   0  0  2  0  0  0
  -28.6987  -13.1681   20.9705 C   0  0  0  0  0  0
  -25.2548  -13.8181   20.5743 C   0  0  0  0  0  0
  -24.1815  -13.0446   20.9253 C   0  0  0  0  0  0
  -24.6386  -11.6915   20.8793 C   0  0  0  0  0  0
  -23.9064  -10.4298   21.0423 C   0  0  0  0  0  0
  -24.3611   -9.4213   21.9196 C   0  0  0  0  0  0
  -23.6306   -8.2239   22.0746 C   0  0  0  0  0  0
  -22.4283   -8.0279   21.3538 C   0  0  0  0  0  0
  -21.9918   -9.0259   20.4642 C   0  0  0  0  0  0
  -22.7238  -10.2148   20.3066 C   0  0  0  0  0  0
  -21.6850   -6.0747   22.5292 C   0  0  0  0  0  0
  -21.4005   -6.5648   23.8225 C   0  0  0  0  0  0
  -21.3642   -5.6804   24.9187 C   0  0  0  0  0  0
  -21.6031   -4.3067   24.7239 C   0  0  0  0  0  0
  -21.8814   -3.8161   23.4362 C   0  0  0  0  0  0
  -21.9197   -4.6976   22.3419 C   0  0  0  0  0  0
  -22.7833  -13.5235   21.1898 C   0  0  0  0  0  0
  -22.1668   -4.2154   21.1002 F   0  0  0  0  0  0
  -21.5619   -3.4555   25.7754 F   0  0  0  0  0  0
  -29.9931  -13.4923   20.3615 N   0  0  0  0  0  0
  -26.2968  -12.9358   20.3364 N   0  0  0  0  0  0
  -25.9322  -11.6521   20.5854 N   0  0  0  0  0  0
  -22.0465  -12.8211   22.0431 N   0  0  0  0  0  0
  -25.4282  -15.1899   20.4135 N   0  0  0  0  0  0
  -31.8670  -14.7460   20.2717 O   0  0  0  0  0  0
  -21.6640   -6.8880   21.4244 O   0  0  0  0  0  0
  -22.3514  -14.5539   20.6747 O   0  0  0  0  0  0
  -24.6267  -31.8598   23.2023 C   0  0  0  0  0  0
  -25.9119  -32.4779   23.8345 C   0  0  1  0  0  0
  -27.2183  -27.3155   20.1160 C   0  0  0  0  0  0
  -25.5943  -33.8578   24.2268 N   0  0  0  0  0  0
  -23.4182  -30.4840   21.5456 C   0  0  2  0  0  0
  -24.8632  -28.9431   20.1061 C   0  0  0  0  0  0
  -22.7466  -29.4613   22.4935 C   0  0  0  0  0  0
  -18.0284  -28.1378   22.8500 C   0  0  0  0  0  0
  -24.1475  -36.7270   23.2637 C   0  0  0  0  0  0
  -25.9610  -30.7892   21.3741 C   0  0  0  0  0  0
  -26.0318  -29.4172   20.7153 C   0  0  0  0  0  0
  -27.2102  -28.6137   20.7139 C   0  0  0  0  0  0
  -26.0301  -26.9045   19.4665 C   0  0  0  0  0  0
  -24.8641  -27.6931   19.4707 C   0  0  0  0  0  0
  -23.6289  -29.8208   20.1599 C   0  0  0  0  0  0
  -25.4109  -36.3075   24.0326 C   0  0  1  0  0  0
  -20.5881  -28.3672   23.1298 C   0  0  2  0  0  0
  -20.6775  -26.9402   22.5417 C   0  0  0  0  0  0
  -19.5752  -26.6385   21.5218 C   0  0  0  0  0  0
  -18.1926  -26.7930   22.1630 C   0  0  0  0  0  0
  -19.1538  -28.8849   23.2895 C   0  0  0  0  0  0
  -18.9465  -30.1453   23.8901 C   0  0  0  0  0  0
  -17.6469  -30.6586   24.0561 C   0  0  0  0  0  0
  -25.9059  -34.9450   23.5093 C   0  0  0  0  0  0
  -16.5352  -29.9086   23.6333 C   0  0  0  0  0  0
  -16.7279  -28.6496   23.0372 C   0  0  0  0  0  0
  -26.4500  -31.6596   25.0714 C   0  0  0  0  0  0
  -25.3734  -31.3749   26.1435 C   0  0  0  0  0  0
  -27.0333  -30.3019   24.6174 C   0  0  0  0  0  0
  -27.6046  -32.4334   25.7498 C   0  0  0  0  0  0
  -27.5566  -37.1794   24.8473 C   0  0  0  0  0  0
  -21.4177  -29.3027   22.3685 N   0  0  0  0  0  0
  -26.4279  -37.3777   23.9407 N   0  0  0  0  0  0
  -24.6869  -31.0614   22.0968 N   0  0  0  0  0  0
  -23.4194  -28.8163   23.3028 O   0  0  0  0  0  0
  -28.3302  -26.4584   20.1879 O   0  0  0  0  0  0
  -26.5605  -34.8927   22.4641 O   0  0  0  0  0  0
  -23.5430  -32.1393   23.7361 O   0  0  0  0  0  0
  -30.6585  -19.1923   21.5544 C   0  0  0  0  0  0
  -28.7864  -18.0328   19.8846 C   0  0  0  0  0  0
  -29.7175  -20.0699   20.9416 C   0  0  0  0  0  0
  -29.7864  -17.1614   20.4243 C   0  0  0  0  0  0
  -30.6945  -17.7816   21.3252 C   0  0  0  0  0  0
  -28.7465  -19.4399   20.1279 C   0  0  0  0  0  0
  -29.1345  -24.0213   20.6360 C   0  0  0  0  0  0
  -29.8418  -15.7769   18.4268 C   0  0  0  0  0  0
  -29.8061  -21.6201   21.2267 C   0  0  0  0  0  0
  -28.1171  -25.0071   19.9437 C   0  0  0  0  0  0
  -29.0007  -22.6596   20.4954 N   0  0  0  0  0  0
  -29.9106  -15.7812   19.9047 N   0  0  0  0  0  0
  -30.0378  -24.4947   21.3311 O   0  0  0  0  0  0
  -31.6498  -17.0497   21.9447 F   0  0  0  0  0  0
  -27.7743  -20.1870   19.5519 F   0  0  0  0  0  0
  -31.4755  -12.5376   19.1468 H   0  0  0  0  0  0
  -30.4067  -11.4498   19.9900 H   0  0  0  0  0  0
  -29.7523  -11.5446   17.5977 H   0  0  0  0  0  0
  -29.6511  -13.2651   17.6050 H   0  0  0  0  0  0
  -27.8485  -11.2561   18.9337 H   0  0  0  0  0  0
  -27.3737  -12.4908   17.8020 H   0  0  0  0  0  0
  -27.6267  -14.2318   19.4584 H   0  0  0  0  0  0
  -28.7247  -12.1814   21.4360 H   0  0  0  0  0  0
  -28.4587  -13.8822   21.7594 H   0  0  0  0  0  0
  -25.2747   -9.5705   22.4779 H   0  0  0  0  0  0
  -24.0022   -7.4627   22.7456 H   0  0  0  0  0  0
  -21.0850   -8.8784   19.8950 H   0  0  0  0  0  0
  -22.3692  -10.9693   19.6183 H   0  0  0  0  0  0
  -21.1986   -7.6156   23.9728 H   0  0  0  0  0  0
  -21.1452   -6.0537   25.9088 H   0  0  0  0  0  0
  -22.0597   -2.7623   23.2881 H   0  0  0  0  0  0
  -22.4083  -11.9882   22.4839 H   0  0  0  0  0  0
  -21.1067  -13.1198   22.2607 H   0  0  0  0  0  0
  -24.6677  -15.8518   20.5197 H   0  0  0  0  0  0
  -26.2945  -15.6251   20.1241 H   0  0  0  0  0  0
  -26.7184  -32.5435   23.1088 H   0  0  0  0  0  0
  -25.0181  -33.9732   25.0476 H   0  0  0  0  0  0
  -22.7134  -31.3057   21.4055 H   0  0  0  0  0  0
  -23.3750  -35.9590   23.3313 H   0  0  0  0  0  0
  -24.3565  -36.8869   22.2050 H   0  0  0  0  0  0
  -23.7221  -37.6477   23.6639 H   0  0  0  0  0  0
  -26.0989  -31.5536   20.6082 H   0  0  0  0  0  0
  -26.8377  -30.8310   22.0064 H   0  0  0  0  0  0
  -28.1020  -28.9715   21.2091 H   0  0  0  0  0  0
  -25.9692  -25.9567   18.9532 H   0  0  0  0  0  0
  -23.9723  -27.3270   18.9799 H   0  0  0  0  0  0
  -23.7428  -30.5959   19.4012 H   0  0  0  0  0  0
  -22.7493  -29.2469   19.8613 H   0  0  0  0  0  0
  -25.1302  -36.1915   25.0824 H   0  0  0  0  0  0
  -20.9991  -28.3234   24.1411 H   0  0  0  0  0  0
  -20.5683  -26.2279   23.3609 H   0  0  0  0  0  0
  -21.6646  -26.7436   22.1205 H   0  0  0  0  0  0
  -19.6901  -25.6298   21.1241 H   0  0  0  0  0  0
  -19.6682  -27.3195   20.6745 H   0  0  0  0  0  0
  -17.4200  -26.6694   21.4021 H   0  0  0  0  0  0
  -18.0306  -26.0072   22.9028 H   0  0  0  0  0  0
  -19.7941  -30.7271   24.2260 H   0  0  0  0  0  0
  -17.5021  -31.6269   24.5154 H   0  0  0  0  0  0
  -15.5352  -30.2991   23.7653 H   0  0  0  0  0  0
  -15.8675  -28.0806   22.7100 H   0  0  0  0  0  0
  -24.5912  -30.7081   25.7777 H   0  0  0  0  0  0
  -24.8921  -32.2932   26.4816 H   0  0  0  0  0  0
  -25.8070  -30.8970   27.0228 H   0  0  0  0  0  0
  -26.2892  -29.6785   24.1194 H   0  0  0  0  0  0
  -27.4024  -29.7261   25.4672 H   0  0  0  0  0  0
  -27.8774  -30.4310   23.9391 H   0  0  0  0  0  0
  -27.2631  -33.3635   26.2054 H   0  0  0  0  0  0
  -28.3880  -32.6889   25.0346 H   0  0  0  0  0  0
  -28.0685  -31.8478   26.5448 H   0  0  0  0  0  0
  -28.2609  -38.0072   24.7513 H   0  0  0  0  0  0
  -28.1039  -36.2603   24.6308 H   0  0  0  0  0  0
  -27.2283  -37.1459   25.8882 H   0  0  0  0  0  0
  -20.9338  -29.8732   21.6891 H   0  0  0  0  0  0
  -26.0158  -38.2844   24.1423 H   0  0  0  0  0  0
  -31.4070  -19.6143   22.2097 H   0  0  0  0  0  0
  -28.0443  -17.6291   19.2117 H   0  0  0  0  0  0
  -28.8638  -15.4590   18.0698 H   0  0  0  0  0  0
  -30.6035  -15.1456   17.9651 H   0  0  0  0  0  0
  -30.0392  -16.7596   17.9964 H   0  0  0  0  0  0
  -30.8564  -21.8940   21.1121 H   0  0  0  0  0  0
  -29.5901  -21.7466   22.2891 H   0  0  0  0  0  0
  -27.1404  -24.7001   20.3185 H   0  0  0  0  0  0
  -28.1295  -24.8208   18.8689 H   0  0  0  0  0  0
  -28.2628  -22.3137   19.8942 H   0  0  0  0  0  0
  1 25  1  0  0  0
  1 30  2  0  0  0
  1 82  1  0  0  0
  2  3  1  0  0  0
  2 25  1  0  0  0
  2 86  1  0  0  0
  2 87  1  0  0  0
  3  4  1  0  0  0
  3 88  1  0  0  0
  3 89  1  0  0  0
  4  5  1  0  0  0
  4 90  1  0  0  0
  4 91  1  0  0  0
  5  6  1  0  0  0
  5 26  1  0  0  0
  5 92  1  0  0  0
  6 25  1  0  0  0
  6 93  1  0  0  0
  6 94  1  0  0  0
  7  8  2  0  0  0
  7 26  1  0  0  0
  7 29  1  0  0  0
  8  9  1  0  0  0
  8 22  1  0  0  0
  9 10  1  0  0  0
  9 27  2  0  0  0
 10 11  2  0  0  0
 10 15  1  0  0  0
 11 12  1  0  0  0
 11 95  1  0  0  0
 12 13  2  0  0  0
 12 96  1  0  0  0
 13 14  1  0  0  0
 13 31  1  0  0  0
 14 15  2  0  0  0
 14 97  1  0  0  0
 15 98  1  0  0  0
 16 17  2  0  0  0
 16 21  1  0  0  0
 16 31  1  0  0  0
 17 18  1  0  0  0
 17 99  1  0  0  0
 18 19  2  0  0  0
 18100  1  0  0  0
 19 20  1  0  0  0
 19 24  1  0  0  0
 20 21  2  0  0  0
 20101  1  0  0  0
 21 23  1  0  0  0
 22 28  1  0  0  0
 22 32  2  0  0  0
 26 27  1  0  0  0
 28102  1  0  0  0
 28103  1  0  0  0
 29104  1  0  0  0
 29105  1  0  0  0
 33 34  1  0  0  0
 33 66  1  0  0  0
 33 70  2  0  0  0
 34 36  1  0  0  0
 34 59  1  0  0  0
 34106  1  0  0  0
 35 44  2  0  0  0
 35 45  1  0  0  0
 35 68  1  0  0  0
 36 56  1  0  0  0
 36107  1  0  0  0
 37 39  1  0  0  0
 37 47  1  0  0  0
 37 66  1  0  0  0
 37108  1  0  0  0
 38 43  2  0  0  0
 38 46  1  0  0  0
 38 47  1  0  0  0
 39 64  1  0  0  0
 39 67  2  0  0  0
 40 52  1  0  0  0
 40 53  2  0  0  0
 40 58  1  0  0  0
 41109  1  0  0  0
 41110  1  0  0  0
 41111  1  0  0  0
 41 48  1  0  0  0
 42 43  1  0  0  0
 42 66  1  0  0  0
 42112  1  0  0  0
 42113  1  0  0  0
 43 44  1  0  0  0
 44114  1  0  0  0
 45 46  2  0  0  0
 45115  1  0  0  0
 46116  1  0  0  0
 47117  1  0  0  0
 47118  1  0  0  0
 48 56  1  0  0  0
 48 65  1  0  0  0
 48119  1  0  0  0
 49 50  1  0  0  0
 49 53  1  0  0  0
 49 64  1  0  0  0
 49120  1  0  0  0
 50 51  1  0  0  0
 50121  1  0  0  0
 50122  1  0  0  0
 51 52  1  0  0  0
 51123  1  0  0  0
 51124  1  0  0  0
 52125  1  0  0  0
 52126  1  0  0  0
 53 54  1  0  0  0
 54 55  2  0  0  0
 54127  1  0  0  0
 55 57  1  0  0  0
 55128  1  0  0  0
 56 69  2  0  0  0
 57 58  2  0  0  0
 57129  1  0  0  0
 58130  1  0  0  0
 59 60  1  0  0  0
 59 61  1  0  0  0
 59 62  1  0  0  0
 60131  1  0  0  0
 60132  1  0  0  0
 60133  1  0  0  0
 61134  1  0  0  0
 61135  1  0  0  0
 61136  1  0  0  0
 62137  1  0  0  0
 62138  1  0  0  0
 62139  1  0  0  0
 63 65  1  0  0  0
 63140  1  0  0  0
 63141  1  0  0  0
 63142  1  0  0  0
 64143  1  0  0  0
 65144  1  0  0  0
 68 80  1  0  0  0
 71 73  2  0  0  0
 71 75  1  0  0  0
 71145  1  0  0  0
 72 74  1  0  0  0
 72 76  2  0  0  0
 72146  1  0  0  0
 73 76  1  0  0  0
 73 79  1  0  0  0
 74 75  2  0  0  0
 74 82  1  0  0  0
 75 84  1  0  0  0
 76 85  1  0  0  0
 77 80  1  0  0  0
 77 81  1  0  0  0
 77 83  2  0  0  0
 78 82  1  0  0  0
 78147  1  0  0  0
 78148  1  0  0  0
 78149  1  0  0  0
 79 81  1  0  0  0
 79150  1  0  0  0
 79151  1  0  0  0
 80152  1  0  0  0
 80153  1  0  0  0
 81154  1  0  0  0
M  ISO  4   1 100  68 101  80 101  82 100
M  END
> <chiral flag>
0

> <version>
0

> <s_m_source_file>
/data/baiqing/PycharmProjects/Reinvent-master-3.2/result/LINK_invent/BTK/process_docking_weight1_custom_sum_contain_oxygen_bond_distance_aromatic_linkinvent_7_9_3/rearranged_h_0015.sdf

> <i_m_source_file_index>
23

> <r_mmod_Potential_Energy-OPLS-2005>
214.203506469727

> <r_mmod_Stretch_Energy-OPLS-2005>
88.482177734375

> <r_mmod_Bend_Energy-OPLS-2005>
153.35807800293

> <r_mmod_Torsional_Energy-OPLS-2005>
302.801635742188

> <r_mmod_Improper_Torsional_Energy-OPLS-2005>
27.9578876495361

> <r_mmod_Van_der_Waal_Energy-OPLS-2005>
155.993591308594

> <r_mmod_Electrostatic_Energy-OPLS-2005>
-360.167907714844

> <r_mmod_Solvation_Energy-OPLS-2005>
-228.472625732422

> <b_mmod_Minimization_Converged-OPLS-2005>
0

> <r_mmod_RMS_Derivative-OPLS-2005>
2.42108988761902

$$$$
24
                    3D
 Structure written by MMmdl.
163171  0  0  1  0            999 V2000
  -30.5997  -14.7287   20.4418 C   0  0  0  0  0  0
  -30.4382  -12.4242   19.4966 C   0  0  0  0  0  0
  -29.5250  -12.4709   18.2522 C   0  0  0  0  0  0
  -28.0403  -12.3332   18.6486 C   0  0  0  0  0  0
  -27.6487  -13.2269   19.8563 C   0  0  2  0  0  0
  -28.6885  -13.1417   20.9960 C   0  0  0  0  0  0
  -25.2546  -13.8192   20.5683 C   0  0  0  0  0  0
  -24.1814  -13.0449   20.9180 C   0  0  0  0  0  0
  -24.6391  -11.6920   20.8727 C   0  0  0  0  0  0
  -23.9058  -10.4298   21.0385 C   0  0  0  0  0  0
  -24.3611   -9.4218   21.9169 C   0  0  0  0  0  0
  -23.6294   -8.2250   22.0744 C   0  0  0  0  0  0
  -22.4274   -8.0283   21.3537 C   0  0  0  0  0  0
  -21.9903   -9.0249   20.4632 C   0  0  0  0  0  0
  -22.7226  -10.2136   20.3039 C   0  0  0  0  0  0
  -21.6852   -6.0736   22.5280 C   0  0  0  0  0  0
  -21.4008   -6.5638   23.8211 C   0  0  0  0  0  0
  -21.3664   -5.6789   24.9175 C   0  0  0  0  0  0
  -21.6056   -4.3054   24.7223 C   0  0  0  0  0  0
  -21.8818   -3.8147   23.4340 C   0  0  0  0  0  0
  -21.9186   -4.6965   22.3396 C   0  0  0  0  0  0
  -22.7837  -13.5237   21.1852 C   0  0  0  0  0  0
  -22.1654   -4.2148   21.0975 F   0  0  0  0  0  0
  -21.5635   -3.4538   25.7734 F   0  0  0  0  0  0
  -29.9970  -13.4893   20.4272 N   0  0  0  0  0  0
  -26.2966  -12.9393   20.3281 N   0  0  0  0  0  0
  -25.9326  -11.6536   20.5755 N   0  0  0  0  0  0
  -22.0478  -12.8214   22.0400 N   0  0  0  0  0  0
  -25.4273  -15.1913   20.4119 N   0  0  0  0  0  0
  -31.7706  -14.8494   20.0680 O   0  0  0  0  0  0
  -21.6643   -6.8881   21.4240 O   0  0  0  0  0  0
  -22.3517  -14.5548   20.6722 O   0  0  0  0  0  0
  -24.6297  -31.8561   23.1999 C   0  0  0  0  0  0
  -25.9128  -32.4760   23.8338 C   0  0  1  0  0  0
  -27.2238  -27.2742   20.1229 C   0  0  0  0  0  0
  -25.5927  -33.8564   24.2265 N   0  0  0  0  0  0
  -23.4265  -30.4789   21.5435 C   0  0  2  0  0  0
  -24.8751  -28.9314   20.1087 C   0  0  0  0  0  0
  -22.7498  -29.4600   22.4921 C   0  0  0  0  0  0
  -18.0290  -28.1386   22.8492 C   0  0  0  0  0  0
  -24.1490  -36.7281   23.2644 C   0  0  0  0  0  0
  -25.9717  -30.7736   21.3784 C   0  0  0  0  0  0
  -26.0464  -29.3978   20.7185 C   0  0  0  0  0  0
  -27.2228  -28.5822   20.7156 C   0  0  0  0  0  0
  -26.0285  -26.8790   19.4770 C   0  0  0  0  0  0
  -24.8712  -27.6799   19.4766 C   0  0  0  0  0  0
  -23.6442  -29.8152   20.1587 C   0  0  0  0  0  0
  -25.4117  -36.3074   24.0330 C   0  0  1  0  0  0
  -20.5895  -28.3688   23.1285 C   0  0  2  0  0  0
  -20.6778  -26.9406   22.5420 C   0  0  0  0  0  0
  -19.5754  -26.6380   21.5227 C   0  0  0  0  0  0
  -18.1932  -26.7929   22.1632 C   0  0  0  0  0  0
  -19.1544  -28.8858   23.2880 C   0  0  0  0  0  0
  -18.9463  -30.1462   23.8895 C   0  0  0  0  0  0
  -17.6459  -30.6586   24.0568 C   0  0  0  0  0  0
  -25.9055  -34.9445   23.5101 C   0  0  0  0  0  0
  -16.5352  -29.9081   23.6334 C   0  0  0  0  0  0
  -16.7276  -28.6501   23.0353 C   0  0  0  0  0  0
  -26.4499  -31.6573   25.0715 C   0  0  0  0  0  0
  -25.3720  -31.3710   26.1428 C   0  0  0  0  0  0
  -27.0342  -30.2993   24.6181 C   0  0  0  0  0  0
  -27.6056  -32.4308   25.7484 C   0  0  0  0  0  0
  -27.5582  -37.1797   24.8469 C   0  0  0  0  0  0
  -21.4208  -29.3027   22.3665 N   0  0  0  0  0  0
  -26.4294  -37.3770   23.9411 N   0  0  0  0  0  0
  -24.6951  -31.0531   22.0975 N   0  0  0  0  0  0
  -23.4202  -28.8138   23.3015 O   0  0  0  0  0  0
  -28.3219  -26.3838   20.1890 O   0  0  0  0  0  0
  -26.5629  -34.8917   22.4670 O   0  0  0  0  0  0
  -23.5449  -32.1381   23.7294 O   0  0  0  0  0  0
  -29.7653  -18.4545   20.6730 C   0  0  0  0  0  0
  -29.2759  -18.3125   17.9473 C   0  0  0  0  0  0
  -29.5788  -19.7077   19.9489 C   0  0  0  0  0  0
  -29.3761  -19.5841   18.5488 C   0  0  0  0  0  0
  -29.7299  -17.1369   20.0521 C   0  0  0  0  0  0
  -29.4136  -17.1017   18.6702 C   0  0  0  0  0  0
  -29.2678  -20.7934   17.6299 C   0  0  0  0  0  0
  -29.4554  -23.9936   21.9872 C   0  0  0  0  0  0
  -28.5451  -15.8274   16.8224 C   0  0  0  0  0  0
  -29.7192  -21.1601   20.6060 C   0  0  0  0  0  0
  -28.0795  -24.9099   20.0105 C   0  0  0  0  0  0
  -29.1425  -23.7861   20.4925 C   0  0  2  0  0  0
  -29.8373  -15.8396   20.7653 N   0  0  0  0  0  0
  -28.7749  -22.3076   20.2069 N   0  3  0  0  0  0
  -29.2206  -15.8715   18.0763 O   0  0  0  0  0  0
  -31.4814  -12.5411   19.1997 H   0  0  0  0  0  0
  -30.3755  -11.4482   19.9802 H   0  0  0  0  0  0
  -29.7982  -11.6762   17.5570 H   0  0  0  0  0  0
  -29.6928  -13.4033   17.7179 H   0  0  0  0  0  0
  -27.8696  -11.2852   18.8974 H   0  0  0  0  0  0
  -27.3963  -12.5478   17.7944 H   0  0  0  0  0  0
  -27.6509  -14.2522   19.4871 H   0  0  0  0  0  0
  -28.7145  -12.1364   21.4195 H   0  0  0  0  0  0
  -28.4220  -13.8092   21.8163 H   0  0  0  0  0  0
  -25.2759   -9.5702   22.4737 H   0  0  0  0  0  0
  -24.0009   -7.4642   22.7462 H   0  0  0  0  0  0
  -21.0835   -8.8749   19.8938 H   0  0  0  0  0  0
  -22.3665  -10.9665   19.6142 H   0  0  0  0  0  0
  -21.1992   -7.6143   23.9715 H   0  0  0  0  0  0
  -21.1495   -6.0516   25.9079 H   0  0  0  0  0  0
  -22.0594   -2.7609   23.2835 H   0  0  0  0  0  0
  -22.4107  -11.9880   22.4784 H   0  0  0  0  0  0
  -21.1095  -13.1236   22.2618 H   0  0  0  0  0  0
  -24.6653  -15.8504   20.5277 H   0  0  0  0  0  0
  -26.2813  -15.6264   20.0874 H   0  0  0  0  0  0
  -26.7190  -32.5412   23.1080 H   0  0  0  0  0  0
  -25.0064  -33.9709   25.0402 H   0  0  0  0  0  0
  -22.7220  -31.3005   21.3991 H   0  0  0  0  0  0
  -23.3758  -35.9606   23.3301 H   0  0  0  0  0  0
  -24.3590  -36.8906   22.2060 H   0  0  0  0  0  0
  -23.7226  -37.6477   23.6664 H   0  0  0  0  0  0
  -26.1084  -31.5365   20.6107 H   0  0  0  0  0  0
  -26.8503  -30.8228   22.0097 H   0  0  0  0  0  0
  -28.1180  -28.9343   21.2095 H   0  0  0  0  0  0
  -25.9522  -25.9277   18.9718 H   0  0  0  0  0  0
  -23.9761  -27.3211   18.9873 H   0  0  0  0  0  0
  -23.7648  -30.5935   19.4042 H   0  0  0  0  0  0
  -22.7633  -29.2466   19.8547 H   0  0  0  0  0  0
  -25.1295  -36.1929   25.0823 H   0  0  0  0  0  0
  -20.9990  -28.3258   24.1405 H   0  0  0  0  0  0
  -20.5693  -26.2288   23.3616 H   0  0  0  0  0  0
  -21.6641  -26.7439   22.1199 H   0  0  0  0  0  0
  -19.6914  -25.6293   21.1250 H   0  0  0  0  0  0
  -19.6696  -27.3196   20.6761 H   0  0  0  0  0  0
  -17.4204  -26.6690   21.4027 H   0  0  0  0  0  0
  -18.0322  -26.0069   22.9022 H   0  0  0  0  0  0
  -19.7938  -30.7286   24.2249 H   0  0  0  0  0  0
  -17.5011  -31.6271   24.5160 H   0  0  0  0  0  0
  -15.5351  -30.2982   23.7661 H   0  0  0  0  0  0
  -15.8677  -28.0823   22.7062 H   0  0  0  0  0  0
  -24.5915  -30.7042   25.7740 H   0  0  0  0  0  0
  -24.8888  -32.2874   26.4828 H   0  0  0  0  0  0
  -25.8038  -30.8900   27.0214 H   0  0  0  0  0  0
  -26.2920  -29.6737   24.1210 H   0  0  0  0  0  0
  -27.4040  -29.7249   25.4683 H   0  0  0  0  0  0
  -27.8790  -30.4269   23.9410 H   0  0  0  0  0  0
  -27.2677  -33.3621   26.2041 H   0  0  0  0  0  0
  -28.3879  -32.6846   25.0318 H   0  0  0  0  0  0
  -28.0709  -31.8441   26.5416 H   0  0  0  0  0  0
  -28.2590  -38.0101   24.7521 H   0  0  0  0  0  0
  -28.1085  -36.2633   24.6286 H   0  0  0  0  0  0
  -27.2307  -37.1431   25.8874 H   0  0  0  0  0  0
  -20.9382  -29.8739   21.6868 H   0  0  0  0  0  0
  -26.0175  -38.2846   24.1409 H   0  0  0  0  0  0
  -29.9623  -18.5089   21.7342 H   0  0  0  0  0  0
  -29.0857  -18.2861   16.8842 H   0  0  0  0  0  0
  -29.3875  -20.5062   16.5841 H   0  0  0  0  0  0
  -30.0471  -21.5268   17.8380 H   0  0  0  0  0  0
  -28.2885  -21.2644   17.7169 H   0  0  0  0  0  0
  -29.7598  -25.0235   22.1806 H   0  0  0  0  0  0
  -30.2695  -23.3540   22.3281 H   0  0  0  0  0  0
  -28.5837  -23.7905   22.6092 H   0  0  0  0  0  0
  -28.2769  -14.7997   16.5803 H   0  0  0  0  0  0
  -29.1804  -16.1964   16.0164 H   0  0  0  0  0  0
  -27.6183  -16.4028   16.8424 H   0  0  0  0  0  0
  -30.7374  -21.4902   20.3948 H   0  0  0  0  0  0
  -29.6690  -21.0457   21.6890 H   0  0  0  0  0  0
  -27.1406  -24.6689   20.5108 H   0  0  0  0  0  0
  -27.9037  -24.7498   18.9458 H   0  0  0  0  0  0
  -30.0635  -23.9774   19.9396 H   0  0  0  0  0  0
  -29.0033  -15.5992   21.2788 H   0  0  0  0  0  0
  -27.8798  -22.1011   20.6222 H   0  0  0  0  0  0
  -28.6501  -22.2177   19.2108 H   0  0  0  0  0  0
  1 25  1  0  0  0
  1 30  2  0  0  0
  1 83  1  0  0  0
  2  3  1  0  0  0
  2 25  1  0  0  0
  2 86  1  0  0  0
  2 87  1  0  0  0
  3  4  1  0  0  0
  3 88  1  0  0  0
  3 89  1  0  0  0
  4  5  1  0  0  0
  4 90  1  0  0  0
  4 91  1  0  0  0
  5  6  1  0  0  0
  5 26  1  0  0  0
  5 92  1  0  0  0
  6 25  1  0  0  0
  6 93  1  0  0  0
  6 94  1  0  0  0
  7  8  2  0  0  0
  7 26  1  0  0  0
  7 29  1  0  0  0
  8  9  1  0  0  0
  8 22  1  0  0  0
  9 10  1  0  0  0
  9 27  2  0  0  0
 10 11  2  0  0  0
 10 15  1  0  0  0
 11 12  1  0  0  0
 11 95  1  0  0  0
 12 13  2  0  0  0
 12 96  1  0  0  0
 13 14  1  0  0  0
 13 31  1  0  0  0
 14 15  2  0  0  0
 14 97  1  0  0  0
 15 98  1  0  0  0
 16 17  2  0  0  0
 16 21  1  0  0  0
 16 31  1  0  0  0
 17 18  1  0  0  0
 17 99  1  0  0  0
 18 19  2  0  0  0
 18100  1  0  0  0
 19 20  1  0  0  0
 19 24  1  0  0  0
 20 21  2  0  0  0
 20101  1  0  0  0
 21 23  1  0  0  0
 22 28  1  0  0  0
 22 32  2  0  0  0
 26 27  1  0  0  0
 28102  1  0  0  0
 28103  1  0  0  0
 29104  1  0  0  0
 29105  1  0  0  0
 33 34  1  0  0  0
 33 66  1  0  0  0
 33 70  2  0  0  0
 34 36  1  0  0  0
 34 59  1  0  0  0
 34106  1  0  0  0
 35 44  2  0  0  0
 35 45  1  0  0  0
 35 68  1  0  0  0
 36 56  1  0  0  0
 36107  1  0  0  0
 37 39  1  0  0  0
 37 47  1  0  0  0
 37 66  1  0  0  0
 37108  1  0  0  0
 38 43  2  0  0  0
 38 46  1  0  0  0
 38 47  1  0  0  0
 39 64  1  0  0  0
 39 67  2  0  0  0
 40 52  1  0  0  0
 40 53  2  0  0  0
 40 58  1  0  0  0
 41109  1  0  0  0
 41110  1  0  0  0
 41111  1  0  0  0
 41 48  1  0  0  0
 42 43  1  0  0  0
 42 66  1  0  0  0
 42112  1  0  0  0
 42113  1  0  0  0
 43 44  1  0  0  0
 44114  1  0  0  0
 45 46  2  0  0  0
 45115  1  0  0  0
 46116  1  0  0  0
 47117  1  0  0  0
 47118  1  0  0  0
 48 56  1  0  0  0
 48 65  1  0  0  0
 48119  1  0  0  0
 49 50  1  0  0  0
 49 53  1  0  0  0
 49 64  1  0  0  0
 49120  1  0  0  0
 50 51  1  0  0  0
 50121  1  0  0  0
 50122  1  0  0  0
 51 52  1  0  0  0
 51123  1  0  0  0
 51124  1  0  0  0
 52125  1  0  0  0
 52126  1  0  0  0
 53 54  1  0  0  0
 54 55  2  0  0  0
 54127  1  0  0  0
 55 57  1  0  0  0
 55128  1  0  0  0
 56 69  2  0  0  0
 57 58  2  0  0  0
 57129  1  0  0  0
 58130  1  0  0  0
 59 60  1  0  0  0
 59 61  1  0  0  0
 59 62  1  0  0  0
 60131  1  0  0  0
 60132  1  0  0  0
 60133  1  0  0  0
 61134  1  0  0  0
 61135  1  0  0  0
 61136  1  0  0  0
 62137  1  0  0  0
 62138  1  0  0  0
 62139  1  0  0  0
 63 65  1  0  0  0
 63140  1  0  0  0
 63141  1  0  0  0
 63142  1  0  0  0
 64143  1  0  0  0
 65144  1  0  0  0
 68 81  1  0  0  0
 71 73  2  0  0  0
 71 75  1  0  0  0
 71145  1  0  0  0
 72 74  2  0  0  0
 72 76  1  0  0  0
 72146  1  0  0  0
 73 74  1  0  0  0
 73 80  1  0  0  0
 74 77  1  0  0  0
 75 76  2  0  0  0
 75 83  1  0  0  0
 76 85  1  0  0  0
 77147  1  0  0  0
 77148  1  0  0  0
 77149  1  0  0  0
 78150  1  0  0  0
 78151  1  0  0  0
 78152  1  0  0  0
 78 82  1  0  0  0
 79 85  1  0  0  0
 79153  1  0  0  0
 79154  1  0  0  0
 79155  1  0  0  0
 80 84  1  0  0  0
 80156  1  0  0  0
 80157  1  0  0  0
 81 82  1  0  0  0
 81158  1  0  0  0
 81159  1  0  0  0
 82 84  1  0  0  0
 82160  1  0  0  0
 83161  1  0  0  0
 84162  1  0  0  0
 84163  1  0  0  0
M  CHG  1  84   1
M  ISO  4   1 100  68 101  81 101  83 100
M  END
> <chiral flag>
0

> <version>
0

> <s_m_source_file>
/data/baiqing/PycharmProjects/Reinvent-master-3.2/result/LINK_invent/BTK/process_docking_weight1_custom_sum_contain_oxygen_bond_distance_aromatic_linkinvent_7_9_3/rearranged_h_0015.sdf

> <i_m_source_file_index>
24

> <r_mmod_Potential_Energy-OPLS-2005>
2.83480596542358

> <r_mmod_Stretch_Energy-OPLS-2005>
123.291328430176

> <r_mmod_Bend_Energy-OPLS-2005>
159.700485229492

> <r_mmod_Torsional_Energy-OPLS-2005>
250.850723266602

> <r_mmod_Improper_Torsional_Energy-OPLS-2005>
5.6915283203125

> <r_mmod_Van_der_Waal_Energy-OPLS-2005>
144.552108764648

> <r_mmod_Electrostatic_Energy-OPLS-2005>
-291.214752197266

> <r_mmod_Solvation_Energy-OPLS-2005>
-468.759765625

> <b_mmod_Minimization_Converged-OPLS-2005>
0

> <r_mmod_RMS_Derivative-OPLS-2005>
1.15677642822266

$$$$
25
                    3D
 Structure written by MMmdl.
166174  0  0  1  0            999 V2000
  -30.8525  -14.4165   20.6969 C   0  0  0  0  0  0
  -30.3910  -12.3103   19.4761 C   0  0  0  0  0  0
  -29.4987  -12.5242   18.2392 C   0  0  0  0  0  0
  -28.0266  -12.3420   18.6334 C   0  0  0  0  0  0
  -27.6526  -13.2214   19.8476 C   0  0  2  0  0  0
  -28.6734  -13.1050   20.9989 C   0  0  0  0  0  0
  -25.2545  -13.8197   20.5628 C   0  0  0  0  0  0
  -24.1835  -13.0457   20.9155 C   0  0  0  0  0  0
  -24.6405  -11.6932   20.8712 C   0  0  0  0  0  0
  -23.9095  -10.4308   21.0397 C   0  0  0  0  0  0
  -24.3649   -9.4221   21.9175 C   0  0  0  0  0  0
  -23.6312   -8.2264   22.0768 C   0  0  0  0  0  0
  -22.4289   -8.0294   21.3560 C   0  0  0  0  0  0
  -21.9926   -9.0272   20.4662 C   0  0  0  0  0  0
  -22.7265  -10.2146   20.3052 C   0  0  0  0  0  0
  -21.6865   -6.0752   22.5296 C   0  0  0  0  0  0
  -21.4015   -6.5650   23.8226 C   0  0  0  0  0  0
  -21.3655   -5.6801   24.9186 C   0  0  0  0  0  0
  -21.6029   -4.3064   24.7233 C   0  0  0  0  0  0
  -21.8816   -3.8160   23.4355 C   0  0  0  0  0  0
  -21.9190   -4.6979   22.3416 C   0  0  0  0  0  0
  -22.7852  -13.5224   21.1849 C   0  0  0  0  0  0
  -22.1657   -4.2169   21.0996 F   0  0  0  0  0  0
  -21.5622   -3.4542   25.7743 F   0  0  0  0  0  0
  -30.0553  -13.3126   20.5123 N   0  0  0  0  0  0
  -26.2963  -12.9404   20.3176 N   0  0  0  0  0  0
  -25.9317  -11.6551   20.5664 N   0  0  0  0  0  0
  -22.0525  -12.8224   22.0430 N   0  0  0  0  0  0
  -25.4229  -15.1939   20.4121 N   0  0  0  0  0  0
  -31.7052  -14.6867   19.8495 O   0  0  0  0  0  0
  -21.6639   -6.8902   21.4262 O   0  0  0  0  0  0
  -22.3526  -14.5530   20.6689 O   0  0  0  0  0  0
  -24.6282  -31.8583   23.2029 C   0  0  0  0  0  0
  -25.9122  -32.4775   23.8333 C   0  0  1  0  0  0
  -27.2282  -27.3550   20.0830 C   0  0  0  0  0  0
  -25.5961  -33.8584   24.2241 N   0  0  0  0  0  0
  -23.4187  -30.4892   21.5480 C   0  0  2  0  0  0
  -24.8575  -28.9481   20.1150 C   0  0  0  0  0  0
  -22.7469  -29.4655   22.4922 C   0  0  0  0  0  0
  -18.0260  -28.1385   22.8441 C   0  0  0  0  0  0
  -24.1504  -36.7340   23.2633 C   0  0  0  0  0  0
  -25.9615  -30.7985   21.3732 C   0  0  0  0  0  0
  -26.0304  -29.4331   20.7069 C   0  0  0  0  0  0
  -27.2183  -28.6481   20.6766 C   0  0  0  0  0  0
  -26.0208  -26.9072   19.4922 C   0  0  0  0  0  0
  -24.8539  -27.6864   19.5048 C   0  0  0  0  0  0
  -23.6260  -29.8240   20.1642 C   0  0  0  0  0  0
  -25.4135  -36.3100   24.0300 C   0  0  1  0  0  0
  -20.5873  -28.3709   23.1209 C   0  0  2  0  0  0
  -20.6777  -26.9426   22.5364 C   0  0  0  0  0  0
  -19.5759  -26.6370   21.5181 C   0  0  0  0  0  0
  -18.1917  -26.7926   22.1581 C   0  0  0  0  0  0
  -19.1519  -28.8861   23.2820 C   0  0  0  0  0  0
  -18.9473  -30.1440   23.8867 C   0  0  0  0  0  0
  -17.6471  -30.6592   24.0542 C   0  0  0  0  0  0
  -25.9056  -34.9463   23.5051 C   0  0  0  0  0  0
  -16.5355  -29.9086   23.6342 C   0  0  0  0  0  0
  -16.7249  -28.6503   23.0343 C   0  0  0  0  0  0
  -26.4501  -31.6644   25.0742 C   0  0  0  0  0  0
  -25.3736  -31.3811   26.1478 C   0  0  0  0  0  0
  -27.0382  -30.3061   24.6274 C   0  0  0  0  0  0
  -27.6017  -32.4423   25.7529 C   0  0  0  0  0  0
  -27.5600  -37.1812   24.8434 C   0  0  0  0  0  0
  -21.4174  -29.3090   22.3666 N   0  0  0  0  0  0
  -26.4307  -37.3795   23.9399 N   0  0  0  0  0  0
  -24.6888  -31.0633   22.0978 N   0  0  0  0  0  0
  -23.4169  -28.8151   23.2985 O   0  0  0  0  0  0
  -28.3762  -26.5512   20.0790 O   0  0  0  0  0  0
  -26.5615  -34.8915   22.4606 O   0  0  0  0  0  0
  -23.5448  -32.1370   23.7381 O   0  0  0  0  0  0
  -29.9539  -18.5484   21.9651 C   0  0  0  0  0  0
  -31.5820  -18.3531   20.1965 C   0  0  0  0  0  0
  -30.9685  -17.7824   21.3342 C   0  0  0  0  0  0
  -30.3081  -20.4642   20.4289 C   0  0  0  0  0  0
  -29.6265  -19.8619   21.5261 C   0  0  0  0  0  0
  -31.2656  -19.6605   19.7630 C   0  0  0  0  0  0
  -33.0660  -16.3426   21.7998 C   0  0  0  0  0  0
  -31.6787  -14.3231   24.0521 C   0  0  0  0  0  0
  -29.3416  -15.4033   23.8933 C   0  0  0  0  0  0
  -29.4232  -24.1567   19.9422 C   0  0  0  0  0  0
  -28.1750  -25.0986   20.0163 C   0  0  0  0  0  0
  -29.2433  -22.7176   20.5525 C   0  0  0  0  0  0
  -31.5283  -16.4850   21.9827 C   0  0  2  0  0  0
  -30.4347  -14.5868   23.1705 C   0  0  0  0  0  0
  -30.7738  -15.1803   21.8430 N   0  0  0  0  0  0
  -30.1492  -21.7705   19.9515 O   0  0  0  0  0  0
  -28.6619  -20.5384   22.1939 F   0  0  0  0  0  0
  -31.9288  -20.1693   18.6965 F   0  0  0  0  0  0
  -31.4460  -12.3310   19.1986 H   0  0  0  0  0  0
  -30.2247  -11.3117   19.8827 H   0  0  0  0  0  0
  -29.7618  -11.8159   17.4524 H   0  0  0  0  0  0
  -29.6587  -13.5241   17.8308 H   0  0  0  0  0  0
  -27.8671  -11.2883   18.8710 H   0  0  0  0  0  0
  -27.3740  -12.5594   17.7874 H   0  0  0  0  0  0
  -27.6758  -14.2527   19.4947 H   0  0  0  0  0  0
  -28.5965  -12.1366   21.4952 H   0  0  0  0  0  0
  -28.3797  -13.8579   21.7276 H   0  0  0  0  0  0
  -25.2801   -9.5681   22.4741 H   0  0  0  0  0  0
  -24.0012   -7.4655   22.7491 H   0  0  0  0  0  0
  -21.0856   -8.8790   19.8976 H   0  0  0  0  0  0
  -22.3722  -10.9681   19.6155 H   0  0  0  0  0  0
  -21.2010   -7.6158   23.9740 H   0  0  0  0  0  0
  -21.1470   -6.0529   25.9091 H   0  0  0  0  0  0
  -22.0593   -2.7624   23.2854 H   0  0  0  0  0  0
  -22.4135  -11.9870   22.4794 H   0  0  0  0  0  0
  -21.1148  -13.1256   22.2673 H   0  0  0  0  0  0
  -24.6580  -15.8451   20.5506 H   0  0  0  0  0  0
  -26.2762  -15.6465   20.1105 H   0  0  0  0  0  0
  -26.7202  -32.5451   23.1082 H   0  0  0  0  0  0
  -25.0201  -33.9716   25.0453 H   0  0  0  0  0  0
  -22.7155  -31.3136   21.4092 H   0  0  0  0  0  0
  -23.3730  -35.9705   23.3281 H   0  0  0  0  0  0
  -24.3578  -36.9004   22.2049 H   0  0  0  0  0  0
  -23.7293  -37.6542   23.6681 H   0  0  0  0  0  0
  -26.1039  -31.5673   20.6138 H   0  0  0  0  0  0
  -26.8344  -30.8255   22.0149 H   0  0  0  0  0  0
  -28.1283  -29.0264   21.1213 H   0  0  0  0  0  0
  -25.9374  -25.9541   18.9977 H   0  0  0  0  0  0
  -23.9559  -27.3041   19.0397 H   0  0  0  0  0  0
  -23.7410  -30.5991   19.4072 H   0  0  0  0  0  0
  -22.7464  -29.2486   19.8671 H   0  0  0  0  0  0
  -25.1303  -36.1965   25.0790 H   0  0  0  0  0  0
  -20.9933  -28.3332   24.1337 H   0  0  0  0  0  0
  -20.5715  -26.2341   23.3587 H   0  0  0  0  0  0
  -21.6642  -26.7471   22.1161 H   0  0  0  0  0  0
  -19.6923  -25.6272   21.1246 H   0  0  0  0  0  0
  -19.6713  -27.3149   20.6686 H   0  0  0  0  0  0
  -17.4198  -26.6646   21.3961 H   0  0  0  0  0  0
  -18.0292  -26.0074   22.8986 H   0  0  0  0  0  0
  -19.7975  -30.7192   24.2282 H   0  0  0  0  0  0
  -17.5063  -31.6285   24.5119 H   0  0  0  0  0  0
  -15.5355  -30.2963   23.7731 H   0  0  0  0  0  0
  -15.8645  -28.0817   22.7072 H   0  0  0  0  0  0
  -24.5841  -30.7246   25.7798 H   0  0  0  0  0  0
  -24.9025  -32.3004   26.4944 H   0  0  0  0  0  0
  -25.8033  -30.8930   27.0245 H   0  0  0  0  0  0
  -26.2972  -29.6741   24.1361 H   0  0  0  0  0  0
  -27.4099  -29.7392   25.4825 H   0  0  0  0  0  0
  -27.8824  -30.4285   23.9497 H   0  0  0  0  0  0
  -27.2565  -33.3720   26.2066 H   0  0  0  0  0  0
  -28.3840  -32.7029   25.0388 H   0  0  0  0  0  0
  -28.0679  -31.8632   26.5498 H   0  0  0  0  0  0
  -28.2547  -38.0182   24.7528 H   0  0  0  0  0  0
  -28.1163  -36.2690   24.6197 H   0  0  0  0  0  0
  -27.2294  -37.1382   25.8829 H   0  0  0  0  0  0
  -20.9351  -29.8947   21.6990 H   0  0  0  0  0  0
  -26.0176  -38.2850   24.1442 H   0  0  0  0  0  0
  -29.4525  -18.1558   22.8387 H   0  0  0  0  0  0
  -32.3578  -17.8202   19.6684 H   0  0  0  0  0  0
  -33.5946  -17.2019   22.2144 H   0  0  0  0  0  0
  -33.3728  -16.2512   20.7580 H   0  0  0  0  0  0
  -33.4507  -15.4597   22.3083 H   0  0  0  0  0  0
  -31.4261  -13.7363   24.9362 H   0  0  0  0  0  0
  -32.1511  -15.2361   24.4152 H   0  0  0  0  0  0
  -32.4317  -13.7564   23.5018 H   0  0  0  0  0  0
  -28.9319  -14.8521   24.7391 H   0  0  0  0  0  0
  -28.5072  -15.6389   23.2318 H   0  0  0  0  0  0
  -29.7243  -16.3452   24.2879 H   0  0  0  0  0  0
  -30.2930  -24.6353   20.3910 H   0  0  0  0  0  0
  -29.6831  -24.0373   18.8884 H   0  0  0  0  0  0
  -27.5561  -24.8090   20.8680 H   0  0  0  0  0  0
  -27.6249  -24.8389   19.1119 H   0  0  0  0  0  0
  -28.2253  -22.3609   20.3933 H   0  0  0  0  0  0
  -29.4193  -22.7771   21.6287 H   0  0  0  0  0  0
  -31.4745  -16.7631   23.0321 H   0  0  0  0  0  0
  -30.0320  -13.5842   23.0516 H   0  0  0  0  0  0
  1 25  1  0  0  0
  1 30  2  0  0  0
  1 85  1  0  0  0
  2  3  1  0  0  0
  2 25  1  0  0  0
  2 89  1  0  0  0
  2 90  1  0  0  0
  3  4  1  0  0  0
  3 91  1  0  0  0
  3 92  1  0  0  0
  4  5  1  0  0  0
  4 93  1  0  0  0
  4 94  1  0  0  0
  5  6  1  0  0  0
  5 26  1  0  0  0
  5 95  1  0  0  0
  6 25  1  0  0  0
  6 96  1  0  0  0
  6 97  1  0  0  0
  7  8  2  0  0  0
  7 26  1  0  0  0
  7 29  1  0  0  0
  8  9  1  0  0  0
  8 22  1  0  0  0
  9 10  1  0  0  0
  9 27  2  0  0  0
 10 11  2  0  0  0
 10 15  1  0  0  0
 11 12  1  0  0  0
 11 98  1  0  0  0
 12 13  2  0  0  0
 12 99  1  0  0  0
 13 14  1  0  0  0
 13 31  1  0  0  0
 14 15  2  0  0  0
 14100  1  0  0  0
 15101  1  0  0  0
 16 17  2  0  0  0
 16 21  1  0  0  0
 16 31  1  0  0  0
 17 18  1  0  0  0
 17102  1  0  0  0
 18 19  2  0  0  0
 18103  1  0  0  0
 19 20  1  0  0  0
 19 24  1  0  0  0
 20 21  2  0  0  0
 20104  1  0  0  0
 21 23  1  0  0  0
 22 28  1  0  0  0
 22 32  2  0  0  0
 26 27  1  0  0  0
 28105  1  0  0  0
 28106  1  0  0  0
 29107  1  0  0  0
 29108  1  0  0  0
 33 34  1  0  0  0
 33 66  1  0  0  0
 33 70  2  0  0  0
 34 36  1  0  0  0
 34 59  1  0  0  0
 34109  1  0  0  0
 35 44  2  0  0  0
 35 45  1  0  0  0
 35 68  1  0  0  0
 36 56  1  0  0  0
 36110  1  0  0  0
 37 39  1  0  0  0
 37 47  1  0  0  0
 37 66  1  0  0  0
 37111  1  0  0  0
 38 43  2  0  0  0
 38 46  1  0  0  0
 38 47  1  0  0  0
 39 64  1  0  0  0
 39 67  2  0  0  0
 40 52  1  0  0  0
 40 53  2  0  0  0
 40 58  1  0  0  0
 41112  1  0  0  0
 41113  1  0  0  0
 41114  1  0  0  0
 41 48  1  0  0  0
 42 43  1  0  0  0
 42 66  1  0  0  0
 42115  1  0  0  0
 42116  1  0  0  0
 43 44  1  0  0  0
 44117  1  0  0  0
 45 46  2  0  0  0
 45118  1  0  0  0
 46119  1  0  0  0
 47120  1  0  0  0
 47121  1  0  0  0
 48 56  1  0  0  0
 48 65  1  0  0  0
 48122  1  0  0  0
 49 50  1  0  0  0
 49 53  1  0  0  0
 49 64  1  0  0  0
 49123  1  0  0  0
 50 51  1  0  0  0
 50124  1  0  0  0
 50125  1  0  0  0
 51 52  1  0  0  0
 51126  1  0  0  0
 51127  1  0  0  0
 52128  1  0  0  0
 52129  1  0  0  0
 53 54  1  0  0  0
 54 55  2  0  0  0
 54130  1  0  0  0
 55 57  1  0  0  0
 55131  1  0  0  0
 56 69  2  0  0  0
 57 58  2  0  0  0
 57132  1  0  0  0
 58133  1  0  0  0
 59 60  1  0  0  0
 59 61  1  0  0  0
 59 62  1  0  0  0
 60134  1  0  0  0
 60135  1  0  0  0
 60136  1  0  0  0
 61137  1  0  0  0
 61138  1  0  0  0
 61139  1  0  0  0
 62140  1  0  0  0
 62141  1  0  0  0
 62142  1  0  0  0
 63 65  1  0  0  0
 63143  1  0  0  0
 63144  1  0  0  0
 63145  1  0  0  0
 64146  1  0  0  0
 65147  1  0  0  0
 68 81  1  0  0  0
 71 73  2  0  0  0
 71 75  1  0  0  0
 71148  1  0  0  0
 72 73  1  0  0  0
 72 76  2  0  0  0
 72149  1  0  0  0
 73 83  1  0  0  0
 74 75  2  0  0  0
 74 76  1  0  0  0
 74 86  1  0  0  0
 75 87  1  0  0  0
 76 88  1  0  0  0
 77150  1  0  0  0
 77151  1  0  0  0
 77152  1  0  0  0
 77 83  1  0  0  0
 78153  1  0  0  0
 78154  1  0  0  0
 78155  1  0  0  0
 78 84  1  0  0  0
 79 84  1  0  0  0
 79156  1  0  0  0
 79157  1  0  0  0
 79158  1  0  0  0
 80 81  1  0  0  0
 80 82  1  0  0  0
 80159  1  0  0  0
 80160  1  0  0  0
 81161  1  0  0  0
 81162  1  0  0  0
 82 86  1  0  0  0
 82163  1  0  0  0
 82164  1  0  0  0
 83 85  1  0  0  0
 83165  1  0  0  0
 84 85  1  0  0  0
 84166  1  0  0  0
M  ISO  4   1 100  68 101  81 101  85 100
M  END
> <chiral flag>
0

> <version>
0

> <s_m_source_file>
/data/baiqing/PycharmProjects/Reinvent-master-3.2/result/LINK_invent/BTK/process_docking_weight1_custom_sum_contain_oxygen_bond_distance_aromatic_linkinvent_7_9_3/rearranged_h_0015.sdf

> <i_m_source_file_index>
25

> <r_mmod_Potential_Energy-OPLS-2005>
306.015380859375

> <r_mmod_Stretch_Energy-OPLS-2005>
69.1749114990234

> <r_mmod_Bend_Energy-OPLS-2005>
157.153106689453

> <r_mmod_Torsional_Energy-OPLS-2005>
294.916931152344

> <r_mmod_Improper_Torsional_Energy-OPLS-2005>
4.68790435791016

> <r_mmod_Van_der_Waal_Energy-OPLS-2005>
174.808731079102

> <r_mmod_Electrostatic_Energy-OPLS-2005>
-243.653366088867

> <r_mmod_Solvation_Energy-OPLS-2005>
-180.209457397461

> <b_mmod_Minimization_Converged-OPLS-2005>
0

> <r_mmod_RMS_Derivative-OPLS-2005>
5.09951400756836

$$$$
26
                    3D
 Structure written by MMmdl.
157165  0  0  1  0            999 V2000
  -30.4025  -15.3240   20.3679 C   0  0  0  0  0  0
  -30.4407  -12.8581   19.4967 C   0  0  0  0  0  0
  -29.5346  -12.5814   18.2718 C   0  0  0  0  0  0
  -28.0863  -12.2951   18.7106 C   0  0  0  0  0  0
  -27.6069  -13.2749   19.8108 C   0  0  2  0  0  0
  -28.6477  -13.4741   20.9296 C   0  0  0  0  0  0
  -25.2408  -13.8235   20.5776 C   0  0  0  0  0  0
  -24.1750  -13.0424   20.9260 C   0  0  0  0  0  0
  -24.6399  -11.6921   20.8750 C   0  0  0  0  0  0
  -23.9090  -10.4283   21.0392 C   0  0  0  0  0  0
  -24.3635   -9.4200   21.9173 C   0  0  0  0  0  0
  -23.6301   -8.2242   22.0752 C   0  0  0  0  0  0
  -22.4284   -8.0279   21.3543 C   0  0  0  0  0  0
  -21.9922   -9.0251   20.4645 C   0  0  0  0  0  0
  -22.7256  -10.2124   20.3045 C   0  0  0  0  0  0
  -21.6852   -6.0733   22.5276 C   0  0  0  0  0  0
  -21.4018   -6.5639   23.8209 C   0  0  0  0  0  0
  -21.3662   -5.6794   24.9174 C   0  0  0  0  0  0
  -21.6041   -4.3057   24.7225 C   0  0  0  0  0  0
  -21.8819   -3.8144   23.4349 C   0  0  0  0  0  0
  -21.9193   -4.6961   22.3402 C   0  0  0  0  0  0
  -22.7767  -13.5184   21.1901 C   0  0  0  0  0  0
  -22.1659   -4.2142   21.0981 F   0  0  0  0  0  0
  -21.5626   -3.4542   25.7741 F   0  0  0  0  0  0
  -29.8516  -14.0105   20.2722 N   0  0  0  0  0  0
  -26.2818  -12.9503   20.3206 N   0  0  0  0  0  0
  -25.9335  -11.6606   20.5692 N   0  0  0  0  0  0
  -22.0429  -12.8160   22.0454 N   0  0  0  0  0  0
  -25.4036  -15.1977   20.4268 N   0  0  0  0  0  0
  -31.6410  -15.3118   20.2907 O   0  0  0  0  0  0
  -21.6644   -6.8878   21.4238 O   0  0  0  0  0  0
  -22.3443  -14.5478   20.6734 O   0  0  0  0  0  0
  -24.6650  -31.8190   23.1685 C   0  0  0  0  0  0
  -25.9329  -32.4556   23.8139 C   0  0  1  0  0  0
  -27.2204  -26.8940   20.1919 C   0  0  0  0  0  0
  -25.5985  -33.8369   24.2033 N   0  0  0  0  0  0
  -23.4804  -30.4300   21.5184 C   0  0  2  0  0  0
  -24.9354  -28.8055   20.1207 C   0  0  0  0  0  0
  -22.7665  -29.4420   22.4777 C   0  0  0  0  0  0
  -18.0311  -28.1400   22.8441 C   0  0  0  0  0  0
  -24.1500  -36.7197   23.2642 C   0  0  0  0  0  0
  -26.0514  -30.6157   21.4037 C   0  0  0  0  0  0
  -26.1218  -29.2005   20.7515 C   0  0  0  0  0  0
  -27.2609  -28.2690   20.7549 C   0  0  0  0  0  0
  -25.9995  -26.6538   19.5233 C   0  0  0  0  0  0
  -24.9006  -27.5520   19.4885 C   0  0  0  0  0  0
  -23.7238  -29.7394   20.1483 C   0  0  0  0  0  0
  -25.4142  -36.2935   24.0278 C   0  0  1  0  0  0
  -20.5935  -28.3747   23.1168 C   0  0  2  0  0  0
  -20.6785  -26.9423   22.5397 C   0  0  0  0  0  0
  -19.5772  -26.6362   21.5194 C   0  0  0  0  0  0
  -18.1949  -26.7929   22.1599 C   0  0  0  0  0  0
  -19.1574  -28.8896   23.2786 C   0  0  0  0  0  0
  -18.9492  -30.1483   23.8828 C   0  0  0  0  0  0
  -17.6489  -30.6592   24.0543 C   0  0  0  0  0  0
  -25.9105  -34.9323   23.4979 C   0  0  0  0  0  0
  -16.5375  -29.9077   23.6343 C   0  0  0  0  0  0
  -16.7295  -28.6500   23.0350 C   0  0  0  0  0  0
  -26.4573  -31.6525   25.0689 C   0  0  0  0  0  0
  -25.3684  -31.3802   26.1336 C   0  0  0  0  0  0
  -27.0475  -30.2874   24.6476 C   0  0  0  0  0  0
  -27.6040  -32.4362   25.7513 C   0  0  0  0  0  0
  -27.5567  -37.1751   24.8454 C   0  0  0  0  0  0
  -21.4333  -29.3033   22.3526 N   0  0  0  0  0  0
  -26.4275  -37.3683   23.9399 N   0  0  0  0  0  0
  -24.7538  -30.9827   22.0836 N   0  0  0  0  0  0
  -23.4197  -28.7989   23.3029 O   0  0  0  0  0  0
  -28.2364  -25.7897   20.1941 O   0  0  0  0  0  0
  -26.5724  -34.8869   22.4577 O   0  0  0  0  0  0
  -23.5719  -32.1177   23.6766 O   0  0  0  0  0  0
  -29.2281  -19.5220   19.9922 C   0  0  0  0  0  0
  -29.5885  -19.6100   22.6650 C   0  0  0  0  0  0
  -29.0608  -20.9432   20.6141 C   0  0  0  0  0  0
  -29.2813  -20.8405   22.0143 C   0  0  0  0  0  0
  -29.5845  -18.1541   20.6518 C   0  0  0  0  0  0
  -29.7253  -18.3317   22.0464 C   0  0  0  0  0  0
  -29.2192  -22.0788   22.8919 C   0  0  0  0  0  0
  -27.7122  -16.8530   23.6868 C   0  0  0  0  0  0
  -28.8458  -22.5801   19.9518 C   0  0  0  0  0  0
  -29.2082  -17.0227   23.9907 C   0  0  0  0  0  0
  -28.0391  -24.1511   20.4567 C   0  0  0  0  0  0
  -29.6260  -16.5906   20.1768 N   0  0  0  0  0  0
  -29.9643  -17.1985   22.7943 O   0  0  0  0  0  0
  -31.4499  -13.0900   19.1543 H   0  0  0  0  0  0
  -30.5359  -11.9679   20.1209 H   0  0  0  0  0  0
  -29.9254  -11.7458   17.6897 H   0  0  0  0  0  0
  -29.5500  -13.4491   17.6102 H   0  0  0  0  0  0
  -28.0561  -11.2738   19.0935 H   0  0  0  0  0  0
  -27.4150  -12.3222   17.8514 H   0  0  0  0  0  0
  -27.5083  -14.2341   19.3011 H   0  0  0  0  0  0
  -28.8461  -12.5471   21.4699 H   0  0  0  0  0  0
  -28.2823  -14.1930   21.6635 H   0  0  0  0  0  0
  -25.2778   -9.5676   22.4750 H   0  0  0  0  0  0
  -23.9999   -7.4638   22.7479 H   0  0  0  0  0  0
  -21.0849   -8.8770   19.8958 H   0  0  0  0  0  0
  -22.3707  -10.9662   19.6155 H   0  0  0  0  0  0
  -21.2015   -7.6148   23.9710 H   0  0  0  0  0  0
  -21.1484   -6.0528   25.9076 H   0  0  0  0  0  0
  -22.0595   -2.7604   23.2853 H   0  0  0  0  0  0
  -22.4075  -11.9842   22.4856 H   0  0  0  0  0  0
  -21.1032  -13.1149   22.2643 H   0  0  0  0  0  0
  -24.6364  -15.8472   20.5621 H   0  0  0  0  0  0
  -26.2548  -15.6503   20.1228 H   0  0  0  0  0  0
  -26.7384  -32.5092   23.0832 H   0  0  0  0  0  0
  -25.0046  -33.9418   25.0126 H   0  0  0  0  0  0
  -22.7955  -31.2627   21.3448 H   0  0  0  0  0  0
  -23.3766  -35.9523   23.3266 H   0  0  0  0  0  0
  -24.3567  -36.8901   22.2065 H   0  0  0  0  0  0
  -23.7272  -37.6369   23.6750 H   0  0  0  0  0  0
  -26.2305  -31.3546   20.6220 H   0  0  0  0  0  0
  -26.9085  -30.6769   22.0622 H   0  0  0  0  0  0
  -28.1656  -28.5757   21.2620 H   0  0  0  0  0  0
  -25.8711  -25.6992   19.0336 H   0  0  0  0  0  0
  -23.9987  -27.2393   18.9815 H   0  0  0  0  0  0
  -23.8841  -30.5042   19.3877 H   0  0  0  0  0  0
  -22.8320  -29.1962   19.8305 H   0  0  0  0  0  0
  -25.1353  -36.1703   25.0770 H   0  0  0  0  0  0
  -21.0001  -28.3360   24.1297 H   0  0  0  0  0  0
  -20.5643  -26.2361   23.3637 H   0  0  0  0  0  0
  -21.6653  -26.7389   22.1225 H   0  0  0  0  0  0
  -19.6932  -25.6255   21.1266 H   0  0  0  0  0  0
  -19.6723  -27.3126   20.6689 H   0  0  0  0  0  0
  -17.4216  -26.6631   21.4010 H   0  0  0  0  0  0
  -18.0377  -26.0090   22.9023 H   0  0  0  0  0  0
  -19.7976  -30.7299   24.2173 H   0  0  0  0  0  0
  -17.5050  -31.6271   24.5146 H   0  0  0  0  0  0
  -15.5374  -30.2957   23.7724 H   0  0  0  0  0  0
  -15.8687  -28.0809   22.7098 H   0  0  0  0  0  0
  -24.5871  -30.7151   25.7646 H   0  0  0  0  0  0
  -24.8871  -32.3016   26.4622 H   0  0  0  0  0  0
  -25.7887  -30.9054   27.0211 H   0  0  0  0  0  0
  -26.3147  -29.6536   24.1467 H   0  0  0  0  0  0
  -27.3944  -29.7266   25.5169 H   0  0  0  0  0  0
  -27.9121  -30.4017   23.9933 H   0  0  0  0  0  0
  -27.2568  -33.3700   26.1950 H   0  0  0  0  0  0
  -28.3931  -32.6869   25.0413 H   0  0  0  0  0  0
  -28.0624  -31.8594   26.5558 H   0  0  0  0  0  0
  -28.2541  -38.0084   24.7511 H   0  0  0  0  0  0
  -28.1102  -36.2606   24.6273 H   0  0  0  0  0  0
  -27.2272  -37.1380   25.8850 H   0  0  0  0  0  0
  -20.9594  -29.8741   21.6666 H   0  0  0  0  0  0
  -26.0107  -38.2726   24.1443 H   0  0  0  0  0  0
  -29.0881  -19.4801   18.9215 H   0  0  0  0  0  0
  -29.7409  -19.6655   23.7318 H   0  0  0  0  0  0
  -28.1881  -22.4190   22.9876 H   0  0  0  0  0  0
  -29.8307  -22.8851   22.4866 H   0  0  0  0  0  0
  -29.5848  -21.8804   23.9000 H   0  0  0  0  0  0
  -27.1497  -16.6725   24.6028 H   0  0  0  0  0  0
  -27.5382  -16.0102   23.0181 H   0  0  0  0  0  0
  -27.2923  -17.7427   23.2176 H   0  0  0  0  0  0
  -28.4870  -22.4015   18.9386 H   0  0  0  0  0  0
  -29.8828  -22.8790   19.8000 H   0  0  0  0  0  0
  -29.5723  -16.1153   24.4720 H   0  0  0  0  0  0
  -29.3776  -17.8210   24.7118 H   0  0  0  0  0  0
  -28.1065  -24.1436   21.5407 H   0  0  0  0  0  0
  -26.9784  -23.9779   20.2782 H   0  0  0  0  0  0
  -28.7466  -16.3406   19.7520 H   0  0  0  0  0  0
  1 25  1  0  0  0
  1 30  2  0  0  0
  1 82  1  0  0  0
  2  3  1  0  0  0
  2 25  1  0  0  0
  2 84  1  0  0  0
  2 85  1  0  0  0
  3  4  1  0  0  0
  3 86  1  0  0  0
  3 87  1  0  0  0
  4  5  1  0  0  0
  4 88  1  0  0  0
  4 89  1  0  0  0
  5  6  1  0  0  0
  5 26  1  0  0  0
  5 90  1  0  0  0
  6 25  1  0  0  0
  6 91  1  0  0  0
  6 92  1  0  0  0
  7  8  2  0  0  0
  7 26  1  0  0  0
  7 29  1  0  0  0
  8  9  1  0  0  0
  8 22  1  0  0  0
  9 10  1  0  0  0
  9 27  2  0  0  0
 10 11  2  0  0  0
 10 15  1  0  0  0
 11 12  1  0  0  0
 11 93  1  0  0  0
 12 13  2  0  0  0
 12 94  1  0  0  0
 13 14  1  0  0  0
 13 31  1  0  0  0
 14 15  2  0  0  0
 14 95  1  0  0  0
 15 96  1  0  0  0
 16 17  2  0  0  0
 16 21  1  0  0  0
 16 31  1  0  0  0
 17 18  1  0  0  0
 17 97  1  0  0  0
 18 19  2  0  0  0
 18 98  1  0  0  0
 19 20  1  0  0  0
 19 24  1  0  0  0
 20 21  2  0  0  0
 20 99  1  0  0  0
 21 23  1  0  0  0
 22 28  1  0  0  0
 22 32  2  0  0  0
 26 27  1  0  0  0
 28100  1  0  0  0
 28101  1  0  0  0
 29102  1  0  0  0
 29103  1  0  0  0
 33 34  1  0  0  0
 33 66  1  0  0  0
 33 70  2  0  0  0
 34 36  1  0  0  0
 34 59  1  0  0  0
 34104  1  0  0  0
 35 44  2  0  0  0
 35 45  1  0  0  0
 35 68  1  0  0  0
 36 56  1  0  0  0
 36105  1  0  0  0
 37 39  1  0  0  0
 37 47  1  0  0  0
 37 66  1  0  0  0
 37106  1  0  0  0
 38 43  2  0  0  0
 38 46  1  0  0  0
 38 47  1  0  0  0
 39 64  1  0  0  0
 39 67  2  0  0  0
 40 52  1  0  0  0
 40 53  2  0  0  0
 40 58  1  0  0  0
 41107  1  0  0  0
 41108  1  0  0  0
 41109  1  0  0  0
 41 48  1  0  0  0
 42 43  1  0  0  0
 42 66  1  0  0  0
 42110  1  0  0  0
 42111  1  0  0  0
 43 44  1  0  0  0
 44112  1  0  0  0
 45 46  2  0  0  0
 45113  1  0  0  0
 46114  1  0  0  0
 47115  1  0  0  0
 47116  1  0  0  0
 48 56  1  0  0  0
 48 65  1  0  0  0
 48117  1  0  0  0
 49 50  1  0  0  0
 49 53  1  0  0  0
 49 64  1  0  0  0
 49118  1  0  0  0
 50 51  1  0  0  0
 50119  1  0  0  0
 50120  1  0  0  0
 51 52  1  0  0  0
 51121  1  0  0  0
 51122  1  0  0  0
 52123  1  0  0  0
 52124  1  0  0  0
 53 54  1  0  0  0
 54 55  2  0  0  0
 54125  1  0  0  0
 55 57  1  0  0  0
 55126  1  0  0  0
 56 69  2  0  0  0
 57 58  2  0  0  0
 57127  1  0  0  0
 58128  1  0  0  0
 59 60  1  0  0  0
 59 61  1  0  0  0
 59 62  1  0  0  0
 60129  1  0  0  0
 60130  1  0  0  0
 60131  1  0  0  0
 61132  1  0  0  0
 61133  1  0  0  0
 61134  1  0  0  0
 62135  1  0  0  0
 62136  1  0  0  0
 62137  1  0  0  0
 63 65  1  0  0  0
 63138  1  0  0  0
 63139  1  0  0  0
 63140  1  0  0  0
 64141  1  0  0  0
 65142  1  0  0  0
 68 81  1  0  0  0
 71 73  2  0  0  0
 71 75  1  0  0  0
 71143  1  0  0  0
 72 74  2  0  0  0
 72 76  1  0  0  0
 72144  1  0  0  0
 73 74  1  0  0  0
 73 79  1  0  0  0
 74 77  1  0  0  0
 75 76  2  0  0  0
 75 82  1  0  0  0
 76 83  1  0  0  0
 77145  1  0  0  0
 77146  1  0  0  0
 77147  1  0  0  0
 78 80  1  0  0  0
 78148  1  0  0  0
 78149  1  0  0  0
 78150  1  0  0  0
 79 81  1  0  0  0
 79151  1  0  0  0
 79152  1  0  0  0
 80 83  1  0  0  0
 80153  1  0  0  0
 80154  1  0  0  0
 81155  1  0  0  0
 81156  1  0  0  0
 82157  1  0  0  0
M  ISO  4   1 100  68 101  81 101  82 100
M  END
> <chiral flag>
0

> <version>
0

> <s_m_source_file>
/data/baiqing/PycharmProjects/Reinvent-master-3.2/result/LINK_invent/BTK/process_docking_weight1_custom_sum_contain_oxygen_bond_distance_aromatic_linkinvent_7_9_3/rearranged_h_0015.sdf

> <i_m_source_file_index>
26

> <r_mmod_Potential_Energy-OPLS-2005>
1422.87512207031

> <r_mmod_Stretch_Energy-OPLS-2005>
652.906311035156

> <r_mmod_Bend_Energy-OPLS-2005>
453.691772460938

> <r_mmod_Torsional_Energy-OPLS-2005>
274.588531494141

> <r_mmod_Improper_Torsional_Energy-OPLS-2005>
12.7017812728882

> <r_mmod_Van_der_Waal_Energy-OPLS-2005>
128.84342956543

> <r_mmod_Electrostatic_Energy-OPLS-2005>
-399.972991943359

> <r_mmod_Solvation_Energy-OPLS-2005>
-216.543579101562

> <b_mmod_Minimization_Converged-OPLS-2005>
0

> <r_mmod_RMS_Derivative-OPLS-2005>
1.25191104412079

$$$$
27
                    3D
 Structure written by MMmdl.
151159  0  0  1  0            999 V2000
  -30.5229  -15.0349   20.3811 C   0  0  0  0  0  0
  -30.4390  -12.6435   19.5022 C   0  0  0  0  0  0
  -29.5230  -12.5334   18.2599 C   0  0  0  0  0  0
  -28.0606  -12.3088   18.6818 C   0  0  0  0  0  0
  -27.6251  -13.2553   19.8299 C   0  0  2  0  0  0
  -28.6684  -13.3241   20.9661 C   0  0  0  0  0  0
  -25.2476  -13.8238   20.5742 C   0  0  0  0  0  0
  -24.1787  -13.0451   20.9269 C   0  0  0  0  0  0
  -24.6409  -11.6946   20.8770 C   0  0  0  0  0  0
  -23.9084  -10.4309   21.0409 C   0  0  0  0  0  0
  -24.3635   -9.4218   21.9176 C   0  0  0  0  0  0
  -23.6322   -8.2240   22.0739 C   0  0  0  0  0  0
  -22.4299   -8.0285   21.3539 C   0  0  0  0  0  0
  -21.9941   -9.0252   20.4627 C   0  0  0  0  0  0
  -22.7259  -10.2145   20.3049 C   0  0  0  0  0  0
  -21.6861   -6.0755   22.5292 C   0  0  0  0  0  0
  -21.3998   -6.5647   23.8225 C   0  0  0  0  0  0
  -21.3661   -5.6796   24.9180 C   0  0  0  0  0  0
  -21.6057   -4.3063   24.7229 C   0  0  0  0  0  0
  -21.8821   -3.8162   23.4345 C   0  0  0  0  0  0
  -21.9191   -4.6982   22.3403 C   0  0  0  0  0  0
  -22.7800  -13.5221   21.1912 C   0  0  0  0  0  0
  -22.1664   -4.2177   21.0976 F   0  0  0  0  0  0
  -21.5631   -3.4540   25.7732 F   0  0  0  0  0  0
  -29.9328  -13.7626   20.3590 N   0  0  0  0  0  0
  -26.2877  -12.9469   20.3220 N   0  0  0  0  0  0
  -25.9335  -11.6600   20.5727 N   0  0  0  0  0  0
  -22.0424  -12.8196   22.0448 N   0  0  0  0  0  0
  -25.4183  -15.1956   20.4194 N   0  0  0  0  0  0
  -31.7363  -15.0492   20.1468 O   0  0  0  0  0  0
  -21.6653   -6.8893   21.4253 O   0  0  0  0  0  0
  -22.3482  -14.5513   20.6749 O   0  0  0  0  0  0
  -24.6504  -31.8362   23.1831 C   0  0  0  0  0  0
  -25.9230  -32.4662   23.8259 C   0  0  1  0  0  0
  -27.2104  -27.0555   20.1724 C   0  0  0  0  0  0
  -25.5949  -33.8485   24.2164 N   0  0  0  0  0  0
  -23.4599  -30.4520   21.5312 C   0  0  2  0  0  0
  -24.9109  -28.8711   20.1103 C   0  0  0  0  0  0
  -22.7608  -29.4479   22.4835 C   0  0  0  0  0  0
  -18.0310  -28.1393   22.8475 C   0  0  0  0  0  0
  -24.1486  -36.7225   23.2645 C   0  0  0  0  0  0
  -26.0237  -30.6819   21.3991 C   0  0  0  0  0  0
  -26.0915  -29.2882   20.7382 C   0  0  0  0  0  0
  -27.2423  -28.4010   20.7463 C   0  0  0  0  0  0
  -26.0017  -26.7609   19.5033 C   0  0  0  0  0  0
  -24.8854  -27.6234   19.4729 C   0  0  0  0  0  0
  -23.6916  -29.7808   20.1517 C   0  0  0  0  0  0
  -25.4123  -36.3021   24.0320 C   0  0  1  0  0  0
  -20.5933  -28.3713   23.1208 C   0  0  2  0  0  0
  -20.6797  -26.9404   22.5396 C   0  0  0  0  0  0
  -19.5763  -26.6358   21.5218 C   0  0  0  0  0  0
  -18.1942  -26.7930   22.1629 C   0  0  0  0  0  0
  -19.1571  -28.8877   23.2831 C   0  0  0  0  0  0
  -18.9484  -30.1478   23.8855 C   0  0  0  0  0  0
  -17.6481  -30.6589   24.0558 C   0  0  0  0  0  0
  -25.9078  -34.9394   23.5054 C   0  0  0  0  0  0
  -16.5373  -29.9074   23.6353 C   0  0  0  0  0  0
  -16.7294  -28.6496   23.0366 C   0  0  0  0  0  0
  -26.4550  -31.6561   25.0727 C   0  0  0  0  0  0
  -25.3707  -31.3790   26.1390 C   0  0  0  0  0  0
  -27.0432  -30.2937   24.6379 C   0  0  0  0  0  0
  -27.6055  -32.4358   25.7521 C   0  0  0  0  0  0
  -27.5577  -37.1743   24.8461 C   0  0  0  0  0  0
  -21.4291  -29.3019   22.3571 N   0  0  0  0  0  0
  -26.4283  -37.3729   23.9419 N   0  0  0  0  0  0
  -24.7319  -31.0118   22.0923 N   0  0  0  0  0  0
  -23.4206  -28.8034   23.3024 O   0  0  0  0  0  0
  -28.2289  -26.0107   20.2429 O   0  0  0  0  0  0
  -26.5667  -34.8901   22.4639 O   0  0  0  0  0  0
  -23.5594  -32.1298   23.6961 O   0  0  0  0  0  0
  -30.4337  -20.5254   19.2080 C   0  0  0  0  0  0
  -31.1566  -19.4085   18.7364 C   0  0  0  0  0  0
  -29.3842  -20.4122   20.1431 C   0  0  0  0  0  0
  -29.9582  -17.7583   20.1468 C   0  0  0  0  0  0
  -30.9177  -18.0799   19.1531 C   0  0  0  0  0  0
  -29.2018  -18.9786   20.6176 C   0  0  0  0  0  0
  -28.9123  -23.1449   20.2879 C   0  0  0  0  0  0
  -27.1433  -21.4942   20.6807 C   0  0  0  0  0  0
  -27.8503  -24.4642   20.1883 C   0  0  0  0  0  0
  -29.7580  -16.2497   20.5286 N   0  0  0  0  0  0
  -28.5584  -21.7314   20.3909 N   0  0  0  0  0  0
  -30.1098  -23.4492   20.2728 O   0  0  0  0  0  0
  -31.6164  -17.1084   18.5233 F   0  0  0  0  0  0
  -28.0397  -18.6612   21.8567 Cl  0  0  0  0  0  0
  -31.4678  -12.8096   19.1807 H   0  0  0  0  0  0
  -30.4523  -11.7050   20.0587 H   0  0  0  0  0  0
  -29.8538  -11.7169   17.6167 H   0  0  0  0  0  0
  -29.5986  -13.4429   17.6630 H   0  0  0  0  0  0
  -27.9744  -11.2707   19.0051 H   0  0  0  0  0  0
  -27.3947  -12.4135   17.8242 H   0  0  0  0  0  0
  -27.5750  -14.2470   19.3810 H   0  0  0  0  0  0
  -28.7775  -12.3543   21.4548 H   0  0  0  0  0  0
  -28.3528  -14.0281   21.7365 H   0  0  0  0  0  0
  -25.2769   -9.5709   22.4772 H   0  0  0  0  0  0
  -24.0050   -7.4630   22.7447 H   0  0  0  0  0  0
  -21.0878   -8.8758   19.8921 H   0  0  0  0  0  0
  -22.3694  -10.9691   19.6176 H   0  0  0  0  0  0
  -21.1966   -7.6154   23.9741 H   0  0  0  0  0  0
  -21.1489   -6.0514   25.9089 H   0  0  0  0  0  0
  -22.0595   -2.7632   23.2831 H   0  0  0  0  0  0
  -22.4048  -11.9889   22.4893 H   0  0  0  0  0  0
  -21.1013  -13.1191   22.2579 H   0  0  0  0  0  0
  -24.6617  -15.8568   20.5528 H   0  0  0  0  0  0
  -26.2650  -15.6316   20.0786 H   0  0  0  0  0  0
  -26.7292  -32.5227   23.0981 H   0  0  0  0  0  0
  -25.0098  -33.9641   25.0311 H   0  0  0  0  0  0
  -22.7650  -31.2788   21.3702 H   0  0  0  0  0  0
  -23.3781  -35.9517   23.3283 H   0  0  0  0  0  0
  -24.3577  -36.8879   22.2061 H   0  0  0  0  0  0
  -23.7187  -37.6391   23.6703 H   0  0  0  0  0  0
  -26.1959  -31.4339   20.6287 H   0  0  0  0  0  0
  -26.8883  -30.7252   22.0502 H   0  0  0  0  0  0
  -28.1393  -28.7150   21.2613 H   0  0  0  0  0  0
  -25.8737  -25.8093   19.0137 H   0  0  0  0  0  0
  -23.9902  -27.2952   18.9633 H   0  0  0  0  0  0
  -23.8316  -30.5550   19.3964 H   0  0  0  0  0  0
  -22.8055  -29.2256   19.8381 H   0  0  0  0  0  0
  -25.1307  -36.1863   25.0809 H   0  0  0  0  0  0
  -21.0038  -28.3307   24.1327 H   0  0  0  0  0  0
  -20.5692  -26.2333   23.3632 H   0  0  0  0  0  0
  -21.6653  -26.7375   22.1182 H   0  0  0  0  0  0
  -19.6927  -25.6260   21.1258 H   0  0  0  0  0  0
  -19.6713  -27.3166   20.6751 H   0  0  0  0  0  0
  -17.4210  -26.6678   21.4038 H   0  0  0  0  0  0
  -18.0320  -26.0088   22.9038 H   0  0  0  0  0  0
  -19.7958  -30.7307   24.2192 H   0  0  0  0  0  0
  -17.5032  -31.6276   24.5147 H   0  0  0  0  0  0
  -15.5372  -30.2972   23.7701 H   0  0  0  0  0  0
  -15.8688  -28.0814   22.7104 H   0  0  0  0  0  0
  -24.5857  -30.7203   25.7662 H   0  0  0  0  0  0
  -24.8964  -32.3015   26.4743 H   0  0  0  0  0  0
  -25.7938  -30.8954   27.0201 H   0  0  0  0  0  0
  -26.3084  -29.6630   24.1356 H   0  0  0  0  0  0
  -27.3982  -29.7264   25.4992 H   0  0  0  0  0  0
  -27.9032  -30.4150   23.9789 H   0  0  0  0  0  0
  -27.2608  -33.3659   26.2053 H   0  0  0  0  0  0
  -28.3889  -32.6905   25.0376 H   0  0  0  0  0  0
  -28.0717  -31.8532   26.5474 H   0  0  0  0  0  0
  -28.2534  -38.0089   24.7546 H   0  0  0  0  0  0
  -28.1133  -36.2609   24.6256 H   0  0  0  0  0  0
  -27.2307  -37.1345   25.8865 H   0  0  0  0  0  0
  -20.9528  -29.8760   21.6753 H   0  0  0  0  0  0
  -26.0158  -38.2793   24.1459 H   0  0  0  0  0  0
  -30.6727  -21.4844   18.7741 H   0  0  0  0  0  0
  -31.9066  -19.5778   17.9788 H   0  0  0  0  0  0
  -26.9597  -21.5416   21.7552 H   0  0  0  0  0  0
  -26.8199  -20.5185   20.3192 H   0  0  0  0  0  0
  -26.4848  -22.2009   20.1798 H   0  0  0  0  0  0
  -27.0733  -24.3186   20.9398 H   0  0  0  0  0  0
  -27.3711  -24.3080   19.2227 H   0  0  0  0  0  0
  -28.8357  -16.0632   20.8918 H   0  0  0  0  0  0
  1 25  1  0  0  0
  1 30  2  0  0  0
  1 80  1  0  0  0
  2  3  1  0  0  0
  2 25  1  0  0  0
  2 85  1  0  0  0
  2 86  1  0  0  0
  3  4  1  0  0  0
  3 87  1  0  0  0
  3 88  1  0  0  0
  4  5  1  0  0  0
  4 89  1  0  0  0
  4 90  1  0  0  0
  5  6  1  0  0  0
  5 26  1  0  0  0
  5 91  1  0  0  0
  6 25  1  0  0  0
  6 92  1  0  0  0
  6 93  1  0  0  0
  7  8  2  0  0  0
  7 26  1  0  0  0
  7 29  1  0  0  0
  8  9  1  0  0  0
  8 22  1  0  0  0
  9 10  1  0  0  0
  9 27  2  0  0  0
 10 11  2  0  0  0
 10 15  1  0  0  0
 11 12  1  0  0  0
 11 94  1  0  0  0
 12 13  2  0  0  0
 12 95  1  0  0  0
 13 14  1  0  0  0
 13 31  1  0  0  0
 14 15  2  0  0  0
 14 96  1  0  0  0
 15 97  1  0  0  0
 16 17  2  0  0  0
 16 21  1  0  0  0
 16 31  1  0  0  0
 17 18  1  0  0  0
 17 98  1  0  0  0
 18 19  2  0  0  0
 18 99  1  0  0  0
 19 20  1  0  0  0
 19 24  1  0  0  0
 20 21  2  0  0  0
 20100  1  0  0  0
 21 23  1  0  0  0
 22 28  1  0  0  0
 22 32  2  0  0  0
 26 27  1  0  0  0
 28101  1  0  0  0
 28102  1  0  0  0
 29103  1  0  0  0
 29104  1  0  0  0
 33 34  1  0  0  0
 33 66  1  0  0  0
 33 70  2  0  0  0
 34 36  1  0  0  0
 34 59  1  0  0  0
 34105  1  0  0  0
 35 44  2  0  0  0
 35 45  1  0  0  0
 35 68  1  0  0  0
 36 56  1  0  0  0
 36106  1  0  0  0
 37 39  1  0  0  0
 37 47  1  0  0  0
 37 66  1  0  0  0
 37107  1  0  0  0
 38 43  2  0  0  0
 38 46  1  0  0  0
 38 47  1  0  0  0
 39 64  1  0  0  0
 39 67  2  0  0  0
 40 52  1  0  0  0
 40 53  2  0  0  0
 40 58  1  0  0  0
 41108  1  0  0  0
 41109  1  0  0  0
 41110  1  0  0  0
 41 48  1  0  0  0
 42 43  1  0  0  0
 42 66  1  0  0  0
 42111  1  0  0  0
 42112  1  0  0  0
 43 44  1  0  0  0
 44113  1  0  0  0
 45 46  2  0  0  0
 45114  1  0  0  0
 46115  1  0  0  0
 47116  1  0  0  0
 47117  1  0  0  0
 48 56  1  0  0  0
 48 65  1  0  0  0
 48118  1  0  0  0
 49 50  1  0  0  0
 49 53  1  0  0  0
 49 64  1  0  0  0
 49119  1  0  0  0
 50 51  1  0  0  0
 50120  1  0  0  0
 50121  1  0  0  0
 51 52  1  0  0  0
 51122  1  0  0  0
 51123  1  0  0  0
 52124  1  0  0  0
 52125  1  0  0  0
 53 54  1  0  0  0
 54 55  2  0  0  0
 54126  1  0  0  0
 55 57  1  0  0  0
 55127  1  0  0  0
 56 69  2  0  0  0
 57 58  2  0  0  0
 57128  1  0  0  0
 58129  1  0  0  0
 59 60  1  0  0  0
 59 61  1  0  0  0
 59 62  1  0  0  0
 60130  1  0  0  0
 60131  1  0  0  0
 60132  1  0  0  0
 61133  1  0  0  0
 61134  1  0  0  0
 61135  1  0  0  0
 62136  1  0  0  0
 62137  1  0  0  0
 62138  1  0  0  0
 63 65  1  0  0  0
 63139  1  0  0  0
 63140  1  0  0  0
 63141  1  0  0  0
 64142  1  0  0  0
 65143  1  0  0  0
 68 79  1  0  0  0
 71 72  2  0  0  0
 71 73  1  0  0  0
 71144  1  0  0  0
 72 75  1  0  0  0
 72145  1  0  0  0
 73 76  2  0  0  0
 73 81  1  0  0  0
 74 75  2  0  0  0
 74 76  1  0  0  0
 74 80  1  0  0  0
 75 83  1  0  0  0
 76 84  1  0  0  0
 77 79  1  0  0  0
 77 81  1  0  0  0
 77 82  2  0  0  0
 78 81  1  0  0  0
 78146  1  0  0  0
 78147  1  0  0  0
 78148  1  0  0  0
 79149  1  0  0  0
 79150  1  0  0  0
 80151  1  0  0  0
M  ISO  4   1 100  68 101  79 101  80 100
M  END
> <chiral flag>
0

> <version>
0

> <s_m_source_file>
/data/baiqing/PycharmProjects/Reinvent-master-3.2/result/LINK_invent/BTK/process_docking_weight1_custom_sum_contain_oxygen_bond_distance_aromatic_linkinvent_7_9_3/rearranged_h_0015.sdf

> <i_m_source_file_index>
27

> <r_mmod_Potential_Energy-OPLS-2005>
696.066162109375

> <r_mmod_Stretch_Energy-OPLS-2005>
357.634094238281

> <r_mmod_Bend_Energy-OPLS-2005>
278.219390869141

> <r_mmod_Torsional_Energy-OPLS-2005>
266.099822998047

> <r_mmod_Improper_Torsional_Energy-OPLS-2005>
3.67840957641602

> <r_mmod_Van_der_Waal_Energy-OPLS-2005>
139.742767333984

> <r_mmod_Electrostatic_Energy-OPLS-2005>
-378.772216796875

> <r_mmod_Solvation_Energy-OPLS-2005>
-236.026000976562

> <b_mmod_Minimization_Converged-OPLS-2005>
0

> <r_mmod_RMS_Derivative-OPLS-2005>
2.95764422416687

$$$$
28
                    3D
 Structure written by MMmdl.
187195  0  0  1  0            999 V2000
  -30.6137  -14.7665   20.5251 C   0  0  0  0  0  0
  -30.4294  -12.4854   19.4893 C   0  0  0  0  0  0
  -29.5274  -12.5571   18.2384 C   0  0  0  0  0  0
  -28.0501  -12.3659   18.6368 C   0  0  0  0  0  0
  -27.6446  -13.2427   19.8539 C   0  0  2  0  0  0
  -28.6781  -13.1712   20.9949 C   0  0  0  0  0  0
  -25.2498  -13.8159   20.5593 C   0  0  0  0  0  0
  -24.1811  -13.0457   20.9154 C   0  0  0  0  0  0
  -24.6424  -11.6911   20.8720 C   0  0  0  0  0  0
  -23.9079  -10.4323   21.0389 C   0  0  0  0  0  0
  -24.3626   -9.4222   21.9170 C   0  0  0  0  0  0
  -23.6323   -8.2250   22.0737 C   0  0  0  0  0  0
  -22.4305   -8.0286   21.3534 C   0  0  0  0  0  0
  -21.9939   -9.0266   20.4626 C   0  0  0  0  0  0
  -22.7252  -10.2142   20.3043 C   0  0  0  0  0  0
  -21.6871   -6.0741   22.5278 C   0  0  0  0  0  0
  -21.4033   -6.5641   23.8198 C   0  0  0  0  0  0
  -21.3655   -5.6782   24.9162 C   0  0  0  0  0  0
  -21.6037   -4.3049   24.7207 C   0  0  0  0  0  0
  -21.8815   -3.8137   23.4341 C   0  0  0  0  0  0
  -21.9188   -4.6969   22.3393 C   0  0  0  0  0  0
  -22.7809  -13.5225   21.1848 C   0  0  0  0  0  0
  -22.1644   -4.2151   21.0967 F   0  0  0  0  0  0
  -21.5647   -3.4514   25.7722 F   0  0  0  0  0  0
  -29.9783  -13.5468   20.4248 N   0  0  0  0  0  0
  -26.2953  -12.9418   20.3183 N   0  0  0  0  0  0
  -25.9369  -11.6561   20.5663 N   0  0  0  0  0  0
  -22.0437  -12.8272   22.0372 N   0  0  0  0  0  0
  -25.4187  -15.1924   20.4063 N   0  0  0  0  0  0
  -31.7955  -14.8393   20.1606 O   0  0  0  0  0  0
  -21.6661   -6.8905   21.4250 O   0  0  0  0  0  0
  -22.3498  -14.5546   20.6650 O   0  0  0  0  0  0
  -24.6318  -31.8501   23.1838 C   0  0  0  0  0  0
  -25.9152  -32.4708   23.8222 C   0  0  1  0  0  0
  -27.2590  -27.2668   20.1510 C   0  0  0  0  0  0
  -25.5955  -33.8503   24.2207 N   0  0  0  0  0  0
  -23.4289  -30.4607   21.5206 C   0  0  2  0  0  0
  -24.8906  -28.9026   20.0840 C   0  0  0  0  0  0
  -22.7515  -29.4520   22.4800 C   0  0  0  0  0  0
  -18.0327  -28.1354   22.8471 C   0  0  0  0  0  0
  -24.1481  -36.7355   23.2628 C   0  0  0  0  0  0
  -25.9541  -30.7626   21.3454 C   0  0  0  0  0  0
  -26.0330  -29.3635   20.7413 C   0  0  0  0  0  0
  -27.2097  -28.5560   20.7880 C   0  0  0  0  0  0
  -26.1134  -26.8738   19.4289 C   0  0  0  0  0  0
  -24.9482  -27.6763   19.3903 C   0  0  0  0  0  0
  -23.6510  -29.7890   20.1281 C   0  0  0  0  0  0
  -25.4076  -36.3059   24.0365 C   0  0  1  0  0  0
  -20.5925  -28.3739   23.1223 C   0  0  2  0  0  0
  -20.6754  -26.9445   22.5377 C   0  0  0  0  0  0
  -19.5715  -26.6391   21.5168 C   0  0  0  0  0  0
  -18.1918  -26.7888   22.1603 C   0  0  0  0  0  0
  -19.1566  -28.8857   23.2849 C   0  0  0  0  0  0
  -18.9470  -30.1413   23.8939 C   0  0  0  0  0  0
  -17.6477  -30.6535   24.0590 C   0  0  0  0  0  0
  -25.9022  -34.9430   23.5091 C   0  0  0  0  0  0
  -16.5389  -29.9069   23.6253 C   0  0  0  0  0  0
  -16.7328  -28.6460   23.0338 C   0  0  0  0  0  0
  -26.4581  -31.6466   25.0552 C   0  0  0  0  0  0
  -25.3896  -31.3552   26.1346 C   0  0  0  0  0  0
  -27.0374  -30.2937   24.5750 C   0  0  0  0  0  0
  -27.6167  -32.4165   25.7361 C   0  0  0  0  0  0
  -27.5574  -37.1842   24.8477 C   0  0  0  0  0  0
  -21.4227  -29.3087   22.3601 N   0  0  0  0  0  0
  -26.4254  -37.3744   23.9452 N   0  0  0  0  0  0
  -24.6908  -31.0499   22.0762 N   0  0  0  0  0  0
  -23.4155  -28.8065   23.2978 O   0  0  0  0  0  0
  -28.4091  -26.4577   20.2363 O   0  0  0  0  0  0
  -26.5569  -34.8982   22.4644 O   0  0  0  0  0  0
  -23.5501  -32.1295   23.7176 O   0  0  0  0  0  0
  -32.4907  -18.3954   20.8964 C   0  0  0  0  0  0
  -32.1674  -18.9077   19.6071 C   0  0  0  0  0  0
  -30.8104  -18.8437   19.1545 C   0  0  0  0  0  0
  -29.8798  -18.4735   20.1465 C   0  0  0  0  0  0
  -30.3295  -17.3300   20.9367 C   0  0  0  0  0  0
  -31.5857  -17.5230   21.5487 C   0  0  0  0  0  0
  -33.2990  -19.4994   18.7849 C   0  0  0  0  0  0
  -32.2929  -18.3946   24.4174 C   0  0  0  0  0  0
  -33.1224  -16.0051   24.5208 C   0  0  0  0  0  0
  -31.2405  -18.3879   16.6469 C   0  0  0  0  0  0
  -30.0966  -20.5370   17.3808 C   0  0  0  0  0  0
  -28.9752  -18.2839   17.4860 C   0  0  0  0  0  0
  -26.7684  -23.6212   20.8624 C   0  0  0  0  0  0
  -28.9334  -24.0982   22.0330 C   0  0  0  0  0  0
  -28.8229  -19.5959   20.6135 C   0  0  0  0  0  0
  -29.1306  -21.1757   21.0073 C   0  0  0  0  0  0
  -28.5654  -25.0594   19.7145 C   0  0  0  0  0  0
  -32.8418  -17.2050   23.6073 C   0  0  0  0  0  0
  -30.3139  -19.0435   17.6979 C   0  0  0  0  0  0
  -28.3075  -23.7602   20.6583 C   0  0  0  0  0  0
  -29.8676  -15.9177   20.8056 N   0  0  0  0  0  0
  -28.8531  -22.4025   20.0955 N   0  3  0  0  0  0
  -31.8860  -16.7437   22.6524 O   0  0  0  0  0  0
  -31.4828  -12.5887   19.2202 H   0  0  0  0  0  0
  -30.3309  -11.5050   19.9628 H   0  0  0  0  0  0
  -29.8326  -11.8056   17.5107 H   0  0  0  0  0  0
  -29.6498  -13.5200   17.7386 H   0  0  0  0  0  0
  -27.9144  -11.3123   18.8774 H   0  0  0  0  0  0
  -27.3953  -12.5701   17.7852 H   0  0  0  0  0  0
  -27.6425  -14.2747   19.4986 H   0  0  0  0  0  0
  -28.7236  -12.1655   21.4145 H   0  0  0  0  0  0
  -28.4020  -13.8345   21.8170 H   0  0  0  0  0  0
  -25.2796   -9.5714   22.4725 H   0  0  0  0  0  0
  -24.0034   -7.4654   22.7487 H   0  0  0  0  0  0
  -21.0842   -8.8783   19.8984 H   0  0  0  0  0  0
  -22.3704  -10.9667   19.6136 H   0  0  0  0  0  0
  -21.2035   -7.6155   23.9720 H   0  0  0  0  0  0
  -21.1481   -6.0503   25.9059 H   0  0  0  0  0  0
  -22.0611   -2.7617   23.2813 H   0  0  0  0  0  0
  -22.4037  -11.9950   22.4841 H   0  0  0  0  0  0
  -21.1046  -13.1303   22.2519 H   0  0  0  0  0  0
  -24.6509  -15.8456   20.5135 H   0  0  0  0  0  0
  -26.2620  -15.6280   20.0605 H   0  0  0  0  0  0
  -26.7233  -32.5318   23.0989 H   0  0  0  0  0  0
  -25.0449  -33.9569   25.0594 H   0  0  0  0  0  0
  -22.7236  -31.2785   21.3700 H   0  0  0  0  0  0
  -23.3678  -35.9737   23.3182 H   0  0  0  0  0  0
  -24.3659  -36.9029   22.2054 H   0  0  0  0  0  0
  -23.7291  -37.6587   23.6686 H   0  0  0  0  0  0
  -26.0276  -31.4644   20.5102 H   0  0  0  0  0  0
  -26.8533  -30.8646   21.9372 H   0  0  0  0  0  0
  -28.0670  -28.9215   21.3357 H   0  0  0  0  0  0
  -26.0923  -25.9498   18.8664 H   0  0  0  0  0  0
  -24.1305  -27.3599   18.7670 H   0  0  0  0  0  0
  -23.7767  -30.5564   19.3623 H   0  0  0  0  0  0
  -22.7643  -29.2347   19.8154 H   0  0  0  0  0  0
  -25.1208  -36.1917   25.0850 H   0  0  0  0  0  0
  -21.0072  -28.3363   24.1343 H   0  0  0  0  0  0
  -20.5553  -26.2443   23.3648 H   0  0  0  0  0  0
  -21.6622  -26.7386   22.1233 H   0  0  0  0  0  0
  -19.6879  -25.6296   21.1179 H   0  0  0  0  0  0
  -19.6578  -27.3204   20.6661 H   0  0  0  0  0  0
  -17.4203  -26.6723   21.3992 H   0  0  0  0  0  0
  -18.0320  -26.0008   22.8958 H   0  0  0  0  0  0
  -19.7970  -30.7163   24.2377 H   0  0  0  0  0  0
  -17.5059  -31.6212   24.5179 H   0  0  0  0  0  0
  -15.5369  -30.3016   23.7435 H   0  0  0  0  0  0
  -15.8757  -28.0740   22.7064 H   0  0  0  0  0  0
  -24.6197  -30.6692   25.7775 H   0  0  0  0  0  0
  -24.8962  -32.2654   26.4725 H   0  0  0  0  0  0
  -25.8342  -30.8900   27.0136 H   0  0  0  0  0  0
  -26.2778  -29.6710   24.0995 H   0  0  0  0  0  0
  -27.4476  -29.7100   25.3989 H   0  0  0  0  0  0
  -27.8474  -30.4307   23.8592 H   0  0  0  0  0  0
  -27.2794  -33.3511   26.1847 H   0  0  0  0  0  0
  -28.4062  -32.6586   25.0232 H   0  0  0  0  0  0
  -28.0734  -31.8324   26.5356 H   0  0  0  0  0  0
  -28.2562  -38.0166   24.7502 H   0  0  0  0  0  0
  -28.1063  -36.2697   24.6216 H   0  0  0  0  0  0
  -27.2359  -37.1410   25.8898 H   0  0  0  0  0  0
  -20.9404  -29.9136   21.7101 H   0  0  0  0  0  0
  -26.0117  -38.2826   24.1371 H   0  0  0  0  0  0
  -33.4953  -18.5231   21.2691 H   0  0  0  0  0  0
  -33.7785  -18.7348   18.1723 H   0  0  0  0  0  0
  -34.0682  -19.9071   19.4402 H   0  0  0  0  0  0
  -32.9684  -20.3179   18.1459 H   0  0  0  0  0  0
  -33.0157  -18.7270   25.1655 H   0  0  0  0  0  0
  -31.3729  -18.1309   24.9421 H   0  0  0  0  0  0
  -32.0774  -19.2565   23.7868 H   0  0  0  0  0  0
  -33.8588  -16.2556   25.2860 H   0  0  0  0  0  0
  -33.5113  -15.1667   23.9437 H   0  0  0  0  0  0
  -32.2193  -15.6643   25.0341 H   0  0  0  0  0  0
  -32.1800  -18.9084   16.5105 H   0  0  0  0  0  0
  -30.7745  -18.3929   15.6596 H   0  0  0  0  0  0
  -31.4459  -17.3437   16.8986 H   0  0  0  0  0  0
  -30.9253  -21.1597   17.7138 H   0  0  0  0  0  0
  -29.1894  -20.9011   17.8588 H   0  0  0  0  0  0
  -29.9709  -20.7078   16.3112 H   0  0  0  0  0  0
  -29.0930  -17.2278   17.7234 H   0  0  0  0  0  0
  -28.6160  -18.3362   16.4592 H   0  0  0  0  0  0
  -28.1565  -18.6544   18.0901 H   0  0  0  0  0  0
  -26.3561  -24.4165   21.4896 H   0  0  0  0  0  0
  -26.5047  -22.6787   21.3364 H   0  0  0  0  0  0
  -26.1962  -23.6389   19.9302 H   0  0  0  0  0  0
  -28.6667  -25.1124   22.3588 H   0  0  0  0  0  0
  -30.0264  -24.0285   22.0172 H   0  0  0  0  0  0
  -28.5167  -23.4414   22.7976 H   0  0  0  0  0  0
  -28.4663  -19.1662   21.5496 H   0  0  0  0  0  0
  -27.9321  -19.5599   19.9888 H   0  0  0  0  0  0
  -30.1142  -21.2813   21.4680 H   0  0  0  0  0  0
  -28.4263  -21.3482   21.8221 H   0  0  0  0  0  0
  -28.0543  -24.9302   18.7625 H   0  0  0  0  0  0
  -29.6157  -25.0430   19.4141 H   0  0  0  0  0  0
  -33.7793  -17.4893   23.1290 H   0  0  0  0  0  0
  -28.8727  -15.7675   20.8710 H   0  0  0  0  0  0
  -28.2365  -22.1271   19.3456 H   0  0  0  0  0  0
  -29.7372  -22.6043   19.6527 H   0  0  0  0  0  0
  1 25  1  0  0  0
  1 30  2  0  0  0
  1 91  1  0  0  0
  2  3  1  0  0  0
  2 25  1  0  0  0
  2 94  1  0  0  0
  2 95  1  0  0  0
  3  4  1  0  0  0
  3 96  1  0  0  0
  3 97  1  0  0  0
  4  5  1  0  0  0
  4 98  1  0  0  0
  4 99  1  0  0  0
  5  6  1  0  0  0
  5 26  1  0  0  0
  5100  1  0  0  0
  6 25  1  0  0  0
  6101  1  0  0  0
  6102  1  0  0  0
  7  8  2  0  0  0
  7 26  1  0  0  0
  7 29  1  0  0  0
  8  9  1  0  0  0
  8 22  1  0  0  0
  9 10  1  0  0  0
  9 27  2  0  0  0
 10 11  2  0  0  0
 10 15  1  0  0  0
 11 12  1  0  0  0
 11103  1  0  0  0
 12 13  2  0  0  0
 12104  1  0  0  0
 13 14  1  0  0  0
 13 31  1  0  0  0
 14 15  2  0  0  0
 14105  1  0  0  0
 15106  1  0  0  0
 16 17  2  0  0  0
 16 21  1  0  0  0
 16 31  1  0  0  0
 17 18  1  0  0  0
 17107  1  0  0  0
 18 19  2  0  0  0
 18108  1  0  0  0
 19 20  1  0  0  0
 19 24  1  0  0  0
 20 21  2  0  0  0
 20109  1  0  0  0
 21 23  1  0  0  0
 22 28  1  0  0  0
 22 32  2  0  0  0
 26 27  1  0  0  0
 28110  1  0  0  0
 28111  1  0  0  0
 29112  1  0  0  0
 29113  1  0  0  0
 33 34  1  0  0  0
 33 66  1  0  0  0
 33 70  2  0  0  0
 34 36  1  0  0  0
 34 59  1  0  0  0
 34114  1  0  0  0
 35 44  2  0  0  0
 35 45  1  0  0  0
 35 68  1  0  0  0
 36 56  1  0  0  0
 36115  1  0  0  0
 37 39  1  0  0  0
 37 47  1  0  0  0
 37 66  1  0  0  0
 37116  1  0  0  0
 38 43  2  0  0  0
 38 46  1  0  0  0
 38 47  1  0  0  0
 39 64  1  0  0  0
 39 67  2  0  0  0
 40 52  1  0  0  0
 40 53  2  0  0  0
 40 58  1  0  0  0
 41117  1  0  0  0
 41118  1  0  0  0
 41119  1  0  0  0
 41 48  1  0  0  0
 42 43  1  0  0  0
 42 66  1  0  0  0
 42120  1  0  0  0
 42121  1  0  0  0
 43 44  1  0  0  0
 44122  1  0  0  0
 45 46  2  0  0  0
 45123  1  0  0  0
 46124  1  0  0  0
 47125  1  0  0  0
 47126  1  0  0  0
 48 56  1  0  0  0
 48 65  1  0  0  0
 48127  1  0  0  0
 49 50  1  0  0  0
 49 53  1  0  0  0
 49 64  1  0  0  0
 49128  1  0  0  0
 50 51  1  0  0  0
 50129  1  0  0  0
 50130  1  0  0  0
 51 52  1  0  0  0
 51131  1  0  0  0
 51132  1  0  0  0
 52133  1  0  0  0
 52134  1  0  0  0
 53 54  1  0  0  0
 54 55  2  0  0  0
 54135  1  0  0  0
 55 57  1  0  0  0
 55136  1  0  0  0
 56 69  2  0  0  0
 57 58  2  0  0  0
 57137  1  0  0  0
 58138  1  0  0  0
 59 60  1  0  0  0
 59 61  1  0  0  0
 59 62  1  0  0  0
 60139  1  0  0  0
 60140  1  0  0  0
 60141  1  0  0  0
 61142  1  0  0  0
 61143  1  0  0  0
 61144  1  0  0  0
 62145  1  0  0  0
 62146  1  0  0  0
 62147  1  0  0  0
 63 65  1  0  0  0
 63148  1  0  0  0
 63149  1  0  0  0
 63150  1  0  0  0
 64151  1  0  0  0
 65152  1  0  0  0
 68 87  1  0  0  0
 71 72  2  0  0  0
 71 76  1  0  0  0
 71153  1  0  0  0
 72 73  1  0  0  0
 72 77  1  0  0  0
 73 74  2  0  0  0
 73 89  1  0  0  0
 74 75  1  0  0  0
 74 85  1  0  0  0
 75 76  2  0  0  0
 75 91  1  0  0  0
 76 93  1  0  0  0
 77154  1  0  0  0
 77155  1  0  0  0
 77156  1  0  0  0
 78157  1  0  0  0
 78158  1  0  0  0
 78159  1  0  0  0
 78 88  1  0  0  0
 79 88  1  0  0  0
 79160  1  0  0  0
 79161  1  0  0  0
 79162  1  0  0  0
 80163  1  0  0  0
 80164  1  0  0  0
 80165  1  0  0  0
 80 89  1  0  0  0
 81 89  1  0  0  0
 81166  1  0  0  0
 81167  1  0  0  0
 81168  1  0  0  0
 82 89  1  0  0  0
 82169  1  0  0  0
 82170  1  0  0  0
 82171  1  0  0  0
 83172  1  0  0  0
 83173  1  0  0  0
 83174  1  0  0  0
 83 90  1  0  0  0
 84 90  1  0  0  0
 84175  1  0  0  0
 84176  1  0  0  0
 84177  1  0  0  0
 85 86  1  0  0  0
 85178  1  0  0  0
 85179  1  0  0  0
 86 92  1  0  0  0
 86180  1  0  0  0
 86181  1  0  0  0
 87 90  1  0  0  0
 87182  1  0  0  0
 87183  1  0  0  0
 88 93  1  0  0  0
 88184  1  0  0  0
 90 92  1  0  0  0
 91185  1  0  0  0
 92186  1  0  0  0
 92187  1  0  0  0
M  CHG  1  92   1
M  ISO  4   1 100  68 101  87 101  91 100
M  END
> <chiral flag>
0

> <version>
0

> <s_m_source_file>
/data/baiqing/PycharmProjects/Reinvent-master-3.2/result/LINK_invent/BTK/process_docking_weight1_custom_sum_contain_oxygen_bond_distance_aromatic_linkinvent_7_9_3/rearranged_h_0015.sdf

> <i_m_source_file_index>
28

> <r_mmod_Potential_Energy-OPLS-2005>
409.017669677734

> <r_mmod_Stretch_Energy-OPLS-2005>
161.08805847168

> <r_mmod_Bend_Energy-OPLS-2005>
267.981109619141

> <r_mmod_Torsional_Energy-OPLS-2005>
518.916564941406

> <r_mmod_Improper_Torsional_Energy-OPLS-2005>
16.8169689178467

> <r_mmod_Van_der_Waal_Energy-OPLS-2005>
138.958877563477

> <r_mmod_Electrostatic_Energy-OPLS-2005>
-340.654602050781

> <r_mmod_Solvation_Energy-OPLS-2005>
-442.000061035156

> <b_mmod_Minimization_Converged-OPLS-2005>
0

> <r_mmod_RMS_Derivative-OPLS-2005>
10.0979232788086

$$$$
29
                    3D
 Structure written by MMmdl.
158166  0  0  1  0            999 V2000
  -30.6925  -14.7001   20.5364 C   0  0  0  0  0  0
  -30.4112  -12.4461   19.4745 C   0  0  0  0  0  0
  -29.5074  -12.5221   18.2259 C   0  0  0  0  0  0
  -28.0322  -12.3409   18.6257 C   0  0  0  0  0  0
  -27.6405  -13.2314   19.8339 C   0  0  2  0  0  0
  -28.6779  -13.1466   20.9701 C   0  0  0  0  0  0
  -25.2458  -13.8190   20.5421 C   0  0  0  0  0  0
  -24.1815  -13.0453   20.9147 C   0  0  0  0  0  0
  -24.6431  -11.6931   20.8740 C   0  0  0  0  0  0
  -23.9116  -10.4308   21.0435 C   0  0  0  0  0  0
  -24.3644   -9.4220   21.9218 C   0  0  0  0  0  0
  -23.6315   -8.2262   22.0773 C   0  0  0  0  0  0
  -22.4303   -8.0291   21.3540 C   0  0  0  0  0  0
  -21.9958   -9.0279   20.4652 C   0  0  0  0  0  0
  -22.7297  -10.2151   20.3079 C   0  0  0  0  0  0
  -21.6861   -6.0740   22.5280 C   0  0  0  0  0  0
  -21.4015   -6.5654   23.8203 C   0  0  0  0  0  0
  -21.3637   -5.6826   24.9181 C   0  0  0  0  0  0
  -21.6031   -4.3085   24.7253 C   0  0  0  0  0  0
  -21.8802   -3.8166   23.4373 C   0  0  0  0  0  0
  -21.9186   -4.6966   22.3417 C   0  0  0  0  0  0
  -22.7848  -13.5212   21.1848 C   0  0  0  0  0  0
  -22.1670   -4.2150   21.1002 F   0  0  0  0  0  0
  -21.5613   -3.4572   25.7768 F   0  0  0  0  0  0
  -29.9853  -13.5155   20.4183 N   0  0  0  0  0  0
  -26.2932  -12.9412   20.3139 N   0  0  0  0  0  0
  -25.9349  -11.6550   20.5701 N   0  0  0  0  0  0
  -22.0529  -12.8180   22.0405 N   0  0  0  0  0  0
  -25.4060  -15.1872   20.3365 N   0  0  0  0  0  0
  -31.8064  -14.7773   20.0164 O   0  0  0  0  0  0
  -21.6647   -6.8886   21.4240 O   0  0  0  0  0  0
  -22.3497  -14.5527   20.6730 O   0  0  0  0  0  0
  -24.6440  -31.8527   23.1957 C   0  0  0  0  0  0
  -25.9226  -32.4725   23.8351 C   0  0  1  0  0  0
  -27.1963  -27.2124   20.1075 C   0  0  0  0  0  0
  -25.5969  -33.8520   24.2271 N   0  0  0  0  0  0
  -23.4409  -30.4812   21.5396 C   0  0  2  0  0  0
  -24.8769  -28.9215   20.1114 C   0  0  0  0  0  0
  -22.7615  -29.4643   22.4896 C   0  0  0  0  0  0
  -18.0374  -28.1410   22.8510 C   0  0  0  0  0  0
  -24.1484  -36.7283   23.2651 C   0  0  0  0  0  0
  -25.9948  -30.7448   21.3847 C   0  0  0  0  0  0
  -26.0568  -29.3649   20.7227 C   0  0  0  0  0  0
  -27.2216  -28.5236   20.7104 C   0  0  0  0  0  0
  -25.9839  -26.8534   19.4758 C   0  0  0  0  0  0
  -24.8462  -27.6742   19.4797 C   0  0  0  0  0  0
  -23.6593  -29.8197   20.1562 C   0  0  0  0  0  0
  -25.4105  -36.3048   24.0342 C   0  0  1  0  0  0
  -20.5993  -28.3741   23.1270 C   0  0  2  0  0  0
  -20.6877  -26.9442   22.5476 C   0  0  0  0  0  0
  -19.5865  -26.6405   21.5264 C   0  0  0  0  0  0
  -18.2022  -26.7976   22.1625 C   0  0  0  0  0  0
  -19.1639  -28.8888   23.2888 C   0  0  0  0  0  0
  -18.9554  -30.1488   23.8904 C   0  0  0  0  0  0
  -17.6563  -30.6606   24.0578 C   0  0  0  0  0  0
  -25.9050  -34.9425   23.5095 C   0  0  0  0  0  0
  -16.5444  -29.9105   23.6326 C   0  0  0  0  0  0
  -16.7366  -28.6512   23.0372 C   0  0  0  0  0  0
  -26.4550  -31.6559   25.0773 C   0  0  0  0  0  0
  -25.3765  -31.3725   26.1502 C   0  0  0  0  0  0
  -27.0418  -30.2963   24.6301 C   0  0  0  0  0  0
  -27.6079  -32.4325   25.7555 C   0  0  0  0  0  0
  -27.5575  -37.1809   24.8478 C   0  0  0  0  0  0
  -21.4312  -29.3088   22.3633 N   0  0  0  0  0  0
  -26.4286  -37.3738   23.9409 N   0  0  0  0  0  0
  -24.7127  -31.0477   22.0938 N   0  0  0  0  0  0
  -23.4302  -28.8203   23.3006 O   0  0  0  0  0  0
  -28.2618  -26.2687   20.1292 O   0  0  0  0  0  0
  -26.5620  -34.8902   22.4678 O   0  0  0  0  0  0
  -23.5571  -32.1367   23.7223 O   0  0  0  0  0  0
  -27.2786  -18.0279   21.8608 C   0  0  0  0  0  0
  -29.6888  -18.2176   20.5386 C   0  0  0  0  0  0
  -28.1879  -16.9584   21.9783 C   0  0  0  0  0  0
  -29.3582  -16.9324   21.1616 C   0  0  0  0  0  0
  -28.8471  -19.4238   20.5848 C   0  0  0  0  0  0
  -27.5705  -19.2141   21.1675 C   0  0  0  0  0  0
  -30.6834  -20.9746   20.1138 C   0  0  0  0  0  0
  -28.9484  -23.5406   20.0726 C   0  0  0  0  0  0
  -28.3610  -22.0311   20.2674 C   0  0  0  0  0  0
  -27.9139  -24.7929   20.0161 C   0  0  0  0  0  0
  -27.8974  -15.9976   23.1433 C   0  0  0  0  0  0
  -30.3030  -15.7926   21.2904 N   0  0  0  0  0  0
  -29.2377  -20.7757   20.1478 N   0  0  0  0  0  0
  -26.6150  -20.1750   21.1646 F   0  0  0  0  0  0
  -28.9214  -15.2329   23.5203 F   0  0  0  0  0  0
  -27.5856  -16.7315   24.2117 F   0  0  0  0  0  0
  -26.8490  -15.2237   22.8781 F   0  0  0  0  0  0
  -31.4568  -12.5325   19.1789 H   0  0  0  0  0  0
  -30.3209  -11.4637   19.9439 H   0  0  0  0  0  0
  -29.7931  -11.7618   17.5004 H   0  0  0  0  0  0
  -29.6492  -13.4858   17.7339 H   0  0  0  0  0  0
  -27.8858  -11.2881   18.8719 H   0  0  0  0  0  0
  -27.3801  -12.5431   17.7744 H   0  0  0  0  0  0
  -27.6457  -14.2572   19.4677 H   0  0  0  0  0  0
  -28.7001  -12.1380   21.3868 H   0  0  0  0  0  0
  -28.3947  -13.7955   21.7835 H   0  0  0  0  0  0
  -25.2764   -9.5684   22.4820 H   0  0  0  0  0  0
  -23.9985   -7.4672   22.7537 H   0  0  0  0  0  0
  -21.0864   -8.8810   19.8992 H   0  0  0  0  0  0
  -22.3763  -10.9683   19.6184 H   0  0  0  0  0  0
  -21.2023   -7.6171   23.9693 H   0  0  0  0  0  0
  -21.1454   -6.0580   25.9070 H   0  0  0  0  0  0
  -22.0591   -2.7627   23.2908 H   0  0  0  0  0  0
  -22.4219  -11.9885   22.4799 H   0  0  0  0  0  0
  -21.1140  -13.1136   22.2672 H   0  0  0  0  0  0
  -24.6115  -15.8152   20.3544 H   0  0  0  0  0  0
  -26.2173  -15.5839   19.8838 H   0  0  0  0  0  0
  -26.7323  -32.5316   23.1118 H   0  0  0  0  0  0
  -25.0112  -33.9631   25.0414 H   0  0  0  0  0  0
  -22.7403  -31.3079   21.3936 H   0  0  0  0  0  0
  -23.3704  -35.9655   23.3312 H   0  0  0  0  0  0
  -24.3577  -36.8895   22.2064 H   0  0  0  0  0  0
  -23.7263  -37.6508   23.6652 H   0  0  0  0  0  0
  -26.1516  -31.4947   20.6102 H   0  0  0  0  0  0
  -26.8692  -30.7876   22.0231 H   0  0  0  0  0  0
  -28.1242  -28.8524   21.2074 H   0  0  0  0  0  0
  -25.8548  -25.9079   18.9787 H   0  0  0  0  0  0
  -23.9436  -27.3252   18.9951 H   0  0  0  0  0  0
  -23.8036  -30.5976   19.4043 H   0  0  0  0  0  0
  -22.7701  -29.2725   19.8398 H   0  0  0  0  0  0
  -25.1277  -36.1908   25.0827 H   0  0  0  0  0  0
  -21.0144  -28.3341   24.1365 H   0  0  0  0  0  0
  -20.5797  -26.2385   23.3731 H   0  0  0  0  0  0
  -21.6734  -26.7440   22.1271 H   0  0  0  0  0  0
  -19.7062  -25.6322   21.1301 H   0  0  0  0  0  0
  -19.6877  -27.3204   20.6771 H   0  0  0  0  0  0
  -17.4354  -26.6821   21.3959 H   0  0  0  0  0  0
  -18.0330  -26.0101   22.8970 H   0  0  0  0  0  0
  -19.8064  -30.7292   24.2249 H   0  0  0  0  0  0
  -17.5100  -31.6274   24.5197 H   0  0  0  0  0  0
  -15.5444  -30.3017   23.7587 H   0  0  0  0  0  0
  -15.8778  -28.0812   22.7057 H   0  0  0  0  0  0
  -24.5936  -30.7061   25.7870 H   0  0  0  0  0  0
  -24.8973  -32.2895   26.4933 H   0  0  0  0  0  0
  -25.8121  -30.8930   27.0276 H   0  0  0  0  0  0
  -26.3038  -29.6681   24.1304 H   0  0  0  0  0  0
  -27.4060  -29.7254   25.4851 H   0  0  0  0  0  0
  -27.8924  -30.4228   23.9601 H   0  0  0  0  0  0
  -27.2659  -33.3619   26.2119 H   0  0  0  0  0  0
  -28.3902  -32.6903   25.0405 H   0  0  0  0  0  0
  -28.0729  -31.8460   26.5489 H   0  0  0  0  0  0
  -28.2608  -38.0091   24.7457 H   0  0  0  0  0  0
  -28.1052  -36.2613   24.6356 H   0  0  0  0  0  0
  -27.2300  -37.1527   25.8888 H   0  0  0  0  0  0
  -20.9543  -29.8822   21.6822 H   0  0  0  0  0  0
  -26.0164  -38.2824   24.1332 H   0  0  0  0  0  0
  -26.3610  -17.9840   22.4252 H   0  0  0  0  0  0
  -30.6576  -18.2819   20.0656 H   0  0  0  0  0  0
  -31.1784  -20.2729   19.4429 H   0  0  0  0  0  0
  -31.0998  -20.8423   21.1132 H   0  0  0  0  0  0
  -30.9523  -21.9689   19.7682 H   0  0  0  0  0  0
  -29.5233  -23.5697   19.1473 H   0  0  0  0  0  0
  -29.6584  -23.7216   20.8798 H   0  0  0  0  0  0
  -27.5324  -21.9083   19.5632 H   0  0  0  0  0  0
  -27.9134  -22.0304   21.2601 H   0  0  0  0  0  0
  -27.4283  -24.6365   19.0528 H   0  0  0  0  0  0
  -27.1481  -24.6041   20.7693 H   0  0  0  0  0  0
  -31.1947  -16.1722   21.5740 H   0  0  0  0  0  0
  1 25  1  0  0  0
  1 30  2  0  0  0
  1 82  1  0  0  0
  2  3  1  0  0  0
  2 25  1  0  0  0
  2 88  1  0  0  0
  2 89  1  0  0  0
  3  4  1  0  0  0
  3 90  1  0  0  0
  3 91  1  0  0  0
  4  5  1  0  0  0
  4 92  1  0  0  0
  4 93  1  0  0  0
  5  6  1  0  0  0
  5 26  1  0  0  0
  5 94  1  0  0  0
  6 25  1  0  0  0
  6 95  1  0  0  0
  6 96  1  0  0  0
  7  8  2  0  0  0
  7 26  1  0  0  0
  7 29  1  0  0  0
  8  9  1  0  0  0
  8 22  1  0  0  0
  9 10  1  0  0  0
  9 27  2  0  0  0
 10 11  2  0  0  0
 10 15  1  0  0  0
 11 12  1  0  0  0
 11 97  1  0  0  0
 12 13  2  0  0  0
 12 98  1  0  0  0
 13 14  1  0  0  0
 13 31  1  0  0  0
 14 15  2  0  0  0
 14 99  1  0  0  0
 15100  1  0  0  0
 16 17  2  0  0  0
 16 21  1  0  0  0
 16 31  1  0  0  0
 17 18  1  0  0  0
 17101  1  0  0  0
 18 19  2  0  0  0
 18102  1  0  0  0
 19 20  1  0  0  0
 19 24  1  0  0  0
 20 21  2  0  0  0
 20103  1  0  0  0
 21 23  1  0  0  0
 22 28  1  0  0  0
 22 32  2  0  0  0
 26 27  1  0  0  0
 28104  1  0  0  0
 28105  1  0  0  0
 29106  1  0  0  0
 29107  1  0  0  0
 33 34  1  0  0  0
 33 66  1  0  0  0
 33 70  2  0  0  0
 34 36  1  0  0  0
 34 59  1  0  0  0
 34108  1  0  0  0
 35 44  2  0  0  0
 35 45  1  0  0  0
 35 68  1  0  0  0
 36 56  1  0  0  0
 36109  1  0  0  0
 37 39  1  0  0  0
 37 47  1  0  0  0
 37 66  1  0  0  0
 37110  1  0  0  0
 38 43  2  0  0  0
 38 46  1  0  0  0
 38 47  1  0  0  0
 39 64  1  0  0  0
 39 67  2  0  0  0
 40 52  1  0  0  0
 40 53  2  0  0  0
 40 58  1  0  0  0
 41111  1  0  0  0
 41112  1  0  0  0
 41113  1  0  0  0
 41 48  1  0  0  0
 42 43  1  0  0  0
 42 66  1  0  0  0
 42114  1  0  0  0
 42115  1  0  0  0
 43 44  1  0  0  0
 44116  1  0  0  0
 45 46  2  0  0  0
 45117  1  0  0  0
 46118  1  0  0  0
 47119  1  0  0  0
 47120  1  0  0  0
 48 56  1  0  0  0
 48 65  1  0  0  0
 48121  1  0  0  0
 49 50  1  0  0  0
 49 53  1  0  0  0
 49 64  1  0  0  0
 49122  1  0  0  0
 50 51  1  0  0  0
 50123  1  0  0  0
 50124  1  0  0  0
 51 52  1  0  0  0
 51125  1  0  0  0
 51126  1  0  0  0
 52127  1  0  0  0
 52128  1  0  0  0
 53 54  1  0  0  0
 54 55  2  0  0  0
 54129  1  0  0  0
 55 57  1  0  0  0
 55130  1  0  0  0
 56 69  2  0  0  0
 57 58  2  0  0  0
 57131  1  0  0  0
 58132  1  0  0  0
 59 60  1  0  0  0
 59 61  1  0  0  0
 59 62  1  0  0  0
 60133  1  0  0  0
 60134  1  0  0  0
 60135  1  0  0  0
 61136  1  0  0  0
 61137  1  0  0  0
 61138  1  0  0  0
 62139  1  0  0  0
 62140  1  0  0  0
 62141  1  0  0  0
 63 65  1  0  0  0
 63142  1  0  0  0
 63143  1  0  0  0
 63144  1  0  0  0
 64145  1  0  0  0
 65146  1  0  0  0
 68 80  1  0  0  0
 71 73  2  0  0  0
 71 76  1  0  0  0
 71147  1  0  0  0
 72 74  2  0  0  0
 72 75  1  0  0  0
 72148  1  0  0  0
 73 74  1  0  0  0
 73 81  1  0  0  0
 74 82  1  0  0  0
 75 76  2  0  0  0
 75 83  1  0  0  0
 76 84  1  0  0  0
 77 83  1  0  0  0
 77149  1  0  0  0
 77150  1  0  0  0
 77151  1  0  0  0
 78 79  1  0  0  0
 78 80  1  0  0  0
 78152  1  0  0  0
 78153  1  0  0  0
 79 83  1  0  0  0
 79154  1  0  0  0
 79155  1  0  0  0
 80156  1  0  0  0
 80157  1  0  0  0
 81 85  1  0  0  0
 81 86  1  0  0  0
 81 87  1  0  0  0
 82158  1  0  0  0
M  ISO  4   1 100  68 101  80 101  82 100
M  END
> <chiral flag>
0

> <version>
0

> <s_m_source_file>
/data/baiqing/PycharmProjects/Reinvent-master-3.2/result/LINK_invent/BTK/process_docking_weight1_custom_sum_contain_oxygen_bond_distance_aromatic_linkinvent_7_9_3/rearranged_h_0015.sdf

> <i_m_source_file_index>
29

> <r_mmod_Potential_Energy-OPLS-2005>
392.375030517578

> <r_mmod_Stretch_Energy-OPLS-2005>
150.044494628906

> <r_mmod_Bend_Energy-OPLS-2005>
248.622680664062

> <r_mmod_Torsional_Energy-OPLS-2005>
274.038055419922

> <r_mmod_Improper_Torsional_Energy-OPLS-2005>
13.5450372695923

> <r_mmod_Van_der_Waal_Energy-OPLS-2005>
157.321578979492

> <r_mmod_Electrostatic_Energy-OPLS-2005>
-328.776428222656

> <r_mmod_Solvation_Energy-OPLS-2005>
-214.101913452148

> <b_mmod_Minimization_Converged-OPLS-2005>
0

> <r_mmod_RMS_Derivative-OPLS-2005>
4.56878709793091

$$$$
30
                    3D
 Structure written by MMmdl.
159167  0  0  1  0            999 V2000
  -30.6592  -14.7198   20.4615 C   0  0  0  0  0  0
  -30.4169  -12.4394   19.4847 C   0  0  0  0  0  0
  -29.5074  -12.5105   18.2407 C   0  0  0  0  0  0
  -28.0337  -12.3379   18.6494 C   0  0  0  0  0  0
  -27.6377  -13.2396   19.8491 C   0  0  2  0  0  0
  -28.6807  -13.1873   20.9879 C   0  0  0  0  0  0
  -25.2471  -13.8222   20.5684 C   0  0  0  0  0  0
  -24.1772  -13.0451   20.9197 C   0  0  0  0  0  0
  -24.6375  -11.6929   20.8742 C   0  0  0  0  0  0
  -23.9057  -10.4298   21.0389 C   0  0  0  0  0  0
  -24.3612   -9.4219   21.9172 C   0  0  0  0  0  0
  -23.6290   -8.2253   22.0747 C   0  0  0  0  0  0
  -22.4273   -8.0284   21.3538 C   0  0  0  0  0  0
  -21.9910   -9.0252   20.4637 C   0  0  0  0  0  0
  -22.7233  -10.2130   20.3039 C   0  0  0  0  0  0
  -21.6864   -6.0730   22.5278 C   0  0  0  0  0  0
  -21.4021   -6.5632   23.8213 C   0  0  0  0  0  0
  -21.3663   -5.6782   24.9178 C   0  0  0  0  0  0
  -21.6046   -4.3048   24.7224 C   0  0  0  0  0  0
  -21.8815   -3.8138   23.4343 C   0  0  0  0  0  0
  -21.9185   -4.6953   22.3400 C   0  0  0  0  0  0
  -22.7794  -13.5227   21.1861 C   0  0  0  0  0  0
  -22.1658   -4.2140   21.0979 F   0  0  0  0  0  0
  -21.5630   -3.4527   25.7738 F   0  0  0  0  0  0
  -29.9874  -13.5188   20.4057 N   0  0  0  0  0  0
  -26.2910  -12.9439   20.3272 N   0  0  0  0  0  0
  -25.9313  -11.6573   20.5743 N   0  0  0  0  0  0
  -22.0438  -12.8218   22.0416 N   0  0  0  0  0  0
  -25.4146  -15.1955   20.4115 N   0  0  0  0  0  0
  -31.8465  -14.7381   20.1371 O   0  0  0  0  0  0
  -21.6643   -6.8875   21.4240 O   0  0  0  0  0  0
  -22.3466  -14.5520   20.6699 O   0  0  0  0  0  0
  -24.6307  -31.8562   23.1999 C   0  0  0  0  0  0
  -25.9135  -32.4754   23.8342 C   0  0  1  0  0  0
  -27.2091  -27.2635   20.1255 C   0  0  0  0  0  0
  -25.5927  -33.8553   24.2258 N   0  0  0  0  0  0
  -23.4255  -30.4839   21.5420 C   0  0  2  0  0  0
  -24.8715  -28.9367   20.1034 C   0  0  0  0  0  0
  -22.7494  -29.4628   22.4888 C   0  0  0  0  0  0
  -18.0296  -28.1393   22.8485 C   0  0  0  0  0  0
  -24.1487  -36.7292   23.2638 C   0  0  0  0  0  0
  -25.9733  -30.7703   21.3799 C   0  0  0  0  0  0
  -26.0435  -29.3956   20.7182 C   0  0  0  0  0  0
  -27.2151  -28.5706   20.7204 C   0  0  0  0  0  0
  -26.0215  -26.8896   19.4557 C   0  0  0  0  0  0
  -24.8653  -27.6900   19.4625 C   0  0  0  0  0  0
  -23.6421  -29.8232   20.1551 C   0  0  0  0  0  0
  -25.4110  -36.3066   24.0329 C   0  0  1  0  0  0
  -20.5904  -28.3709   23.1252 C   0  0  2  0  0  0
  -20.6787  -26.9424   22.5393 C   0  0  0  0  0  0
  -19.5748  -26.6385   21.5209 C   0  0  0  0  0  0
  -18.1934  -26.7934   22.1625 C   0  0  0  0  0  0
  -19.1552  -28.8866   23.2866 C   0  0  0  0  0  0
  -18.9470  -30.1469   23.8882 C   0  0  0  0  0  0
  -17.6467  -30.6592   24.0571 C   0  0  0  0  0  0
  -25.9042  -34.9435   23.5096 C   0  0  0  0  0  0
  -16.5360  -29.9090   23.6350 C   0  0  0  0  0  0
  -16.7281  -28.6512   23.0368 C   0  0  0  0  0  0
  -26.4488  -31.6582   25.0726 C   0  0  0  0  0  0
  -25.3709  -31.3762   26.1450 C   0  0  0  0  0  0
  -27.0341  -30.2989   24.6234 C   0  0  0  0  0  0
  -27.6028  -32.4324   25.7510 C   0  0  0  0  0  0
  -27.5583  -37.1806   24.8462 C   0  0  0  0  0  0
  -21.4200  -29.3061   22.3638 N   0  0  0  0  0  0
  -26.4282  -37.3768   23.9413 N   0  0  0  0  0  0
  -24.6955  -31.0540   22.0969 N   0  0  0  0  0  0
  -23.4200  -28.8164   23.2977 O   0  0  0  0  0  0
  -28.2884  -26.3498   20.2219 O   0  0  0  0  0  0
  -26.5622  -34.8916   22.4665 O   0  0  0  0  0  0
  -23.5457  -32.1370   23.7312 O   0  0  0  0  0  0
  -31.7429  -17.6727   20.3993 C   0  0  0  0  0  0
  -29.9026  -19.8676   20.5577 C   0  0  0  0  0  0
  -30.3744  -17.3350   20.5639 C   0  0  0  0  0  0
  -32.1854  -19.0040   20.2995 C   0  0  0  0  0  0
  -31.2856  -20.0800   20.3789 C   0  0  0  0  0  0
  -29.4632  -18.4736   20.6400 C   0  0  0  0  0  0
  -30.5185  -24.4266   19.6109 C   0  0  0  0  0  0
  -27.0133  -24.4461   21.2284 C   0  0  0  0  0  0
  -29.0249  -21.1768   20.8086 C   0  0  0  0  0  0
  -29.2867  -23.8341   20.3239 C   0  0  1  0  0  0
  -28.0432  -24.8554   20.1511 C   0  0  2  0  0  0
  -29.9518  -15.9025   20.6712 N   0  0  0  0  0  0
  -29.1090  -22.3710   19.8456 N   0  3  0  0  0  0
  -33.5080  -19.2537   20.1448 F   0  0  0  0  0  0
  -31.7675  -21.3456   20.3150 F   0  0  0  0  0  0
  -27.7829  -18.1364   20.8639 Cl  0  0  0  0  0  0
  -31.4634  -12.5249   19.1886 H   0  0  0  0  0  0
  -30.3313  -11.4672   19.9725 H   0  0  0  0  0  0
  -29.7945  -11.7445   17.5197 H   0  0  0  0  0  0
  -29.6420  -13.4701   17.7382 H   0  0  0  0  0  0
  -27.8913  -11.2906   18.9139 H   0  0  0  0  0  0
  -27.3778  -12.5260   17.7986 H   0  0  0  0  0  0
  -27.6287  -14.2596   19.4650 H   0  0  0  0  0  0
  -28.7026  -12.1993   21.4499 H   0  0  0  0  0  0
  -28.4170  -13.8900   21.7796 H   0  0  0  0  0  0
  -25.2755   -9.5713   22.4742 H   0  0  0  0  0  0
  -24.0010   -7.4651   22.7468 H   0  0  0  0  0  0
  -21.0846   -8.8754   19.8944 H   0  0  0  0  0  0
  -22.3686  -10.9656   19.6139 H   0  0  0  0  0  0
  -21.2029   -7.6143   23.9719 H   0  0  0  0  0  0
  -21.1494   -6.0512   25.9079 H   0  0  0  0  0  0
  -22.0591   -2.7598   23.2840 H   0  0  0  0  0  0
  -22.4044  -11.9902   22.4856 H   0  0  0  0  0  0
  -21.1042  -13.1226   22.2587 H   0  0  0  0  0  0
  -24.6487  -15.8498   20.5313 H   0  0  0  0  0  0
  -26.2686  -15.6438   20.1071 H   0  0  0  0  0  0
  -26.7217  -32.5399   23.1101 H   0  0  0  0  0  0
  -25.0073  -33.9676   25.0405 H   0  0  0  0  0  0
  -22.7215  -31.3072   21.4015 H   0  0  0  0  0  0
  -23.3734  -35.9640   23.3280 H   0  0  0  0  0  0
  -24.3587  -36.8913   22.2051 H   0  0  0  0  0  0
  -23.7238  -37.6488   23.6678 H   0  0  0  0  0  0
  -26.1153  -31.5304   20.6103 H   0  0  0  0  0  0
  -26.8501  -30.8150   22.0143 H   0  0  0  0  0  0
  -28.1057  -28.9121   21.2289 H   0  0  0  0  0  0
  -25.9401  -25.9403   18.9497 H   0  0  0  0  0  0
  -23.9708  -27.3340   18.9701 H   0  0  0  0  0  0
  -23.7663  -30.6025   19.4018 H   0  0  0  0  0  0
  -22.7604  -29.2572   19.8481 H   0  0  0  0  0  0
  -25.1295  -36.1918   25.0824 H   0  0  0  0  0  0
  -21.0026  -28.3300   24.1361 H   0  0  0  0  0  0
  -20.5684  -26.2324   23.3602 H   0  0  0  0  0  0
  -21.6660  -26.7440   22.1194 H   0  0  0  0  0  0
  -19.6889  -25.6286   21.1249 H   0  0  0  0  0  0
  -19.6680  -27.3199   20.6740 H   0  0  0  0  0  0
  -17.4206  -26.6693   21.4023 H   0  0  0  0  0  0
  -18.0328  -26.0068   22.9012 H   0  0  0  0  0  0
  -19.7946  -30.7305   24.2230 H   0  0  0  0  0  0
  -17.5022  -31.6273   24.5181 H   0  0  0  0  0  0
  -15.5360  -30.2994   23.7677 H   0  0  0  0  0  0
  -15.8679  -28.0829   22.7090 H   0  0  0  0  0  0
  -24.5875  -30.7113   25.7805 H   0  0  0  0  0  0
  -24.8911  -32.2942   26.4851 H   0  0  0  0  0  0
  -25.8007  -30.8962   27.0246 H   0  0  0  0  0  0
  -26.2933  -29.6713   24.1260 H   0  0  0  0  0  0
  -27.3998  -29.7276   25.4777 H   0  0  0  0  0  0
  -27.8832  -30.4234   23.9506 H   0  0  0  0  0  0
  -27.2637  -33.3643   26.2064 H   0  0  0  0  0  0
  -28.3880  -32.6846   25.0370 H   0  0  0  0  0  0
  -28.0669  -31.8455   26.5449 H   0  0  0  0  0  0
  -28.2599  -38.0111   24.7531 H   0  0  0  0  0  0
  -28.1079  -36.2633   24.6272 H   0  0  0  0  0  0
  -27.2310  -37.1453   25.8869 H   0  0  0  0  0  0
  -20.9369  -29.8791   21.6861 H   0  0  0  0  0  0
  -26.0145  -38.2839   24.1404 H   0  0  0  0  0  0
  -32.5161  -16.9273   20.3538 H   0  0  0  0  0  0
  -30.7165  -25.4451   19.9479 H   0  0  0  0  0  0
  -30.3792  -24.4664   18.5294 H   0  0  0  0  0  0
  -31.4238  -23.8525   19.8115 H   0  0  0  0  0  0
  -26.8036  -23.3781   21.1843 H   0  0  0  0  0  0
  -26.0515  -24.9442   21.1305 H   0  0  0  0  0  0
  -27.3894  -24.6657   22.2267 H   0  0  0  0  0  0
  -29.2989  -21.5335   21.8018 H   0  0  0  0  0  0
  -27.9742  -20.9005   20.8952 H   0  0  0  0  0  0
  -29.5450  -23.8036   21.3830 H   0  0  0  0  0  0
  -27.6361  -24.6515   19.1611 H   0  0  0  0  0  0
  -28.9720  -15.7699   20.8717 H   0  0  0  0  0  0
  -28.3269  -22.3116   19.2121 H   0  0  0  0  0  0
  -29.9227  -22.1782   19.2837 H   0  0  0  0  0  0
  1 25  1  0  0  0
  1 30  2  0  0  0
  1 82  1  0  0  0
  2  3  1  0  0  0
  2 25  1  0  0  0
  2 87  1  0  0  0
  2 88  1  0  0  0
  3  4  1  0  0  0
  3 89  1  0  0  0
  3 90  1  0  0  0
  4  5  1  0  0  0
  4 91  1  0  0  0
  4 92  1  0  0  0
  5  6  1  0  0  0
  5 26  1  0  0  0
  5 93  1  0  0  0
  6 25  1  0  0  0
  6 94  1  0  0  0
  6 95  1  0  0  0
  7  8  2  0  0  0
  7 26  1  0  0  0
  7 29  1  0  0  0
  8  9  1  0  0  0
  8 22  1  0  0  0
  9 10  1  0  0  0
  9 27  2  0  0  0
 10 11  2  0  0  0
 10 15  1  0  0  0
 11 12  1  0  0  0
 11 96  1  0  0  0
 12 13  2  0  0  0
 12 97  1  0  0  0
 13 14  1  0  0  0
 13 31  1  0  0  0
 14 15  2  0  0  0
 14 98  1  0  0  0
 15 99  1  0  0  0
 16 17  2  0  0  0
 16 21  1  0  0  0
 16 31  1  0  0  0
 17 18  1  0  0  0
 17100  1  0  0  0
 18 19  2  0  0  0
 18101  1  0  0  0
 19 20  1  0  0  0
 19 24  1  0  0  0
 20 21  2  0  0  0
 20102  1  0  0  0
 21 23  1  0  0  0
 22 28  1  0  0  0
 22 32  2  0  0  0
 26 27  1  0  0  0
 28103  1  0  0  0
 28104  1  0  0  0
 29105  1  0  0  0
 29106  1  0  0  0
 33 34  1  0  0  0
 33 66  1  0  0  0
 33 70  2  0  0  0
 34 36  1  0  0  0
 34 59  1  0  0  0
 34107  1  0  0  0
 35 44  2  0  0  0
 35 45  1  0  0  0
 35 68  1  0  0  0
 36 56  1  0  0  0
 36108  1  0  0  0
 37 39  1  0  0  0
 37 47  1  0  0  0
 37 66  1  0  0  0
 37109  1  0  0  0
 38 43  2  0  0  0
 38 46  1  0  0  0
 38 47  1  0  0  0
 39 64  1  0  0  0
 39 67  2  0  0  0
 40 52  1  0  0  0
 40 53  2  0  0  0
 40 58  1  0  0  0
 41110  1  0  0  0
 41111  1  0  0  0
 41112  1  0  0  0
 41 48  1  0  0  0
 42 43  1  0  0  0
 42 66  1  0  0  0
 42113  1  0  0  0
 42114  1  0  0  0
 43 44  1  0  0  0
 44115  1  0  0  0
 45 46  2  0  0  0
 45116  1  0  0  0
 46117  1  0  0  0
 47118  1  0  0  0
 47119  1  0  0  0
 48 56  1  0  0  0
 48 65  1  0  0  0
 48120  1  0  0  0
 49 50  1  0  0  0
 49 53  1  0  0  0
 49 64  1  0  0  0
 49121  1  0  0  0
 50 51  1  0  0  0
 50122  1  0  0  0
 50123  1  0  0  0
 51 52  1  0  0  0
 51124  1  0  0  0
 51125  1  0  0  0
 52126  1  0  0  0
 52127  1  0  0  0
 53 54  1  0  0  0
 54 55  2  0  0  0
 54128  1  0  0  0
 55 57  1  0  0  0
 55129  1  0  0  0
 56 69  2  0  0  0
 57 58  2  0  0  0
 57130  1  0  0  0
 58131  1  0  0  0
 59 60  1  0  0  0
 59 61  1  0  0  0
 59 62  1  0  0  0
 60132  1  0  0  0
 60133  1  0  0  0
 60134  1  0  0  0
 61135  1  0  0  0
 61136  1  0  0  0
 61137  1  0  0  0
 62138  1  0  0  0
 62139  1  0  0  0
 62140  1  0  0  0
 63 65  1  0  0  0
 63141  1  0  0  0
 63142  1  0  0  0
 63143  1  0  0  0
 64144  1  0  0  0
 65145  1  0  0  0
 68 81  1  0  0  0
 71 73  2  0  0  0
 71 74  1  0  0  0
 71146  1  0  0  0
 72 75  1  0  0  0
 72 76  2  0  0  0
 72 79  1  0  0  0
 73 76  1  0  0  0
 73 82  1  0  0  0
 74 75  2  0  0  0
 74 84  1  0  0  0
 75 85  1  0  0  0
 76 86  1  0  0  0
 77147  1  0  0  0
 77148  1  0  0  0
 77149  1  0  0  0
 77 80  1  0  0  0
 78150  1  0  0  0
 78151  1  0  0  0
 78152  1  0  0  0
 78 81  1  0  0  0
 79 83  1  0  0  0
 79153  1  0  0  0
 79154  1  0  0  0
 80 81  1  0  0  0
 80 83  1  0  0  0
 80155  1  0  0  0
 81156  1  0  0  0
 82157  1  0  0  0
 83158  1  0  0  0
 83159  1  0  0  0
M  CHG  1  83   1
M  ISO  4   1 100  68 101  81 101  82 100
M  END
> <chiral flag>
0

> <version>
0

> <s_m_source_file>
/data/baiqing/PycharmProjects/Reinvent-master-3.2/result/LINK_invent/BTK/process_docking_weight1_custom_sum_contain_oxygen_bond_distance_aromatic_linkinvent_7_9_3/rearranged_h_0015.sdf

> <i_m_source_file_index>
30

> <r_mmod_Potential_Energy-OPLS-2005>
-11.7935609817505

> <r_mmod_Stretch_Energy-OPLS-2005>
130.020431518555

> <r_mmod_Bend_Energy-OPLS-2005>
171.220291137695

> <r_mmod_Torsional_Energy-OPLS-2005>
232.605682373047

> <r_mmod_Improper_Torsional_Energy-OPLS-2005>
5.13232231140137

> <r_mmod_Van_der_Waal_Energy-OPLS-2005>
146.949478149414

> <r_mmod_Electrostatic_Energy-OPLS-2005>
-336.163391113281

> <r_mmod_Solvation_Energy-OPLS-2005>
-445.24072265625

> <b_mmod_Minimization_Converged-OPLS-2005>
0

> <r_mmod_RMS_Derivative-OPLS-2005>
2.13949918746948

$$$$
31
                    3D
 Structure written by MMmdl.
146154  0  0  1  0            999 V2000
  -30.4005  -15.4005   20.3464 C   0  0  0  0  0  0
  -30.4494  -12.9200   19.4815 C   0  0  0  0  0  0
  -29.5274  -12.5565   18.2885 C   0  0  0  0  0  0
  -28.0943  -12.2585   18.7588 C   0  0  0  0  0  0
  -27.6083  -13.2810   19.8134 C   0  0  2  0  0  0
  -28.6532  -13.5278   20.9220 C   0  0  0  0  0  0
  -25.2423  -13.8273   20.5836 C   0  0  0  0  0  0
  -24.1779  -13.0466   20.9304 C   0  0  0  0  0  0
  -24.6435  -11.6960   20.8836 C   0  0  0  0  0  0
  -23.9141  -10.4320   21.0475 C   0  0  0  0  0  0
  -24.3675   -9.4211   21.9240 C   0  0  0  0  0  0
  -23.6335   -8.2257   22.0771 C   0  0  0  0  0  0
  -22.4308   -8.0317   21.3555 C   0  0  0  0  0  0
  -21.9975   -9.0317   20.4664 C   0  0  0  0  0  0
  -22.7328  -10.2177   20.3099 C   0  0  0  0  0  0
  -21.6839   -6.0767   22.5293 C   0  0  0  0  0  0
  -21.4009   -6.5667   23.8232 C   0  0  0  0  0  0
  -21.3629   -5.6815   24.9189 C   0  0  0  0  0  0
  -21.6029   -4.3079   24.7241 C   0  0  0  0  0  0
  -21.8827   -3.8173   23.4359 C   0  0  0  0  0  0
  -21.9203   -4.7001   22.3418 C   0  0  0  0  0  0
  -22.7775  -13.5210   21.1935 C   0  0  0  0  0  0
  -22.1669   -4.2196   21.0989 F   0  0  0  0  0  0
  -21.5611   -3.4546   25.7734 F   0  0  0  0  0  0
  -29.8477  -14.0788   20.2531 N   0  0  0  0  0  0
  -26.2861  -12.9564   20.3307 N   0  0  0  0  0  0
  -25.9373  -11.6650   20.5813 N   0  0  0  0  0  0
  -22.0419  -12.8208   22.0461 N   0  0  0  0  0  0
  -25.4044  -15.2024   20.4231 N   0  0  0  0  0  0
  -31.6372  -15.3682   20.2334 O   0  0  0  0  0  0
  -21.6635   -6.8933   21.4260 O   0  0  0  0  0  0
  -22.3464  -14.5529   20.6777 O   0  0  0  0  0  0
  -24.6681  -31.8188   23.1650 C   0  0  0  0  0  0
  -25.9361  -32.4553   23.8118 C   0  0  1  0  0  0
  -27.2237  -26.8495   20.2105 C   0  0  0  0  0  0
  -25.5985  -33.8359   24.2021 N   0  0  0  0  0  0
  -23.4833  -30.4273   21.5167 C   0  0  2  0  0  0
  -24.9341  -28.7844   20.1308 C   0  0  0  0  0  0
  -22.7680  -29.4442   22.4801 C   0  0  0  0  0  0
  -18.0331  -28.1426   22.8459 C   0  0  0  0  0  0
  -24.1473  -36.7185   23.2658 C   0  0  0  0  0  0
  -26.0540  -30.5919   21.4110 C   0  0  0  0  0  0
  -26.1196  -29.1654   20.7753 C   0  0  0  0  0  0
  -27.2517  -28.2181   20.7966 C   0  0  0  0  0  0
  -26.0064  -26.6342   19.5212 C   0  0  0  0  0  0
  -24.9027  -27.5327   19.4904 C   0  0  0  0  0  0
  -23.7285  -29.7322   20.1474 C   0  0  0  0  0  0
  -25.4124  -36.2932   24.0298 C   0  0  1  0  0  0
  -20.5961  -28.3772   23.1173 C   0  0  2  0  0  0
  -20.6820  -26.9449   22.5398 C   0  0  0  0  0  0
  -19.5799  -26.6383   21.5215 C   0  0  0  0  0  0
  -18.1964  -26.7960   22.1603 C   0  0  0  0  0  0
  -19.1602  -28.8923   23.2793 C   0  0  0  0  0  0
  -18.9525  -30.1511   23.8825 C   0  0  0  0  0  0
  -17.6527  -30.6625   24.0565 C   0  0  0  0  0  0
  -25.9083  -34.9315   23.4977 C   0  0  0  0  0  0
  -16.5403  -29.9115   23.6358 C   0  0  0  0  0  0
  -16.7313  -28.6534   23.0358 C   0  0  0  0  0  0
  -26.4585  -31.6544   25.0698 C   0  0  0  0  0  0
  -25.3667  -31.3841   26.1332 C   0  0  0  0  0  0
  -27.0520  -30.2903   24.6484 C   0  0  0  0  0  0
  -27.6021  -32.4400   25.7519 C   0  0  0  0  0  0
  -27.5529  -37.1760   24.8505 C   0  0  0  0  0  0
  -21.4342  -29.3054   22.3522 N   0  0  0  0  0  0
  -26.4271  -37.3666   23.9397 N   0  0  0  0  0  0
  -24.7571  -30.9753   22.0847 N   0  0  0  0  0  0
  -23.4191  -28.8027   23.3088 O   0  0  0  0  0  0
  -28.2633  -25.7553   20.1294 O   0  0  0  0  0  0
  -26.5719  -34.8903   22.4588 O   0  0  0  0  0  0
  -23.5735  -32.1222   23.6690 O   0  0  0  0  0  0
  -30.1948  -21.1463   21.5355 C   0  0  0  0  0  0
  -30.8605  -19.9945   22.0379 C   0  0  0  0  0  0
  -29.2327  -21.1203   20.5029 C   0  0  0  0  0  0
  -29.7640  -18.3157   20.5565 C   0  0  0  0  0  0
  -30.6766  -18.6604   21.5802 C   0  0  0  0  0  0
  -29.0505  -19.6251   20.0549 C   0  0  0  0  0  0
  -28.7364  -22.7524   19.9429 C   0  0  0  0  0  0
  -29.6242  -16.6945   20.2545 N   0  0  0  0  0  0
  -28.0819  -24.1088   20.6573 N   0  0  0  0  0  0
  -31.3844  -17.6834   22.1922 F   0  0  0  0  0  0
  -28.1349  -19.4313   19.0744 F   0  0  0  0  0  0
  -31.4298  -13.1860   19.0811 H   0  0  0  0  0  0
  -30.6230  -12.0627   20.1317 H   0  0  0  0  0  0
  -29.9244  -11.6921   17.7526 H   0  0  0  0  0  0
  -29.5140  -13.3813   17.5747 H   0  0  0  0  0  0
  -28.1009  -11.2604   19.2041 H   0  0  0  0  0  0
  -27.4088  -12.2062   17.9133 H   0  0  0  0  0  0
  -27.4995  -14.2197   19.2662 H   0  0  0  0  0  0
  -28.8788  -12.6169   21.4786 H   0  0  0  0  0  0
  -28.2782  -14.2545   21.6456 H   0  0  0  0  0  0
  -25.2813   -9.5646   22.4836 H   0  0  0  0  0  0
  -24.0008   -7.4630   22.7483 H   0  0  0  0  0  0
  -21.0896   -8.8896   19.8973 H   0  0  0  0  0  0
  -22.3836  -10.9751   19.6222 H   0  0  0  0  0  0
  -21.1986   -7.6171   23.9760 H   0  0  0  0  0  0
  -21.1415   -6.0524   25.9095 H   0  0  0  0  0  0
  -22.0618   -2.7640   23.2853 H   0  0  0  0  0  0
  -22.3976  -11.9847   22.4875 H   0  0  0  0  0  0
  -21.1050  -13.1253   22.2678 H   0  0  0  0  0  0
  -24.6368  -15.8531   20.5519 H   0  0  0  0  0  0
  -26.2488  -15.6516   20.0973 H   0  0  0  0  0  0
  -26.7415  -32.5064   23.0807 H   0  0  0  0  0  0
  -25.0089  -33.9398   25.0141 H   0  0  0  0  0  0
  -22.8012  -31.2614   21.3385 H   0  0  0  0  0  0
  -23.3702  -35.9563   23.3435 H   0  0  0  0  0  0
  -24.3504  -36.8727   22.2047 H   0  0  0  0  0  0
  -23.7306  -37.6427   23.6677 H   0  0  0  0  0  0
  -26.2327  -31.3105   20.6097 H   0  0  0  0  0  0
  -26.9136  -30.6654   22.0648 H   0  0  0  0  0  0
  -28.1490  -28.5140   21.3241 H   0  0  0  0  0  0
  -25.8837  -25.6871   19.0183 H   0  0  0  0  0  0
  -24.0016  -27.2234   18.9751 H   0  0  0  0  0  0
  -23.9051  -30.4982   19.3897 H   0  0  0  0  0  0
  -22.8329  -29.1991   19.8227 H   0  0  0  0  0  0
  -25.1324  -36.1720   25.0789 H   0  0  0  0  0  0
  -21.0009  -28.3410   24.1319 H   0  0  0  0  0  0
  -20.5748  -26.2386   23.3648 H   0  0  0  0  0  0
  -21.6689  -26.7468   22.1195 H   0  0  0  0  0  0
  -19.6974  -25.6279   21.1294 H   0  0  0  0  0  0
  -19.6757  -27.3175   20.6727 H   0  0  0  0  0  0
  -17.4239  -26.6713   21.3998 H   0  0  0  0  0  0
  -18.0346  -26.0119   22.9011 H   0  0  0  0  0  0
  -19.8023  -30.7329   24.2158 H   0  0  0  0  0  0
  -17.5109  -31.6310   24.5177 H   0  0  0  0  0  0
  -15.5416  -30.3002   23.7764 H   0  0  0  0  0  0
  -15.8706  -28.0866   22.7083 H   0  0  0  0  0  0
  -24.5843  -30.7211   25.7652 H   0  0  0  0  0  0
  -24.8872  -32.3064   26.4581 H   0  0  0  0  0  0
  -25.7835  -30.9111   27.0224 H   0  0  0  0  0  0
  -26.3223  -29.6528   24.1475 H   0  0  0  0  0  0
  -27.4041  -29.7324   25.5169 H   0  0  0  0  0  0
  -27.9158  -30.4108   23.9953 H   0  0  0  0  0  0
  -27.2531  -33.3754   26.1906 H   0  0  0  0  0  0
  -28.3912  -32.6853   25.0413 H   0  0  0  0  0  0
  -28.0598  -31.8653   26.5579 H   0  0  0  0  0  0
  -28.2613  -37.9965   24.7336 H   0  0  0  0  0  0
  -28.0913  -36.2466   24.6568 H   0  0  0  0  0  0
  -27.2210  -37.1709   25.8901 H   0  0  0  0  0  0
  -20.9632  -29.8683   21.6578 H   0  0  0  0  0  0
  -26.0115  -38.2738   24.1338 H   0  0  0  0  0  0
  -30.4762  -22.1066   21.9418 H   0  0  0  0  0  0
  -31.5791  -20.1461   22.8317 H   0  0  0  0  0  0
  -29.7027  -23.1499   19.6269 H   0  0  0  0  0  0
  -28.1960  -22.6000   19.0083 H   0  0  0  0  0  0
  -28.6803  -16.4781   19.9708 H   0  0  0  0  0  0
  -28.3649  -24.1137   21.6334 H   0  0  0  0  0  0
  1 25  1  0  0  0
  1 30  2  0  0  0
  1 78  1  0  0  0
  2  3  1  0  0  0
  2 25  1  0  0  0
  2 82  1  0  0  0
  2 83  1  0  0  0
  3  4  1  0  0  0
  3 84  1  0  0  0
  3 85  1  0  0  0
  4  5  1  0  0  0
  4 86  1  0  0  0
  4 87  1  0  0  0
  5  6  1  0  0  0
  5 26  1  0  0  0
  5 88  1  0  0  0
  6 25  1  0  0  0
  6 89  1  0  0  0
  6 90  1  0  0  0
  7  8  2  0  0  0
  7 26  1  0  0  0
  7 29  1  0  0  0
  8  9  1  0  0  0
  8 22  1  0  0  0
  9 10  1  0  0  0
  9 27  2  0  0  0
 10 11  2  0  0  0
 10 15  1  0  0  0
 11 12  1  0  0  0
 11 91  1  0  0  0
 12 13  2  0  0  0
 12 92  1  0  0  0
 13 14  1  0  0  0
 13 31  1  0  0  0
 14 15  2  0  0  0
 14 93  1  0  0  0
 15 94  1  0  0  0
 16 17  2  0  0  0
 16 21  1  0  0  0
 16 31  1  0  0  0
 17 18  1  0  0  0
 17 95  1  0  0  0
 18 19  2  0  0  0
 18 96  1  0  0  0
 19 20  1  0  0  0
 19 24  1  0  0  0
 20 21  2  0  0  0
 20 97  1  0  0  0
 21 23  1  0  0  0
 22 28  1  0  0  0
 22 32  2  0  0  0
 26 27  1  0  0  0
 28 98  1  0  0  0
 28 99  1  0  0  0
 29100  1  0  0  0
 29101  1  0  0  0
 33 34  1  0  0  0
 33 66  1  0  0  0
 33 70  2  0  0  0
 34 36  1  0  0  0
 34 59  1  0  0  0
 34102  1  0  0  0
 35 44  2  0  0  0
 35 45  1  0  0  0
 35 68  1  0  0  0
 36 56  1  0  0  0
 36103  1  0  0  0
 37 39  1  0  0  0
 37 47  1  0  0  0
 37 66  1  0  0  0
 37104  1  0  0  0
 38 43  2  0  0  0
 38 46  1  0  0  0
 38 47  1  0  0  0
 39 64  1  0  0  0
 39 67  2  0  0  0
 40 52  1  0  0  0
 40 53  2  0  0  0
 40 58  1  0  0  0
 41105  1  0  0  0
 41106  1  0  0  0
 41107  1  0  0  0
 41 48  1  0  0  0
 42 43  1  0  0  0
 42 66  1  0  0  0
 42108  1  0  0  0
 42109  1  0  0  0
 43 44  1  0  0  0
 44110  1  0  0  0
 45 46  2  0  0  0
 45111  1  0  0  0
 46112  1  0  0  0
 47113  1  0  0  0
 47114  1  0  0  0
 48 56  1  0  0  0
 48 65  1  0  0  0
 48115  1  0  0  0
 49 50  1  0  0  0
 49 53  1  0  0  0
 49 64  1  0  0  0
 49116  1  0  0  0
 50 51  1  0  0  0
 50117  1  0  0  0
 50118  1  0  0  0
 51 52  1  0  0  0
 51119  1  0  0  0
 51120  1  0  0  0
 52121  1  0  0  0
 52122  1  0  0  0
 53 54  1  0  0  0
 54 55  2  0  0  0
 54123  1  0  0  0
 55 57  1  0  0  0
 55124  1  0  0  0
 56 69  2  0  0  0
 57 58  2  0  0  0
 57125  1  0  0  0
 58126  1  0  0  0
 59 60  1  0  0  0
 59 61  1  0  0  0
 59 62  1  0  0  0
 60127  1  0  0  0
 60128  1  0  0  0
 60129  1  0  0  0
 61130  1  0  0  0
 61131  1  0  0  0
 61132  1  0  0  0
 62133  1  0  0  0
 62134  1  0  0  0
 62135  1  0  0  0
 63 65  1  0  0  0
 63136  1  0  0  0
 63137  1  0  0  0
 63138  1  0  0  0
 64139  1  0  0  0
 65140  1  0  0  0
 68 79  1  0  0  0
 71 72  2  0  0  0
 71 73  1  0  0  0
 71141  1  0  0  0
 72 75  1  0  0  0
 72142  1  0  0  0
 73 76  2  0  0  0
 73 77  1  0  0  0
 74 75  2  0  0  0
 74 76  1  0  0  0
 74 78  1  0  0  0
 75 80  1  0  0  0
 76 81  1  0  0  0
 77 79  1  0  0  0
 77143  1  0  0  0
 77144  1  0  0  0
 78145  1  0  0  0
 79146  1  0  0  0
M  ISO  4   1 100  68 101  78 100  79 101
M  END
> <chiral flag>
0

> <version>
0

> <s_m_source_file>
/data/baiqing/PycharmProjects/Reinvent-master-3.2/result/LINK_invent/BTK/process_docking_weight1_custom_sum_contain_oxygen_bond_distance_aromatic_linkinvent_7_9_3/rearranged_h_0015.sdf

> <i_m_source_file_index>
31

> <r_mmod_Potential_Energy-OPLS-2005>
1508.71557617188

> <r_mmod_Stretch_Energy-OPLS-2005>
707.465393066406

> <r_mmod_Bend_Energy-OPLS-2005>
480.275482177734

> <r_mmod_Torsional_Energy-OPLS-2005>
232.638702392578

> <r_mmod_Improper_Torsional_Energy-OPLS-2005>
9.49328422546387

> <r_mmod_Van_der_Waal_Energy-OPLS-2005>
123.307144165039

> <r_mmod_Electrostatic_Energy-OPLS-2005>
-410.845611572266

> <r_mmod_Solvation_Energy-OPLS-2005>
-223.218780517578

> <b_mmod_Minimization_Converged-OPLS-2005>
0

> <r_mmod_RMS_Derivative-OPLS-2005>
4.73502683639526

$$$$
32
                    3D
 Structure written by MMmdl.
157165  0  0  1  0            999 V2000
  -30.7310  -14.3865   20.6670 C   0  0  0  0  0  0
  -30.4256  -12.2907   19.3969 C   0  0  0  0  0  0
  -29.4886  -12.5289   18.1961 C   0  0  0  0  0  0
  -28.0118  -12.3838   18.6105 C   0  0  0  0  0  0
  -27.6701  -13.1988   19.8849 C   0  0  2  0  0  0
  -28.7064  -12.9222   20.9964 C   0  0  0  0  0  0
  -25.2623  -13.8150   20.5671 C   0  0  0  0  0  0
  -24.1857  -13.0440   20.9164 C   0  0  0  0  0  0
  -24.6396  -11.6902   20.8725 C   0  0  0  0  0  0
  -23.9053  -10.4294   21.0402 C   0  0  0  0  0  0
  -24.3605   -9.4213   21.9184 C   0  0  0  0  0  0
  -23.6284   -8.2245   22.0753 C   0  0  0  0  0  0
  -22.4268   -8.0280   21.3541 C   0  0  0  0  0  0
  -21.9903   -9.0250   20.4644 C   0  0  0  0  0  0
  -22.7224  -10.2136   20.3055 C   0  0  0  0  0  0
  -21.6852   -6.0732   22.5281 C   0  0  0  0  0  0
  -21.4014   -6.5638   23.8216 C   0  0  0  0  0  0
  -21.3663   -5.6793   24.9180 C   0  0  0  0  0  0
  -21.6044   -4.3054   24.7231 C   0  0  0  0  0  0
  -21.8822   -3.8146   23.4352 C   0  0  0  0  0  0
  -21.9189   -4.6959   22.3405 C   0  0  0  0  0  0
  -22.7881  -13.5243   21.1838 C   0  0  0  0  0  0
  -22.1658   -4.2143   21.0983 F   0  0  0  0  0  0
  -21.5632   -3.4538   25.7743 F   0  0  0  0  0  0
  -30.0519  -13.2263   20.4679 N   0  0  0  0  0  0
  -26.3065  -12.9308   20.3396 N   0  0  0  0  0  0
  -25.9319  -11.6473   20.5756 N   0  0  0  0  0  0
  -22.0524  -12.8236   22.0397 N   0  0  0  0  0  0
  -25.4369  -15.1868   20.4084 N   0  0  0  0  0  0
  -31.7609  -14.6879   20.0548 O   0  0  0  0  0  0
  -21.6635   -6.8871   21.4237 O   0  0  0  0  0  0
  -22.3569  -14.5550   20.6689 O   0  0  0  0  0  0
  -24.6093  -31.8705   23.2118 C   0  0  0  0  0  0
  -25.8999  -32.4839   23.8413 C   0  0  1  0  0  0
  -27.2580  -27.4689   20.1079 C   0  0  0  0  0  0
  -25.5863  -33.8635   24.2342 N   0  0  0  0  0  0
  -23.3964  -30.4918   21.5505 C   0  0  2  0  0  0
  -24.8483  -28.9563   20.1225 C   0  0  0  0  0  0
  -22.7374  -29.4676   22.5011 C   0  0  0  0  0  0
  -18.0263  -28.1375   22.8507 C   0  0  0  0  0  0
  -24.1479  -36.7335   23.2643 C   0  0  0  0  0  0
  -25.9184  -30.8502   21.3563 C   0  0  0  0  0  0
  -26.0017  -29.4816   20.7167 C   0  0  0  0  0  0
  -27.2075  -28.7501   20.7086 C   0  0  0  0  0  0
  -26.0893  -26.9584   19.5057 C   0  0  0  0  0  0
  -24.8845  -27.6889   19.5145 C   0  0  0  0  0  0
  -23.6057  -29.8170   20.1675 C   0  0  0  0  0  0
  -25.4099  -36.3122   24.0342 C   0  0  1  0  0  0
  -20.5846  -28.3664   23.1334 C   0  0  2  0  0  0
  -20.6746  -26.9405   22.5425 C   0  0  0  0  0  0
  -19.5731  -26.6391   21.5215 C   0  0  0  0  0  0
  -18.1908  -26.7925   22.1629 C   0  0  0  0  0  0
  -19.1512  -28.8834   23.2917 C   0  0  0  0  0  0
  -18.9441  -30.1441   23.8929 C   0  0  0  0  0  0
  -17.6446  -30.6590   24.0574 C   0  0  0  0  0  0
  -25.9019  -34.9485   23.5141 C   0  0  0  0  0  0
  -16.5338  -29.9096   23.6324 C   0  0  0  0  0  0
  -16.7252  -28.6506   23.0354 C   0  0  0  0  0  0
  -26.4452  -31.6601   25.0720 C   0  0  0  0  0  0
  -25.3742  -31.3663   26.1474 C   0  0  0  0  0  0
  -27.0302  -30.3070   24.6052 C   0  0  0  0  0  0
  -27.6031  -32.4314   25.7484 C   0  0  0  0  0  0
  -27.5581  -37.1814   24.8467 C   0  0  0  0  0  0
  -21.4108  -29.3036   22.3746 N   0  0  0  0  0  0
  -26.4292  -37.3800   23.9414 N   0  0  0  0  0  0
  -24.6595  -31.0844   22.0992 N   0  0  0  0  0  0
  -23.4156  -28.8230   23.3052 O   0  0  0  0  0  0
  -28.3915  -26.6882   20.0131 O   0  0  0  0  0  0
  -26.5592  -34.8931   22.4707 O   0  0  0  0  0  0
  -23.5294  -32.1428   23.7540 O   0  0  0  0  0  0
  -30.6215  -18.4764   23.2735 C   0  0  0  0  0  0
  -30.2436  -18.8446   20.9006 C   0  0  0  0  0  0
  -30.3699  -16.5606   21.7799 C   0  0  0  0  0  0
  -30.4414  -19.3741   22.2006 C   0  0  0  0  0  0
  -30.5739  -17.0841   23.0710 C   0  0  0  0  0  0
  -30.1973  -17.4495   20.6915 C   0  0  0  0  0  0
  -29.7093  -24.2078   21.1887 C   0  0  0  0  0  0
  -29.4060  -25.5356   21.9136 C   0  0  0  0  0  0
  -29.9382  -23.0388   22.1683 C   0  0  0  0  0  0
  -29.4193  -26.7769   21.0021 C   0  0  0  0  0  0
  -30.1427  -21.6723   21.4901 C   0  0  0  0  0  0
  -30.2334  -15.1558   21.6412 N   0  0  0  0  0  0
  -30.4517  -20.7210   22.5067 O   0  0  0  0  0  0
  -30.7095  -16.2451   24.1278 F   0  0  0  0  0  0
  -29.9278  -16.9774   19.4491 F   0  0  0  0  0  0
  -31.4678  -12.4031   19.0921 H   0  0  0  0  0  0
  -30.3320  -11.2640   19.7546 H   0  0  0  0  0  0
  -29.7204  -11.8288   17.3923 H   0  0  0  0  0  0
  -29.6576  -13.5279   17.7908 H   0  0  0  0  0  0
  -27.8156  -11.3249   18.7834 H   0  0  0  0  0  0
  -27.3600  -12.6828   17.7888 H   0  0  0  0  0  0
  -27.7349  -14.2553   19.6227 H   0  0  0  0  0  0
  -28.6698  -11.8726   21.2921 H   0  0  0  0  0  0
  -28.4480  -13.4770   21.8985 H   0  0  0  0  0  0
  -25.2748   -9.5693   22.4764 H   0  0  0  0  0  0
  -23.9994   -7.4639   22.7477 H   0  0  0  0  0  0
  -21.0839   -8.8762   19.8951 H   0  0  0  0  0  0
  -22.3673  -10.9674   19.6168 H   0  0  0  0  0  0
  -21.2011   -7.6148   23.9716 H   0  0  0  0  0  0
  -21.1487   -6.0527   25.9084 H   0  0  0  0  0  0
  -22.0600   -2.7610   23.2856 H   0  0  0  0  0  0
  -22.4130  -11.9884   22.4775 H   0  0  0  0  0  0
  -21.1146  -13.1268   22.2611 H   0  0  0  0  0  0
  -24.6746  -15.8473   20.5155 H   0  0  0  0  0  0
  -26.2977  -15.6219   20.1001 H   0  0  0  0  0  0
  -26.7085  -32.5582   23.1205 H   0  0  0  0  0  0
  -24.9993  -33.9801   25.0468 H   0  0  0  0  0  0
  -22.6838  -31.3068   21.4087 H   0  0  0  0  0  0
  -23.3732  -35.9674   23.3303 H   0  0  0  0  0  0
  -24.3572  -36.8952   22.2059 H   0  0  0  0  0  0
  -23.7241  -37.6544   23.6660 H   0  0  0  0  0  0
  -26.0156  -31.6109   20.5802 H   0  0  0  0  0  0
  -26.8110  -30.9172   21.9659 H   0  0  0  0  0  0
  -28.0860  -29.2049   21.1401 H   0  0  0  0  0  0
  -26.1163  -25.9891   19.0277 H   0  0  0  0  0  0
  -24.0002  -27.2759   19.0483 H   0  0  0  0  0  0
  -23.7104  -30.5885   19.4040 H   0  0  0  0  0  0
  -22.7326  -29.2309   19.8750 H   0  0  0  0  0  0
  -25.1270  -36.1994   25.0834 H   0  0  0  0  0  0
  -20.9943  -28.3232   24.1456 H   0  0  0  0  0  0
  -20.5653  -26.2272   23.3606 H   0  0  0  0  0  0
  -21.6621  -26.7452   22.1227 H   0  0  0  0  0  0
  -19.6894  -25.6309   21.1230 H   0  0  0  0  0  0
  -19.6665  -27.3210   20.6752 H   0  0  0  0  0  0
  -17.4180  -26.6683   21.4028 H   0  0  0  0  0  0
  -18.0314  -26.0058   22.9020 H   0  0  0  0  0  0
  -19.7917  -30.7245   24.2317 H   0  0  0  0  0  0
  -17.5006  -31.6274   24.5174 H   0  0  0  0  0  0
  -15.5342  -30.3015   23.7625 H   0  0  0  0  0  0
  -15.8650  -28.0834   22.7057 H   0  0  0  0  0  0
  -24.5934  -30.6985   25.7813 H   0  0  0  0  0  0
  -24.8900  -32.2793   26.4952 H   0  0  0  0  0  0
  -25.8122  -30.8829   27.0217 H   0  0  0  0  0  0
  -26.2838  -29.6819   24.1139 H   0  0  0  0  0  0
  -27.4147  -29.7311   25.4481 H   0  0  0  0  0  0
  -27.8626  -30.4434   23.9146 H   0  0  0  0  0  0
  -27.2655  -33.3606   26.2089 H   0  0  0  0  0  0
  -28.3826  -32.6882   25.0300 H   0  0  0  0  0  0
  -28.0712  -31.8419   26.5377 H   0  0  0  0  0  0
  -28.2597  -38.0116   24.7528 H   0  0  0  0  0  0
  -28.1082  -36.2647   24.6277 H   0  0  0  0  0  0
  -27.2304  -37.1452   25.8872 H   0  0  0  0  0  0
  -20.9255  -29.8758   21.6974 H   0  0  0  0  0  0
  -26.0187  -38.2882   24.1410 H   0  0  0  0  0  0
  -30.7761  -18.8572   24.2723 H   0  0  0  0  0  0
  -30.0996  -19.4883   20.0462 H   0  0  0  0  0  0
  -30.5961  -24.3265   20.5646 H   0  0  0  0  0  0
  -28.8868  -23.9717   20.5121 H   0  0  0  0  0  0
  -30.1530  -25.6859   22.6946 H   0  0  0  0  0  0
  -28.4449  -25.4698   22.4263 H   0  0  0  0  0  0
  -29.0913  -22.9656   22.8516 H   0  0  0  0  0  0
  -30.8087  -23.2604   22.7871 H   0  0  0  0  0  0
  -30.3777  -26.8413   20.4865 H   0  0  0  0  0  0
  -29.3663  -27.6622   21.6304 H   0  0  0  0  0  0
  -30.9602  -21.7203   20.7690 H   0  0  0  0  0  0
  -29.2320  -21.3960   20.9559 H   0  0  0  0  0  0
  -29.5798  -14.7139   22.2678 H   0  0  0  0  0  0
  1 25  1  0  0  0
  1 30  2  0  0  0
  1 82  1  0  0  0
  2  3  1  0  0  0
  2 25  1  0  0  0
  2 86  1  0  0  0
  2 87  1  0  0  0
  3  4  1  0  0  0
  3 88  1  0  0  0
  3 89  1  0  0  0
  4  5  1  0  0  0
  4 90  1  0  0  0
  4 91  1  0  0  0
  5  6  1  0  0  0
  5 26  1  0  0  0
  5 92  1  0  0  0
  6 25  1  0  0  0
  6 93  1  0  0  0
  6 94  1  0  0  0
  7  8  2  0  0  0
  7 26  1  0  0  0
  7 29  1  0  0  0
  8  9  1  0  0  0
  8 22  1  0  0  0
  9 10  1  0  0  0
  9 27  2  0  0  0
 10 11  2  0  0  0
 10 15  1  0  0  0
 11 12  1  0  0  0
 11 95  1  0  0  0
 12 13  2  0  0  0
 12 96  1  0  0  0
 13 14  1  0  0  0
 13 31  1  0  0  0
 14 15  2  0  0  0
 14 97  1  0  0  0
 15 98  1  0  0  0
 16 17  2  0  0  0
 16 21  1  0  0  0
 16 31  1  0  0  0
 17 18  1  0  0  0
 17 99  1  0  0  0
 18 19  2  0  0  0
 18100  1  0  0  0
 19 20  1  0  0  0
 19 24  1  0  0  0
 20 21  2  0  0  0
 20101  1  0  0  0
 21 23  1  0  0  0
 22 28  1  0  0  0
 22 32  2  0  0  0
 26 27  1  0  0  0
 28102  1  0  0  0
 28103  1  0  0  0
 29104  1  0  0  0
 29105  1  0  0  0
 33 34  1  0  0  0
 33 66  1  0  0  0
 33 70  2  0  0  0
 34 36  1  0  0  0
 34 59  1  0  0  0
 34106  1  0  0  0
 35 44  2  0  0  0
 35 45  1  0  0  0
 35 68  1  0  0  0
 36 56  1  0  0  0
 36107  1  0  0  0
 37 39  1  0  0  0
 37 47  1  0  0  0
 37 66  1  0  0  0
 37108  1  0  0  0
 38 43  2  0  0  0
 38 46  1  0  0  0
 38 47  1  0  0  0
 39 64  1  0  0  0
 39 67  2  0  0  0
 40 52  1  0  0  0
 40 53  2  0  0  0
 40 58  1  0  0  0
 41109  1  0  0  0
 41110  1  0  0  0
 41111  1  0  0  0
 41 48  1  0  0  0
 42 43  1  0  0  0
 42 66  1  0  0  0
 42112  1  0  0  0
 42113  1  0  0  0
 43 44  1  0  0  0
 44114  1  0  0  0
 45 46  2  0  0  0
 45115  1  0  0  0
 46116  1  0  0  0
 47117  1  0  0  0
 47118  1  0  0  0
 48 56  1  0  0  0
 48 65  1  0  0  0
 48119  1  0  0  0
 49 50  1  0  0  0
 49 53  1  0  0  0
 49 64  1  0  0  0
 49120  1  0  0  0
 50 51  1  0  0  0
 50121  1  0  0  0
 50122  1  0  0  0
 51 52  1  0  0  0
 51123  1  0  0  0
 51124  1  0  0  0
 52125  1  0  0  0
 52126  1  0  0  0
 53 54  1  0  0  0
 54 55  2  0  0  0
 54127  1  0  0  0
 55 57  1  0  0  0
 55128  1  0  0  0
 56 69  2  0  0  0
 57 58  2  0  0  0
 57129  1  0  0  0
 58130  1  0  0  0
 59 60  1  0  0  0
 59 61  1  0  0  0
 59 62  1  0  0  0
 60131  1  0  0  0
 60132  1  0  0  0
 60133  1  0  0  0
 61134  1  0  0  0
 61135  1  0  0  0
 61136  1  0  0  0
 62137  1  0  0  0
 62138  1  0  0  0
 62139  1  0  0  0
 63 65  1  0  0  0
 63140  1  0  0  0
 63141  1  0  0  0
 63142  1  0  0  0
 64143  1  0  0  0
 65144  1  0  0  0
 68 80  1  0  0  0
 71 74  2  0  0  0
 71 75  1  0  0  0
 71145  1  0  0  0
 72 74  1  0  0  0
 72 76  2  0  0  0
 72146  1  0  0  0
 73 75  2  0  0  0
 73 76  1  0  0  0
 73 82  1  0  0  0
 74 83  1  0  0  0
 75 84  1  0  0  0
 76 85  1  0  0  0
 77 78  1  0  0  0
 77 79  1  0  0  0
 77147  1  0  0  0
 77148  1  0  0  0
 78 80  1  0  0  0
 78149  1  0  0  0
 78150  1  0  0  0
 79 81  1  0  0  0
 79151  1  0  0  0
 79152  1  0  0  0
 80153  1  0  0  0
 80154  1  0  0  0
 81 83  1  0  0  0
 81155  1  0  0  0
 81156  1  0  0  0
 82157  1  0  0  0
M  ISO  4   1 100  68 101  80 101  82 100
M  END
> <chiral flag>
0

> <version>
0

> <s_m_source_file>
/data/baiqing/PycharmProjects/Reinvent-master-3.2/result/LINK_invent/BTK/process_docking_weight1_custom_sum_contain_oxygen_bond_distance_aromatic_linkinvent_7_9_3/rearranged_h_0015.sdf

> <i_m_source_file_index>
32

> <r_mmod_Potential_Energy-OPLS-2005>
-115.989768981934

> <r_mmod_Stretch_Energy-OPLS-2005>
33.5164909362793

> <r_mmod_Bend_Energy-OPLS-2005>
106.313362121582

> <r_mmod_Torsional_Energy-OPLS-2005>
224.267379760742

> <r_mmod_Improper_Torsional_Energy-OPLS-2005>
2.95146203041077

> <r_mmod_Van_der_Waal_Energy-OPLS-2005>
157.483627319336

> <r_mmod_Electrostatic_Energy-OPLS-2005>
-444.542449951172

> <r_mmod_Solvation_Energy-OPLS-2005>
-202.027526855469

> <b_mmod_Minimization_Converged-OPLS-2005>
0

> <r_mmod_RMS_Derivative-OPLS-2005>
0.911041140556335

$$$$
33
                    3D
 Structure written by MMmdl.
158166  0  0  1  0            999 V2000
  -30.5247  -14.9535   20.3408 C   0  0  0  0  0  0
  -30.4369  -12.5729   19.4700 C   0  0  0  0  0  0
  -29.5038  -12.4359   18.2434 C   0  0  0  0  0  0
  -28.0336  -12.2787   18.6766 C   0  0  0  0  0  0
  -27.6209  -13.2330   19.8286 C   0  0  2  0  0  0
  -28.6762  -13.2928   20.9494 C   0  0  0  0  0  0
  -25.2473  -13.8189   20.5749 C   0  0  0  0  0  0
  -24.1772  -13.0437   20.9250 C   0  0  0  0  0  0
  -24.6362  -11.6912   20.8802 C   0  0  0  0  0  0
  -23.9045  -10.4291   21.0439 C   0  0  0  0  0  0
  -24.3604   -9.4201   21.9195 C   0  0  0  0  0  0
  -23.6296   -8.2228   22.0734 C   0  0  0  0  0  0
  -22.4278   -8.0272   21.3517 C   0  0  0  0  0  0
  -21.9909   -9.0253   20.4625 C   0  0  0  0  0  0
  -22.7233  -10.2139   20.3068 C   0  0  0  0  0  0
  -21.6873   -6.0735   22.5272 C   0  0  0  0  0  0
  -21.4025   -6.5631   23.8209 C   0  0  0  0  0  0
  -21.3655   -5.6778   24.9167 C   0  0  0  0  0  0
  -21.6040   -4.3044   24.7225 C   0  0  0  0  0  0
  -21.8815   -3.8140   23.4349 C   0  0  0  0  0  0
  -21.9197   -4.6956   22.3403 C   0  0  0  0  0  0
  -22.7800  -13.5231   21.1881 C   0  0  0  0  0  0
  -22.1669   -4.2134   21.0990 F   0  0  0  0  0  0
  -21.5625   -3.4531   25.7747 F   0  0  0  0  0  0
  -29.9341  -13.6930   20.3098 N   0  0  0  0  0  0
  -26.2862  -12.9372   20.3301 N   0  0  0  0  0  0
  -25.9288  -11.6521   20.5822 N   0  0  0  0  0  0
  -22.0434  -12.8226   22.0430 N   0  0  0  0  0  0
  -25.4159  -15.1920   20.4160 N   0  0  0  0  0  0
  -31.7594  -14.9884   20.2810 O   0  0  0  0  0  0
  -21.6635   -6.8875   21.4231 O   0  0  0  0  0  0
  -22.3487  -14.5547   20.6743 O   0  0  0  0  0  0
  -24.6437  -31.8431   23.1865 C   0  0  0  0  0  0
  -25.9210  -32.4692   23.8252 C   0  0  1  0  0  0
  -27.2081  -27.1527   20.1536 C   0  0  0  0  0  0
  -25.5953  -33.8490   24.2192 N   0  0  0  0  0  0
  -23.4437  -30.4651   21.5323 C   0  0  2  0  0  0
  -24.8892  -28.8858   20.1139 C   0  0  0  0  0  0
  -22.7567  -29.4562   22.4857 C   0  0  0  0  0  0
  -18.0314  -28.1405   22.8484 C   0  0  0  0  0  0
  -24.1479  -36.7258   23.2641 C   0  0  0  0  0  0
  -25.9980  -30.7237   21.3786 C   0  0  0  0  0  0
  -26.0672  -29.3349   20.7266 C   0  0  0  0  0  0
  -27.2320  -28.4857   20.7235 C   0  0  0  0  0  0
  -26.0084  -26.7920   19.5103 C   0  0  0  0  0  0
  -24.8717  -27.6295   19.4891 C   0  0  0  0  0  0
  -23.6668  -29.7891   20.1531 C   0  0  0  0  0  0
  -25.4109  -36.3038   24.0328 C   0  0  1  0  0  0
  -20.5929  -28.3718   23.1230 C   0  0  2  0  0  0
  -20.6791  -26.9422   22.5396 C   0  0  0  0  0  0
  -19.5757  -26.6382   21.5215 C   0  0  0  0  0  0
  -18.1945  -26.7942   22.1627 C   0  0  0  0  0  0
  -19.1575  -28.8883   23.2844 C   0  0  0  0  0  0
  -18.9477  -30.1477   23.8874 C   0  0  0  0  0  0
  -17.6472  -30.6589   24.0580 C   0  0  0  0  0  0
  -25.9056  -34.9406   23.5072 C   0  0  0  0  0  0
  -16.5365  -29.9088   23.6354 C   0  0  0  0  0  0
  -16.7295  -28.6514   23.0362 C   0  0  0  0  0  0
  -26.4528  -31.6559   25.0699 C   0  0  0  0  0  0
  -25.3725  -31.3753   26.1414 C   0  0  0  0  0  0
  -27.0384  -30.2952   24.6267 C   0  0  0  0  0  0
  -27.6055  -32.4331   25.7488 C   0  0  0  0  0  0
  -27.5575  -37.1795   24.8472 C   0  0  0  0  0  0
  -21.4264  -29.3040   22.3600 N   0  0  0  0  0  0
  -26.4275  -37.3757   23.9421 N   0  0  0  0  0  0
  -24.7154  -31.0320   22.0881 N   0  0  0  0  0  0
  -23.4225  -28.8125   23.3007 O   0  0  0  0  0  0
  -28.2712  -26.1921   20.1619 O   0  0  0  0  0  0
  -26.5633  -34.8914   22.4643 O   0  0  0  0  0  0
  -23.5562  -32.1271   23.7111 O   0  0  0  0  0  0
  -30.3926  -18.4048   20.9745 C   0  0  0  0  0  0
  -28.2610  -19.7169   19.7582 C   0  0  0  0  0  0
  -30.1767  -19.8427   21.1313 C   0  0  0  0  0  0
  -29.5541  -17.5367   20.1974 C   0  0  0  0  0  0
  -29.1090  -20.5936   20.5036 C   0  0  0  0  0  0
  -28.4541  -18.2852   19.6349 C   0  0  0  0  0  0
  -31.1613  -20.5939   22.0119 C   0  0  0  0  0  0
  -27.7234  -22.9698   18.6793 C   0  0  0  0  0  0
  -29.6590  -15.9131   18.3487 C   0  0  0  0  0  0
  -28.0465  -24.7237   20.6017 C   0  0  0  0  0  0
  -28.6068  -23.3057   19.8912 C   0  0  2  0  0  0
  -28.8611  -22.0387   20.7618 N   0  0  0  0  0  0
  -29.7846  -16.0590   19.8169 N   0  0  0  0  0  0
  -27.5124  -17.6098   18.9283 F   0  0  0  0  0  0
  -31.4628  -12.7412   19.1353 H   0  0  0  0  0  0
  -30.4482  -11.6462   20.0442 H   0  0  0  0  0  0
  -29.8025  -11.5747   17.6436 H   0  0  0  0  0  0
  -29.5977  -13.2907   17.5800 H   0  0  0  0  0  0
  -27.9056  -11.2451   18.9977 H   0  0  0  0  0  0
  -27.3659  -12.4076   17.8231 H   0  0  0  0  0  0
  -27.5638  -14.2243   19.3862 H   0  0  0  0  0  0
  -28.7761  -12.3317   21.4571 H   0  0  0  0  0  0
  -28.3837  -14.0258   21.7036 H   0  0  0  0  0  0
  -25.2732   -9.5714   22.4783 H   0  0  0  0  0  0
  -24.0008   -7.4631   22.7470 H   0  0  0  0  0  0
  -21.0822   -8.8801   19.8951 H   0  0  0  0  0  0
  -22.3682  -10.9694   19.6200 H   0  0  0  0  0  0
  -21.2028   -7.6137   23.9725 H   0  0  0  0  0  0
  -21.1473   -6.0500   25.9073 H   0  0  0  0  0  0
  -22.0598   -2.7605   23.2861 H   0  0  0  0  0  0
  -22.4064  -11.9913   22.4856 H   0  0  0  0  0  0
  -21.1058  -13.1265   22.2623 H   0  0  0  0  0  0
  -24.6446  -15.8406   20.5269 H   0  0  0  0  0  0
  -26.2578  -15.6347   20.0679 H   0  0  0  0  0  0
  -26.7290  -32.5284   23.0986 H   0  0  0  0  0  0
  -25.0116  -33.9594   25.0353 H   0  0  0  0  0  0
  -22.7475  -31.2910   21.3777 H   0  0  0  0  0  0
  -23.3739  -35.9591   23.3285 H   0  0  0  0  0  0
  -24.3569  -36.8899   22.2062 H   0  0  0  0  0  0
  -23.7239  -37.6454   23.6668 H   0  0  0  0  0  0
  -26.1502  -31.4725   20.6014 H   0  0  0  0  0  0
  -26.8703  -30.7746   22.0196 H   0  0  0  0  0  0
  -28.1356  -28.8282   21.2087 H   0  0  0  0  0  0
  -25.9361  -25.8264   19.0298 H   0  0  0  0  0  0
  -23.9736  -27.2845   18.9961 H   0  0  0  0  0  0
  -23.8060  -30.5552   19.3901 H   0  0  0  0  0  0
  -22.7808  -29.2292   19.8461 H   0  0  0  0  0  0
  -25.1308  -36.1861   25.0825 H   0  0  0  0  0  0
  -21.0028  -28.3304   24.1347 H   0  0  0  0  0  0
  -20.5690  -26.2348   23.3612 H   0  0  0  0  0  0
  -21.6663  -26.7440   22.1202 H   0  0  0  0  0  0
  -19.6912  -25.6286   21.1262 H   0  0  0  0  0  0
  -19.6690  -27.3178   20.6732 H   0  0  0  0  0  0
  -17.4224  -26.6695   21.4016 H   0  0  0  0  0  0
  -18.0335  -26.0072   22.9018 H   0  0  0  0  0  0
  -19.7943  -30.7313   24.2221 H   0  0  0  0  0  0
  -17.5021  -31.6272   24.5173 H   0  0  0  0  0  0
  -15.5363  -30.2993   23.7668 H   0  0  0  0  0  0
  -15.8698  -28.0832   22.7084 H   0  0  0  0  0  0
  -24.5898  -30.7105   25.7755 H   0  0  0  0  0  0
  -24.8919  -32.2938   26.4792 H   0  0  0  0  0  0
  -25.8026  -30.8972   27.0224 H   0  0  0  0  0  0
  -26.2991  -29.6674   24.1284 H   0  0  0  0  0  0
  -27.4008  -29.7276   25.4845 H   0  0  0  0  0  0
  -27.8900  -30.4189   23.9569 H   0  0  0  0  0  0
  -27.2634  -33.3646   26.2002 H   0  0  0  0  0  0
  -28.3886  -32.6863   25.0336 H   0  0  0  0  0  0
  -28.0682  -31.8495   26.5453 H   0  0  0  0  0  0
  -28.2611  -38.0081   24.7525 H   0  0  0  0  0  0
  -28.1064  -36.2625   24.6288 H   0  0  0  0  0  0
  -27.2305  -37.1445   25.8878 H   0  0  0  0  0  0
  -20.9466  -29.8770   21.6799 H   0  0  0  0  0  0
  -26.0140  -38.2824   24.1417 H   0  0  0  0  0  0
  -31.2549  -17.9652   21.4527 H   0  0  0  0  0  0
  -27.3850  -20.1322   19.2852 H   0  0  0  0  0  0
  -31.7310  -19.9132   22.6471 H   0  0  0  0  0  0
  -30.6464  -21.2967   22.6678 H   0  0  0  0  0  0
  -31.8644  -21.1526   21.3934 H   0  0  0  0  0  0
  -27.6288  -23.8320   18.0169 H   0  0  0  0  0  0
  -26.7154  -22.6844   18.9855 H   0  0  0  0  0  0
  -28.1427  -22.1596   18.0830 H   0  0  0  0  0  0
  -29.7843  -16.8649   17.8297 H   0  0  0  0  0  0
  -28.6844  -15.5246   18.0590 H   0  0  0  0  0  0
  -30.4220  -15.2698   17.9065 H   0  0  0  0  0  0
  -28.4527  -24.7187   21.6124 H   0  0  0  0  0  0
  -26.9778  -24.5817   20.7661 H   0  0  0  0  0  0
  -29.5941  -23.5596   19.5056 H   0  0  0  0  0  0
  -29.3193  -22.3301   21.6193 H   0  0  0  0  0  0
  1 25  1  0  0  0
  1 30  2  0  0  0
  1 83  1  0  0  0
  2  3  1  0  0  0
  2 25  1  0  0  0
  2 85  1  0  0  0
  2 86  1  0  0  0
  3  4  1  0  0  0
  3 87  1  0  0  0
  3 88  1  0  0  0
  4  5  1  0  0  0
  4 89  1  0  0  0
  4 90  1  0  0  0
  5  6  1  0  0  0
  5 26  1  0  0  0
  5 91  1  0  0  0
  6 25  1  0  0  0
  6 92  1  0  0  0
  6 93  1  0  0  0
  7  8  2  0  0  0
  7 26  1  0  0  0
  7 29  1  0  0  0
  8  9  1  0  0  0
  8 22  1  0  0  0
  9 10  1  0  0  0
  9 27  2  0  0  0
 10 11  2  0  0  0
 10 15  1  0  0  0
 11 12  1  0  0  0
 11 94  1  0  0  0
 12 13  2  0  0  0
 12 95  1  0  0  0
 13 14  1  0  0  0
 13 31  1  0  0  0
 14 15  2  0  0  0
 14 96  1  0  0  0
 15 97  1  0  0  0
 16 17  2  0  0  0
 16 21  1  0  0  0
 16 31  1  0  0  0
 17 18  1  0  0  0
 17 98  1  0  0  0
 18 19  2  0  0  0
 18 99  1  0  0  0
 19 20  1  0  0  0
 19 24  1  0  0  0
 20 21  2  0  0  0
 20100  1  0  0  0
 21 23  1  0  0  0
 22 28  1  0  0  0
 22 32  2  0  0  0
 26 27  1  0  0  0
 28101  1  0  0  0
 28102  1  0  0  0
 29103  1  0  0  0
 29104  1  0  0  0
 33 34  1  0  0  0
 33 66  1  0  0  0
 33 70  2  0  0  0
 34 36  1  0  0  0
 34 59  1  0  0  0
 34105  1  0  0  0
 35 44  2  0  0  0
 35 45  1  0  0  0
 35 68  1  0  0  0
 36 56  1  0  0  0
 36106  1  0  0  0
 37 39  1  0  0  0
 37 47  1  0  0  0
 37 66  1  0  0  0
 37107  1  0  0  0
 38 43  2  0  0  0
 38 46  1  0  0  0
 38 47  1  0  0  0
 39 64  1  0  0  0
 39 67  2  0  0  0
 40 52  1  0  0  0
 40 53  2  0  0  0
 40 58  1  0  0  0
 41108  1  0  0  0
 41109  1  0  0  0
 41110  1  0  0  0
 41 48  1  0  0  0
 42 43  1  0  0  0
 42 66  1  0  0  0
 42111  1  0  0  0
 42112  1  0  0  0
 43 44  1  0  0  0
 44113  1  0  0  0
 45 46  2  0  0  0
 45114  1  0  0  0
 46115  1  0  0  0
 47116  1  0  0  0
 47117  1  0  0  0
 48 56  1  0  0  0
 48 65  1  0  0  0
 48118  1  0  0  0
 49 50  1  0  0  0
 49 53  1  0  0  0
 49 64  1  0  0  0
 49119  1  0  0  0
 50 51  1  0  0  0
 50120  1  0  0  0
 50121  1  0  0  0
 51 52  1  0  0  0
 51122  1  0  0  0
 51123  1  0  0  0
 52124  1  0  0  0
 52125  1  0  0  0
 53 54  1  0  0  0
 54 55  2  0  0  0
 54126  1  0  0  0
 55 57  1  0  0  0
 55127  1  0  0  0
 56 69  2  0  0  0
 57 58  2  0  0  0
 57128  1  0  0  0
 58129  1  0  0  0
 59 60  1  0  0  0
 59 61  1  0  0  0
 59 62  1  0  0  0
 60130  1  0  0  0
 60131  1  0  0  0
 60132  1  0  0  0
 61133  1  0  0  0
 61134  1  0  0  0
 61135  1  0  0  0
 62136  1  0  0  0
 62137  1  0  0  0
 62138  1  0  0  0
 63 65  1  0  0  0
 63139  1  0  0  0
 63140  1  0  0  0
 63141  1  0  0  0
 64142  1  0  0  0
 65143  1  0  0  0
 68 80  1  0  0  0
 71 73  2  0  0  0
 71 74  1  0  0  0
 71144  1  0  0  0
 72 75  2  0  0  0
 72 76  1  0  0  0
 72145  1  0  0  0
 73 75  1  0  0  0
 73 77  1  0  0  0
 74 76  2  0  0  0
 74 83  1  0  0  0
 75 82  1  0  0  0
 76 84  1  0  0  0
 77146  1  0  0  0
 77147  1  0  0  0
 77148  1  0  0  0
 78149  1  0  0  0
 78150  1  0  0  0
 78151  1  0  0  0
 78 81  1  0  0  0
 79 83  1  0  0  0
 79152  1  0  0  0
 79153  1  0  0  0
 79154  1  0  0  0
 80 81  1  0  0  0
 80155  1  0  0  0
 80156  1  0  0  0
 81 82  1  0  0  0
 81157  1  0  0  0
 82158  1  0  0  0
M  ISO  4   1 100  68 101  80 101  83 100
M  END
> <chiral flag>
0

> <version>
0

> <s_m_source_file>
/data/baiqing/PycharmProjects/Reinvent-master-3.2/result/LINK_invent/BTK/process_docking_weight1_custom_sum_contain_oxygen_bond_distance_aromatic_linkinvent_7_9_3/rearranged_h_0015.sdf

> <i_m_source_file_index>
33

> <r_mmod_Potential_Energy-OPLS-2005>
655.423278808594

> <r_mmod_Stretch_Energy-OPLS-2005>
220.420074462891

> <r_mmod_Bend_Energy-OPLS-2005>
280.170440673828

> <r_mmod_Torsional_Energy-OPLS-2005>
334.880218505859

> <r_mmod_Improper_Torsional_Energy-OPLS-2005>
28.2803764343262

> <r_mmod_Van_der_Waal_Energy-OPLS-2005>
137.873687744141

> <r_mmod_Electrostatic_Energy-OPLS-2005>
-351.090270996094

> <r_mmod_Solvation_Energy-OPLS-2005>
-190.207931518555

> <b_mmod_Minimization_Converged-OPLS-2005>
0

> <r_mmod_RMS_Derivative-OPLS-2005>
3.00745320320129

$$$$
34
                    3D
 Structure written by MMmdl.
158166  0  0  1  0            999 V2000
  -30.5890  -14.7260   20.5420 C   0  0  0  0  0  0
  -30.4537  -12.4602   19.4640 C   0  0  0  0  0  0
  -29.5152  -12.5441   18.2367 C   0  0  0  0  0  0
  -28.0402  -12.3614   18.6471 C   0  0  0  0  0  0
  -27.6575  -13.2253   19.8780 C   0  0  2  0  0  0
  -28.7059  -13.0747   21.0045 C   0  0  0  0  0  0
  -25.2488  -13.8130   20.5601 C   0  0  0  0  0  0
  -24.1792  -13.0385   20.9141 C   0  0  0  0  0  0
  -24.6413  -11.6881   20.8736 C   0  0  0  0  0  0
  -23.9082  -10.4267   21.0402 C   0  0  0  0  0  0
  -24.3626   -9.4185   21.9183 C   0  0  0  0  0  0
  -23.6293   -8.2228   22.0758 C   0  0  0  0  0  0
  -22.4276   -8.0270   21.3545 C   0  0  0  0  0  0
  -21.9916   -9.0242   20.4644 C   0  0  0  0  0  0
  -22.7254  -10.2115   20.3049 C   0  0  0  0  0  0
  -21.6850   -6.0729   22.5283 C   0  0  0  0  0  0
  -21.4016   -6.5634   23.8217 C   0  0  0  0  0  0
  -21.3660   -5.6788   24.9183 C   0  0  0  0  0  0
  -21.6048   -4.3050   24.7232 C   0  0  0  0  0  0
  -21.8818   -3.8139   23.4353 C   0  0  0  0  0  0
  -21.9190   -4.6957   22.3407 C   0  0  0  0  0  0
  -22.7818  -13.5181   21.1823 C   0  0  0  0  0  0
  -22.1652   -4.2141   21.0985 F   0  0  0  0  0  0
  -21.5637   -3.4533   25.7744 F   0  0  0  0  0  0
  -30.0167  -13.4715   20.4561 N   0  0  0  0  0  0
  -26.3011  -12.9373   20.3404 N   0  0  0  0  0  0
  -25.9366  -11.6512   20.5815 N   0  0  0  0  0  0
  -22.0478  -12.8183   22.0403 N   0  0  0  0  0  0
  -25.4014  -15.1825   20.3853 N   0  0  0  0  0  0
  -31.6875  -14.9486   20.0234 O   0  0  0  0  0  0
  -21.6634   -6.8873   21.4244 O   0  0  0  0  0  0
  -22.3485  -14.5488   20.6690 O   0  0  0  0  0  0
  -24.6323  -31.8543   23.1976 C   0  0  0  0  0  0
  -25.9142  -32.4752   23.8323 C   0  0  1  0  0  0
  -27.2269  -27.2571   20.1261 C   0  0  0  0  0  0
  -25.5932  -33.8553   24.2242 N   0  0  0  0  0  0
  -23.4291  -30.4772   21.5417 C   0  0  2  0  0  0
  -24.8780  -28.9245   20.1121 C   0  0  0  0  0  0
  -22.7499  -29.4602   22.4909 C   0  0  0  0  0  0
  -18.0288  -28.1394   22.8482 C   0  0  0  0  0  0
  -24.1490  -36.7286   23.2639 C   0  0  0  0  0  0
  -25.9768  -30.7668   21.3783 C   0  0  0  0  0  0
  -26.0517  -29.3893   20.7191 C   0  0  0  0  0  0
  -27.2283  -28.5699   20.7125 C   0  0  0  0  0  0
  -26.0241  -26.8636   19.4927 C   0  0  0  0  0  0
  -24.8700  -27.6693   19.4888 C   0  0  0  0  0  0
  -23.6484  -29.8111   20.1586 C   0  0  0  0  0  0
  -25.4117  -36.3066   24.0319 C   0  0  1  0  0  0
  -20.5891  -28.3708   23.1265 C   0  0  2  0  0  0
  -20.6775  -26.9424   22.5408 C   0  0  0  0  0  0
  -19.5751  -26.6387   21.5214 C   0  0  0  0  0  0
  -18.1929  -26.7936   22.1625 C   0  0  0  0  0  0
  -19.1541  -28.8868   23.2868 C   0  0  0  0  0  0
  -18.9467  -30.1470   23.8886 C   0  0  0  0  0  0
  -17.6465  -30.6596   24.0564 C   0  0  0  0  0  0
  -25.9059  -34.9437   23.5083 C   0  0  0  0  0  0
  -16.5355  -29.9094   23.6337 C   0  0  0  0  0  0
  -16.7275  -28.6512   23.0357 C   0  0  0  0  0  0
  -26.4505  -31.6583   25.0720 C   0  0  0  0  0  0
  -25.3720  -31.3738   26.1435 C   0  0  0  0  0  0
  -27.0361  -30.2996   24.6223 C   0  0  0  0  0  0
  -27.6047  -32.4335   25.7497 C   0  0  0  0  0  0
  -27.5581  -37.1794   24.8460 C   0  0  0  0  0  0
  -21.4205  -29.3054   22.3652 N   0  0  0  0  0  0
  -26.4289  -37.3768   23.9409 N   0  0  0  0  0  0
  -24.6985  -31.0498   22.0959 N   0  0  0  0  0  0
  -23.4194  -28.8137   23.3009 O   0  0  0  0  0  0
  -28.3239  -26.3571   20.1816 O   0  0  0  0  0  0
  -26.5636  -34.8912   22.4656 O   0  0  0  0  0  0
  -23.5472  -32.1370   23.7263 O   0  0  0  0  0  0
  -27.8243  -19.4644   21.2376 C   0  0  0  0  0  0
  -27.2968  -18.2529   21.7128 C   0  0  0  0  0  0
  -29.1375  -19.5830   20.7189 C   0  0  0  0  0  0
  -29.3498  -17.0347   21.1089 C   0  0  0  0  0  0
  -28.0558  -17.0744   21.6602 C   0  0  0  0  0  0
  -29.8985  -18.3104   20.6487 C   0  0  0  0  0  0
  -25.8997  -18.2253   22.3076 C   0  0  0  0  0  0
  -30.7533  -20.9727   19.4915 C   0  0  0  0  0  0
  -29.1510  -23.6993   20.3114 C   0  0  0  0  0  0
  -28.6313  -22.1555   20.2729 C   0  0  0  0  0  0
  -28.0550  -24.8759   20.0718 C   0  0  0  0  0  0
  -29.9033  -15.6641   21.2771 N   0  0  0  0  0  0
  -29.5700  -20.9412   20.3468 N   0  0  0  0  0  0
  -27.5333  -15.9350   22.1772 F   0  0  0  0  0  0
  -31.1710  -18.3077   20.1809 F   0  0  0  0  0  0
  -31.4894  -12.6145   19.1559 H   0  0  0  0  0  0
  -30.4234  -11.4619   19.9031 H   0  0  0  0  0  0
  -29.7928  -11.7931   17.4957 H   0  0  0  0  0  0
  -29.6398  -13.5129   17.7507 H   0  0  0  0  0  0
  -27.8885  -11.3061   18.8767 H   0  0  0  0  0  0
  -27.3822  -12.5887   17.8073 H   0  0  0  0  0  0
  -27.6730  -14.2644   19.5483 H   0  0  0  0  0  0
  -28.7428  -12.0402   21.3496 H   0  0  0  0  0  0
  -28.4269  -13.6563   21.8821 H   0  0  0  0  0  0
  -25.2768   -9.5658   22.4763 H   0  0  0  0  0  0
  -23.9993   -7.4618   22.7484 H   0  0  0  0  0  0
  -21.0846   -8.8767   19.8947 H   0  0  0  0  0  0
  -22.3716  -10.9657   19.6158 H   0  0  0  0  0  0
  -21.2008   -7.6141   23.9721 H   0  0  0  0  0  0
  -21.1487   -6.0519   25.9089 H   0  0  0  0  0  0
  -22.0598   -2.7598   23.2862 H   0  0  0  0  0  0
  -22.4097  -11.9841   22.4788 H   0  0  0  0  0  0
  -21.1102  -13.1217   22.2624 H   0  0  0  0  0  0
  -24.6375  -15.8294   20.5395 H   0  0  0  0  0  0
  -26.2884  -15.6380   20.2217 H   0  0  0  0  0  0
  -26.7210  -32.5397   23.1063 H   0  0  0  0  0  0
  -25.0057  -33.9689   25.0374 H   0  0  0  0  0  0
  -22.7261  -31.2999   21.3940 H   0  0  0  0  0  0
  -23.3754  -35.9615   23.3284 H   0  0  0  0  0  0
  -24.3581  -36.8936   22.2058 H   0  0  0  0  0  0
  -23.7241  -37.6476   23.6685 H   0  0  0  0  0  0
  -26.1153  -31.5272   20.6085 H   0  0  0  0  0  0
  -26.8539  -30.8156   22.0118 H   0  0  0  0  0  0
  -28.1261  -28.9226   21.2007 H   0  0  0  0  0  0
  -25.9356  -25.9071   19.0017 H   0  0  0  0  0  0
  -23.9716  -27.3061   19.0086 H   0  0  0  0  0  0
  -23.7724  -30.5873   19.4024 H   0  0  0  0  0  0
  -22.7669  -29.2446   19.8530 H   0  0  0  0  0  0
  -25.1299  -36.1906   25.0811 H   0  0  0  0  0  0
  -20.9981  -28.3293   24.1386 H   0  0  0  0  0  0
  -20.5678  -26.2317   23.3614 H   0  0  0  0  0  0
  -21.6643  -26.7444   22.1202 H   0  0  0  0  0  0
  -19.6910  -25.6296   21.1250 H   0  0  0  0  0  0
  -19.6689  -27.3191   20.6736 H   0  0  0  0  0  0
  -17.4196  -26.6682   21.4031 H   0  0  0  0  0  0
  -18.0332  -26.0082   22.9025 H   0  0  0  0  0  0
  -19.7942  -30.7292   24.2247 H   0  0  0  0  0  0
  -17.5020  -31.6274   24.5171 H   0  0  0  0  0  0
  -15.5358  -30.2997   23.7667 H   0  0  0  0  0  0
  -15.8673  -28.0832   22.7079 H   0  0  0  0  0  0
  -24.5902  -30.7079   25.7763 H   0  0  0  0  0  0
  -24.8906  -32.2912   26.4834 H   0  0  0  0  0  0
  -25.8035  -30.8935   27.0227 H   0  0  0  0  0  0
  -26.2959  -29.6731   24.1236 H   0  0  0  0  0  0
  -27.4024  -29.7270   25.4754 H   0  0  0  0  0  0
  -27.8838  -30.4260   23.9484 H   0  0  0  0  0  0
  -27.2647  -33.3647   26.2040 H   0  0  0  0  0  0
  -28.3879  -32.6881   25.0342 H   0  0  0  0  0  0
  -28.0692  -31.8483   26.5444 H   0  0  0  0  0  0
  -28.2578  -38.0112   24.7531 H   0  0  0  0  0  0
  -28.1101  -36.2641   24.6259 H   0  0  0  0  0  0
  -27.2299  -37.1407   25.8863 H   0  0  0  0  0  0
  -20.9389  -29.8792   21.6870 H   0  0  0  0  0  0
  -26.0162  -38.2833   24.1435 H   0  0  0  0  0  0
  -27.1655  -20.3113   21.3152 H   0  0  0  0  0  0
  -25.5897  -19.2142   22.6460 H   0  0  0  0  0  0
  -25.8541  -17.5549   23.1664 H   0  0  0  0  0  0
  -25.1798  -17.8788   21.5667 H   0  0  0  0  0  0
  -31.6472  -20.7122   20.0595 H   0  0  0  0  0  0
  -30.9225  -21.9577   19.0579 H   0  0  0  0  0  0
  -30.6578  -20.2721   18.6603 H   0  0  0  0  0  0
  -29.9355  -23.8390   19.5690 H   0  0  0  0  0  0
  -29.6284  -23.8703   21.2765 H   0  0  0  0  0  0
  -28.0228  -22.0290   19.3759 H   0  0  0  0  0  0
  -27.9369  -22.1135   21.1085 H   0  0  0  0  0  0
  -27.2212  -24.6617   20.7420 H   0  0  0  0  0  0
  -27.6803  -24.6980   19.0643 H   0  0  0  0  0  0
  -29.2424  -15.1514   21.8451 H   0  0  0  0  0  0
  1 25  1  0  0  0
  1 30  2  0  0  0
  1 82  1  0  0  0
  2  3  1  0  0  0
  2 25  1  0  0  0
  2 86  1  0  0  0
  2 87  1  0  0  0
  3  4  1  0  0  0
  3 88  1  0  0  0
  3 89  1  0  0  0
  4  5  1  0  0  0
  4 90  1  0  0  0
  4 91  1  0  0  0
  5  6  1  0  0  0
  5 26  1  0  0  0
  5 92  1  0  0  0
  6 25  1  0  0  0
  6 93  1  0  0  0
  6 94  1  0  0  0
  7  8  2  0  0  0
  7 26  1  0  0  0
  7 29  1  0  0  0
  8  9  1  0  0  0
  8 22  1  0  0  0
  9 10  1  0  0  0
  9 27  2  0  0  0
 10 11  2  0  0  0
 10 15  1  0  0  0
 11 12  1  0  0  0
 11 95  1  0  0  0
 12 13  2  0  0  0
 12 96  1  0  0  0
 13 14  1  0  0  0
 13 31  1  0  0  0
 14 15  2  0  0  0
 14 97  1  0  0  0
 15 98  1  0  0  0
 16 17  2  0  0  0
 16 21  1  0  0  0
 16 31  1  0  0  0
 17 18  1  0  0  0
 17 99  1  0  0  0
 18 19  2  0  0  0
 18100  1  0  0  0
 19 20  1  0  0  0
 19 24  1  0  0  0
 20 21  2  0  0  0
 20101  1  0  0  0
 21 23  1  0  0  0
 22 28  1  0  0  0
 22 32  2  0  0  0
 26 27  1  0  0  0
 28102  1  0  0  0
 28103  1  0  0  0
 29104  1  0  0  0
 29105  1  0  0  0
 33 34  1  0  0  0
 33 66  1  0  0  0
 33 70  2  0  0  0
 34 36  1  0  0  0
 34 59  1  0  0  0
 34106  1  0  0  0
 35 44  2  0  0  0
 35 45  1  0  0  0
 35 68  1  0  0  0
 36 56  1  0  0  0
 36107  1  0  0  0
 37 39  1  0  0  0
 37 47  1  0  0  0
 37 66  1  0  0  0
 37108  1  0  0  0
 38 43  2  0  0  0
 38 46  1  0  0  0
 38 47  1  0  0  0
 39 64  1  0  0  0
 39 67  2  0  0  0
 40 52  1  0  0  0
 40 53  2  0  0  0
 40 58  1  0  0  0
 41109  1  0  0  0
 41110  1  0  0  0
 41111  1  0  0  0
 41 48  1  0  0  0
 42 43  1  0  0  0
 42 66  1  0  0  0
 42112  1  0  0  0
 42113  1  0  0  0
 43 44  1  0  0  0
 44114  1  0  0  0
 45 46  2  0  0  0
 45115  1  0  0  0
 46116  1  0  0  0
 47117  1  0  0  0
 47118  1  0  0  0
 48 56  1  0  0  0
 48 65  1  0  0  0
 48119  1  0  0  0
 49 50  1  0  0  0
 49 53  1  0  0  0
 49 64  1  0  0  0
 49120  1  0  0  0
 50 51  1  0  0  0
 50121  1  0  0  0
 50122  1  0  0  0
 51 52  1  0  0  0
 51123  1  0  0  0
 51124  1  0  0  0
 52125  1  0  0  0
 52126  1  0  0  0
 53 54  1  0  0  0
 54 55  2  0  0  0
 54127  1  0  0  0
 55 57  1  0  0  0
 55128  1  0  0  0
 56 69  2  0  0  0
 57 58  2  0  0  0
 57129  1  0  0  0
 58130  1  0  0  0
 59 60  1  0  0  0
 59 61  1  0  0  0
 59 62  1  0  0  0
 60131  1  0  0  0
 60132  1  0  0  0
 60133  1  0  0  0
 61134  1  0  0  0
 61135  1  0  0  0
 61136  1  0  0  0
 62137  1  0  0  0
 62138  1  0  0  0
 62139  1  0  0  0
 63 65  1  0  0  0
 63140  1  0  0  0
 63141  1  0  0  0
 63142  1  0  0  0
 64143  1  0  0  0
 65144  1  0  0  0
 68 81  1  0  0  0
 71 72  2  0  0  0
 71 73  1  0  0  0
 71145  1  0  0  0
 72 75  1  0  0  0
 72 77  1  0  0  0
 73 76  2  0  0  0
 73 83  1  0  0  0
 74 75  2  0  0  0
 74 76  1  0  0  0
 74 82  1  0  0  0
 75 84  1  0  0  0
 76 85  1  0  0  0
 77146  1  0  0  0
 77147  1  0  0  0
 77148  1  0  0  0
 78 83  1  0  0  0
 78149  1  0  0  0
 78150  1  0  0  0
 78151  1  0  0  0
 79 80  1  0  0  0
 79 81  1  0  0  0
 79152  1  0  0  0
 79153  1  0  0  0
 80 83  1  0  0  0
 80154  1  0  0  0
 80155  1  0  0  0
 81156  1  0  0  0
 81157  1  0  0  0
 82158  1  0  0  0
M  ISO  4   1 100  68 101  81 101  82 100
M  END
> <chiral flag>
0

> <version>
0

> <s_m_source_file>
/data/baiqing/PycharmProjects/Reinvent-master-3.2/result/LINK_invent/BTK/process_docking_weight1_custom_sum_contain_oxygen_bond_distance_aromatic_linkinvent_7_9_3/rearranged_h_0015.sdf

> <i_m_source_file_index>
34

> <r_mmod_Potential_Energy-OPLS-2005>
231.93424987793

> <r_mmod_Stretch_Energy-OPLS-2005>
143.124404907227

> <r_mmod_Bend_Energy-OPLS-2005>
231.666091918945

> <r_mmod_Torsional_Energy-OPLS-2005>
215.685211181641

> <r_mmod_Improper_Torsional_Energy-OPLS-2005>
7.90558910369873

> <r_mmod_Van_der_Waal_Energy-OPLS-2005>
149.616607666016

> <r_mmod_Electrostatic_Energy-OPLS-2005>
-371.713256835938

> <r_mmod_Solvation_Energy-OPLS-2005>
-225.970474243164

> <b_mmod_Minimization_Converged-OPLS-2005>
0

> <r_mmod_RMS_Derivative-OPLS-2005>
0.908167064189911

$$$$
35
                    3D
 Structure written by MMmdl.
158166  0  0  1  0            999 V2000
  -30.7566  -14.4726   20.5107 C   0  0  0  0  0  0
  -30.4103  -12.2950   19.4193 C   0  0  0  0  0  0
  -29.4901  -12.4952   18.1981 C   0  0  0  0  0  0
  -28.0111  -12.3710   18.6117 C   0  0  0  0  0  0
  -27.6606  -13.2259   19.8591 C   0  0  2  0  0  0
  -28.7105  -13.0560   20.9814 C   0  0  0  0  0  0
  -25.2617  -13.8202   20.5700 C   0  0  0  0  0  0
  -24.1870  -13.0416   20.9126 C   0  0  0  0  0  0
  -24.6478  -11.6909   20.8687 C   0  0  0  0  0  0
  -23.9135  -10.4280   21.0379 C   0  0  0  0  0  0
  -24.3676   -9.4196   21.9167 C   0  0  0  0  0  0
  -23.6319   -8.2248   22.0772 C   0  0  0  0  0  0
  -22.4299   -8.0295   21.3567 C   0  0  0  0  0  0
  -21.9935   -9.0259   20.4666 C   0  0  0  0  0  0
  -22.7286  -10.2122   20.3053 C   0  0  0  0  0  0
  -21.6860   -6.0750   22.5289 C   0  0  0  0  0  0
  -21.3990   -6.5648   23.8216 C   0  0  0  0  0  0
  -21.3649   -5.6800   24.9172 C   0  0  0  0  0  0
  -21.6038   -4.3063   24.7227 C   0  0  0  0  0  0
  -21.8819   -3.8160   23.4349 C   0  0  0  0  0  0
  -21.9194   -4.6972   22.3410 C   0  0  0  0  0  0
  -22.7891  -13.5206   21.1763 C   0  0  0  0  0  0
  -22.1672   -4.2165   21.0989 F   0  0  0  0  0  0
  -21.5638   -3.4548   25.7740 F   0  0  0  0  0  0
  -30.0379  -13.3216   20.4080 N   0  0  0  0  0  0
  -26.3059  -12.9406   20.3305 N   0  0  0  0  0  0
  -25.9406  -11.6538   20.5710 N   0  0  0  0  0  0
  -22.0557  -12.8202   22.0365 N   0  0  0  0  0  0
  -25.4282  -15.1923   20.4209 N   0  0  0  0  0  0
  -31.9102  -14.5594   20.0872 O   0  0  0  0  0  0
  -21.6641   -6.8903   21.4267 O   0  0  0  0  0  0
  -22.3537  -14.5496   20.6605 O   0  0  0  0  0  0
  -24.6108  -31.8692   23.2150 C   0  0  0  0  0  0
  -25.8993  -32.4839   23.8423 C   0  0  1  0  0  0
  -27.2322  -27.4304   20.0892 C   0  0  0  0  0  0
  -25.5850  -33.8641   24.2353 N   0  0  0  0  0  0
  -23.3985  -30.5000   21.5531 C   0  0  2  0  0  0
  -24.8408  -28.9594   20.1186 C   0  0  0  0  0  0
  -22.7378  -29.4683   22.4944 C   0  0  0  0  0  0
  -18.0325  -28.1320   22.8521 C   0  0  0  0  0  0
  -24.1470  -36.7344   23.2650 C   0  0  0  0  0  0
  -25.9274  -30.8343   21.3645 C   0  0  0  0  0  0
  -26.0020  -29.4656   20.7157 C   0  0  0  0  0  0
  -27.1947  -28.7065   20.7022 C   0  0  0  0  0  0
  -26.0415  -26.9339   19.5020 C   0  0  0  0  0  0
  -24.8545  -27.6903   19.5178 C   0  0  0  0  0  0
  -23.6087  -29.8397   20.1647 C   0  0  0  0  0  0
  -25.4092  -36.3136   24.0360 C   0  0  1  0  0  0
  -20.5881  -28.3739   23.1328 C   0  0  2  0  0  0
  -20.6855  -26.9480   22.5439 C   0  0  0  0  0  0
  -19.5854  -26.6368   21.5263 C   0  0  0  0  0  0
  -18.2010  -26.7881   22.1645 C   0  0  0  0  0  0
  -19.1530  -28.8847   23.2920 C   0  0  0  0  0  0
  -18.9394  -30.1448   23.8937 C   0  0  0  0  0  0
  -17.6371  -30.6558   24.0498 C   0  0  0  0  0  0
  -25.9019  -34.9503   23.5155 C   0  0  0  0  0  0
  -16.5325  -29.9028   23.6166 C   0  0  0  0  0  0
  -16.7299  -28.6410   23.0285 C   0  0  0  0  0  0
  -26.4427  -31.6577   25.0708 C   0  0  0  0  0  0
  -25.3689  -31.3705   26.1456 C   0  0  0  0  0  0
  -27.0258  -30.3029   24.6027 C   0  0  0  0  0  0
  -27.6004  -32.4297   25.7451 C   0  0  0  0  0  0
  -27.5578  -37.1858   24.8480 C   0  0  0  0  0  0
  -21.4087  -29.3129   22.3728 N   0  0  0  0  0  0
  -26.4292  -37.3820   23.9419 N   0  0  0  0  0  0
  -24.6653  -31.0785   22.1057 N   0  0  0  0  0  0
  -23.4192  -28.8128   23.2885 O   0  0  0  0  0  0
  -28.4305  -26.7394   20.0816 O   0  0  0  0  0  0
  -26.5614  -34.8956   22.4741 O   0  0  0  0  0  0
  -23.5311  -32.1443   23.7563 O   0  0  0  0  0  0
  -28.9360  -18.3846   20.1530 C   0  0  0  0  0  0
  -29.5880  -20.4263   21.9722 C   0  0  0  0  0  0
  -29.9735  -18.1645   21.0826 C   0  0  0  0  0  0
  -28.5426  -20.6497   21.0493 C   0  0  0  0  0  0
  -30.2961  -19.2050   21.9877 C   0  0  0  0  0  0
  -28.2284  -19.6100   20.1273 C   0  0  0  0  0  0
  -26.4307  -21.7204   21.4987 C   0  0  0  0  0  0
  -30.8230  -16.8868   21.0295 C   0  0  0  0  0  0
  -28.1047  -24.3369   20.6269 C   0  0  0  0  0  0
  -28.1587  -22.8794   20.0954 C   0  0  0  0  0  0
  -28.5027  -25.3973   19.5712 C   0  0  0  0  0  0
  -30.1268  -15.5817   20.9448 N   0  0  0  0  0  0
  -27.8349  -21.8747   21.1192 N   0  0  0  0  0  0
  -31.3031  -19.0443   22.8797 F   0  0  0  0  0  0
  -26.9787  -19.7970   18.9433 Cl  0  0  0  0  0  0
  -31.4589  -12.3391   19.1146 H   0  0  0  0  0  0
  -30.2792  -11.3003   19.8456 H   0  0  0  0  0  0
  -29.7202  -11.7685   17.4186 H   0  0  0  0  0  0
  -29.6727  -13.4780   17.7605 H   0  0  0  0  0  0
  -27.8091  -11.3205   18.8111 H   0  0  0  0  0  0
  -27.3615  -12.6413   17.7787 H   0  0  0  0  0  0
  -27.6894  -14.2668   19.5348 H   0  0  0  0  0  0
  -28.6814  -12.0409   21.3780 H   0  0  0  0  0  0
  -28.4978  -13.7165   21.8231 H   0  0  0  0  0  0
  -25.2848   -9.5616   22.4711 H   0  0  0  0  0  0
  -23.9990   -7.4657   22.7537 H   0  0  0  0  0  0
  -21.0834   -8.8800   19.9025 H   0  0  0  0  0  0
  -22.3765  -10.9649   19.6158 H   0  0  0  0  0  0
  -21.1954   -7.6160   23.9700 H   0  0  0  0  0  0
  -21.1477   -6.0546   25.9071 H   0  0  0  0  0  0
  -22.0603   -2.7620   23.2850 H   0  0  0  0  0  0
  -22.4185  -11.9864   22.4724 H   0  0  0  0  0  0
  -21.1208  -13.1259   22.2670 H   0  0  0  0  0  0
  -24.6547  -15.8367   20.5436 H   0  0  0  0  0  0
  -26.2726  -15.6439   20.0919 H   0  0  0  0  0  0
  -26.7024  -32.5563   23.1172 H   0  0  0  0  0  0
  -24.9873  -33.9802   25.0407 H   0  0  0  0  0  0
  -22.6886  -31.3217   21.4231 H   0  0  0  0  0  0
  -23.3713  -35.9696   23.3341 H   0  0  0  0  0  0
  -24.3546  -36.8941   22.2055 H   0  0  0  0  0  0
  -23.7250  -37.6588   23.6617 H   0  0  0  0  0  0
  -26.0237  -31.5975   20.5904 H   0  0  0  0  0  0
  -26.8208  -30.8971   21.9748 H   0  0  0  0  0  0
  -28.0902  -29.0986   21.1653 H   0  0  0  0  0  0
  -25.9982  -25.9680   19.0222 H   0  0  0  0  0  0
  -23.9573  -27.2883   19.0725 H   0  0  0  0  0  0
  -23.7401  -30.6276   19.4225 H   0  0  0  0  0  0
  -22.7231  -29.2869   19.8443 H   0  0  0  0  0  0
  -25.1260  -36.2040   25.0857 H   0  0  0  0  0  0
  -20.9960  -28.3376   24.1445 H   0  0  0  0  0  0
  -20.5905  -26.2421   23.3699 H   0  0  0  0  0  0
  -21.6714  -26.7576   22.1187 H   0  0  0  0  0  0
  -19.7062  -25.6254   21.1354 H   0  0  0  0  0  0
  -19.6774  -27.3189   20.6795 H   0  0  0  0  0  0
  -17.4384  -26.6772   21.3926 H   0  0  0  0  0  0
  -18.0250  -25.9997   22.8960 H   0  0  0  0  0  0
  -19.7836  -30.7271   24.2345 H   0  0  0  0  0  0
  -17.4843  -31.6250   24.5070 H   0  0  0  0  0  0
  -15.5290  -30.2889   23.7288 H   0  0  0  0  0  0
  -15.8742  -28.0688   22.6895 H   0  0  0  0  0  0
  -24.5840  -30.7058   25.7803 H   0  0  0  0  0  0
  -24.8871  -32.2875   26.4860 H   0  0  0  0  0  0
  -25.8026  -30.8898   27.0226 H   0  0  0  0  0  0
  -26.2794  -29.6829   24.1021 H   0  0  0  0  0  0
  -27.4016  -29.7211   25.4449 H   0  0  0  0  0  0
  -27.8617  -30.4387   23.9157 H   0  0  0  0  0  0
  -27.2593  -33.3590   26.2027 H   0  0  0  0  0  0
  -28.3776  -32.6892   25.0239 H   0  0  0  0  0  0
  -28.0662  -31.8407   26.5367 H   0  0  0  0  0  0
  -28.2642  -38.0113   24.7463 H   0  0  0  0  0  0
  -28.1037  -36.2650   24.6353 H   0  0  0  0  0  0
  -27.2292  -37.1567   25.8890 H   0  0  0  0  0  0
  -20.9178  -29.9025   21.7157 H   0  0  0  0  0  0
  -26.0194  -38.2913   24.1409 H   0  0  0  0  0  0
  -28.6932  -17.6144   19.4363 H   0  0  0  0  0  0
  -29.8610  -21.1929   22.6845 H   0  0  0  0  0  0
  -26.2659  -20.8006   22.0623 H   0  0  0  0  0  0
  -25.7809  -21.6918   20.6227 H   0  0  0  0  0  0
  -26.1020  -22.5421   22.1330 H   0  0  0  0  0  0
  -31.5266  -16.8500   21.8643 H   0  0  0  0  0  0
  -31.4529  -17.0177   20.1439 H   0  0  0  0  0  0
  -28.7825  -24.4393   21.4761 H   0  0  0  0  0  0
  -27.1051  -24.5575   21.0001 H   0  0  0  0  0  0
  -29.1488  -22.6805   19.6755 H   0  0  0  0  0  0
  -27.4485  -22.7790   19.2692 H   0  0  0  0  0  0
  -27.9420  -25.2718   18.6459 H   0  0  0  0  0  0
  -29.5412  -25.2210   19.2838 H   0  0  0  0  0  0
  -29.1685  -15.5195   21.2508 H   0  0  0  0  0  0
  1 25  1  0  0  0
  1 30  2  0  0  0
  1 82  1  0  0  0
  2  3  1  0  0  0
  2 25  1  0  0  0
  2 86  1  0  0  0
  2 87  1  0  0  0
  3  4  1  0  0  0
  3 88  1  0  0  0
  3 89  1  0  0  0
  4  5  1  0  0  0
  4 90  1  0  0  0
  4 91  1  0  0  0
  5  6  1  0  0  0
  5 26  1  0  0  0
  5 92  1  0  0  0
  6 25  1  0  0  0
  6 93  1  0  0  0
  6 94  1  0  0  0
  7  8  2  0  0  0
  7 26  1  0  0  0
  7 29  1  0  0  0
  8  9  1  0  0  0
  8 22  1  0  0  0
  9 10  1  0  0  0
  9 27  2  0  0  0
 10 11  2  0  0  0
 10 15  1  0  0  0
 11 12  1  0  0  0
 11 95  1  0  0  0
 12 13  2  0  0  0
 12 96  1  0  0  0
 13 14  1  0  0  0
 13 31  1  0  0  0
 14 15  2  0  0  0
 14 97  1  0  0  0
 15 98  1  0  0  0
 16 17  2  0  0  0
 16 21  1  0  0  0
 16 31  1  0  0  0
 17 18  1  0  0  0
 17 99  1  0  0  0
 18 19  2  0  0  0
 18100  1  0  0  0
 19 20  1  0  0  0
 19 24  1  0  0  0
 20 21  2  0  0  0
 20101  1  0  0  0
 21 23  1  0  0  0
 22 28  1  0  0  0
 22 32  2  0  0  0
 26 27  1  0  0  0
 28102  1  0  0  0
 28103  1  0  0  0
 29104  1  0  0  0
 29105  1  0  0  0
 33 34  1  0  0  0
 33 66  1  0  0  0
 33 70  2  0  0  0
 34 36  1  0  0  0
 34 59  1  0  0  0
 34106  1  0  0  0
 35 44  2  0  0  0
 35 45  1  0  0  0
 35 68  1  0  0  0
 36 56  1  0  0  0
 36107  1  0  0  0
 37 39  1  0  0  0
 37 47  1  0  0  0
 37 66  1  0  0  0
 37108  1  0  0  0
 38 43  2  0  0  0
 38 46  1  0  0  0
 38 47  1  0  0  0
 39 64  1  0  0  0
 39 67  2  0  0  0
 40 52  1  0  0  0
 40 53  2  0  0  0
 40 58  1  0  0  0
 41109  1  0  0  0
 41110  1  0  0  0
 41111  1  0  0  0
 41 48  1  0  0  0
 42 43  1  0  0  0
 42 66  1  0  0  0
 42112  1  0  0  0
 42113  1  0  0  0
 43 44  1  0  0  0
 44114  1  0  0  0
 45 46  2  0  0  0
 45115  1  0  0  0
 46116  1  0  0  0
 47117  1  0  0  0
 47118  1  0  0  0
 48 56  1  0  0  0
 48 65  1  0  0  0
 48119  1  0  0  0
 49 50  1  0  0  0
 49 53  1  0  0  0
 49 64  1  0  0  0
 49120  1  0  0  0
 50 51  1  0  0  0
 50121  1  0  0  0
 50122  1  0  0  0
 51 52  1  0  0  0
 51123  1  0  0  0
 51124  1  0  0  0
 52125  1  0  0  0
 52126  1  0  0  0
 53 54  1  0  0  0
 54 55  2  0  0  0
 54127  1  0  0  0
 55 57  1  0  0  0
 55128  1  0  0  0
 56 69  2  0  0  0
 57 58  2  0  0  0
 57129  1  0  0  0
 58130  1  0  0  0
 59 60  1  0  0  0
 59 61  1  0  0  0
 59 62  1  0  0  0
 60131  1  0  0  0
 60132  1  0  0  0
 60133  1  0  0  0
 61134  1  0  0  0
 61135  1  0  0  0
 61136  1  0  0  0
 62137  1  0  0  0
 62138  1  0  0  0
 62139  1  0  0  0
 63 65  1  0  0  0
 63140  1  0  0  0
 63141  1  0  0  0
 63142  1  0  0  0
 64143  1  0  0  0
 65144  1  0  0  0
 68 81  1  0  0  0
 71 73  2  0  0  0
 71 76  1  0  0  0
 71145  1  0  0  0
 72 74  1  0  0  0
 72 75  2  0  0  0
 72146  1  0  0  0
 73 75  1  0  0  0
 73 78  1  0  0  0
 74 76  2  0  0  0
 74 83  1  0  0  0
 75 84  1  0  0  0
 76 85  1  0  0  0
 77 83  1  0  0  0
 77147  1  0  0  0
 77148  1  0  0  0
 77149  1  0  0  0
 78 82  1  0  0  0
 78150  1  0  0  0
 78151  1  0  0  0
 79 80  1  0  0  0
 79 81  1  0  0  0
 79152  1  0  0  0
 79153  1  0  0  0
 80 83  1  0  0  0
 80154  1  0  0  0
 80155  1  0  0  0
 81156  1  0  0  0
 81157  1  0  0  0
 82158  1  0  0  0
M  ISO  4   1 100  68 101  81 101  82 100
M  END
> <chiral flag>
0

> <version>
0

> <s_m_source_file>
/data/baiqing/PycharmProjects/Reinvent-master-3.2/result/LINK_invent/BTK/process_docking_weight1_custom_sum_contain_oxygen_bond_distance_aromatic_linkinvent_7_9_3/rearranged_h_0015.sdf

> <i_m_source_file_index>
35

> <r_mmod_Potential_Energy-OPLS-2005>
-36.9143447875977

> <r_mmod_Stretch_Energy-OPLS-2005>
40.0837821960449

> <r_mmod_Bend_Energy-OPLS-2005>
109.450859069824

> <r_mmod_Torsional_Energy-OPLS-2005>
213.370452880859

> <r_mmod_Improper_Torsional_Energy-OPLS-2005>
6.99625015258789

> <r_mmod_Van_der_Waal_Energy-OPLS-2005>
152.54460144043

> <r_mmod_Electrostatic_Energy-OPLS-2005>
-365.215423583984

> <r_mmod_Solvation_Energy-OPLS-2005>
-212.011672973633

> <b_mmod_Minimization_Converged-OPLS-2005>
0

> <r_mmod_RMS_Derivative-OPLS-2005>
5.04544734954834

$$$$
36
                    3D
 Structure written by MMmdl.
179187  0  0  1  0            999 V2000
  -30.6620  -14.7276   20.4571 C   0  0  0  0  0  0
  -30.4264  -12.4551   19.4605 C   0  0  0  0  0  0
  -29.5048  -12.5174   18.2226 C   0  0  0  0  0  0
  -28.0338  -12.3442   18.6434 C   0  0  0  0  0  0
  -27.6450  -13.2402   19.8504 C   0  0  2  0  0  0
  -28.6970  -13.1830   20.9807 C   0  0  0  0  0  0
  -25.2549  -13.8194   20.5719 C   0  0  0  0  0  0
  -24.1832  -13.0427   20.9216 C   0  0  0  0  0  0
  -24.6434  -11.6914   20.8740 C   0  0  0  0  0  0
  -23.9103  -10.4286   21.0394 C   0  0  0  0  0  0
  -24.3627   -9.4201   21.9189 C   0  0  0  0  0  0
  -23.6292   -8.2247   22.0759 C   0  0  0  0  0  0
  -22.4285   -8.0286   21.3538 C   0  0  0  0  0  0
  -21.9924   -9.0268   20.4646 C   0  0  0  0  0  0
  -22.7263  -10.2139   20.3057 C   0  0  0  0  0  0
  -21.6859   -6.0740   22.5274 C   0  0  0  0  0  0
  -21.4020   -6.5642   23.8214 C   0  0  0  0  0  0
  -21.3660   -5.6790   24.9176 C   0  0  0  0  0  0
  -21.6047   -4.3057   24.7223 C   0  0  0  0  0  0
  -21.8821   -3.8145   23.4347 C   0  0  0  0  0  0
  -21.9200   -4.6965   22.3397 C   0  0  0  0  0  0
  -22.7854  -13.5214   21.1857 C   0  0  0  0  0  0
  -22.1669   -4.2150   21.0977 F   0  0  0  0  0  0
  -21.5628   -3.4539   25.7739 F   0  0  0  0  0  0
  -29.9962  -13.5247   20.3889 N   0  0  0  0  0  0
  -26.2978  -12.9426   20.3305 N   0  0  0  0  0  0
  -25.9368  -11.6556   20.5739 N   0  0  0  0  0  0
  -22.0487  -12.8209   22.0405 N   0  0  0  0  0  0
  -25.4219  -15.1913   20.4121 N   0  0  0  0  0  0
  -31.8761  -14.7491   20.2457 O   0  0  0  0  0  0
  -21.6650   -6.8877   21.4235 O   0  0  0  0  0  0
  -22.3555  -14.5538   20.6730 O   0  0  0  0  0  0
  -24.6341  -31.8599   23.2003 C   0  0  0  0  0  0
  -25.9192  -32.4752   23.8339 C   0  0  1  0  0  0
  -27.2052  -27.2634   20.1533 C   0  0  0  0  0  0
  -25.5984  -33.8555   24.2242 N   0  0  0  0  0  0
  -23.4291  -30.4808   21.5442 C   0  0  2  0  0  0
  -24.8759  -28.9364   20.1018 C   0  0  0  0  0  0
  -22.7547  -29.4573   22.4930 C   0  0  0  0  0  0
  -18.0316  -28.1363   22.8494 C   0  0  0  0  0  0
  -24.1499  -36.7255   23.2661 C   0  0  0  0  0  0
  -25.9775  -30.7698   21.3931 C   0  0  0  0  0  0
  -26.0433  -29.3995   20.7212 C   0  0  0  0  0  0
  -27.2085  -28.5711   20.7420 C   0  0  0  0  0  0
  -26.0222  -26.8767   19.4808 C   0  0  0  0  0  0
  -24.8677  -27.6838   19.4683 C   0  0  0  0  0  0
  -23.6503  -29.8255   20.1545 C   0  0  0  0  0  0
  -25.4121  -36.3038   24.0336 C   0  0  1  0  0  0
  -20.5928  -28.3667   23.1305 C   0  0  2  0  0  0
  -20.6805  -26.9406   22.5415 C   0  0  0  0  0  0
  -19.5753  -26.6382   21.5245 C   0  0  0  0  0  0
  -18.1932  -26.7911   22.1637 C   0  0  0  0  0  0
  -19.1584  -28.8848   23.2857 C   0  0  0  0  0  0
  -18.9497  -30.1470   23.8831 C   0  0  0  0  0  0
  -17.6498  -30.6554   24.0583 C   0  0  0  0  0  0
  -25.9093  -34.9432   23.5082 C   0  0  0  0  0  0
  -16.5389  -29.9046   23.6364 C   0  0  0  0  0  0
  -16.7316  -28.6494   23.0328 C   0  0  0  0  0  0
  -26.4523  -31.6630   25.0778 C   0  0  0  0  0  0
  -25.3722  -31.3833   26.1504 C   0  0  0  0  0  0
  -27.0472  -30.3045   24.6370 C   0  0  0  0  0  0
  -27.5992  -32.4487   25.7555 C   0  0  0  0  0  0
  -27.5565  -37.1781   24.8466 C   0  0  0  0  0  0
  -21.4263  -29.2990   22.3687 N   0  0  0  0  0  0
  -26.4270  -37.3757   23.9426 N   0  0  0  0  0  0
  -24.6967  -31.0537   22.1002 N   0  0  0  0  0  0
  -23.4258  -28.8120   23.3035 O   0  0  0  0  0  0
  -28.2913  -26.3676   20.2784 O   0  0  0  0  0  0
  -26.5646  -34.8931   22.4638 O   0  0  0  0  0  0
  -23.5488  -32.1471   23.7272 O   0  0  0  0  0  0
  -30.8985  -20.0690   19.5390 C   0  0  0  0  0  0
  -29.9512  -19.8559   20.5512 C   0  0  0  0  0  0
  -29.6644  -18.4670   20.8991 C   0  0  0  0  0  0
  -31.1035  -17.6658   19.0814 C   0  0  0  0  0  0
  -31.4933  -19.0131   18.8306 C   0  0  0  0  0  0
  -30.2544  -17.3287   20.1933 C   0  0  0  0  0  0
  -28.7265  -18.1948   22.0668 C   0  0  0  0  0  0
  -31.5859  -16.6233   18.0756 C   0  0  0  0  0  0
  -28.5650  -23.8761   22.4492 C   0  0  0  0  0  0
  -34.7249  -22.4223   17.5928 C   0  0  0  0  0  0
  -34.3326  -20.6990   15.8290 C   0  0  0  0  0  0
  -32.4082  -22.0777   16.7121 C   0  0  0  0  0  0
  -29.4530  -21.1833   21.2747 C   0  0  0  0  0  0
  -33.4983  -20.3054   18.1865 C   0  0  0  0  0  0
  -28.0616  -24.8887   20.1307 C   0  0  0  0  0  0
  -28.9274  -23.7912   20.9502 C   0  0  2  0  0  0
  -33.7269  -21.3660   17.0783 C   0  0  0  0  0  0
  -29.9278  -15.9055   20.5420 N   0  0  0  0  0  0
  -32.4631  -19.3177   17.8551 N   0  0  0  0  0  0
  -28.8554  -22.3290   20.4465 N   0  3  0  0  0  0
  -31.4696  -12.5651   19.1585 H   0  0  0  0  0  0
  -30.3547  -11.4805   19.9436 H   0  0  0  0  0  0
  -29.7803  -11.7424   17.5071 H   0  0  0  0  0  0
  -29.6322  -13.4695   17.7031 H   0  0  0  0  0  0
  -27.8958  -11.2936   18.9028 H   0  0  0  0  0  0
  -27.3700  -12.5387   17.8000 H   0  0  0  0  0  0
  -27.6362  -14.2624   19.4726 H   0  0  0  0  0  0
  -28.7321  -12.1879   21.4277 H   0  0  0  0  0  0
  -28.4435  -13.8702   21.7879 H   0  0  0  0  0  0
  -25.2758   -9.5697   22.4783 H   0  0  0  0  0  0
  -24.0008   -7.4645   22.7482 H   0  0  0  0  0  0
  -21.0864   -8.8782   19.8944 H   0  0  0  0  0  0
  -22.3708  -10.9687   19.6184 H   0  0  0  0  0  0
  -21.2009   -7.6153   23.9716 H   0  0  0  0  0  0
  -21.1479   -6.0526   25.9083 H   0  0  0  0  0  0
  -22.0593   -2.7609   23.2846 H   0  0  0  0  0  0
  -22.4090  -11.9863   22.4784 H   0  0  0  0  0  0
  -21.1103  -13.1235   22.2581 H   0  0  0  0  0  0
  -24.6458  -15.8364   20.5113 H   0  0  0  0  0  0
  -26.2623  -15.6313   20.0591 H   0  0  0  0  0  0
  -26.7280  -32.5396   23.1091 H   0  0  0  0  0  0
  -25.0144  -33.9698   25.0384 H   0  0  0  0  0  0
  -22.7248  -31.3007   21.3995 H   0  0  0  0  0  0
  -23.3780  -35.9575   23.3335 H   0  0  0  0  0  0
  -24.3560  -36.8878   22.2068 H   0  0  0  0  0  0
  -23.7261  -37.6446   23.6714 H   0  0  0  0  0  0
  -26.1492  -31.5548   20.6563 H   0  0  0  0  0  0
  -26.8398  -30.7795   22.0495 H   0  0  0  0  0  0
  -28.0865  -28.9051   21.2730 H   0  0  0  0  0  0
  -25.9534  -25.9226   18.9781 H   0  0  0  0  0  0
  -23.9703  -27.3329   18.9747 H   0  0  0  0  0  0
  -23.7915  -30.6131   19.4149 H   0  0  0  0  0  0
  -22.7687  -29.2686   19.8318 H   0  0  0  0  0  0
  -25.1301  -36.1839   25.0825 H   0  0  0  0  0  0
  -20.9995  -28.3273   24.1440 H   0  0  0  0  0  0
  -20.5864  -26.2258   23.3616 H   0  0  0  0  0  0
  -21.6635  -26.7527   22.1102 H   0  0  0  0  0  0
  -19.6957  -25.6319   21.1223 H   0  0  0  0  0  0
  -19.6668  -27.3258   20.6834 H   0  0  0  0  0  0
  -17.4227  -26.6785   21.3992 H   0  0  0  0  0  0
  -18.0226  -26.0025   22.8986 H   0  0  0  0  0  0
  -19.8004  -30.7306   24.2121 H   0  0  0  0  0  0
  -17.5067  -31.6235   24.5171 H   0  0  0  0  0  0
  -15.5382  -30.2894   23.7733 H   0  0  0  0  0  0
  -15.8736  -28.0833   22.6957 H   0  0  0  0  0  0
  -24.5770  -30.7317   25.7861 H   0  0  0  0  0  0
  -24.9077  -32.3067   26.4997 H   0  0  0  0  0  0
  -25.8009  -30.8938   27.0263 H   0  0  0  0  0  0
  -26.3139  -29.6654   24.1435 H   0  0  0  0  0  0
  -27.4179  -29.7425   25.4952 H   0  0  0  0  0  0
  -27.8982  -30.4317   23.9667 H   0  0  0  0  0  0
  -27.2459  -33.3777   26.2047 H   0  0  0  0  0  0
  -28.3806  -32.7109   25.0410 H   0  0  0  0  0  0
  -28.0676  -31.8738   26.5555 H   0  0  0  0  0  0
  -28.2531  -38.0122   24.7505 H   0  0  0  0  0  0
  -28.1090  -36.2628   24.6268 H   0  0  0  0  0  0
  -27.2282  -37.1386   25.8871 H   0  0  0  0  0  0
  -20.9485  -29.8651   21.6814 H   0  0  0  0  0  0
  -26.0139  -38.2829   24.1417 H   0  0  0  0  0  0
  -31.1745  -21.0836   19.2965 H   0  0  0  0  0  0
  -28.9199  -18.8815   22.8896 H   0  0  0  0  0  0
  -28.8570  -17.1935   22.4761 H   0  0  0  0  0  0
  -27.6884  -18.3082   21.7539 H   0  0  0  0  0  0
  -31.5914  -17.0341   17.0670 H   0  0  0  0  0  0
  -30.9236  -15.7642   18.0140 H   0  0  0  0  0  0
  -32.5953  -16.2863   18.3128 H   0  0  0  0  0  0
  -28.5948  -24.9060   22.8072 H   0  0  0  0  0  0
  -29.2514  -23.3141   23.0826 H   0  0  0  0  0  0
  -27.5598  -23.4976   22.6338 H   0  0  0  0  0  0
  -34.9604  -23.1554   16.8204 H   0  0  0  0  0  0
  -35.6669  -21.9731   17.9102 H   0  0  0  0  0  0
  -34.3263  -22.9737   18.4452 H   0  0  0  0  0  0
  -34.5304  -21.4229   15.0375 H   0  0  0  0  0  0
  -33.6640  -19.9428   15.4192 H   0  0  0  0  0  0
  -35.2795  -20.2115   16.0645 H   0  0  0  0  0  0
  -32.5679  -22.8467   15.9562 H   0  0  0  0  0  0
  -31.9632  -22.5647   17.5803 H   0  0  0  0  0  0
  -31.6708  -21.3810   16.3114 H   0  0  0  0  0  0
  -30.3377  -21.5755   21.7788 H   0  0  0  0  0  0
  -28.7618  -20.9494   22.0831 H   0  0  0  0  0  0
  -33.3054  -20.8027   19.1364 H   0  0  0  0  0  0
  -34.4286  -19.7619   18.3570 H   0  0  0  0  0  0
  -27.0247  -24.6598   20.3843 H   0  0  0  0  0  0
  -28.1557  -24.6817   19.0660 H   0  0  0  0  0  0
  -29.9732  -24.0796   20.8541 H   0  0  0  0  0  0
  -28.9788  -15.7579   20.8493 H   0  0  0  0  0  0
  -32.8062  -18.5217   17.3259 H   0  0  0  0  0  0
  -27.8916  -22.0800   20.2908 H   0  0  0  0  0  0
  -29.2906  -22.2984   19.5397 H   0  0  0  0  0  0
  1 25  1  0  0  0
  1 30  2  0  0  0
  1 88  1  0  0  0
  2  3  1  0  0  0
  2 25  1  0  0  0
  2 91  1  0  0  0
  2 92  1  0  0  0
  3  4  1  0  0  0
  3 93  1  0  0  0
  3 94  1  0  0  0
  4  5  1  0  0  0
  4 95  1  0  0  0
  4 96  1  0  0  0
  5  6  1  0  0  0
  5 26  1  0  0  0
  5 97  1  0  0  0
  6 25  1  0  0  0
  6 98  1  0  0  0
  6 99  1  0  0  0
  7  8  2  0  0  0
  7 26  1  0  0  0
  7 29  1  0  0  0
  8  9  1  0  0  0
  8 22  1  0  0  0
  9 10  1  0  0  0
  9 27  2  0  0  0
 10 11  2  0  0  0
 10 15  1  0  0  0
 11 12  1  0  0  0
 11100  1  0  0  0
 12 13  2  0  0  0
 12101  1  0  0  0
 13 14  1  0  0  0
 13 31  1  0  0  0
 14 15  2  0  0  0
 14102  1  0  0  0
 15103  1  0  0  0
 16 17  2  0  0  0
 16 21  1  0  0  0
 16 31  1  0  0  0
 17 18  1  0  0  0
 17104  1  0  0  0
 18 19  2  0  0  0
 18105  1  0  0  0
 19 20  1  0  0  0
 19 24  1  0  0  0
 20 21  2  0  0  0
 20106  1  0  0  0
 21 23  1  0  0  0
 22 28  1  0  0  0
 22 32  2  0  0  0
 26 27  1  0  0  0
 28107  1  0  0  0
 28108  1  0  0  0
 29109  1  0  0  0
 29110  1  0  0  0
 33 34  1  0  0  0
 33 66  1  0  0  0
 33 70  2  0  0  0
 34 36  1  0  0  0
 34 59  1  0  0  0
 34111  1  0  0  0
 35 44  2  0  0  0
 35 45  1  0  0  0
 35 68  1  0  0  0
 36 56  1  0  0  0
 36112  1  0  0  0
 37 39  1  0  0  0
 37 47  1  0  0  0
 37 66  1  0  0  0
 37113  1  0  0  0
 38 43  2  0  0  0
 38 46  1  0  0  0
 38 47  1  0  0  0
 39 64  1  0  0  0
 39 67  2  0  0  0
 40 52  1  0  0  0
 40 53  2  0  0  0
 40 58  1  0  0  0
 41114  1  0  0  0
 41115  1  0  0  0
 41116  1  0  0  0
 41 48  1  0  0  0
 42 43  1  0  0  0
 42 66  1  0  0  0
 42117  1  0  0  0
 42118  1  0  0  0
 43 44  1  0  0  0
 44119  1  0  0  0
 45 46  2  0  0  0
 45120  1  0  0  0
 46121  1  0  0  0
 47122  1  0  0  0
 47123  1  0  0  0
 48 56  1  0  0  0
 48 65  1  0  0  0
 48124  1  0  0  0
 49 50  1  0  0  0
 49 53  1  0  0  0
 49 64  1  0  0  0
 49125  1  0  0  0
 50 51  1  0  0  0
 50126  1  0  0  0
 50127  1  0  0  0
 51 52  1  0  0  0
 51128  1  0  0  0
 51129  1  0  0  0
 52130  1  0  0  0
 52131  1  0  0  0
 53 54  1  0  0  0
 54 55  2  0  0  0
 54132  1  0  0  0
 55 57  1  0  0  0
 55133  1  0  0  0
 56 69  2  0  0  0
 57 58  2  0  0  0
 57134  1  0  0  0
 58135  1  0  0  0
 59 60  1  0  0  0
 59 61  1  0  0  0
 59 62  1  0  0  0
 60136  1  0  0  0
 60137  1  0  0  0
 60138  1  0  0  0
 61139  1  0  0  0
 61140  1  0  0  0
 61141  1  0  0  0
 62142  1  0  0  0
 62143  1  0  0  0
 62144  1  0  0  0
 63 65  1  0  0  0
 63145  1  0  0  0
 63146  1  0  0  0
 63147  1  0  0  0
 64148  1  0  0  0
 65149  1  0  0  0
 68 85  1  0  0  0
 71 72  2  0  0  0
 71 75  1  0  0  0
 71150  1  0  0  0
 72 73  1  0  0  0
 72 83  1  0  0  0
 73 76  2  0  0  0
 73 77  1  0  0  0
 74 75  2  0  0  0
 74 76  1  0  0  0
 74 78  1  0  0  0
 75 89  1  0  0  0
 76 88  1  0  0  0
 77151  1  0  0  0
 77152  1  0  0  0
 77153  1  0  0  0
 78154  1  0  0  0
 78155  1  0  0  0
 78156  1  0  0  0
 79157  1  0  0  0
 79158  1  0  0  0
 79159  1  0  0  0
 79 86  1  0  0  0
 80160  1  0  0  0
 80161  1  0  0  0
 80162  1  0  0  0
 80 87  1  0  0  0
 81 87  1  0  0  0
 81163  1  0  0  0
 81164  1  0  0  0
 81165  1  0  0  0
 82 87  1  0  0  0
 82166  1  0  0  0
 82167  1  0  0  0
 82168  1  0  0  0
 83 90  1  0  0  0
 83169  1  0  0  0
 83170  1  0  0  0
 84 87  1  0  0  0
 84 89  1  0  0  0
 84171  1  0  0  0
 84172  1  0  0  0
 85 86  1  0  0  0
 85173  1  0  0  0
 85174  1  0  0  0
 86 90  1  0  0  0
 86175  1  0  0  0
 88176  1  0  0  0
 89177  1  0  0  0
 90178  1  0  0  0
 90179  1  0  0  0
M  CHG  1  90   1
M  ISO  4   1 100  68 101  85 101  88 100
M  END
> <chiral flag>
0

> <version>
0

> <s_m_source_file>
/data/baiqing/PycharmProjects/Reinvent-master-3.2/result/LINK_invent/BTK/process_docking_weight1_custom_sum_contain_oxygen_bond_distance_aromatic_linkinvent_7_9_3/rearranged_h_0015.sdf

> <i_m_source_file_index>
36

> <r_mmod_Potential_Energy-OPLS-2005>
1.6699184179306

> <r_mmod_Stretch_Energy-OPLS-2005>
129.938491821289

> <r_mmod_Bend_Energy-OPLS-2005>
175.656799316406

> <r_mmod_Torsional_Energy-OPLS-2005>
259.496276855469

> <r_mmod_Improper_Torsional_Energy-OPLS-2005>
9.28599071502686

> <r_mmod_Van_der_Waal_Energy-OPLS-2005>
158.112319946289

> <r_mmod_Electrostatic_Energy-OPLS-2005>
-376.011901855469

> <r_mmod_Solvation_Energy-OPLS-2005>
-445.028747558594

> <b_mmod_Minimization_Converged-OPLS-2005>
0

> <r_mmod_RMS_Derivative-OPLS-2005>
4.31342029571533

$$$$
37
                    3D
 Structure written by MMmdl.
175183  0  0  1  0            999 V2000
  -30.7086  -14.3636   20.7284 C   0  0  0  0  0  0
  -30.4329  -12.2963   19.3883 C   0  0  0  0  0  0
  -29.5014  -12.5611   18.1876 C   0  0  0  0  0  0
  -28.0164  -12.4254   18.5857 C   0  0  0  0  0  0
  -27.6723  -13.2001   19.8865 C   0  0  2  0  0  0
  -28.7032  -12.8652   20.9854 C   0  0  0  0  0  0
  -25.2574  -13.8123   20.5515 C   0  0  0  0  0  0
  -24.1841  -13.0435   20.9125 C   0  0  0  0  0  0
  -24.6384  -11.6893   20.8705 C   0  0  0  0  0  0
  -23.9058  -10.4297   21.0394 C   0  0  0  0  0  0
  -24.3611   -9.4210   21.9168 C   0  0  0  0  0  0
  -23.6277   -8.2250   22.0765 C   0  0  0  0  0  0
  -22.4251   -8.0298   21.3567 C   0  0  0  0  0  0
  -21.9891   -9.0264   20.4662 C   0  0  0  0  0  0
  -22.7231  -10.2131   20.3044 C   0  0  0  0  0  0
  -21.6851   -6.0736   22.5265 C   0  0  0  0  0  0
  -21.4028   -6.5633   23.8200 C   0  0  0  0  0  0
  -21.3657   -5.6776   24.9160 C   0  0  0  0  0  0
  -21.6022   -4.3038   24.7207 C   0  0  0  0  0  0
  -21.8823   -3.8152   23.4325 C   0  0  0  0  0  0
  -21.9189   -4.6970   22.3388 C   0  0  0  0  0  0
  -22.7865  -13.5265   21.1765 C   0  0  0  0  0  0
  -22.1655   -4.2157   21.0969 F   0  0  0  0  0  0
  -21.5599   -3.4530   25.7730 F   0  0  0  0  0  0
  -30.0506  -13.2015   20.4814 N   0  0  0  0  0  0
  -26.3057  -12.9297   20.3331 N   0  0  0  0  0  0
  -25.9309  -11.6465   20.5732 N   0  0  0  0  0  0
  -22.0496  -12.8318   22.0360 N   0  0  0  0  0  0
  -25.4196  -15.1799   20.3609 N   0  0  0  0  0  0
  -31.7051  -14.7264   20.0878 O   0  0  0  0  0  0
  -21.6621   -6.8889   21.4240 O   0  0  0  0  0  0
  -22.3545  -14.5536   20.6549 O   0  0  0  0  0  0
  -24.6116  -31.8711   23.2126 C   0  0  0  0  0  0
  -25.9015  -32.4837   23.8425 C   0  0  1  0  0  0
  -27.2569  -27.4697   20.1035 C   0  0  0  0  0  0
  -25.5868  -33.8634   24.2373 N   0  0  0  0  0  0
  -23.3997  -30.4940   21.5512 C   0  0  2  0  0  0
  -24.8532  -28.9590   20.1231 C   0  0  0  0  0  0
  -22.7403  -29.4690   22.5004 C   0  0  0  0  0  0
  -18.0286  -28.1407   22.8506 C   0  0  0  0  0  0
  -24.1477  -36.7328   23.2638 C   0  0  0  0  0  0
  -25.9259  -30.8449   21.3646 C   0  0  0  0  0  0
  -26.0072  -29.4785   20.7233 C   0  0  0  0  0  0
  -27.2131  -28.7406   20.7197 C   0  0  0  0  0  0
  -26.0918  -26.9601   19.4988 C   0  0  0  0  0  0
  -24.8877  -27.6934   19.5112 C   0  0  0  0  0  0
  -23.6107  -29.8203   20.1681 C   0  0  0  0  0  0
  -25.4078  -36.3119   24.0365 C   0  0  1  0  0  0
  -20.5869  -28.3689   23.1326 C   0  0  2  0  0  0
  -20.6774  -26.9419   22.5439 C   0  0  0  0  0  0
  -19.5741  -26.6408   21.5226 C   0  0  0  0  0  0
  -18.1923  -26.7953   22.1629 C   0  0  0  0  0  0
  -19.1534  -28.8864   23.2910 C   0  0  0  0  0  0
  -18.9462  -30.1472   23.8916 C   0  0  0  0  0  0
  -17.6464  -30.6591   24.0609 C   0  0  0  0  0  0
  -25.9015  -34.9483   23.5175 C   0  0  0  0  0  0
  -16.5363  -29.9111   23.6336 C   0  0  0  0  0  0
  -16.7277  -28.6547   23.0326 C   0  0  0  0  0  0
  -26.4456  -31.6601   25.0742 C   0  0  0  0  0  0
  -25.3746  -31.3714   26.1526 C   0  0  0  0  0  0
  -27.0293  -30.3051   24.6124 C   0  0  0  0  0  0
  -27.6045  -32.4324   25.7485 C   0  0  0  0  0  0
  -27.5581  -37.1801   24.8454 C   0  0  0  0  0  0
  -21.4132  -29.3056   22.3728 N   0  0  0  0  0  0
  -26.4264  -37.3810   23.9435 N   0  0  0  0  0  0
  -24.6630  -31.0852   22.1008 N   0  0  0  0  0  0
  -23.4187  -28.8216   23.3028 O   0  0  0  0  0  0
  -28.4036  -26.7084   20.0138 O   0  0  0  0  0  0
  -26.5593  -34.8934   22.4736 O   0  0  0  0  0  0
  -23.5313  -32.1442   23.7544 O   0  0  0  0  0  0
  -30.8783  -17.4023   21.4437 C   0  0  0  0  0  0
  -29.4063  -19.1654   22.2558 C   0  0  0  0  0  0
  -30.5935  -18.7758   21.6132 C   0  0  0  0  0  0
  -28.8152  -16.8302   22.6392 C   0  0  0  0  0  0
  -29.9865  -16.4200   21.9433 C   0  0  0  0  0  0
  -28.4974  -18.2054   22.7546 C   0  0  0  0  0  0
  -27.8678  -15.8013   23.2546 C   0  0  0  0  0  0
  -32.6428  -22.4025   19.6966 C   0  0  0  0  0  0
  -31.4105  -19.7533   18.6556 C   0  0  0  0  0  0
  -26.8255  -19.8842   23.1603 C   0  0  0  0  0  0
  -31.5380  -19.8628   21.1148 C   0  0  0  0  0  0
  -30.2979  -24.3116   20.5707 C   0  0  0  0  0  0
  -29.3746  -25.1006   21.5276 C   0  0  0  0  0  0
  -30.3096  -22.7770   20.7950 C   0  0  0  0  0  0
  -29.2365  -26.5967   21.1696 C   0  0  0  0  0  0
  -31.1599  -21.9763   19.7553 C   0  0  2  0  0  0
  -30.2362  -15.0239   21.7998 N   0  0  0  0  0  0
  -31.0015  -20.4895   19.8770 N   0  3  1  0  0  0
  -27.3081  -18.5575   23.3581 O   0  0  0  0  0  0
  -31.4794  -12.4122   19.1010 H   0  0  0  0  0  0
  -30.3377  -11.2619   19.7156 H   0  0  0  0  0  0
  -29.7379  -11.8787   17.3679 H   0  0  0  0  0  0
  -29.6865  -13.5659   17.8047 H   0  0  0  0  0  0
  -27.7871  -11.3670   18.7074 H   0  0  0  0  0  0
  -27.3895  -12.7824   17.7666 H   0  0  0  0  0  0
  -27.7526  -14.2657   19.6681 H   0  0  0  0  0  0
  -28.6663  -11.7969   21.2053 H   0  0  0  0  0  0
  -28.4372  -13.3432   21.9262 H   0  0  0  0  0  0
  -25.2766   -9.5689   22.4707 H   0  0  0  0  0  0
  -23.9981   -7.4661   22.7488 H   0  0  0  0  0  0
  -21.0811   -8.8777   19.8985 H   0  0  0  0  0  0
  -22.3690  -10.9643   19.6119 H   0  0  0  0  0  0
  -21.2042   -7.6141   23.9718 H   0  0  0  0  0  0
  -21.1463   -6.0501   25.9061 H   0  0  0  0  0  0
  -22.0608   -2.7621   23.2811 H   0  0  0  0  0  0
  -22.4100  -12.0004   22.4789 H   0  0  0  0  0  0
  -21.1123  -13.1368   22.2540 H   0  0  0  0  0  0
  -24.6082  -15.7894   20.3404 H   0  0  0  0  0  0
  -26.2180  -15.5736   19.8798 H   0  0  0  0  0  0
  -26.7094  -32.5588   23.1202 H   0  0  0  0  0  0
  -24.9982  -33.9805   25.0493 H   0  0  0  0  0  0
  -22.6891  -31.3110   21.4094 H   0  0  0  0  0  0
  -23.3742  -35.9659   23.3302 H   0  0  0  0  0  0
  -24.3571  -36.8952   22.2054 H   0  0  0  0  0  0
  -23.7244  -37.6537   23.6654 H   0  0  0  0  0  0
  -26.0391  -31.6066   20.5909 H   0  0  0  0  0  0
  -26.8132  -30.9005   21.9844 H   0  0  0  0  0  0
  -28.1035  -29.1625   21.1648 H   0  0  0  0  0  0
  -26.1187  -25.9886   19.0248 H   0  0  0  0  0  0
  -24.0023  -27.2840   19.0453 H   0  0  0  0  0  0
  -23.7222  -30.5927   19.4067 H   0  0  0  0  0  0
  -22.7382  -29.2372   19.8682 H   0  0  0  0  0  0
  -25.1224  -36.1978   25.0859 H   0  0  0  0  0  0
  -20.9998  -28.3270   24.1430 H   0  0  0  0  0  0
  -20.5683  -26.2280   23.3624 H   0  0  0  0  0  0
  -21.6636  -26.7462   22.1229 H   0  0  0  0  0  0
  -19.6886  -25.6317   21.1244 H   0  0  0  0  0  0
  -19.6673  -27.3246   20.6771 H   0  0  0  0  0  0
  -17.4192  -26.6768   21.4021 H   0  0  0  0  0  0
  -18.0290  -26.0070   22.9000 H   0  0  0  0  0  0
  -19.7926  -30.7317   24.2275 H   0  0  0  0  0  0
  -17.5010  -31.6260   24.5229 H   0  0  0  0  0  0
  -15.5366  -30.3030   23.7634 H   0  0  0  0  0  0
  -15.8684  -28.0898   22.6991 H   0  0  0  0  0  0
  -24.5889  -30.7066   25.7922 H   0  0  0  0  0  0
  -24.8937  -32.2862   26.5013 H   0  0  0  0  0  0
  -25.8117  -30.8884   27.0280 H   0  0  0  0  0  0
  -26.2850  -29.6799   24.1190 H   0  0  0  0  0  0
  -27.4083  -29.7297   25.4580 H   0  0  0  0  0  0
  -27.8671  -30.4393   23.9284 H   0  0  0  0  0  0
  -27.2690  -33.3645   26.2066 H   0  0  0  0  0  0
  -28.3835  -32.6863   25.0277 H   0  0  0  0  0  0
  -28.0737  -31.8439   26.5389 H   0  0  0  0  0  0
  -28.2581  -38.0114   24.7520 H   0  0  0  0  0  0
  -28.1091  -36.2646   24.6216 H   0  0  0  0  0  0
  -27.2327  -37.1430   25.8867 H   0  0  0  0  0  0
  -20.9299  -29.8773   21.6944 H   0  0  0  0  0  0
  -26.0153  -38.2897   24.1410 H   0  0  0  0  0  0
  -31.7899  -17.1087   20.9447 H   0  0  0  0  0  0
  -29.2114  -20.2220   22.3687 H   0  0  0  0  0  0
  -27.1733  -15.4178   22.5097 H   0  0  0  0  0  0
  -27.2771  -16.2254   24.0675 H   0  0  0  0  0  0
  -28.4090  -14.9629   23.6897 H   0  0  0  0  0  0
  -32.7437  -23.4727   19.5255 H   0  0  0  0  0  0
  -33.1597  -21.9241   18.8638 H   0  0  0  0  0  0
  -33.1838  -22.1587   20.6109 H   0  0  0  0  0  0
  -31.0641  -18.7197   18.6924 H   0  0  0  0  0  0
  -32.4956  -19.7325   18.5407 H   0  0  0  0  0  0
  -30.9869  -20.2034   17.7577 H   0  0  0  0  0  0
  -25.8002  -19.9541   23.5239 H   0  0  0  0  0  0
  -26.8149  -20.1571   22.1031 H   0  0  0  0  0  0
  -27.4214  -20.6124   23.7119 H   0  0  0  0  0  0
  -32.5440  -19.4676   20.9622 H   0  0  0  0  0  0
  -31.6384  -20.5906   21.9190 H   0  0  0  0  0  0
  -31.3059  -24.7078   20.6862 H   0  0  0  0  0  0
  -30.0063  -24.5165   19.5408 H   0  0  0  0  0  0
  -29.7688  -25.0177   22.5419 H   0  0  0  0  0  0
  -28.3803  -24.6535   21.5529 H   0  0  0  0  0  0
  -29.2777  -22.4227   20.7445 H   0  0  0  0  0  0
  -30.6445  -22.5777   21.8131 H   0  0  0  0  0  0
  -30.2150  -27.0332   20.9596 H   0  0  0  0  0  0
  -28.8366  -27.1318   22.0317 H   0  0  0  0  0  0
  -30.7290  -22.2371   18.7869 H   0  0  0  0  0  0
  -29.6129  -14.4475   22.3426 H   0  0  0  0  0  0
  -30.0064  -20.3401   19.9335 H   0  0  0  0  0  0
  1 25  1  0  0  0
  1 30  2  0  0  0
  1 87  1  0  0  0
  2  3  1  0  0  0
  2 25  1  0  0  0
  2 90  1  0  0  0
  2 91  1  0  0  0
  3  4  1  0  0  0
  3 92  1  0  0  0
  3 93  1  0  0  0
  4  5  1  0  0  0
  4 94  1  0  0  0
  4 95  1  0  0  0
  5  6  1  0  0  0
  5 26  1  0  0  0
  5 96  1  0  0  0
  6 25  1  0  0  0
  6 97  1  0  0  0
  6 98  1  0  0  0
  7  8  2  0  0  0
  7 26  1  0  0  0
  7 29  1  0  0  0
  8  9  1  0  0  0
  8 22  1  0  0  0
  9 10  1  0  0  0
  9 27  2  0  0  0
 10 11  2  0  0  0
 10 15  1  0  0  0
 11 12  1  0  0  0
 11 99  1  0  0  0
 12 13  2  0  0  0
 12100  1  0  0  0
 13 14  1  0  0  0
 13 31  1  0  0  0
 14 15  2  0  0  0
 14101  1  0  0  0
 15102  1  0  0  0
 16 17  2  0  0  0
 16 21  1  0  0  0
 16 31  1  0  0  0
 17 18  1  0  0  0
 17103  1  0  0  0
 18 19  2  0  0  0
 18104  1  0  0  0
 19 20  1  0  0  0
 19 24  1  0  0  0
 20 21  2  0  0  0
 20105  1  0  0  0
 21 23  1  0  0  0
 22 28  1  0  0  0
 22 32  2  0  0  0
 26 27  1  0  0  0
 28106  1  0  0  0
 28107  1  0  0  0
 29108  1  0  0  0
 29109  1  0  0  0
 33 34  1  0  0  0
 33 66  1  0  0  0
 33 70  2  0  0  0
 34 36  1  0  0  0
 34 59  1  0  0  0
 34110  1  0  0  0
 35 44  2  0  0  0
 35 45  1  0  0  0
 35 68  1  0  0  0
 36 56  1  0  0  0
 36111  1  0  0  0
 37 39  1  0  0  0
 37 47  1  0  0  0
 37 66  1  0  0  0
 37112  1  0  0  0
 38 43  2  0  0  0
 38 46  1  0  0  0
 38 47  1  0  0  0
 39 64  1  0  0  0
 39 67  2  0  0  0
 40 52  1  0  0  0
 40 53  2  0  0  0
 40 58  1  0  0  0
 41113  1  0  0  0
 41114  1  0  0  0
 41115  1  0  0  0
 41 48  1  0  0  0
 42 43  1  0  0  0
 42 66  1  0  0  0
 42116  1  0  0  0
 42117  1  0  0  0
 43 44  1  0  0  0
 44118  1  0  0  0
 45 46  2  0  0  0
 45119  1  0  0  0
 46120  1  0  0  0
 47121  1  0  0  0
 47122  1  0  0  0
 48 56  1  0  0  0
 48 65  1  0  0  0
 48123  1  0  0  0
 49 50  1  0  0  0
 49 53  1  0  0  0
 49 64  1  0  0  0
 49124  1  0  0  0
 50 51  1  0  0  0
 50125  1  0  0  0
 50126  1  0  0  0
 51 52  1  0  0  0
 51127  1  0  0  0
 51128  1  0  0  0
 52129  1  0  0  0
 52130  1  0  0  0
 53 54  1  0  0  0
 54 55  2  0  0  0
 54131  1  0  0  0
 55 57  1  0  0  0
 55132  1  0  0  0
 56 69  2  0  0  0
 57 58  2  0  0  0
 57133  1  0  0  0
 58134  1  0  0  0
 59 60  1  0  0  0
 59 61  1  0  0  0
 59 62  1  0  0  0
 60135  1  0  0  0
 60136  1  0  0  0
 60137  1  0  0  0
 61138  1  0  0  0
 61139  1  0  0  0
 61140  1  0  0  0
 62141  1  0  0  0
 62142  1  0  0  0
 62143  1  0  0  0
 63 65  1  0  0  0
 63144  1  0  0  0
 63145  1  0  0  0
 63146  1  0  0  0
 64147  1  0  0  0
 65148  1  0  0  0
 68 85  1  0  0  0
 71 73  2  0  0  0
 71 75  1  0  0  0
 71149  1  0  0  0
 72 73  1  0  0  0
 72 76  2  0  0  0
 72150  1  0  0  0
 73 81  1  0  0  0
 74 75  2  0  0  0
 74 76  1  0  0  0
 74 77  1  0  0  0
 75 87  1  0  0  0
 76 89  1  0  0  0
 77151  1  0  0  0
 77152  1  0  0  0
 77153  1  0  0  0
 78154  1  0  0  0
 78155  1  0  0  0
 78156  1  0  0  0
 78 86  1  0  0  0
 79157  1  0  0  0
 79158  1  0  0  0
 79159  1  0  0  0
 79 88  1  0  0  0
 80 89  1  0  0  0
 80160  1  0  0  0
 80161  1  0  0  0
 80162  1  0  0  0
 81 88  1  0  0  0
 81163  1  0  0  0
 81164  1  0  0  0
 82 83  1  0  0  0
 82 84  1  0  0  0
 82165  1  0  0  0
 82166  1  0  0  0
 83 85  1  0  0  0
 83167  1  0  0  0
 83168  1  0  0  0
 84 86  1  0  0  0
 84169  1  0  0  0
 84170  1  0  0  0
 85171  1  0  0  0
 85172  1  0  0  0
 86 88  1  0  0  0
 86173  1  0  0  0
 87174  1  0  0  0
 88175  1  0  0  0
M  CHG  1  88   1
M  ISO  4   1 100  68 101  85 101  87 100
M  END
> <chiral flag>
0

> <version>
0

> <s_m_source_file>
/data/baiqing/PycharmProjects/Reinvent-master-3.2/result/LINK_invent/BTK/process_docking_weight1_custom_sum_contain_oxygen_bond_distance_aromatic_linkinvent_7_9_3/rearranged_h_0015.sdf

> <i_m_source_file_index>
37

> <r_mmod_Potential_Energy-OPLS-2005>
-163.672653198242

> <r_mmod_Stretch_Energy-OPLS-2005>
39.8675308227539

> <r_mmod_Bend_Energy-OPLS-2005>
111.702751159668

> <r_mmod_Torsional_Energy-OPLS-2005>
244.725067138672

> <r_mmod_Improper_Torsional_Energy-OPLS-2005>
6.47003746032715

> <r_mmod_Van_der_Waal_Energy-OPLS-2005>
155.131469726562

> <r_mmod_Electrostatic_Energy-OPLS-2005>
-310.572387695312

> <r_mmod_Solvation_Energy-OPLS-2005>
-420.231170654297

> <b_mmod_Minimization_Converged-OPLS-2005>
0

> <r_mmod_RMS_Derivative-OPLS-2005>
4.32042360305786

$$$$
38
                    3D
 Structure written by MMmdl.
158165  0  0  1  0            999 V2000
  -30.5322  -14.9188   20.4799 C   0  0  0  0  0  0
  -30.4584  -12.5977   19.4535 C   0  0  0  0  0  0
  -29.5099  -12.5573   18.2304 C   0  0  0  0  0  0
  -28.0399  -12.3465   18.6523 C   0  0  0  0  0  0
  -27.6438  -13.2228   19.8707 C   0  0  2  0  0  0
  -28.7156  -13.0989   20.9790 C   0  0  0  0  0  0
  -25.2485  -13.8124   20.5711 C   0  0  0  0  0  0
  -24.1786  -13.0378   20.9228 C   0  0  0  0  0  0
  -24.6391  -11.6866   20.8780 C   0  0  0  0  0  0
  -23.9061  -10.4259   21.0427 C   0  0  0  0  0  0
  -24.3612   -9.4177   21.9202 C   0  0  0  0  0  0
  -23.6287   -8.2215   22.0756 C   0  0  0  0  0  0
  -22.4269   -8.0268   21.3544 C   0  0  0  0  0  0
  -21.9911   -9.0243   20.4645 C   0  0  0  0  0  0
  -22.7241  -10.2119   20.3063 C   0  0  0  0  0  0
  -21.6843   -6.0731   22.5285 C   0  0  0  0  0  0
  -21.4002   -6.5636   23.8219 C   0  0  0  0  0  0
  -21.3661   -5.6792   24.9185 C   0  0  0  0  0  0
  -21.6048   -4.3053   24.7234 C   0  0  0  0  0  0
  -21.8816   -3.8144   23.4355 C   0  0  0  0  0  0
  -21.9187   -4.6959   22.3412 C   0  0  0  0  0  0
  -22.7812  -13.5175   21.1873 C   0  0  0  0  0  0
  -22.1656   -4.2145   21.0986 F   0  0  0  0  0  0
  -21.5641   -3.4535   25.7745 F   0  0  0  0  0  0
  -29.9513  -13.6436   20.3917 N   0  0  0  0  0  0
  -26.2956  -12.9329   20.3436 N   0  0  0  0  0  0
  -25.9337  -11.6474   20.5847 N   0  0  0  0  0  0
  -22.0446  -12.8192   22.0438 N   0  0  0  0  0  0
  -25.4045  -15.1844   20.4019 N   0  0  0  0  0  0
  -31.7292  -14.9812   20.1689 O   0  0  0  0  0  0
  -21.6627   -6.8873   21.4246 O   0  0  0  0  0  0
  -22.3507  -14.5490   20.6719 O   0  0  0  0  0  0
  -24.6398  -31.8473   23.1903 C   0  0  0  0  0  0
  -25.9189  -32.4710   23.8278 C   0  0  1  0  0  0
  -27.2286  -27.1783   20.1427 C   0  0  0  0  0  0
  -25.5955  -33.8516   24.2202 N   0  0  0  0  0  0
  -23.4417  -30.4670   21.5350 C   0  0  2  0  0  0
  -24.8927  -28.8983   20.1112 C   0  0  0  0  0  0
  -22.7550  -29.4564   22.4874 C   0  0  0  0  0  0
  -18.0302  -28.1392   22.8478 C   0  0  0  0  0  0
  -24.1495  -36.7262   23.2641 C   0  0  0  0  0  0
  -25.9947  -30.7346   21.3828 C   0  0  0  0  0  0
  -26.0685  -29.3491   20.7245 C   0  0  0  0  0  0
  -27.2370  -28.5051   20.7232 C   0  0  0  0  0  0
  -26.0236  -26.8157   19.4993 C   0  0  0  0  0  0
  -24.8803  -27.6425   19.4862 C   0  0  0  0  0  0
  -23.6664  -29.7947   20.1542 C   0  0  0  0  0  0
  -25.4125  -36.3040   24.0317 C   0  0  1  0  0  0
  -20.5912  -28.3716   23.1244 C   0  0  2  0  0  0
  -20.6788  -26.9423   22.5405 C   0  0  0  0  0  0
  -19.5761  -26.6378   21.5214 C   0  0  0  0  0  0
  -18.1942  -26.7931   22.1625 C   0  0  0  0  0  0
  -19.1557  -28.8872   23.2855 C   0  0  0  0  0  0
  -18.9477  -30.1468   23.8878 C   0  0  0  0  0  0
  -17.6476  -30.6591   24.0560 C   0  0  0  0  0  0
  -25.9071  -34.9416   23.5064 C   0  0  0  0  0  0
  -16.5364  -29.9084   23.6335 C   0  0  0  0  0  0
  -16.7287  -28.6503   23.0353 C   0  0  0  0  0  0
  -26.4524  -31.6564   25.0704 C   0  0  0  0  0  0
  -25.3714  -31.3752   26.1401 C   0  0  0  0  0  0
  -27.0392  -30.2965   24.6266 C   0  0  0  0  0  0
  -27.6053  -32.4328   25.7493 C   0  0  0  0  0  0
  -27.5579  -37.1789   24.8465 C   0  0  0  0  0  0
  -21.4247  -29.3049   22.3621 N   0  0  0  0  0  0
  -26.4290  -37.3750   23.9406 N   0  0  0  0  0  0
  -24.7115  -31.0362   22.0915 N   0  0  0  0  0  0
  -23.4209  -28.8118   23.3014 O   0  0  0  0  0  0
  -28.3048  -26.2302   20.2055 O   0  0  0  0  0  0
  -26.5650  -34.8909   22.4638 O   0  0  0  0  0  0
  -23.5527  -32.1334   23.7146 O   0  0  0  0  0  0
  -30.3437  -23.7341   19.4138 C   0  0  0  0  0  0
  -29.6221  -23.6874   21.8077 C   0  0  0  0  0  0
  -28.4881  -16.2774   21.2968 C   0  0  0  0  0  0
  -29.7657  -20.5714   20.3414 C   0  0  0  0  0  0
  -29.2835  -18.9763   20.3863 C   0  0  0  0  0  0
  -28.7298  -21.8786   20.2032 C   0  0  0  0  0  0
  -30.2871  -17.6221   20.3860 C   0  0  0  0  0  0
  -28.0552  -24.7151   20.0540 C   0  0  0  0  0  0
  -29.1540  -23.4927   20.3560 C   0  0  0  0  0  0
  -29.7885  -16.1453   20.6286 N   0  0  0  0  0  0
  -31.4742  -12.8046   19.1152 H   0  0  0  0  0  0
  -30.5170  -11.6206   19.9361 H   0  0  0  0  0  0
  -29.8188  -11.7742   17.5361 H   0  0  0  0  0  0
  -29.5922  -13.4980   17.6828 H   0  0  0  0  0  0
  -27.9155  -11.2924   18.9033 H   0  0  0  0  0  0
  -27.3722  -12.5394   17.8111 H   0  0  0  0  0  0
  -27.6379  -14.2514   19.5109 H   0  0  0  0  0  0
  -28.8369  -12.0466   21.2401 H   0  0  0  0  0  0
  -28.4635  -13.5381   21.9401 H   0  0  0  0  0  0
  -25.2747   -9.5651   22.4792 H   0  0  0  0  0  0
  -23.9992   -7.4596   22.7468 H   0  0  0  0  0  0
  -21.0845   -8.8763   19.8950 H   0  0  0  0  0  0
  -22.3700  -10.9670   19.6181 H   0  0  0  0  0  0
  -21.1982   -7.6139   23.9721 H   0  0  0  0  0  0
  -21.1495   -6.0523   25.9090 H   0  0  0  0  0  0
  -22.0597   -2.7605   23.2854 H   0  0  0  0  0  0
  -22.4035  -11.9842   22.4832 H   0  0  0  0  0  0
  -21.1078  -13.1250   22.2641 H   0  0  0  0  0  0
  -24.6298  -15.8292   20.5127 H   0  0  0  0  0  0
  -26.2524  -15.6336   20.0834 H   0  0  0  0  0  0
  -26.7256  -32.5333   23.1012 H   0  0  0  0  0  0
  -25.0093  -33.9634   25.0343 H   0  0  0  0  0  0
  -22.7421  -31.2913   21.3811 H   0  0  0  0  0  0
  -23.3759  -35.9590   23.3292 H   0  0  0  0  0  0
  -24.3581  -36.8903   22.2058 H   0  0  0  0  0  0
  -23.7246  -37.6455   23.6682 H   0  0  0  0  0  0
  -26.1457  -31.4925   20.6126 H   0  0  0  0  0  0
  -26.8663  -30.7836   22.0238 H   0  0  0  0  0  0
  -28.1340  -28.8474   21.2204 H   0  0  0  0  0  0
  -25.9321  -25.8554   19.0151 H   0  0  0  0  0  0
  -23.9812  -27.2890   19.0002 H   0  0  0  0  0  0
  -23.7990  -30.5685   19.3970 H   0  0  0  0  0  0
  -22.7825  -29.2333   19.8460 H   0  0  0  0  0  0
  -25.1314  -36.1870   25.0809 H   0  0  0  0  0  0
  -21.0006  -28.3303   24.1364 H   0  0  0  0  0  0
  -20.5685  -26.2331   23.3625 H   0  0  0  0  0  0
  -21.6655  -26.7433   22.1201 H   0  0  0  0  0  0
  -19.6922  -25.6283   21.1260 H   0  0  0  0  0  0
  -19.6697  -27.3175   20.6735 H   0  0  0  0  0  0
  -17.4214  -26.6676   21.4027 H   0  0  0  0  0  0
  -18.0338  -26.0077   22.9026 H   0  0  0  0  0  0
  -19.7952  -30.7288   24.2238 H   0  0  0  0  0  0
  -17.5027  -31.6269   24.5162 H   0  0  0  0  0  0
  -15.5362  -30.2979   23.7669 H   0  0  0  0  0  0
  -15.8688  -28.0816   22.7075 H   0  0  0  0  0  0
  -24.5883  -30.7116   25.7717 H   0  0  0  0  0  0
  -24.8917  -32.2939   26.4786 H   0  0  0  0  0  0
  -25.7992  -30.8941   27.0204 H   0  0  0  0  0  0
  -26.3010  -29.6681   24.1271 H   0  0  0  0  0  0
  -27.4020  -29.7267   25.4831 H   0  0  0  0  0  0
  -27.8907  -30.4212   23.9572 H   0  0  0  0  0  0
  -27.2640  -33.3637   26.2032 H   0  0  0  0  0  0
  -28.3886  -32.6873   25.0341 H   0  0  0  0  0  0
  -28.0696  -31.8480   26.5444 H   0  0  0  0  0  0
  -28.2587  -38.0095   24.7513 H   0  0  0  0  0  0
  -28.1085  -36.2623   24.6288 H   0  0  0  0  0  0
  -27.2296  -37.1430   25.8868 H   0  0  0  0  0  0
  -20.9450  -29.8766   21.6809 H   0  0  0  0  0  0
  -26.0159  -38.2819   24.1406 H   0  0  0  0  0  0
  -31.1742  -23.0625   19.6331 H   0  0  0  0  0  0
  -30.7191  -24.7543   19.5009 H   0  0  0  0  0  0
  -30.0577  -23.5783   18.3731 H   0  0  0  0  0  0
  -30.4107  -22.9855   22.0787 H   0  0  0  0  0  0
  -28.7984  -23.5419   22.5072 H   0  0  0  0  0  0
  -30.0111  -24.6934   21.9682 H   0  0  0  0  0  0
  -28.6155  -16.8067   22.2417 H   0  0  0  0  0  0
  -27.9377  -15.3892   21.5376 H   0  0  0  0  0  0
  -27.8034  -16.8505   20.6733 H   0  0  0  0  0  0
  -30.4898  -20.6583   19.5309 H   0  0  0  0  0  0
  -30.3520  -20.7297   21.2467 H   0  0  0  0  0  0
  -28.5936  -18.8442   19.5520 H   0  0  0  0  0  0
  -28.6546  -18.9204   21.2739 H   0  0  0  0  0  0
  -27.9225  -21.7062   20.9162 H   0  0  0  0  0  0
  -28.2466  -21.7765   19.2306 H   0  0  0  0  0  0
  -31.0574  -17.7956   21.1389 H   0  0  0  0  0  0
  -30.8246  -17.6134   19.4364 H   0  0  0  0  0  0
  -27.1784  -24.4923   20.6633 H   0  0  0  0  0  0
  -27.7277  -24.5671   19.0245 H   0  0  0  0  0  0
  1 25  1  0  0  0
  1 30  2  0  0  0
  1 80  1  0  0  0
  2  3  1  0  0  0
  2 25  1  0  0  0
  2 81  1  0  0  0
  2 82  1  0  0  0
  3  4  1  0  0  0
  3 83  1  0  0  0
  3 84  1  0  0  0
  4  5  1  0  0  0
  4 85  1  0  0  0
  4 86  1  0  0  0
  5  6  1  0  0  0
  5 26  1  0  0  0
  5 87  1  0  0  0
  6 25  1  0  0  0
  6 88  1  0  0  0
  6 89  1  0  0  0
  7  8  2  0  0  0
  7 26  1  0  0  0
  7 29  1  0  0  0
  8  9  1  0  0  0
  8 22  1  0  0  0
  9 10  1  0  0  0
  9 27  2  0  0  0
 10 11  2  0  0  0
 10 15  1  0  0  0
 11 12  1  0  0  0
 11 90  1  0  0  0
 12 13  2  0  0  0
 12 91  1  0  0  0
 13 14  1  0  0  0
 13 31  1  0  0  0
 14 15  2  0  0  0
 14 92  1  0  0  0
 15 93  1  0  0  0
 16 17  2  0  0  0
 16 21  1  0  0  0
 16 31  1  0  0  0
 17 18  1  0  0  0
 17 94  1  0  0  0
 18 19  2  0  0  0
 18 95  1  0  0  0
 19 20  1  0  0  0
 19 24  1  0  0  0
 20 21  2  0  0  0
 20 96  1  0  0  0
 21 23  1  0  0  0
 22 28  1  0  0  0
 22 32  2  0  0  0
 26 27  1  0  0  0
 28 97  1  0  0  0
 28 98  1  0  0  0
 29 99  1  0  0  0
 29100  1  0  0  0
 33 34  1  0  0  0
 33 66  1  0  0  0
 33 70  2  0  0  0
 34 36  1  0  0  0
 34 59  1  0  0  0
 34101  1  0  0  0
 35 44  2  0  0  0
 35 45  1  0  0  0
 35 68  1  0  0  0
 36 56  1  0  0  0
 36102  1  0  0  0
 37 39  1  0  0  0
 37 47  1  0  0  0
 37 66  1  0  0  0
 37103  1  0  0  0
 38 43  2  0  0  0
 38 46  1  0  0  0
 38 47  1  0  0  0
 39 64  1  0  0  0
 39 67  2  0  0  0
 40 52  1  0  0  0
 40 53  2  0  0  0
 40 58  1  0  0  0
 41104  1  0  0  0
 41105  1  0  0  0
 41106  1  0  0  0
 41 48  1  0  0  0
 42 43  1  0  0  0
 42 66  1  0  0  0
 42107  1  0  0  0
 42108  1  0  0  0
 43 44  1  0  0  0
 44109  1  0  0  0
 45 46  2  0  0  0
 45110  1  0  0  0
 46111  1  0  0  0
 47112  1  0  0  0
 47113  1  0  0  0
 48 56  1  0  0  0
 48 65  1  0  0  0
 48114  1  0  0  0
 49 50  1  0  0  0
 49 53  1  0  0  0
 49 64  1  0  0  0
 49115  1  0  0  0
 50 51  1  0  0  0
 50116  1  0  0  0
 50117  1  0  0  0
 51 52  1  0  0  0
 51118  1  0  0  0
 51119  1  0  0  0
 52120  1  0  0  0
 52121  1  0  0  0
 53 54  1  0  0  0
 54 55  2  0  0  0
 54122  1  0  0  0
 55 57  1  0  0  0
 55123  1  0  0  0
 56 69  2  0  0  0
 57 58  2  0  0  0
 57124  1  0  0  0
 58125  1  0  0  0
 59 60  1  0  0  0
 59 61  1  0  0  0
 59 62  1  0  0  0
 60126  1  0  0  0
 60127  1  0  0  0
 60128  1  0  0  0
 61129  1  0  0  0
 61130  1  0  0  0
 61131  1  0  0  0
 62132  1  0  0  0
 62133  1  0  0  0
 62134  1  0  0  0
 63 65  1  0  0  0
 63135  1  0  0  0
 63136  1  0  0  0
 63137  1  0  0  0
 64138  1  0  0  0
 65139  1  0  0  0
 68 78  1  0  0  0
 71140  1  0  0  0
 71141  1  0  0  0
 71142  1  0  0  0
 71 79  1  0  0  0
 72 79  1  0  0  0
 72143  1  0  0  0
 72144  1  0  0  0
 72145  1  0  0  0
 73 80  1  0  0  0
 73146  1  0  0  0
 73147  1  0  0  0
 73148  1  0  0  0
 74 75  1  0  0  0
 74 76  1  0  0  0
 74149  1  0  0  0
 74150  1  0  0  0
 75 77  1  0  0  0
 75151  1  0  0  0
 75152  1  0  0  0
 76 79  1  0  0  0
 76153  1  0  0  0
 76154  1  0  0  0
 77 80  1  0  0  0
 77155  1  0  0  0
 77156  1  0  0  0
 78 79  1  0  0  0
 78157  1  0  0  0
 78158  1  0  0  0
M  ISO  4   1 100  68 101  78 101  80 100
M  END
> <chiral flag>
0

> <version>
0

> <s_m_source_file>
/data/baiqing/PycharmProjects/Reinvent-master-3.2/result/LINK_invent/BTK/process_docking_weight1_custom_sum_contain_oxygen_bond_distance_aromatic_linkinvent_7_9_3/rearranged_h_0015.sdf

> <i_m_source_file_index>
38

> <r_mmod_Potential_Energy-OPLS-2005>
598.322326660156

> <r_mmod_Stretch_Energy-OPLS-2005>
251.216369628906

> <r_mmod_Bend_Energy-OPLS-2005>
264.635589599609

> <r_mmod_Torsional_Energy-OPLS-2005>
267.015655517578

> <r_mmod_Improper_Torsional_Energy-OPLS-2005>
6.81319141387939

> <r_mmod_Van_der_Waal_Energy-OPLS-2005>
132.330764770508

> <r_mmod_Electrostatic_Energy-OPLS-2005>
-286.048828125

> <r_mmod_Solvation_Energy-OPLS-2005>
-191.045272827148

> <b_mmod_Minimization_Converged-OPLS-2005>
0

> <r_mmod_RMS_Derivative-OPLS-2005>
1.02004766464233

$$$$
39
                    3D
 Structure written by MMmdl.
156163  0  0  1  0            999 V2000
  -30.1665  -16.0125   20.3038 C   0  0  0  0  0  0
  -30.3929  -13.3733   19.5222 C   0  0  0  0  0  0
  -29.5592  -12.7539   18.3522 C   0  0  0  0  0  0
  -28.1677  -12.3113   18.8215 C   0  0  0  0  0  0
  -27.5832  -13.3432   19.8056 C   0  0  2  0  0  0
  -28.5795  -13.8384   20.8912 C   0  0  0  0  0  0
  -25.2247  -13.8295   20.5844 C   0  0  0  0  0  0
  -24.1683  -13.0402   20.9314 C   0  0  0  0  0  0
  -24.6450  -11.6940   20.8762 C   0  0  0  0  0  0
  -23.9158  -10.4279   21.0381 C   0  0  0  0  0  0
  -24.3675   -9.4194   21.9172 C   0  0  0  0  0  0
  -23.6317   -8.2248   22.0755 C   0  0  0  0  0  0
  -22.4296   -8.0292   21.3548 C   0  0  0  0  0  0
  -21.9952   -9.0269   20.4646 C   0  0  0  0  0  0
  -22.7313  -10.2128   20.3042 C   0  0  0  0  0  0
  -21.6859   -6.0744   22.5278 C   0  0  0  0  0  0
  -21.4020   -6.5646   23.8215 C   0  0  0  0  0  0
  -21.3660   -5.6795   24.9174 C   0  0  0  0  0  0
  -21.6043   -4.3059   24.7224 C   0  0  0  0  0  0
  -21.8817   -3.8152   23.4345 C   0  0  0  0  0  0
  -21.9193   -4.6970   22.3403 C   0  0  0  0  0  0
  -22.7686  -13.5114   21.1931 C   0  0  0  0  0  0
  -22.1662   -4.2154   21.0979 F   0  0  0  0  0  0
  -21.5626   -3.4540   25.7736 F   0  0  0  0  0  0
  -29.6798  -14.5848   20.1972 N   0  0  0  0  0  0
  -26.2764  -12.9719   20.3301 N   0  0  0  0  0  0
  -25.9415  -11.6747   20.5691 N   0  0  0  0  0  0
  -22.0361  -12.8094   22.0488 N   0  0  0  0  0  0
  -25.3698  -15.2033   20.4277 N   0  0  0  0  0  0
  -31.4131  -15.8593   20.2647 O   0  0  0  0  0  0
  -21.6651   -6.8893   21.4245 O   0  0  0  0  0  0
  -22.3352  -14.5409   20.6762 O   0  0  0  0  0  0
  -24.7086  -31.7708   23.1299 C   0  0  0  0  0  0
  -25.9542  -32.4327   23.7944 C   0  0  1  0  0  0
  -27.2374  -26.4419   20.2492 C   0  0  0  0  0  0
  -25.6009  -33.8165   24.1806 N   0  0  0  0  0  0
  -23.5463  -30.3609   21.4916 C   0  0  2  0  0  0
  -25.0042  -28.6435   20.1349 C   0  0  0  0  0  0
  -22.7878  -29.4164   22.4655 C   0  0  0  0  0  0
  -18.0360  -28.1439   22.8441 C   0  0  0  0  0  0
  -24.1501  -36.7097   23.2659 C   0  0  0  0  0  0
  -26.1376  -30.4185   21.4327 C   0  0  0  0  0  0
  -26.2004  -28.9522   20.7929 C   0  0  0  0  0  0
  -27.2917  -27.8912   20.8027 C   0  0  0  0  0  0
  -26.0008  -26.4070   19.5345 C   0  0  0  0  0  0
  -24.9588  -27.3986   19.4804 C   0  0  0  0  0  0
  -23.8146  -29.6323   20.1403 C   0  0  0  0  0  0
  -25.4161  -36.2815   24.0263 C   0  0  1  0  0  0
  -20.6004  -28.3811   23.1099 C   0  0  2  0  0  0
  -20.6814  -26.9446   22.5410 C   0  0  0  0  0  0
  -19.5794  -26.6364   21.5223 C   0  0  0  0  0  0
  -18.1976  -26.7961   22.1617 C   0  0  0  0  0  0
  -19.1631  -28.8955   23.2743 C   0  0  0  0  0  0
  -18.9530  -30.1532   23.8799 C   0  0  0  0  0  0
  -17.6514  -30.6612   24.0546 C   0  0  0  0  0  0
  -25.9153  -34.9210   23.4893 C   0  0  0  0  0  0
  -16.5404  -29.9088   23.6355 C   0  0  0  0  0  0
  -16.7336  -28.6515   23.0367 C   0  0  0  0  0  0
  -26.4633  -31.6468   25.0671 C   0  0  0  0  0  0
  -25.3623  -31.3857   26.1233 C   0  0  0  0  0  0
  -27.0601  -30.2778   24.6750 C   0  0  0  0  0  0
  -27.6037  -32.4385   25.7502 C   0  0  0  0  0  0
  -27.5561  -37.1707   24.8466 C   0  0  0  0  0  0
  -21.4502  -29.3007   22.3391 N   0  0  0  0  0  0
  -26.4267  -37.3601   23.9401 N   0  0  0  0  0  0
  -24.8244  -30.8897   22.0699 N   0  0  0  0  0  0
  -23.4199  -28.7804   23.3117 O   0  0  0  0  0  0
  -28.1998  -25.1279   20.2246 O   0  0  0  0  0  0
  -26.5832  -34.8835   22.4536 O   0  0  0  0  0  0
  -23.6048  -32.0901   23.6090 O   0  0  0  0  0  0
  -31.3641  -18.7984   22.2419 C   0  0  0  0  0  0
  -31.1734  -21.1298   21.4890 C   0  0  0  0  0  0
  -31.9000  -19.3971   19.8475 C   0  0  0  0  0  0
  -27.9985  -17.2605   20.0103 C   0  0  0  0  0  0
  -28.2145  -23.2528   20.5222 C   0  0  0  0  0  0
  -29.4679  -19.3855   20.5972 C   0  0  2  0  0  0
  -28.7240  -21.2682   20.0021 C   0  0  1  0  0  0
  -30.9521  -19.6693   21.0313 C   0  0  0  0  0  0
  -29.4113  -17.4910   20.2856 N   0  0  0  0  0  0
  -27.5153  -20.8550   19.3918 O   0  0  0  0  0  0
  -31.3464  -13.6991   19.1050 H   0  0  0  0  0  0
  -30.6627  -12.6100   20.2542 H   0  0  0  0  0  0
  -30.0927  -11.9155   17.9023 H   0  0  0  0  0  0
  -29.4481  -13.5020   17.5664 H   0  0  0  0  0  0
  -28.2689  -11.3488   19.3237 H   0  0  0  0  0  0
  -27.5016  -12.1528   17.9720 H   0  0  0  0  0  0
  -27.3886  -14.2070   19.1693 H   0  0  0  0  0  0
  -28.9346  -13.0220   21.5221 H   0  0  0  0  0  0
  -28.0759  -14.5333   21.5640 H   0  0  0  0  0  0
  -25.2812   -9.5662   22.4764 H   0  0  0  0  0  0
  -24.0008   -7.4642   22.7483 H   0  0  0  0  0  0
  -21.0881   -8.8805   19.8953 H   0  0  0  0  0  0
  -22.3773  -10.9673   19.6157 H   0  0  0  0  0  0
  -21.2019   -7.6155   23.9715 H   0  0  0  0  0  0
  -21.1480   -6.0529   25.9076 H   0  0  0  0  0  0
  -22.0592   -2.7614   23.2848 H   0  0  0  0  0  0
  -22.4018  -11.9783   22.4892 H   0  0  0  0  0  0
  -21.0962  -13.1079   22.2678 H   0  0  0  0  0  0
  -24.5901  -15.8402   20.5487 H   0  0  0  0  0  0
  -26.2106  -15.6605   20.1042 H   0  0  0  0  0  0
  -26.7652  -32.4739   23.0673 H   0  0  0  0  0  0
  -25.0011  -33.9160   24.9862 H   0  0  0  0  0  0
  -22.8864  -31.2047   21.2788 H   0  0  0  0  0  0
  -23.3783  -35.9404   23.3256 H   0  0  0  0  0  0
  -24.3557  -36.8839   22.2086 H   0  0  0  0  0  0
  -23.7244  -37.6241   23.6800 H   0  0  0  0  0  0
  -26.3639  -31.1227   20.6314 H   0  0  0  0  0  0
  -26.9802  -30.4996   22.1063 H   0  0  0  0  0  0
  -28.1958  -28.1538   21.3338 H   0  0  0  0  0  0
  -25.7921  -25.4866   19.0077 H   0  0  0  0  0  0
  -24.0643  -27.1481   18.9263 H   0  0  0  0  0  0
  -24.0142  -30.3798   19.3719 H   0  0  0  0  0  0
  -22.9132  -29.1141   19.8089 H   0  0  0  0  0  0
  -25.1384  -36.1547   25.0753 H   0  0  0  0  0  0
  -21.0078  -28.3456   24.1230 H   0  0  0  0  0  0
  -20.5667  -26.2437   23.3694 H   0  0  0  0  0  0
  -21.6672  -26.7358   22.1235 H   0  0  0  0  0  0
  -19.6946  -25.6251   21.1315 H   0  0  0  0  0  0
  -19.6745  -27.3123   20.6714 H   0  0  0  0  0  0
  -17.4246  -26.6705   21.4020 H   0  0  0  0  0  0
  -18.0356  -26.0133   22.9040 H   0  0  0  0  0  0
  -19.8002  -30.7376   24.2125 H   0  0  0  0  0  0
  -17.5061  -31.6280   24.5173 H   0  0  0  0  0  0
  -15.5400  -30.2957   23.7739 H   0  0  0  0  0  0
  -15.8738  -28.0802   22.7132 H   0  0  0  0  0  0
  -24.5847  -30.7178   25.7510 H   0  0  0  0  0  0
  -24.8772  -32.3100   26.4380 H   0  0  0  0  0  0
  -25.7728  -30.9187   27.0195 H   0  0  0  0  0  0
  -26.3362  -29.6319   24.1773 H   0  0  0  0  0  0
  -27.3959  -29.7327   25.5582 H   0  0  0  0  0  0
  -27.9369  -30.3850   24.0363 H   0  0  0  0  0  0
  -27.2553  -33.3788   26.1786 H   0  0  0  0  0  0
  -28.3991  -32.6783   25.0432 H   0  0  0  0  0  0
  -28.0548  -31.8711   26.5653 H   0  0  0  0  0  0
  -28.2535  -38.0039   24.7504 H   0  0  0  0  0  0
  -28.1098  -36.2557   24.6309 H   0  0  0  0  0  0
  -27.2270  -37.1354   25.8866 H   0  0  0  0  0  0
  -20.9871  -29.8617   21.6376 H   0  0  0  0  0  0
  -26.0077  -38.2641   24.1404 H   0  0  0  0  0  0
  -32.3756  -19.0351   22.5754 H   0  0  0  0  0  0
  -31.3655  -17.7339   22.0368 H   0  0  0  0  0  0
  -30.7017  -18.9621   23.0931 H   0  0  0  0  0  0
  -32.1591  -21.2612   21.9375 H   0  0  0  0  0  0
  -30.4430  -21.4323   22.2404 H   0  0  0  0  0  0
  -31.1371  -21.8424   20.6656 H   0  0  0  0  0  0
  -32.9335  -19.6356   20.1020 H   0  0  0  0  0  0
  -31.6314  -19.9996   18.9789 H   0  0  0  0  0  0
  -31.8847  -18.3559   19.5311 H   0  0  0  0  0  0
  -27.4911  -18.1703   19.6925 H   0  0  0  0  0  0
  -27.5050  -16.9022   20.9138 H   0  0  0  0  0  0
  -27.8569  -16.5308   19.2123 H   0  0  0  0  0  0
  -28.7734  -23.3020   21.4569 H   0  0  0  0  0  0
  -27.1885  -23.1250   20.8687 H   0  0  0  0  0  0
  -28.9119  -19.3415   21.5349 H   0  0  0  0  0  0
  -29.3928  -21.4686   19.1639 H   0  0  0  0  0  0
  -27.2448  -21.5463   18.7933 H   0  0  0  0  0  0
  1 25  1  0  0  0
  1 30  2  0  0  0
  1 79  1  0  0  0
  2  3  1  0  0  0
  2 25  1  0  0  0
  2 81  1  0  0  0
  2 82  1  0  0  0
  3  4  1  0  0  0
  3 83  1  0  0  0
  3 84  1  0  0  0
  4  5  1  0  0  0
  4 85  1  0  0  0
  4 86  1  0  0  0
  5  6  1  0  0  0
  5 26  1  0  0  0
  5 87  1  0  0  0
  6 25  1  0  0  0
  6 88  1  0  0  0
  6 89  1  0  0  0
  7  8  2  0  0  0
  7 26  1  0  0  0
  7 29  1  0  0  0
  8  9  1  0  0  0
  8 22  1  0  0  0
  9 10  1  0  0  0
  9 27  2  0  0  0
 10 11  2  0  0  0
 10 15  1  0  0  0
 11 12  1  0  0  0
 11 90  1  0  0  0
 12 13  2  0  0  0
 12 91  1  0  0  0
 13 14  1  0  0  0
 13 31  1  0  0  0
 14 15  2  0  0  0
 14 92  1  0  0  0
 15 93  1  0  0  0
 16 17  2  0  0  0
 16 21  1  0  0  0
 16 31  1  0  0  0
 17 18  1  0  0  0
 17 94  1  0  0  0
 18 19  2  0  0  0
 18 95  1  0  0  0
 19 20  1  0  0  0
 19 24  1  0  0  0
 20 21  2  0  0  0
 20 96  1  0  0  0
 21 23  1  0  0  0
 22 28  1  0  0  0
 22 32  2  0  0  0
 26 27  1  0  0  0
 28 97  1  0  0  0
 28 98  1  0  0  0
 29 99  1  0  0  0
 29100  1  0  0  0
 33 34  1  0  0  0
 33 66  1  0  0  0
 33 70  2  0  0  0
 34 36  1  0  0  0
 34 59  1  0  0  0
 34101  1  0  0  0
 35 44  2  0  0  0
 35 45  1  0  0  0
 35 68  1  0  0  0
 36 56  1  0  0  0
 36102  1  0  0  0
 37 39  1  0  0  0
 37 47  1  0  0  0
 37 66  1  0  0  0
 37103  1  0  0  0
 38 43  2  0  0  0
 38 46  1  0  0  0
 38 47  1  0  0  0
 39 64  1  0  0  0
 39 67  2  0  0  0
 40 52  1  0  0  0
 40 53  2  0  0  0
 40 58  1  0  0  0
 41104  1  0  0  0
 41105  1  0  0  0
 41106  1  0  0  0
 41 48  1  0  0  0
 42 43  1  0  0  0
 42 66  1  0  0  0
 42107  1  0  0  0
 42108  1  0  0  0
 43 44  1  0  0  0
 44109  1  0  0  0
 45 46  2  0  0  0
 45110  1  0  0  0
 46111  1  0  0  0
 47112  1  0  0  0
 47113  1  0  0  0
 48 56  1  0  0  0
 48 65  1  0  0  0
 48114  1  0  0  0
 49 50  1  0  0  0
 49 53  1  0  0  0
 49 64  1  0  0  0
 49115  1  0  0  0
 50 51  1  0  0  0
 50116  1  0  0  0
 50117  1  0  0  0
 51 52  1  0  0  0
 51118  1  0  0  0
 51119  1  0  0  0
 52120  1  0  0  0
 52121  1  0  0  0
 53 54  1  0  0  0
 54 55  2  0  0  0
 54122  1  0  0  0
 55 57  1  0  0  0
 55123  1  0  0  0
 56 69  2  0  0  0
 57 58  2  0  0  0
 57124  1  0  0  0
 58125  1  0  0  0
 59 60  1  0  0  0
 59 61  1  0  0  0
 59 62  1  0  0  0
 60126  1  0  0  0
 60127  1  0  0  0
 60128  1  0  0  0
 61129  1  0  0  0
 61130  1  0  0  0
 61131  1  0  0  0
 62132  1  0  0  0
 62133  1  0  0  0
 62134  1  0  0  0
 63 65  1  0  0  0
 63135  1  0  0  0
 63136  1  0  0  0
 63137  1  0  0  0
 64138  1  0  0  0
 65139  1  0  0  0
 68 75  1  0  0  0
 71140  1  0  0  0
 71141  1  0  0  0
 71142  1  0  0  0
 71 78  1  0  0  0
 72 78  1  0  0  0
 72143  1  0  0  0
 72144  1  0  0  0
 72145  1  0  0  0
 73 78  1  0  0  0
 73146  1  0  0  0
 73147  1  0  0  0
 73148  1  0  0  0
 74 79  1  0  0  0
 74149  1  0  0  0
 74150  1  0  0  0
 74151  1  0  0  0
 75 77  1  0  0  0
 75152  1  0  0  0
 75153  1  0  0  0
 76 77  1  0  0  0
 76 78  1  0  0  0
 76 79  1  0  0  0
 76154  1  0  0  0
 77 80  1  0  0  0
 77155  1  0  0  0
 80156  1  0  0  0
M  ISO  4   1 100  68 101  75 101  79 100
M  END
> <chiral flag>
0

> <version>
0

> <s_m_source_file>
/data/baiqing/PycharmProjects/Reinvent-master-3.2/result/LINK_invent/BTK/process_docking_weight1_custom_sum_contain_oxygen_bond_distance_aromatic_linkinvent_7_9_3/rearranged_h_0015.sdf

> <i_m_source_file_index>
39

> <r_mmod_Potential_Energy-OPLS-2005>
4344.1103515625

> <r_mmod_Stretch_Energy-OPLS-2005>
1968.69067382812

> <r_mmod_Bend_Energy-OPLS-2005>
898.70361328125

> <r_mmod_Torsional_Energy-OPLS-2005>
335.484497070312

> <r_mmod_Improper_Torsional_Energy-OPLS-2005>
4.36918830871582

> <r_mmod_Van_der_Waal_Energy-OPLS-2005>
118.041511535645

> <r_mmod_Electrostatic_Energy-OPLS-2005>
-301.373657226562

> <r_mmod_Solvation_Energy-OPLS-2005>
-212.386306762695

> <b_mmod_Minimization_Converged-OPLS-2005>
0

> <r_mmod_RMS_Derivative-OPLS-2005>
0.837023138999939

$$$$
40
                    3D
 Structure written by MMmdl.
186193  0  0  1  0            999 V2000
  -30.7148  -14.3995   20.6634 C   0  0  0  0  0  0
  -30.4460  -12.2881   19.4016 C   0  0  0  0  0  0
  -29.5017  -12.4977   18.1993 C   0  0  0  0  0  0
  -28.0204  -12.3665   18.6152 C   0  0  0  0  0  0
  -27.6779  -13.1886   19.8861 C   0  0  2  0  0  0
  -28.7162  -12.9045   20.9911 C   0  0  0  0  0  0
  -25.2702  -13.8157   20.5678 C   0  0  0  0  0  0
  -24.1909  -13.0446   20.9157 C   0  0  0  0  0  0
  -24.6432  -11.6928   20.8751 C   0  0  0  0  0  0
  -23.9099  -10.4314   21.0428 C   0  0  0  0  0  0
  -24.3637   -9.4220   21.9201 C   0  0  0  0  0  0
  -23.6302   -8.2254   22.0770 C   0  0  0  0  0  0
  -22.4286   -8.0290   21.3549 C   0  0  0  0  0  0
  -21.9932   -9.0285   20.4677 C   0  0  0  0  0  0
  -22.7274  -10.2155   20.3081 C   0  0  0  0  0  0
  -21.6850   -6.0741   22.5278 C   0  0  0  0  0  0
  -21.4030   -6.5644   23.8220 C   0  0  0  0  0  0
  -21.3657   -5.6785   24.9163 C   0  0  0  0  0  0
  -21.6034   -4.3053   24.7212 C   0  0  0  0  0  0
  -21.8832   -3.8152   23.4337 C   0  0  0  0  0  0
  -21.9208   -4.6975   22.3402 C   0  0  0  0  0  0
  -22.7940  -13.5294   21.1770 C   0  0  0  0  0  0
  -22.1667   -4.2173   21.0960 F   0  0  0  0  0  0
  -21.5621   -3.4523   25.7719 F   0  0  0  0  0  0
  -30.0542  -13.2303   20.4598 N   0  0  0  0  0  0
  -26.3108  -12.9257   20.3412 N   0  0  0  0  0  0
  -25.9353  -11.6446   20.5817 N   0  0  0  0  0  0
  -22.0537  -12.8316   22.0347 N   0  0  0  0  0  0
  -25.4518  -15.1841   20.4065 N   0  0  0  0  0  0
  -31.7812  -14.6929   20.1116 O   0  0  0  0  0  0
  -21.6636   -6.8890   21.4246 O   0  0  0  0  0  0
  -22.3653  -14.5586   20.6607 O   0  0  0  0  0  0
  -24.6090  -31.8742   23.2128 C   0  0  0  0  0  0
  -25.9018  -32.4842   23.8387 C   0  0  1  0  0  0
  -27.2422  -27.4933   20.0682 C   0  0  0  0  0  0
  -25.5891  -33.8648   24.2312 N   0  0  0  0  0  0
  -23.3929  -30.4949   21.5586 C   0  0  2  0  0  0
  -24.8325  -28.9674   20.1168 C   0  0  0  0  0  0
  -22.7412  -29.4680   22.5097 C   0  0  0  0  0  0
  -18.0271  -28.1381   22.8498 C   0  0  0  0  0  0
  -24.1477  -36.7322   23.2635 C   0  0  0  0  0  0
  -25.9150  -30.8532   21.3580 C   0  0  0  0  0  0
  -25.9917  -29.4935   20.6997 C   0  0  0  0  0  0
  -27.1983  -28.7668   20.6692 C   0  0  0  0  0  0
  -26.0625  -26.9656   19.4919 C   0  0  0  0  0  0
  -24.8607  -27.6988   19.5134 C   0  0  0  0  0  0
  -23.5887  -29.8229   20.1736 C   0  0  0  0  0  0
  -25.4106  -36.3130   24.0329 C   0  0  1  0  0  0
  -20.5860  -28.3648   23.1374 C   0  0  2  0  0  0
  -20.6775  -26.9378   22.5508 C   0  0  0  0  0  0
  -19.5749  -26.6310   21.5318 C   0  0  0  0  0  0
  -18.1930  -26.7899   22.1721 C   0  0  0  0  0  0
  -19.1521  -28.8848   23.2903 C   0  0  0  0  0  0
  -18.9432  -30.1481   23.8850 C   0  0  0  0  0  0
  -17.6417  -30.6581   24.0544 C   0  0  0  0  0  0
  -25.9034  -34.9498   23.5112 C   0  0  0  0  0  0
  -16.5309  -29.9058   23.6318 C   0  0  0  0  0  0
  -16.7252  -28.6484   23.0329 C   0  0  0  0  0  0
  -26.4459  -31.6591   25.0693 C   0  0  0  0  0  0
  -25.3756  -31.3696   26.1461 C   0  0  0  0  0  0
  -27.0265  -30.3016   24.6048 C   0  0  0  0  0  0
  -27.6011  -32.4334   25.7461 C   0  0  0  0  0  0
  -27.5576  -37.1813   24.8460 C   0  0  0  0  0  0
  -21.4147  -29.2992   22.3814 N   0  0  0  0  0  0
  -26.4301  -37.3810   23.9396 N   0  0  0  0  0  0
  -24.6570  -31.0897   22.0998 N   0  0  0  0  0  0
  -23.4223  -28.8264   23.3140 O   0  0  0  0  0  0
  -28.4470  -26.8295   20.0601 O   0  0  0  0  0  0
  -26.5612  -34.8955   22.4682 O   0  0  0  0  0  0
  -23.5299  -32.1477   23.7561 O   0  0  0  0  0  0
  -29.2747  -20.5869   23.9172 C   0  0  0  0  0  0
  -23.2927  -20.8328   22.3056 C   0  0  0  0  0  0
  -26.4882  -18.5217   24.6610 C   0  0  0  0  0  0
  -25.9083  -20.4760   26.1217 C   0  0  0  0  0  0
  -28.1051  -19.3509   26.3518 C   0  0  0  0  0  0
  -31.1137  -19.7161   22.5603 C   0  0  0  0  0  0
  -24.7537  -20.4921   22.6218 C   0  0  0  0  0  0
  -27.6662  -23.4895   21.6410 C   0  0  0  0  0  0
  -28.0136  -24.9813   21.5556 C   0  0  0  0  0  0
  -29.4293  -17.6378   21.3425 C   0  0  0  0  0  0
  -30.4417  -16.6033   21.8922 C   0  0  0  0  0  0
  -28.8419  -18.6559   22.3641 C   0  0  0  0  0  0
  -25.5171  -21.6960   23.2147 C   0  0  0  0  0  0
  -27.5348  -23.0163   23.0990 C   0  0  0  0  0  0
  -28.4319  -25.4130   20.1409 C   0  0  0  0  0  0
  -27.7680  -20.8560   24.3089 C   0  0  2  0  0  0
  -27.0538  -19.8165   25.2989 C   0  0  0  0  0  0
  -30.0835  -15.2388   21.4965 N   0  0  0  0  0  0
  -29.6910  -19.7123   22.9514 N   0  0  0  0  0  0
  -27.0161  -21.6123   23.2218 N   0  3  1  0  0  0
  -30.1110  -21.2760   24.5166 O   0  0  0  0  0  0
  -31.4860  -12.4132   19.0911 H   0  0  0  0  0  0
  -30.3763  -11.2623   19.7710 H   0  0  0  0  0  0
  -29.7314  -11.7720   17.4175 H   0  0  0  0  0  0
  -29.6795  -13.4852   17.7704 H   0  0  0  0  0  0
  -27.8211  -11.3097   18.8006 H   0  0  0  0  0  0
  -27.3727  -12.6532   17.7851 H   0  0  0  0  0  0
  -27.7497  -14.2469   19.6280 H   0  0  0  0  0  0
  -28.6904  -11.8511   21.2702 H   0  0  0  0  0  0
  -28.4644  -13.4408   21.9061 H   0  0  0  0  0  0
  -25.2778   -9.5678   22.4780 H   0  0  0  0  0  0
  -24.0014   -7.4652   22.7491 H   0  0  0  0  0  0
  -21.0860   -8.8842   19.8989 H   0  0  0  0  0  0
  -22.3769  -10.9700   19.6197 H   0  0  0  0  0  0
  -21.2022   -7.6156   23.9736 H   0  0  0  0  0  0
  -21.1455   -6.0493   25.9072 H   0  0  0  0  0  0
  -22.0617   -2.7625   23.2817 H   0  0  0  0  0  0
  -22.4078  -11.9952   22.4744 H   0  0  0  0  0  0
  -21.1180  -13.1442   22.2557 H   0  0  0  0  0  0
  -24.6980  -15.8503   20.5261 H   0  0  0  0  0  0
  -26.3068  -15.6122   20.0735 H   0  0  0  0  0  0
  -26.7087  -32.5547   23.1142 H   0  0  0  0  0  0
  -25.0026  -33.9780   25.0455 H   0  0  0  0  0  0
  -22.6735  -31.3045   21.4249 H   0  0  0  0  0  0
  -23.3736  -35.9657   23.3328 H   0  0  0  0  0  0
  -24.3565  -36.8920   22.2039 H   0  0  0  0  0  0
  -23.7225  -37.6539   23.6632 H   0  0  0  0  0  0
  -26.0270  -31.6215   20.5909 H   0  0  0  0  0  0
  -26.8019  -30.8959   21.9772 H   0  0  0  0  0  0
  -28.0937  -29.1823   21.1100 H   0  0  0  0  0  0
  -26.0443  -26.0033   19.0040 H   0  0  0  0  0  0
  -23.9711  -27.2823   19.0644 H   0  0  0  0  0  0
  -23.6790  -30.5937   19.4095 H   0  0  0  0  0  0
  -22.7161  -29.2302   19.8942 H   0  0  0  0  0  0
  -25.1284  -36.2007   25.0826 H   0  0  0  0  0  0
  -20.9930  -28.3228   24.1499 H   0  0  0  0  0  0
  -20.5695  -26.2272   23.3718 H   0  0  0  0  0  0
  -21.6647  -26.7383   22.1305 H   0  0  0  0  0  0
  -19.6860  -25.6187   21.1420 H   0  0  0  0  0  0
  -19.6726  -27.3086   20.6827 H   0  0  0  0  0  0
  -17.4194  -26.6612   21.4128 H   0  0  0  0  0  0
  -18.0327  -26.0091   22.9174 H   0  0  0  0  0  0
  -19.7894  -30.7333   24.2200 H   0  0  0  0  0  0
  -17.4924  -31.6233   24.5180 H   0  0  0  0  0  0
  -15.5308  -30.2929   23.7636 H   0  0  0  0  0  0
  -15.8660  -28.0773   22.7042 H   0  0  0  0  0  0
  -24.5884  -30.7081   25.7806 H   0  0  0  0  0  0
  -24.9017  -32.2880   26.4945 H   0  0  0  0  0  0
  -25.8152  -30.8823   27.0177 H   0  0  0  0  0  0
  -26.2782  -29.6792   24.1118 H   0  0  0  0  0  0
  -27.4024  -29.7228   25.4495 H   0  0  0  0  0  0
  -27.8625  -30.4280   23.9168 H   0  0  0  0  0  0
  -27.2557  -33.3584   26.2089 H   0  0  0  0  0  0
  -28.3788  -32.7004   25.0294 H   0  0  0  0  0  0
  -28.0717  -31.8470   26.5353 H   0  0  0  0  0  0
  -28.2629  -38.0083   24.7526 H   0  0  0  0  0  0
  -28.1055  -36.2630   24.6287 H   0  0  0  0  0  0
  -27.2304  -37.1464   25.8870 H   0  0  0  0  0  0
  -20.9320  -29.8670   21.6984 H   0  0  0  0  0  0
  -26.0199  -38.2898   24.1395 H   0  0  0  0  0  0
  -22.7954  -19.9924   21.8193 H   0  0  0  0  0  0
  -23.2150  -21.6913   21.6366 H   0  0  0  0  0  0
  -22.7353  -21.0622   23.2147 H   0  0  0  0  0  0
  -27.0475  -17.6339   24.9493 H   0  0  0  0  0  0
  -26.4898  -18.5553   23.5766 H   0  0  0  0  0  0
  -25.4595  -18.3124   24.9593 H   0  0  0  0  0  0
  -25.6999  -19.9094   27.0319 H   0  0  0  0  0  0
  -24.9614  -20.4900   25.5819 H   0  0  0  0  0  0
  -26.1330  -21.4987   26.4302 H   0  0  0  0  0  0
  -28.6499  -20.1755   26.8138 H   0  0  0  0  0  0
  -28.8508  -18.6947   25.9011 H   0  0  0  0  0  0
  -27.6524  -18.7668   27.1531 H   0  0  0  0  0  0
  -31.5734  -20.6999   22.6776 H   0  0  0  0  0  0
  -31.2690  -19.4725   21.5137 H   0  0  0  0  0  0
  -31.6846  -19.0129   23.1654 H   0  0  0  0  0  0
  -25.2457  -20.1336   21.7135 H   0  0  0  0  0  0
  -24.7026  -19.6656   23.3191 H   0  0  0  0  0  0
  -28.4410  -22.9038   21.1455 H   0  0  0  0  0  0
  -26.7462  -23.3184   21.0810 H   0  0  0  0  0  0
  -28.8303  -25.2206   22.2385 H   0  0  0  0  0  0
  -27.1576  -25.5689   21.8992 H   0  0  0  0  0  0
  -29.8414  -18.1340   20.4617 H   0  0  0  0  0  0
  -28.5647  -17.0828   20.9720 H   0  0  0  0  0  0
  -30.4513  -16.6165   22.9823 H   0  0  0  0  0  0
  -31.4486  -16.8661   21.5571 H   0  0  0  0  0  0
  -27.9727  -19.1270   21.9048 H   0  0  0  0  0  0
  -28.5008  -18.0434   23.1895 H   0  0  0  0  0  0
  -25.1135  -22.0442   24.1622 H   0  0  0  0  0  0
  -25.2488  -22.5133   22.5423 H   0  0  0  0  0  0
  -26.8923  -23.6988   23.6670 H   0  0  0  0  0  0
  -28.5179  -23.1458   23.5512 H   0  0  0  0  0  0
  -27.8191  -24.9490   19.3677 H   0  0  0  0  0  0
  -29.4508  -25.0705   19.9485 H   0  0  0  0  0  0
  -27.9025  -21.6607   25.0338 H   0  0  0  0  0  0
  -29.2191  -14.8772   21.8779 H   0  0  0  0  0  0
  -27.2718  -21.1554   22.3601 H   0  0  0  0  0  0
  1 25  1  0  0  0
  1 30  2  0  0  0
  1 88  1  0  0  0
  2  3  1  0  0  0
  2 25  1  0  0  0
  2 92  1  0  0  0
  2 93  1  0  0  0
  3  4  1  0  0  0
  3 94  1  0  0  0
  3 95  1  0  0  0
  4  5  1  0  0  0
  4 96  1  0  0  0
  4 97  1  0  0  0
  5  6  1  0  0  0
  5 26  1  0  0  0
  5 98  1  0  0  0
  6 25  1  0  0  0
  6 99  1  0  0  0
  6100  1  0  0  0
  7  8  2  0  0  0
  7 26  1  0  0  0
  7 29  1  0  0  0
  8  9  1  0  0  0
  8 22  1  0  0  0
  9 10  1  0  0  0
  9 27  2  0  0  0
 10 11  2  0  0  0
 10 15  1  0  0  0
 11 12  1  0  0  0
 11101  1  0  0  0
 12 13  2  0  0  0
 12102  1  0  0  0
 13 14  1  0  0  0
 13 31  1  0  0  0
 14 15  2  0  0  0
 14103  1  0  0  0
 15104  1  0  0  0
 16 17  2  0  0  0
 16 21  1  0  0  0
 16 31  1  0  0  0
 17 18  1  0  0  0
 17105  1  0  0  0
 18 19  2  0  0  0
 18106  1  0  0  0
 19 20  1  0  0  0
 19 24  1  0  0  0
 20 21  2  0  0  0
 20107  1  0  0  0
 21 23  1  0  0  0
 22 28  1  0  0  0
 22 32  2  0  0  0
 26 27  1  0  0  0
 28108  1  0  0  0
 28109  1  0  0  0
 29110  1  0  0  0
 29111  1  0  0  0
 33 34  1  0  0  0
 33 66  1  0  0  0
 33 70  2  0  0  0
 34 36  1  0  0  0
 34 59  1  0  0  0
 34112  1  0  0  0
 35 44  2  0  0  0
 35 45  1  0  0  0
 35 68  1  0  0  0
 36 56  1  0  0  0
 36113  1  0  0  0
 37 39  1  0  0  0
 37 47  1  0  0  0
 37 66  1  0  0  0
 37114  1  0  0  0
 38 43  2  0  0  0
 38 46  1  0  0  0
 38 47  1  0  0  0
 39 64  1  0  0  0
 39 67  2  0  0  0
 40 52  1  0  0  0
 40 53  2  0  0  0
 40 58  1  0  0  0
 41115  1  0  0  0
 41116  1  0  0  0
 41117  1  0  0  0
 41 48  1  0  0  0
 42 43  1  0  0  0
 42 66  1  0  0  0
 42118  1  0  0  0
 42119  1  0  0  0
 43 44  1  0  0  0
 44120  1  0  0  0
 45 46  2  0  0  0
 45121  1  0  0  0
 46122  1  0  0  0
 47123  1  0  0  0
 47124  1  0  0  0
 48 56  1  0  0  0
 48 65  1  0  0  0
 48125  1  0  0  0
 49 50  1  0  0  0
 49 53  1  0  0  0
 49 64  1  0  0  0
 49126  1  0  0  0
 50 51  1  0  0  0
 50127  1  0  0  0
 50128  1  0  0  0
 51 52  1  0  0  0
 51129  1  0  0  0
 51130  1  0  0  0
 52131  1  0  0  0
 52132  1  0  0  0
 53 54  1  0  0  0
 54 55  2  0  0  0
 54133  1  0  0  0
 55 57  1  0  0  0
 55134  1  0  0  0
 56 69  2  0  0  0
 57 58  2  0  0  0
 57135  1  0  0  0
 58136  1  0  0  0
 59 60  1  0  0  0
 59 61  1  0  0  0
 59 62  1  0  0  0
 60137  1  0  0  0
 60138  1  0  0  0
 60139  1  0  0  0
 61140  1  0  0  0
 61141  1  0  0  0
 61142  1  0  0  0
 62143  1  0  0  0
 62144  1  0  0  0
 62145  1  0  0  0
 63 65  1  0  0  0
 63146  1  0  0  0
 63147  1  0  0  0
 63148  1  0  0  0
 64149  1  0  0  0
 65150  1  0  0  0
 68 85  1  0  0  0
 71 89  1  0  0  0
 71 91  2  0  0  0
 71 86  1  0  0  0
 72 77  1  0  0  0
 72151  1  0  0  0
 72152  1  0  0  0
 72153  1  0  0  0
 73154  1  0  0  0
 73155  1  0  0  0
 73156  1  0  0  0
 73 87  1  0  0  0
 74 87  1  0  0  0
 74157  1  0  0  0
 74158  1  0  0  0
 74159  1  0  0  0
 75 87  1  0  0  0
 75160  1  0  0  0
 75161  1  0  0  0
 75162  1  0  0  0
 76 89  1  0  0  0
 76163  1  0  0  0
 76164  1  0  0  0
 76165  1  0  0  0
 77 83  1  0  0  0
 77166  1  0  0  0
 77167  1  0  0  0
 78 79  1  0  0  0
 78 84  1  0  0  0
 78168  1  0  0  0
 78169  1  0  0  0
 79 85  1  0  0  0
 79170  1  0  0  0
 79171  1  0  0  0
 80 81  1  0  0  0
 80 82  1  0  0  0
 80172  1  0  0  0
 80173  1  0  0  0
 81 88  1  0  0  0
 81174  1  0  0  0
 81175  1  0  0  0
 82 89  1  0  0  0
 82176  1  0  0  0
 82177  1  0  0  0
 83178  1  0  0  0
 83179  1  0  0  0
 83 90  1  0  0  0
 84 90  1  0  0  0
 84180  1  0  0  0
 84181  1  0  0  0
 85182  1  0  0  0
 85183  1  0  0  0
 86 87  1  0  0  0
 86 90  1  0  0  0
 86184  1  0  0  0
 88185  1  0  0  0
 90186  1  0  0  0
M  CHG  1  90   1
M  ISO  4   1 100  68 101  85 101  88 100
M  END
> <chiral flag>
0

> <version>
0

> <s_m_source_file>
/data/baiqing/PycharmProjects/Reinvent-master-3.2/result/LINK_invent/BTK/process_docking_weight1_custom_sum_contain_oxygen_bond_distance_aromatic_linkinvent_7_9_3/rearranged_h_0015.sdf

> <i_m_source_file_index>
40

> <r_mmod_Potential_Energy-OPLS-2005>
74.4093475341797

> <r_mmod_Stretch_Energy-OPLS-2005>
55.6191368103027

> <r_mmod_Bend_Energy-OPLS-2005>
195.341949462891

> <r_mmod_Torsional_Energy-OPLS-2005>
281.907470703125

> <r_mmod_Improper_Torsional_Energy-OPLS-2005>
2.26402544975281

> <r_mmod_Van_der_Waal_Energy-OPLS-2005>
176.245391845703

> <r_mmod_Electrostatic_Energy-OPLS-2005>
-209.257934570312

> <r_mmod_Solvation_Energy-OPLS-2005>
-437.108001708984

> <b_mmod_Minimization_Converged-OPLS-2005>
0

> <r_mmod_RMS_Derivative-OPLS-2005>
5.80017518997192

$$$$
41
                    3D
 Structure written by MMmdl.
163170  0  0  1  0            999 V2000
  -30.7245  -14.4276   20.6154 C   0  0  0  0  0  0
  -30.4227  -12.3019   19.4078 C   0  0  0  0  0  0
  -29.4942  -12.5260   18.1974 C   0  0  0  0  0  0
  -28.0128  -12.3872   18.6034 C   0  0  0  0  0  0
  -27.6641  -13.2087   19.8735 C   0  0  2  0  0  0
  -28.7037  -12.9606   20.9901 C   0  0  0  0  0  0
  -25.2593  -13.8155   20.5645 C   0  0  0  0  0  0
  -24.1851  -13.0429   20.9149 C   0  0  0  0  0  0
  -24.6412  -11.6902   20.8700 C   0  0  0  0  0  0
  -23.9077  -10.4290   21.0379 C   0  0  0  0  0  0
  -24.3624   -9.4211   21.9165 C   0  0  0  0  0  0
  -23.6309   -8.2241   22.0752 C   0  0  0  0  0  0
  -22.4283   -8.0271   21.3547 C   0  0  0  0  0  0
  -21.9911   -9.0244   20.4649 C   0  0  0  0  0  0
  -22.7238  -10.2125   20.3038 C   0  0  0  0  0  0
  -21.6849   -6.0727   22.5296 C   0  0  0  0  0  0
  -21.4007   -6.5643   23.8229 C   0  0  0  0  0  0
  -21.3664   -5.6798   24.9197 C   0  0  0  0  0  0
  -21.6041   -4.3060   24.7237 C   0  0  0  0  0  0
  -21.8825   -3.8143   23.4364 C   0  0  0  0  0  0
  -21.9195   -4.6956   22.3420 C   0  0  0  0  0  0
  -22.7874  -13.5227   21.1825 C   0  0  0  0  0  0
  -22.1661   -4.2137   21.0992 F   0  0  0  0  0  0
  -21.5637   -3.4552   25.7756 F   0  0  0  0  0  0
  -30.0412  -13.2646   20.4499 N   0  0  0  0  0  0
  -26.3034  -12.9334   20.3324 N   0  0  0  0  0  0
  -25.9334  -11.6491   20.5720 N   0  0  0  0  0  0
  -22.0516  -12.8230   22.0392 N   0  0  0  0  0  0
  -25.4329  -15.1863   20.4060 N   0  0  0  0  0  0
  -31.8187  -14.6522   20.0881 O   0  0  0  0  0  0
  -21.6643   -6.8866   21.4254 O   0  0  0  0  0  0
  -22.3563  -14.5545   20.6687 O   0  0  0  0  0  0
  -24.6135  -31.8694   23.2112 C   0  0  0  0  0  0
  -25.9039  -32.4832   23.8394 C   0  0  1  0  0  0
  -27.2438  -27.4649   20.0790 C   0  0  0  0  0  0
  -25.5901  -33.8630   24.2334 N   0  0  0  0  0  0
  -23.4019  -30.4905   21.5526 C   0  0  2  0  0  0
  -24.8521  -28.9612   20.1153 C   0  0  0  0  0  0
  -22.7416  -29.4652   22.5025 C   0  0  0  0  0  0
  -18.0270  -28.1361   22.8497 C   0  0  0  0  0  0
  -24.1488  -36.7313   23.2638 C   0  0  0  0  0  0
  -25.9289  -30.8458   21.3585 C   0  0  0  0  0  0
  -26.0128  -29.4834   20.7014 C   0  0  0  0  0  0
  -27.2175  -28.7441   20.6792 C   0  0  0  0  0  0
  -26.0664  -26.9440   19.5093 C   0  0  0  0  0  0
  -24.8718  -27.6897   19.5149 C   0  0  0  0  0  0
  -23.6088  -29.8215   20.1673 C   0  0  0  0  0  0
  -25.4107  -36.3117   24.0342 C   0  0  1  0  0  0
  -20.5863  -28.3646   23.1335 C   0  0  2  0  0  0
  -20.6761  -26.9385   22.5423 C   0  0  0  0  0  0
  -19.5741  -26.6377   21.5215 C   0  0  0  0  0  0
  -18.1920  -26.7911   22.1625 C   0  0  0  0  0  0
  -19.1519  -28.8825   23.2905 C   0  0  0  0  0  0
  -18.9446  -30.1435   23.8907 C   0  0  0  0  0  0
  -17.6446  -30.6573   24.0561 C   0  0  0  0  0  0
  -25.9035  -34.9481   23.5135 C   0  0  0  0  0  0
  -16.5340  -29.9073   23.6315 C   0  0  0  0  0  0
  -16.7261  -28.6488   23.0346 C   0  0  0  0  0  0
  -26.4463  -31.6601   25.0716 C   0  0  0  0  0  0
  -25.3735  -31.3700   26.1470 C   0  0  0  0  0  0
  -27.0284  -30.3054   24.6058 C   0  0  0  0  0  0
  -27.6046  -32.4310   25.7478 C   0  0  0  0  0  0
  -27.5582  -37.1811   24.8466 C   0  0  0  0  0  0
  -21.4148  -29.3016   22.3761 N   0  0  0  0  0  0
  -26.4296  -37.3798   23.9411 N   0  0  0  0  0  0
  -24.6666  -31.0808   22.0999 N   0  0  0  0  0  0
  -23.4202  -28.8204   23.3063 O   0  0  0  0  0  0
  -28.3637  -26.6714   20.0659 O   0  0  0  0  0  0
  -26.5591  -34.8932   22.4692 O   0  0  0  0  0  0
  -23.5333  -32.1441   23.7516 O   0  0  0  0  0  0
  -30.2185  -17.5832   20.1502 C   0  0  0  0  0  0
  -30.0806  -26.0507   18.5106 C   0  0  0  0  0  0
  -32.6656  -24.3462   17.8487 C   0  0  0  0  0  0
  -30.5142  -16.7757   21.4282 C   0  0  0  0  0  0
  -29.5001  -27.1791   19.3787 C   0  0  0  0  0  0
  -30.4190  -21.9408   20.0155 C   0  0  0  0  0  0
  -29.8907  -20.8800   19.0206 C   0  0  0  0  0  0
  -31.6401  -22.7598   19.5360 C   0  0  0  0  0  0
  -30.7804  -19.6297   18.8244 C   0  0  0  0  0  0
  -31.3512  -23.8820   18.5062 C   0  0  1  0  0  0
  -30.8432  -18.7627   20.0070 N   0  0  0  0  0  0
  -30.6742  -25.0220   19.1410 N   0  0  0  0  0  0
  -30.0948  -15.3709   21.3276 N   0  0  0  0  0  0
  -29.4302  -17.1456   19.3084 O   0  0  0  0  0  0
  -29.9925  -26.1120   17.2808 O   0  0  0  0  0  0
  -31.4677  -12.4021   19.1081 H   0  0  0  0  0  0
  -30.3181  -11.2839   19.7851 H   0  0  0  0  0  0
  -29.7374  -11.8212   17.4006 H   0  0  0  0  0  0
  -29.6660  -13.5222   17.7875 H   0  0  0  0  0  0
  -27.8118  -11.3300   18.7764 H   0  0  0  0  0  0
  -27.3679  -12.6877   17.7758 H   0  0  0  0  0  0
  -27.7160  -14.2623   19.5955 H   0  0  0  0  0  0
  -28.6745  -11.9159   21.3028 H   0  0  0  0  0  0
  -28.4605  -13.5352   21.8839 H   0  0  0  0  0  0
  -25.2762   -9.5712   22.4740 H   0  0  0  0  0  0
  -24.0027   -7.4644   22.7482 H   0  0  0  0  0  0
  -21.0829   -8.8754   19.8972 H   0  0  0  0  0  0
  -22.3676  -10.9655   19.6148 H   0  0  0  0  0  0
  -21.1991   -7.6150   23.9735 H   0  0  0  0  0  0
  -21.1476   -6.0525   25.9104 H   0  0  0  0  0  0
  -22.0595   -2.7602   23.2877 H   0  0  0  0  0  0
  -22.4109  -11.9876   22.4761 H   0  0  0  0  0  0
  -21.1145  -13.1287   22.2600 H   0  0  0  0  0  0
  -24.6684  -15.8450   20.5102 H   0  0  0  0  0  0
  -26.2918  -15.6239   20.0933 H   0  0  0  0  0  0
  -26.7124  -32.5558   23.1174 H   0  0  0  0  0  0
  -25.0064  -33.9787   25.0487 H   0  0  0  0  0  0
  -22.6888  -31.3065   21.4148 H   0  0  0  0  0  0
  -23.3748  -35.9647   23.3312 H   0  0  0  0  0  0
  -24.3587  -36.8909   22.2051 H   0  0  0  0  0  0
  -23.7242  -37.6524   23.6638 H   0  0  0  0  0  0
  -26.0373  -31.6170   20.5945 H   0  0  0  0  0  0
  -26.8180  -30.8983   21.9757 H   0  0  0  0  0  0
  -28.1140  -29.1450   21.1303 H   0  0  0  0  0  0
  -26.0780  -25.9616   19.0589 H   0  0  0  0  0  0
  -23.9792  -27.2796   19.0636 H   0  0  0  0  0  0
  -23.7107  -30.5969   19.4066 H   0  0  0  0  0  0
  -22.7351  -29.2362   19.8756 H   0  0  0  0  0  0
  -25.1284  -36.1976   25.0834 H   0  0  0  0  0  0
  -20.9939  -28.3188   24.1462 H   0  0  0  0  0  0
  -20.5664  -26.2247   23.3601 H   0  0  0  0  0  0
  -21.6632  -26.7433   22.1213 H   0  0  0  0  0  0
  -19.6899  -25.6294   21.1228 H   0  0  0  0  0  0
  -19.6677  -27.3200   20.6757 H   0  0  0  0  0  0
  -17.4194  -26.6672   21.4016 H   0  0  0  0  0  0
  -18.0307  -26.0042   22.9007 H   0  0  0  0  0  0
  -19.7926  -30.7245   24.2279 H   0  0  0  0  0  0
  -17.5004  -31.6254   24.5156 H   0  0  0  0  0  0
  -15.5338  -30.2975   23.7632 H   0  0  0  0  0  0
  -15.8666  -28.0807   22.7051 H   0  0  0  0  0  0
  -24.5905  -30.7047   25.7808 H   0  0  0  0  0  0
  -24.8922  -32.2852   26.4930 H   0  0  0  0  0  0
  -25.8092  -30.8862   27.0222 H   0  0  0  0  0  0
  -26.2817  -29.6833   24.1115 H   0  0  0  0  0  0
  -27.4080  -29.7262   25.4482 H   0  0  0  0  0  0
  -27.8633  -30.4388   23.9181 H   0  0  0  0  0  0
  -27.2674  -33.3601   26.2081 H   0  0  0  0  0  0
  -28.3840  -32.6883   25.0298 H   0  0  0  0  0  0
  -28.0728  -31.8419   26.5371 H   0  0  0  0  0  0
  -28.2608  -38.0100   24.7514 H   0  0  0  0  0  0
  -28.1069  -36.2635   24.6286 H   0  0  0  0  0  0
  -27.2305  -37.1454   25.8871 H   0  0  0  0  0  0
  -20.9319  -29.8743   21.6985 H   0  0  0  0  0  0
  -26.0185  -38.2879   24.1398 H   0  0  0  0  0  0
  -33.2026  -23.5090   17.4026 H   0  0  0  0  0  0
  -33.3322  -24.8152   18.5733 H   0  0  0  0  0  0
  -32.4851  -25.0649   17.0493 H   0  0  0  0  0  0
  -29.9898  -17.2392   22.2634 H   0  0  0  0  0  0
  -31.5797  -16.8303   21.6579 H   0  0  0  0  0  0
  -29.2490  -28.0312   18.7442 H   0  0  0  0  0  0
  -30.2453  -27.5181   20.0990 H   0  0  0  0  0  0
  -30.6766  -21.4401   20.9494 H   0  0  0  0  0  0
  -29.6117  -22.6292   20.2687 H   0  0  0  0  0  0
  -29.7239  -21.3503   18.0507 H   0  0  0  0  0  0
  -28.9045  -20.5503   19.3500 H   0  0  0  0  0  0
  -32.3864  -22.0728   19.1349 H   0  0  0  0  0  0
  -32.1190  -23.2074   20.4085 H   0  0  0  0  0  0
  -31.7948  -19.9238   18.5559 H   0  0  0  0  0  0
  -30.4168  -19.0646   17.9640 H   0  0  0  0  0  0
  -30.7053  -23.4815   17.7222 H   0  0  0  0  0  0
  -31.4663  -19.0487   20.7510 H   0  0  0  0  0  0
  -30.6717  -25.0536   20.1525 H   0  0  0  0  0  0
  -29.1889  -15.1349   21.7014 H   0  0  0  0  0  0
  1 25  1  0  0  0
  1 30  2  0  0  0
  1 83  1  0  0  0
  2  3  1  0  0  0
  2 25  1  0  0  0
  2 86  1  0  0  0
  2 87  1  0  0  0
  3  4  1  0  0  0
  3 88  1  0  0  0
  3 89  1  0  0  0
  4  5  1  0  0  0
  4 90  1  0  0  0
  4 91  1  0  0  0
  5  6  1  0  0  0
  5 26  1  0  0  0
  5 92  1  0  0  0
  6 25  1  0  0  0
  6 93  1  0  0  0
  6 94  1  0  0  0
  7  8  2  0  0  0
  7 26  1  0  0  0
  7 29  1  0  0  0
  8  9  1  0  0  0
  8 22  1  0  0  0
  9 10  1  0  0  0
  9 27  2  0  0  0
 10 11  2  0  0  0
 10 15  1  0  0  0
 11 12  1  0  0  0
 11 95  1  0  0  0
 12 13  2  0  0  0
 12 96  1  0  0  0
 13 14  1  0  0  0
 13 31  1  0  0  0
 14 15  2  0  0  0
 14 97  1  0  0  0
 15 98  1  0  0  0
 16 17  2  0  0  0
 16 21  1  0  0  0
 16 31  1  0  0  0
 17 18  1  0  0  0
 17 99  1  0  0  0
 18 19  2  0  0  0
 18100  1  0  0  0
 19 20  1  0  0  0
 19 24  1  0  0  0
 20 21  2  0  0  0
 20101  1  0  0  0
 21 23  1  0  0  0
 22 28  1  0  0  0
 22 32  2  0  0  0
 26 27  1  0  0  0
 28102  1  0  0  0
 28103  1  0  0  0
 29104  1  0  0  0
 29105  1  0  0  0
 33 34  1  0  0  0
 33 66  1  0  0  0
 33 70  2  0  0  0
 34 36  1  0  0  0
 34 59  1  0  0  0
 34106  1  0  0  0
 35 44  2  0  0  0
 35 45  1  0  0  0
 35 68  1  0  0  0
 36 56  1  0  0  0
 36107  1  0  0  0
 37 39  1  0  0  0
 37 47  1  0  0  0
 37 66  1  0  0  0
 37108  1  0  0  0
 38 43  2  0  0  0
 38 46  1  0  0  0
 38 47  1  0  0  0
 39 64  1  0  0  0
 39 67  2  0  0  0
 40 52  1  0  0  0
 40 53  2  0  0  0
 40 58  1  0  0  0
 41109  1  0  0  0
 41110  1  0  0  0
 41111  1  0  0  0
 41 48  1  0  0  0
 42 43  1  0  0  0
 42 66  1  0  0  0
 42112  1  0  0  0
 42113  1  0  0  0
 43 44  1  0  0  0
 44114  1  0  0  0
 45 46  2  0  0  0
 45115  1  0  0  0
 46116  1  0  0  0
 47117  1  0  0  0
 47118  1  0  0  0
 48 56  1  0  0  0
 48 65  1  0  0  0
 48119  1  0  0  0
 49 50  1  0  0  0
 49 53  1  0  0  0
 49 64  1  0  0  0
 49120  1  0  0  0
 50 51  1  0  0  0
 50121  1  0  0  0
 50122  1  0  0  0
 51 52  1  0  0  0
 51123  1  0  0  0
 51124  1  0  0  0
 52125  1  0  0  0
 52126  1  0  0  0
 53 54  1  0  0  0
 54 55  2  0  0  0
 54127  1  0  0  0
 55 57  1  0  0  0
 55128  1  0  0  0
 56 69  2  0  0  0
 57 58  2  0  0  0
 57129  1  0  0  0
 58130  1  0  0  0
 59 60  1  0  0  0
 59 61  1  0  0  0
 59 62  1  0  0  0
 60131  1  0  0  0
 60132  1  0  0  0
 60133  1  0  0  0
 61134  1  0  0  0
 61135  1  0  0  0
 61136  1  0  0  0
 62137  1  0  0  0
 62138  1  0  0  0
 62139  1  0  0  0
 63 65  1  0  0  0
 63140  1  0  0  0
 63141  1  0  0  0
 63142  1  0  0  0
 64143  1  0  0  0
 65144  1  0  0  0
 68 75  1  0  0  0
 71 74  1  0  0  0
 71 81  1  0  0  0
 71 84  2  0  0  0
 72 75  1  0  0  0
 72 82  1  0  0  0
 72 85  2  0  0  0
 73145  1  0  0  0
 73146  1  0  0  0
 73147  1  0  0  0
 73 80  1  0  0  0
 74 83  1  0  0  0
 74148  1  0  0  0
 74149  1  0  0  0
 75150  1  0  0  0
 75151  1  0  0  0
 76 77  1  0  0  0
 76 78  1  0  0  0
 76152  1  0  0  0
 76153  1  0  0  0
 77 79  1  0  0  0
 77154  1  0  0  0
 77155  1  0  0  0
 78 80  1  0  0  0
 78156  1  0  0  0
 78157  1  0  0  0
 79 81  1  0  0  0
 79158  1  0  0  0
 79159  1  0  0  0
 80 82  1  0  0  0
 80160  1  0  0  0
 81161  1  0  0  0
 82162  1  0  0  0
 83163  1  0  0  0
M  ISO  4   1 100  68 101  75 101  83 100
M  END
> <chiral flag>
0

> <version>
0

> <s_m_source_file>
/data/baiqing/PycharmProjects/Reinvent-master-3.2/result/LINK_invent/BTK/process_docking_weight1_custom_sum_contain_oxygen_bond_distance_aromatic_linkinvent_7_9_3/rearranged_h_0015.sdf

> <i_m_source_file_index>
41

> <r_mmod_Potential_Energy-OPLS-2005>
-307.295349121094

> <r_mmod_Stretch_Energy-OPLS-2005>
33.9968070983887

> <r_mmod_Bend_Energy-OPLS-2005>
94.1945571899414

> <r_mmod_Torsional_Energy-OPLS-2005>
221.90559387207

> <r_mmod_Improper_Torsional_Energy-OPLS-2005>
2.69078636169434

> <r_mmod_Van_der_Waal_Energy-OPLS-2005>
131.592727661133

> <r_mmod_Electrostatic_Energy-OPLS-2005>
-543.084411621094

> <r_mmod_Solvation_Energy-OPLS-2005>
-257.472869873047

> <b_mmod_Minimization_Converged-OPLS-2005>
0

> <r_mmod_RMS_Derivative-OPLS-2005>
2.12770748138428

$$$$
42
                    3D
 Structure written by MMmdl.
143150  0  0  1  0            999 V2000
  -30.1636  -16.0165   20.2837 C   0  0  0  0  0  0
  -30.4021  -13.3807   19.5097 C   0  0  0  0  0  0
  -29.5672  -12.7447   18.3499 C   0  0  0  0  0  0
  -28.1808  -12.2975   18.8321 C   0  0  0  0  0  0
  -27.5888  -13.3376   19.8001 C   0  0  2  0  0  0
  -28.5861  -13.8471   20.8777 C   0  0  0  0  0  0
  -25.2337  -13.8308   20.5832 C   0  0  0  0  0  0
  -24.1745  -13.0427   20.9297 C   0  0  0  0  0  0
  -24.6485  -11.6955   20.8763 C   0  0  0  0  0  0
  -23.9183  -10.4297   21.0405 C   0  0  0  0  0  0
  -24.3690   -9.4205   21.9200 C   0  0  0  0  0  0
  -23.6323   -8.2263   22.0773 C   0  0  0  0  0  0
  -22.4301   -8.0322   21.3557 C   0  0  0  0  0  0
  -21.9971   -9.0311   20.4658 C   0  0  0  0  0  0
  -22.7347  -10.2160   20.3056 C   0  0  0  0  0  0
  -21.6865   -6.0767   22.5277 C   0  0  0  0  0  0
  -21.4023   -6.5660   23.8211 C   0  0  0  0  0  0
  -21.3650   -5.6801   24.9170 C   0  0  0  0  0  0
  -21.6034   -4.3069   24.7210 C   0  0  0  0  0  0
  -21.8818   -3.8167   23.4328 C   0  0  0  0  0  0
  -21.9194   -4.6989   22.3390 C   0  0  0  0  0  0
  -22.7748  -13.5156   21.1899 C   0  0  0  0  0  0
  -22.1667   -4.2180   21.0968 F   0  0  0  0  0  0
  -21.5617   -3.4544   25.7721 F   0  0  0  0  0  0
  -29.6793  -14.5908   20.1704 N   0  0  0  0  0  0
  -26.2827  -12.9698   20.3296 N   0  0  0  0  0  0
  -25.9450  -11.6736   20.5678 N   0  0  0  0  0  0
  -22.0376  -12.8144   22.0431 N   0  0  0  0  0  0
  -25.3914  -15.2038   20.4227 N   0  0  0  0  0  0
  -31.4110  -15.8730   20.3150 O   0  0  0  0  0  0
  -21.6650   -6.8922   21.4243 O   0  0  0  0  0  0
  -22.3446  -14.5464   20.6738 O   0  0  0  0  0  0
  -24.7056  -31.7721   23.1279 C   0  0  0  0  0  0
  -25.9532  -32.4316   23.7901 C   0  0  1  0  0  0
  -27.2397  -26.4470   20.2423 C   0  0  0  0  0  0
  -25.6018  -33.8158   24.1777 N   0  0  0  0  0  0
  -23.5424  -30.3631   21.4905 C   0  0  2  0  0  0
  -25.0002  -28.6446   20.1351 C   0  0  0  0  0  0
  -22.7854  -29.4187   22.4644 C   0  0  0  0  0  0
  -18.0371  -28.1416   22.8423 C   0  0  0  0  0  0
  -24.1517  -36.7085   23.2660 C   0  0  0  0  0  0
  -26.1337  -30.4200   21.4327 C   0  0  0  0  0  0
  -26.1981  -28.9547   20.7902 C   0  0  0  0  0  0
  -27.2916  -27.8963   20.7967 C   0  0  0  0  0  0
  -26.0015  -26.4115   19.5305 C   0  0  0  0  0  0
  -24.9557  -27.3989   19.4822 C   0  0  0  0  0  0
  -23.8105  -29.6337   20.1397 C   0  0  0  0  0  0
  -25.4171  -36.2793   24.0256 C   0  0  1  0  0  0
  -20.6014  -28.3800   23.1070 C   0  0  2  0  0  0
  -20.6839  -26.9442   22.5381 C   0  0  0  0  0  0
  -19.5827  -26.6358   21.5191 C   0  0  0  0  0  0
  -18.2003  -26.7940   22.1583 C   0  0  0  0  0  0
  -19.1638  -28.8931   23.2716 C   0  0  0  0  0  0
  -18.9548  -30.1508   23.8772 C   0  0  0  0  0  0
  -17.6539  -30.6592   24.0541 C   0  0  0  0  0  0
  -25.9163  -34.9196   23.4875 C   0  0  0  0  0  0
  -16.5425  -29.9075   23.6350 C   0  0  0  0  0  0
  -16.7348  -28.6498   23.0359 C   0  0  0  0  0  0
  -26.4636  -31.6450   25.0620 C   0  0  0  0  0  0
  -25.3610  -31.3840   26.1159 C   0  0  0  0  0  0
  -27.0610  -30.2754   24.6715 C   0  0  0  0  0  0
  -27.6057  -32.4362   25.7419 C   0  0  0  0  0  0
  -27.5566  -37.1691   24.8469 C   0  0  0  0  0  0
  -21.4482  -29.3015   22.3371 N   0  0  0  0  0  0
  -26.4271  -37.3581   23.9410 N   0  0  0  0  0  0
  -24.8204  -30.8911   22.0685 N   0  0  0  0  0  0
  -23.4189  -28.7845   23.3110 O   0  0  0  0  0  0
  -28.2103  -25.1382   20.2091 O   0  0  0  0  0  0
  -26.5834  -34.8827   22.4520 O   0  0  0  0  0  0
  -23.6030  -32.0923   23.6086 O   0  0  0  0  0  0
  -28.1464  -17.3478   19.4672 C   0  0  0  0  0  0
  -28.8124  -21.3013   19.9737 C   0  0  0  0  0  0
  -29.3809  -19.3622   20.5689 C   0  0  0  0  0  0
  -28.2518  -23.2636   20.5080 C   0  0  0  0  0  0
  -29.4090  -17.4905   20.1879 N   0  0  0  0  0  0
  -31.3491  -13.7206   19.0871 H   0  0  0  0  0  0
  -30.6891  -12.6298   20.2484 H   0  0  0  0  0  0
  -30.1007  -11.9032   17.9056 H   0  0  0  0  0  0
  -29.4507  -13.4882   17.5599 H   0  0  0  0  0  0
  -28.2969  -11.3475   19.3561 H   0  0  0  0  0  0
  -27.5119  -12.1116   17.9905 H   0  0  0  0  0  0
  -27.3888  -14.1854   19.1460 H   0  0  0  0  0  0
  -28.9521  -13.0395   21.5131 H   0  0  0  0  0  0
  -28.0824  -14.5461   21.5462 H   0  0  0  0  0  0
  -25.2818   -9.5670   22.4811 H   0  0  0  0  0  0
  -24.0006   -7.4646   22.7503 H   0  0  0  0  0  0
  -21.0901   -8.8859   19.8964 H   0  0  0  0  0  0
  -22.3825  -10.9720   19.6176 H   0  0  0  0  0  0
  -21.2033   -7.6171   23.9723 H   0  0  0  0  0  0
  -21.1463   -6.0535   25.9069 H   0  0  0  0  0  0
  -22.0599   -2.7631   23.2819 H   0  0  0  0  0  0
  -22.3953  -11.9803   22.4832 H   0  0  0  0  0  0
  -21.0994  -13.1198   22.2586 H   0  0  0  0  0  0
  -24.6180  -15.8537   20.5135 H   0  0  0  0  0  0
  -26.2365  -15.6377   20.0778 H   0  0  0  0  0  0
  -26.7628  -32.4715   23.0604 H   0  0  0  0  0  0
  -25.0022  -33.9142   24.9835 H   0  0  0  0  0  0
  -22.8827  -31.2078   21.2796 H   0  0  0  0  0  0
  -23.3793  -35.9400   23.3237 H   0  0  0  0  0  0
  -24.3589  -36.8852   22.2098 H   0  0  0  0  0  0
  -23.7284  -37.6231   23.6819 H   0  0  0  0  0  0
  -26.3696  -31.1317   20.6405 H   0  0  0  0  0  0
  -26.9701  -30.4928   22.1139 H   0  0  0  0  0  0
  -28.1969  -28.1645   21.3228 H   0  0  0  0  0  0
  -25.7942  -25.4939   18.9988 H   0  0  0  0  0  0
  -24.0597  -27.1443   18.9321 H   0  0  0  0  0  0
  -24.0068  -30.3831   19.3723 H   0  0  0  0  0  0
  -22.9079  -29.1151   19.8100 H   0  0  0  0  0  0
  -25.1403  -36.1503   25.0741 H   0  0  0  0  0  0
  -21.0074  -28.3462   24.1202 H   0  0  0  0  0  0
  -20.5710  -26.2429   23.3662 H   0  0  0  0  0  0
  -21.6702  -26.7377   22.1213 H   0  0  0  0  0  0
  -19.7002  -25.6243   21.1297 H   0  0  0  0  0  0
  -19.6788  -27.3096   20.6667 H   0  0  0  0  0  0
  -17.4282  -26.6659   21.3976 H   0  0  0  0  0  0
  -18.0400  -26.0087   22.8982 H   0  0  0  0  0  0
  -19.8041  -30.7337   24.2090 H   0  0  0  0  0  0
  -17.5110  -31.6270   24.5154 H   0  0  0  0  0  0
  -15.5426  -30.2945   23.7749 H   0  0  0  0  0  0
  -15.8745  -28.0788   22.7127 H   0  0  0  0  0  0
  -24.5835  -30.7168   25.7404 H   0  0  0  0  0  0
  -24.8745  -32.3083   26.4274 H   0  0  0  0  0  0
  -25.7670  -30.9167   27.0138 H   0  0  0  0  0  0
  -26.3378  -29.6279   24.1734 H   0  0  0  0  0  0
  -27.3964  -29.7306   25.5554 H   0  0  0  0  0  0
  -27.9394  -30.3809   24.0341 H   0  0  0  0  0  0
  -27.2609  -33.3796   26.1651 H   0  0  0  0  0  0
  -28.4001  -32.6704   25.0320 H   0  0  0  0  0  0
  -28.0563  -31.8717   26.5586 H   0  0  0  0  0  0
  -28.2518  -38.0043   24.7519 H   0  0  0  0  0  0
  -28.1127  -36.2561   24.6293 H   0  0  0  0  0  0
  -27.2274  -37.1305   25.8866 H   0  0  0  0  0  0
  -20.9828  -29.8607   21.6350 H   0  0  0  0  0  0
  -26.0066  -38.2612   24.1440 H   0  0  0  0  0  0
  -28.1011  -18.0711   18.6522 H   0  0  0  0  0  0
  -27.3084  -17.5390   20.1372 H   0  0  0  0  0  0
  -28.0019  -16.3666   19.0140 H   0  0  0  0  0  0
  -28.0363  -21.0683   19.2450 H   0  0  0  0  0  0
  -29.6673  -21.5348   19.3396 H   0  0  0  0  0  0
  -28.8748  -19.3113   21.5346 H   0  0  0  0  0  0
  -30.4241  -19.5134   20.8524 H   0  0  0  0  0  0
  -27.2187  -23.1099   20.8199 H   0  0  0  0  0  0
  -28.7962  -23.3194   21.4512 H   0  0  0  0  0  0
  1 25  1  0  0  0
  1 30  2  0  0  0
  1 75  1  0  0  0
  2  3  1  0  0  0
  2 25  1  0  0  0
  2 76  1  0  0  0
  2 77  1  0  0  0
  3  4  1  0  0  0
  3 78  1  0  0  0
  3 79  1  0  0  0
  4  5  1  0  0  0
  4 80  1  0  0  0
  4 81  1  0  0  0
  5  6  1  0  0  0
  5 26  1  0  0  0
  5 82  1  0  0  0
  6 25  1  0  0  0
  6 83  1  0  0  0
  6 84  1  0  0  0
  7  8  2  0  0  0
  7 26  1  0  0  0
  7 29  1  0  0  0
  8  9  1  0  0  0
  8 22  1  0  0  0
  9 10  1  0  0  0
  9 27  2  0  0  0
 10 11  2  0  0  0
 10 15  1  0  0  0
 11 12  1  0  0  0
 11 85  1  0  0  0
 12 13  2  0  0  0
 12 86  1  0  0  0
 13 14  1  0  0  0
 13 31  1  0  0  0
 14 15  2  0  0  0
 14 87  1  0  0  0
 15 88  1  0  0  0
 16 17  2  0  0  0
 16 21  1  0  0  0
 16 31  1  0  0  0
 17 18  1  0  0  0
 17 89  1  0  0  0
 18 19  2  0  0  0
 18 90  1  0  0  0
 19 20  1  0  0  0
 19 24  1  0  0  0
 20 21  2  0  0  0
 20 91  1  0  0  0
 21 23  1  0  0  0
 22 28  1  0  0  0
 22 32  2  0  0  0
 26 27  1  0  0  0
 28 92  1  0  0  0
 28 93  1  0  0  0
 29 94  1  0  0  0
 29 95  1  0  0  0
 33 34  1  0  0  0
 33 66  1  0  0  0
 33 70  2  0  0  0
 34 36  1  0  0  0
 34 59  1  0  0  0
 34 96  1  0  0  0
 35 44  2  0  0  0
 35 45  1  0  0  0
 35 68  1  0  0  0
 36 56  1  0  0  0
 36 97  1  0  0  0
 37 39  1  0  0  0
 37 47  1  0  0  0
 37 66  1  0  0  0
 37 98  1  0  0  0
 38 43  2  0  0  0
 38 46  1  0  0  0
 38 47  1  0  0  0
 39 64  1  0  0  0
 39 67  2  0  0  0
 40 52  1  0  0  0
 40 53  2  0  0  0
 40 58  1  0  0  0
 41 99  1  0  0  0
 41100  1  0  0  0
 41101  1  0  0  0
 41 48  1  0  0  0
 42 43  1  0  0  0
 42 66  1  0  0  0
 42102  1  0  0  0
 42103  1  0  0  0
 43 44  1  0  0  0
 44104  1  0  0  0
 45 46  2  0  0  0
 45105  1  0  0  0
 46106  1  0  0  0
 47107  1  0  0  0
 47108  1  0  0  0
 48 56  1  0  0  0
 48 65  1  0  0  0
 48109  1  0  0  0
 49 50  1  0  0  0
 49 53  1  0  0  0
 49 64  1  0  0  0
 49110  1  0  0  0
 50 51  1  0  0  0
 50111  1  0  0  0
 50112  1  0  0  0
 51 52  1  0  0  0
 51113  1  0  0  0
 51114  1  0  0  0
 52115  1  0  0  0
 52116  1  0  0  0
 53 54  1  0  0  0
 54 55  2  0  0  0
 54117  1  0  0  0
 55 57  1  0  0  0
 55118  1  0  0  0
 56 69  2  0  0  0
 57 58  2  0  0  0
 57119  1  0  0  0
 58120  1  0  0  0
 59 60  1  0  0  0
 59 61  1  0  0  0
 59 62  1  0  0  0
 60121  1  0  0  0
 60122  1  0  0  0
 60123  1  0  0  0
 61124  1  0  0  0
 61125  1  0  0  0
 61126  1  0  0  0
 62127  1  0  0  0
 62128  1  0  0  0
 62129  1  0  0  0
 63 65  1  0  0  0
 63130  1  0  0  0
 63131  1  0  0  0
 63132  1  0  0  0
 64133  1  0  0  0
 65134  1  0  0  0
 68 74  1  0  0  0
 71 75  1  0  0  0
 71135  1  0  0  0
 71136  1  0  0  0
 71137  1  0  0  0
 72 73  1  0  0  0
 72 74  1  0  0  0
 72138  1  0  0  0
 72139  1  0  0  0
 73 75  1  0  0  0
 73140  1  0  0  0
 73141  1  0  0  0
 74142  1  0  0  0
 74143  1  0  0  0
M  ISO  4   1 100  68 101  74 101  75 100
M  END
> <chiral flag>
0

> <version>
0

> <s_m_source_file>
/data/baiqing/PycharmProjects/Reinvent-master-3.2/result/LINK_invent/BTK/process_docking_weight1_custom_sum_contain_oxygen_bond_distance_aromatic_linkinvent_7_9_3/rearranged_h_0015.sdf

> <i_m_source_file_index>
42

> <r_mmod_Potential_Energy-OPLS-2005>
4303.49072265625

> <r_mmod_Stretch_Energy-OPLS-2005>
1937.3203125

> <r_mmod_Bend_Energy-OPLS-2005>
891.069641113281

> <r_mmod_Torsional_Energy-OPLS-2005>
308.0107421875

> <r_mmod_Improper_Torsional_Energy-OPLS-2005>
4.89766931533813

> <r_mmod_Van_der_Waal_Energy-OPLS-2005>
112.25927734375

> <r_mmod_Electrostatic_Energy-OPLS-2005>
-274.442291259766

> <r_mmod_Solvation_Energy-OPLS-2005>
-215.008483886719

> <b_mmod_Minimization_Converged-OPLS-2005>
0

> <r_mmod_RMS_Derivative-OPLS-2005>
2.3036835193634

$$$$
43
                    3D
 Structure written by MMmdl.
162170  0  0  1  0            999 V2000
  -30.6176  -14.7155   20.5001 C   0  0  0  0  0  0
  -30.4451  -12.4419   19.4657 C   0  0  0  0  0  0
  -29.5207  -12.5045   18.2295 C   0  0  0  0  0  0
  -28.0457  -12.3241   18.6394 C   0  0  0  0  0  0
  -27.6462  -13.2223   19.8422 C   0  0  2  0  0  0
  -28.6881  -13.1396   20.9795 C   0  0  0  0  0  0
  -25.2520  -13.8173   20.5636 C   0  0  0  0  0  0
  -24.1798  -13.0430   20.9118 C   0  0  0  0  0  0
  -24.6356  -11.6887   20.8664 C   0  0  0  0  0  0
  -23.9005  -10.4290   21.0346 C   0  0  0  0  0  0
  -24.3547   -9.4223   21.9156 C   0  0  0  0  0  0
  -23.6207   -8.2276   22.0775 C   0  0  0  0  0  0
  -22.4196   -8.0281   21.3574 C   0  0  0  0  0  0
  -21.9804   -9.0243   20.4668 C   0  0  0  0  0  0
  -22.7140  -10.2120   20.3034 C   0  0  0  0  0  0
  -21.6855   -6.0666   22.5240 C   0  0  0  0  0  0
  -21.4044   -6.5586   23.8171 C   0  0  0  0  0  0
  -21.3658   -5.6751   24.9143 C   0  0  0  0  0  0
  -21.6060   -4.3015   24.7227 C   0  0  0  0  0  0
  -21.8834   -3.8085   23.4353 C   0  0  0  0  0  0
  -21.9198   -4.6884   22.3387 C   0  0  0  0  0  0
  -22.7836  -13.5247   21.1855 C   0  0  0  0  0  0
  -22.1672   -4.2044   21.0977 F   0  0  0  0  0  0
  -21.5590   -3.4521   25.7758 F   0  0  0  0  0  0
  -29.9941  -13.4917   20.4063 N   0  0  0  0  0  0
  -26.2935  -12.9346   20.3179 N   0  0  0  0  0  0
  -25.9281  -11.6495   20.5650 N   0  0  0  0  0  0
  -22.0485  -12.8264   22.0400 N   0  0  0  0  0  0
  -25.4213  -15.1943   20.4165 N   0  0  0  0  0  0
  -31.7991  -14.8315   20.1637 O   0  0  0  0  0  0
  -21.6640   -6.8827   21.4218 O   0  0  0  0  0  0
  -22.3524  -14.5561   20.6700 O   0  0  0  0  0  0
  -24.6310  -31.8560   23.1881 C   0  0  0  0  0  0
  -25.9185  -32.4720   23.8220 C   0  0  1  0  0  0
  -27.2304  -27.2638   20.1278 C   0  0  0  0  0  0
  -25.5981  -33.8511   24.2184 N   0  0  0  0  0  0
  -23.4259  -30.4740   21.5329 C   0  0  2  0  0  0
  -24.8767  -28.9176   20.0958 C   0  0  0  0  0  0
  -22.7508  -29.4597   22.4857 C   0  0  0  0  0  0
  -18.0362  -28.1322   22.8493 C   0  0  0  0  0  0
  -24.1528  -36.7269   23.2636 C   0  0  0  0  0  0
  -25.9659  -30.7715   21.3643 C   0  0  0  0  0  0
  -26.0435  -29.3918   20.7090 C   0  0  0  0  0  0
  -27.2190  -28.5784   20.7083 C   0  0  0  0  0  0
  -26.0355  -26.8475   19.4997 C   0  0  0  0  0  0
  -24.8772  -27.6557   19.4801 C   0  0  0  0  0  0
  -23.6456  -29.8053   20.1484 C   0  0  0  0  0  0
  -25.4137  -36.3003   24.0310 C   0  0  1  0  0  0
  -20.5940  -28.3677   23.1280 C   0  0  2  0  0  0
  -20.6825  -26.9392   22.5406 C   0  0  0  0  0  0
  -19.5850  -26.6351   21.5178 C   0  0  0  0  0  0
  -18.2012  -26.7924   22.1527 C   0  0  0  0  0  0
  -19.1588  -28.8801   23.2930 C   0  0  0  0  0  0
  -18.9491  -30.1373   23.8996 C   0  0  0  0  0  0
  -17.6499  -30.6529   24.0558 C   0  0  0  0  0  0
  -25.9080  -34.9400   23.5036 C   0  0  0  0  0  0
  -16.5408  -29.9020   23.6284 C   0  0  0  0  0  0
  -16.7350  -28.6419   23.0345 C   0  0  0  0  0  0
  -26.4538  -31.6517   25.0625 C   0  0  0  0  0  0
  -25.3720  -31.3731   26.1319 C   0  0  0  0  0  0
  -27.0418  -30.2941   24.6120 C   0  0  0  0  0  0
  -27.6105  -32.4189   25.7426 C   0  0  0  0  0  0
  -27.5570  -37.1774   24.8455 C   0  0  0  0  0  0
  -21.4222  -29.3051   22.3646 N   0  0  0  0  0  0
  -26.4293  -37.3708   23.9400 N   0  0  0  0  0  0
  -24.6929  -31.0497   22.0865 N   0  0  0  0  0  0
  -23.4217  -28.8144   23.2957 O   0  0  0  0  0  0
  -28.3549  -26.4134   20.2295 O   0  0  0  0  0  0
  -26.5625  -34.8897   22.4584 O   0  0  0  0  0  0
  -23.5463  -32.1390   23.7193 O   0  0  0  0  0  0
  -31.2458  -18.9722   22.3642 C   0  0  0  0  0  0
  -31.0507  -17.6164   22.0182 C   0  0  0  0  0  0
  -29.3444  -18.3535   20.4272 C   0  0  0  0  0  0
  -29.5330  -19.7580   20.7944 C   0  0  0  0  0  0
  -30.1088  -17.2535   21.0133 C   0  0  0  0  0  0
  -30.5027  -20.0167   21.7832 C   0  0  0  0  0  0
  -31.8173  -16.5826   22.8342 C   0  0  0  0  0  0
  -28.2543  -18.0327   19.4162 C   0  0  0  0  0  0
  -26.7847  -23.3299   20.8975 C   0  0  0  0  0  0
  -28.6477  -20.9832   20.2690 C   0  0  0  0  0  0
  -28.4450  -24.9974   19.7221 C   0  0  0  0  0  0
  -28.2754  -23.6780   20.6654 C   0  0  2  0  0  0
  -29.8154  -15.8224   20.7492 N   0  0  0  0  0  0
  -29.1647  -22.4338   20.3702 N   0  3  0  0  0  0
  -30.7002  -21.2833   22.2241 F   0  0  0  0  0  0
  -31.4817  -12.5796   19.1558 H   0  0  0  0  0  0
  -30.4044  -11.4620   19.9477 H   0  0  0  0  0  0
  -29.8075  -11.7395   17.5052 H   0  0  0  0  0  0
  -29.6548  -13.4639   17.7249 H   0  0  0  0  0  0
  -27.9195  -11.2764   18.9127 H   0  0  0  0  0  0
  -27.3869  -12.5051   17.7883 H   0  0  0  0  0  0
  -27.6494  -14.2480   19.4657 H   0  0  0  0  0  0
  -28.7226  -12.1427   21.4213 H   0  0  0  0  0  0
  -28.4137  -13.8092   21.7942 H   0  0  0  0  0  0
  -25.2711   -9.5671   22.4696 H   0  0  0  0  0  0
  -23.9893   -7.4688   22.7524 H   0  0  0  0  0  0
  -21.0698   -8.8751   19.9018 H   0  0  0  0  0  0
  -22.3576  -10.9614   19.6111 H   0  0  0  0  0  0
  -21.2083   -7.6112   23.9639 H   0  0  0  0  0  0
  -21.1448   -6.0501   25.9036 H   0  0  0  0  0  0
  -22.0604   -2.7533   23.2890 H   0  0  0  0  0  0
  -22.4062  -11.9904   22.4795 H   0  0  0  0  0  0
  -21.1126  -13.1363   22.2615 H   0  0  0  0  0  0
  -24.6521  -15.8409   20.5511 H   0  0  0  0  0  0
  -26.2566  -15.6455   20.0769 H   0  0  0  0  0  0
  -26.7240  -32.5399   23.0940 H   0  0  0  0  0  0
  -25.0146  -33.9615   25.0344 H   0  0  0  0  0  0
  -22.7203  -31.2945   21.3813 H   0  0  0  0  0  0
  -23.3738  -35.9639   23.3276 H   0  0  0  0  0  0
  -24.3646  -36.8923   22.2054 H   0  0  0  0  0  0
  -23.7348  -37.6495   23.6680 H   0  0  0  0  0  0
  -26.0903  -31.5287   20.5859 H   0  0  0  0  0  0
  -26.8474  -30.8245   21.9933 H   0  0  0  0  0  0
  -28.1153  -28.9439   21.1928 H   0  0  0  0  0  0
  -25.9607  -25.8739   19.0436 H   0  0  0  0  0  0
  -23.9743  -27.2894   19.0078 H   0  0  0  0  0  0
  -23.7670  -30.5773   19.3869 H   0  0  0  0  0  0
  -22.7651  -29.2358   19.8471 H   0  0  0  0  0  0
  -25.1298  -36.1781   25.0785 H   0  0  0  0  0  0
  -21.0042  -28.3193   24.1397 H   0  0  0  0  0  0
  -20.5701  -26.2285   23.3615 H   0  0  0  0  0  0
  -21.6720  -26.7383   22.1285 H   0  0  0  0  0  0
  -19.6996  -25.6242   21.1243 H   0  0  0  0  0  0
  -19.6856  -27.3131   20.6679 H   0  0  0  0  0  0
  -17.4327  -26.6811   21.3872 H   0  0  0  0  0  0
  -18.0286  -25.9985   22.8812 H   0  0  0  0  0  0
  -19.7970  -30.7122   24.2444 H   0  0  0  0  0  0
  -17.5070  -31.6222   24.5136 H   0  0  0  0  0  0
  -15.5406  -30.2924   23.7522 H   0  0  0  0  0  0
  -15.8799  -28.0724   22.6978 H   0  0  0  0  0  0
  -24.5937  -30.7043   25.7626 H   0  0  0  0  0  0
  -24.8896  -32.2965   26.4530 H   0  0  0  0  0  0
  -25.7994  -30.9046   27.0201 H   0  0  0  0  0  0
  -26.3044  -29.6629   24.1179 H   0  0  0  0  0  0
  -27.4177  -29.7223   25.4608 H   0  0  0  0  0  0
  -27.8845  -30.4210   23.9330 H   0  0  0  0  0  0
  -27.2764  -33.3501   26.1978 H   0  0  0  0  0  0
  -28.3983  -32.6683   25.0310 H   0  0  0  0  0  0
  -28.0702  -31.8309   26.5378 H   0  0  0  0  0  0
  -28.2526  -38.0114   24.7444 H   0  0  0  0  0  0
  -28.1111  -36.2620   24.6286 H   0  0  0  0  0  0
  -27.2305  -37.1426   25.8869 H   0  0  0  0  0  0
  -20.9354  -29.8858   21.6966 H   0  0  0  0  0  0
  -26.0135  -38.2770   24.1356 H   0  0  0  0  0  0
  -31.9587  -19.2252   23.1381 H   0  0  0  0  0  0
  -31.1756  -15.7533   23.1381 H   0  0  0  0  0  0
  -32.2215  -17.0193   23.7503 H   0  0  0  0  0  0
  -32.6592  -16.1869   22.2661 H   0  0  0  0  0  0
  -28.3657  -18.6485   18.5237 H   0  0  0  0  0  0
  -27.2776  -18.2336   19.8571 H   0  0  0  0  0  0
  -28.2514  -16.9958   19.0836 H   0  0  0  0  0  0
  -26.2449  -24.1915   21.2921 H   0  0  0  0  0  0
  -26.6481  -22.5323   21.6285 H   0  0  0  0  0  0
  -26.2891  -23.0320   19.9734 H   0  0  0  0  0  0
  -27.7115  -20.8707   20.8056 H   0  0  0  0  0  0
  -28.3954  -20.8190   19.2216 H   0  0  0  0  0  0
  -27.8631  -24.8729   18.8084 H   0  0  0  0  0  0
  -29.4699  -24.9619   19.3563 H   0  0  0  0  0  0
  -28.6497  -24.0008   21.6382 H   0  0  0  0  0  0
  -28.8352  -15.5956   20.7696 H   0  0  0  0  0  0
  -29.8148  -22.3799   21.1450 H   0  0  0  0  0  0
  -29.7396  -22.6089   19.5603 H   0  0  0  0  0  0
  1 25  1  0  0  0
  1 30  2  0  0  0
  1 83  1  0  0  0
  2  3  1  0  0  0
  2 25  1  0  0  0
  2 86  1  0  0  0
  2 87  1  0  0  0
  3  4  1  0  0  0
  3 88  1  0  0  0
  3 89  1  0  0  0
  4  5  1  0  0  0
  4 90  1  0  0  0
  4 91  1  0  0  0
  5  6  1  0  0  0
  5 26  1  0  0  0
  5 92  1  0  0  0
  6 25  1  0  0  0
  6 93  1  0  0  0
  6 94  1  0  0  0
  7  8  2  0  0  0
  7 26  1  0  0  0
  7 29  1  0  0  0
  8  9  1  0  0  0
  8 22  1  0  0  0
  9 10  1  0  0  0
  9 27  2  0  0  0
 10 11  2  0  0  0
 10 15  1  0  0  0
 11 12  1  0  0  0
 11 95  1  0  0  0
 12 13  2  0  0  0
 12 96  1  0  0  0
 13 14  1  0  0  0
 13 31  1  0  0  0
 14 15  2  0  0  0
 14 97  1  0  0  0
 15 98  1  0  0  0
 16 17  2  0  0  0
 16 21  1  0  0  0
 16 31  1  0  0  0
 17 18  1  0  0  0
 17 99  1  0  0  0
 18 19  2  0  0  0
 18100  1  0  0  0
 19 20  1  0  0  0
 19 24  1  0  0  0
 20 21  2  0  0  0
 20101  1  0  0  0
 21 23  1  0  0  0
 22 28  1  0  0  0
 22 32  2  0  0  0
 26 27  1  0  0  0
 28102  1  0  0  0
 28103  1  0  0  0
 29104  1  0  0  0
 29105  1  0  0  0
 33 34  1  0  0  0
 33 66  1  0  0  0
 33 70  2  0  0  0
 34 36  1  0  0  0
 34 59  1  0  0  0
 34106  1  0  0  0
 35 44  2  0  0  0
 35 45  1  0  0  0
 35 68  1  0  0  0
 36 56  1  0  0  0
 36107  1  0  0  0
 37 39  1  0  0  0
 37 47  1  0  0  0
 37 66  1  0  0  0
 37108  1  0  0  0
 38 43  2  0  0  0
 38 46  1  0  0  0
 38 47  1  0  0  0
 39 64  1  0  0  0
 39 67  2  0  0  0
 40 52  1  0  0  0
 40 53  2  0  0  0
 40 58  1  0  0  0
 41109  1  0  0  0
 41110  1  0  0  0
 41111  1  0  0  0
 41 48  1  0  0  0
 42 43  1  0  0  0
 42 66  1  0  0  0
 42112  1  0  0  0
 42113  1  0  0  0
 43 44  1  0  0  0
 44114  1  0  0  0
 45 46  2  0  0  0
 45115  1  0  0  0
 46116  1  0  0  0
 47117  1  0  0  0
 47118  1  0  0  0
 48 56  1  0  0  0
 48 65  1  0  0  0
 48119  1  0  0  0
 49 50  1  0  0  0
 49 53  1  0  0  0
 49 64  1  0  0  0
 49120  1  0  0  0
 50 51  1  0  0  0
 50121  1  0  0  0
 50122  1  0  0  0
 51 52  1  0  0  0
 51123  1  0  0  0
 51124  1  0  0  0
 52125  1  0  0  0
 52126  1  0  0  0
 53 54  1  0  0  0
 54 55  2  0  0  0
 54127  1  0  0  0
 55 57  1  0  0  0
 55128  1  0  0  0
 56 69  2  0  0  0
 57 58  2  0  0  0
 57129  1  0  0  0
 58130  1  0  0  0
 59 60  1  0  0  0
 59 61  1  0  0  0
 59 62  1  0  0  0
 60131  1  0  0  0
 60132  1  0  0  0
 60133  1  0  0  0
 61134  1  0  0  0
 61135  1  0  0  0
 61136  1  0  0  0
 62137  1  0  0  0
 62138  1  0  0  0
 62139  1  0  0  0
 63 65  1  0  0  0
 63140  1  0  0  0
 63141  1  0  0  0
 63142  1  0  0  0
 64143  1  0  0  0
 65144  1  0  0  0
 68 81  1  0  0  0
 71 72  2  0  0  0
 71 76  1  0  0  0
 71145  1  0  0  0
 72 75  1  0  0  0
 72 77  1  0  0  0
 73 74  1  0  0  0
 73 75  2  0  0  0
 73 78  1  0  0  0
 74 76  2  0  0  0
 74 80  1  0  0  0
 75 83  1  0  0  0
 76 85  1  0  0  0
 77146  1  0  0  0
 77147  1  0  0  0
 77148  1  0  0  0
 78149  1  0  0  0
 78150  1  0  0  0
 78151  1  0  0  0
 79152  1  0  0  0
 79153  1  0  0  0
 79154  1  0  0  0
 79 82  1  0  0  0
 80 84  1  0  0  0
 80155  1  0  0  0
 80156  1  0  0  0
 81 82  1  0  0  0
 81157  1  0  0  0
 81158  1  0  0  0
 82 84  1  0  0  0
 82159  1  0  0  0
 83160  1  0  0  0
 84161  1  0  0  0
 84162  1  0  0  0
M  CHG  1  84   1
M  ISO  4   1 100  68 101  81 101  83 100
M  END
> <chiral flag>
0

> <version>
0

> <s_m_source_file>
/data/baiqing/PycharmProjects/Reinvent-master-3.2/result/LINK_invent/BTK/process_docking_weight1_custom_sum_contain_oxygen_bond_distance_aromatic_linkinvent_7_9_3/rearranged_h_0015.sdf

> <i_m_source_file_index>
43

> <r_mmod_Potential_Energy-OPLS-2005>
28.28297996521

> <r_mmod_Stretch_Energy-OPLS-2005>
131.422485351562

> <r_mmod_Bend_Energy-OPLS-2005>
193.665725708008

> <r_mmod_Torsional_Energy-OPLS-2005>
240.239288330078

> <r_mmod_Improper_Torsional_Energy-OPLS-2005>
6.55933046340942

> <r_mmod_Van_der_Waal_Energy-OPLS-2005>
141.02326965332

> <r_mmod_Electrostatic_Energy-OPLS-2005>
-326.492889404297

> <r_mmod_Solvation_Energy-OPLS-2005>
-435.233032226562

> <b_mmod_Minimization_Converged-OPLS-2005>
0

> <r_mmod_RMS_Derivative-OPLS-2005>
5.74034643173218

$$$$
44
                    3D
 Structure written by MMmdl.
164172  0  0  1  0            999 V2000
  -30.6285  -14.6234   20.5016 C   0  0  0  0  0  0
  -30.4389  -12.3814   19.4508 C   0  0  0  0  0  0
  -29.5081  -12.5080   18.2245 C   0  0  0  0  0  0
  -28.0306  -12.3470   18.6359 C   0  0  0  0  0  0
  -27.6567  -13.2148   19.8671 C   0  0  2  0  0  0
  -28.7014  -13.0590   20.9959 C   0  0  0  0  0  0
  -25.2575  -13.8170   20.5690 C   0  0  0  0  0  0
  -24.1834  -13.0440   20.9188 C   0  0  0  0  0  0
  -24.6397  -11.6909   20.8731 C   0  0  0  0  0  0
  -23.9059  -10.4294   21.0395 C   0  0  0  0  0  0
  -24.3612   -9.4211   21.9177 C   0  0  0  0  0  0
  -23.6290   -8.2246   22.0749 C   0  0  0  0  0  0
  -22.4270   -8.0279   21.3541 C   0  0  0  0  0  0
  -21.9902   -9.0253   20.4646 C   0  0  0  0  0  0
  -22.7228  -10.2135   20.3051 C   0  0  0  0  0  0
  -21.6852   -6.0732   22.5276 C   0  0  0  0  0  0
  -21.4012   -6.5635   23.8209 C   0  0  0  0  0  0
  -21.3660   -5.6789   24.9172 C   0  0  0  0  0  0
  -21.6048   -4.3053   24.7223 C   0  0  0  0  0  0
  -21.8820   -3.8144   23.4344 C   0  0  0  0  0  0
  -21.9194   -4.6960   22.3401 C   0  0  0  0  0  0
  -22.7856  -13.5236   21.1849 C   0  0  0  0  0  0
  -22.1664   -4.2148   21.0980 F   0  0  0  0  0  0
  -21.5629   -3.4537   25.7735 F   0  0  0  0  0  0
  -30.0199  -13.3982   20.4352 N   0  0  0  0  0  0
  -26.3008  -12.9351   20.3336 N   0  0  0  0  0  0
  -25.9328  -11.6505   20.5758 N   0  0  0  0  0  0
  -22.0496  -12.8231   22.0407 N   0  0  0  0  0  0
  -25.4288  -15.1890   20.4106 N   0  0  0  0  0  0
  -31.7821  -14.7924   20.0940 O   0  0  0  0  0  0
  -21.6639   -6.8874   21.4236 O   0  0  0  0  0  0
  -22.3541  -14.5541   20.6694 O   0  0  0  0  0  0
  -24.6254  -31.8608   23.2038 C   0  0  0  0  0  0
  -25.9109  -32.4782   23.8358 C   0  0  1  0  0  0
  -27.2269  -27.3340   20.1117 C   0  0  0  0  0  0
  -25.5937  -33.8581   24.2290 N   0  0  0  0  0  0
  -23.4181  -30.4852   21.5456 C   0  0  2  0  0  0
  -24.8646  -28.9436   20.1104 C   0  0  0  0  0  0
  -22.7471  -29.4629   22.4938 C   0  0  0  0  0  0
  -18.0289  -28.1384   22.8491 C   0  0  0  0  0  0
  -24.1488  -36.7283   23.2634 C   0  0  0  0  0  0
  -25.9582  -30.7970   21.3727 C   0  0  0  0  0  0
  -26.0326  -29.4259   20.7136 C   0  0  0  0  0  0
  -27.2162  -28.6328   20.7048 C   0  0  0  0  0  0
  -26.0350  -26.9032   19.4822 C   0  0  0  0  0  0
  -24.8668  -27.6871   19.4871 C   0  0  0  0  0  0
  -23.6320  -29.8218   20.1602 C   0  0  0  0  0  0
  -25.4107  -36.3080   24.0335 C   0  0  1  0  0  0
  -20.5888  -28.3686   23.1289 C   0  0  2  0  0  0
  -20.6774  -26.9409   22.5415 C   0  0  0  0  0  0
  -19.5750  -26.6388   21.5216 C   0  0  0  0  0  0
  -18.1929  -26.7931   22.1623 C   0  0  0  0  0  0
  -19.1542  -28.8851   23.2885 C   0  0  0  0  0  0
  -18.9462  -30.1455   23.8897 C   0  0  0  0  0  0
  -17.6461  -30.6587   24.0563 C   0  0  0  0  0  0
  -25.9051  -34.9453   23.5109 C   0  0  0  0  0  0
  -16.5354  -29.9083   23.6332 C   0  0  0  0  0  0
  -16.7277  -28.6503   23.0354 C   0  0  0  0  0  0
  -26.4500  -31.6587   25.0720 C   0  0  0  0  0  0
  -25.3748  -31.3739   26.1463 C   0  0  0  0  0  0
  -27.0327  -30.3008   24.6168 C   0  0  0  0  0  0
  -27.6067  -32.4317   25.7480 C   0  0  0  0  0  0
  -27.5591  -37.1772   24.8448 C   0  0  0  0  0  0
  -21.4186  -29.3040   22.3681 N   0  0  0  0  0  0
  -26.4275  -37.3786   23.9437 N   0  0  0  0  0  0
  -24.6858  -31.0639   22.0977 N   0  0  0  0  0  0
  -23.4202  -28.8163   23.3007 O   0  0  0  0  0  0
  -28.3530  -26.4994   20.1641 O   0  0  0  0  0  0
  -26.5610  -34.8920   22.4670 O   0  0  0  0  0  0
  -23.5421  -32.1395   23.7377 O   0  0  0  0  0  0
  -30.3972  -19.2357   19.6029 C   0  0  0  0  0  0
  -29.9316  -20.0513   20.6674 C   0  0  0  0  0  0
  -29.4358  -19.3627   21.8153 C   0  0  0  0  0  0
  -29.4429  -17.9256   21.8873 C   0  0  0  0  0  0
  -30.4094  -17.8125   19.6673 C   0  0  0  0  0  0
  -29.9457  -17.1172   20.8203 C   0  0  0  0  0  0
  -28.9262  -20.1653   23.0106 C   0  0  0  0  0  0
  -28.9125  -17.2429   23.1492 C   0  0  0  0  0  0
  -29.6374  -24.4155   22.0064 C   0  0  0  0  0  0
  -30.1664  -21.6112   20.6236 C   0  0  0  0  0  0
  -28.1491  -25.0396   20.0319 C   0  0  0  0  0  0
  -29.3019  -24.0683   20.5389 C   0  0  2  0  0  0
  -30.8791  -17.1070   18.5627 N   0  0  0  0  0  0
  -29.8309  -15.6587   20.9014 N   0  0  0  0  0  0
  -29.0202  -22.5705   20.3733 N   0  3  0  0  0  0
  -31.4804  -12.5035   19.1485 H   0  0  0  0  0  0
  -30.3699  -11.3834   19.8863 H   0  0  0  0  0  0
  -29.7702  -11.7626   17.4727 H   0  0  0  0  0  0
  -29.6528  -13.4813   17.7526 H   0  0  0  0  0  0
  -27.8643  -11.2932   18.8633 H   0  0  0  0  0  0
  -27.3765  -12.5821   17.7955 H   0  0  0  0  0  0
  -27.6792  -14.2520   19.5314 H   0  0  0  0  0  0
  -28.7089  -12.0348   21.3720 H   0  0  0  0  0  0
  -28.4480  -13.6857   21.8523 H   0  0  0  0  0  0
  -25.2759   -9.5692   22.4747 H   0  0  0  0  0  0
  -24.0005   -7.4637   22.7465 H   0  0  0  0  0  0
  -21.0835   -8.8770   19.8952 H   0  0  0  0  0  0
  -22.3683  -10.9671   19.6157 H   0  0  0  0  0  0
  -21.2002   -7.6140   23.9710 H   0  0  0  0  0  0
  -21.1479   -6.0518   25.9075 H   0  0  0  0  0  0
  -22.0597   -2.7606   23.2843 H   0  0  0  0  0  0
  -22.4105  -11.9892   22.4801 H   0  0  0  0  0  0
  -21.1115  -13.1261   22.2614 H   0  0  0  0  0  0
  -24.6596  -15.8415   20.5158 H   0  0  0  0  0  0
  -26.2778  -15.6290   20.0786 H   0  0  0  0  0  0
  -26.7176  -32.5457   23.1104 H   0  0  0  0  0  0
  -25.0112  -33.9729   25.0455 H   0  0  0  0  0  0
  -22.7114  -31.3056   21.4042 H   0  0  0  0  0  0
  -23.3770  -35.9593   23.3252 H   0  0  0  0  0  0
  -24.3601  -36.8946   22.2061 H   0  0  0  0  0  0
  -23.7208  -37.6460   23.6676 H   0  0  0  0  0  0
  -26.0909  -31.5642   20.6082 H   0  0  0  0  0  0
  -26.8376  -30.8419   22.0032 H   0  0  0  0  0  0
  -28.1121  -28.9994   21.1862 H   0  0  0  0  0  0
  -25.9757  -25.9473   18.9837 H   0  0  0  0  0  0
  -23.9716  -27.3135   19.0096 H   0  0  0  0  0  0
  -23.7500  -30.5983   19.4035 H   0  0  0  0  0  0
  -22.7526  -29.2498   19.8588 H   0  0  0  0  0  0
  -25.1280  -36.1919   25.0824 H   0  0  0  0  0  0
  -20.9991  -28.3259   24.1404 H   0  0  0  0  0  0
  -20.5673  -26.2294   23.3614 H   0  0  0  0  0  0
  -21.6642  -26.7436   22.1212 H   0  0  0  0  0  0
  -19.6906  -25.6300   21.1243 H   0  0  0  0  0  0
  -19.6693  -27.3198   20.6746 H   0  0  0  0  0  0
  -17.4207  -26.6697   21.4014 H   0  0  0  0  0  0
  -18.0314  -26.0072   22.9016 H   0  0  0  0  0  0
  -19.7937  -30.7273   24.2266 H   0  0  0  0  0  0
  -17.5015  -31.6265   24.5169 H   0  0  0  0  0  0
  -15.5351  -30.2981   23.7654 H   0  0  0  0  0  0
  -15.8680  -28.0818   22.7063 H   0  0  0  0  0  0
  -24.5913  -30.7089   25.7811 H   0  0  0  0  0  0
  -24.8952  -32.2914   26.4882 H   0  0  0  0  0  0
  -25.8091  -30.8930   27.0238 H   0  0  0  0  0  0
  -26.2885  -29.6763   24.1212 H   0  0  0  0  0  0
  -27.4042  -29.7263   25.4664 H   0  0  0  0  0  0
  -27.8754  -30.4285   23.9370 H   0  0  0  0  0  0
  -27.2686  -33.3620   26.2054 H   0  0  0  0  0  0
  -28.3873  -32.6871   25.0302 H   0  0  0  0  0  0
  -28.0738  -31.8446   26.5398 H   0  0  0  0  0  0
  -28.2547  -38.0133   24.7601 H   0  0  0  0  0  0
  -28.1151  -36.2672   24.6127 H   0  0  0  0  0  0
  -27.2338  -37.1250   25.8854 H   0  0  0  0  0  0
  -20.9355  -29.8769   21.6904 H   0  0  0  0  0  0
  -26.0152  -38.2843   24.1512 H   0  0  0  0  0  0
  -30.7939  -19.7215   18.7222 H   0  0  0  0  0  0
  -28.6877  -21.1978   22.7671 H   0  0  0  0  0  0
  -29.6759  -20.1776   23.8024 H   0  0  0  0  0  0
  -28.0101  -19.7349   23.4153 H   0  0  0  0  0  0
  -29.2402  -17.7631   24.0485 H   0  0  0  0  0  0
  -29.2588  -16.2174   23.2671 H   0  0  0  0  0  0
  -27.8226  -17.2280   23.1395 H   0  0  0  0  0  0
  -29.8211  -25.4848   22.1202 H   0  0  0  0  0  0
  -30.5369  -23.9145   22.3612 H   0  0  0  0  0  0
  -28.8184  -24.1561   22.6781 H   0  0  0  0  0  0
  -30.9283  -21.8179   19.8709 H   0  0  0  0  0  0
  -30.6454  -21.8660   21.5673 H   0  0  0  0  0  0
  -27.2411  -24.7662   20.5721 H   0  0  0  0  0  0
  -27.9612  -24.8249   18.9792 H   0  0  0  0  0  0
  -30.1817  -24.2931   19.9340 H   0  0  0  0  0  0
  -31.4632  -17.6203   17.9121 H   0  0  0  0  0  0
  -31.2971  -16.2086   18.8033 H   0  0  0  0  0  0
  -28.9689  -15.3415   21.3131 H   0  0  0  0  0  0
  -28.2513  -22.3059   20.9680 H   0  0  0  0  0  0
  -28.7177  -22.4016   19.4259 H   0  0  0  0  0  0
  1 25  1  0  0  0
  1 30  2  0  0  0
  1 84  1  0  0  0
  2  3  1  0  0  0
  2 25  1  0  0  0
  2 86  1  0  0  0
  2 87  1  0  0  0
  3  4  1  0  0  0
  3 88  1  0  0  0
  3 89  1  0  0  0
  4  5  1  0  0  0
  4 90  1  0  0  0
  4 91  1  0  0  0
  5  6  1  0  0  0
  5 26  1  0  0  0
  5 92  1  0  0  0
  6 25  1  0  0  0
  6 93  1  0  0  0
  6 94  1  0  0  0
  7  8  2  0  0  0
  7 26  1  0  0  0
  7 29  1  0  0  0
  8  9  1  0  0  0
  8 22  1  0  0  0
  9 10  1  0  0  0
  9 27  2  0  0  0
 10 11  2  0  0  0
 10 15  1  0  0  0
 11 12  1  0  0  0
 11 95  1  0  0  0
 12 13  2  0  0  0
 12 96  1  0  0  0
 13 14  1  0  0  0
 13 31  1  0  0  0
 14 15  2  0  0  0
 14 97  1  0  0  0
 15 98  1  0  0  0
 16 17  2  0  0  0
 16 21  1  0  0  0
 16 31  1  0  0  0
 17 18  1  0  0  0
 17 99  1  0  0  0
 18 19  2  0  0  0
 18100  1  0  0  0
 19 20  1  0  0  0
 19 24  1  0  0  0
 20 21  2  0  0  0
 20101  1  0  0  0
 21 23  1  0  0  0
 22 28  1  0  0  0
 22 32  2  0  0  0
 26 27  1  0  0  0
 28102  1  0  0  0
 28103  1  0  0  0
 29104  1  0  0  0
 29105  1  0  0  0
 33 34  1  0  0  0
 33 66  1  0  0  0
 33 70  2  0  0  0
 34 36  1  0  0  0
 34 59  1  0  0  0
 34106  1  0  0  0
 35 44  2  0  0  0
 35 45  1  0  0  0
 35 68  1  0  0  0
 36 56  1  0  0  0
 36107  1  0  0  0
 37 39  1  0  0  0
 37 47  1  0  0  0
 37 66  1  0  0  0
 37108  1  0  0  0
 38 43  2  0  0  0
 38 46  1  0  0  0
 38 47  1  0  0  0
 39 64  1  0  0  0
 39 67  2  0  0  0
 40 52  1  0  0  0
 40 53  2  0  0  0
 40 58  1  0  0  0
 41109  1  0  0  0
 41110  1  0  0  0
 41111  1  0  0  0
 41 48  1  0  0  0
 42 43  1  0  0  0
 42 66  1  0  0  0
 42112  1  0  0  0
 42113  1  0  0  0
 43 44  1  0  0  0
 44114  1  0  0  0
 45 46  2  0  0  0
 45115  1  0  0  0
 46116  1  0  0  0
 47117  1  0  0  0
 47118  1  0  0  0
 48 56  1  0  0  0
 48 65  1  0  0  0
 48119  1  0  0  0
 49 50  1  0  0  0
 49 53  1  0  0  0
 49 64  1  0  0  0
 49120  1  0  0  0
 50 51  1  0  0  0
 50121  1  0  0  0
 50122  1  0  0  0
 51 52  1  0  0  0
 51123  1  0  0  0
 51124  1  0  0  0
 52125  1  0  0  0
 52126  1  0  0  0
 53 54  1  0  0  0
 54 55  2  0  0  0
 54127  1  0  0  0
 55 57  1  0  0  0
 55128  1  0  0  0
 56 69  2  0  0  0
 57 58  2  0  0  0
 57129  1  0  0  0
 58130  1  0  0  0
 59 60  1  0  0  0
 59 61  1  0  0  0
 59 62  1  0  0  0
 60131  1  0  0  0
 60132  1  0  0  0
 60133  1  0  0  0
 61134  1  0  0  0
 61135  1  0  0  0
 61136  1  0  0  0
 62137  1  0  0  0
 62138  1  0  0  0
 62139  1  0  0  0
 63 65  1  0  0  0
 63140  1  0  0  0
 63141  1  0  0  0
 63142  1  0  0  0
 64143  1  0  0  0
 65144  1  0  0  0
 68 81  1  0  0  0
 71 72  2  0  0  0
 71 75  1  0  0  0
 71145  1  0  0  0
 72 73  1  0  0  0
 72 80  1  0  0  0
 73 74  2  0  0  0
 73 77  1  0  0  0
 74 76  1  0  0  0
 74 78  1  0  0  0
 75 76  2  0  0  0
 75 83  1  0  0  0
 76 84  1  0  0  0
 77146  1  0  0  0
 77147  1  0  0  0
 77148  1  0  0  0
 78149  1  0  0  0
 78150  1  0  0  0
 78151  1  0  0  0
 79152  1  0  0  0
 79153  1  0  0  0
 79154  1  0  0  0
 79 82  1  0  0  0
 80 85  1  0  0  0
 80155  1  0  0  0
 80156  1  0  0  0
 81 82  1  0  0  0
 81157  1  0  0  0
 81158  1  0  0  0
 82 85  1  0  0  0
 82159  1  0  0  0
 83160  1  0  0  0
 83161  1  0  0  0
 84162  1  0  0  0
 85163  1  0  0  0
 85164  1  0  0  0
M  CHG  1  85   1
M  ISO  4   1 100  68 101  81 101  84 100
M  END
> <chiral flag>
0

> <version>
0

> <s_m_source_file>
/data/baiqing/PycharmProjects/Reinvent-master-3.2/result/LINK_invent/BTK/process_docking_weight1_custom_sum_contain_oxygen_bond_distance_aromatic_linkinvent_7_9_3/rearranged_h_0015.sdf

> <i_m_source_file_index>
44

> <r_mmod_Potential_Energy-OPLS-2005>
-207.846878051758

> <r_mmod_Stretch_Energy-OPLS-2005>
80.8348541259766

> <r_mmod_Bend_Energy-OPLS-2005>
134.713424682617

> <r_mmod_Torsional_Energy-OPLS-2005>
226.787994384766

> <r_mmod_Improper_Torsional_Energy-OPLS-2005>
9.6184139251709

> <r_mmod_Van_der_Waal_Energy-OPLS-2005>
157.79443359375

> <r_mmod_Electrostatic_Energy-OPLS-2005>
-408.972564697266

> <r_mmod_Solvation_Energy-OPLS-2005>
-451.359222412109

> <b_mmod_Minimization_Converged-OPLS-2005>
0

> <r_mmod_RMS_Derivative-OPLS-2005>
0.692797720432281

$$$$
45
                    3D
 Structure written by MMmdl.
161169  0  0  1  0            999 V2000
  -30.7362  -14.3930   20.6488 C   0  0  0  0  0  0
  -30.4223  -12.2916   19.3937 C   0  0  0  0  0  0
  -29.4871  -12.5294   18.1920 C   0  0  0  0  0  0
  -28.0100  -12.3853   18.6079 C   0  0  0  0  0  0
  -27.6678  -13.2022   19.8827 C   0  0  2  0  0  0
  -28.7073  -12.9312   20.9924 C   0  0  0  0  0  0
  -25.2617  -13.8160   20.5694 C   0  0  0  0  0  0
  -24.1844  -13.0431   20.9145 C   0  0  0  0  0  0
  -24.6388  -11.6897   20.8712 C   0  0  0  0  0  0
  -23.9049  -10.4287   21.0386 C   0  0  0  0  0  0
  -24.3609   -9.4211   21.9176 C   0  0  0  0  0  0
  -23.6284   -8.2244   22.0752 C   0  0  0  0  0  0
  -22.4268   -8.0279   21.3537 C   0  0  0  0  0  0
  -21.9901   -9.0246   20.4640 C   0  0  0  0  0  0
  -22.7219  -10.2125   20.3040 C   0  0  0  0  0  0
  -21.6853   -6.0734   22.5277 C   0  0  0  0  0  0
  -21.4013   -6.5639   23.8209 C   0  0  0  0  0  0
  -21.3656   -5.6791   24.9174 C   0  0  0  0  0  0
  -21.6046   -4.3052   24.7225 C   0  0  0  0  0  0
  -21.8818   -3.8145   23.4344 C   0  0  0  0  0  0
  -21.9191   -4.6963   22.3402 C   0  0  0  0  0  0
  -22.7868  -13.5240   21.1817 C   0  0  0  0  0  0
  -22.1660   -4.2148   21.0978 F   0  0  0  0  0  0
  -21.5630   -3.4535   25.7738 F   0  0  0  0  0  0
  -30.0449  -13.2398   20.4521 N   0  0  0  0  0  0
  -26.3055  -12.9320   20.3401 N   0  0  0  0  0  0
  -25.9319  -11.6477   20.5751 N   0  0  0  0  0  0
  -22.0497  -12.8234   22.0370 N   0  0  0  0  0  0
  -25.4363  -15.1882   20.4187 N   0  0  0  0  0  0
  -31.8134  -14.6354   20.0943 O   0  0  0  0  0  0
  -21.6630   -6.8878   21.4239 O   0  0  0  0  0  0
  -22.3548  -14.5540   20.6666 O   0  0  0  0  0  0
  -24.6114  -31.8693   23.2123 C   0  0  0  0  0  0
  -25.9021  -32.4847   23.8406 C   0  0  1  0  0  0
  -27.2386  -27.4702   20.0874 C   0  0  0  0  0  0
  -25.5879  -33.8644   24.2337 N   0  0  0  0  0  0
  -23.3999  -30.4939   21.5492 C   0  0  2  0  0  0
  -24.8485  -28.9665   20.1110 C   0  0  0  0  0  0
  -22.7408  -29.4657   22.4964 C   0  0  0  0  0  0
  -18.0275  -28.1385   22.8489 C   0  0  0  0  0  0
  -24.1485  -36.7339   23.2636 C   0  0  0  0  0  0
  -25.9230  -30.8480   21.3584 C   0  0  0  0  0  0
  -26.0060  -29.4846   20.7067 C   0  0  0  0  0  0
  -27.2061  -28.7429   20.6948 C   0  0  0  0  0  0
  -26.0686  -26.9588   19.4854 C   0  0  0  0  0  0
  -24.8718  -27.7008   19.4981 C   0  0  0  0  0  0
  -23.6100  -29.8307   20.1617 C   0  0  0  0  0  0
  -25.4098  -36.3136   24.0337 C   0  0  1  0  0  0
  -20.5864  -28.3674   23.1318 C   0  0  2  0  0  0
  -20.6769  -26.9410   22.5414 C   0  0  0  0  0  0
  -19.5752  -26.6393   21.5207 C   0  0  0  0  0  0
  -18.1929  -26.7935   22.1604 C   0  0  0  0  0  0
  -19.1525  -28.8840   23.2910 C   0  0  0  0  0  0
  -18.9455  -30.1440   23.8929 C   0  0  0  0  0  0
  -17.6466  -30.6598   24.0573 C   0  0  0  0  0  0
  -25.9019  -34.9497   23.5138 C   0  0  0  0  0  0
  -16.5357  -29.9108   23.6320 C   0  0  0  0  0  0
  -16.7264  -28.6519   23.0336 C   0  0  0  0  0  0
  -26.4464  -31.6616   25.0721 C   0  0  0  0  0  0
  -25.3742  -31.3717   26.1482 C   0  0  0  0  0  0
  -27.0294  -30.3071   24.6047 C   0  0  0  0  0  0
  -27.6043  -32.4324   25.7482 C   0  0  0  0  0  0
  -27.5582  -37.1823   24.8455 C   0  0  0  0  0  0
  -21.4134  -29.3045   22.3733 N   0  0  0  0  0  0
  -26.4294  -37.3806   23.9403 N   0  0  0  0  0  0
  -24.6634  -31.0824   22.1004 N   0  0  0  0  0  0
  -23.4204  -28.8193   23.2987 O   0  0  0  0  0  0
  -28.3860  -26.7190   20.1089 O   0  0  0  0  0  0
  -26.5587  -34.8941   22.4706 O   0  0  0  0  0  0
  -23.5311  -32.1421   23.7528 O   0  0  0  0  0  0
  -31.7713  -17.0567   21.9850 C   0  0  0  0  0  0
  -29.7663  -18.9757   21.5438 C   0  0  0  0  0  0
  -32.0653  -18.4289   22.1384 C   0  0  0  0  0  0
  -30.4773  -16.6418   21.6035 C   0  0  0  0  0  0
  -31.0665  -19.4062   21.9152 C   0  0  0  0  0  0
  -29.4737  -17.6065   21.3992 C   0  0  0  0  0  0
  -29.5589  -24.7756   21.0570 C   0  0  0  0  0  0
  -33.4705  -18.8507   22.5310 C   0  0  0  0  0  0
  -29.1296  -24.2991   23.4584 C   0  0  0  0  0  0
  -28.2585  -25.5999   20.9912 C   0  0  0  0  0  0
  -30.9513  -23.1203   22.2658 C   0  0  0  0  0  0
  -30.4243  -21.7300   21.8674 C   0  0  0  0  0  0
  -30.1340  -15.2759   21.4562 N   0  0  0  0  0  0
  -29.8688  -24.1156   22.2030 N   0  0  0  0  0  0
  -30.2592  -24.6883   20.0414 O   0  0  0  0  0  0
  -31.4214  -20.7337   22.0752 O   0  0  0  0  0  0
  -28.2251  -17.2141   21.0449 F   0  0  0  0  0  0
  -31.4652  -12.3968   19.0888 H   0  0  0  0  0  0
  -30.3220  -11.2681   19.7580 H   0  0  0  0  0  0
  -29.7195  -11.8315   17.3870 H   0  0  0  0  0  0
  -29.6554  -13.5286   17.7872 H   0  0  0  0  0  0
  -27.8160  -11.3268   18.7838 H   0  0  0  0  0  0
  -27.3562  -12.6805   17.7864 H   0  0  0  0  0  0
  -27.7270  -14.2577   19.6175 H   0  0  0  0  0  0
  -28.6746  -11.8792   21.2829 H   0  0  0  0  0  0
  -28.4624  -13.4810   21.9014 H   0  0  0  0  0  0
  -25.2755   -9.5688   22.4743 H   0  0  0  0  0  0
  -23.9992   -7.4642   22.7474 H   0  0  0  0  0  0
  -21.0833   -8.8758   19.8949 H   0  0  0  0  0  0
  -22.3679  -10.9660   19.6143 H   0  0  0  0  0  0
  -21.2003   -7.6145   23.9716 H   0  0  0  0  0  0
  -21.1482   -6.0520   25.9079 H   0  0  0  0  0  0
  -22.0600   -2.7605   23.2843 H   0  0  0  0  0  0
  -22.4107  -11.9900   22.4770 H   0  0  0  0  0  0
  -21.1107  -13.1258   22.2546 H   0  0  0  0  0  0
  -24.6798  -15.8493   20.5567 H   0  0  0  0  0  0
  -26.3160  -15.6371   20.1908 H   0  0  0  0  0  0
  -26.7110  -32.5587   23.1190 H   0  0  0  0  0  0
  -25.0055  -33.9809   25.0496 H   0  0  0  0  0  0
  -22.6879  -31.3107   21.4145 H   0  0  0  0  0  0
  -23.3748  -35.9678   23.3309 H   0  0  0  0  0  0
  -24.3592  -36.8940   22.2055 H   0  0  0  0  0  0
  -23.7249  -37.6545   23.6646 H   0  0  0  0  0  0
  -26.0219  -31.6143   20.5895 H   0  0  0  0  0  0
  -26.8152  -30.9093   21.9687 H   0  0  0  0  0  0
  -28.0993  -29.1321   21.1659 H   0  0  0  0  0  0
  -26.0810  -25.9891   19.0079 H   0  0  0  0  0  0
  -23.9829  -27.2989   19.0303 H   0  0  0  0  0  0
  -23.7266  -30.6098   19.4085 H   0  0  0  0  0  0
  -22.7339  -29.2552   19.8588 H   0  0  0  0  0  0
  -25.1284  -36.2008   25.0830 H   0  0  0  0  0  0
  -20.9949  -28.3250   24.1438 H   0  0  0  0  0  0
  -20.5702  -26.2275   23.3604 H   0  0  0  0  0  0
  -21.6645  -26.7489   22.1197 H   0  0  0  0  0  0
  -19.6931  -25.6309   21.1229 H   0  0  0  0  0  0
  -19.6703  -27.3220   20.6752 H   0  0  0  0  0  0
  -17.4203  -26.6693   21.4000 H   0  0  0  0  0  0
  -18.0321  -26.0075   22.8993 H   0  0  0  0  0  0
  -19.7938  -30.7222   24.2331 H   0  0  0  0  0  0
  -17.5034  -31.6284   24.5178 H   0  0  0  0  0  0
  -15.5360  -30.3029   23.7625 H   0  0  0  0  0  0
  -15.8653  -28.0862   22.7017 H   0  0  0  0  0  0
  -24.5916  -30.7060   25.7830 H   0  0  0  0  0  0
  -24.8942  -32.2872   26.4940 H   0  0  0  0  0  0
  -25.8109  -30.8892   27.0234 H   0  0  0  0  0  0
  -26.2816  -29.6836   24.1129 H   0  0  0  0  0  0
  -27.4128  -29.7303   25.4473 H   0  0  0  0  0  0
  -27.8623  -30.4426   23.9142 H   0  0  0  0  0  0
  -27.2674  -33.3612   26.2093 H   0  0  0  0  0  0
  -28.3843  -32.6894   25.0308 H   0  0  0  0  0  0
  -28.0719  -31.8428   26.5372 H   0  0  0  0  0  0
  -28.2595  -38.0128   24.7523 H   0  0  0  0  0  0
  -28.1092  -36.2665   24.6259 H   0  0  0  0  0  0
  -27.2313  -37.1445   25.8862 H   0  0  0  0  0  0
  -20.9278  -29.8815   21.7008 H   0  0  0  0  0  0
  -26.0199  -38.2882   24.1431 H   0  0  0  0  0  0
  -32.5409  -16.3186   22.1609 H   0  0  0  0  0  0
  -28.9643  -19.6726   21.3588 H   0  0  0  0  0  0
  -34.0450  -18.0152   22.9314 H   0  0  0  0  0  0
  -33.4465  -19.6313   23.2918 H   0  0  0  0  0  0
  -34.0012  -19.2391   21.6617 H   0  0  0  0  0  0
  -28.0702  -24.0801   23.3214 H   0  0  0  0  0  0
  -29.2318  -25.3244   23.8161 H   0  0  0  0  0  0
  -29.4803  -23.6443   24.2558 H   0  0  0  0  0  0
  -27.9640  -25.9793   21.9693 H   0  0  0  0  0  0
  -27.4672  -24.9294   20.6527 H   0  0  0  0  0  0
  -31.7860  -23.4038   21.6231 H   0  0  0  0  0  0
  -31.3705  -23.0810   23.2720 H   0  0  0  0  0  0
  -30.1156  -21.7298   20.8202 H   0  0  0  0  0  0
  -29.5489  -21.5062   22.4796 H   0  0  0  0  0  0
  -29.2038  -15.0185   21.7490 H   0  0  0  0  0  0
  1 25  1  0  0  0
  1 30  2  0  0  0
  1 83  1  0  0  0
  2  3  1  0  0  0
  2 25  1  0  0  0
  2 88  1  0  0  0
  2 89  1  0  0  0
  3  4  1  0  0  0
  3 90  1  0  0  0
  3 91  1  0  0  0
  4  5  1  0  0  0
  4 92  1  0  0  0
  4 93  1  0  0  0
  5  6  1  0  0  0
  5 26  1  0  0  0
  5 94  1  0  0  0
  6 25  1  0  0  0
  6 95  1  0  0  0
  6 96  1  0  0  0
  7  8  2  0  0  0
  7 26  1  0  0  0
  7 29  1  0  0  0
  8  9  1  0  0  0
  8 22  1  0  0  0
  9 10  1  0  0  0
  9 27  2  0  0  0
 10 11  2  0  0  0
 10 15  1  0  0  0
 11 12  1  0  0  0
 11 97  1  0  0  0
 12 13  2  0  0  0
 12 98  1  0  0  0
 13 14  1  0  0  0
 13 31  1  0  0  0
 14 15  2  0  0  0
 14 99  1  0  0  0
 15100  1  0  0  0
 16 17  2  0  0  0
 16 21  1  0  0  0
 16 31  1  0  0  0
 17 18  1  0  0  0
 17101  1  0  0  0
 18 19  2  0  0  0
 18102  1  0  0  0
 19 20  1  0  0  0
 19 24  1  0  0  0
 20 21  2  0  0  0
 20103  1  0  0  0
 21 23  1  0  0  0
 22 28  1  0  0  0
 22 32  2  0  0  0
 26 27  1  0  0  0
 28104  1  0  0  0
 28105  1  0  0  0
 29106  1  0  0  0
 29107  1  0  0  0
 33 34  1  0  0  0
 33 66  1  0  0  0
 33 70  2  0  0  0
 34 36  1  0  0  0
 34 59  1  0  0  0
 34108  1  0  0  0
 35 44  2  0  0  0
 35 45  1  0  0  0
 35 68  1  0  0  0
 36 56  1  0  0  0
 36109  1  0  0  0
 37 39  1  0  0  0
 37 47  1  0  0  0
 37 66  1  0  0  0
 37110  1  0  0  0
 38 43  2  0  0  0
 38 46  1  0  0  0
 38 47  1  0  0  0
 39 64  1  0  0  0
 39 67  2  0  0  0
 40 52  1  0  0  0
 40 53  2  0  0  0
 40 58  1  0  0  0
 41111  1  0  0  0
 41112  1  0  0  0
 41113  1  0  0  0
 41 48  1  0  0  0
 42 43  1  0  0  0
 42 66  1  0  0  0
 42114  1  0  0  0
 42115  1  0  0  0
 43 44  1  0  0  0
 44116  1  0  0  0
 45 46  2  0  0  0
 45117  1  0  0  0
 46118  1  0  0  0
 47119  1  0  0  0
 47120  1  0  0  0
 48 56  1  0  0  0
 48 65  1  0  0  0
 48121  1  0  0  0
 49 50  1  0  0  0
 49 53  1  0  0  0
 49 64  1  0  0  0
 49122  1  0  0  0
 50 51  1  0  0  0
 50123  1  0  0  0
 50124  1  0  0  0
 51 52  1  0  0  0
 51125  1  0  0  0
 51126  1  0  0  0
 52127  1  0  0  0
 52128  1  0  0  0
 53 54  1  0  0  0
 54 55  2  0  0  0
 54129  1  0  0  0
 55 57  1  0  0  0
 55130  1  0  0  0
 56 69  2  0  0  0
 57 58  2  0  0  0
 57131  1  0  0  0
 58132  1  0  0  0
 59 60  1  0  0  0
 59 61  1  0  0  0
 59 62  1  0  0  0
 60133  1  0  0  0
 60134  1  0  0  0
 60135  1  0  0  0
 61136  1  0  0  0
 61137  1  0  0  0
 61138  1  0  0  0
 62139  1  0  0  0
 62140  1  0  0  0
 62141  1  0  0  0
 63 65  1  0  0  0
 63142  1  0  0  0
 63143  1  0  0  0
 63144  1  0  0  0
 64145  1  0  0  0
 65146  1  0  0  0
 68 80  1  0  0  0
 71 73  2  0  0  0
 71 74  1  0  0  0
 71147  1  0  0  0
 72 75  2  0  0  0
 72 76  1  0  0  0
 72148  1  0  0  0
 73 75  1  0  0  0
 73 78  1  0  0  0
 74 76  2  0  0  0
 74 83  1  0  0  0
 75 86  1  0  0  0
 76 87  1  0  0  0
 77 80  1  0  0  0
 77 84  1  0  0  0
 77 85  2  0  0  0
 78149  1  0  0  0
 78150  1  0  0  0
 78151  1  0  0  0
 79 84  1  0  0  0
 79152  1  0  0  0
 79153  1  0  0  0
 79154  1  0  0  0
 80155  1  0  0  0
 80156  1  0  0  0
 81 82  1  0  0  0
 81 84  1  0  0  0
 81157  1  0  0  0
 81158  1  0  0  0
 82 86  1  0  0  0
 82159  1  0  0  0
 82160  1  0  0  0
 83161  1  0  0  0
M  ISO  4   1 100  68 101  80 101  83 100
M  END
> <chiral flag>
0

> <version>
0

> <s_m_source_file>
/data/baiqing/PycharmProjects/Reinvent-master-3.2/result/LINK_invent/BTK/process_docking_weight1_custom_sum_contain_oxygen_bond_distance_aromatic_linkinvent_7_9_3/rearranged_h_0015.sdf

> <i_m_source_file_index>
45

> <r_mmod_Potential_Energy-OPLS-2005>
-70.3561706542969

> <r_mmod_Stretch_Energy-OPLS-2005>
35.6330184936523

> <r_mmod_Bend_Energy-OPLS-2005>
92.7889022827148

> <r_mmod_Torsional_Energy-OPLS-2005>
258.443817138672

> <r_mmod_Improper_Torsional_Energy-OPLS-2005>
3.13324451446533

> <r_mmod_Van_der_Waal_Energy-OPLS-2005>
169.630569458008

> <r_mmod_Electrostatic_Energy-OPLS-2005>
-406.819274902344

> <r_mmod_Solvation_Energy-OPLS-2005>
-231.109634399414

> <b_mmod_Minimization_Converged-OPLS-2005>
0

> <r_mmod_RMS_Derivative-OPLS-2005>
2.07108306884766

$$$$
46
                    3D
 Structure written by MMmdl.
169177  0  0  1  0            999 V2000
  -30.6148  -14.6208   20.5281 C   0  0  0  0  0  0
  -30.4448  -12.3853   19.4466 C   0  0  0  0  0  0
  -29.5086  -12.5182   18.2238 C   0  0  0  0  0  0
  -28.0308  -12.3546   18.6354 C   0  0  0  0  0  0
  -27.6599  -13.2113   19.8751 C   0  0  2  0  0  0
  -28.7048  -13.0302   20.9996 C   0  0  0  0  0  0
  -25.2584  -13.8164   20.5695 C   0  0  0  0  0  0
  -24.1838  -13.0434   20.9174 C   0  0  0  0  0  0
  -24.6399  -11.6904   20.8736 C   0  0  0  0  0  0
  -23.9063  -10.4289   21.0406 C   0  0  0  0  0  0
  -24.3613   -9.4204   21.9186 C   0  0  0  0  0  0
  -23.6288   -8.2240   22.0754 C   0  0  0  0  0  0
  -22.4273   -8.0278   21.3542 C   0  0  0  0  0  0
  -21.9908   -9.0254   20.4645 C   0  0  0  0  0  0
  -22.7239  -10.2132   20.3057 C   0  0  0  0  0  0
  -21.6849   -6.0737   22.5278 C   0  0  0  0  0  0
  -21.4011   -6.5640   23.8212 C   0  0  0  0  0  0
  -21.3659   -5.6790   24.9173 C   0  0  0  0  0  0
  -21.6045   -4.3054   24.7220 C   0  0  0  0  0  0
  -21.8819   -3.8148   23.4342 C   0  0  0  0  0  0
  -21.9192   -4.6964   22.3399 C   0  0  0  0  0  0
  -22.7864  -13.5236   21.1843 C   0  0  0  0  0  0
  -22.1661   -4.2151   21.0974 F   0  0  0  0  0  0
  -21.5629   -3.4539   25.7733 F   0  0  0  0  0  0
  -30.0240  -13.3863   20.4456 N   0  0  0  0  0  0
  -26.3026  -12.9335   20.3386 N   0  0  0  0  0  0
  -25.9333  -11.6492   20.5787 N   0  0  0  0  0  0
  -22.0506  -12.8227   22.0396 N   0  0  0  0  0  0
  -25.4298  -15.1879   20.4110 N   0  0  0  0  0  0
  -31.7499  -14.8299   20.0887 O   0  0  0  0  0  0
  -21.6636   -6.8878   21.4241 O   0  0  0  0  0  0
  -22.3548  -14.5549   20.6698 O   0  0  0  0  0  0
  -24.6263  -31.8592   23.2011 C   0  0  0  0  0  0
  -25.9115  -32.4772   23.8340 C   0  0  1  0  0  0
  -27.2305  -27.3225   20.1068 C   0  0  0  0  0  0
  -25.5924  -33.8572   24.2270 N   0  0  0  0  0  0
  -23.4181  -30.4840   21.5439 C   0  0  2  0  0  0
  -24.8625  -28.9363   20.1117 C   0  0  0  0  0  0
  -22.7470  -29.4626   22.4927 C   0  0  0  0  0  0
  -18.0279  -28.1391   22.8477 C   0  0  0  0  0  0
  -24.1482  -36.7290   23.2642 C   0  0  0  0  0  0
  -25.9587  -30.7910   21.3697 C   0  0  0  0  0  0
  -26.0306  -29.4177   20.7134 C   0  0  0  0  0  0
  -27.2120  -28.6219   20.7020 C   0  0  0  0  0  0
  -26.0311  -26.8864   19.4929 C   0  0  0  0  0  0
  -24.8652  -27.6759   19.4955 C   0  0  0  0  0  0
  -23.6316  -29.8178   20.1589 C   0  0  0  0  0  0
  -25.4105  -36.3076   24.0326 C   0  0  1  0  0  0
  -20.5877  -28.3687   23.1278 C   0  0  2  0  0  0
  -20.6770  -26.9412   22.5408 C   0  0  0  0  0  0
  -19.5750  -26.6379   21.5208 C   0  0  0  0  0  0
  -18.1924  -26.7930   22.1613 C   0  0  0  0  0  0
  -19.1534  -28.8856   23.2873 C   0  0  0  0  0  0
  -18.9466  -30.1457   23.8891 C   0  0  0  0  0  0
  -17.6468  -30.6589   24.0567 C   0  0  0  0  0  0
  -25.9051  -34.9449   23.5098 C   0  0  0  0  0  0
  -16.5356  -29.9092   23.6338 C   0  0  0  0  0  0
  -16.7269  -28.6515   23.0342 C   0  0  0  0  0  0
  -26.4489  -31.6592   25.0723 C   0  0  0  0  0  0
  -25.3724  -31.3735   26.1455 C   0  0  0  0  0  0
  -27.0340  -30.3017   24.6182 C   0  0  0  0  0  0
  -27.6050  -32.4325   25.7494 C   0  0  0  0  0  0
  -27.5571  -37.1793   24.8459 C   0  0  0  0  0  0
  -21.4182  -29.3046   22.3682 N   0  0  0  0  0  0
  -26.4275  -37.3777   23.9417 N   0  0  0  0  0  0
  -24.6865  -31.0613   22.0953 N   0  0  0  0  0  0
  -23.4206  -28.8160   23.2993 O   0  0  0  0  0  0
  -28.3927  -26.5355   20.1552 O   0  0  0  0  0  0
  -26.5624  -34.8922   22.4666 O   0  0  0  0  0  0
  -23.5429  -32.1380   23.7346 O   0  0  0  0  0  0
  -28.6740  -19.1174   21.7857 C   0  0  0  0  0  0
  -30.6267  -17.9176   20.2070 C   0  0  0  0  0  0
  -29.5500  -20.0102   21.0955 C   0  0  0  0  0  0
  -29.7935  -17.0649   20.9762 C   0  0  0  0  0  0
  -28.7796  -17.6935   21.7354 C   0  0  0  0  0  0
  -30.4946  -19.3449   20.2393 C   0  0  0  0  0  0
  -27.9558  -21.7370   18.2253 C   0  0  0  0  0  0
  -30.9792  -22.0369   21.7492 C   0  0  0  0  0  0
  -28.7717  -21.8138   22.7726 C   0  0  0  0  0  0
  -26.8265  -17.3883   23.1227 C   0  0  0  0  0  0
  -27.7127  -21.9990   19.7169 C   0  0  0  0  0  0
  -28.7246  -24.0169   20.8151 C   0  0  0  0  0  0
  -28.4647  -25.1247   19.7035 C   0  0  0  0  0  0
  -29.5283  -21.5891   21.4304 C   0  0  0  0  0  0
  -29.8115  -15.6058   21.0226 N   0  0  0  0  0  0
  -28.9269  -22.5489   20.3838 N   0  3  1  0  0  0
  -27.9340  -16.8412   22.4187 O   0  0  0  0  0  0
  -31.5179  -20.2301   19.1646 Cl  0  0  0  0  0  0
  -31.4856  -12.5180   19.1459 H   0  0  0  0  0  0
  -30.3829  -11.3815   19.8705 H   0  0  0  0  0  0
  -29.7693  -11.7775   17.4666 H   0  0  0  0  0  0
  -29.6507  -13.4942   17.7569 H   0  0  0  0  0  0
  -27.8635  -11.2993   18.8545 H   0  0  0  0  0  0
  -27.3754  -12.5981   17.7984 H   0  0  0  0  0  0
  -27.6881  -14.2532   19.5552 H   0  0  0  0  0  0
  -28.7145  -11.9958   21.3460 H   0  0  0  0  0  0
  -28.4468  -13.6255   21.8769 H   0  0  0  0  0  0
  -25.2760   -9.5679   22.4760 H   0  0  0  0  0  0
  -23.9998   -7.4630   22.7474 H   0  0  0  0  0  0
  -21.0839   -8.8774   19.8948 H   0  0  0  0  0  0
  -22.3702  -10.9671   19.6161 H   0  0  0  0  0  0
  -21.2002   -7.6145   23.9715 H   0  0  0  0  0  0
  -21.1482   -6.0520   25.9075 H   0  0  0  0  0  0
  -22.0599   -2.7612   23.2840 H   0  0  0  0  0  0
  -22.4108  -11.9873   22.4766 H   0  0  0  0  0  0
  -21.1134  -13.1268   22.2625 H   0  0  0  0  0  0
  -24.6617  -15.8420   20.5117 H   0  0  0  0  0  0
  -26.2920  -15.6312   20.1211 H   0  0  0  0  0  0
  -26.7189  -32.5438   23.1091 H   0  0  0  0  0  0
  -25.0067  -33.9712   25.0413 H   0  0  0  0  0  0
  -22.7123  -31.3046   21.4011 H   0  0  0  0  0  0
  -23.3742  -35.9623   23.3294 H   0  0  0  0  0  0
  -24.3580  -36.8924   22.2062 H   0  0  0  0  0  0
  -23.7234  -37.6486   23.6673 H   0  0  0  0  0  0
  -26.0892  -31.5533   20.5995 H   0  0  0  0  0  0
  -26.8401  -30.8388   21.9984 H   0  0  0  0  0  0
  -28.1104  -28.9932   21.1747 H   0  0  0  0  0  0
  -25.9408  -25.9297   19.0062 H   0  0  0  0  0  0
  -23.9681  -27.3000   19.0226 H   0  0  0  0  0  0
  -23.7531  -30.5953   19.4039 H   0  0  0  0  0  0
  -22.7504  -29.2503   19.8539 H   0  0  0  0  0  0
  -25.1283  -36.1914   25.0815 H   0  0  0  0  0  0
  -20.9971  -28.3259   24.1397 H   0  0  0  0  0  0
  -20.5663  -26.2295   23.3604 H   0  0  0  0  0  0
  -21.6637  -26.7432   22.1207 H   0  0  0  0  0  0
  -19.6912  -25.6289   21.1241 H   0  0  0  0  0  0
  -19.6698  -27.3194   20.6740 H   0  0  0  0  0  0
  -17.4195  -26.6679   21.4015 H   0  0  0  0  0  0
  -18.0325  -26.0070   22.9011 H   0  0  0  0  0  0
  -19.7949  -30.7274   24.2254 H   0  0  0  0  0  0
  -17.5029  -31.6272   24.5168 H   0  0  0  0  0  0
  -15.5361  -30.3001   23.7664 H   0  0  0  0  0  0
  -15.8660  -28.0846   22.7043 H   0  0  0  0  0  0
  -24.5887  -30.7093   25.7789 H   0  0  0  0  0  0
  -24.8931  -32.2911   26.4887 H   0  0  0  0  0  0
  -25.8045  -30.8911   27.0233 H   0  0  0  0  0  0
  -26.2923  -29.6761   24.1208 H   0  0  0  0  0  0
  -27.4046  -29.7276   25.4685 H   0  0  0  0  0  0
  -27.8775  -30.4309   23.9398 H   0  0  0  0  0  0
  -27.2667  -33.3636   26.2053 H   0  0  0  0  0  0
  -28.3873  -32.6867   25.0332 H   0  0  0  0  0  0
  -28.0700  -31.8463   26.5433 H   0  0  0  0  0  0
  -28.2565  -38.0114   24.7534 H   0  0  0  0  0  0
  -28.1086  -36.2643   24.6235 H   0  0  0  0  0  0
  -27.2303  -37.1389   25.8867 H   0  0  0  0  0  0
  -20.9353  -29.8788   21.6913 H   0  0  0  0  0  0
  -26.0145  -38.2838   24.1454 H   0  0  0  0  0  0
  -27.9065  -19.5306   22.4146 H   0  0  0  0  0  0
  -31.3789  -17.4820   19.5660 H   0  0  0  0  0  0
  -27.0496  -21.3550   17.7548 H   0  0  0  0  0  0
  -28.7380  -20.9937   18.0701 H   0  0  0  0  0  0
  -28.2395  -22.6465   17.6950 H   0  0  0  0  0  0
  -31.4733  -21.3166   22.4025 H   0  0  0  0  0  0
  -31.0243  -22.9912   22.2719 H   0  0  0  0  0  0
  -31.5993  -22.1597   20.8657 H   0  0  0  0  0  0
  -29.1449  -21.1508   23.5539 H   0  0  0  0  0  0
  -27.6985  -21.6517   22.6751 H   0  0  0  0  0  0
  -28.8948  -22.8216   23.1679 H   0  0  0  0  0  0
  -26.2260  -16.5776   23.5358 H   0  0  0  0  0  0
  -26.1801  -17.9693   22.4635 H   0  0  0  0  0  0
  -27.1518  -18.0130   23.9558 H   0  0  0  0  0  0
  -27.3691  -21.0806   20.1922 H   0  0  0  0  0  0
  -26.8710  -22.6831   19.8276 H   0  0  0  0  0  0
  -27.8932  -24.0655   21.5183 H   0  0  0  0  0  0
  -29.5981  -24.3528   21.3694 H   0  0  0  0  0  0
  -27.6216  -24.8257   19.0907 H   0  0  0  0  0  0
  -29.3070  -25.0940   19.0120 H   0  0  0  0  0  0
  -28.9813  -15.2337   21.4604 H   0  0  0  0  0  0
  -29.6244  -22.5726   19.6537 H   0  0  0  0  0  0
  1 25  1  0  0  0
  1 30  2  0  0  0
  1 85  1  0  0  0
  2  3  1  0  0  0
  2 25  1  0  0  0
  2 89  1  0  0  0
  2 90  1  0  0  0
  3  4  1  0  0  0
  3 91  1  0  0  0
  3 92  1  0  0  0
  4  5  1  0  0  0
  4 93  1  0  0  0
  4 94  1  0  0  0
  5  6  1  0  0  0
  5 26  1  0  0  0
  5 95  1  0  0  0
  6 25  1  0  0  0
  6 96  1  0  0  0
  6 97  1  0  0  0
  7  8  2  0  0  0
  7 26  1  0  0  0
  7 29  1  0  0  0
  8  9  1  0  0  0
  8 22  1  0  0  0
  9 10  1  0  0  0
  9 27  2  0  0  0
 10 11  2  0  0  0
 10 15  1  0  0  0
 11 12  1  0  0  0
 11 98  1  0  0  0
 12 13  2  0  0  0
 12 99  1  0  0  0
 13 14  1  0  0  0
 13 31  1  0  0  0
 14 15  2  0  0  0
 14100  1  0  0  0
 15101  1  0  0  0
 16 17  2  0  0  0
 16 21  1  0  0  0
 16 31  1  0  0  0
 17 18  1  0  0  0
 17102  1  0  0  0
 18 19  2  0  0  0
 18103  1  0  0  0
 19 20  1  0  0  0
 19 24  1  0  0  0
 20 21  2  0  0  0
 20104  1  0  0  0
 21 23  1  0  0  0
 22 28  1  0  0  0
 22 32  2  0  0  0
 26 27  1  0  0  0
 28105  1  0  0  0
 28106  1  0  0  0
 29107  1  0  0  0
 29108  1  0  0  0
 33 34  1  0  0  0
 33 66  1  0  0  0
 33 70  2  0  0  0
 34 36  1  0  0  0
 34 59  1  0  0  0
 34109  1  0  0  0
 35 44  2  0  0  0
 35 45  1  0  0  0
 35 68  1  0  0  0
 36 56  1  0  0  0
 36110  1  0  0  0
 37 39  1  0  0  0
 37 47  1  0  0  0
 37 66  1  0  0  0
 37111  1  0  0  0
 38 43  2  0  0  0
 38 46  1  0  0  0
 38 47  1  0  0  0
 39 64  1  0  0  0
 39 67  2  0  0  0
 40 52  1  0  0  0
 40 53  2  0  0  0
 40 58  1  0  0  0
 41112  1  0  0  0
 41113  1  0  0  0
 41114  1  0  0  0
 41 48  1  0  0  0
 42 43  1  0  0  0
 42 66  1  0  0  0
 42115  1  0  0  0
 42116  1  0  0  0
 43 44  1  0  0  0
 44117  1  0  0  0
 45 46  2  0  0  0
 45118  1  0  0  0
 46119  1  0  0  0
 47120  1  0  0  0
 47121  1  0  0  0
 48 56  1  0  0  0
 48 65  1  0  0  0
 48122  1  0  0  0
 49 50  1  0  0  0
 49 53  1  0  0  0
 49 64  1  0  0  0
 49123  1  0  0  0
 50 51  1  0  0  0
 50124  1  0  0  0
 50125  1  0  0  0
 51 52  1  0  0  0
 51126  1  0  0  0
 51127  1  0  0  0
 52128  1  0  0  0
 52129  1  0  0  0
 53 54  1  0  0  0
 54 55  2  0  0  0
 54130  1  0  0  0
 55 57  1  0  0  0
 55131  1  0  0  0
 56 69  2  0  0  0
 57 58  2  0  0  0
 57132  1  0  0  0
 58133  1  0  0  0
 59 60  1  0  0  0
 59 61  1  0  0  0
 59 62  1  0  0  0
 60134  1  0  0  0
 60135  1  0  0  0
 60136  1  0  0  0
 61137  1  0  0  0
 61138  1  0  0  0
 61139  1  0  0  0
 62140  1  0  0  0
 62141  1  0  0  0
 62142  1  0  0  0
 63 65  1  0  0  0
 63143  1  0  0  0
 63144  1  0  0  0
 63145  1  0  0  0
 64146  1  0  0  0
 65147  1  0  0  0
 68 83  1  0  0  0
 71 73  2  0  0  0
 71 75  1  0  0  0
 71148  1  0  0  0
 72 74  1  0  0  0
 72 76  2  0  0  0
 72149  1  0  0  0
 73 76  1  0  0  0
 73 84  1  0  0  0
 74 75  2  0  0  0
 74 85  1  0  0  0
 75 87  1  0  0  0
 76 88  1  0  0  0
 77 81  1  0  0  0
 77150  1  0  0  0
 77151  1  0  0  0
 77152  1  0  0  0
 78153  1  0  0  0
 78154  1  0  0  0
 78155  1  0  0  0
 78 84  1  0  0  0
 79 84  1  0  0  0
 79156  1  0  0  0
 79157  1  0  0  0
 79158  1  0  0  0
 80 87  1  0  0  0
 80159  1  0  0  0
 80160  1  0  0  0
 80161  1  0  0  0
 81162  1  0  0  0
 81163  1  0  0  0
 81 86  1  0  0  0
 82 83  1  0  0  0
 82 86  1  0  0  0
 82164  1  0  0  0
 82165  1  0  0  0
 83166  1  0  0  0
 83167  1  0  0  0
 84 86  1  0  0  0
 85168  1  0  0  0
 86169  1  0  0  0
M  CHG  1  86   1
M  ISO  4   1 100  68 101  83 101  85 100
M  END
> <chiral flag>
0

> <version>
0

> <s_m_source_file>
/data/baiqing/PycharmProjects/Reinvent-master-3.2/result/LINK_invent/BTK/process_docking_weight1_custom_sum_contain_oxygen_bond_distance_aromatic_linkinvent_7_9_3/rearranged_h_0015.sdf

> <i_m_source_file_index>
46

> <r_mmod_Potential_Energy-OPLS-2005>
-21.0757503509521

> <r_mmod_Stretch_Energy-OPLS-2005>
98.0202789306641

> <r_mmod_Bend_Energy-OPLS-2005>
184.760009765625

> <r_mmod_Torsional_Energy-OPLS-2005>
228.514938354492

> <r_mmod_Improper_Torsional_Energy-OPLS-2005>
3.60845875740051

> <r_mmod_Van_der_Waal_Energy-OPLS-2005>
163.563705444336

> <r_mmod_Electrostatic_Energy-OPLS-2005>
-323.714294433594

> <r_mmod_Solvation_Energy-OPLS-2005>
-417.208404541016

> <b_mmod_Minimization_Converged-OPLS-2005>
0

> <r_mmod_RMS_Derivative-OPLS-2005>
1.09143257141113

$$$$
47
                    3D
 Structure written by MMmdl.
159167  0  0  1  0            999 V2000
  -30.4821  -15.1837   20.4520 C   0  0  0  0  0  0
  -30.4431  -12.7509   19.5606 C   0  0  0  0  0  0
  -29.5490  -12.5721   18.3085 C   0  0  0  0  0  0
  -28.0949  -12.2905   18.7212 C   0  0  0  0  0  0
  -27.6207  -13.2610   19.8291 C   0  0  2  0  0  0
  -28.6373  -13.3978   20.9788 C   0  0  0  0  0  0
  -25.2441  -13.8233   20.5718 C   0  0  0  0  0  0
  -24.1757  -13.0451   20.9215 C   0  0  0  0  0  0
  -24.6383  -11.6936   20.8735 C   0  0  0  0  0  0
  -23.9080  -10.4303   21.0388 C   0  0  0  0  0  0
  -24.3638   -9.4216   21.9160 C   0  0  0  0  0  0
  -23.6313   -8.2249   22.0741 C   0  0  0  0  0  0
  -22.4295   -8.0284   21.3538 C   0  0  0  0  0  0
  -21.9925   -9.0255   20.4638 C   0  0  0  0  0  0
  -22.7256  -10.2137   20.3039 C   0  0  0  0  0  0
  -21.6864   -6.0742   22.5279 C   0  0  0  0  0  0
  -21.4026   -6.5641   23.8219 C   0  0  0  0  0  0
  -21.3657   -5.6787   24.9179 C   0  0  0  0  0  0
  -21.6041   -4.3049   24.7219 C   0  0  0  0  0  0
  -21.8816   -3.8145   23.4336 C   0  0  0  0  0  0
  -21.9195   -4.6969   22.3401 C   0  0  0  0  0  0
  -22.7789  -13.5211   21.1886 C   0  0  0  0  0  0
  -22.1659   -4.2161   21.0974 F   0  0  0  0  0  0
  -21.5635   -3.4521   25.7726 F   0  0  0  0  0  0
  -29.9074  -13.8811   20.4033 N   0  0  0  0  0  0
  -26.2833  -12.9465   20.3162 N   0  0  0  0  0  0
  -25.9313  -11.6587   20.5691 N   0  0  0  0  0  0
  -22.0447  -12.8204   22.0444 N   0  0  0  0  0  0
  -25.4179  -15.1968   20.4276 N   0  0  0  0  0  0
  -31.6408  -15.2239   20.0159 O   0  0  0  0  0  0
  -21.6645   -6.8884   21.4244 O   0  0  0  0  0  0
  -22.3460  -14.5510   20.6730 O   0  0  0  0  0  0
  -24.6590  -31.8277   23.1725 C   0  0  0  0  0  0
  -25.9277  -32.4612   23.8192 C   0  0  1  0  0  0
  -27.2245  -26.9724   20.1784 C   0  0  0  0  0  0
  -25.5951  -33.8424   24.2100 N   0  0  0  0  0  0
  -23.4722  -30.4399   21.5213 C   0  0  2  0  0  0
  -24.9254  -28.8308   20.1146 C   0  0  0  0  0  0
  -22.7647  -29.4460   22.4791 C   0  0  0  0  0  0
  -18.0314  -28.1408   22.8463 C   0  0  0  0  0  0
  -24.1490  -36.7225   23.2649 C   0  0  0  0  0  0
  -26.0391  -30.6483   21.3956 C   0  0  0  0  0  0
  -26.1089  -29.2418   20.7412 C   0  0  0  0  0  0
  -27.2557  -28.3342   20.7456 C   0  0  0  0  0  0
  -26.0101  -26.6993   19.5111 C   0  0  0  0  0  0
  -24.8988  -27.5781   19.4808 C   0  0  0  0  0  0
  -23.7106  -29.7546   20.1477 C   0  0  0  0  0  0
  -25.4131  -36.2987   24.0309 C   0  0  1  0  0  0
  -20.5939  -28.3751   23.1191 C   0  0  2  0  0  0
  -20.6790  -26.9433   22.5406 C   0  0  0  0  0  0
  -19.5766  -26.6373   21.5212 C   0  0  0  0  0  0
  -18.1944  -26.7942   22.1613 C   0  0  0  0  0  0
  -19.1577  -28.8897   23.2813 C   0  0  0  0  0  0
  -18.9485  -30.1483   23.8855 C   0  0  0  0  0  0
  -17.6479  -30.6597   24.0554 C   0  0  0  0  0  0
  -25.9091  -34.9367   23.5030 C   0  0  0  0  0  0
  -16.5373  -29.9084   23.6337 C   0  0  0  0  0  0
  -16.7295  -28.6506   23.0356 C   0  0  0  0  0  0
  -26.4537  -31.6541   25.0712 C   0  0  0  0  0  0
  -25.3686  -31.3786   26.1395 C   0  0  0  0  0  0
  -27.0411  -30.2907   24.6418 C   0  0  0  0  0  0
  -27.6045  -32.4338   25.7502 C   0  0  0  0  0  0
  -27.5578  -37.1763   24.8459 C   0  0  0  0  0  0
  -21.4323  -29.3046   22.3537 N   0  0  0  0  0  0
  -26.4283  -37.3719   23.9412 N   0  0  0  0  0  0
  -24.7444  -30.9976   22.0838 N   0  0  0  0  0  0
  -23.4215  -28.8031   23.3015 O   0  0  0  0  0  0
  -28.2519  -25.9063   20.2374 O   0  0  0  0  0  0
  -26.5700  -34.8893   22.4624 O   0  0  0  0  0  0
  -23.5668  -32.1220   23.6838 O   0  0  0  0  0  0
  -29.6573  -20.2414   19.3698 C   0  0  0  0  0  0
  -28.9795  -18.9062   21.6151 C   0  0  0  0  0  0
  -29.0936  -21.1843   20.3421 C   0  0  0  0  0  0
  -29.8844  -18.7686   19.5051 C   0  0  0  0  0  0
  -28.7676  -20.3663   21.4909 C   0  0  0  0  0  0
  -29.5908  -17.9550   20.6795 C   0  0  0  0  0  0
  -30.5060  -18.0506   18.3227 C   0  0  0  0  0  0
  -28.2175  -21.0912   22.7061 C   0  0  0  0  0  0
  -30.9213  -16.8354   23.2569 C   0  0  0  0  0  0
  -29.1504  -22.9237   20.2663 C   0  0  0  0  0  0
  -29.7674  -16.1511   22.4918 C   0  0  0  0  0  0
  -28.0162  -24.2886   20.1956 C   0  0  0  0  0  0
  -29.8384  -16.3840   21.0264 N   0  0  0  0  0  0
  -31.4724  -12.9300   19.2477 H   0  0  0  0  0  0
  -30.4800  -11.8310   20.1465 H   0  0  0  0  0  0
  -29.9326  -11.7627   17.6858 H   0  0  0  0  0  0
  -29.5891  -13.4783   17.7025 H   0  0  0  0  0  0
  -28.0515  -11.2667   19.0955 H   0  0  0  0  0  0
  -27.4311  -12.3286   17.8569 H   0  0  0  0  0  0
  -27.5535  -14.2370   19.3467 H   0  0  0  0  0  0
  -28.7672  -12.4595   21.5203 H   0  0  0  0  0  0
  -28.2327  -14.1098   21.6969 H   0  0  0  0  0  0
  -25.2786   -9.5711   22.4732 H   0  0  0  0  0  0
  -24.0026   -7.4651   22.7468 H   0  0  0  0  0  0
  -21.0851   -8.8779   19.8959 H   0  0  0  0  0  0
  -22.3698  -10.9674   19.6155 H   0  0  0  0  0  0
  -21.2021   -7.6149   23.9737 H   0  0  0  0  0  0
  -21.1487   -6.0507   25.9089 H   0  0  0  0  0  0
  -22.0599   -2.7606   23.2829 H   0  0  0  0  0  0
  -22.4065  -11.9856   22.4807 H   0  0  0  0  0  0
  -21.1072  -13.1253   22.2665 H   0  0  0  0  0  0
  -24.6696  -15.8626   20.5858 H   0  0  0  0  0  0
  -26.2830  -15.6339   20.1350 H   0  0  0  0  0  0
  -26.7356  -32.5165   23.0920 H   0  0  0  0  0  0
  -25.0035  -33.9505   25.0206 H   0  0  0  0  0  0
  -22.7851  -31.2709   21.3515 H   0  0  0  0  0  0
  -23.3768  -35.9536   23.3273 H   0  0  0  0  0  0
  -24.3570  -36.8907   22.2069 H   0  0  0  0  0  0
  -23.7223  -37.6397   23.6725 H   0  0  0  0  0  0
  -26.2136  -31.3909   20.6153 H   0  0  0  0  0  0
  -26.9018  -30.7050   22.0481 H   0  0  0  0  0  0
  -28.1557  -28.6490   21.2548 H   0  0  0  0  0  0
  -25.8904  -25.7424   19.0245 H   0  0  0  0  0  0
  -23.9998  -27.2571   18.9734 H   0  0  0  0  0  0
  -23.8630  -30.5218   19.3878 H   0  0  0  0  0  0
  -22.8210  -29.2066   19.8323 H   0  0  0  0  0  0
  -25.1324  -36.1802   25.0802 H   0  0  0  0  0  0
  -21.0032  -28.3360   24.1315 H   0  0  0  0  0  0
  -20.5644  -26.2379   23.3651 H   0  0  0  0  0  0
  -21.6656  -26.7391   22.1230 H   0  0  0  0  0  0
  -19.6922  -25.6267   21.1276 H   0  0  0  0  0  0
  -19.6712  -27.3149   20.6717 H   0  0  0  0  0  0
  -17.4220  -26.6684   21.4015 H   0  0  0  0  0  0
  -18.0333  -26.0098   22.9020 H   0  0  0  0  0  0
  -19.7965  -30.7298   24.2223 H   0  0  0  0  0  0
  -17.5037  -31.6278   24.5156 H   0  0  0  0  0  0
  -15.5374  -30.2970   23.7692 H   0  0  0  0  0  0
  -15.8696  -28.0810   22.7096 H   0  0  0  0  0  0
  -24.5804  -30.7222   25.7689 H   0  0  0  0  0  0
  -24.8961  -32.2998   26.4818 H   0  0  0  0  0  0
  -25.7924  -30.8912   27.0187 H   0  0  0  0  0  0
  -26.3055  -29.6596   24.1423 H   0  0  0  0  0  0
  -27.3936  -29.7262   25.5059 H   0  0  0  0  0  0
  -27.9006  -30.4079   23.9817 H   0  0  0  0  0  0
  -27.2601  -33.3625   26.2066 H   0  0  0  0  0  0
  -28.3856  -32.6932   25.0344 H   0  0  0  0  0  0
  -28.0731  -31.8497   26.5433 H   0  0  0  0  0  0
  -28.2577  -38.0075   24.7511 H   0  0  0  0  0  0
  -28.1087  -36.2606   24.6270 H   0  0  0  0  0  0
  -27.2302  -37.1392   25.8860 H   0  0  0  0  0  0
  -20.9570  -29.8763   21.6693 H   0  0  0  0  0  0
  -26.0141  -38.2783   24.1421 H   0  0  0  0  0  0
  -29.9922  -20.6875   18.4443 H   0  0  0  0  0  0
  -28.6594  -18.5087   22.5637 H   0  0  0  0  0  0
  -30.5197  -18.6749   17.4295 H   0  0  0  0  0  0
  -29.9399  -17.1495   18.0867 H   0  0  0  0  0  0
  -31.5315  -17.7615   18.5520 H   0  0  0  0  0  0
  -27.7506  -20.4057   23.4140 H   0  0  0  0  0  0
  -27.4676  -21.8259   22.4117 H   0  0  0  0  0  0
  -29.0210  -21.6121   23.2282 H   0  0  0  0  0  0
  -30.8488  -16.6332   24.3264 H   0  0  0  0  0  0
  -30.9327  -17.9180   23.1386 H   0  0  0  0  0  0
  -31.8907  -16.4614   22.9234 H   0  0  0  0  0  0
  -29.8166  -23.0988   19.4220 H   0  0  0  0  0  0
  -29.7750  -23.1629   21.1265 H   0  0  0  0  0  0
  -28.7959  -16.4559   22.8746 H   0  0  0  0  0  0
  -29.8215  -15.0998   22.7791 H   0  0  0  0  0  0
  -27.3112  -24.1096   21.0078 H   0  0  0  0  0  0
  -27.4376  -24.1155   19.2891 H   0  0  0  0  0  0
  1 25  1  0  0  0
  1 30  2  0  0  0
  1 83  1  0  0  0
  2  3  1  0  0  0
  2 25  1  0  0  0
  2 84  1  0  0  0
  2 85  1  0  0  0
  3  4  1  0  0  0
  3 86  1  0  0  0
  3 87  1  0  0  0
  4  5  1  0  0  0
  4 88  1  0  0  0
  4 89  1  0  0  0
  5  6  1  0  0  0
  5 26  1  0  0  0
  5 90  1  0  0  0
  6 25  1  0  0  0
  6 91  1  0  0  0
  6 92  1  0  0  0
  7  8  2  0  0  0
  7 26  1  0  0  0
  7 29  1  0  0  0
  8  9  1  0  0  0
  8 22  1  0  0  0
  9 10  1  0  0  0
  9 27  2  0  0  0
 10 11  2  0  0  0
 10 15  1  0  0  0
 11 12  1  0  0  0
 11 93  1  0  0  0
 12 13  2  0  0  0
 12 94  1  0  0  0
 13 14  1  0  0  0
 13 31  1  0  0  0
 14 15  2  0  0  0
 14 95  1  0  0  0
 15 96  1  0  0  0
 16 17  2  0  0  0
 16 21  1  0  0  0
 16 31  1  0  0  0
 17 18  1  0  0  0
 17 97  1  0  0  0
 18 19  2  0  0  0
 18 98  1  0  0  0
 19 20  1  0  0  0
 19 24  1  0  0  0
 20 21  2  0  0  0
 20 99  1  0  0  0
 21 23  1  0  0  0
 22 28  1  0  0  0
 22 32  2  0  0  0
 26 27  1  0  0  0
 28100  1  0  0  0
 28101  1  0  0  0
 29102  1  0  0  0
 29103  1  0  0  0
 33 34  1  0  0  0
 33 66  1  0  0  0
 33 70  2  0  0  0
 34 36  1  0  0  0
 34 59  1  0  0  0
 34104  1  0  0  0
 35 44  2  0  0  0
 35 45  1  0  0  0
 35 68  1  0  0  0
 36 56  1  0  0  0
 36105  1  0  0  0
 37 39  1  0  0  0
 37 47  1  0  0  0
 37 66  1  0  0  0
 37106  1  0  0  0
 38 43  2  0  0  0
 38 46  1  0  0  0
 38 47  1  0  0  0
 39 64  1  0  0  0
 39 67  2  0  0  0
 40 52  1  0  0  0
 40 53  2  0  0  0
 40 58  1  0  0  0
 41107  1  0  0  0
 41108  1  0  0  0
 41109  1  0  0  0
 41 48  1  0  0  0
 42 43  1  0  0  0
 42 66  1  0  0  0
 42110  1  0  0  0
 42111  1  0  0  0
 43 44  1  0  0  0
 44112  1  0  0  0
 45 46  2  0  0  0
 45113  1  0  0  0
 46114  1  0  0  0
 47115  1  0  0  0
 47116  1  0  0  0
 48 56  1  0  0  0
 48 65  1  0  0  0
 48117  1  0  0  0
 49 50  1  0  0  0
 49 53  1  0  0  0
 49 64  1  0  0  0
 49118  1  0  0  0
 50 51  1  0  0  0
 50119  1  0  0  0
 50120  1  0  0  0
 51 52  1  0  0  0
 51121  1  0  0  0
 51122  1  0  0  0
 52123  1  0  0  0
 52124  1  0  0  0
 53 54  1  0  0  0
 54 55  2  0  0  0
 54125  1  0  0  0
 55 57  1  0  0  0
 55126  1  0  0  0
 56 69  2  0  0  0
 57 58  2  0  0  0
 57127  1  0  0  0
 58128  1  0  0  0
 59 60  1  0  0  0
 59 61  1  0  0  0
 59 62  1  0  0  0
 60129  1  0  0  0
 60130  1  0  0  0
 60131  1  0  0  0
 61132  1  0  0  0
 61133  1  0  0  0
 61134  1  0  0  0
 62135  1  0  0  0
 62136  1  0  0  0
 62137  1  0  0  0
 63 65  1  0  0  0
 63138  1  0  0  0
 63139  1  0  0  0
 63140  1  0  0  0
 64141  1  0  0  0
 65142  1  0  0  0
 68 82  1  0  0  0
 71 73  2  0  0  0
 71 74  1  0  0  0
 71143  1  0  0  0
 72 75  2  0  0  0
 72 76  1  0  0  0
 72144  1  0  0  0
 73 75  1  0  0  0
 73 80  1  0  0  0
 74 76  2  0  0  0
 74 77  1  0  0  0
 75 78  1  0  0  0
 76 83  1  0  0  0
 77145  1  0  0  0
 77146  1  0  0  0
 77147  1  0  0  0
 78148  1  0  0  0
 78149  1  0  0  0
 78150  1  0  0  0
 79 81  1  0  0  0
 79151  1  0  0  0
 79152  1  0  0  0
 79153  1  0  0  0
 80 82  1  0  0  0
 80154  1  0  0  0
 80155  1  0  0  0
 81 83  1  0  0  0
 81156  1  0  0  0
 81157  1  0  0  0
 82158  1  0  0  0
 82159  1  0  0  0
M  ISO  4   1 100  68 101  82 101  83 100
M  END
> <chiral flag>
0

> <version>
0

> <s_m_source_file>
/data/baiqing/PycharmProjects/Reinvent-master-3.2/result/LINK_invent/BTK/process_docking_weight1_custom_sum_contain_oxygen_bond_distance_aromatic_linkinvent_7_9_3/rearranged_h_0015.sdf

> <i_m_source_file_index>
47

> <r_mmod_Potential_Energy-OPLS-2005>
1261.07275390625

> <r_mmod_Stretch_Energy-OPLS-2005>
488.969940185547

> <r_mmod_Bend_Energy-OPLS-2005>
430.364196777344

> <r_mmod_Torsional_Energy-OPLS-2005>
279.339752197266

> <r_mmod_Improper_Torsional_Energy-OPLS-2005>
5.46712207794189

> <r_mmod_Van_der_Waal_Energy-OPLS-2005>
140.55924987793

> <r_mmod_Electrostatic_Energy-OPLS-2005>
-277.824249267578

> <r_mmod_Solvation_Energy-OPLS-2005>
-184.977325439453

> <b_mmod_Minimization_Converged-OPLS-2005>
0

> <r_mmod_RMS_Derivative-OPLS-2005>
2.04855465888977

$$$$
48
                    3D
 Structure written by MMmdl.
171179  0  0  1  0            999 V2000
  -29.3450  -14.1809   19.1270 C   0  0  0  0  0  0
  -30.7854  -12.3816   19.4130 C   0  0  0  0  0  0
  -29.7090  -11.4930   18.8531 C   0  0  0  0  0  0
  -28.7004  -11.4049   20.0972 C   0  0  0  0  0  0
  -28.3192  -12.8332   21.0560 C   0  0  2  0  0  0
  -29.5474  -13.4567   21.3257 C   0  0  0  0  0  0
  -25.8513  -14.0320   20.7576 C   0  0  0  0  0  0
  -24.2477  -13.0679   20.6343 C   0  0  0  0  0  0
  -24.3896  -11.8791   20.1540 C   0  0  0  0  0  0
  -23.7914  -10.5700   20.7598 C   0  0  0  0  0  0
  -24.2688   -9.6375   21.7587 C   0  0  0  0  0  0
  -23.6089   -8.4006   22.0253 C   0  0  0  0  0  0
  -22.4174   -8.0778   21.3334 C   0  0  0  0  0  0
  -21.9275   -8.9915   20.3919 C   0  0  0  0  0  0
  -22.6108  -10.1826   20.1029 C   0  0  0  0  0  0
  -21.7221   -6.0935   22.5357 C   0  0  0  0  0  0
  -21.4326   -6.5810   23.8271 C   0  0  0  0  0  0
  -21.3762   -5.6904   24.9177 C   0  0  0  0  0  0
  -21.6025   -4.3135   24.7201 C   0  0  0  0  0  0
  -21.8816   -3.8238   23.4323 C   0  0  0  0  0  0
  -21.9339   -4.7118   22.3422 C   0  0  0  0  0  0
  -22.6115  -13.2927   20.9559 C   0  0  0  0  0  0
  -22.1739   -4.2269   21.1002 F   0  0  0  0  0  0
  -21.5513   -3.4591   25.7703 F   0  0  0  0  0  0
  -30.0607  -13.4903   20.0054 N   0  0  0  0  0  0
  -26.9135  -13.7973   20.9587 N   0  0  0  0  0  0
  -25.0611  -13.1882   20.5874 N   0  0  0  0  0  0
  -22.0729  -12.6294   21.9764 N   0  0  0  0  0  0
  -26.4983  -15.3681   20.7884 N   0  0  0  0  0  0
  -30.1722  -15.1039   18.9013 O   0  0  0  0  0  0
  -21.7032   -6.9038   21.4309 O   0  0  0  0  0  0
  -21.9378  -14.2065   20.4798 O   0  0  0  0  0  0
  -24.6344  -31.8549   23.1947 C   0  0  0  0  0  0
  -25.9169  -32.4737   23.8302 C   0  0  1  0  0  0
  -27.1360  -27.1720   20.2598 C   0  0  0  0  0  0
  -25.5950  -33.8540   24.2231 N   0  0  0  0  0  0
  -23.4301  -30.4848   21.5347 C   0  0  2  0  0  0
  -24.8732  -28.9302   20.0984 C   0  0  0  0  0  0
  -22.7507  -29.4635   22.4804 C   0  0  0  0  0  0
  -18.0299  -28.1430   22.8462 C   0  0  0  0  0  0
  -24.1488  -36.7289   23.2637 C   0  0  0  0  0  0
  -25.9799  -30.7561   21.3823 C   0  0  0  0  0  0
  -26.0400  -29.3741   20.7315 C   0  0  0  0  0  0
  -27.1828  -28.5104   20.7892 C   0  0  0  0  0  0
  -25.9802  -26.8351   19.5229 C   0  0  0  0  0  0
  -24.8573  -27.6808   19.4638 C   0  0  0  0  0  0
  -23.6514  -29.8269   20.1467 C   0  0  0  0  0  0
  -25.4110  -36.3060   24.0319 C   0  0  1  0  0  0
  -20.5908  -28.3756   23.1204 C   0  0  2  0  0  0
  -20.6795  -26.9451   22.5394 C   0  0  0  0  0  0
  -19.5770  -26.6393   21.5210 C   0  0  0  0  0  0
  -18.1947  -26.7966   22.1614 C   0  0  0  0  0  0
  -19.1554  -28.8902   23.2841 C   0  0  0  0  0  0
  -18.9479  -30.1497   23.8869 C   0  0  0  0  0  0
  -17.6480  -30.6616   24.0568 C   0  0  0  0  0  0
  -25.9061  -34.9433   23.5080 C   0  0  0  0  0  0
  -16.5365  -29.9115   23.6346 C   0  0  0  0  0  0
  -16.7285  -28.6543   23.0341 C   0  0  0  0  0  0
  -26.4516  -31.6578   25.0721 C   0  0  0  0  0  0
  -25.3701  -31.3765   26.1414 C   0  0  0  0  0  0
  -27.0409  -30.2976   24.6301 C   0  0  0  0  0  0
  -27.6057  -32.4336   25.7506 C   0  0  0  0  0  0
  -27.5587  -37.1778   24.8447 C   0  0  0  0  0  0
  -21.4209  -29.3093   22.3551 N   0  0  0  0  0  0
  -26.4273  -37.3775   23.9432 N   0  0  0  0  0  0
  -24.7003  -31.0529   22.0921 N   0  0  0  0  0  0
  -23.4178  -28.8145   23.2909 O   0  0  0  0  0  0
  -28.1334  -26.1968   20.5113 O   0  0  0  0  0  0
  -26.5640  -34.8911   22.4650 O   0  0  0  0  0  0
  -23.5493  -32.1375   23.7229 O   0  0  0  0  0  0
  -26.3571  -11.6830   21.4161 C   0  0  0  0  0  0
  -24.1994  -15.3593   20.0124 C   0  0  0  0  0  0
  -25.4159  -13.1760   22.8255 C   0  0  0  0  0  0
  -26.5439  -12.6036   19.0568 C   0  0  0  0  0  0
  -25.2762  -14.2350   18.5742 C   0  0  0  0  0  0
  -24.3212  -14.8920   22.1292 C   0  0  0  0  0  0
  -27.2261  -16.5796   23.4372 C   0  0  0  0  0  0
  -29.1053  -19.2113   22.5517 C   0  0  0  0  0  0
  -26.3502  -13.9944   23.8653 C   0  0  0  0  0  0
  -26.9358  -18.2026   23.4687 C   0  0  0  0  0  0
  -27.7410  -21.9704   21.5578 C   0  0  0  0  0  0
  -27.6326  -23.6262   21.7358 C   0  0  0  0  0  0
  -27.2341  -20.8091   22.6517 C   0  0  0  0  0  0
  -27.8932  -24.6743   20.4764 C   0  0  0  0  0  0
  -25.3500  -14.7489   17.2771 N   0  0  0  0  0  0
  -27.9476  -13.6408   18.5671 N   0  0  0  0  0  0
  -26.3319  -15.5765   23.8612 N   0  0  0  0  0  0
  -27.6214  -19.2823   22.5264 N   0  3  1  0  0  0
  -28.3246  -16.2149   23.0223 O   0  0  0  0  0  0
  -23.7368  -15.7321   23.0224 F   0  0  0  0  0  0
  -31.4749  -12.7201   18.6372 H   0  0  0  0  0  0
  -31.3769  -11.8762   20.1764 H   0  0  0  0  0  0
  -30.1426  -10.5079   18.6523 H   0  0  0  0  0  0
  -29.2912  -11.8009   17.8962 H   0  0  0  0  0  0
  -29.2610  -10.7819   20.8095 H   0  0  0  0  0  0
  -27.9211  -10.6562   19.8158 H   0  0  0  0  0  0
  -28.2479  -12.3660   20.2090 H   0  0  0  0  0  0
  -29.4404  -14.4539   21.7443 H   0  0  0  0  0  0
  -30.1608  -12.8563   21.9947 H   0  0  0  0  0  0
  -25.1596   -9.8165   22.3339 H   0  0  0  0  0  0
  -24.0274   -7.7173   22.7495 H   0  0  0  0  0  0
  -21.0268   -8.7523   19.8419 H   0  0  0  0  0  0
  -22.2154  -10.8110   19.3157 H   0  0  0  0  0  0
  -21.2485   -7.6332   23.9810 H   0  0  0  0  0  0
  -21.1530   -6.0623   25.9076 H   0  0  0  0  0  0
  -22.0484   -2.7691   23.2776 H   0  0  0  0  0  0
  -22.6180  -11.9383   22.4666 H   0  0  0  0  0  0
  -21.1261  -12.8175   22.2668 H   0  0  0  0  0  0
  -27.4257  -15.5149   21.1673 H   0  0  0  0  0  0
  -25.9831  -16.2117   20.5773 H   0  0  0  0  0  0
  -26.7237  -32.5375   23.1041 H   0  0  0  0  0  0
  -25.0070  -33.9671   25.0349 H   0  0  0  0  0  0
  -22.7288  -31.3103   21.3895 H   0  0  0  0  0  0
  -23.3765  -35.9605   23.3237 H   0  0  0  0  0  0
  -24.3583  -36.8981   22.2067 H   0  0  0  0  0  0
  -23.7211  -37.6452   23.6706 H   0  0  0  0  0  0
  -26.1270  -31.5103   20.6090 H   0  0  0  0  0  0
  -26.8528  -30.8021   22.0206 H   0  0  0  0  0  0
  -28.0617  -28.8287   21.3321 H   0  0  0  0  0  0
  -25.8847  -25.8804   19.0322 H   0  0  0  0  0  0
  -23.9681  -27.3451   18.9495 H   0  0  0  0  0  0
  -23.7848  -30.6057   19.3958 H   0  0  0  0  0  0
  -22.7655  -29.2705   19.8355 H   0  0  0  0  0  0
  -25.1280  -36.1895   25.0807 H   0  0  0  0  0  0
  -21.0023  -28.3404   24.1315 H   0  0  0  0  0  0
  -20.5709  -26.2385   23.3633 H   0  0  0  0  0  0
  -21.6664  -26.7486   22.1179 H   0  0  0  0  0  0
  -19.6941  -25.6291   21.1282 H   0  0  0  0  0  0
  -19.6728  -27.3163   20.6709 H   0  0  0  0  0  0
  -17.4218  -26.6688   21.4020 H   0  0  0  0  0  0
  -18.0356  -26.0132   22.9037 H   0  0  0  0  0  0
  -19.7955  -30.7325   24.2213 H   0  0  0  0  0  0
  -17.5038  -31.6288   24.5191 H   0  0  0  0  0  0
  -15.5367  -30.3018   23.7702 H   0  0  0  0  0  0
  -15.8678  -28.0874   22.7054 H   0  0  0  0  0  0
  -24.5845  -30.7173   25.7697 H   0  0  0  0  0  0
  -24.8933  -32.2969   26.4808 H   0  0  0  0  0  0
  -25.7955  -30.8914   27.0211 H   0  0  0  0  0  0
  -26.3057  -29.6660   24.1305 H   0  0  0  0  0  0
  -27.4035  -29.7302   25.4894 H   0  0  0  0  0  0
  -27.8933  -30.4234   23.9617 H   0  0  0  0  0  0
  -27.2641  -33.3623   26.2094 H   0  0  0  0  0  0
  -28.3859  -32.6928   25.0334 H   0  0  0  0  0  0
  -28.0744  -31.8458   26.5414 H   0  0  0  0  0  0
  -28.2538  -38.0140   24.7576 H   0  0  0  0  0  0
  -28.1147  -36.2677   24.6151 H   0  0  0  0  0  0
  -27.2324  -37.1271   25.8849 H   0  0  0  0  0  0
  -20.9380  -29.8826   21.6765 H   0  0  0  0  0  0
  -26.0145  -38.2835   24.1472 H   0  0  0  0  0  0
  -27.0183  -10.9437   21.8501 H   0  0  0  0  0  0
  -23.6368  -16.2264   19.6935 H   0  0  0  0  0  0
  -29.5044  -18.2239   22.7433 H   0  0  0  0  0  0
  -29.5171  -19.8678   23.3208 H   0  0  0  0  0  0
  -29.5174  -19.5427   21.6008 H   0  0  0  0  0  0
  -27.3814  -13.6853   23.6882 H   0  0  0  0  0  0
  -26.0978  -13.6402   24.8695 H   0  0  0  0  0  0
  -27.1827  -18.5017   24.4873 H   0  0  0  0  0  0
  -25.8583  -18.3327   23.3796 H   0  0  0  0  0  0
  -28.7985  -21.7863   21.3667 H   0  0  0  0  0  0
  -27.2472  -21.7399   20.6147 H   0  0  0  0  0  0
  -28.3391  -23.8965   22.5249 H   0  0  0  0  0  0
  -26.6539  -23.8629   22.1508 H   0  0  0  0  0  0
  -26.1497  -20.8636   22.7054 H   0  0  0  0  0  0
  -27.5730  -21.1296   23.6384 H   0  0  0  0  0  0
  -27.1435  -24.4328   19.7305 H   0  0  0  0  0  0
  -28.8128  -24.3162   20.0113 H   0  0  0  0  0  0
  -24.9848  -15.6819   17.1139 H   0  0  0  0  0  0
  -26.0570  -14.4478   16.6144 H   0  0  0  0  0  0
  -27.6727  -14.2242   17.7890 H   0  0  0  0  0  0
  -25.4353  -15.9444   24.1596 H   0  0  0  0  0  0
  -27.3490  -18.9938   21.5951 H   0  0  0  0  0  0
  1 25  1  0  0  0
  1 30  2  0  0  0
  1 86  1  0  0  0
  2  3  1  0  0  0
  2 25  1  0  0  0
  2 91  1  0  0  0
  2 92  1  0  0  0
  3  4  1  0  0  0
  3 93  1  0  0  0
  3 94  1  0  0  0
  4  5  1  0  0  0
  4 95  1  0  0  0
  4 96  1  0  0  0
  5  6  1  0  0  0
  5 26  1  0  0  0
  5 97  1  0  0  0
  6 25  1  0  0  0
  6 98  1  0  0  0
  6 99  1  0  0  0
  7  8  2  0  0  0
  7 26  1  0  0  0
  7 29  1  0  0  0
  8  9  1  0  0  0
  8 22  1  0  0  0
  9 10  1  0  0  0
  9 27  2  0  0  0
 10 11  2  0  0  0
 10 15  1  0  0  0
 11 12  1  0  0  0
 11100  1  0  0  0
 12 13  2  0  0  0
 12101  1  0  0  0
 13 14  1  0  0  0
 13 31  1  0  0  0
 14 15  2  0  0  0
 14102  1  0  0  0
 15103  1  0  0  0
 16 17  2  0  0  0
 16 21  1  0  0  0
 16 31  1  0  0  0
 17 18  1  0  0  0
 17104  1  0  0  0
 18 19  2  0  0  0
 18105  1  0  0  0
 19 20  1  0  0  0
 19 24  1  0  0  0
 20 21  2  0  0  0
 20106  1  0  0  0
 21 23  1  0  0  0
 22 28  1  0  0  0
 22 32  2  0  0  0
 26 27  1  0  0  0
 28107  1  0  0  0
 28108  1  0  0  0
 29109  1  0  0  0
 29110  1  0  0  0
 33 34  1  0  0  0
 33 66  1  0  0  0
 33 70  2  0  0  0
 34 36  1  0  0  0
 34 59  1  0  0  0
 34111  1  0  0  0
 35 44  2  0  0  0
 35 45  1  0  0  0
 35 68  1  0  0  0
 36 56  1  0  0  0
 36112  1  0  0  0
 37 39  1  0  0  0
 37 47  1  0  0  0
 37 66  1  0  0  0
 37113  1  0  0  0
 38 43  2  0  0  0
 38 46  1  0  0  0
 38 47  1  0  0  0
 39 64  1  0  0  0
 39 67  2  0  0  0
 40 52  1  0  0  0
 40 53  2  0  0  0
 40 58  1  0  0  0
 41114  1  0  0  0
 41115  1  0  0  0
 41116  1  0  0  0
 41 48  1  0  0  0
 42 43  1  0  0  0
 42 66  1  0  0  0
 42117  1  0  0  0
 42118  1  0  0  0
 43 44  1  0  0  0
 44119  1  0  0  0
 45 46  2  0  0  0
 45120  1  0  0  0
 46121  1  0  0  0
 47122  1  0  0  0
 47123  1  0  0  0
 48 56  1  0  0  0
 48 65  1  0  0  0
 48124  1  0  0  0
 49 50  1  0  0  0
 49 53  1  0  0  0
 49 64  1  0  0  0
 49125  1  0  0  0
 50 51  1  0  0  0
 50126  1  0  0  0
 50127  1  0  0  0
 51 52  1  0  0  0
 51128  1  0  0  0
 51129  1  0  0  0
 52130  1  0  0  0
 52131  1  0  0  0
 53 54  1  0  0  0
 54 55  2  0  0  0
 54132  1  0  0  0
 55 57  1  0  0  0
 55133  1  0  0  0
 56 69  2  0  0  0
 57 58  2  0  0  0
 57134  1  0  0  0
 58135  1  0  0  0
 59 60  1  0  0  0
 59 61  1  0  0  0
 59 62  1  0  0  0
 60136  1  0  0  0
 60137  1  0  0  0
 60138  1  0  0  0
 61139  1  0  0  0
 61140  1  0  0  0
 61141  1  0  0  0
 62142  1  0  0  0
 62143  1  0  0  0
 62144  1  0  0  0
 63 65  1  0  0  0
 63145  1  0  0  0
 63146  1  0  0  0
 63147  1  0  0  0
 64148  1  0  0  0
 65149  1  0  0  0
 68 84  1  0  0  0
 71 73  2  0  0  0
 71 74  1  0  0  0
 71150  1  0  0  0
 72 75  1  0  0  0
 72 76  2  0  0  0
 72151  1  0  0  0
 73 76  1  0  0  0
 73 79  1  0  0  0
 74 75  2  0  0  0
 74 86  1  0  0  0
 75 85  1  0  0  0
 76 90  1  0  0  0
 77 80  1  0  0  0
 77 87  1  0  0  0
 77 89  2  0  0  0
 78152  1  0  0  0
 78153  1  0  0  0
 78154  1  0  0  0
 78 88  1  0  0  0
 79 87  1  0  0  0
 79155  1  0  0  0
 79156  1  0  0  0
 80 88  1  0  0  0
 80157  1  0  0  0
 80158  1  0  0  0
 81 82  1  0  0  0
 81 83  1  0  0  0
 81159  1  0  0  0
 81160  1  0  0  0
 82 84  1  0  0  0
 82161  1  0  0  0
 82162  1  0  0  0
 83 88  1  0  0  0
 83163  1  0  0  0
 83164  1  0  0  0
 84165  1  0  0  0
 84166  1  0  0  0
 85167  1  0  0  0
 85168  1  0  0  0
 86169  1  0  0  0
 87170  1  0  0  0
 88171  1  0  0  0
M  CHG  1  88   1
M  ISO  4   1 100  68 101  84 101  86 100
M  END
> <chiral flag>
0

> <version>
0

> <s_m_source_file>
/data/baiqing/PycharmProjects/Reinvent-master-3.2/result/LINK_invent/BTK/process_docking_weight1_custom_sum_contain_oxygen_bond_distance_aromatic_linkinvent_7_9_3/rearranged_h_0015.sdf

> <i_m_source_file_index>
48

> <r_mmod_Potential_Energy-OPLS-2005>
20553.009765625

> <r_mmod_Stretch_Energy-OPLS-2005>
10757.748046875

> <r_mmod_Bend_Energy-OPLS-2005>
2541.45239257812

> <r_mmod_Torsional_Energy-OPLS-2005>
623.255676269531

> <r_mmod_Improper_Torsional_Energy-OPLS-2005>
93.481201171875

> <r_mmod_Van_der_Waal_Energy-OPLS-2005>
4873.7958984375

> <r_mmod_Electrostatic_Energy-OPLS-2005>
-494.831085205078

> <r_mmod_Solvation_Energy-OPLS-2005>
-455.972930908203

> <b_mmod_Minimization_Converged-OPLS-2005>
0

> <r_mmod_RMS_Derivative-OPLS-2005>
10.0013751983643

$$$$
49
                    3D
 Structure written by MMmdl.
164172  0  0  1  0            999 V2000
  -30.6739  -14.6252   20.5948 C   0  0  0  0  0  0
  -30.4206  -12.4107   19.4551 C   0  0  0  0  0  0
  -29.5034  -12.5295   18.2190 C   0  0  0  0  0  0
  -28.0277  -12.3477   18.6198 C   0  0  0  0  0  0
  -27.6442  -13.2075   19.8500 C   0  0  2  0  0  0
  -28.6757  -13.0821   20.9849 C   0  0  0  0  0  0
  -25.2541  -13.8136   20.5649 C   0  0  0  0  0  0
  -24.1801  -13.0417   20.9146 C   0  0  0  0  0  0
  -24.6356  -11.6877   20.8698 C   0  0  0  0  0  0
  -23.9037  -10.4275   21.0390 C   0  0  0  0  0  0
  -24.3613   -9.4202   21.9167 C   0  0  0  0  0  0
  -23.6290   -8.2237   22.0740 C   0  0  0  0  0  0
  -22.4266   -8.0269   21.3535 C   0  0  0  0  0  0
  -21.9895   -9.0236   20.4632 C   0  0  0  0  0  0
  -22.7221  -10.2116   20.3037 C   0  0  0  0  0  0
  -21.6848   -6.0730   22.5270 C   0  0  0  0  0  0
  -21.4011   -6.5632   23.8211 C   0  0  0  0  0  0
  -21.3667   -5.6777   24.9167 C   0  0  0  0  0  0
  -21.6043   -4.3036   24.7214 C   0  0  0  0  0  0
  -21.8823   -3.8138   23.4331 C   0  0  0  0  0  0
  -21.9190   -4.6958   22.3387 C   0  0  0  0  0  0
  -22.7841  -13.5229   21.1852 C   0  0  0  0  0  0
  -22.1655   -4.2145   21.0965 F   0  0  0  0  0  0
  -21.5643   -3.4517   25.7727 F   0  0  0  0  0  0
  -30.0028  -13.4300   20.4453 N   0  0  0  0  0  0
  -26.2920  -12.9285   20.3208 N   0  0  0  0  0  0
  -25.9270  -11.6445   20.5667 N   0  0  0  0  0  0
  -22.0504  -12.8212   22.0422 N   0  0  0  0  0  0
  -25.4340  -15.1857   20.4172 N   0  0  0  0  0  0
  -31.7736  -14.7937   20.0569 O   0  0  0  0  0  0
  -21.6629   -6.8872   21.4235 O   0  0  0  0  0  0
  -22.3521  -14.5544   20.6715 O   0  0  0  0  0  0
  -24.6228  -31.8612   23.2036 C   0  0  0  0  0  0
  -25.9083  -32.4783   23.8361 C   0  0  1  0  0  0
  -27.2338  -27.3354   20.1330 C   0  0  0  0  0  0
  -25.5925  -33.8583   24.2296 N   0  0  0  0  0  0
  -23.4168  -30.4826   21.5448 C   0  0  2  0  0  0
  -24.8676  -28.9323   20.1172 C   0  0  0  0  0  0
  -22.7455  -29.4633   22.4952 C   0  0  0  0  0  0
  -18.0280  -28.1390   22.8480 C   0  0  0  0  0  0
  -24.1486  -36.7268   23.2644 C   0  0  0  0  0  0
  -25.9547  -30.7984   21.3712 C   0  0  0  0  0  0
  -26.0337  -29.4246   20.7176 C   0  0  0  0  0  0
  -27.2222  -28.6398   20.7111 C   0  0  0  0  0  0
  -26.0481  -26.8852   19.5150 C   0  0  0  0  0  0
  -24.8747  -27.6663   19.5079 C   0  0  0  0  0  0
  -23.6321  -29.8101   20.1624 C   0  0  0  0  0  0
  -25.4111  -36.3085   24.0347 C   0  0  1  0  0  0
  -20.5877  -28.3691   23.1294 C   0  0  2  0  0  0
  -20.6772  -26.9418   22.5426 C   0  0  0  0  0  0
  -19.5762  -26.6387   21.5221 C   0  0  0  0  0  0
  -18.1931  -26.7946   22.1599 C   0  0  0  0  0  0
  -19.1532  -28.8856   23.2880 C   0  0  0  0  0  0
  -18.9462  -30.1461   23.8897 C   0  0  0  0  0  0
  -17.6461  -30.6590   24.0568 C   0  0  0  0  0  0
  -25.9050  -34.9458   23.5122 C   0  0  0  0  0  0
  -16.5353  -29.9088   23.6340 C   0  0  0  0  0  0
  -16.7268  -28.6510   23.0353 C   0  0  0  0  0  0
  -26.4479  -31.6583   25.0719 C   0  0  0  0  0  0
  -25.3715  -31.3709   26.1446 C   0  0  0  0  0  0
  -27.0300  -30.3004   24.6155 C   0  0  0  0  0  0
  -27.6048  -32.4314   25.7471 C   0  0  0  0  0  0
  -27.5585  -37.1785   24.8462 C   0  0  0  0  0  0
  -21.4175  -29.3033   22.3678 N   0  0  0  0  0  0
  -26.4282  -37.3784   23.9434 N   0  0  0  0  0  0
  -24.6833  -31.0643   22.0968 N   0  0  0  0  0  0
  -23.4185  -28.8202   23.3049 O   0  0  0  0  0  0
  -28.3627  -26.5091   20.1362 O   0  0  0  0  0  0
  -26.5610  -34.8931   22.4682 O   0  0  0  0  0  0
  -23.5397  -32.1397   23.7383 O   0  0  0  0  0  0
  -30.3281  -18.1005   21.8761 C   0  0  0  0  0  0
  -29.3282  -18.9816   19.4621 C   0  0  0  0  0  0
  -30.2033  -19.5031   21.6299 C   0  0  0  0  0  0
  -29.4517  -17.5734   19.7074 C   0  0  0  0  0  0
  -29.9767  -17.0747   20.9431 C   0  0  0  0  0  0
  -29.6876  -19.9923   20.3974 C   0  0  0  0  0  0
  -30.6894  -20.4472   22.7175 C   0  0  0  0  0  0
  -28.9504  -16.6464   18.6118 C   0  0  0  0  0  0
  -30.1426  -15.3764   22.7843 C   0  0  0  0  0  0
  -30.9177  -21.7167   19.3094 C   0  0  0  0  0  0
  -28.9784  -23.9359   19.9969 C   0  0  0  0  0  0
  -29.0013  -22.5066   20.7288 C   0  0  0  0  0  0
  -28.2249  -25.1490   20.7018 C   0  0  0  0  0  0
  -30.0935  -15.6392   21.3328 N   0  0  0  0  0  0
  -29.6707  -21.3785   19.9919 N   0  0  0  0  0  0
  -31.4660  -12.5193   19.1615 H   0  0  0  0  0  0
  -30.3417  -11.4135   19.8897 H   0  0  0  0  0  0
  -29.7823  -11.7901   17.4664 H   0  0  0  0  0  0
  -29.6383  -13.5057   17.7520 H   0  0  0  0  0  0
  -27.8659  -11.2918   18.8383 H   0  0  0  0  0  0
  -27.3763  -12.5850   17.7772 H   0  0  0  0  0  0
  -27.6578  -14.2384   19.5117 H   0  0  0  0  0  0
  -28.6876  -12.0711   21.3916 H   0  0  0  0  0  0
  -28.3570  -13.7272   21.8010 H   0  0  0  0  0  0
  -25.2769   -9.5677   22.4723 H   0  0  0  0  0  0
  -24.0002   -7.4623   22.7445 H   0  0  0  0  0  0
  -21.0834   -8.8759   19.8926 H   0  0  0  0  0  0
  -22.3696  -10.9652   19.6133 H   0  0  0  0  0  0
  -21.1999   -7.6136   23.9727 H   0  0  0  0  0  0
  -21.1487   -6.0489   25.9080 H   0  0  0  0  0  0
  -22.0597   -2.7596   23.2816 H   0  0  0  0  0  0
  -22.4103  -11.9851   22.4764 H   0  0  0  0  0  0
  -21.1136  -13.1251   22.2674 H   0  0  0  0  0  0
  -24.6837  -15.8535   20.5540 H   0  0  0  0  0  0
  -26.3181  -15.6234   20.1935 H   0  0  0  0  0  0
  -26.7151  -32.5460   23.1113 H   0  0  0  0  0  0
  -25.0111  -33.9737   25.0469 H   0  0  0  0  0  0
  -22.7101  -31.3024   21.3998 H   0  0  0  0  0  0
  -23.3784  -35.9560   23.3274 H   0  0  0  0  0  0
  -24.3583  -36.8905   22.2060 H   0  0  0  0  0  0
  -23.7190  -37.6445   23.6675 H   0  0  0  0  0  0
  -26.0826  -31.5628   20.6039 H   0  0  0  0  0  0
  -26.8354  -30.8483   21.9999 H   0  0  0  0  0  0
  -28.1194  -29.0199   21.1803 H   0  0  0  0  0  0
  -26.0253  -25.9137   19.0418 H   0  0  0  0  0  0
  -23.9800  -27.2812   19.0385 H   0  0  0  0  0  0
  -23.7481  -30.5839   19.4027 H   0  0  0  0  0  0
  -22.7538  -29.2351   19.8627 H   0  0  0  0  0  0
  -25.1288  -36.1929   25.0839 H   0  0  0  0  0  0
  -20.9958  -28.3273   24.1421 H   0  0  0  0  0  0
  -20.5672  -26.2313   23.3628 H   0  0  0  0  0  0
  -21.6647  -26.7454   22.1229 H   0  0  0  0  0  0
  -19.6931  -25.6295   21.1263 H   0  0  0  0  0  0
  -19.6729  -27.3191   20.6753 H   0  0  0  0  0  0
  -17.4226  -26.6728   21.3969 H   0  0  0  0  0  0
  -18.0289  -26.0072   22.8966 H   0  0  0  0  0  0
  -19.7938  -30.7279   24.2259 H   0  0  0  0  0  0
  -17.5021  -31.6277   24.5162 H   0  0  0  0  0  0
  -15.5354  -30.2991   23.7688 H   0  0  0  0  0  0
  -15.8659  -28.0836   22.7070 H   0  0  0  0  0  0
  -24.5999  -30.6908   25.7819 H   0  0  0  0  0  0
  -24.8763  -32.2843   26.4752 H   0  0  0  0  0  0
  -25.8070  -30.9041   27.0292 H   0  0  0  0  0  0
  -26.2852  -29.6772   24.1192 H   0  0  0  0  0  0
  -27.4001  -29.7247   25.4649 H   0  0  0  0  0  0
  -27.8731  -30.4279   23.9360 H   0  0  0  0  0  0
  -27.2677  -33.3635   26.2021 H   0  0  0  0  0  0
  -28.3863  -32.6833   25.0290 H   0  0  0  0  0  0
  -28.0713  -31.8452   26.5400 H   0  0  0  0  0  0
  -28.2593  -38.0094   24.7550 H   0  0  0  0  0  0
  -28.1095  -36.2636   24.6229 H   0  0  0  0  0  0
  -27.2321  -37.1344   25.8867 H   0  0  0  0  0  0
  -20.9372  -29.8701   21.6824 H   0  0  0  0  0  0
  -26.0164  -38.2854   24.1469 H   0  0  0  0  0  0
  -30.7364  -17.8234   22.8357 H   0  0  0  0  0  0
  -28.9460  -19.3029   18.5037 H   0  0  0  0  0  0
  -31.4547  -19.9707   23.3305 H   0  0  0  0  0  0
  -29.8645  -20.7342   23.3703 H   0  0  0  0  0  0
  -31.1417  -21.3457   22.3012 H   0  0  0  0  0  0
  -28.8513  -17.1703   17.6608 H   0  0  0  0  0  0
  -27.9612  -16.2771   18.8717 H   0  0  0  0  0  0
  -29.6151  -15.8049   18.4321 H   0  0  0  0  0  0
  -31.1087  -15.6788   23.1908 H   0  0  0  0  0  0
  -30.0195  -14.3271   23.0591 H   0  0  0  0  0  0
  -29.3613  -15.9301   23.3065 H   0  0  0  0  0  0
  -31.4734  -20.8374   18.9792 H   0  0  0  0  0  0
  -31.5718  -22.2914   19.9671 H   0  0  0  0  0  0
  -30.7167  -22.3222   18.4251 H   0  0  0  0  0  0
  -28.5555  -23.8101   19.0003 H   0  0  0  0  0  0
  -30.0092  -24.2561   19.8417 H   0  0  0  0  0  0
  -27.9773  -22.2053   20.9529 H   0  0  0  0  0  0
  -29.4825  -22.6414   21.6962 H   0  0  0  0  0  0
  -28.6067  -25.2262   21.7206 H   0  0  0  0  0  0
  -27.1766  -24.8778   20.8208 H   0  0  0  0  0  0
  1 25  1  0  0  0
  1 30  2  0  0  0
  1 84  1  0  0  0
  2  3  1  0  0  0
  2 25  1  0  0  0
  2 86  1  0  0  0
  2 87  1  0  0  0
  3  4  1  0  0  0
  3 88  1  0  0  0
  3 89  1  0  0  0
  4  5  1  0  0  0
  4 90  1  0  0  0
  4 91  1  0  0  0
  5  6  1  0  0  0
  5 26  1  0  0  0
  5 92  1  0  0  0
  6 25  1  0  0  0
  6 93  1  0  0  0
  6 94  1  0  0  0
  7  8  2  0  0  0
  7 26  1  0  0  0
  7 29  1  0  0  0
  8  9  1  0  0  0
  8 22  1  0  0  0
  9 10  1  0  0  0
  9 27  2  0  0  0
 10 11  2  0  0  0
 10 15  1  0  0  0
 11 12  1  0  0  0
 11 95  1  0  0  0
 12 13  2  0  0  0
 12 96  1  0  0  0
 13 14  1  0  0  0
 13 31  1  0  0  0
 14 15  2  0  0  0
 14 97  1  0  0  0
 15 98  1  0  0  0
 16 17  2  0  0  0
 16 21  1  0  0  0
 16 31  1  0  0  0
 17 18  1  0  0  0
 17 99  1  0  0  0
 18 19  2  0  0  0
 18100  1  0  0  0
 19 20  1  0  0  0
 19 24  1  0  0  0
 20 21  2  0  0  0
 20101  1  0  0  0
 21 23  1  0  0  0
 22 28  1  0  0  0
 22 32  2  0  0  0
 26 27  1  0  0  0
 28102  1  0  0  0
 28103  1  0  0  0
 29104  1  0  0  0
 29105  1  0  0  0
 33 34  1  0  0  0
 33 66  1  0  0  0
 33 70  2  0  0  0
 34 36  1  0  0  0
 34 59  1  0  0  0
 34106  1  0  0  0
 35 44  2  0  0  0
 35 45  1  0  0  0
 35 68  1  0  0  0
 36 56  1  0  0  0
 36107  1  0  0  0
 37 39  1  0  0  0
 37 47  1  0  0  0
 37 66  1  0  0  0
 37108  1  0  0  0
 38 43  2  0  0  0
 38 46  1  0  0  0
 38 47  1  0  0  0
 39 64  1  0  0  0
 39 67  2  0  0  0
 40 52  1  0  0  0
 40 53  2  0  0  0
 40 58  1  0  0  0
 41109  1  0  0  0
 41110  1  0  0  0
 41111  1  0  0  0
 41 48  1  0  0  0
 42 43  1  0  0  0
 42 66  1  0  0  0
 42112  1  0  0  0
 42113  1  0  0  0
 43 44  1  0  0  0
 44114  1  0  0  0
 45 46  2  0  0  0
 45115  1  0  0  0
 46116  1  0  0  0
 47117  1  0  0  0
 47118  1  0  0  0
 48 56  1  0  0  0
 48 65  1  0  0  0
 48119  1  0  0  0
 49 50  1  0  0  0
 49 53  1  0  0  0
 49 64  1  0  0  0
 49120  1  0  0  0
 50 51  1  0  0  0
 50121  1  0  0  0
 50122  1  0  0  0
 51 52  1  0  0  0
 51123  1  0  0  0
 51124  1  0  0  0
 52125  1  0  0  0
 52126  1  0  0  0
 53 54  1  0  0  0
 54 55  2  0  0  0
 54127  1  0  0  0
 55 57  1  0  0  0
 55128  1  0  0  0
 56 69  2  0  0  0
 57 58  2  0  0  0
 57129  1  0  0  0
 58130  1  0  0  0
 59 60  1  0  0  0
 59 61  1  0  0  0
 59 62  1  0  0  0
 60131  1  0  0  0
 60132  1  0  0  0
 60133  1  0  0  0
 61134  1  0  0  0
 61135  1  0  0  0
 61136  1  0  0  0
 62137  1  0  0  0
 62138  1  0  0  0
 62139  1  0  0  0
 63 65  1  0  0  0
 63140  1  0  0  0
 63141  1  0  0  0
 63142  1  0  0  0
 64143  1  0  0  0
 65144  1  0  0  0
 68 83  1  0  0  0
 71 73  2  0  0  0
 71 75  1  0  0  0
 71145  1  0  0  0
 72 74  1  0  0  0
 72 76  2  0  0  0
 72146  1  0  0  0
 73 76  1  0  0  0
 73 77  1  0  0  0
 74 75  2  0  0  0
 74 78  1  0  0  0
 75 84  1  0  0  0
 76 85  1  0  0  0
 77147  1  0  0  0
 77148  1  0  0  0
 77149  1  0  0  0
 78150  1  0  0  0
 78151  1  0  0  0
 78152  1  0  0  0
 79 84  1  0  0  0
 79153  1  0  0  0
 79154  1  0  0  0
 79155  1  0  0  0
 80 85  1  0  0  0
 80156  1  0  0  0
 80157  1  0  0  0
 80158  1  0  0  0
 81 82  1  0  0  0
 81 83  1  0  0  0
 81159  1  0  0  0
 81160  1  0  0  0
 82 85  1  0  0  0
 82161  1  0  0  0
 82162  1  0  0  0
 83163  1  0  0  0
 83164  1  0  0  0
M  ISO  4   1 100  68 101  83 101  84 100
M  END
> <chiral flag>
0

> <version>
0

> <s_m_source_file>
/data/baiqing/PycharmProjects/Reinvent-master-3.2/result/LINK_invent/BTK/process_docking_weight1_custom_sum_contain_oxygen_bond_distance_aromatic_linkinvent_7_9_3/rearranged_h_0015.sdf

> <i_m_source_file_index>
49

> <r_mmod_Potential_Energy-OPLS-2005>
242.301864624023

> <r_mmod_Stretch_Energy-OPLS-2005>
93.1722793579102

> <r_mmod_Bend_Energy-OPLS-2005>
156.65559387207

> <r_mmod_Torsional_Energy-OPLS-2005>
319.176971435547

> <r_mmod_Improper_Torsional_Energy-OPLS-2005>
6.79353713989258

> <r_mmod_Van_der_Waal_Energy-OPLS-2005>
152.753555297852

> <r_mmod_Electrostatic_Energy-OPLS-2005>
-323.963500976562

> <r_mmod_Solvation_Energy-OPLS-2005>
-203.10237121582

> <b_mmod_Minimization_Converged-OPLS-2005>
0

> <r_mmod_RMS_Derivative-OPLS-2005>
2.15797519683838

$$$$
50
                    3D
 Structure written by MMmdl.
173180  0  0  1  0            999 V2000
  -28.5554  -11.8460   20.2081 C   0  0  0  0  0  0
  -29.4594  -10.9571   19.1703 C   0  0  0  0  0  0
  -28.7164  -12.0652   17.8572 C   0  0  0  0  0  0
  -27.6621  -13.3851   18.4741 C   0  0  0  0  0  0
  -27.6349  -13.9112   20.2742 C   0  0  2  0  0  0
  -28.5492  -12.7905   21.5330 C   0  0  0  0  0  0
  -25.5405  -14.5864   20.6081 C   0  0  0  0  0  0
  -24.5114  -13.8799   20.8030 C   0  0  0  0  0  0
  -24.9368  -12.6734   21.8437 C   0  0  0  0  0  0
  -24.4198  -11.1446   22.5319 C   0  0  0  0  0  0
  -25.7080   -9.8422   22.3451 C   0  0  0  0  0  0
  -25.1277   -8.3835   21.4283 C   0  0  0  0  0  0
  -23.5017   -8.1372   21.0157 C   0  0  0  0  0  0
  -22.5302   -9.2867   21.1167 C   0  0  0  0  0  0
  -22.8072  -10.5556   21.9772 C   0  0  0  0  0  0
  -22.1412   -6.1989   22.3298 C   0  0  0  0  0  0
  -21.6401   -6.6682   23.5956 C   0  0  0  0  0  0
  -21.4202   -5.8070   24.7148 C   0  0  0  0  0  0
  -21.6041   -4.4167   24.5971 C   0  0  0  0  0  0
  -21.8876   -3.9082   23.3203 C   0  0  0  0  0  0
  -22.0989   -4.7769   22.2191 C   0  0  0  0  0  0
  -23.1945  -14.5011   19.9531 C   0  0  0  0  0  0
  -22.2817   -4.2149   21.0047 F   0  0  0  0  0  0
  -21.4733   -3.5769   25.6613 F   0  0  0  0  0  0
  -29.3698  -11.4860   20.8249 N   0  0  0  0  0  0
  -26.4223  -13.7109   20.8119 N   0  0  0  0  0  0
  -26.1320  -12.7267   21.6913 N   0  0  0  0  0  0
  -21.8596  -14.2113   19.9683 N   0  0  0  0  0  0
  -25.7877  -15.8166   20.0922 N   0  0  0  0  0  0
  -29.7179  -12.9576   19.8041 O   0  0  0  0  0  0
  -22.6123   -6.9520   21.1685 O   0  0  0  0  0  0
  -23.2055  -15.5259   19.3954 O   0  0  0  0  0  0
  -24.6797  -31.8059   23.1654 C   0  0  0  0  0  0
  -25.9462  -32.4427   23.8077 C   0  0  1  0  0  0
  -26.6339  -26.4812   20.4452 C   0  0  0  0  0  0
  -25.6067  -33.8268   24.1938 N   0  0  0  0  0  0
  -23.4811  -30.4470   21.5170 C   0  0  2  0  0  0
  -24.8623  -28.8089   20.0767 C   0  0  0  0  0  0
  -22.7660  -29.4423   22.4614 C   0  0  0  0  0  0
  -18.0337  -28.1429   22.8459 C   0  0  0  0  0  0
  -24.1535  -36.7145   23.2636 C   0  0  0  0  0  0
  -26.0563  -30.4673   21.4656 C   0  0  0  0  0  0
  -26.0225  -29.0273   20.8238 C   0  0  0  0  0  0
  -26.9384  -27.8666   20.9877 C   0  0  0  0  0  0
  -25.6517  -26.5622   19.4610 C   0  0  0  0  0  0
  -24.7539  -27.6357   19.3271 C   0  0  0  0  0  0
  -23.7175  -29.8159   20.1186 C   0  0  0  0  0  0
  -25.4191  -36.2868   24.0258 C   0  0  1  0  0  0
  -20.5958  -28.3804   23.1120 C   0  0  2  0  0  0
  -20.6817  -26.9474   22.5379 C   0  0  0  0  0  0
  -19.5769  -26.6391   21.5211 C   0  0  0  0  0  0
  -18.1958  -26.7964   22.1638 C   0  0  0  0  0  0
  -19.1593  -28.8935   23.2783 C   0  0  0  0  0  0
  -18.9502  -30.1520   23.8830 C   0  0  0  0  0  0
  -17.6487  -30.6601   24.0568 C   0  0  0  0  0  0
  -25.9171  -34.9256   23.4929 C   0  0  0  0  0  0
  -16.5381  -29.9084   23.6346 C   0  0  0  0  0  0
  -16.7323  -28.6515   23.0352 C   0  0  0  0  0  0
  -26.4629  -31.6459   25.0691 C   0  0  0  0  0  0
  -25.3652  -31.3798   26.1255 C   0  0  0  0  0  0
  -27.0579  -30.2774   24.6728 C   0  0  0  0  0  0
  -27.6105  -32.4328   25.7446 C   0  0  0  0  0  0
  -27.5584  -37.1736   24.8458 C   0  0  0  0  0  0
  -21.4323  -29.3060   22.3395 N   0  0  0  0  0  0
  -26.4311  -37.3642   23.9367 N   0  0  0  0  0  0
  -24.7643  -30.9506   22.0952 N   0  0  0  0  0  0
  -23.4158  -28.7983   23.2900 O   0  0  0  0  0  0
  -27.0058  -25.0132   20.7665 O   0  0  0  0  0  0
  -26.5804  -34.8836   22.4545 O   0  0  0  0  0  0
  -23.5852  -32.1236   23.6581 O   0  0  0  0  0  0
  -26.5985  -10.9098   20.0370 C   0  0  0  0  0  0
  -24.7824  -10.5233   20.4241 C   0  0  0  0  0  0
  -23.3578  -16.9287   21.8722 C   0  0  0  0  0  0
  -23.8418   -9.0066   23.1792 C   0  0  0  0  0  0
  -22.6643  -16.5957   24.6293 C   0  0  0  0  0  0
  -20.6749  -15.5817   23.4747 C   0  0  0  0  0  0
  -22.2053  -14.2052   24.9002 C   0  0  0  0  0  0
  -22.3274  -11.5055   19.1360 C   0  0  0  0  0  0
  -25.8110  -21.5262   21.3638 C   0  0  0  0  0  0
  -24.5617  -19.9285   21.4217 C   0  0  0  0  0  0
  -22.5268  -13.0538   21.9020 C   0  0  0  0  0  0
  -25.9565  -23.5054   20.9048 C   0  0  0  0  0  0
  -23.0175  -15.0859   22.5436 C   0  0  2  0  0  0
  -22.1526  -15.3496   23.8505 C   0  0  0  0  0  0
  -24.3600  -18.1677   21.9535 N   0  0  0  0  0  0
  -23.2790  -11.9204   20.2321 N   0  3  2  0  0  0
  -22.3899  -17.3113   21.2156 O   0  0  0  0  0  0
  -30.5222  -10.8290   18.9255 H   0  0  0  0  0  0
  -29.1055   -9.9182   19.0303 H   0  0  0  0  0  0
  -28.1540  -11.4504   17.1525 H   0  0  0  0  0  0
  -29.5232  -12.5045   17.2708 H   0  0  0  0  0  0
  -26.6462  -13.1151   18.1974 H   0  0  0  0  0  0
  -27.8603  -14.2704   17.8726 H   0  0  0  0  0  0
  -28.0168  -14.9275   20.4154 H   0  0  0  0  0  0
  -28.1885  -12.5366   22.5382 H   0  0  0  0  0  0
  -29.3072  -13.4597   21.9724 H   0  0  0  0  0  0
  -26.7474  -10.0082   22.5843 H   0  0  0  0  0  0
  -25.8084   -7.5413   21.3546 H   0  0  0  0  0  0
  -21.4886   -9.0577   20.9357 H   0  0  0  0  0  0
  -21.8546  -10.9172   22.3332 H   0  0  0  0  0  0
  -21.4600   -7.7138   23.7384 H   0  0  0  0  0  0
  -21.1308   -6.2389   25.6649 H   0  0  0  0  0  0
  -21.9362   -2.8409   23.1775 H   0  0  0  0  0  0
  -21.3662  -13.5662   20.5830 H   0  0  0  0  0  0
  -21.2978  -14.8982   19.4784 H   0  0  0  0  0  0
  -25.0146  -16.3017   19.6457 H   0  0  0  0  0  0
  -26.7042  -16.1428   19.8074 H   0  0  0  0  0  0
  -26.7448  -32.4784   23.0666 H   0  0  0  0  0  0
  -25.0088  -33.9322   24.9999 H   0  0  0  0  0  0
  -22.8094  -31.2940   21.3713 H   0  0  0  0  0  0
  -23.3807  -35.9458   23.3230 H   0  0  0  0  0  0
  -24.3604  -36.8890   22.2060 H   0  0  0  0  0  0
  -23.7290  -37.6304   23.6778 H   0  0  0  0  0  0
  -26.3216  -31.1755   20.6772 H   0  0  0  0  0  0
  -26.8981  -30.4866   22.1451 H   0  0  0  0  0  0
  -27.7611  -27.9768   21.6814 H   0  0  0  0  0  0
  -25.4133  -25.6623   18.9136 H   0  0  0  0  0  0
  -23.9075  -27.5034   18.6684 H   0  0  0  0  0  0
  -23.9353  -30.6039   19.3948 H   0  0  0  0  0  0
  -22.8012  -29.3369   19.7694 H   0  0  0  0  0  0
  -25.1403  -36.1626   25.0755 H   0  0  0  0  0  0
  -21.0086  -28.3453   24.1222 H   0  0  0  0  0  0
  -20.5721  -26.2432   23.3631 H   0  0  0  0  0  0
  -21.6673  -26.7448   22.1155 H   0  0  0  0  0  0
  -19.6921  -25.6273   21.1282 H   0  0  0  0  0  0
  -19.6688  -27.3164   20.6695 H   0  0  0  0  0  0
  -17.4221  -26.6698   21.4049 H   0  0  0  0  0  0
  -18.0367  -26.0127   22.9058 H   0  0  0  0  0  0
  -19.7978  -30.7373   24.2151 H   0  0  0  0  0  0
  -17.5033  -31.6273   24.5201 H   0  0  0  0  0  0
  -15.5371  -30.2963   23.7708 H   0  0  0  0  0  0
  -15.8734  -28.0820   22.7074 H   0  0  0  0  0  0
  -24.5826  -30.7230   25.7437 H   0  0  0  0  0  0
  -24.8866  -32.3034   26.4526 H   0  0  0  0  0  0
  -25.7721  -30.8943   27.0132 H   0  0  0  0  0  0
  -26.3308  -29.6299   24.1824 H   0  0  0  0  0  0
  -27.4000  -29.7335   25.5540 H   0  0  0  0  0  0
  -27.9314  -30.3827   24.0289 H   0  0  0  0  0  0
  -27.2719  -33.3751   26.1783 H   0  0  0  0  0  0
  -28.4000  -32.6697   25.0286 H   0  0  0  0  0  0
  -28.0701  -31.8613   26.5528 H   0  0  0  0  0  0
  -28.2550  -38.0077   24.7523 H   0  0  0  0  0  0
  -28.1141  -36.2597   24.6297 H   0  0  0  0  0  0
  -27.2274  -37.1363   25.8853 H   0  0  0  0  0  0
  -20.9554  -29.8748   21.6531 H   0  0  0  0  0  0
  -26.0123  -38.2693   24.1359 H   0  0  0  0  0  0
  -26.9954   -9.9161   20.1673 H   0  0  0  0  0  0
  -22.8476   -9.0770   23.6220 H   0  0  0  0  0  0
  -24.0174   -7.9353   23.3562 H   0  0  0  0  0  0
  -24.3393   -9.3375   24.1112 H   0  0  0  0  0  0
  -22.2674  -16.6625   25.6421 H   0  0  0  0  0  0
  -22.3675  -17.5363   24.1605 H   0  0  0  0  0  0
  -23.7534  -16.5863   24.7183 H   0  0  0  0  0  0
  -20.1019  -15.9680   24.3182 H   0  0  0  0  0  0
  -20.1852  -14.6612   23.1602 H   0  0  0  0  0  0
  -20.5633  -16.2999   22.6633 H   0  0  0  0  0  0
  -21.7276  -14.5071   25.8379 H   0  0  0  0  0  0
  -23.2331  -13.9340   25.1503 H   0  0  0  0  0  0
  -21.6673  -13.3051   24.5996 H   0  0  0  0  0  0
  -22.9167  -11.1231   18.3023 H   0  0  0  0  0  0
  -21.7057  -12.2768   18.6928 H   0  0  0  0  0  0
  -21.6190  -10.7304   19.4128 H   0  0  0  0  0  0
  -26.6180  -21.1194   20.7507 H   0  0  0  0  0  0
  -26.2315  -21.5088   22.3709 H   0  0  0  0  0  0
  -24.2860  -19.8280   20.3716 H   0  0  0  0  0  0
  -23.6688  -20.3623   21.8702 H   0  0  0  0  0  0
  -21.4345  -12.9596   21.9215 H   0  0  0  0  0  0
  -22.7001  -12.6705   22.9039 H   0  0  0  0  0  0
  -25.2051  -23.9040   21.5871 H   0  0  0  0  0  0
  -25.4540  -23.5349   19.9377 H   0  0  0  0  0  0
  -23.9955  -14.9282   22.9979 H   0  0  0  0  0  0
  -25.1226  -17.9133   22.5698 H   0  0  0  0  0  0
  -23.7608  -12.6704   19.7596 H   0  0  0  0  0  0
  1 25  1  0  0  0
  1 30  2  0  0  0
  1 71  1  0  0  0
  2  3  1  0  0  0
  2 25  1  0  0  0
  2 88  1  0  0  0
  2 89  1  0  0  0
  3  4  1  0  0  0
  3 90  1  0  0  0
  3 91  1  0  0  0
  4  5  1  0  0  0
  4 92  1  0  0  0
  4 93  1  0  0  0
  5  6  1  0  0  0
  5 26  1  0  0  0
  5 94  1  0  0  0
  6 25  1  0  0  0
  6 95  1  0  0  0
  6 96  1  0  0  0
  7  8  2  0  0  0
  7 26  1  0  0  0
  7 29  1  0  0  0
  8  9  1  0  0  0
  8 22  1  0  0  0
  9 10  1  0  0  0
  9 27  2  0  0  0
 10 11  2  0  0  0
 10 15  1  0  0  0
 11 12  1  0  0  0
 11 97  1  0  0  0
 12 13  2  0  0  0
 12 98  1  0  0  0
 13 14  1  0  0  0
 13 31  1  0  0  0
 14 15  2  0  0  0
 14 99  1  0  0  0
 15100  1  0  0  0
 16 17  2  0  0  0
 16 21  1  0  0  0
 16 31  1  0  0  0
 17 18  1  0  0  0
 17101  1  0  0  0
 18 19  2  0  0  0
 18102  1  0  0  0
 19 20  1  0  0  0
 19 24  1  0  0  0
 20 21  2  0  0  0
 20103  1  0  0  0
 21 23  1  0  0  0
 22 28  1  0  0  0
 22 32  2  0  0  0
 26 27  1  0  0  0
 28104  1  0  0  0
 28105  1  0  0  0
 29106  1  0  0  0
 29107  1  0  0  0
 33 34  1  0  0  0
 33 66  1  0  0  0
 33 70  2  0  0  0
 34 36  1  0  0  0
 34 59  1  0  0  0
 34108  1  0  0  0
 35 44  2  0  0  0
 35 45  1  0  0  0
 35 68  1  0  0  0
 36 56  1  0  0  0
 36109  1  0  0  0
 37 39  1  0  0  0
 37 47  1  0  0  0
 37 66  1  0  0  0
 37110  1  0  0  0
 38 43  2  0  0  0
 38 46  1  0  0  0
 38 47  1  0  0  0
 39 64  1  0  0  0
 39 67  2  0  0  0
 40 52  1  0  0  0
 40 53  2  0  0  0
 40 58  1  0  0  0
 41111  1  0  0  0
 41112  1  0  0  0
 41113  1  0  0  0
 41 48  1  0  0  0
 42 43  1  0  0  0
 42 66  1  0  0  0
 42114  1  0  0  0
 42115  1  0  0  0
 43 44  1  0  0  0
 44116  1  0  0  0
 45 46  2  0  0  0
 45117  1  0  0  0
 46118  1  0  0  0
 47119  1  0  0  0
 47120  1  0  0  0
 48 56  1  0  0  0
 48 65  1  0  0  0
 48121  1  0  0  0
 49 50  1  0  0  0
 49 53  1  0  0  0
 49 64  1  0  0  0
 49122  1  0  0  0
 50 51  1  0  0  0
 50123  1  0  0  0
 50124  1  0  0  0
 51 52  1  0  0  0
 51125  1  0  0  0
 51126  1  0  0  0
 52127  1  0  0  0
 52128  1  0  0  0
 53 54  1  0  0  0
 54 55  2  0  0  0
 54129  1  0  0  0
 55 57  1  0  0  0
 55130  1  0  0  0
 56 69  2  0  0  0
 57 58  2  0  0  0
 57131  1  0  0  0
 58132  1  0  0  0
 59 60  1  0  0  0
 59 61  1  0  0  0
 59 62  1  0  0  0
 60133  1  0  0  0
 60134  1  0  0  0
 60135  1  0  0  0
 61136  1  0  0  0
 61137  1  0  0  0
 61138  1  0  0  0
 62139  1  0  0  0
 62140  1  0  0  0
 62141  1  0  0  0
 63 65  1  0  0  0
 63142  1  0  0  0
 63143  1  0  0  0
 63144  1  0  0  0
 64145  1  0  0  0
 65146  1  0  0  0
 68 82  1  0  0  0
 71 72  2  0  0  0
 71147  1  0  0  0
 72 74  1  0  0  0
 72 86  1  0  0  0
 73 83  1  0  0  0
 73 85  1  0  0  0
 73 87  2  0  0  0
 74148  1  0  0  0
 74149  1  0  0  0
 74150  1  0  0  0
 75151  1  0  0  0
 75152  1  0  0  0
 75153  1  0  0  0
 75 84  1  0  0  0
 76 84  1  0  0  0
 76154  1  0  0  0
 76155  1  0  0  0
 76156  1  0  0  0
 77 84  1  0  0  0
 77157  1  0  0  0
 77158  1  0  0  0
 77159  1  0  0  0
 78160  1  0  0  0
 78161  1  0  0  0
 78162  1  0  0  0
 78 86  1  0  0  0
 79 80  1  0  0  0
 79 82  1  0  0  0
 79163  1  0  0  0
 79164  1  0  0  0
 80 85  1  0  0  0
 80165  1  0  0  0
 80166  1  0  0  0
 81 86  1  0  0  0
 81167  1  0  0  0
 81168  1  0  0  0
 81 83  1  0  0  0
 82169  1  0  0  0
 82170  1  0  0  0
 83 84  1  0  0  0
 83171  1  0  0  0
 85172  1  0  0  0
 86173  1  0  0  0
M  CHG  1  86   1
M  ISO  4   1 100  68 101  71 100  82 101
M  END
> <chiral flag>
0

> <version>
0

> <s_m_source_file>
/data/baiqing/PycharmProjects/Reinvent-master-3.2/result/LINK_invent/BTK/process_docking_weight1_custom_sum_contain_oxygen_bond_distance_aromatic_linkinvent_7_9_3/rearranged_h_0015.sdf

> <i_m_source_file_index>
50

> <r_mmod_Potential_Energy-OPLS-2005>
26018.736328125

> <r_mmod_Stretch_Energy-OPLS-2005>
12059.0693359375

> <r_mmod_Bend_Energy-OPLS-2005>
2189.30859375

> <r_mmod_Torsional_Energy-OPLS-2005>
722.849670410156

> <r_mmod_Improper_Torsional_Energy-OPLS-2005>
114.226142883301

> <r_mmod_Van_der_Waal_Energy-OPLS-2005>
4545.27294921875

> <r_mmod_Electrostatic_Energy-OPLS-2005>
-228.924209594727

> <r_mmod_Solvation_Energy-OPLS-2005>
-442.353515625

> <b_mmod_Minimization_Converged-OPLS-2005>
0

> <r_mmod_RMS_Derivative-OPLS-2005>
12.1918182373047

$$$$
51
                    3D
 Structure written by MMmdl.
159167  0  0  1  0            999 V2000
  -30.6770  -14.6250   20.5881 C   0  0  0  0  0  0
  -30.4340  -12.4101   19.4552 C   0  0  0  0  0  0
  -29.5068  -12.5276   18.2249 C   0  0  0  0  0  0
  -28.0300  -12.3580   18.6291 C   0  0  0  0  0  0
  -27.6522  -13.2200   19.8596 C   0  0  2  0  0  0
  -28.6893  -13.0576   20.9873 C   0  0  0  0  0  0
  -25.2559  -13.8175   20.5674 C   0  0  0  0  0  0
  -24.1824  -13.0441   20.9172 C   0  0  0  0  0  0
  -24.6392  -11.6911   20.8713 C   0  0  0  0  0  0
  -23.9059  -10.4297   21.0391 C   0  0  0  0  0  0
  -24.3610   -9.4216   21.9171 C   0  0  0  0  0  0
  -23.6284   -8.2251   22.0751 C   0  0  0  0  0  0
  -22.4265   -8.0284   21.3545 C   0  0  0  0  0  0
  -21.9894   -9.0255   20.4648 C   0  0  0  0  0  0
  -22.7225  -10.2134   20.3049 C   0  0  0  0  0  0
  -21.6855   -6.0728   22.5276 C   0  0  0  0  0  0
  -21.4016   -6.5634   23.8209 C   0  0  0  0  0  0
  -21.3662   -5.6790   24.9174 C   0  0  0  0  0  0
  -21.6046   -4.3052   24.7226 C   0  0  0  0  0  0
  -21.8819   -3.8139   23.4348 C   0  0  0  0  0  0
  -21.9194   -4.6954   22.3403 C   0  0  0  0  0  0
  -22.7852  -13.5243   21.1842 C   0  0  0  0  0  0
  -22.1667   -4.2141   21.0980 F   0  0  0  0  0  0
  -21.5620   -3.4536   25.7738 F   0  0  0  0  0  0
  -30.0126  -13.4248   20.4491 N   0  0  0  0  0  0
  -26.2977  -12.9362   20.3269 N   0  0  0  0  0  0
  -25.9317  -11.6511   20.5700 N   0  0  0  0  0  0
  -22.0502  -12.8249   22.0411 N   0  0  0  0  0  0
  -25.4289  -15.1895   20.4137 N   0  0  0  0  0  0
  -31.7851  -14.7812   20.0649 O   0  0  0  0  0  0
  -21.6637   -6.8873   21.4241 O   0  0  0  0  0  0
  -22.3543  -14.5555   20.6700 O   0  0  0  0  0  0
  -24.6255  -31.8611   23.2027 C   0  0  0  0  0  0
  -25.9109  -32.4786   23.8351 C   0  0  1  0  0  0
  -27.2239  -27.3262   20.1271 C   0  0  0  0  0  0
  -25.5926  -33.8583   24.2282 N   0  0  0  0  0  0
  -23.4184  -30.4844   21.5455 C   0  0  2  0  0  0
  -24.8653  -28.9370   20.1146 C   0  0  0  0  0  0
  -22.7470  -29.4638   22.4945 C   0  0  0  0  0  0
  -18.0288  -28.1395   22.8495 C   0  0  0  0  0  0
  -24.1489  -36.7293   23.2638 C   0  0  0  0  0  0
  -25.9582  -30.7952   21.3716 C   0  0  0  0  0  0
  -26.0332  -29.4215   20.7170 C   0  0  0  0  0  0
  -27.2179  -28.6288   20.7102 C   0  0  0  0  0  0
  -26.0381  -26.8921   19.4955 C   0  0  0  0  0  0
  -24.8688  -27.6768   19.4949 C   0  0  0  0  0  0
  -23.6330  -29.8174   20.1612 C   0  0  0  0  0  0
  -25.4114  -36.3088   24.0331 C   0  0  1  0  0  0
  -20.5887  -28.3697   23.1291 C   0  0  2  0  0  0
  -20.6778  -26.9422   22.5415 C   0  0  0  0  0  0
  -19.5747  -26.6395   21.5223 C   0  0  0  0  0  0
  -18.1929  -26.7940   22.1637 C   0  0  0  0  0  0
  -19.1540  -28.8864   23.2887 C   0  0  0  0  0  0
  -18.9465  -30.1465   23.8901 C   0  0  0  0  0  0
  -17.6464  -30.6596   24.0569 C   0  0  0  0  0  0
  -25.9048  -34.9457   23.5109 C   0  0  0  0  0  0
  -16.5356  -29.9094   23.6332 C   0  0  0  0  0  0
  -16.7275  -28.6514   23.0353 C   0  0  0  0  0  0
  -26.4493  -31.6594   25.0720 C   0  0  0  0  0  0
  -25.3732  -31.3744   26.1456 C   0  0  0  0  0  0
  -27.0319  -30.3015   24.6166 C   0  0  0  0  0  0
  -27.6056  -32.4324   25.7482 C   0  0  0  0  0  0
  -27.5579  -37.1800   24.8467 C   0  0  0  0  0  0
  -21.4188  -29.3046   22.3685 N   0  0  0  0  0  0
  -26.4294  -37.3783   23.9410 N   0  0  0  0  0  0
  -24.6863  -31.0630   22.0976 N   0  0  0  0  0  0
  -23.4200  -28.8178   23.3023 O   0  0  0  0  0  0
  -28.3493  -26.4925   20.1386 O   0  0  0  0  0  0
  -26.5615  -34.8923   22.4673 O   0  0  0  0  0  0
  -23.5420  -32.1403   23.7362 O   0  0  0  0  0  0
  -30.9815  -17.8069   20.1857 C   0  0  0  0  0  0
  -28.7648  -17.8336   21.1030 C   0  0  0  0  0  0
  -29.6866  -19.9489   20.1737 C   0  0  0  0  0  0
  -29.9342  -17.0729   20.8049 C   0  0  0  0  0  0
  -30.8642  -19.1984   19.8879 C   0  0  0  0  0  0
  -28.6358  -19.2213   20.7875 C   0  0  0  0  0  0
  -30.6327  -24.4948   20.1489 C   0  0  0  0  0  0
  -29.8455  -15.5021   22.6970 C   0  0  0  0  0  0
  -29.5311  -21.4338   19.6593 C   0  0  0  0  0  0
  -28.1824  -25.0884   20.5899 C   0  0  0  0  0  0
  -29.1816  -23.9928   19.9975 C   0  0  2  0  0  0
  -30.0547  -15.6705   21.2521 N   0  0  0  0  0  0
  -29.0506  -22.5667   20.5517 N   0  3  0  0  0  0
  -31.9132  -19.8144   19.2919 F   0  0  0  0  0  0
  -27.4752  -19.8608   21.0708 F   0  0  0  0  0  0
  -31.4761  -12.5267   19.1516 H   0  0  0  0  0  0
  -30.3692  -11.4118   19.8900 H   0  0  0  0  0  0
  -29.7759  -11.7839   17.4739 H   0  0  0  0  0  0
  -29.6472  -13.5022   17.7553 H   0  0  0  0  0  0
  -27.8671  -11.3033   18.8539 H   0  0  0  0  0  0
  -27.3769  -12.5956   17.7881 H   0  0  0  0  0  0
  -27.6778  -14.2605   19.5345 H   0  0  0  0  0  0
  -28.7056  -12.0279   21.3467 H   0  0  0  0  0  0
  -28.3831  -13.6515   21.8432 H   0  0  0  0  0  0
  -25.2759   -9.5690   22.4736 H   0  0  0  0  0  0
  -23.9995   -7.4646   22.7471 H   0  0  0  0  0  0
  -21.0813   -8.8777   19.8964 H   0  0  0  0  0  0
  -22.3679  -10.9668   19.6154 H   0  0  0  0  0  0
  -21.2018   -7.6142   23.9712 H   0  0  0  0  0  0
  -21.1480   -6.0517   25.9076 H   0  0  0  0  0  0
  -22.0593   -2.7597   23.2849 H   0  0  0  0  0  0
  -22.4126  -11.9926   22.4818 H   0  0  0  0  0  0
  -21.1128  -13.1287   22.2628 H   0  0  0  0  0  0
  -24.6623  -15.8443   20.5234 H   0  0  0  0  0  0
  -26.2826  -15.6274   20.0935 H   0  0  0  0  0  0
  -26.7180  -32.5460   23.1100 H   0  0  0  0  0  0
  -25.0072  -33.9726   25.0426 H   0  0  0  0  0  0
  -22.7118  -31.3049   21.4023 H   0  0  0  0  0  0
  -23.3755  -35.9622   23.3307 H   0  0  0  0  0  0
  -24.3579  -36.8905   22.2050 H   0  0  0  0  0  0
  -23.7241  -37.6498   23.6652 H   0  0  0  0  0  0
  -26.0868  -31.5581   20.6021 H   0  0  0  0  0  0
  -26.8401  -30.8458   21.9985 H   0  0  0  0  0  0
  -28.1173  -29.0010   21.1806 H   0  0  0  0  0  0
  -26.0026  -25.9359   18.9936 H   0  0  0  0  0  0
  -23.9747  -27.3030   19.0156 H   0  0  0  0  0  0
  -23.7529  -30.5935   19.4042 H   0  0  0  0  0  0
  -22.7526  -29.2474   19.8588 H   0  0  0  0  0  0
  -25.1293  -36.1941   25.0823 H   0  0  0  0  0  0
  -20.9979  -28.3278   24.1412 H   0  0  0  0  0  0
  -20.5700  -26.2305   23.3614 H   0  0  0  0  0  0
  -21.6644  -26.7463   22.1194 H   0  0  0  0  0  0
  -19.6901  -25.6308   21.1246 H   0  0  0  0  0  0
  -19.6676  -27.3213   20.6757 H   0  0  0  0  0  0
  -17.4195  -26.6694   21.4041 H   0  0  0  0  0  0
  -18.0322  -26.0087   22.9037 H   0  0  0  0  0  0
  -19.7939  -30.7286   24.2270 H   0  0  0  0  0  0
  -17.5017  -31.6276   24.5173 H   0  0  0  0  0  0
  -15.5355  -30.2994   23.7658 H   0  0  0  0  0  0
  -15.8678  -28.0832   22.7060 H   0  0  0  0  0  0
  -24.5896  -30.7100   25.7802 H   0  0  0  0  0  0
  -24.8935  -32.2914   26.4884 H   0  0  0  0  0  0
  -25.8063  -30.8925   27.0230 H   0  0  0  0  0  0
  -26.2879  -29.6776   24.1201 H   0  0  0  0  0  0
  -27.4029  -29.7267   25.4661 H   0  0  0  0  0  0
  -27.8747  -30.4300   23.9370 H   0  0  0  0  0  0
  -27.2679  -33.3638   26.2039 H   0  0  0  0  0  0
  -28.3873  -32.6866   25.0310 H   0  0  0  0  0  0
  -28.0714  -31.8462   26.5413 H   0  0  0  0  0  0
  -28.2609  -38.0088   24.7514 H   0  0  0  0  0  0
  -28.1066  -36.2620   24.6298 H   0  0  0  0  0  0
  -27.2295  -37.1457   25.8871 H   0  0  0  0  0  0
  -20.9369  -29.8756   21.6881 H   0  0  0  0  0  0
  -26.0178  -38.2859   24.1415 H   0  0  0  0  0  0
  -31.9174  -17.3202   19.9534 H   0  0  0  0  0  0
  -27.9283  -17.3472   21.5829 H   0  0  0  0  0  0
  -30.7533  -25.4763   19.6880 H   0  0  0  0  0  0
  -31.3546  -23.8332   19.6705 H   0  0  0  0  0  0
  -30.9146  -24.5941   21.1981 H   0  0  0  0  0  0
  -28.7933  -15.6173   22.9549 H   0  0  0  0  0  0
  -30.4065  -16.2568   23.2503 H   0  0  0  0  0  0
  -30.1771  -14.5309   23.0717 H   0  0  0  0  0  0
  -28.8656  -21.3967   18.7963 H   0  0  0  0  0  0
  -30.4959  -21.7371   19.2547 H   0  0  0  0  0  0
  -28.2915  -25.1048   21.6752 H   0  0  0  0  0  0
  -27.1661  -24.7359   20.4183 H   0  0  0  0  0  0
  -28.9590  -23.9360   18.9309 H   0  0  0  0  0  0
  -29.5397  -22.5122   21.4315 H   0  0  0  0  0  0
  -28.0794  -22.3746   20.7472 H   0  0  0  0  0  0
  1 25  1  0  0  0
  1 30  2  0  0  0
  1 82  1  0  0  0
  2  3  1  0  0  0
  2 25  1  0  0  0
  2 86  1  0  0  0
  2 87  1  0  0  0
  3  4  1  0  0  0
  3 88  1  0  0  0
  3 89  1  0  0  0
  4  5  1  0  0  0
  4 90  1  0  0  0
  4 91  1  0  0  0
  5  6  1  0  0  0
  5 26  1  0  0  0
  5 92  1  0  0  0
  6 25  1  0  0  0
  6 93  1  0  0  0
  6 94  1  0  0  0
  7  8  2  0  0  0
  7 26  1  0  0  0
  7 29  1  0  0  0
  8  9  1  0  0  0
  8 22  1  0  0  0
  9 10  1  0  0  0
  9 27  2  0  0  0
 10 11  2  0  0  0
 10 15  1  0  0  0
 11 12  1  0  0  0
 11 95  1  0  0  0
 12 13  2  0  0  0
 12 96  1  0  0  0
 13 14  1  0  0  0
 13 31  1  0  0  0
 14 15  2  0  0  0
 14 97  1  0  0  0
 15 98  1  0  0  0
 16 17  2  0  0  0
 16 21  1  0  0  0
 16 31  1  0  0  0
 17 18  1  0  0  0
 17 99  1  0  0  0
 18 19  2  0  0  0
 18100  1  0  0  0
 19 20  1  0  0  0
 19 24  1  0  0  0
 20 21  2  0  0  0
 20101  1  0  0  0
 21 23  1  0  0  0
 22 28  1  0  0  0
 22 32  2  0  0  0
 26 27  1  0  0  0
 28102  1  0  0  0
 28103  1  0  0  0
 29104  1  0  0  0
 29105  1  0  0  0
 33 34  1  0  0  0
 33 66  1  0  0  0
 33 70  2  0  0  0
 34 36  1  0  0  0
 34 59  1  0  0  0
 34106  1  0  0  0
 35 44  2  0  0  0
 35 45  1  0  0  0
 35 68  1  0  0  0
 36 56  1  0  0  0
 36107  1  0  0  0
 37 39  1  0  0  0
 37 47  1  0  0  0
 37 66  1  0  0  0
 37108  1  0  0  0
 38 43  2  0  0  0
 38 46  1  0  0  0
 38 47  1  0  0  0
 39 64  1  0  0  0
 39 67  2  0  0  0
 40 52  1  0  0  0
 40 53  2  0  0  0
 40 58  1  0  0  0
 41109  1  0  0  0
 41110  1  0  0  0
 41111  1  0  0  0
 41 48  1  0  0  0
 42 43  1  0  0  0
 42 66  1  0  0  0
 42112  1  0  0  0
 42113  1  0  0  0
 43 44  1  0  0  0
 44114  1  0  0  0
 45 46  2  0  0  0
 45115  1  0  0  0
 46116  1  0  0  0
 47117  1  0  0  0
 47118  1  0  0  0
 48 56  1  0  0  0
 48 65  1  0  0  0
 48119  1  0  0  0
 49 50  1  0  0  0
 49 53  1  0  0  0
 49 64  1  0  0  0
 49120  1  0  0  0
 50 51  1  0  0  0
 50121  1  0  0  0
 50122  1  0  0  0
 51 52  1  0  0  0
 51123  1  0  0  0
 51124  1  0  0  0
 52125  1  0  0  0
 52126  1  0  0  0
 53 54  1  0  0  0
 54 55  2  0  0  0
 54127  1  0  0  0
 55 57  1  0  0  0
 55128  1  0  0  0
 56 69  2  0  0  0
 57 58  2  0  0  0
 57129  1  0  0  0
 58130  1  0  0  0
 59 60  1  0  0  0
 59 61  1  0  0  0
 59 62  1  0  0  0
 60131  1  0  0  0
 60132  1  0  0  0
 60133  1  0  0  0
 61134  1  0  0  0
 61135  1  0  0  0
 61136  1  0  0  0
 62137  1  0  0  0
 62138  1  0  0  0
 62139  1  0  0  0
 63 65  1  0  0  0
 63140  1  0  0  0
 63141  1  0  0  0
 63142  1  0  0  0
 64143  1  0  0  0
 65144  1  0  0  0
 68 80  1  0  0  0
 71 74  2  0  0  0
 71 75  1  0  0  0
 71145  1  0  0  0
 72 74  1  0  0  0
 72 76  2  0  0  0
 72146  1  0  0  0
 73 75  2  0  0  0
 73 76  1  0  0  0
 73 79  1  0  0  0
 74 82  1  0  0  0
 75 84  1  0  0  0
 76 85  1  0  0  0
 77147  1  0  0  0
 77148  1  0  0  0
 77149  1  0  0  0
 77 81  1  0  0  0
 78 82  1  0  0  0
 78150  1  0  0  0
 78151  1  0  0  0
 78152  1  0  0  0
 79 83  1  0  0  0
 79153  1  0  0  0
 79154  1  0  0  0
 80 81  1  0  0  0
 80155  1  0  0  0
 80156  1  0  0  0
 81 83  1  0  0  0
 81157  1  0  0  0
 83158  1  0  0  0
 83159  1  0  0  0
M  CHG  1  83   1
M  ISO  4   1 100  68 101  80 101  82 100
M  END
> <chiral flag>
0

> <version>
0

> <s_m_source_file>
/data/baiqing/PycharmProjects/Reinvent-master-3.2/result/LINK_invent/BTK/process_docking_weight1_custom_sum_contain_oxygen_bond_distance_aromatic_linkinvent_7_9_3/rearranged_h_0015.sdf

> <i_m_source_file_index>
51

> <r_mmod_Potential_Energy-OPLS-2005>
85.3756408691406

> <r_mmod_Stretch_Energy-OPLS-2005>
88.5154266357422

> <r_mmod_Bend_Energy-OPLS-2005>
142.985717773438

> <r_mmod_Torsional_Energy-OPLS-2005>
308.963256835938

> <r_mmod_Improper_Torsional_Energy-OPLS-2005>
4.18342542648315

> <r_mmod_Van_der_Waal_Energy-OPLS-2005>
146.291366577148

> <r_mmod_Electrostatic_Energy-OPLS-2005>
-222.604675292969

> <r_mmod_Solvation_Energy-OPLS-2005>
-424.262268066406

> <b_mmod_Minimization_Converged-OPLS-2005>
0

> <r_mmod_RMS_Derivative-OPLS-2005>
1.34512627124786

$$$$
52
                    3D
 Structure written by MMmdl.
168176  0  0  1  0            999 V2000
  -30.6289  -14.4779   20.4451 C   0  0  0  0  0  0
  -30.4414  -12.2655   19.4115 C   0  0  0  0  0  0
  -29.4972  -12.4532   18.2009 C   0  0  0  0  0  0
  -28.0181  -12.3039   18.6182 C   0  0  0  0  0  0
  -27.6525  -13.1623   19.8561 C   0  0  2  0  0  0
  -28.7089  -12.9762   20.9808 C   0  0  0  0  0  0
  -25.2619  -13.8041   20.5648 C   0  0  0  0  0  0
  -24.1833  -13.0392   20.9171 C   0  0  0  0  0  0
  -24.6336  -11.6835   20.8759 C   0  0  0  0  0  0
  -23.9000  -10.4269   21.0445 C   0  0  0  0  0  0
  -24.3567   -9.4198   21.9220 C   0  0  0  0  0  0
  -23.6251   -8.2240   22.0763 C   0  0  0  0  0  0
  -22.4244   -8.0274   21.3542 C   0  0  0  0  0  0
  -21.9865   -9.0253   20.4657 C   0  0  0  0  0  0
  -22.7189  -10.2134   20.3080 C   0  0  0  0  0  0
  -21.6841   -6.0726   22.5288 C   0  0  0  0  0  0
  -21.3999   -6.5626   23.8222 C   0  0  0  0  0  0
  -21.3646   -5.6771   24.9176 C   0  0  0  0  0  0
  -21.6045   -4.3033   24.7222 C   0  0  0  0  0  0
  -21.8812   -3.8127   23.4352 C   0  0  0  0  0  0
  -21.9179   -4.6951   22.3407 C   0  0  0  0  0  0
  -22.7879  -13.5262   21.1825 C   0  0  0  0  0  0
  -22.1657   -4.2146   21.0982 F   0  0  0  0  0  0
  -21.5652   -3.4510   25.7736 F   0  0  0  0  0  0
  -30.0489  -13.2536   20.4196 N   0  0  0  0  0  0
  -26.2982  -12.9094   20.3309 N   0  0  0  0  0  0
  -25.9249  -11.6317   20.5796 N   0  0  0  0  0  0
  -22.0486  -12.8271   22.0373 N   0  0  0  0  0  0
  -25.4385  -15.1754   20.4035 N   0  0  0  0  0  0
  -31.8253  -14.7076   20.2461 O   0  0  0  0  0  0
  -21.6612   -6.8866   21.4252 O   0  0  0  0  0  0
  -22.3623  -14.5624   20.6745 O   0  0  0  0  0  0
  -24.6141  -31.8689   23.2087 C   0  0  0  0  0  0
  -25.9026  -32.4851   23.8394 C   0  0  1  0  0  0
  -27.2543  -27.4752   20.0867 C   0  0  0  0  0  0
  -25.5890  -33.8632   24.2362 N   0  0  0  0  0  0
  -23.4010  -30.4911   21.5503 C   0  0  2  0  0  0
  -24.8500  -28.9580   20.1215 C   0  0  0  0  0  0
  -22.7416  -29.4662   22.5010 C   0  0  0  0  0  0
  -18.0309  -28.1346   22.8497 C   0  0  0  0  0  0
  -24.1483  -36.7321   23.2638 C   0  0  0  0  0  0
  -25.9237  -30.8540   21.3460 C   0  0  0  0  0  0
  -26.0074  -29.4851   20.7045 C   0  0  0  0  0  0
  -27.2142  -28.7521   20.6817 C   0  0  0  0  0  0
  -26.0776  -26.9508   19.5054 C   0  0  0  0  0  0
  -24.8772  -27.6877   19.5190 C   0  0  0  0  0  0
  -23.6058  -29.8173   20.1672 C   0  0  0  0  0  0
  -25.4083  -36.3105   24.0359 C   0  0  1  0  0  0
  -20.5904  -28.3658   23.1359 C   0  0  2  0  0  0
  -20.6791  -26.9421   22.5421 C   0  0  0  0  0  0
  -19.5801  -26.6469   21.5163 C   0  0  0  0  0  0
  -18.1977  -26.7935   22.1538 C   0  0  0  0  0  0
  -19.1543  -28.8804   23.2947 C   0  0  0  0  0  0
  -18.9429  -30.1410   23.8970 C   0  0  0  0  0  0
  -17.6411  -30.6530   24.0568 C   0  0  0  0  0  0
  -25.9019  -34.9491   23.5145 C   0  0  0  0  0  0
  -16.5331  -29.8999   23.6299 C   0  0  0  0  0  0
  -16.7292  -28.6424   23.0326 C   0  0  0  0  0  0
  -26.4444  -31.6599   25.0707 C   0  0  0  0  0  0
  -25.3742  -31.3699   26.1497 C   0  0  0  0  0  0
  -27.0249  -30.3052   24.6021 C   0  0  0  0  0  0
  -27.6048  -32.4286   25.7469 C   0  0  0  0  0  0
  -27.5568  -37.1809   24.8474 C   0  0  0  0  0  0
  -21.4149  -29.3041   22.3761 N   0  0  0  0  0  0
  -26.4267  -37.3780   23.9429 N   0  0  0  0  0  0
  -24.6651  -31.0845   22.0952 N   0  0  0  0  0  0
  -23.4206  -28.8207   23.3042 O   0  0  0  0  0  0
  -28.4413  -26.7756   20.0615 O   0  0  0  0  0  0
  -26.5582  -34.8927   22.4718 O   0  0  0  0  0  0
  -23.5347  -32.1404   23.7540 O   0  0  0  0  0  0
  -30.0094  -17.5053   21.4044 C   0  0  0  0  0  0
  -28.2296  -18.7278   19.5591 C   0  0  0  0  0  0
  -28.7414  -17.4275   19.3080 C   0  0  0  0  0  0
  -28.6065  -19.4124   20.7509 C   0  0  0  0  0  0
  -29.5733  -16.7960   20.2708 C   0  0  0  0  0  0
  -29.5373  -18.8127   21.6336 C   0  0  0  0  0  0
  -27.2272  -19.3429   18.5784 C   0  0  0  0  0  0
  -28.3456  -16.6830   18.0276 C   0  0  0  0  0  0
  -26.4286  -22.7185   19.1838 C   0  0  0  0  0  0
  -26.6440  -23.3287   21.5851 C   0  0  0  0  0  0
  -27.9340  -20.7222   21.1750 C   0  0  0  0  0  0
  -28.2469  -24.3343   19.7940 C   0  0  0  0  0  0
  -28.4306  -25.5328   20.7644 C   0  0  0  0  0  0
  -27.4585  -23.0663   20.2862 C   0  0  0  0  0  0
  -29.6845  -15.3895   20.1934 N   0  0  0  0  0  0
  -28.4180  -21.9211   20.4464 N   0  3  0  0  0  0
  -29.9167  -19.4595   22.7614 F   0  0  0  0  0  0
  -31.4842  -12.3902   19.1125 H   0  0  0  0  0  0
  -30.3500  -11.2558   19.8194 H   0  0  0  0  0  0
  -29.7398  -11.7233   17.4254 H   0  0  0  0  0  0
  -29.6523  -13.4338   17.7498 H   0  0  0  0  0  0
  -27.8408  -11.2497   18.8348 H   0  0  0  0  0  0
  -27.3665  -12.5557   17.7804 H   0  0  0  0  0  0
  -27.6485  -14.1880   19.5032 H   0  0  0  0  0  0
  -28.6773  -11.9573   21.3674 H   0  0  0  0  0  0
  -28.4936  -13.6312   21.8298 H   0  0  0  0  0  0
  -25.2734   -9.5664   22.4758 H   0  0  0  0  0  0
  -23.9960   -7.4625   22.7452 H   0  0  0  0  0  0
  -21.0804   -8.8776   19.8944 H   0  0  0  0  0  0
  -22.3676  -10.9676   19.6168 H   0  0  0  0  0  0
  -21.1994   -7.6121   23.9712 H   0  0  0  0  0  0
  -21.1476   -6.0514   25.9081 H   0  0  0  0  0  0
  -22.0596   -2.7596   23.2857 H   0  0  0  0  0  0
  -22.4046  -11.9933   22.4806 H   0  0  0  0  0  0
  -21.1120  -13.1364   22.2601 H   0  0  0  0  0  0
  -24.6704  -15.8245   20.5274 H   0  0  0  0  0  0
  -26.3004  -15.6328   20.1324 H   0  0  0  0  0  0
  -26.7140  -32.5583   23.1207 H   0  0  0  0  0  0
  -25.0062  -33.9794   25.0522 H   0  0  0  0  0  0
  -22.6868  -31.3048   21.4132 H   0  0  0  0  0  0
  -23.3722  -35.9674   23.3313 H   0  0  0  0  0  0
  -24.3588  -36.8915   22.2051 H   0  0  0  0  0  0
  -23.7266  -37.6554   23.6617 H   0  0  0  0  0  0
  -26.0177  -31.6121   20.5666 H   0  0  0  0  0  0
  -26.8188  -30.9243   21.9513 H   0  0  0  0  0  0
  -28.1111  -29.1633   21.1267 H   0  0  0  0  0  0
  -26.0769  -25.9849   19.0263 H   0  0  0  0  0  0
  -23.9891  -27.2780   19.0565 H   0  0  0  0  0  0
  -23.7030  -30.5892   19.4038 H   0  0  0  0  0  0
  -22.7324  -29.2273   19.8817 H   0  0  0  0  0  0
  -25.1244  -36.1965   25.0844 H   0  0  0  0  0  0
  -21.0026  -28.3175   24.1466 H   0  0  0  0  0  0
  -20.5666  -26.2274   23.3605 H   0  0  0  0  0  0
  -21.6645  -26.7458   22.1215 H   0  0  0  0  0  0
  -19.7030  -25.6433   21.1080 H   0  0  0  0  0  0
  -19.6757  -27.3412   20.6800 H   0  0  0  0  0  0
  -17.4271  -26.6763   21.3907 H   0  0  0  0  0  0
  -18.0350  -26.0005   22.8852 H   0  0  0  0  0  0
  -19.7894  -30.7223   24.2354 H   0  0  0  0  0  0
  -17.4932  -31.6228   24.5126 H   0  0  0  0  0  0
  -15.5309  -30.2878   23.7553 H   0  0  0  0  0  0
  -15.8718  -28.0737   22.6979 H   0  0  0  0  0  0
  -24.5918  -30.7019   25.7872 H   0  0  0  0  0  0
  -24.8921  -32.2852   26.4934 H   0  0  0  0  0  0
  -25.8135  -30.8902   27.0259 H   0  0  0  0  0  0
  -26.2767  -29.6881   24.1033 H   0  0  0  0  0  0
  -27.4021  -29.7210   25.4430 H   0  0  0  0  0  0
  -27.8595  -30.4424   23.9145 H   0  0  0  0  0  0
  -27.2683  -33.3575   26.2086 H   0  0  0  0  0  0
  -28.3822  -32.6871   25.0264 H   0  0  0  0  0  0
  -28.0746  -31.8379   26.5351 H   0  0  0  0  0  0
  -28.2590  -38.0097   24.7468 H   0  0  0  0  0  0
  -28.1047  -36.2628   24.6307 H   0  0  0  0  0  0
  -27.2315  -37.1495   25.8888 H   0  0  0  0  0  0
  -20.9291  -29.8801   21.7041 H   0  0  0  0  0  0
  -26.0174  -38.2873   24.1358 H   0  0  0  0  0  0
  -30.6259  -17.0266   22.1513 H   0  0  0  0  0  0
  -26.6923  -18.5960   17.9944 H   0  0  0  0  0  0
  -27.7263  -20.0124   17.8779 H   0  0  0  0  0  0
  -26.4354  -19.8836   19.0842 H   0  0  0  0  0  0
  -27.3401  -16.2696   18.1163 H   0  0  0  0  0  0
  -29.0199  -15.8641   17.7820 H   0  0  0  0  0  0
  -28.3706  -17.3490   17.1633 H   0  0  0  0  0  0
  -25.8212  -23.5862   18.9227 H   0  0  0  0  0  0
  -25.7195  -21.9571   19.5004 H   0  0  0  0  0  0
  -26.9061  -22.3752   18.2648 H   0  0  0  0  0  0
  -26.0049  -24.2083   21.4798 H   0  0  0  0  0  0
  -27.2838  -23.4811   22.4543 H   0  0  0  0  0  0
  -25.9642  -22.5133   21.8241 H   0  0  0  0  0  0
  -28.0735  -20.8924   22.2430 H   0  0  0  0  0  0
  -26.8589  -20.5948   21.0618 H   0  0  0  0  0  0
  -29.2338  -24.0473   19.4304 H   0  0  0  0  0  0
  -27.7793  -24.7163   18.8895 H   0  0  0  0  0  0
  -29.3889  -25.4243   21.2733 H   0  0  0  0  0  0
  -27.6919  -25.5971   21.5626 H   0  0  0  0  0  0
  -28.8200  -14.9314   19.9607 H   0  0  0  0  0  0
  -28.7329  -21.6252   19.5362 H   0  0  0  0  0  0
  -29.2404  -22.2378   20.9347 H   0  0  0  0  0  0
  1 25  1  0  0  0
  1 30  2  0  0  0
  1 85  1  0  0  0
  2  3  1  0  0  0
  2 25  1  0  0  0
  2 88  1  0  0  0
  2 89  1  0  0  0
  3  4  1  0  0  0
  3 90  1  0  0  0
  3 91  1  0  0  0
  4  5  1  0  0  0
  4 92  1  0  0  0
  4 93  1  0  0  0
  5  6  1  0  0  0
  5 26  1  0  0  0
  5 94  1  0  0  0
  6 25  1  0  0  0
  6 95  1  0  0  0
  6 96  1  0  0  0
  7  8  2  0  0  0
  7 26  1  0  0  0
  7 29  1  0  0  0
  8  9  1  0  0  0
  8 22  1  0  0  0
  9 10  1  0  0  0
  9 27  2  0  0  0
 10 11  2  0  0  0
 10 15  1  0  0  0
 11 12  1  0  0  0
 11 97  1  0  0  0
 12 13  2  0  0  0
 12 98  1  0  0  0
 13 14  1  0  0  0
 13 31  1  0  0  0
 14 15  2  0  0  0
 14 99  1  0  0  0
 15100  1  0  0  0
 16 17  2  0  0  0
 16 21  1  0  0  0
 16 31  1  0  0  0
 17 18  1  0  0  0
 17101  1  0  0  0
 18 19  2  0  0  0
 18102  1  0  0  0
 19 20  1  0  0  0
 19 24  1  0  0  0
 20 21  2  0  0  0
 20103  1  0  0  0
 21 23  1  0  0  0
 22 28  1  0  0  0
 22 32  2  0  0  0
 26 27  1  0  0  0
 28104  1  0  0  0
 28105  1  0  0  0
 29106  1  0  0  0
 29107  1  0  0  0
 33 34  1  0  0  0
 33 66  1  0  0  0
 33 70  2  0  0  0
 34 36  1  0  0  0
 34 59  1  0  0  0
 34108  1  0  0  0
 35 44  2  0  0  0
 35 45  1  0  0  0
 35 68  1  0  0  0
 36 56  1  0  0  0
 36109  1  0  0  0
 37 39  1  0  0  0
 37 47  1  0  0  0
 37 66  1  0  0  0
 37110  1  0  0  0
 38 43  2  0  0  0
 38 46  1  0  0  0
 38 47  1  0  0  0
 39 64  1  0  0  0
 39 67  2  0  0  0
 40 52  1  0  0  0
 40 53  2  0  0  0
 40 58  1  0  0  0
 41111  1  0  0  0
 41112  1  0  0  0
 41113  1  0  0  0
 41 48  1  0  0  0
 42 43  1  0  0  0
 42 66  1  0  0  0
 42114  1  0  0  0
 42115  1  0  0  0
 43 44  1  0  0  0
 44116  1  0  0  0
 45 46  2  0  0  0
 45117  1  0  0  0
 46118  1  0  0  0
 47119  1  0  0  0
 47120  1  0  0  0
 48 56  1  0  0  0
 48 65  1  0  0  0
 48121  1  0  0  0
 49 50  1  0  0  0
 49 53  1  0  0  0
 49 64  1  0  0  0
 49122  1  0  0  0
 50 51  1  0  0  0
 50123  1  0  0  0
 50124  1  0  0  0
 51 52  1  0  0  0
 51125  1  0  0  0
 51126  1  0  0  0
 52127  1  0  0  0
 52128  1  0  0  0
 53 54  1  0  0  0
 54 55  2  0  0  0
 54129  1  0  0  0
 55 57  1  0  0  0
 55130  1  0  0  0
 56 69  2  0  0  0
 57 58  2  0  0  0
 57131  1  0  0  0
 58132  1  0  0  0
 59 60  1  0  0  0
 59 61  1  0  0  0
 59 62  1  0  0  0
 60133  1  0  0  0
 60134  1  0  0  0
 60135  1  0  0  0
 61136  1  0  0  0
 61137  1  0  0  0
 61138  1  0  0  0
 62139  1  0  0  0
 62140  1  0  0  0
 62141  1  0  0  0
 63 65  1  0  0  0
 63142  1  0  0  0
 63143  1  0  0  0
 63144  1  0  0  0
 64145  1  0  0  0
 65146  1  0  0  0
 68 83  1  0  0  0
 71 75  2  0  0  0
 71 76  1  0  0  0
 71147  1  0  0  0
 72 73  2  0  0  0
 72 74  1  0  0  0
 72 77  1  0  0  0
 73 75  1  0  0  0
 73 78  1  0  0  0
 74 76  2  0  0  0
 74 81  1  0  0  0
 75 85  1  0  0  0
 76 87  1  0  0  0
 77148  1  0  0  0
 77149  1  0  0  0
 77150  1  0  0  0
 78151  1  0  0  0
 78152  1  0  0  0
 78153  1  0  0  0
 79154  1  0  0  0
 79155  1  0  0  0
 79156  1  0  0  0
 79 84  1  0  0  0
 80 84  1  0  0  0
 80157  1  0  0  0
 80158  1  0  0  0
 80159  1  0  0  0
 81 86  1  0  0  0
 81160  1  0  0  0
 81161  1  0  0  0
 82 83  1  0  0  0
 82 84  1  0  0  0
 82162  1  0  0  0
 82163  1  0  0  0
 83164  1  0  0  0
 83165  1  0  0  0
 84 86  1  0  0  0
 85166  1  0  0  0
 86167  1  0  0  0
 86168  1  0  0  0
M  CHG  1  86   1
M  ISO  4   1 100  68 101  83 101  85 100
M  END
> <chiral flag>
0

> <version>
0

> <s_m_source_file>
/data/baiqing/PycharmProjects/Reinvent-master-3.2/result/LINK_invent/BTK/process_docking_weight1_custom_sum_contain_oxygen_bond_distance_aromatic_linkinvent_7_9_3/rearranged_h_0015.sdf

> <i_m_source_file_index>
52

> <r_mmod_Potential_Energy-OPLS-2005>
-68.9013595581055

> <r_mmod_Stretch_Energy-OPLS-2005>
40.8937644958496

> <r_mmod_Bend_Energy-OPLS-2005>
125.450126647949

> <r_mmod_Torsional_Energy-OPLS-2005>
303.671478271484

> <r_mmod_Improper_Torsional_Energy-OPLS-2005>
18.7361526489258

> <r_mmod_Van_der_Waal_Energy-OPLS-2005>
169.254684448242

> <r_mmod_Electrostatic_Energy-OPLS-2005>
-299.072906494141

> <r_mmod_Solvation_Energy-OPLS-2005>
-449.040313720703

> <b_mmod_Minimization_Converged-OPLS-2005>
0

> <r_mmod_RMS_Derivative-OPLS-2005>
3.74211502075195

$$$$
53
                    3D
 Structure written by MMmdl.
175182  0  0  1  0            999 V2000
  -30.6943  -14.4223   20.6117 C   0  0  0  0  0  0
  -30.4313  -12.2916   19.3973 C   0  0  0  0  0  0
  -29.4917  -12.5134   18.1934 C   0  0  0  0  0  0
  -28.0123  -12.3723   18.6092 C   0  0  0  0  0  0
  -27.6678  -13.1914   19.8811 C   0  0  2  0  0  0
  -28.7103  -12.9185   20.9899 C   0  0  0  0  0  0
  -25.2639  -13.8120   20.5697 C   0  0  0  0  0  0
  -24.1872  -13.0428   20.9196 C   0  0  0  0  0  0
  -24.6391  -11.6883   20.8738 C   0  0  0  0  0  0
  -23.9046  -10.4285   21.0408 C   0  0  0  0  0  0
  -24.3604   -9.4202   21.9184 C   0  0  0  0  0  0
  -23.6283   -8.2241   22.0761 C   0  0  0  0  0  0
  -22.4269   -8.0274   21.3548 C   0  0  0  0  0  0
  -21.9895   -9.0245   20.4657 C   0  0  0  0  0  0
  -22.7218  -10.2126   20.3062 C   0  0  0  0  0  0
  -21.6847   -6.0727   22.5276 C   0  0  0  0  0  0
  -21.4010   -6.5634   23.8206 C   0  0  0  0  0  0
  -21.3667   -5.6791   24.9171 C   0  0  0  0  0  0
  -21.6044   -4.3051   24.7225 C   0  0  0  0  0  0
  -21.8817   -3.8141   23.4346 C   0  0  0  0  0  0
  -21.9195   -4.6957   22.3401 C   0  0  0  0  0  0
  -22.7896  -13.5252   21.1845 C   0  0  0  0  0  0
  -22.1659   -4.2141   21.0980 F   0  0  0  0  0  0
  -21.5638   -3.4536   25.7739 F   0  0  0  0  0  0
  -30.0455  -13.2401   20.4493 N   0  0  0  0  0  0
  -26.3054  -12.9259   20.3376 N   0  0  0  0  0  0
  -25.9310  -11.6435   20.5756 N   0  0  0  0  0  0
  -22.0517  -12.8259   22.0397 N   0  0  0  0  0  0
  -25.4399  -15.1838   20.4097 N   0  0  0  0  0  0
  -31.7863  -14.6878   20.1026 O   0  0  0  0  0  0
  -21.6635   -6.8872   21.4240 O   0  0  0  0  0  0
  -22.3607  -14.5562   20.6682 O   0  0  0  0  0  0
  -24.6124  -31.8699   23.2102 C   0  0  0  0  0  0
  -25.9028  -32.4834   23.8396 C   0  0  1  0  0  0
  -27.2398  -27.4630   20.0859 C   0  0  0  0  0  0
  -25.5893  -33.8636   24.2331 N   0  0  0  0  0  0
  -23.3991  -30.4914   21.5519 C   0  0  2  0  0  0
  -24.8461  -28.9544   20.1198 C   0  0  0  0  0  0
  -22.7388  -29.4670   22.5018 C   0  0  0  0  0  0
  -18.0269  -28.1373   22.8505 C   0  0  0  0  0  0
  -24.1482  -36.7321   23.2638 C   0  0  0  0  0  0
  -25.9249  -30.8413   21.3595 C   0  0  0  0  0  0
  -26.0043  -29.4761   20.7100 C   0  0  0  0  0  0
  -27.2061  -28.7372   20.6895 C   0  0  0  0  0  0
  -26.0681  -26.9437   19.4986 C   0  0  0  0  0  0
  -24.8701  -27.6849   19.5138 C   0  0  0  0  0  0
  -23.6069  -29.8187   20.1685 C   0  0  0  0  0  0
  -25.4104  -36.3125   24.0340 C   0  0  1  0  0  0
  -20.5852  -28.3661   23.1342 C   0  0  2  0  0  0
  -20.6751  -26.9396   22.5453 C   0  0  0  0  0  0
  -19.5742  -26.6369   21.5238 C   0  0  0  0  0  0
  -18.1916  -26.7922   22.1630 C   0  0  0  0  0  0
  -19.1514  -28.8836   23.2920 C   0  0  0  0  0  0
  -18.9439  -30.1447   23.8919 C   0  0  0  0  0  0
  -17.6442  -30.6585   24.0569 C   0  0  0  0  0  0
  -25.9033  -34.9491   23.5133 C   0  0  0  0  0  0
  -16.5339  -29.9088   23.6320 C   0  0  0  0  0  0
  -16.7257  -28.6506   23.0343 C   0  0  0  0  0  0
  -26.4469  -31.6597   25.0706 C   0  0  0  0  0  0
  -25.3747  -31.3683   26.1456 C   0  0  0  0  0  0
  -27.0281  -30.3043   24.6048 C   0  0  0  0  0  0
  -27.6051  -32.4306   25.7462 C   0  0  0  0  0  0
  -27.5580  -37.1817   24.8467 C   0  0  0  0  0  0
  -21.4119  -29.3036   22.3753 N   0  0  0  0  0  0
  -26.4298  -37.3802   23.9407 N   0  0  0  0  0  0
  -24.6638  -31.0808   22.0998 N   0  0  0  0  0  0
  -23.4168  -28.8219   23.3059 O   0  0  0  0  0  0
  -28.4067  -26.7382   20.0682 O   0  0  0  0  0  0
  -26.5596  -34.8936   22.4692 O   0  0  0  0  0  0
  -23.5321  -32.1443   23.7513 O   0  0  0  0  0  0
  -27.9457  -21.8687   20.5955 C   0  0  0  0  0  0
  -28.9554  -19.0557   21.7567 C   0  0  0  0  0  0
  -25.1371  -22.4067   21.7606 C   0  0  0  0  0  0
  -25.1583  -20.3831   20.2810 C   0  0  0  0  0  0
  -25.1267  -20.1448   22.7772 C   0  0  0  0  0  0
  -30.0123  -17.9470   24.3112 C   0  0  0  0  0  0
  -27.7150  -17.0843   24.0793 C   0  0  0  0  0  0
  -28.4830  -24.2646   20.0977 C   0  0  0  0  0  0
  -30.1873  -16.7978   21.2598 C   0  0  0  0  0  0
  -28.3874  -25.5773   20.8997 C   0  0  0  0  0  0
  -27.2752  -20.9554   21.6573 C   0  0  1  0  0  0
  -29.0422  -17.5268   22.0137 C   0  0  1  0  0  0
  -25.7010  -20.9739   21.6032 C   0  0  0  0  0  0
  -28.1427  -23.1405   20.9645 N   0  0  0  0  0  0
  -27.7175  -19.5556   21.6199 N   0  0  0  0  0  0
  -29.9698  -15.3420   21.2630 N   0  0  0  0  0  0
  -29.0639  -17.1716   23.4678 N   0  3  0  0  0  0
  -28.2229  -21.4506   19.4689 O   0  0  0  0  0  0
  -29.9645  -19.7628   21.7832 O   0  0  0  0  0  0
  -31.4732  -12.4090   19.0938 H   0  0  0  0  0  0
  -30.3433  -11.2686   19.7672 H   0  0  0  0  0  0
  -29.7248  -11.8044   17.3980 H   0  0  0  0  0  0
  -29.6585  -13.5067   17.7729 H   0  0  0  0  0  0
  -27.8161  -11.3141   18.7866 H   0  0  0  0  0  0
  -27.3595  -12.6647   17.7860 H   0  0  0  0  0  0
  -27.7269  -14.2454   19.6099 H   0  0  0  0  0  0
  -28.6838  -11.8649   21.2736 H   0  0  0  0  0  0
  -28.4706  -13.4598   21.9059 H   0  0  0  0  0  0
  -25.2753   -9.5675   22.4748 H   0  0  0  0  0  0
  -23.9992   -7.4635   22.7480 H   0  0  0  0  0  0
  -21.0820   -8.8752   19.8968 H   0  0  0  0  0  0
  -22.3670  -10.9656   19.6169 H   0  0  0  0  0  0
  -21.1989   -7.6142   23.9696 H   0  0  0  0  0  0
  -21.1502   -6.0532   25.9071 H   0  0  0  0  0  0
  -22.0596   -2.7603   23.2847 H   0  0  0  0  0  0
  -22.4111  -11.9912   22.4786 H   0  0  0  0  0  0
  -21.1134  -13.1294   22.2581 H   0  0  0  0  0  0
  -24.6444  -15.8114   20.4538 H   0  0  0  0  0  0
  -26.2360  -15.5852   19.9322 H   0  0  0  0  0  0
  -26.7102  -32.5557   23.1167 H   0  0  0  0  0  0
  -25.0043  -33.9798   25.0477 H   0  0  0  0  0  0
  -22.6881  -31.3087   21.4124 H   0  0  0  0  0  0
  -23.3743  -35.9656   23.3318 H   0  0  0  0  0  0
  -24.3575  -36.8909   22.2046 H   0  0  0  0  0  0
  -23.7237  -37.6537   23.6633 H   0  0  0  0  0  0
  -26.0299  -31.6057   20.5887 H   0  0  0  0  0  0
  -26.8163  -30.8990   21.9729 H   0  0  0  0  0  0
  -28.1036  -29.1367   21.1412 H   0  0  0  0  0  0
  -26.0819  -25.9732   19.0246 H   0  0  0  0  0  0
  -23.9780  -27.2753   19.0600 H   0  0  0  0  0  0
  -23.7142  -30.5918   19.4073 H   0  0  0  0  0  0
  -22.7311  -29.2371   19.8756 H   0  0  0  0  0  0
  -25.1281  -36.1995   25.0836 H   0  0  0  0  0  0
  -20.9949  -28.3237   24.1463 H   0  0  0  0  0  0
  -20.5627  -26.2285   23.3654 H   0  0  0  0  0  0
  -21.6631  -26.7433   22.1278 H   0  0  0  0  0  0
  -19.6907  -25.6281   21.1267 H   0  0  0  0  0  0
  -19.6666  -27.3172   20.6763 H   0  0  0  0  0  0
  -17.4193  -26.6697   21.4023 H   0  0  0  0  0  0
  -18.0299  -26.0064   22.9022 H   0  0  0  0  0  0
  -19.7916  -30.7268   24.2291 H   0  0  0  0  0  0
  -17.4999  -31.6263   24.5173 H   0  0  0  0  0  0
  -15.5344  -30.2999   23.7643 H   0  0  0  0  0  0
  -15.8660  -28.0843   22.7034 H   0  0  0  0  0  0
  -24.5925  -30.7025   25.7789 H   0  0  0  0  0  0
  -24.8934  -32.2826   26.4928 H   0  0  0  0  0  0
  -25.8113  -30.8834   27.0194 H   0  0  0  0  0  0
  -26.2798  -29.6818   24.1121 H   0  0  0  0  0  0
  -27.4083  -29.7259   25.4479 H   0  0  0  0  0  0
  -27.8623  -30.4366   23.9155 H   0  0  0  0  0  0
  -27.2678  -33.3590   26.2080 H   0  0  0  0  0  0
  -28.3836  -32.6887   25.0273 H   0  0  0  0  0  0
  -28.0748  -31.8404   26.5340 H   0  0  0  0  0  0
  -28.2620  -38.0094   24.7511 H   0  0  0  0  0  0
  -28.1062  -36.2632   24.6308 H   0  0  0  0  0  0
  -27.2303  -37.1481   25.8873 H   0  0  0  0  0  0
  -20.9275  -29.8778   21.7000 H   0  0  0  0  0  0
  -26.0192  -38.2887   24.1399 H   0  0  0  0  0  0
  -24.0486  -22.4022   21.8333 H   0  0  0  0  0  0
  -25.3840  -23.0477   20.9136 H   0  0  0  0  0  0
  -25.5157  -22.8885   22.6630 H   0  0  0  0  0  0
  -24.0681  -20.3763   20.2688 H   0  0  0  0  0  0
  -25.4820  -19.3540   20.1257 H   0  0  0  0  0  0
  -25.4806  -20.9591   19.4134 H   0  0  0  0  0  0
  -24.0381  -20.2098   22.8165 H   0  0  0  0  0  0
  -25.5038  -20.4971   23.7383 H   0  0  0  0  0  0
  -25.3667  -19.0850   22.6981 H   0  0  0  0  0  0
  -30.1224  -17.4799   25.2902 H   0  0  0  0  0  0
  -29.6700  -18.9691   24.4786 H   0  0  0  0  0  0
  -31.0046  -17.9910   23.8624 H   0  0  0  0  0  0
  -27.7760  -16.7065   25.1005 H   0  0  0  0  0  0
  -27.0710  -16.4010   23.5234 H   0  0  0  0  0  0
  -27.2273  -18.0588   24.1154 H   0  0  0  0  0  0
  -29.4825  -24.1406   19.6784 H   0  0  0  0  0  0
  -27.7830  -24.2875   19.2614 H   0  0  0  0  0  0
  -31.1606  -17.0333   21.6929 H   0  0  0  0  0  0
  -30.2242  -17.1400   20.2239 H   0  0  0  0  0  0
  -29.2317  -25.6450   21.5865 H   0  0  0  0  0  0
  -27.4964  -25.5628   21.5327 H   0  0  0  0  0  0
  -27.5811  -21.3383   22.6332 H   0  0  0  0  0  0
  -28.1260  -17.1122   21.5884 H   0  0  0  0  0  0
  -27.9053  -23.3722   21.9194 H   0  0  0  0  0  0
  -26.9610  -18.8911   21.5593 H   0  0  0  0  0  0
  -29.0775  -14.9918   21.5775 H   0  0  0  0  0  0
  -29.4213  -16.2291   23.4876 H   0  0  0  0  0  0
  1 25  1  0  0  0
  1 30  2  0  0  0
  1 86  1  0  0  0
  2  3  1  0  0  0
  2 25  1  0  0  0
  2 90  1  0  0  0
  2 91  1  0  0  0
  3  4  1  0  0  0
  3 92  1  0  0  0
  3 93  1  0  0  0
  4  5  1  0  0  0
  4 94  1  0  0  0
  4 95  1  0  0  0
  5  6  1  0  0  0
  5 26  1  0  0  0
  5 96  1  0  0  0
  6 25  1  0  0  0
  6 97  1  0  0  0
  6 98  1  0  0  0
  7  8  2  0  0  0
  7 26  1  0  0  0
  7 29  1  0  0  0
  8  9  1  0  0  0
  8 22  1  0  0  0
  9 10  1  0  0  0
  9 27  2  0  0  0
 10 11  2  0  0  0
 10 15  1  0  0  0
 11 12  1  0  0  0
 11 99  1  0  0  0
 12 13  2  0  0  0
 12100  1  0  0  0
 13 14  1  0  0  0
 13 31  1  0  0  0
 14 15  2  0  0  0
 14101  1  0  0  0
 15102  1  0  0  0
 16 17  2  0  0  0
 16 21  1  0  0  0
 16 31  1  0  0  0
 17 18  1  0  0  0
 17103  1  0  0  0
 18 19  2  0  0  0
 18104  1  0  0  0
 19 20  1  0  0  0
 19 24  1  0  0  0
 20 21  2  0  0  0
 20105  1  0  0  0
 21 23  1  0  0  0
 22 28  1  0  0  0
 22 32  2  0  0  0
 26 27  1  0  0  0
 28106  1  0  0  0
 28107  1  0  0  0
 29108  1  0  0  0
 29109  1  0  0  0
 33 34  1  0  0  0
 33 66  1  0  0  0
 33 70  2  0  0  0
 34 36  1  0  0  0
 34 59  1  0  0  0
 34110  1  0  0  0
 35 44  2  0  0  0
 35 45  1  0  0  0
 35 68  1  0  0  0
 36 56  1  0  0  0
 36111  1  0  0  0
 37 39  1  0  0  0
 37 47  1  0  0  0
 37 66  1  0  0  0
 37112  1  0  0  0
 38 43  2  0  0  0
 38 46  1  0  0  0
 38 47  1  0  0  0
 39 64  1  0  0  0
 39 67  2  0  0  0
 40 52  1  0  0  0
 40 53  2  0  0  0
 40 58  1  0  0  0
 41113  1  0  0  0
 41114  1  0  0  0
 41115  1  0  0  0
 41 48  1  0  0  0
 42 43  1  0  0  0
 42 66  1  0  0  0
 42116  1  0  0  0
 42117  1  0  0  0
 43 44  1  0  0  0
 44118  1  0  0  0
 45 46  2  0  0  0
 45119  1  0  0  0
 46120  1  0  0  0
 47121  1  0  0  0
 47122  1  0  0  0
 48 56  1  0  0  0
 48 65  1  0  0  0
 48123  1  0  0  0
 49 50  1  0  0  0
 49 53  1  0  0  0
 49 64  1  0  0  0
 49124  1  0  0  0
 50 51  1  0  0  0
 50125  1  0  0  0
 50126  1  0  0  0
 51 52  1  0  0  0
 51127  1  0  0  0
 51128  1  0  0  0
 52129  1  0  0  0
 52130  1  0  0  0
 53 54  1  0  0  0
 54 55  2  0  0  0
 54131  1  0  0  0
 55 57  1  0  0  0
 55132  1  0  0  0
 56 69  2  0  0  0
 57 58  2  0  0  0
 57133  1  0  0  0
 58134  1  0  0  0
 59 60  1  0  0  0
 59 61  1  0  0  0
 59 62  1  0  0  0
 60135  1  0  0  0
 60136  1  0  0  0
 60137  1  0  0  0
 61138  1  0  0  0
 61139  1  0  0  0
 61140  1  0  0  0
 62141  1  0  0  0
 62142  1  0  0  0
 62143  1  0  0  0
 63 65  1  0  0  0
 63144  1  0  0  0
 63145  1  0  0  0
 63146  1  0  0  0
 64147  1  0  0  0
 65148  1  0  0  0
 68 80  1  0  0  0
 71 81  1  0  0  0
 71 84  1  0  0  0
 71 88  2  0  0  0
 72 82  1  0  0  0
 72 85  1  0  0  0
 72 89  2  0  0  0
 73149  1  0  0  0
 73150  1  0  0  0
 73151  1  0  0  0
 73 83  1  0  0  0
 74 83  1  0  0  0
 74152  1  0  0  0
 74153  1  0  0  0
 74154  1  0  0  0
 75 83  1  0  0  0
 75155  1  0  0  0
 75156  1  0  0  0
 75157  1  0  0  0
 76158  1  0  0  0
 76159  1  0  0  0
 76160  1  0  0  0
 76 87  1  0  0  0
 77 87  1  0  0  0
 77161  1  0  0  0
 77162  1  0  0  0
 77163  1  0  0  0
 78 80  1  0  0  0
 78 84  1  0  0  0
 78164  1  0  0  0
 78165  1  0  0  0
 79 86  1  0  0  0
 79166  1  0  0  0
 79167  1  0  0  0
 79 82  1  0  0  0
 80168  1  0  0  0
 80169  1  0  0  0
 81 83  1  0  0  0
 81 85  1  0  0  0
 81170  1  0  0  0
 82 87  1  0  0  0
 82171  1  0  0  0
 84172  1  0  0  0
 85173  1  0  0  0
 86174  1  0  0  0
 87175  1  0  0  0
M  CHG  1  87   1
M  ISO  4   1 100  68 101  80 101  86 100
M  END
> <chiral flag>
0

> <version>
0

> <s_m_source_file>
/data/baiqing/PycharmProjects/Reinvent-master-3.2/result/LINK_invent/BTK/process_docking_weight1_custom_sum_contain_oxygen_bond_distance_aromatic_linkinvent_7_9_3/rearranged_h_0015.sdf

> <i_m_source_file_index>
53

> <r_mmod_Potential_Energy-OPLS-2005>
-329.911865234375

> <r_mmod_Stretch_Energy-OPLS-2005>
39.2164039611816

> <r_mmod_Bend_Energy-OPLS-2005>
107.89542388916

> <r_mmod_Torsional_Energy-OPLS-2005>
274.362548828125

> <r_mmod_Improper_Torsional_Energy-OPLS-2005>
6.31383991241455

> <r_mmod_Van_der_Waal_Energy-OPLS-2005>
134.906204223633

> <r_mmod_Electrostatic_Energy-OPLS-2005>
-392.987854003906

> <r_mmod_Solvation_Energy-OPLS-2005>
-508.079864501953

> <b_mmod_Minimization_Converged-OPLS-2005>
0

> <r_mmod_RMS_Derivative-OPLS-2005>
1.378133893013

$$$$
54
                    3D
 Structure written by MMmdl.
163171  0  0  1  0            999 V2000
  -30.5016  -15.1660   20.3757 C   0  0  0  0  0  0
  -30.4260  -12.7422   19.5162 C   0  0  0  0  0  0
  -29.5260  -12.5622   18.2712 C   0  0  0  0  0  0
  -28.0688  -12.3063   18.6971 C   0  0  0  0  0  0
  -27.6093  -13.2726   19.8190 C   0  0  2  0  0  0
  -28.6444  -13.4251   20.9510 C   0  0  0  0  0  0
  -25.2400  -13.8259   20.5763 C   0  0  0  0  0  0
  -24.1733  -13.0458   20.9239 C   0  0  0  0  0  0
  -24.6380  -11.6948   20.8751 C   0  0  0  0  0  0
  -23.9078  -10.4304   21.0398 C   0  0  0  0  0  0
  -24.3639   -9.4225   21.9170 C   0  0  0  0  0  0
  -23.6316   -8.2258   22.0755 C   0  0  0  0  0  0
  -22.4292   -8.0293   21.3554 C   0  0  0  0  0  0
  -21.9915   -9.0264   20.4651 C   0  0  0  0  0  0
  -22.7256  -10.2139   20.3046 C   0  0  0  0  0  0
  -21.6848   -6.0741   22.5276 C   0  0  0  0  0  0
  -21.4019   -6.5642   23.8215 C   0  0  0  0  0  0
  -21.3662   -5.6788   24.9171 C   0  0  0  0  0  0
  -21.6048   -4.3058   24.7214 C   0  0  0  0  0  0
  -21.8825   -3.8156   23.4335 C   0  0  0  0  0  0
  -21.9187   -4.6971   22.3397 C   0  0  0  0  0  0
  -22.7749  -13.5219   21.1861 C   0  0  0  0  0  0
  -22.1658   -4.2162   21.0971 F   0  0  0  0  0  0
  -21.5624   -3.4545   25.7734 F   0  0  0  0  0  0
  -29.8850  -13.8945   20.3190 N   0  0  0  0  0  0
  -26.2799  -12.9518   20.3208 N   0  0  0  0  0  0
  -25.9311  -11.6629   20.5711 N   0  0  0  0  0  0
  -22.0383  -12.8231   22.0416 N   0  0  0  0  0  0
  -25.4124  -15.1990   20.4265 N   0  0  0  0  0  0
  -31.7270  -15.1162   20.2032 O   0  0  0  0  0  0
  -21.6656   -6.8892   21.4242 O   0  0  0  0  0  0
  -22.3443  -14.5517   20.6688 O   0  0  0  0  0  0
  -24.6579  -31.8293   23.1753 C   0  0  0  0  0  0
  -25.9279  -32.4606   23.8209 C   0  0  1  0  0  0
  -27.2213  -26.9866   20.1621 C   0  0  0  0  0  0
  -25.5967  -33.8422   24.2104 N   0  0  0  0  0  0
  -23.4690  -30.4433   21.5244 C   0  0  2  0  0  0
  -24.9220  -28.8444   20.1071 C   0  0  0  0  0  0
  -22.7639  -29.4466   22.4809 C   0  0  0  0  0  0
  -18.0325  -28.1394   22.8465 C   0  0  0  0  0  0
  -24.1495  -36.7214   23.2644 C   0  0  0  0  0  0
  -26.0351  -30.6518   21.3999 C   0  0  0  0  0  0
  -26.1026  -29.2488   20.7406 C   0  0  0  0  0  0
  -27.2442  -28.3366   20.7534 C   0  0  0  0  0  0
  -26.0168  -26.7313   19.4677 C   0  0  0  0  0  0
  -24.9011  -27.6039   19.4521 C   0  0  0  0  0  0
  -23.7044  -29.7641   20.1477 C   0  0  0  0  0  0
  -25.4128  -36.2973   24.0302 C   0  0  1  0  0  0
  -20.5937  -28.3743   23.1196 C   0  0  2  0  0  0
  -20.6793  -26.9429   22.5404 C   0  0  0  0  0  0
  -19.5769  -26.6370   21.5214 C   0  0  0  0  0  0
  -18.1949  -26.7929   22.1620 C   0  0  0  0  0  0
  -19.1575  -28.8891   23.2823 C   0  0  0  0  0  0
  -18.9486  -30.1483   23.8852 C   0  0  0  0  0  0
  -17.6479  -30.6589   24.0546 C   0  0  0  0  0  0
  -25.9091  -34.9356   23.5021 C   0  0  0  0  0  0
  -16.5373  -29.9074   23.6329 C   0  0  0  0  0  0
  -16.7306  -28.6489   23.0356 C   0  0  0  0  0  0
  -26.4539  -31.6531   25.0715 C   0  0  0  0  0  0
  -25.3688  -31.3787   26.1390 C   0  0  0  0  0  0
  -27.0416  -30.2891   24.6426 C   0  0  0  0  0  0
  -27.6044  -32.4341   25.7511 C   0  0  0  0  0  0
  -27.5569  -37.1759   24.8457 C   0  0  0  0  0  0
  -21.4312  -29.3045   22.3548 N   0  0  0  0  0  0
  -26.4274  -37.3706   23.9406 N   0  0  0  0  0  0
  -24.7417  -31.0005   22.0865 N   0  0  0  0  0  0
  -23.4214  -28.8029   23.3026 O   0  0  0  0  0  0
  -28.2266  -25.9052   20.2813 O   0  0  0  0  0  0
  -26.5702  -34.8884   22.4617 O   0  0  0  0  0  0
  -23.5657  -32.1247   23.6870 O   0  0  0  0  0  0
  -28.7033  -22.8901   20.4157 C   0  0  0  0  0  0
  -28.5069  -18.7408   19.4550 C   0  0  0  0  0  0
  -29.8259  -19.2451   21.2969 C   0  0  0  0  0  0
  -29.1583  -17.2209   19.3310 C   0  0  0  0  0  0
  -30.4627  -17.6974   21.2117 C   0  0  0  0  0  0
  -29.3718  -20.0086   19.9655 C   0  0  0  0  0  0
  -31.5593  -22.4076   15.4760 C   0  0  0  0  0  0
  -28.1053  -24.3783   19.7392 C   0  0  0  0  0  0
  -30.1803  -22.4160   16.1495 C   0  0  0  0  0  0
  -30.2383  -22.2289   17.6751 C   0  0  0  0  0  0
  -28.8760  -21.7763   18.2557 C   0  0  0  0  0  0
  -29.8325  -16.4849   20.4868 N   0  0  0  0  0  0
  -28.9015  -21.6000   19.7235 N   0  0  0  0  0  0
  -28.9351  -22.9220   21.6275 O   0  0  0  0  0  0
  -31.4537  -12.9132   19.1944 H   0  0  0  0  0  0
  -30.4548  -11.8323   20.1158 H   0  0  0  0  0  0
  -29.8939  -11.7418   17.6541 H   0  0  0  0  0  0
  -29.5748  -13.4581   17.6500 H   0  0  0  0  0  0
  -28.0054  -11.2764   19.0492 H   0  0  0  0  0  0
  -27.4029  -12.3778   17.8351 H   0  0  0  0  0  0
  -27.5351  -14.2476   19.3363 H   0  0  0  0  0  0
  -28.7824  -12.4914   21.4972 H   0  0  0  0  0  0
  -28.3002  -14.1603   21.6796 H   0  0  0  0  0  0
  -25.2767   -9.5719   22.4758 H   0  0  0  0  0  0
  -24.0024   -7.4649   22.7486 H   0  0  0  0  0  0
  -21.0837   -8.8803   19.8962 H   0  0  0  0  0  0
  -22.3708  -10.9688   19.6181 H   0  0  0  0  0  0
  -21.2031   -7.6148   23.9726 H   0  0  0  0  0  0
  -21.1470   -6.0511   25.9072 H   0  0  0  0  0  0
  -22.0598   -2.7619   23.2823 H   0  0  0  0  0  0
  -22.3968  -11.9930   22.4875 H   0  0  0  0  0  0
  -21.0987  -13.1271   22.2578 H   0  0  0  0  0  0
  -24.6631  -15.8657   20.5736 H   0  0  0  0  0  0
  -26.2850  -15.6361   20.1582 H   0  0  0  0  0  0
  -26.7345  -32.5159   23.0936 H   0  0  0  0  0  0
  -25.0049  -33.9506   25.0203 H   0  0  0  0  0  0
  -22.7782  -31.2721   21.3572 H   0  0  0  0  0  0
  -23.3766  -35.9536   23.3269 H   0  0  0  0  0  0
  -24.3585  -36.8897   22.2069 H   0  0  0  0  0  0
  -23.7248  -37.6387   23.6726 H   0  0  0  0  0  0
  -26.2109  -31.3988   20.6243 H   0  0  0  0  0  0
  -26.8967  -30.7041   22.0537 H   0  0  0  0  0  0
  -28.1325  -28.6376   21.2911 H   0  0  0  0  0  0
  -25.8845  -25.7925   18.9539 H   0  0  0  0  0  0
  -24.0046  -27.2869   18.9368 H   0  0  0  0  0  0
  -23.8504  -30.5338   19.3888 H   0  0  0  0  0  0
  -22.8160  -29.2135   19.8353 H   0  0  0  0  0  0
  -25.1325  -36.1773   25.0792 H   0  0  0  0  0  0
  -21.0030  -28.3356   24.1317 H   0  0  0  0  0  0
  -20.5666  -26.2366   23.3648 H   0  0  0  0  0  0
  -21.6662  -26.7402   22.1219 H   0  0  0  0  0  0
  -19.6928  -25.6270   21.1273 H   0  0  0  0  0  0
  -19.6700  -27.3154   20.6721 H   0  0  0  0  0  0
  -17.4217  -26.6678   21.4024 H   0  0  0  0  0  0
  -18.0343  -26.0086   22.9032 H   0  0  0  0  0  0
  -19.7968  -30.7311   24.2199 H   0  0  0  0  0  0
  -17.5032  -31.6263   24.5170 H   0  0  0  0  0  0
  -15.5366  -30.2962   23.7675 H   0  0  0  0  0  0
  -15.8711  -28.0795   22.7097 H   0  0  0  0  0  0
  -24.5865  -30.7126   25.7714 H   0  0  0  0  0  0
  -24.8879  -32.2993   26.4710 H   0  0  0  0  0  0
  -25.7940  -30.9026   27.0234 H   0  0  0  0  0  0
  -26.3059  -29.6581   24.1411 H   0  0  0  0  0  0
  -27.3913  -29.7241   25.5075 H   0  0  0  0  0  0
  -27.9029  -30.4047   23.9846 H   0  0  0  0  0  0
  -27.2606  -33.3686   26.1965 H   0  0  0  0  0  0
  -28.3921  -32.6829   25.0386 H   0  0  0  0  0  0
  -28.0636  -31.8548   26.5534 H   0  0  0  0  0  0
  -28.2552  -38.0078   24.7506 H   0  0  0  0  0  0
  -28.1095  -36.2608   24.6276 H   0  0  0  0  0  0
  -27.2292  -37.1397   25.8857 H   0  0  0  0  0  0
  -20.9552  -29.8745   21.6691 H   0  0  0  0  0  0
  -26.0121  -38.2763   24.1412 H   0  0  0  0  0  0
  -27.6169  -18.6667   20.0815 H   0  0  0  0  0  0
  -28.0961  -18.9619   18.4735 H   0  0  0  0  0  0
  -30.5695  -19.8741   21.7868 H   0  0  0  0  0  0
  -28.9845  -19.2305   21.9900 H   0  0  0  0  0  0
  -29.8909  -17.2510   18.5240 H   0  0  0  0  0  0
  -28.3733  -16.5607   18.9609 H   0  0  0  0  0  0
  -30.6347  -17.3687   22.2381 H   0  0  0  0  0  0
  -31.4617  -17.8044   20.7887 H   0  0  0  0  0  0
  -30.2811  -19.9687   19.3686 H   0  0  0  0  0  0
  -31.4736  -22.6665   14.4208 H   0  0  0  0  0  0
  -32.0212  -21.4198   15.5305 H   0  0  0  0  0  0
  -32.2410  -23.1235   15.9374 H   0  0  0  0  0  0
  -27.0511  -24.1662   19.5799 H   0  0  0  0  0  0
  -28.5391  -24.4497   18.7438 H   0  0  0  0  0  0
  -29.5764  -21.6275   15.6965 H   0  0  0  0  0  0
  -29.6753  -23.3573   15.9276 H   0  0  0  0  0  0
  -30.5763  -23.1550   18.1407 H   0  0  0  0  0  0
  -31.0046  -21.4895   17.9126 H   0  0  0  0  0  0
  -28.5983  -20.8550   17.7562 H   0  0  0  0  0  0
  -28.0863  -22.4582   17.9414 H   0  0  0  0  0  0
  1 25  1  0  0  0
  1 30  2  0  0  0
  1 82  1  0  0  0
  2  3  1  0  0  0
  2 25  1  0  0  0
  2 85  1  0  0  0
  2 86  1  0  0  0
  3  4  1  0  0  0
  3 87  1  0  0  0
  3 88  1  0  0  0
  4  5  1  0  0  0
  4 89  1  0  0  0
  4 90  1  0  0  0
  5  6  1  0  0  0
  5 26  1  0  0  0
  5 91  1  0  0  0
  6 25  1  0  0  0
  6 92  1  0  0  0
  6 93  1  0  0  0
  7  8  2  0  0  0
  7 26  1  0  0  0
  7 29  1  0  0  0
  8  9  1  0  0  0
  8 22  1  0  0  0
  9 10  1  0  0  0
  9 27  2  0  0  0
 10 11  2  0  0  0
 10 15  1  0  0  0
 11 12  1  0  0  0
 11 94  1  0  0  0
 12 13  2  0  0  0
 12 95  1  0  0  0
 13 14  1  0  0  0
 13 31  1  0  0  0
 14 15  2  0  0  0
 14 96  1  0  0  0
 15 97  1  0  0  0
 16 17  2  0  0  0
 16 21  1  0  0  0
 16 31  1  0  0  0
 17 18  1  0  0  0
 17 98  1  0  0  0
 18 19  2  0  0  0
 18 99  1  0  0  0
 19 20  1  0  0  0
 19 24  1  0  0  0
 20 21  2  0  0  0
 20100  1  0  0  0
 21 23  1  0  0  0
 22 28  1  0  0  0
 22 32  2  0  0  0
 26 27  1  0  0  0
 28101  1  0  0  0
 28102  1  0  0  0
 29103  1  0  0  0
 29104  1  0  0  0
 33 34  1  0  0  0
 33 66  1  0  0  0
 33 70  2  0  0  0
 34 36  1  0  0  0
 34 59  1  0  0  0
 34105  1  0  0  0
 35 44  2  0  0  0
 35 45  1  0  0  0
 35 68  1  0  0  0
 36 56  1  0  0  0
 36106  1  0  0  0
 37 39  1  0  0  0
 37 47  1  0  0  0
 37 66  1  0  0  0
 37107  1  0  0  0
 38 43  2  0  0  0
 38 46  1  0  0  0
 38 47  1  0  0  0
 39 64  1  0  0  0
 39 67  2  0  0  0
 40 52  1  0  0  0
 40 53  2  0  0  0
 40 58  1  0  0  0
 41108  1  0  0  0
 41109  1  0  0  0
 41110  1  0  0  0
 41 48  1  0  0  0
 42 43  1  0  0  0
 42 66  1  0  0  0
 42111  1  0  0  0
 42112  1  0  0  0
 43 44  1  0  0  0
 44113  1  0  0  0
 45 46  2  0  0  0
 45114  1  0  0  0
 46115  1  0  0  0
 47116  1  0  0  0
 47117  1  0  0  0
 48 56  1  0  0  0
 48 65  1  0  0  0
 48118  1  0  0  0
 49 50  1  0  0  0
 49 53  1  0  0  0
 49 64  1  0  0  0
 49119  1  0  0  0
 50 51  1  0  0  0
 50120  1  0  0  0
 50121  1  0  0  0
 51 52  1  0  0  0
 51122  1  0  0  0
 51123  1  0  0  0
 52124  1  0  0  0
 52125  1  0  0  0
 53 54  1  0  0  0
 54 55  2  0  0  0
 54126  1  0  0  0
 55 57  1  0  0  0
 55127  1  0  0  0
 56 69  2  0  0  0
 57 58  2  0  0  0
 57128  1  0  0  0
 58129  1  0  0  0
 59 60  1  0  0  0
 59 61  1  0  0  0
 59 62  1  0  0  0
 60130  1  0  0  0
 60131  1  0  0  0
 60132  1  0  0  0
 61133  1  0  0  0
 61134  1  0  0  0
 61135  1  0  0  0
 62136  1  0  0  0
 62137  1  0  0  0
 62138  1  0  0  0
 63 65  1  0  0  0
 63139  1  0  0  0
 63140  1  0  0  0
 63141  1  0  0  0
 64142  1  0  0  0
 65143  1  0  0  0
 68 78  1  0  0  0
 71 78  1  0  0  0
 71 83  1  0  0  0
 71 84  2  0  0  0
 72 74  1  0  0  0
 72 76  1  0  0  0
 72144  1  0  0  0
 72145  1  0  0  0
 73 75  1  0  0  0
 73 76  1  0  0  0
 73146  1  0  0  0
 73147  1  0  0  0
 74 82  1  0  0  0
 74148  1  0  0  0
 74149  1  0  0  0
 75 82  1  0  0  0
 75150  1  0  0  0
 75151  1  0  0  0
 76 83  1  0  0  0
 76152  1  0  0  0
 77 79  1  0  0  0
 77153  1  0  0  0
 77154  1  0  0  0
 77155  1  0  0  0
 78156  1  0  0  0
 78157  1  0  0  0
 79 80  1  0  0  0
 79158  1  0  0  0
 79159  1  0  0  0
 80 81  1  0  0  0
 80160  1  0  0  0
 80161  1  0  0  0
 81 83  1  0  0  0
 81162  1  0  0  0
 81163  1  0  0  0
M  ISO  4   1 100  68 101  78 101  82 100
M  END
> <chiral flag>
0

> <version>
0

> <s_m_source_file>
/data/baiqing/PycharmProjects/Reinvent-master-3.2/result/LINK_invent/BTK/process_docking_weight1_custom_sum_contain_oxygen_bond_distance_aromatic_linkinvent_7_9_3/rearranged_h_0015.sdf

> <i_m_source_file_index>
54

> <r_mmod_Potential_Energy-OPLS-2005>
1339.63293457031

> <r_mmod_Stretch_Energy-OPLS-2005>
461.869110107422

> <r_mmod_Bend_Energy-OPLS-2005>
471.700531005859

> <r_mmod_Torsional_Energy-OPLS-2005>
354.43017578125

> <r_mmod_Improper_Torsional_Energy-OPLS-2005>
7.59345102310181

> <r_mmod_Van_der_Waal_Energy-OPLS-2005>
122.042678833008

> <r_mmod_Electrostatic_Energy-OPLS-2005>
-218.344696044922

> <r_mmod_Solvation_Energy-OPLS-2005>
-228.711212158203

> <b_mmod_Minimization_Converged-OPLS-2005>
0

> <r_mmod_RMS_Derivative-OPLS-2005>
3.12660837173462

$$$$
55
                    3D
 Structure written by MMmdl.
157165  0  0  1  0            999 V2000
  -30.4809  -14.9173   20.5687 C   0  0  0  0  0  0
  -30.4624  -12.6097   19.4860 C   0  0  0  0  0  0
  -29.5390  -12.6031   18.2391 C   0  0  0  0  0  0
  -28.0568  -12.3896   18.6160 C   0  0  0  0  0  0
  -27.6454  -13.2356   19.8499 C   0  0  2  0  0  0
  -28.6775  -13.0642   20.9719 C   0  0  0  0  0  0
  -25.2539  -13.8202   20.5560 C   0  0  0  0  0  0
  -24.1864  -13.0466   20.9180 C   0  0  0  0  0  0
  -24.6429  -11.6948   20.8694 C   0  0  0  0  0  0
  -23.9095  -10.4356   21.0363 C   0  0  0  0  0  0
  -24.3645   -9.4290   21.9140 C   0  0  0  0  0  0
  -23.6330   -8.2325   22.0739 C   0  0  0  0  0  0
  -22.4310   -8.0332   21.3542 C   0  0  0  0  0  0
  -21.9937   -9.0289   20.4624 C   0  0  0  0  0  0
  -22.7252  -10.2181   20.3014 C   0  0  0  0  0  0
  -21.6888   -6.0750   22.5278 C   0  0  0  0  0  0
  -21.4014   -6.5634   23.8217 C   0  0  0  0  0  0
  -21.3672   -5.6791   24.9175 C   0  0  0  0  0  0
  -21.6068   -4.3064   24.7206 C   0  0  0  0  0  0
  -21.8816   -3.8140   23.4325 C   0  0  0  0  0  0
  -21.9213   -4.6968   22.3389 C   0  0  0  0  0  0
  -22.7905  -13.5271   21.1853 C   0  0  0  0  0  0
  -22.1665   -4.2149   21.0969 F   0  0  0  0  0  0
  -21.5676   -3.4555   25.7722 F   0  0  0  0  0  0
  -29.9491  -13.6214   20.4639 N   0  0  0  0  0  0
  -26.2938  -12.9397   20.3096 N   0  0  0  0  0  0
  -25.9339  -11.6543   20.5608 N   0  0  0  0  0  0
  -22.0571  -12.8300   22.0414 N   0  0  0  0  0  0
  -25.4153  -15.1909   20.3893 N   0  0  0  0  0  0
  -31.6224  -15.0727   20.1047 O   0  0  0  0  0  0
  -21.6685   -6.8901   21.4254 O   0  0  0  0  0  0
  -22.3572  -14.5557   20.6682 O   0  0  0  0  0  0
  -24.6413  -31.8459   23.1958 C   0  0  0  0  0  0
  -25.9184  -32.4690   23.8342 C   0  0  1  0  0  0
  -27.2133  -27.1283   20.1746 C   0  0  0  0  0  0
  -25.5946  -33.8520   24.2228 N   0  0  0  0  0  0
  -23.4472  -30.4683   21.5384 C   0  0  2  0  0  0
  -24.8979  -28.8943   20.1126 C   0  0  0  0  0  0
  -22.7564  -29.4574   22.4869 C   0  0  0  0  0  0
  -18.0304  -28.1388   22.8483 C   0  0  0  0  0  0
  -24.1490  -36.7244   23.2646 C   0  0  0  0  0  0
  -26.0074  -30.7054   21.4156 C   0  0  0  0  0  0
  -26.0723  -29.3240   20.7431 C   0  0  0  0  0  0
  -27.2274  -28.4568   20.7604 C   0  0  0  0  0  0
  -26.0134  -26.7997   19.5010 C   0  0  0  0  0  0
  -24.8824  -27.6455   19.4753 C   0  0  0  0  0  0
  -23.6763  -29.8009   20.1561 C   0  0  0  0  0  0
  -25.4130  -36.3051   24.0326 C   0  0  1  0  0  0
  -20.5925  -28.3733   23.1223 C   0  0  2  0  0  0
  -20.6806  -26.9431   22.5412 C   0  0  0  0  0  0
  -19.5764  -26.6369   21.5238 C   0  0  0  0  0  0
  -18.1939  -26.7928   22.1632 C   0  0  0  0  0  0
  -19.1567  -28.8880   23.2840 C   0  0  0  0  0  0
  -18.9480  -30.1481   23.8854 C   0  0  0  0  0  0
  -17.6475  -30.6594   24.0568 C   0  0  0  0  0  0
  -25.9088  -34.9411   23.5095 C   0  0  0  0  0  0
  -16.5360  -29.9083   23.6355 C   0  0  0  0  0  0
  -16.7291  -28.6504   23.0367 C   0  0  0  0  0  0
  -26.4458  -31.6590   25.0821 C   0  0  0  0  0  0
  -25.3602  -31.3848   26.1493 C   0  0  0  0  0  0
  -27.0365  -30.2954   24.6579 C   0  0  0  0  0  0
  -27.5950  -32.4410   25.7607 C   0  0  0  0  0  0
  -27.5586  -37.1802   24.8444 C   0  0  0  0  0  0
  -21.4263  -29.3045   22.3575 N   0  0  0  0  0  0
  -26.4295  -37.3759   23.9384 N   0  0  0  0  0  0
  -24.7158  -31.0296   22.1010 N   0  0  0  0  0  0
  -23.4191  -28.8138   23.3046 O   0  0  0  0  0  0
  -28.2606  -26.1391   20.2646 O   0  0  0  0  0  0
  -26.5674  -34.8889   22.4675 O   0  0  0  0  0  0
  -23.5532  -32.1359   23.7155 O   0  0  0  0  0  0
  -30.3755  -18.5968   21.2036 C   0  0  0  0  0  0
  -28.1938  -19.3773   19.7261 C   0  0  0  0  0  0
  -29.6248  -17.4924   20.6548 C   0  0  0  0  0  0
  -28.9051  -20.4856   20.3029 C   0  0  0  0  0  0
  -30.0414  -20.0123   21.0479 C   0  0  0  0  0  0
  -28.5113  -17.9737   19.8945 C   0  0  0  0  0  0
  -27.9601  -16.4595   24.5817 C   0  0  0  0  0  0
  -28.8982  -16.8742   23.4318 C   0  0  0  0  0  0
  -28.9882  -15.7665   22.3552 C   0  0  0  0  0  0
  -27.9417  -24.6154   20.1699 C   0  0  0  0  0  0
  -28.9008  -23.2497   20.4550 C   0  0  0  0  0  0
  -29.7361  -16.0280   21.0984 N   0  0  0  0  0  0
  -28.3846  -21.8451   20.0989 O   0  0  0  0  0  0
  -30.8168  -20.9285   21.6726 F   0  0  0  0  0  0
  -27.6727  -17.0612   19.3456 F   0  0  0  0  0  0
  -31.4894  -12.8223   19.1833 H   0  0  0  0  0  0
  -30.5039  -11.6172   19.9345 H   0  0  0  0  0  0
  -29.8671  -11.8330   17.5390 H   0  0  0  0  0  0
  -29.6451  -13.5563   17.7166 H   0  0  0  0  0  0
  -27.9118  -11.3312   18.8294 H   0  0  0  0  0  0
  -27.4136  -12.6238   17.7657 H   0  0  0  0  0  0
  -27.6610  -14.2819   19.5387 H   0  0  0  0  0  0
  -28.7833  -12.0073   21.2176 H   0  0  0  0  0  0
  -28.3135  -13.4596   21.9066 H   0  0  0  0  0  0
  -25.2783   -9.5817   22.4723 H   0  0  0  0  0  0
  -24.0043   -7.4755   22.7476 H   0  0  0  0  0  0
  -21.0863   -8.8787   19.8936 H   0  0  0  0  0  0
  -22.3655  -10.9720   19.6136 H   0  0  0  0  0  0
  -21.1933   -7.6127   23.9730 H   0  0  0  0  0  0
  -21.1523   -6.0498   25.9109 H   0  0  0  0  0  0
  -22.0557   -2.7584   23.2817 H   0  0  0  0  0  0
  -22.4189  -11.9968   22.4841 H   0  0  0  0  0  0
  -21.1191  -13.1397   22.2533 H   0  0  0  0  0  0
  -24.6440  -15.8356   20.5237 H   0  0  0  0  0  0
  -26.2159  -15.6210   19.9382 H   0  0  0  0  0  0
  -26.7267  -32.5248   23.1080 H   0  0  0  0  0  0
  -25.0023  -33.9651   25.0323 H   0  0  0  0  0  0
  -22.7518  -31.2976   21.3899 H   0  0  0  0  0  0
  -23.3794  -35.9538   23.3283 H   0  0  0  0  0  0
  -24.3578  -36.8899   22.2067 H   0  0  0  0  0  0
  -23.7205  -37.6419   23.6697 H   0  0  0  0  0  0
  -26.2073  -31.4696   20.6643 H   0  0  0  0  0  0
  -26.8569  -30.7225   22.0874 H   0  0  0  0  0  0
  -28.1084  -28.7745   21.2992 H   0  0  0  0  0  0
  -25.9052  -25.8457   19.0100 H   0  0  0  0  0  0
  -23.9848  -27.3107   18.9720 H   0  0  0  0  0  0
  -23.8181  -30.5802   19.4075 H   0  0  0  0  0  0
  -22.7883  -29.2508   19.8411 H   0  0  0  0  0  0
  -25.1333  -36.1907   25.0834 H   0  0  0  0  0  0
  -21.0029  -28.3342   24.1339 H   0  0  0  0  0  0
  -20.5757  -26.2341   23.3642 H   0  0  0  0  0  0
  -21.6654  -26.7474   22.1158 H   0  0  0  0  0  0
  -19.6931  -25.6279   21.1259 H   0  0  0  0  0  0
  -19.6692  -27.3187   20.6774 H   0  0  0  0  0  0
  -17.4236  -26.6709   21.4009 H   0  0  0  0  0  0
  -18.0301  -26.0058   22.9010 H   0  0  0  0  0  0
  -19.7963  -30.7313   24.2168 H   0  0  0  0  0  0
  -17.5039  -31.6260   24.5174 H   0  0  0  0  0  0
  -15.5367  -30.2973   23.7706 H   0  0  0  0  0  0
  -15.8688  -28.0819   22.7100 H   0  0  0  0  0  0
  -24.5721  -30.7281   25.7791 H   0  0  0  0  0  0
  -24.8857  -32.3075   26.4869 H   0  0  0  0  0  0
  -25.7800  -30.9006   27.0323 H   0  0  0  0  0  0
  -26.3078  -29.6651   24.1482 H   0  0  0  0  0  0
  -27.3748  -29.7306   25.5279 H   0  0  0  0  0  0
  -27.9071  -30.4115   24.0117 H   0  0  0  0  0  0
  -27.2471  -33.3699   26.2154 H   0  0  0  0  0  0
  -28.3753  -32.7029   25.0441 H   0  0  0  0  0  0
  -28.0639  -31.8598   26.5562 H   0  0  0  0  0  0
  -28.2572  -38.0125   24.7541 H   0  0  0  0  0  0
  -28.1119  -36.2670   24.6230 H   0  0  0  0  0  0
  -27.2298  -37.1376   25.8838 H   0  0  0  0  0  0
  -20.9497  -29.8671   21.6666 H   0  0  0  0  0  0
  -26.0176  -38.2841   24.1369 H   0  0  0  0  0  0
  -31.2138  -18.3507   21.8414 H   0  0  0  0  0  0
  -27.3161  -19.6085   19.1414 H   0  0  0  0  0  0
  -28.1104  -17.0842   25.4636 H   0  0  0  0  0  0
  -28.1148  -15.4235   24.8839 H   0  0  0  0  0  0
  -26.9111  -16.5553   24.2973 H   0  0  0  0  0  0
  -29.8909  -17.0765   23.8378 H   0  0  0  0  0  0
  -28.5160  -17.8122   23.0305 H   0  0  0  0  0  0
  -27.9653  -15.5060   22.0815 H   0  0  0  0  0  0
  -29.4412  -14.9205   22.8716 H   0  0  0  0  0  0
  -27.0673  -24.4770   20.8054 H   0  0  0  0  0  0
  -27.5821  -24.4689   19.1530 H   0  0  0  0  0  0
  -29.1923  -23.2450   21.5059 H   0  0  0  0  0  0
  -29.8291  -23.3716   19.8971 H   0  0  0  0  0  0
  1 25  1  0  0  0
  1 30  2  0  0  0
  1 82  1  0  0  0
  2  3  1  0  0  0
  2 25  1  0  0  0
  2 86  1  0  0  0
  2 87  1  0  0  0
  3  4  1  0  0  0
  3 88  1  0  0  0
  3 89  1  0  0  0
  4  5  1  0  0  0
  4 90  1  0  0  0
  4 91  1  0  0  0
  5  6  1  0  0  0
  5 26  1  0  0  0
  5 92  1  0  0  0
  6 25  1  0  0  0
  6 93  1  0  0  0
  6 94  1  0  0  0
  7  8  2  0  0  0
  7 26  1  0  0  0
  7 29  1  0  0  0
  8  9  1  0  0  0
  8 22  1  0  0  0
  9 10  1  0  0  0
  9 27  2  0  0  0
 10 11  2  0  0  0
 10 15  1  0  0  0
 11 12  1  0  0  0
 11 95  1  0  0  0
 12 13  2  0  0  0
 12 96  1  0  0  0
 13 14  1  0  0  0
 13 31  1  0  0  0
 14 15  2  0  0  0
 14 97  1  0  0  0
 15 98  1  0  0  0
 16 17  2  0  0  0
 16 21  1  0  0  0
 16 31  1  0  0  0
 17 18  1  0  0  0
 17 99  1  0  0  0
 18 19  2  0  0  0
 18100  1  0  0  0
 19 20  1  0  0  0
 19 24  1  0  0  0
 20 21  2  0  0  0
 20101  1  0  0  0
 21 23  1  0  0  0
 22 28  1  0  0  0
 22 32  2  0  0  0
 26 27  1  0  0  0
 28102  1  0  0  0
 28103  1  0  0  0
 29104  1  0  0  0
 29105  1  0  0  0
 33 34  1  0  0  0
 33 66  1  0  0  0
 33 70  2  0  0  0
 34 36  1  0  0  0
 34 59  1  0  0  0
 34106  1  0  0  0
 35 44  2  0  0  0
 35 45  1  0  0  0
 35 68  1  0  0  0
 36 56  1  0  0  0
 36107  1  0  0  0
 37 39  1  0  0  0
 37 47  1  0  0  0
 37 66  1  0  0  0
 37108  1  0  0  0
 38 43  2  0  0  0
 38 46  1  0  0  0
 38 47  1  0  0  0
 39 64  1  0  0  0
 39 67  2  0  0  0
 40 52  1  0  0  0
 40 53  2  0  0  0
 40 58  1  0  0  0
 41109  1  0  0  0
 41110  1  0  0  0
 41111  1  0  0  0
 41 48  1  0  0  0
 42 43  1  0  0  0
 42 66  1  0  0  0
 42112  1  0  0  0
 42113  1  0  0  0
 43 44  1  0  0  0
 44114  1  0  0  0
 45 46  2  0  0  0
 45115  1  0  0  0
 46116  1  0  0  0
 47117  1  0  0  0
 47118  1  0  0  0
 48 56  1  0  0  0
 48 65  1  0  0  0
 48119  1  0  0  0
 49 50  1  0  0  0
 49 53  1  0  0  0
 49 64  1  0  0  0
 49120  1  0  0  0
 50 51  1  0  0  0
 50121  1  0  0  0
 50122  1  0  0  0
 51 52  1  0  0  0
 51123  1  0  0  0
 51124  1  0  0  0
 52125  1  0  0  0
 52126  1  0  0  0
 53 54  1  0  0  0
 54 55  2  0  0  0
 54127  1  0  0  0
 55 57  1  0  0  0
 55128  1  0  0  0
 56 69  2  0  0  0
 57 58  2  0  0  0
 57129  1  0  0  0
 58130  1  0  0  0
 59 60  1  0  0  0
 59 61  1  0  0  0
 59 62  1  0  0  0
 60131  1  0  0  0
 60132  1  0  0  0
 60133  1  0  0  0
 61134  1  0  0  0
 61135  1  0  0  0
 61136  1  0  0  0
 62137  1  0  0  0
 62138  1  0  0  0
 62139  1  0  0  0
 63 65  1  0  0  0
 63140  1  0  0  0
 63141  1  0  0  0
 63142  1  0  0  0
 64143  1  0  0  0
 65144  1  0  0  0
 68 80  1  0  0  0
 71 73  2  0  0  0
 71 75  1  0  0  0
 71145  1  0  0  0
 72 74  1  0  0  0
 72 76  2  0  0  0
 72146  1  0  0  0
 73 76  1  0  0  0
 73 82  1  0  0  0
 74 75  2  0  0  0
 74 83  1  0  0  0
 75 84  1  0  0  0
 76 85  1  0  0  0
 77 78  1  0  0  0
 77147  1  0  0  0
 77148  1  0  0  0
 77149  1  0  0  0
 78 79  1  0  0  0
 78150  1  0  0  0
 78151  1  0  0  0
 79 82  1  0  0  0
 79152  1  0  0  0
 79153  1  0  0  0
 80 81  1  0  0  0
 80154  1  0  0  0
 80155  1  0  0  0
 81 83  1  0  0  0
 81156  1  0  0  0
 81157  1  0  0  0
M  ISO  4   1 100  68 101  80 101  82 100
M  END
> <chiral flag>
0

> <version>
0

> <s_m_source_file>
/data/baiqing/PycharmProjects/Reinvent-master-3.2/result/LINK_invent/BTK/process_docking_weight1_custom_sum_contain_oxygen_bond_distance_aromatic_linkinvent_7_9_3/rearranged_h_0015.sdf

> <i_m_source_file_index>
55

> <r_mmod_Potential_Energy-OPLS-2005>
686.595825195312

> <r_mmod_Stretch_Energy-OPLS-2005>
242.871292114258

> <r_mmod_Bend_Energy-OPLS-2005>
295.152435302734

> <r_mmod_Torsional_Energy-OPLS-2005>
313.227783203125

> <r_mmod_Improper_Torsional_Energy-OPLS-2005>
6.07665729522705

> <r_mmod_Van_der_Waal_Energy-OPLS-2005>
144.201049804688

> <r_mmod_Electrostatic_Energy-OPLS-2005>
-315.982208251953

> <r_mmod_Solvation_Energy-OPLS-2005>
-183.74560546875

> <b_mmod_Minimization_Converged-OPLS-2005>
0

> <r_mmod_RMS_Derivative-OPLS-2005>
4.86045169830322

$$$$
56
                    3D
 Structure written by MMmdl.
160168  0  0  1  0            999 V2000
  -30.9934  -13.0273   20.1546 C   0  0  0  0  0  0
  -30.5592  -13.9981   18.4239 C   0  0  0  0  0  0
  -30.0368  -15.6149   19.3054 C   0  0  0  0  0  0
  -27.9465  -15.5091   20.3934 C   0  0  0  0  0  0
  -27.3201  -13.5297   20.3671 C   0  0  2  0  0  0
  -28.4616  -12.2889   19.5575 C   0  0  0  0  0  0
  -24.9928  -13.8831   20.6066 C   0  0  0  0  0  0
  -23.9903  -13.0362   20.8987 C   0  0  0  0  0  0
  -24.5200  -11.7058   20.8607 C   0  0  0  0  0  0
  -23.8729  -10.3936   21.0310 C   0  0  0  0  0  0
  -24.3369   -9.3976   21.9212 C   0  0  0  0  0  0
  -23.6218   -8.1938   22.0857 C   0  0  0  0  0  0
  -22.4108   -7.9876   21.3661 C   0  0  0  0  0  0
  -21.9554   -8.9884   20.4924 C   0  0  0  0  0  0
  -22.6891  -10.1735   20.3179 C   0  0  0  0  0  0
  -21.6718   -6.0397   22.5490 C   0  0  0  0  0  0
  -21.3930   -6.5383   23.8354 C   0  0  0  0  0  0
  -21.3767   -5.6669   24.9387 C   0  0  0  0  0  0
  -21.6125   -4.2868   24.7480 C   0  0  0  0  0  0
  -21.8726   -3.7908   23.4549 C   0  0  0  0  0  0
  -21.9086   -4.6648   22.3582 C   0  0  0  0  0  0
  -22.5995  -13.4965   21.1303 C   0  0  0  0  0  0
  -22.1524   -4.1657   21.1164 F   0  0  0  0  0  0
  -21.5743   -3.4566   25.8051 F   0  0  0  0  0  0
  -30.1150  -12.6791   19.1351 N   0  0  0  0  0  0
  -26.0384  -13.0782   20.4100 N   0  0  0  0  0  0
  -25.7972  -11.7463   20.5709 N   0  0  0  0  0  0
  -21.9068  -12.8237   22.0195 N   0  0  0  0  0  0
  -25.0941  -15.2512   20.5064 N   0  0  0  0  0  0
  -32.0789  -13.6892   20.2108 O   0  0  0  0  0  0
  -21.6471   -6.8465   21.4379 O   0  0  0  0  0  0
  -22.1704  -14.5199   20.5999 O   0  0  0  0  0  0
  -24.6909  -31.8012   23.1661 C   0  0  0  0  0  0
  -25.9463  -32.4444   23.8140 C   0  0  1  0  0  0
  -27.0242  -26.7112   19.9783 C   0  0  0  0  0  0
  -25.6077  -33.8304   24.1989 N   0  0  0  0  0  0
  -23.4990  -30.4287   21.5313 C   0  0  2  0  0  0
  -24.8864  -28.8036   20.0873 C   0  0  0  0  0  0
  -22.7756  -29.4330   22.4749 C   0  0  0  0  0  0
  -18.0320  -28.1426   22.8461 C   0  0  0  0  0  0
  -24.1473  -36.7124   23.2643 C   0  0  0  0  0  0
  -26.0921  -30.4928   21.4494 C   0  0  0  0  0  0
  -26.0960  -29.0931   20.7316 C   0  0  0  0  0  0
  -27.1612  -28.0517   20.6811 C   0  0  0  0  0  0
  -25.7893  -26.6612   19.3178 C   0  0  0  0  0  0
  -24.7590  -27.6106   19.3829 C   0  0  0  0  0  0
  -23.7357  -29.7931   20.1412 C   0  0  0  0  0  0
  -25.4134  -36.2903   24.0270 C   0  0  1  0  0  0
  -20.5954  -28.3769   23.1165 C   0  0  2  0  0  0
  -20.6798  -26.9426   22.5398 C   0  0  0  0  0  0
  -19.5792  -26.6361   21.5218 C   0  0  0  0  0  0
  -18.1964  -26.7948   22.1607 C   0  0  0  0  0  0
  -19.1580  -28.8929   23.2795 C   0  0  0  0  0  0
  -18.9495  -30.1504   23.8839 C   0  0  0  0  0  0
  -17.6493  -30.6603   24.0550 C   0  0  0  0  0  0
  -25.9149  -34.9292   23.4946 C   0  0  0  0  0  0
  -16.5379  -29.9081   23.6360 C   0  0  0  0  0  0
  -16.7298  -28.6511   23.0364 C   0  0  0  0  0  0
  -26.4621  -31.6575   25.0843 C   0  0  0  0  0  0
  -25.3677  -31.3962   26.1453 C   0  0  0  0  0  0
  -27.0592  -30.2893   24.6921 C   0  0  0  0  0  0
  -27.6071  -32.4484   25.7652 C   0  0  0  0  0  0
  -27.5562  -37.1746   24.8463 C   0  0  0  0  0  0
  -21.4416  -29.3039   22.3503 N   0  0  0  0  0  0
  -26.4249  -37.3686   23.9418 N   0  0  0  0  0  0
  -24.7896  -30.9429   22.0988 N   0  0  0  0  0  0
  -23.4211  -28.7814   23.2998 O   0  0  0  0  0  0
  -27.8138  -25.3959   19.8914 O   0  0  0  0  0  0
  -26.5753  -34.8846   22.4542 O   0  0  0  0  0  0
  -23.5957  -32.1109   23.6582 O   0  0  0  0  0  0
  -26.8744  -14.2844   17.8343 C   0  0  0  0  0  0
  -26.0710  -16.6839   17.3473 C   0  0  0  0  0  0
  -25.9464  -15.2440   17.2229 C   0  0  0  0  0  0
  -28.2029  -14.5905   18.3783 C   0  0  0  0  0  0
  -27.1948  -17.3619   17.9437 C   0  0  0  0  0  0
  -28.1732  -16.1558   17.8084 C   0  0  0  0  0  0
  -27.6609  -20.3938   18.4561 C   0  0  0  0  0  0
  -24.8603  -14.7889   16.2751 C   0  0  0  0  0  0
  -25.5499  -19.2708   18.5488 C   0  0  0  0  0  0
  -29.5380  -14.0151   20.7807 C   0  0  0  0  0  0
  -27.2553  -21.9920   19.3083 C   0  0  0  0  0  0
  -27.4444  -23.8695   19.1269 C   0  0  0  0  0  0
  -30.3080  -12.8719   21.1852 N   0  0  0  0  0  0
  -26.9962  -19.0098   18.3938 N   0  0  0  0  0  0
  -28.6971  -20.4504   17.7906 O   0  0  0  0  0  0
  -29.1103  -16.2959   16.3492 Cl  0  0  0  0  0  0
  -31.5801  -14.0759   18.0139 H   0  0  0  0  0  0
  -30.1288  -13.8679   17.4216 H   0  0  0  0  0  0
  -30.2384  -16.5140   18.7116 H   0  0  0  0  0  0
  -30.8322  -15.9008   19.9769 H   0  0  0  0  0  0
  -27.2033  -16.2509   20.0966 H   0  0  0  0  0  0
  -27.9900  -15.9616   21.3873 H   0  0  0  0  0  0
  -27.3584  -13.2300   21.4082 H   0  0  0  0  0  0
  -27.9503  -11.9887   18.6344 H   0  0  0  0  0  0
  -28.4397  -11.3316   20.1167 H   0  0  0  0  0  0
  -25.2528   -9.5395   22.4836 H   0  0  0  0  0  0
  -23.9780   -7.4342   22.7595 H   0  0  0  0  0  0
  -21.0189   -8.8830   19.9709 H   0  0  0  0  0  0
  -22.3416  -10.9397   19.6543 H   0  0  0  0  0  0
  -21.1794   -7.5908   23.9708 H   0  0  0  0  0  0
  -21.1755   -6.0428   25.9253 H   0  0  0  0  0  0
  -22.0325   -2.7303   23.3441 H   0  0  0  0  0  0
  -22.2842  -11.9876   22.4832 H   0  0  0  0  0  0
  -21.0011  -13.1815   22.2909 H   0  0  0  0  0  0
  -24.2644  -15.8256   20.6243 H   0  0  0  0  0  0
  -25.8147  -15.6749   19.9287 H   0  0  0  0  0  0
  -26.7546  -32.4795   23.0842 H   0  0  0  0  0  0
  -25.0256  -33.9393   25.0168 H   0  0  0  0  0  0
  -22.8265  -31.2734   21.3731 H   0  0  0  0  0  0
  -23.3831  -35.9362   23.3183 H   0  0  0  0  0  0
  -24.3550  -36.8934   22.2099 H   0  0  0  0  0  0
  -23.7124  -37.6207   23.6821 H   0  0  0  0  0  0
  -26.3395  -31.2398   20.6855 H   0  0  0  0  0  0
  -26.9260  -30.4920   22.1294 H   0  0  0  0  0  0
  -28.0582  -28.1972   21.2527 H   0  0  0  0  0  0
  -25.5169  -25.8155   18.7293 H   0  0  0  0  0  0
  -23.8393  -27.4041   18.8551 H   0  0  0  0  0  0
  -23.9757  -30.5886   19.4272 H   0  0  0  0  0  0
  -22.8302  -29.3275   19.7643 H   0  0  0  0  0  0
  -25.1339  -36.1659   25.0774 H   0  0  0  0  0  0
  -21.0000  -28.3364   24.1315 H   0  0  0  0  0  0
  -20.5715  -26.2362   23.3644 H   0  0  0  0  0  0
  -21.6653  -26.7423   22.1186 H   0  0  0  0  0  0
  -19.6929  -25.6257   21.1313 H   0  0  0  0  0  0
  -19.6734  -27.3116   20.6725 H   0  0  0  0  0  0
  -17.4220  -26.6693   21.4007 H   0  0  0  0  0  0
  -18.0330  -26.0105   22.9036 H   0  0  0  0  0  0
  -19.7958  -30.7326   24.2177 H   0  0  0  0  0  0
  -17.5035  -31.6273   24.5154 H   0  0  0  0  0  0
  -15.5363  -30.2962   23.7731 H   0  0  0  0  0  0
  -15.8704  -28.0812   22.7119 H   0  0  0  0  0  0
  -24.5862  -30.7277   25.7803 H   0  0  0  0  0  0
  -24.8840  -32.3217   26.4621 H   0  0  0  0  0  0
  -25.7810  -30.9340   27.0412 H   0  0  0  0  0  0
  -26.3303  -29.6363   24.2108 H   0  0  0  0  0  0
  -27.4118  -29.7537   25.5742 H   0  0  0  0  0  0
  -27.9263  -30.3953   24.0385 H   0  0  0  0  0  0
  -27.2622  -33.3912   26.1887 H   0  0  0  0  0  0
  -28.4049  -32.6814   25.0604 H   0  0  0  0  0  0
  -28.0523  -31.8851   26.5858 H   0  0  0  0  0  0
  -28.2507  -38.0117   24.7575 H   0  0  0  0  0  0
  -28.1127  -36.2640   24.6197 H   0  0  0  0  0  0
  -27.2287  -37.1269   25.8868 H   0  0  0  0  0  0
  -20.9647  -29.8864   21.6771 H   0  0  0  0  0  0
  -26.0060  -38.2707   24.1517 H   0  0  0  0  0  0
  -26.4419  -13.3083   18.0154 H   0  0  0  0  0  0
  -25.3020  -17.2859   16.8926 H   0  0  0  0  0  0
  -25.3036  -14.7239   15.2863 H   0  0  0  0  0  0
  -24.0942  -15.5466   16.2255 H   0  0  0  0  0  0
  -24.3862  -13.8287   16.5124 H   0  0  0  0  0  0
  -25.0723  -18.5622   19.1926 H   0  0  0  0  0  0
  -25.0406  -19.2123   17.5782 H   0  0  0  0  0  0
  -25.2755  -20.2517   18.9011 H   0  0  0  0  0  0
  -29.0386  -13.9921   21.7562 H   0  0  0  0  0  0
  -30.0017  -14.8186   21.3667 H   0  0  0  0  0  0
  -27.5664  -21.7905   20.3262 H   0  0  0  0  0  0
  -26.1576  -21.9563   19.4318 H   0  0  0  0  0  0
  -26.4167  -24.0493   18.8638 H   0  0  0  0  0  0
  -27.9386  -23.9811   18.1676 H   0  0  0  0  0  0
  -30.7812  -12.9369   22.0723 H   0  0  0  0  0  0
  1 25  1  0  0  0
  1 30  2  0  0  0
  1 83  1  0  0  0
  2  3  1  0  0  0
  2 25  1  0  0  0
  2 87  1  0  0  0
  2 88  1  0  0  0
  3  4  1  0  0  0
  3 89  1  0  0  0
  3 90  1  0  0  0
  4  5  1  0  0  0
  4 91  1  0  0  0
  4 92  1  0  0  0
  5  6  1  0  0  0
  5 26  1  0  0  0
  5 93  1  0  0  0
  6 25  1  0  0  0
  6 94  1  0  0  0
  6 95  1  0  0  0
  7  8  2  0  0  0
  7 26  1  0  0  0
  7 29  1  0  0  0
  8  9  1  0  0  0
  8 22  1  0  0  0
  9 10  1  0  0  0
  9 27  2  0  0  0
 10 11  2  0  0  0
 10 15  1  0  0  0
 11 12  1  0  0  0
 11 96  1  0  0  0
 12 13  2  0  0  0
 12 97  1  0  0  0
 13 14  1  0  0  0
 13 31  1  0  0  0
 14 15  2  0  0  0
 14 98  1  0  0  0
 15 99  1  0  0  0
 16 17  2  0  0  0
 16 21  1  0  0  0
 16 31  1  0  0  0
 17 18  1  0  0  0
 17100  1  0  0  0
 18 19  2  0  0  0
 18101  1  0  0  0
 19 20  1  0  0  0
 19 24  1  0  0  0
 20 21  2  0  0  0
 20102  1  0  0  0
 21 23  1  0  0  0
 22 28  1  0  0  0
 22 32  2  0  0  0
 26 27  1  0  0  0
 28103  1  0  0  0
 28104  1  0  0  0
 29105  1  0  0  0
 29106  1  0  0  0
 33 34  1  0  0  0
 33 66  1  0  0  0
 33 70  2  0  0  0
 34 36  1  0  0  0
 34 59  1  0  0  0
 34107  1  0  0  0
 35 44  2  0  0  0
 35 45  1  0  0  0
 35 68  1  0  0  0
 36 56  1  0  0  0
 36108  1  0  0  0
 37 39  1  0  0  0
 37 47  1  0  0  0
 37 66  1  0  0  0
 37109  1  0  0  0
 38 43  2  0  0  0
 38 46  1  0  0  0
 38 47  1  0  0  0
 39 64  1  0  0  0
 39 67  2  0  0  0
 40 52  1  0  0  0
 40 53  2  0  0  0
 40 58  1  0  0  0
 41110  1  0  0  0
 41111  1  0  0  0
 41112  1  0  0  0
 41 48  1  0  0  0
 42 43  1  0  0  0
 42 66  1  0  0  0
 42113  1  0  0  0
 42114  1  0  0  0
 43 44  1  0  0  0
 44115  1  0  0  0
 45 46  2  0  0  0
 45116  1  0  0  0
 46117  1  0  0  0
 47118  1  0  0  0
 47119  1  0  0  0
 48 56  1  0  0  0
 48 65  1  0  0  0
 48120  1  0  0  0
 49 50  1  0  0  0
 49 53  1  0  0  0
 49 64  1  0  0  0
 49121  1  0  0  0
 50 51  1  0  0  0
 50122  1  0  0  0
 50123  1  0  0  0
 51 52  1  0  0  0
 51124  1  0  0  0
 51125  1  0  0  0
 52126  1  0  0  0
 52127  1  0  0  0
 53 54  1  0  0  0
 54 55  2  0  0  0
 54128  1  0  0  0
 55 57  1  0  0  0
 55129  1  0  0  0
 56 69  2  0  0  0
 57 58  2  0  0  0
 57130  1  0  0  0
 58131  1  0  0  0
 59 60  1  0  0  0
 59 61  1  0  0  0
 59 62  1  0  0  0
 60132  1  0  0  0
 60133  1  0  0  0
 60134  1  0  0  0
 61135  1  0  0  0
 61136  1  0  0  0
 61137  1  0  0  0
 62138  1  0  0  0
 62139  1  0  0  0
 62140  1  0  0  0
 63 65  1  0  0  0
 63141  1  0  0  0
 63142  1  0  0  0
 63143  1  0  0  0
 64144  1  0  0  0
 65145  1  0  0  0
 68 82  1  0  0  0
 71 73  2  0  0  0
 71 74  1  0  0  0
 71146  1  0  0  0
 72 73  1  0  0  0
 72 75  2  0  0  0
 72147  1  0  0  0
 73 78  1  0  0  0
 74 76  2  0  0  0
 74 80  1  0  0  0
 75 76  1  0  0  0
 75 84  1  0  0  0
 76 86  1  0  0  0
 77 81  1  0  0  0
 77 84  1  0  0  0
 77 85  2  0  0  0
 78148  1  0  0  0
 78149  1  0  0  0
 78150  1  0  0  0
 79 84  1  0  0  0
 79151  1  0  0  0
 79152  1  0  0  0
 79153  1  0  0  0
 80 83  1  0  0  0
 80154  1  0  0  0
 80155  1  0  0  0
 81 82  1  0  0  0
 81156  1  0  0  0
 81157  1  0  0  0
 82158  1  0  0  0
 82159  1  0  0  0
 83160  1  0  0  0
M  ISO  4   1 100  68 101  82 101  83 100
M  END
> <chiral flag>
0

> <version>
0

> <s_m_source_file>
/data/baiqing/PycharmProjects/Reinvent-master-3.2/result/LINK_invent/BTK/process_docking_weight1_custom_sum_contain_oxygen_bond_distance_aromatic_linkinvent_7_9_3/rearranged_h_0015.sdf

> <i_m_source_file_index>
56

> <r_mmod_Potential_Energy-OPLS-2005>
12309.9638671875

> <r_mmod_Stretch_Energy-OPLS-2005>
4873.5908203125

> <r_mmod_Bend_Energy-OPLS-2005>
1194.13781738281

> <r_mmod_Torsional_Energy-OPLS-2005>
626.598754882812

> <r_mmod_Improper_Torsional_Energy-OPLS-2005>
48.4160804748535

> <r_mmod_Van_der_Waal_Energy-OPLS-2005>
2128.57690429688

> <r_mmod_Electrostatic_Energy-OPLS-2005>
-410.023956298828

> <r_mmod_Solvation_Energy-OPLS-2005>
-240.302001953125

> <b_mmod_Minimization_Converged-OPLS-2005>
0

> <r_mmod_RMS_Derivative-OPLS-2005>
48.8579940795898

$$$$
57
                    3D
 Structure written by MMmdl.
155163  0  0  1  0            999 V2000
  -30.6737  -14.4819   20.5419 C   0  0  0  0  0  0
  -30.4334  -12.2965   19.4271 C   0  0  0  0  0  0
  -29.5003  -12.4669   18.2087 C   0  0  0  0  0  0
  -28.0168  -12.3540   18.6192 C   0  0  0  0  0  0
  -27.6640  -13.1916   19.8778 C   0  0  2  0  0  0
  -28.7075  -12.9704   20.9953 C   0  0  0  0  0  0
  -25.2613  -13.8120   20.5685 C   0  0  0  0  0  0
  -24.1845  -13.0418   20.9169 C   0  0  0  0  0  0
  -24.6377  -11.6879   20.8740 C   0  0  0  0  0  0
  -23.9041  -10.4276   21.0412 C   0  0  0  0  0  0
  -24.3600   -9.4194   21.9188 C   0  0  0  0  0  0
  -23.6277   -8.2233   22.0754 C   0  0  0  0  0  0
  -22.4260   -8.0273   21.3546 C   0  0  0  0  0  0
  -21.9891   -9.0244   20.4648 C   0  0  0  0  0  0
  -22.7220  -10.2123   20.3057 C   0  0  0  0  0  0
  -21.6846   -6.0725   22.5282 C   0  0  0  0  0  0
  -21.4006   -6.5632   23.8215 C   0  0  0  0  0  0
  -21.3657   -5.6786   24.9180 C   0  0  0  0  0  0
  -21.6045   -4.3050   24.7233 C   0  0  0  0  0  0
  -21.8820   -3.8139   23.4354 C   0  0  0  0  0  0
  -21.9189   -4.6954   22.3405 C   0  0  0  0  0  0
  -22.7871  -13.5235   21.1831 C   0  0  0  0  0  0
  -22.1659   -4.2140   21.0985 F   0  0  0  0  0  0
  -21.5633   -3.4535   25.7744 F   0  0  0  0  0  0
  -30.0370  -13.2838   20.4417 N   0  0  0  0  0  0
  -26.3035  -12.9257   20.3389 N   0  0  0  0  0  0
  -25.9300  -11.6434   20.5787 N   0  0  0  0  0  0
  -22.0497  -12.8243   22.0391 N   0  0  0  0  0  0
  -25.4362  -15.1841   20.4121 N   0  0  0  0  0  0
  -31.8097  -14.6818   20.0997 O   0  0  0  0  0  0
  -21.6628   -6.8868   21.4244 O   0  0  0  0  0  0
  -22.3569  -14.5546   20.6679 O   0  0  0  0  0  0
  -24.6139  -31.8692   23.2102 C   0  0  0  0  0  0
  -25.9035  -32.4832   23.8398 C   0  0  1  0  0  0
  -27.2373  -27.4338   20.0937 C   0  0  0  0  0  0
  -25.5898  -33.8629   24.2338 N   0  0  0  0  0  0
  -23.4021  -30.4926   21.5503 C   0  0  2  0  0  0
  -24.8486  -28.9592   20.1145 C   0  0  0  0  0  0
  -22.7410  -29.4662   22.4984 C   0  0  0  0  0  0
  -18.0277  -28.1379   22.8489 C   0  0  0  0  0  0
  -24.1487  -36.7306   23.2636 C   0  0  0  0  0  0
  -25.9309  -30.8339   21.3638 C   0  0  0  0  0  0
  -26.0080  -29.4678   20.7118 C   0  0  0  0  0  0
  -27.2025  -28.7116   20.6997 C   0  0  0  0  0  0
  -26.0561  -26.9431   19.4867 C   0  0  0  0  0  0
  -24.8676  -27.6964   19.4998 C   0  0  0  0  0  0
  -23.6106  -29.8254   20.1645 C   0  0  0  0  0  0
  -25.4108  -36.3117   24.0340 C   0  0  1  0  0  0
  -20.5867  -28.3669   23.1319 C   0  0  2  0  0  0
  -20.6770  -26.9406   22.5417 C   0  0  0  0  0  0
  -19.5751  -26.6389   21.5208 C   0  0  0  0  0  0
  -18.1926  -26.7929   22.1614 C   0  0  0  0  0  0
  -19.1524  -28.8839   23.2905 C   0  0  0  0  0  0
  -18.9452  -30.1440   23.8923 C   0  0  0  0  0  0
  -17.6454  -30.6584   24.0566 C   0  0  0  0  0  0
  -25.9034  -34.9481   23.5136 C   0  0  0  0  0  0
  -16.5348  -29.9086   23.6322 C   0  0  0  0  0  0
  -16.7264  -28.6501   23.0349 C   0  0  0  0  0  0
  -26.4467  -31.6604   25.0718 C   0  0  0  0  0  0
  -25.3727  -31.3703   26.1459 C   0  0  0  0  0  0
  -27.0296  -30.3053   24.6076 C   0  0  0  0  0  0
  -27.6063  -32.4304   25.7468 C   0  0  0  0  0  0
  -27.5583  -37.1810   24.8466 C   0  0  0  0  0  0
  -21.4138  -29.3036   22.3722 N   0  0  0  0  0  0
  -26.4297  -37.3798   23.9407 N   0  0  0  0  0  0
  -24.6672  -31.0795   22.0999 N   0  0  0  0  0  0
  -23.4184  -28.8198   23.3019 O   0  0  0  0  0  0
  -28.4186  -26.7148   20.1183 O   0  0  0  0  0  0
  -26.5592  -34.8930   22.4694 O   0  0  0  0  0  0
  -23.5333  -32.1442   23.7498 O   0  0  0  0  0  0
  -30.4488  -19.1780   21.4084 C   0  0  0  0  0  0
  -30.4513  -17.7865   21.6633 C   0  0  0  0  0  0
  -29.5422  -18.7554   19.1973 C   0  0  0  0  0  0
  -29.5342  -17.3663   19.4439 C   0  0  0  0  0  0
  -29.9797  -19.6748   20.1690 C   0  0  0  0  0  0
  -30.0014  -16.8655   20.6893 C   0  0  0  0  0  0
  -29.8905  -22.1822   20.6112 C   0  0  0  0  0  0
  -28.9805  -16.4677   18.3529 C   0  0  0  0  0  0
  -28.3637  -25.3085   19.8333 C   0  0  0  0  0  0
  -29.6322  -24.5835   20.3254 C   0  0  0  0  0  0
  -29.9124  -15.4815   21.0281 N   0  0  0  0  0  0
  -29.9294  -21.0530   19.8081 N   0  0  0  0  0  0
  -30.0262  -22.2320   21.8346 O   0  0  0  0  0  0
  -29.6837  -23.2489   19.8107 O   0  0  0  0  0  0
  -31.4767  -12.4042   19.1243 H   0  0  0  0  0  0
  -30.3458  -11.2898   19.8382 H   0  0  0  0  0  0
  -29.7311  -11.7111   17.4564 H   0  0  0  0  0  0
  -29.6837  -13.4261   17.7288 H   0  0  0  0  0  0
  -27.8117  -11.3006   18.8125 H   0  0  0  0  0  0
  -27.3744  -12.6375   17.7848 H   0  0  0  0  0  0
  -27.7061  -14.2365   19.5855 H   0  0  0  0  0  0
  -28.6873  -11.9322   21.3284 H   0  0  0  0  0  0
  -28.4720  -13.5620   21.8809 H   0  0  0  0  0  0
  -25.2745   -9.5669   22.4765 H   0  0  0  0  0  0
  -23.9987   -7.4617   22.7465 H   0  0  0  0  0  0
  -21.0825   -8.8763   19.8950 H   0  0  0  0  0  0
  -22.3682  -10.9663   19.6166 H   0  0  0  0  0  0
  -21.1992   -7.6136   23.9715 H   0  0  0  0  0  0
  -21.1480   -6.0518   25.9083 H   0  0  0  0  0  0
  -22.0601   -2.7601   23.2861 H   0  0  0  0  0  0
  -22.4085  -11.9906   22.4801 H   0  0  0  0  0  0
  -21.1116  -13.1293   22.2569 H   0  0  0  0  0  0
  -24.6748  -15.8429   20.5336 H   0  0  0  0  0  0
  -26.2971  -15.6271   20.1187 H   0  0  0  0  0  0
  -26.7106  -32.5550   23.1165 H   0  0  0  0  0  0
  -25.0076  -33.9802   25.0502 H   0  0  0  0  0  0
  -22.6902  -31.3088   21.4114 H   0  0  0  0  0  0
  -23.3755  -35.9632   23.3314 H   0  0  0  0  0  0
  -24.3581  -36.8901   22.2047 H   0  0  0  0  0  0
  -23.7236  -37.6513   23.6639 H   0  0  0  0  0  0
  -26.0417  -31.5989   20.5942 H   0  0  0  0  0  0
  -26.8198  -30.8906   21.9801 H   0  0  0  0  0  0
  -28.0968  -29.1004   21.1668 H   0  0  0  0  0  0
  -26.0305  -25.9826   18.9934 H   0  0  0  0  0  0
  -23.9769  -27.3007   19.0314 H   0  0  0  0  0  0
  -23.7193  -30.5997   19.4039 H   0  0  0  0  0  0
  -22.7349  -29.2445   19.8690 H   0  0  0  0  0  0
  -25.1284  -36.1990   25.0834 H   0  0  0  0  0  0
  -20.9960  -28.3237   24.1439 H   0  0  0  0  0  0
  -20.5673  -26.2274   23.3601 H   0  0  0  0  0  0
  -21.6645  -26.7457   22.1213 H   0  0  0  0  0  0
  -19.6915  -25.6304   21.1227 H   0  0  0  0  0  0
  -19.6691  -27.3205   20.6743 H   0  0  0  0  0  0
  -17.4200  -26.6683   21.4010 H   0  0  0  0  0  0
  -18.0322  -26.0067   22.9003 H   0  0  0  0  0  0
  -19.7927  -30.7243   24.2315 H   0  0  0  0  0  0
  -17.5012  -31.6270   24.5158 H   0  0  0  0  0  0
  -15.5350  -30.2996   23.7634 H   0  0  0  0  0  0
  -15.8663  -28.0820   22.7064 H   0  0  0  0  0  0
  -24.5903  -30.7057   25.7778 H   0  0  0  0  0  0
  -24.8910  -32.2856   26.4910 H   0  0  0  0  0  0
  -25.8066  -30.8857   27.0214 H   0  0  0  0  0  0
  -26.2835  -29.6814   24.1141 H   0  0  0  0  0  0
  -27.4097  -29.7290   25.4522 H   0  0  0  0  0  0
  -27.8654  -30.4389   23.9204 H   0  0  0  0  0  0
  -27.2719  -33.3605   26.2074 H   0  0  0  0  0  0
  -28.3852  -32.6854   25.0268 H   0  0  0  0  0  0
  -28.0751  -31.8398   26.5350 H   0  0  0  0  0  0
  -28.2616  -38.0094   24.7515 H   0  0  0  0  0  0
  -28.1067  -36.2632   24.6293 H   0  0  0  0  0  0
  -27.2303  -37.1467   25.8870 H   0  0  0  0  0  0
  -20.9294  -29.8755   21.6944 H   0  0  0  0  0  0
  -26.0191  -38.2879   24.1403 H   0  0  0  0  0  0
  -30.8068  -19.8458   22.1783 H   0  0  0  0  0  0
  -30.7917  -17.4302   22.6254 H   0  0  0  0  0  0
  -29.1770  -19.1222   18.2480 H   0  0  0  0  0  0
  -28.9769  -16.9781   17.3898 H   0  0  0  0  0  0
  -27.9514  -16.1911   18.5756 H   0  0  0  0  0  0
  -29.5801  -15.5707   18.2297 H   0  0  0  0  0  0
  -27.5015  -24.8421   20.3127 H   0  0  0  0  0  0
  -28.2581  -25.1735   18.7558 H   0  0  0  0  0  0
  -29.6663  -24.6100   21.4149 H   0  0  0  0  0  0
  -30.5181  -25.1106   19.9717 H   0  0  0  0  0  0
  -29.0352  -15.1837   21.4272 H   0  0  0  0  0  0
  -29.7764  -21.2589   18.8304 H   0  0  0  0  0  0
  1 25  1  0  0  0
  1 30  2  0  0  0
  1 81  1  0  0  0
  2  3  1  0  0  0
  2 25  1  0  0  0
  2 85  1  0  0  0
  2 86  1  0  0  0
  3  4  1  0  0  0
  3 87  1  0  0  0
  3 88  1  0  0  0
  4  5  1  0  0  0
  4 89  1  0  0  0
  4 90  1  0  0  0
  5  6  1  0  0  0
  5 26  1  0  0  0
  5 91  1  0  0  0
  6 25  1  0  0  0
  6 92  1  0  0  0
  6 93  1  0  0  0
  7  8  2  0  0  0
  7 26  1  0  0  0
  7 29  1  0  0  0
  8  9  1  0  0  0
  8 22  1  0  0  0
  9 10  1  0  0  0
  9 27  2  0  0  0
 10 11  2  0  0  0
 10 15  1  0  0  0
 11 12  1  0  0  0
 11 94  1  0  0  0
 12 13  2  0  0  0
 12 95  1  0  0  0
 13 14  1  0  0  0
 13 31  1  0  0  0
 14 15  2  0  0  0
 14 96  1  0  0  0
 15 97  1  0  0  0
 16 17  2  0  0  0
 16 21  1  0  0  0
 16 31  1  0  0  0
 17 18  1  0  0  0
 17 98  1  0  0  0
 18 19  2  0  0  0
 18 99  1  0  0  0
 19 20  1  0  0  0
 19 24  1  0  0  0
 20 21  2  0  0  0
 20100  1  0  0  0
 21 23  1  0  0  0
 22 28  1  0  0  0
 22 32  2  0  0  0
 26 27  1  0  0  0
 28101  1  0  0  0
 28102  1  0  0  0
 29103  1  0  0  0
 29104  1  0  0  0
 33 34  1  0  0  0
 33 66  1  0  0  0
 33 70  2  0  0  0
 34 36  1  0  0  0
 34 59  1  0  0  0
 34105  1  0  0  0
 35 44  2  0  0  0
 35 45  1  0  0  0
 35 68  1  0  0  0
 36 56  1  0  0  0
 36106  1  0  0  0
 37 39  1  0  0  0
 37 47  1  0  0  0
 37 66  1  0  0  0
 37107  1  0  0  0
 38 43  2  0  0  0
 38 46  1  0  0  0
 38 47  1  0  0  0
 39 64  1  0  0  0
 39 67  2  0  0  0
 40 52  1  0  0  0
 40 53  2  0  0  0
 40 58  1  0  0  0
 41108  1  0  0  0
 41109  1  0  0  0
 41110  1  0  0  0
 41 48  1  0  0  0
 42 43  1  0  0  0
 42 66  1  0  0  0
 42111  1  0  0  0
 42112  1  0  0  0
 43 44  1  0  0  0
 44113  1  0  0  0
 45 46  2  0  0  0
 45114  1  0  0  0
 46115  1  0  0  0
 47116  1  0  0  0
 47117  1  0  0  0
 48 56  1  0  0  0
 48 65  1  0  0  0
 48118  1  0  0  0
 49 50  1  0  0  0
 49 53  1  0  0  0
 49 64  1  0  0  0
 49119  1  0  0  0
 50 51  1  0  0  0
 50120  1  0  0  0
 50121  1  0  0  0
 51 52  1  0  0  0
 51122  1  0  0  0
 51123  1  0  0  0
 52124  1  0  0  0
 52125  1  0  0  0
 53 54  1  0  0  0
 54 55  2  0  0  0
 54126  1  0  0  0
 55 57  1  0  0  0
 55127  1  0  0  0
 56 69  2  0  0  0
 57 58  2  0  0  0
 57128  1  0  0  0
 58129  1  0  0  0
 59 60  1  0  0  0
 59 61  1  0  0  0
 59 62  1  0  0  0
 60130  1  0  0  0
 60131  1  0  0  0
 60132  1  0  0  0
 61133  1  0  0  0
 61134  1  0  0  0
 61135  1  0  0  0
 62136  1  0  0  0
 62137  1  0  0  0
 62138  1  0  0  0
 63 65  1  0  0  0
 63139  1  0  0  0
 63140  1  0  0  0
 63141  1  0  0  0
 64142  1  0  0  0
 65143  1  0  0  0
 68 79  1  0  0  0
 71 72  2  0  0  0
 71 75  1  0  0  0
 71144  1  0  0  0
 72 76  1  0  0  0
 72145  1  0  0  0
 73 74  1  0  0  0
 73 75  2  0  0  0
 73146  1  0  0  0
 74 76  2  0  0  0
 74 78  1  0  0  0
 75 82  1  0  0  0
 76 81  1  0  0  0
 77 82  1  0  0  0
 77 83  2  0  0  0
 77 84  1  0  0  0
 78147  1  0  0  0
 78148  1  0  0  0
 78149  1  0  0  0
 79 80  1  0  0  0
 79150  1  0  0  0
 79151  1  0  0  0
 80 84  1  0  0  0
 80152  1  0  0  0
 80153  1  0  0  0
 81154  1  0  0  0
 82155  1  0  0  0
M  ISO  4   1 100  68 101  79 101  81 100
M  END
> <chiral flag>
0

> <version>
0

> <s_m_source_file>
/data/baiqing/PycharmProjects/Reinvent-master-3.2/result/LINK_invent/BTK/process_docking_weight1_custom_sum_contain_oxygen_bond_distance_aromatic_linkinvent_7_9_3/rearranged_h_0015.sdf

> <i_m_source_file_index>
57

> <r_mmod_Potential_Energy-OPLS-2005>
-154.858169555664

> <r_mmod_Stretch_Energy-OPLS-2005>
36.6894989013672

> <r_mmod_Bend_Energy-OPLS-2005>
104.543869018555

> <r_mmod_Torsional_Energy-OPLS-2005>
244.334518432617

> <r_mmod_Improper_Torsional_Energy-OPLS-2005>
4.90551710128784

> <r_mmod_Van_der_Waal_Energy-OPLS-2005>
154.254211425781

> <r_mmod_Electrostatic_Energy-OPLS-2005>
-488.174194335938

> <r_mmod_Solvation_Energy-OPLS-2005>
-225.604507446289

> <b_mmod_Minimization_Converged-OPLS-2005>
0

> <r_mmod_RMS_Derivative-OPLS-2005>
0.926315128803253

$$$$
58
                    3D
 Structure written by MMmdl.
183191  0  0  1  0            999 V2000
  -30.6865  -14.4864   20.5859 C   0  0  0  0  0  0
  -30.4345  -12.3365   19.3827 C   0  0  0  0  0  0
  -29.5264  -12.5182   18.1433 C   0  0  0  0  0  0
  -28.0390  -12.8119   18.4645 C   0  0  0  0  0  0
  -27.7083  -12.7168   19.9559 C   0  0  2  0  0  0
  -28.7570  -12.9583   21.0487 C   0  0  0  0  0  0
  -25.3219  -13.7488   20.5495 C   0  0  0  0  0  0
  -24.1968  -13.0419   20.9106 C   0  0  0  0  0  0
  -24.5757  -11.6741   20.8925 C   0  0  0  0  0  0
  -23.8462  -10.4290   21.0624 C   0  0  0  0  0  0
  -24.3209   -9.4164   21.9284 C   0  0  0  0  0  0
  -23.6039   -8.2139   22.0711 C   0  0  0  0  0  0
  -22.4065   -8.0152   21.3413 C   0  0  0  0  0  0
  -21.9599   -9.0184   20.4579 C   0  0  0  0  0  0
  -22.6799  -10.2156   20.3145 C   0  0  0  0  0  0
  -21.6763   -6.0649   22.5232 C   0  0  0  0  0  0
  -21.3938   -6.5587   23.8155 C   0  0  0  0  0  0
  -21.3624   -5.6745   24.9099 C   0  0  0  0  0  0
  -21.6038   -4.2990   24.7142 C   0  0  0  0  0  0
  -21.8848   -3.8099   23.4261 C   0  0  0  0  0  0
  -21.9204   -4.6925   22.3328 C   0  0  0  0  0  0
  -22.8105  -13.5628   21.1716 C   0  0  0  0  0  0
  -22.1771   -4.2161   21.0899 F   0  0  0  0  0  0
  -21.5611   -3.4473   25.7629 F   0  0  0  0  0  0
  -30.0489  -13.3016   20.4183 N   0  0  0  0  0  0
  -26.3113  -12.7728   20.3554 N   0  0  0  0  0  0
  -25.8406  -11.5491   20.6221 N   0  0  0  0  0  0
  -22.0611  -12.8816   22.0376 N   0  0  0  0  0  0
  -25.5659  -15.1086   20.3657 N   0  0  0  0  0  0
  -31.7942  -14.7512   20.1023 O   0  0  0  0  0  0
  -21.6449   -6.8763   21.4164 O   0  0  0  0  0  0
  -22.4015  -14.5934   20.6431 O   0  0  0  0  0  0
  -24.6089  -31.8749   23.2187 C   0  0  0  0  0  0
  -25.9000  -32.4864   23.8466 C   0  0  1  0  0  0
  -27.2134  -27.4834   20.1049 C   0  0  0  0  0  0
  -25.5876  -33.8662   24.2391 N   0  0  0  0  0  0
  -23.3927  -30.5039   21.5582 C   0  0  2  0  0  0
  -24.8335  -28.9737   20.1234 C   0  0  0  0  0  0
  -22.7383  -29.4699   22.5018 C   0  0  0  0  0  0
  -18.0267  -28.1392   22.8489 C   0  0  0  0  0  0
  -24.1485  -36.7353   23.2631 C   0  0  0  0  0  0
  -25.9164  -30.8583   21.3604 C   0  0  0  0  0  0
  -25.9915  -29.4935   20.7153 C   0  0  0  0  0  0
  -27.1900  -28.7562   20.7042 C   0  0  0  0  0  0
  -26.0431  -26.9521   19.5289 C   0  0  0  0  0  0
  -24.8491  -27.6986   19.5305 C   0  0  0  0  0  0
  -23.5999  -29.8455   20.1684 C   0  0  0  0  0  0
  -25.4094  -36.3150   24.0349 C   0  0  1  0  0  0
  -20.5858  -28.3665   23.1344 C   0  0  2  0  0  0
  -20.6773  -26.9408   22.5436 C   0  0  0  0  0  0
  -19.5749  -26.6399   21.5227 C   0  0  0  0  0  0
  -18.1921  -26.7943   22.1625 C   0  0  0  0  0  0
  -19.1516  -28.8836   23.2928 C   0  0  0  0  0  0
  -18.9445  -30.1446   23.8931 C   0  0  0  0  0  0
  -17.6448  -30.6591   24.0573 C   0  0  0  0  0  0
  -25.9011  -34.9500   23.5161 C   0  0  0  0  0  0
  -16.5340  -29.9101   23.6319 C   0  0  0  0  0  0
  -16.7258  -28.6529   23.0321 C   0  0  0  0  0  0
  -26.4441  -31.6614   25.0760 C   0  0  0  0  0  0
  -25.3729  -31.3690   26.1523 C   0  0  0  0  0  0
  -27.0230  -30.3064   24.6065 C   0  0  0  0  0  0
  -27.6055  -32.4305   25.7494 C   0  0  0  0  0  0
  -27.5596  -37.1825   24.8451 C   0  0  0  0  0  0
  -21.4121  -29.3028   22.3739 N   0  0  0  0  0  0
  -26.4293  -37.3829   23.9413 N   0  0  0  0  0  0
  -24.6583  -31.0911   22.1059 N   0  0  0  0  0  0
  -23.4182  -28.8235   23.3033 O   0  0  0  0  0  0
  -28.3684  -26.7616   20.0451 O   0  0  0  0  0  0
  -26.5584  -34.8936   22.4731 O   0  0  0  0  0  0
  -23.5301  -32.1452   23.7638 O   0  0  0  0  0  0
  -29.2018  -17.4925   20.2230 C   0  0  0  0  0  0
  -29.1857  -16.9714   22.7829 C   0  0  0  0  0  0
  -28.4599  -18.7979   20.5719 C   0  0  0  0  0  0
  -28.4138  -18.2778   23.0003 C   0  0  0  0  0  0
  -29.9246  -16.8112   21.4239 C   0  0  1  0  0  0
  -27.5265  -18.5993   21.7832 C   0  0  1  0  0  0
  -23.3448  -17.8904   23.3982 C   0  0  0  0  0  0
  -24.5476  -18.1423   22.4709 C   0  0  0  0  0  0
  -27.8882  -23.4978   19.4504 C   0  0  0  0  0  0
  -28.8285  -23.5976   18.2365 C   0  0  0  0  0  0
  -27.7713  -22.0972   20.0722 C   0  0  0  0  0  0
  -28.9285  -25.0333   17.6742 C   0  0  0  0  0  0
  -26.9503  -22.1565   21.3820 C   0  0  0  0  0  0
  -29.9161  -25.9708   18.4133 C   0  0  0  0  0  0
  -25.3768  -19.3891   22.8716 C   0  0  0  0  0  0
  -27.1889  -21.0106   22.3828 C   0  0  0  0  0  0
  -29.2370  -27.2056   19.0159 C   0  0  0  0  0  0
  -29.9026  -15.3675   21.2101 N   0  0  0  0  0  0
  -26.5489  -19.7207   21.9914 N   0  3  1  0  0  0
  -31.4888  -12.4322   19.1099 H   0  0  0  0  0  0
  -30.3180  -11.3232   19.7655 H   0  0  0  0  0  0
  -29.6041  -11.6237   17.5189 H   0  0  0  0  0  0
  -29.9059  -13.3363   17.5228 H   0  0  0  0  0  0
  -27.3919  -12.1456   17.8859 H   0  0  0  0  0  0
  -27.7851  -13.8181   18.1326 H   0  0  0  0  0  0
  -27.9020  -11.6393   19.9232 H   0  0  0  0  0  0
  -28.9208  -12.0380   21.6144 H   0  0  0  0  0  0
  -28.3690  -13.6363   21.8106 H   0  0  0  0  0  0
  -25.2398   -9.5691   22.4788 H   0  0  0  0  0  0
  -23.9812   -7.4492   22.7356 H   0  0  0  0  0  0
  -21.0580   -8.8676   19.8776 H   0  0  0  0  0  0
  -22.3283  -10.9742   19.6291 H   0  0  0  0  0  0
  -21.1891   -7.6087   23.9696 H   0  0  0  0  0  0
  -21.1456   -6.0386   25.9015 H   0  0  0  0  0  0
  -22.0673   -2.7588   23.2689 H   0  0  0  0  0  0
  -22.4105  -12.0492   22.4939 H   0  0  0  0  0  0
  -21.1279  -13.2032   22.2498 H   0  0  0  0  0  0
  -24.7946  -15.7611   20.3078 H   0  0  0  0  0  0
  -26.4121  -15.4564   19.9366 H   0  0  0  0  0  0
  -26.7079  -32.5594   23.1252 H   0  0  0  0  0  0
  -25.0011  -33.9843   25.0523 H   0  0  0  0  0  0
  -22.6780  -31.3193   21.4283 H   0  0  0  0  0  0
  -23.3743  -35.9697   23.3303 H   0  0  0  0  0  0
  -24.3587  -36.8953   22.2048 H   0  0  0  0  0  0
  -23.7240  -37.6567   23.6622 H   0  0  0  0  0  0
  -26.0131  -31.6229   20.5884 H   0  0  0  0  0  0
  -26.8120  -30.9205   21.9675 H   0  0  0  0  0  0
  -28.0912  -29.1561   21.1488 H   0  0  0  0  0  0
  -26.0541  -25.9734   19.0746 H   0  0  0  0  0  0
  -23.9547  -27.2908   19.0817 H   0  0  0  0  0  0
  -23.7239  -30.6294   19.4207 H   0  0  0  0  0  0
  -22.7197  -29.2811   19.8586 H   0  0  0  0  0  0
  -25.1264  -36.2043   25.0846 H   0  0  0  0  0  0
  -20.9956  -28.3236   24.1463 H   0  0  0  0  0  0
  -20.5700  -26.2267   23.3612 H   0  0  0  0  0  0
  -21.6644  -26.7472   22.1210 H   0  0  0  0  0  0
  -19.6916  -25.6313   21.1238 H   0  0  0  0  0  0
  -19.6706  -27.3230   20.6774 H   0  0  0  0  0  0
  -17.4208  -26.6706   21.4015 H   0  0  0  0  0  0
  -18.0305  -26.0078   22.9009 H   0  0  0  0  0  0
  -19.7909  -30.7263   24.2326 H   0  0  0  0  0  0
  -17.4988  -31.6266   24.5183 H   0  0  0  0  0  0
  -15.5340  -30.3015   23.7603 H   0  0  0  0  0  0
  -15.8667  -28.0867   22.6991 H   0  0  0  0  0  0
  -24.5941  -30.6975   25.7883 H   0  0  0  0  0  0
  -24.8855  -32.2819   26.4965 H   0  0  0  0  0  0
  -25.8114  -30.8898   27.0287 H   0  0  0  0  0  0
  -26.2736  -29.6881   24.1105 H   0  0  0  0  0  0
  -27.4000  -29.7244   25.4488 H   0  0  0  0  0  0
  -27.8583  -30.4404   23.9185 H   0  0  0  0  0  0
  -27.2717  -33.3616   26.2093 H   0  0  0  0  0  0
  -28.3841  -32.6842   25.0285 H   0  0  0  0  0  0
  -28.0735  -31.8396   26.5381 H   0  0  0  0  0  0
  -28.2600  -38.0143   24.7539 H   0  0  0  0  0  0
  -28.1110  -36.2677   24.6212 H   0  0  0  0  0  0
  -27.2327  -37.1408   25.8859 H   0  0  0  0  0  0
  -20.9269  -29.8723   21.6950 H   0  0  0  0  0  0
  -26.0195  -38.2913   24.1446 H   0  0  0  0  0  0
  -29.9037  -17.6784   19.4053 H   0  0  0  0  0  0
  -28.4623  -16.8108   19.7966 H   0  0  0  0  0  0
  -28.4362  -16.1852   22.8939 H   0  0  0  0  0  0
  -29.8958  -16.8075   23.5928 H   0  0  0  0  0  0
  -27.8914  -19.1220   19.6989 H   0  0  0  0  0  0
  -29.2006  -19.5736   20.7732 H   0  0  0  0  0  0
  -29.1387  -19.0676   23.1963 H   0  0  0  0  0  0
  -27.8035  -18.1871   23.9002 H   0  0  0  0  0  0
  -30.9471  -17.1899   21.5086 H   0  0  0  0  0  0
  -26.9394  -17.7199   21.5337 H   0  0  0  0  0  0
  -22.8038  -16.9889   23.1056 H   0  0  0  0  0  0
  -22.6344  -18.7142   23.3794 H   0  0  0  0  0  0
  -23.6680  -17.7490   24.4307 H   0  0  0  0  0  0
  -24.1928  -18.2338   21.4422 H   0  0  0  0  0  0
  -25.1518  -17.2370   22.5133 H   0  0  0  0  0  0
  -26.8886  -23.8261   19.1620 H   0  0  0  0  0  0
  -28.2422  -24.1923   20.2124 H   0  0  0  0  0  0
  -28.4426  -22.9508   17.4482 H   0  0  0  0  0  0
  -29.8252  -23.2226   18.4816 H   0  0  0  0  0  0
  -28.7745  -21.7152   20.2638 H   0  0  0  0  0  0
  -27.3051  -21.4075   19.3659 H   0  0  0  0  0  0
  -27.9307  -25.4767   17.6437 H   0  0  0  0  0  0
  -29.2432  -24.9800   16.6311 H   0  0  0  0  0  0
  -25.8874  -22.2815   21.1689 H   0  0  0  0  0  0
  -27.2400  -23.0688   21.9080 H   0  0  0  0  0  0
  -30.6626  -26.3278   17.6998 H   0  0  0  0  0  0
  -30.4747  -25.4400   19.1859 H   0  0  0  0  0  0
  -25.7158  -19.2817   23.9020 H   0  0  0  0  0  0
  -24.7007  -20.2472   22.8696 H   0  0  0  0  0  0
  -26.7990  -21.3247   23.3525 H   0  0  0  0  0  0
  -28.2596  -20.9193   22.5423 H   0  0  0  0  0  0
  -28.7043  -27.7455   18.2276 H   0  0  0  0  0  0
  -29.9677  -27.8981   19.4380 H   0  0  0  0  0  0
  -29.0599  -14.9230   21.5415 H   0  0  0  0  0  0
  -26.1455  -19.8969   21.0850 H   0  0  0  0  0  0
  1 25  1  0  0  0
  1 30  2  0  0  0
  1 88  1  0  0  0
  2  3  1  0  0  0
  2 25  1  0  0  0
  2 90  1  0  0  0
  2 91  1  0  0  0
  3  4  1  0  0  0
  3 92  1  0  0  0
  3 93  1  0  0  0
  4  5  1  0  0  0
  4 94  1  0  0  0
  4 95  1  0  0  0
  5  6  1  0  0  0
  5 26  1  0  0  0
  5 96  1  0  0  0
  6 25  1  0  0  0
  6 97  1  0  0  0
  6 98  1  0  0  0
  7  8  2  0  0  0
  7 26  1  0  0  0
  7 29  1  0  0  0
  8  9  1  0  0  0
  8 22  1  0  0  0
  9 10  1  0  0  0
  9 27  2  0  0  0
 10 11  2  0  0  0
 10 15  1  0  0  0
 11 12  1  0  0  0
 11 99  1  0  0  0
 12 13  2  0  0  0
 12100  1  0  0  0
 13 14  1  0  0  0
 13 31  1  0  0  0
 14 15  2  0  0  0
 14101  1  0  0  0
 15102  1  0  0  0
 16 17  2  0  0  0
 16 21  1  0  0  0
 16 31  1  0  0  0
 17 18  1  0  0  0
 17103  1  0  0  0
 18 19  2  0  0  0
 18104  1  0  0  0
 19 20  1  0  0  0
 19 24  1  0  0  0
 20 21  2  0  0  0
 20105  1  0  0  0
 21 23  1  0  0  0
 22 28  1  0  0  0
 22 32  2  0  0  0
 26 27  1  0  0  0
 28106  1  0  0  0
 28107  1  0  0  0
 29108  1  0  0  0
 29109  1  0  0  0
 33 34  1  0  0  0
 33 66  1  0  0  0
 33 70  2  0  0  0
 34 36  1  0  0  0
 34 59  1  0  0  0
 34110  1  0  0  0
 35 44  2  0  0  0
 35 45  1  0  0  0
 35 68  1  0  0  0
 36 56  1  0  0  0
 36111  1  0  0  0
 37 39  1  0  0  0
 37 47  1  0  0  0
 37 66  1  0  0  0
 37112  1  0  0  0
 38 43  2  0  0  0
 38 46  1  0  0  0
 38 47  1  0  0  0
 39 64  1  0  0  0
 39 67  2  0  0  0
 40 52  1  0  0  0
 40 53  2  0  0  0
 40 58  1  0  0  0
 41113  1  0  0  0
 41114  1  0  0  0
 41115  1  0  0  0
 41 48  1  0  0  0
 42 43  1  0  0  0
 42 66  1  0  0  0
 42116  1  0  0  0
 42117  1  0  0  0
 43 44  1  0  0  0
 44118  1  0  0  0
 45 46  2  0  0  0
 45119  1  0  0  0
 46120  1  0  0  0
 47121  1  0  0  0
 47122  1  0  0  0
 48 56  1  0  0  0
 48 65  1  0  0  0
 48123  1  0  0  0
 49 50  1  0  0  0
 49 53  1  0  0  0
 49 64  1  0  0  0
 49124  1  0  0  0
 50 51  1  0  0  0
 50125  1  0  0  0
 50126  1  0  0  0
 51 52  1  0  0  0
 51127  1  0  0  0
 51128  1  0  0  0
 52129  1  0  0  0
 52130  1  0  0  0
 53 54  1  0  0  0
 54 55  2  0  0  0
 54131  1  0  0  0
 55 57  1  0  0  0
 55132  1  0  0  0
 56 69  2  0  0  0
 57 58  2  0  0  0
 57133  1  0  0  0
 58134  1  0  0  0
 59 60  1  0  0  0
 59 61  1  0  0  0
 59 62  1  0  0  0
 60135  1  0  0  0
 60136  1  0  0  0
 60137  1  0  0  0
 61138  1  0  0  0
 61139  1  0  0  0
 61140  1  0  0  0
 62141  1  0  0  0
 62142  1  0  0  0
 62143  1  0  0  0
 63 65  1  0  0  0
 63144  1  0  0  0
 63145  1  0  0  0
 63146  1  0  0  0
 64147  1  0  0  0
 65148  1  0  0  0
 68 87  1  0  0  0
 71 73  1  0  0  0
 71 75  1  0  0  0
 71149  1  0  0  0
 71150  1  0  0  0
 72 74  1  0  0  0
 72 75  1  0  0  0
 72151  1  0  0  0
 72152  1  0  0  0
 73153  1  0  0  0
 73154  1  0  0  0
 73 76  1  0  0  0
 74 76  1  0  0  0
 74155  1  0  0  0
 74156  1  0  0  0
 75 88  1  0  0  0
 75157  1  0  0  0
 76 89  1  0  0  0
 76158  1  0  0  0
 77 78  1  0  0  0
 77159  1  0  0  0
 77160  1  0  0  0
 77161  1  0  0  0
 78 85  1  0  0  0
 78162  1  0  0  0
 78163  1  0  0  0
 79 80  1  0  0  0
 79 81  1  0  0  0
 79164  1  0  0  0
 79165  1  0  0  0
 80 82  1  0  0  0
 80166  1  0  0  0
 80167  1  0  0  0
 81 83  1  0  0  0
 81168  1  0  0  0
 81169  1  0  0  0
 82 84  1  0  0  0
 82170  1  0  0  0
 82171  1  0  0  0
 83 86  1  0  0  0
 83172  1  0  0  0
 83173  1  0  0  0
 84 87  1  0  0  0
 84174  1  0  0  0
 84175  1  0  0  0
 85176  1  0  0  0
 85177  1  0  0  0
 85 89  1  0  0  0
 86 89  1  0  0  0
 86178  1  0  0  0
 86179  1  0  0  0
 87180  1  0  0  0
 87181  1  0  0  0
 88182  1  0  0  0
 89183  1  0  0  0
M  CHG  1  89   1
M  ISO  4   1 100  68 101  87 101  88 100
M  END
> <chiral flag>
0

> <version>
0

> <s_m_source_file>
/data/baiqing/PycharmProjects/Reinvent-master-3.2/result/LINK_invent/BTK/process_docking_weight1_custom_sum_contain_oxygen_bond_distance_aromatic_linkinvent_7_9_3/rearranged_h_0015.sdf

> <i_m_source_file_index>
58

> <r_mmod_Potential_Energy-OPLS-2005>
150.204788208008

> <r_mmod_Stretch_Energy-OPLS-2005>
36.8518676757812

> <r_mmod_Bend_Energy-OPLS-2005>
202.599685668945

> <r_mmod_Torsional_Energy-OPLS-2005>
326.096557617188

> <r_mmod_Improper_Torsional_Energy-OPLS-2005>
4.18247222900391

> <r_mmod_Van_der_Waal_Energy-OPLS-2005>
141.644897460938

> <r_mmod_Electrostatic_Energy-OPLS-2005>
-222.263412475586

> <r_mmod_Solvation_Energy-OPLS-2005>
-408.583679199219

> <b_mmod_Minimization_Converged-OPLS-2005>
0

> <r_mmod_RMS_Derivative-OPLS-2005>
7.71802854537964

$$$$
59
                    3D
 Structure written by MMmdl.
159167  0  0  1  0            999 V2000
  -30.6460  -14.7172   20.4472 C   0  0  0  0  0  0
  -30.4184  -12.4338   19.4774 C   0  0  0  0  0  0
  -29.5044  -12.4987   18.2363 C   0  0  0  0  0  0
  -28.0300  -12.3335   18.6486 C   0  0  0  0  0  0
  -27.6379  -13.2365   19.8491 C   0  0  2  0  0  0
  -28.6818  -13.1804   20.9859 C   0  0  0  0  0  0
  -25.2479  -13.8207   20.5695 C   0  0  0  0  0  0
  -24.1779  -13.0443   20.9201 C   0  0  0  0  0  0
  -24.6380  -11.6927   20.8752 C   0  0  0  0  0  0
  -23.9059  -10.4297   21.0409 C   0  0  0  0  0  0
  -24.3615   -9.4212   21.9182 C   0  0  0  0  0  0
  -23.6298   -8.2244   22.0753 C   0  0  0  0  0  0
  -22.4280   -8.0279   21.3545 C   0  0  0  0  0  0
  -21.9910   -9.0247   20.4641 C   0  0  0  0  0  0
  -22.7235  -10.2129   20.3055 C   0  0  0  0  0  0
  -21.6853   -6.0734   22.5277 C   0  0  0  0  0  0
  -21.4014   -6.5637   23.8210 C   0  0  0  0  0  0
  -21.3664   -5.6790   24.9174 C   0  0  0  0  0  0
  -21.6047   -4.3052   24.7223 C   0  0  0  0  0  0
  -21.8821   -3.8144   23.4343 C   0  0  0  0  0  0
  -21.9191   -4.6961   22.3401 C   0  0  0  0  0  0
  -22.7799  -13.5216   21.1862 C   0  0  0  0  0  0
  -22.1660   -4.2147   21.0977 F   0  0  0  0  0  0
  -21.5633   -3.4535   25.7736 F   0  0  0  0  0  0
  -29.9856  -13.5107   20.3995 N   0  0  0  0  0  0
  -26.2913  -12.9427   20.3286 N   0  0  0  0  0  0
  -25.9311  -11.6562   20.5760 N   0  0  0  0  0  0
  -22.0449  -12.8209   22.0426 N   0  0  0  0  0  0
  -25.4146  -15.1932   20.4127 N   0  0  0  0  0  0
  -31.8417  -14.7381   20.1548 O   0  0  0  0  0  0
  -21.6646   -6.8879   21.4240 O   0  0  0  0  0  0
  -22.3476  -14.5516   20.6706 O   0  0  0  0  0  0
  -24.6295  -31.8545   23.1975 C   0  0  0  0  0  0
  -25.9130  -32.4745   23.8320 C   0  0  1  0  0  0
  -27.2237  -27.2760   20.1214 C   0  0  0  0  0  0
  -25.5931  -33.8547   24.2246 N   0  0  0  0  0  0
  -23.4247  -30.4765   21.5405 C   0  0  2  0  0  0
  -24.8707  -28.9219   20.1088 C   0  0  0  0  0  0
  -22.7489  -29.4596   22.4917 C   0  0  0  0  0  0
  -18.0283  -28.1388   22.8487 C   0  0  0  0  0  0
  -24.1484  -36.7282   23.2641 C   0  0  0  0  0  0
  -25.9686  -30.7726   21.3727 C   0  0  0  0  0  0
  -26.0392  -29.3956   20.7160 C   0  0  0  0  0  0
  -27.2146  -28.5834   20.7121 C   0  0  0  0  0  0
  -26.0270  -26.8567   19.4983 C   0  0  0  0  0  0
  -24.8689  -27.6603   19.4917 C   0  0  0  0  0  0
  -23.6401  -29.8068   20.1565 C   0  0  0  0  0  0
  -25.4113  -36.3062   24.0323 C   0  0  1  0  0  0
  -20.5887  -28.3688   23.1280 C   0  0  2  0  0  0
  -20.6777  -26.9405   22.5411 C   0  0  0  0  0  0
  -19.5745  -26.6381   21.5218 C   0  0  0  0  0  0
  -18.1927  -26.7932   22.1627 C   0  0  0  0  0  0
  -19.1538  -28.8859   23.2874 C   0  0  0  0  0  0
  -18.9459  -30.1464   23.8883 C   0  0  0  0  0  0
  -17.6457  -30.6587   24.0565 C   0  0  0  0  0  0
  -25.9053  -34.9433   23.5088 C   0  0  0  0  0  0
  -16.5348  -29.9085   23.6334 C   0  0  0  0  0  0
  -16.7268  -28.6503   23.0354 C   0  0  0  0  0  0
  -26.4506  -31.6578   25.0710 C   0  0  0  0  0  0
  -25.3734  -31.3737   26.1437 C   0  0  0  0  0  0
  -27.0365  -30.2995   24.6202 C   0  0  0  0  0  0
  -27.6051  -32.4333   25.7486 C   0  0  0  0  0  0
  -27.5574  -37.1796   24.8463 C   0  0  0  0  0  0
  -21.4197  -29.3034   22.3670 N   0  0  0  0  0  0
  -26.4286  -37.3762   23.9407 N   0  0  0  0  0  0
  -24.6935  -31.0531   22.0933 N   0  0  0  0  0  0
  -23.4203  -28.8138   23.3005 O   0  0  0  0  0  0
  -28.3568  -26.4402   20.1960 O   0  0  0  0  0  0
  -26.5616  -34.8912   22.4650 O   0  0  0  0  0  0
  -23.5453  -32.1354   23.7288 O   0  0  0  0  0  0
  -31.5928  -17.6843   20.0131 C   0  0  0  0  0  0
  -31.9972  -19.0238   19.8533 C   0  0  0  0  0  0
  -29.7572  -19.8496   20.4650 C   0  0  0  0  0  0
  -30.2877  -17.3261   20.4260 C   0  0  0  0  0  0
  -31.1058  -20.0926   20.0940 C   0  0  0  0  0  0
  -29.3774  -18.4452   20.6344 C   0  0  0  0  0  0
  -33.4322  -19.3047   19.4346 C   0  0  0  0  0  0
  -26.8499  -23.5696   21.0407 C   0  0  0  0  0  0
  -28.8170  -21.0987   20.8132 C   0  0  0  0  0  0
  -28.4409  -25.0481   19.6455 C   0  0  0  0  0  0
  -28.3105  -23.7285   20.5762 C   0  0  2  0  0  0
  -29.9162  -15.8901   20.6202 N   0  0  0  0  0  0
  -28.8505  -22.4012   19.9902 N   0  3  0  0  0  0
  -31.7220  -21.7092   19.9619 Cl  0  0  0  0  0  0
  -27.7714  -18.0652   21.1491 Cl  0  0  0  0  0  0
  -31.4629  -12.5301   19.1762 H   0  0  0  0  0  0
  -30.3401  -11.4606   19.9643 H   0  0  0  0  0  0
  -29.7822  -11.7231   17.5208 H   0  0  0  0  0  0
  -29.6417  -13.4524   17.7245 H   0  0  0  0  0  0
  -27.8819  -11.2858   18.9122 H   0  0  0  0  0  0
  -27.3733  -12.5266   17.7994 H   0  0  0  0  0  0
  -27.6294  -14.2570   19.4650 H   0  0  0  0  0  0
  -28.7091  -12.1898   21.4423 H   0  0  0  0  0  0
  -28.4229  -13.8791   21.7832 H   0  0  0  0  0  0
  -25.2757   -9.5692   22.4754 H   0  0  0  0  0  0
  -24.0008   -7.4637   22.7473 H   0  0  0  0  0  0
  -21.0840   -8.8757   19.8949 H   0  0  0  0  0  0
  -22.3685  -10.9663   19.6164 H   0  0  0  0  0  0
  -21.2008   -7.6146   23.9713 H   0  0  0  0  0  0
  -21.1484   -6.0521   25.9078 H   0  0  0  0  0  0
  -22.0597   -2.7605   23.2841 H   0  0  0  0  0  0
  -22.4074  -11.9876   22.4817 H   0  0  0  0  0  0
  -21.1062  -13.1222   22.2627 H   0  0  0  0  0  0
  -24.6484  -15.8449   20.5409 H   0  0  0  0  0  0
  -26.2670  -15.6441   20.1081 H   0  0  0  0  0  0
  -26.7197  -32.5394   23.1065 H   0  0  0  0  0  0
  -25.0103  -33.9685   25.0408 H   0  0  0  0  0  0
  -22.7200  -31.2979   21.3941 H   0  0  0  0  0  0
  -23.3743  -35.9617   23.3298 H   0  0  0  0  0  0
  -24.3581  -36.8909   22.2058 H   0  0  0  0  0  0
  -23.7244  -37.6485   23.6669 H   0  0  0  0  0  0
  -26.1064  -31.5328   20.6023 H   0  0  0  0  0  0
  -26.8481  -30.8217   22.0038 H   0  0  0  0  0  0
  -28.1115  -28.9433   21.1965 H   0  0  0  0  0  0
  -25.9445  -25.8871   19.0333 H   0  0  0  0  0  0
  -23.9696  -27.2895   19.0195 H   0  0  0  0  0  0
  -23.7596  -30.5809   19.3977 H   0  0  0  0  0  0
  -22.7591  -29.2362   19.8560 H   0  0  0  0  0  0
  -25.1299  -36.1905   25.0816 H   0  0  0  0  0  0
  -20.9978  -28.3258   24.1401 H   0  0  0  0  0  0
  -20.5688  -26.2285   23.3608 H   0  0  0  0  0  0
  -21.6645  -26.7433   22.1197 H   0  0  0  0  0  0
  -19.6897  -25.6293   21.1242 H   0  0  0  0  0  0
  -19.6692  -27.3197   20.6753 H   0  0  0  0  0  0
  -17.4201  -26.6684   21.4023 H   0  0  0  0  0  0
  -18.0308  -26.0079   22.9023 H   0  0  0  0  0  0
  -19.7936  -30.7289   24.2237 H   0  0  0  0  0  0
  -17.5008  -31.6262   24.5173 H   0  0  0  0  0  0
  -15.5348  -30.2984   23.7668 H   0  0  0  0  0  0
  -15.8665  -28.0823   22.7071 H   0  0  0  0  0  0
  -24.5902  -30.7088   25.7778 H   0  0  0  0  0  0
  -24.8937  -32.2914   26.4846 H   0  0  0  0  0  0
  -25.8056  -30.8929   27.0222 H   0  0  0  0  0  0
  -26.2955  -29.6728   24.1226 H   0  0  0  0  0  0
  -27.4050  -29.7270   25.4726 H   0  0  0  0  0  0
  -27.8824  -30.4269   23.9444 H   0  0  0  0  0  0
  -27.2641  -33.3638   26.2037 H   0  0  0  0  0  0
  -28.3875  -32.6891   25.0330 H   0  0  0  0  0  0
  -28.0706  -31.8484   26.5429 H   0  0  0  0  0  0
  -28.2588  -38.0095   24.7510 H   0  0  0  0  0  0
  -28.1073  -36.2628   24.6289 H   0  0  0  0  0  0
  -27.2292  -37.1442   25.8865 H   0  0  0  0  0  0
  -20.9367  -29.8758   21.6886 H   0  0  0  0  0  0
  -26.0158  -38.2830   24.1413 H   0  0  0  0  0  0
  -32.3447  -16.9405   19.8154 H   0  0  0  0  0  0
  -33.9961  -18.3868   19.2674 H   0  0  0  0  0  0
  -33.9511  -19.8751   20.2054 H   0  0  0  0  0  0
  -33.4552  -19.8791   18.5082 H   0  0  0  0  0  0
  -26.4757  -24.4965   21.4768 H   0  0  0  0  0  0
  -26.7452  -22.7962   21.8015 H   0  0  0  0  0  0
  -26.1928  -23.3129   20.2089 H   0  0  0  0  0  0
  -29.0572  -21.3632   21.8434 H   0  0  0  0  0  0
  -27.7808  -20.7633   20.8339 H   0  0  0  0  0  0
  -27.8130  -24.9375   18.7634 H   0  0  0  0  0  0
  -29.4494  -25.0153   19.2329 H   0  0  0  0  0  0
  -28.9178  -23.9228   21.4615 H   0  0  0  0  0  0
  -28.9476  -15.7420   20.8593 H   0  0  0  0  0  0
  -28.3974  -22.2131   19.1090 H   0  0  0  0  0  0
  -29.8295  -22.5500   19.7815 H   0  0  0  0  0  0
  1 25  1  0  0  0
  1 30  2  0  0  0
  1 82  1  0  0  0
  2  3  1  0  0  0
  2 25  1  0  0  0
  2 86  1  0  0  0
  2 87  1  0  0  0
  3  4  1  0  0  0
  3 88  1  0  0  0
  3 89  1  0  0  0
  4  5  1  0  0  0
  4 90  1  0  0  0
  4 91  1  0  0  0
  5  6  1  0  0  0
  5 26  1  0  0  0
  5 92  1  0  0  0
  6 25  1  0  0  0
  6 93  1  0  0  0
  6 94  1  0  0  0
  7  8  2  0  0  0
  7 26  1  0  0  0
  7 29  1  0  0  0
  8  9  1  0  0  0
  8 22  1  0  0  0
  9 10  1  0  0  0
  9 27  2  0  0  0
 10 11  2  0  0  0
 10 15  1  0  0  0
 11 12  1  0  0  0
 11 95  1  0  0  0
 12 13  2  0  0  0
 12 96  1  0  0  0
 13 14  1  0  0  0
 13 31  1  0  0  0
 14 15  2  0  0  0
 14 97  1  0  0  0
 15 98  1  0  0  0
 16 17  2  0  0  0
 16 21  1  0  0  0
 16 31  1  0  0  0
 17 18  1  0  0  0
 17 99  1  0  0  0
 18 19  2  0  0  0
 18100  1  0  0  0
 19 20  1  0  0  0
 19 24  1  0  0  0
 20 21  2  0  0  0
 20101  1  0  0  0
 21 23  1  0  0  0
 22 28  1  0  0  0
 22 32  2  0  0  0
 26 27  1  0  0  0
 28102  1  0  0  0
 28103  1  0  0  0
 29104  1  0  0  0
 29105  1  0  0  0
 33 34  1  0  0  0
 33 66  1  0  0  0
 33 70  2  0  0  0
 34 36  1  0  0  0
 34 59  1  0  0  0
 34106  1  0  0  0
 35 44  2  0  0  0
 35 45  1  0  0  0
 35 68  1  0  0  0
 36 56  1  0  0  0
 36107  1  0  0  0
 37 39  1  0  0  0
 37 47  1  0  0  0
 37 66  1  0  0  0
 37108  1  0  0  0
 38 43  2  0  0  0
 38 46  1  0  0  0
 38 47  1  0  0  0
 39 64  1  0  0  0
 39 67  2  0  0  0
 40 52  1  0  0  0
 40 53  2  0  0  0
 40 58  1  0  0  0
 41109  1  0  0  0
 41110  1  0  0  0
 41111  1  0  0  0
 41 48  1  0  0  0
 42 43  1  0  0  0
 42 66  1  0  0  0
 42112  1  0  0  0
 42113  1  0  0  0
 43 44  1  0  0  0
 44114  1  0  0  0
 45 46  2  0  0  0
 45115  1  0  0  0
 46116  1  0  0  0
 47117  1  0  0  0
 47118  1  0  0  0
 48 56  1  0  0  0
 48 65  1  0  0  0
 48119  1  0  0  0
 49 50  1  0  0  0
 49 53  1  0  0  0
 49 64  1  0  0  0
 49120  1  0  0  0
 50 51  1  0  0  0
 50121  1  0  0  0
 50122  1  0  0  0
 51 52  1  0  0  0
 51123  1  0  0  0
 51124  1  0  0  0
 52125  1  0  0  0
 52126  1  0  0  0
 53 54  1  0  0  0
 54 55  2  0  0  0
 54127  1  0  0  0
 55 57  1  0  0  0
 55128  1  0  0  0
 56 69  2  0  0  0
 57 58  2  0  0  0
 57129  1  0  0  0
 58130  1  0  0  0
 59 60  1  0  0  0
 59 61  1  0  0  0
 59 62  1  0  0  0
 60131  1  0  0  0
 60132  1  0  0  0
 60133  1  0  0  0
 61134  1  0  0  0
 61135  1  0  0  0
 61136  1  0  0  0
 62137  1  0  0  0
 62138  1  0  0  0
 62139  1  0  0  0
 63 65  1  0  0  0
 63140  1  0  0  0
 63141  1  0  0  0
 63142  1  0  0  0
 64143  1  0  0  0
 65144  1  0  0  0
 68 80  1  0  0  0
 71 72  2  0  0  0
 71 74  1  0  0  0
 71145  1  0  0  0
 72 75  1  0  0  0
 72 77  1  0  0  0
 73 75  2  0  0  0
 73 76  1  0  0  0
 73 79  1  0  0  0
 74 76  2  0  0  0
 74 82  1  0  0  0
 75 84  1  0  0  0
 76 85  1  0  0  0
 77146  1  0  0  0
 77147  1  0  0  0
 77148  1  0  0  0
 78149  1  0  0  0
 78150  1  0  0  0
 78151  1  0  0  0
 78 81  1  0  0  0
 79 83  1  0  0  0
 79152  1  0  0  0
 79153  1  0  0  0
 80 81  1  0  0  0
 80154  1  0  0  0
 80155  1  0  0  0
 81 83  1  0  0  0
 81156  1  0  0  0
 82157  1  0  0  0
 83158  1  0  0  0
 83159  1  0  0  0
M  CHG  1  83   1
M  ISO  4   1 100  68 101  80 101  82 100
M  END
> <chiral flag>
0

> <version>
0

> <s_m_source_file>
/data/baiqing/PycharmProjects/Reinvent-master-3.2/result/LINK_invent/BTK/process_docking_weight1_custom_sum_contain_oxygen_bond_distance_aromatic_linkinvent_7_9_3/rearranged_h_0015.sdf

> <i_m_source_file_index>
59

> <r_mmod_Potential_Energy-OPLS-2005>
-46.2703666687012

> <r_mmod_Stretch_Energy-OPLS-2005>
125.045333862305

> <r_mmod_Bend_Energy-OPLS-2005>
174.729095458984

> <r_mmod_Torsional_Energy-OPLS-2005>
206.457931518555

> <r_mmod_Improper_Torsional_Energy-OPLS-2005>
4.85166072845459

> <r_mmod_Van_der_Waal_Energy-OPLS-2005>
149.508834838867

> <r_mmod_Electrostatic_Energy-OPLS-2005>
-337.751220703125

> <r_mmod_Solvation_Energy-OPLS-2005>
-443.147369384766

> <b_mmod_Minimization_Converged-OPLS-2005>
0

> <r_mmod_RMS_Derivative-OPLS-2005>
0.955882012844086

$$$$
60
                    3D
 Structure written by MMmdl.
163171  0  0  1  0            999 V2000
  -30.6733  -14.4543   20.5582 C   0  0  0  0  0  0
  -30.4257  -12.2860   19.4205 C   0  0  0  0  0  0
  -29.4983  -12.4988   18.2045 C   0  0  0  0  0  0
  -28.0153  -12.3684   18.6127 C   0  0  0  0  0  0
  -27.6649  -13.1998   19.8775 C   0  0  2  0  0  0
  -28.7029  -12.9524   20.9952 C   0  0  0  0  0  0
  -25.2607  -13.8134   20.5683 C   0  0  0  0  0  0
  -24.1847  -13.0429   20.9169 C   0  0  0  0  0  0
  -24.6389  -11.6893   20.8727 C   0  0  0  0  0  0
  -23.9066  -10.4276   21.0393 C   0  0  0  0  0  0
  -24.3620   -9.4193   21.9174 C   0  0  0  0  0  0
  -23.6287   -8.2234   22.0760 C   0  0  0  0  0  0
  -22.4266   -8.0280   21.3546 C   0  0  0  0  0  0
  -21.9896   -9.0253   20.4660 C   0  0  0  0  0  0
  -22.7232  -10.2129   20.3049 C   0  0  0  0  0  0
  -21.6839   -6.0743   22.5286 C   0  0  0  0  0  0
  -21.4018   -6.5646   23.8227 C   0  0  0  0  0  0
  -21.3657   -5.6797   24.9180 C   0  0  0  0  0  0
  -21.6033   -4.3056   24.7228 C   0  0  0  0  0  0
  -21.8814   -3.8155   23.4343 C   0  0  0  0  0  0
  -21.9189   -4.6973   22.3404 C   0  0  0  0  0  0
  -22.7875  -13.5254   21.1821 C   0  0  0  0  0  0
  -22.1649   -4.2169   21.0978 F   0  0  0  0  0  0
  -21.5622   -3.4537   25.7735 F   0  0  0  0  0  0
  -30.0353  -13.2596   20.4506 N   0  0  0  0  0  0
  -26.3036  -12.9305   20.3366 N   0  0  0  0  0  0
  -25.9308  -11.6469   20.5744 N   0  0  0  0  0  0
  -22.0489  -12.8271   22.0388 N   0  0  0  0  0  0
  -25.4319  -15.1857   20.4104 N   0  0  0  0  0  0
  -31.8024  -14.6600   20.0995 O   0  0  0  0  0  0
  -21.6626   -6.8877   21.4250 O   0  0  0  0  0  0
  -22.3576  -14.5563   20.6671 O   0  0  0  0  0  0
  -24.6146  -31.8671   23.2086 C   0  0  0  0  0  0
  -25.9047  -32.4811   23.8383 C   0  0  1  0  0  0
  -27.2474  -27.4468   20.0793 C   0  0  0  0  0  0
  -25.5910  -33.8612   24.2319 N   0  0  0  0  0  0
  -23.4014  -30.4914   21.5463 C   0  0  2  0  0  0
  -24.8494  -28.9530   20.1109 C   0  0  0  0  0  0
  -22.7398  -29.4678   22.4963 C   0  0  0  0  0  0
  -18.0270  -28.1383   22.8475 C   0  0  0  0  0  0
  -24.1483  -36.7324   23.2638 C   0  0  0  0  0  0
  -25.9282  -30.8336   21.3601 C   0  0  0  0  0  0
  -26.0046  -29.4667   20.7098 C   0  0  0  0  0  0
  -27.1999  -28.7160   20.6993 C   0  0  0  0  0  0
  -26.0690  -26.9353   19.4891 C   0  0  0  0  0  0
  -24.8745  -27.6843   19.5032 C   0  0  0  0  0  0
  -23.6111  -29.8203   20.1609 C   0  0  0  0  0  0
  -25.4100  -36.3101   24.0331 C   0  0  1  0  0  0
  -20.5862  -28.3680   23.1297 C   0  0  2  0  0  0
  -20.6758  -26.9413   22.5414 C   0  0  0  0  0  0
  -19.5750  -26.6388   21.5197 C   0  0  0  0  0  0
  -18.1921  -26.7927   22.1603 C   0  0  0  0  0  0
  -19.1520  -28.8840   23.2883 C   0  0  0  0  0  0
  -18.9461  -30.1438   23.8910 C   0  0  0  0  0  0
  -17.6471  -30.6584   24.0572 C   0  0  0  0  0  0
  -25.9035  -34.9470   23.5115 C   0  0  0  0  0  0
  -16.5358  -29.9100   23.6323 C   0  0  0  0  0  0
  -16.7262  -28.6518   23.0331 C   0  0  0  0  0  0
  -26.4487  -31.6596   25.0712 C   0  0  0  0  0  0
  -25.3777  -31.3723   26.1481 C   0  0  0  0  0  0
  -27.0318  -30.3035   24.6090 C   0  0  0  0  0  0
  -27.6048  -32.4331   25.7482 C   0  0  0  0  0  0
  -27.5570  -37.1815   24.8462 C   0  0  0  0  0  0
  -21.4129  -29.3047   22.3696 N   0  0  0  0  0  0
  -26.4286  -37.3787   23.9405 N   0  0  0  0  0  0
  -24.6658  -31.0791   22.0972 N   0  0  0  0  0  0
  -23.4172  -28.8217   23.3002 O   0  0  0  0  0  0
  -28.4473  -26.7664   20.0962 O   0  0  0  0  0  0
  -26.5594  -34.8930   22.4676 O   0  0  0  0  0  0
  -23.5341  -32.1428   23.7489 O   0  0  0  0  0  0
  -30.2736  -19.1364   21.5666 C   0  0  0  0  0  0
  -30.1845  -18.6543   19.1869 C   0  0  0  0  0  0
  -30.3441  -19.5947   20.2307 C   0  0  0  0  0  0
  -30.0612  -16.8226   20.8074 C   0  0  0  0  0  0
  -30.1072  -17.7573   21.8659 C   0  0  0  0  0  0
  -30.0519  -17.2813   19.4682 C   0  0  0  0  0  0
  -31.6319  -21.2263   18.7514 C   0  0  0  0  0  0
  -29.6175  -18.1733   24.1743 C   0  0  0  0  0  0
  -28.4980  -24.2883   19.8016 C   0  0  0  0  0  0
  -29.6351  -23.3096   19.4094 C   0  0  0  0  0  0
  -28.6976  -25.6943   19.1817 C   0  0  0  0  0  0
  -30.6540  -21.0710   19.9413 C   0  0  1  0  0  0
  -29.9415  -15.4371   21.1077 N   0  0  0  0  0  0
  -29.4173  -21.8906   19.8070 N   0  3  0  0  0  0
  -30.0108  -17.2664   23.1508 O   0  0  0  0  0  0
  -29.8964  -16.4069   18.4435 F   0  0  0  0  0  0
  -31.4737  -12.3810   19.1280 H   0  0  0  0  0  0
  -30.3192  -11.2723   19.8093 H   0  0  0  0  0  0
  -29.7344  -11.7767   17.4225 H   0  0  0  0  0  0
  -29.6788  -13.4848   17.7701 H   0  0  0  0  0  0
  -27.8134  -11.3120   18.7966 H   0  0  0  0  0  0
  -27.3689  -12.6572   17.7827 H   0  0  0  0  0  0
  -27.7190  -14.2507   19.5921 H   0  0  0  0  0  0
  -28.6720  -11.9086   21.3109 H   0  0  0  0  0  0
  -28.4686  -13.5269   21.8915 H   0  0  0  0  0  0
  -25.2759   -9.5677   22.4756 H   0  0  0  0  0  0
  -23.9990   -7.4630   22.7486 H   0  0  0  0  0  0
  -21.0810   -8.8778   19.8980 H   0  0  0  0  0  0
  -22.3676  -10.9668   19.6167 H   0  0  0  0  0  0
  -21.2017   -7.6156   23.9742 H   0  0  0  0  0  0
  -21.1476   -6.0518   25.9092 H   0  0  0  0  0  0
  -22.0592   -2.7617   23.2837 H   0  0  0  0  0  0
  -22.4072  -11.9952   22.4829 H   0  0  0  0  0  0
  -21.1119  -13.1354   22.2567 H   0  0  0  0  0  0
  -24.6652  -15.8387   20.5278 H   0  0  0  0  0  0
  -26.2817  -15.6267   20.0853 H   0  0  0  0  0  0
  -26.7118  -32.5525   23.1152 H   0  0  0  0  0  0
  -25.0053  -33.9765   25.0457 H   0  0  0  0  0  0
  -22.6904  -31.3081   21.4044 H   0  0  0  0  0  0
  -23.3721  -35.9686   23.3324 H   0  0  0  0  0  0
  -24.3573  -36.8917   22.2049 H   0  0  0  0  0  0
  -23.7275  -37.6550   23.6647 H   0  0  0  0  0  0
  -26.0383  -31.5982   20.5896 H   0  0  0  0  0  0
  -26.8170  -30.8904   21.9764 H   0  0  0  0  0  0
  -28.0941  -29.1140   21.1590 H   0  0  0  0  0  0
  -26.0532  -25.9591   19.0272 H   0  0  0  0  0  0
  -23.9836  -27.2780   19.0444 H   0  0  0  0  0  0
  -23.7245  -30.5949   19.4019 H   0  0  0  0  0  0
  -22.7349  -29.2433   19.8603 H   0  0  0  0  0  0
  -25.1280  -36.1958   25.0824 H   0  0  0  0  0  0
  -20.9952  -28.3260   24.1418 H   0  0  0  0  0  0
  -20.5631  -26.2301   23.3608 H   0  0  0  0  0  0
  -21.6635  -26.7433   22.1239 H   0  0  0  0  0  0
  -19.6916  -25.6298   21.1225 H   0  0  0  0  0  0
  -19.6689  -27.3198   20.6726 H   0  0  0  0  0  0
  -17.4191  -26.6661   21.4004 H   0  0  0  0  0  0
  -18.0332  -26.0069   22.9002 H   0  0  0  0  0  0
  -19.7944  -30.7228   24.2298 H   0  0  0  0  0  0
  -17.5040  -31.6265   24.5174 H   0  0  0  0  0  0
  -15.5364  -30.3016   23.7634 H   0  0  0  0  0  0
  -15.8659  -28.0848   22.7035 H   0  0  0  0  0  0
  -24.5911  -30.7100   25.7855 H   0  0  0  0  0  0
  -24.9023  -32.2893   26.4972 H   0  0  0  0  0  0
  -25.8154  -30.8874   27.0215 H   0  0  0  0  0  0
  -26.2853  -29.6782   24.1173 H   0  0  0  0  0  0
  -27.4117  -29.7289   25.4549 H   0  0  0  0  0  0
  -27.8681  -30.4349   23.9216 H   0  0  0  0  0  0
  -27.2635  -33.3603   26.2106 H   0  0  0  0  0  0
  -28.3844  -32.6943   25.0313 H   0  0  0  0  0  0
  -28.0742  -31.8440   26.5373 H   0  0  0  0  0  0
  -28.2602  -38.0095   24.7475 H   0  0  0  0  0  0
  -28.1045  -36.2623   24.6318 H   0  0  0  0  0  0
  -27.2289  -37.1512   25.8866 H   0  0  0  0  0  0
  -20.9281  -29.8802   21.6948 H   0  0  0  0  0  0
  -26.0165  -38.2864   24.1397 H   0  0  0  0  0  0
  -30.3831  -19.8603   22.3607 H   0  0  0  0  0  0
  -30.1927  -18.9631   18.1517 H   0  0  0  0  0  0
  -32.5118  -20.5977   18.8941 H   0  0  0  0  0  0
  -31.9995  -22.2471   18.6532 H   0  0  0  0  0  0
  -31.1764  -20.9528   17.8005 H   0  0  0  0  0  0
  -29.4179  -17.6172   25.0896 H   0  0  0  0  0  0
  -28.7025  -18.7036   23.9054 H   0  0  0  0  0  0
  -30.3982  -18.8981   24.4019 H   0  0  0  0  0  0
  -28.4668  -24.3693   20.8889 H   0  0  0  0  0  0
  -27.5283  -23.8969   19.4953 H   0  0  0  0  0  0
  -30.5542  -23.6705   19.8729 H   0  0  0  0  0  0
  -29.8013  -23.3430   18.3301 H   0  0  0  0  0  0
  -28.1551  -25.8012   18.2414 H   0  0  0  0  0  0
  -29.7467  -25.8066   18.9053 H   0  0  0  0  0  0
  -31.1842  -21.4552   20.8158 H   0  0  0  0  0  0
  -29.1126  -15.1629   21.6098 H   0  0  0  0  0  0
  -28.8042  -21.4508   19.1401 H   0  0  0  0  0  0
  -28.9493  -21.8681   20.6989 H   0  0  0  0  0  0
  1 25  1  0  0  0
  1 30  2  0  0  0
  1 83  1  0  0  0
  2  3  1  0  0  0
  2 25  1  0  0  0
  2 87  1  0  0  0
  2 88  1  0  0  0
  3  4  1  0  0  0
  3 89  1  0  0  0
  3 90  1  0  0  0
  4  5  1  0  0  0
  4 91  1  0  0  0
  4 92  1  0  0  0
  5  6  1  0  0  0
  5 26  1  0  0  0
  5 93  1  0  0  0
  6 25  1  0  0  0
  6 94  1  0  0  0
  6 95  1  0  0  0
  7  8  2  0  0  0
  7 26  1  0  0  0
  7 29  1  0  0  0
  8  9  1  0  0  0
  8 22  1  0  0  0
  9 10  1  0  0  0
  9 27  2  0  0  0
 10 11  2  0  0  0
 10 15  1  0  0  0
 11 12  1  0  0  0
 11 96  1  0  0  0
 12 13  2  0  0  0
 12 97  1  0  0  0
 13 14  1  0  0  0
 13 31  1  0  0  0
 14 15  2  0  0  0
 14 98  1  0  0  0
 15 99  1  0  0  0
 16 17  2  0  0  0
 16 21  1  0  0  0
 16 31  1  0  0  0
 17 18  1  0  0  0
 17100  1  0  0  0
 18 19  2  0  0  0
 18101  1  0  0  0
 19 20  1  0  0  0
 19 24  1  0  0  0
 20 21  2  0  0  0
 20102  1  0  0  0
 21 23  1  0  0  0
 22 28  1  0  0  0
 22 32  2  0  0  0
 26 27  1  0  0  0
 28103  1  0  0  0
 28104  1  0  0  0
 29105  1  0  0  0
 29106  1  0  0  0
 33 34  1  0  0  0
 33 66  1  0  0  0
 33 70  2  0  0  0
 34 36  1  0  0  0
 34 59  1  0  0  0
 34107  1  0  0  0
 35 44  2  0  0  0
 35 45  1  0  0  0
 35 68  1  0  0  0
 36 56  1  0  0  0
 36108  1  0  0  0
 37 39  1  0  0  0
 37 47  1  0  0  0
 37 66  1  0  0  0
 37109  1  0  0  0
 38 43  2  0  0  0
 38 46  1  0  0  0
 38 47  1  0  0  0
 39 64  1  0  0  0
 39 67  2  0  0  0
 40 52  1  0  0  0
 40 53  2  0  0  0
 40 58  1  0  0  0
 41110  1  0  0  0
 41111  1  0  0  0
 41112  1  0  0  0
 41 48  1  0  0  0
 42 43  1  0  0  0
 42 66  1  0  0  0
 42113  1  0  0  0
 42114  1  0  0  0
 43 44  1  0  0  0
 44115  1  0  0  0
 45 46  2  0  0  0
 45116  1  0  0  0
 46117  1  0  0  0
 47118  1  0  0  0
 47119  1  0  0  0
 48 56  1  0  0  0
 48 65  1  0  0  0
 48120  1  0  0  0
 49 50  1  0  0  0
 49 53  1  0  0  0
 49 64  1  0  0  0
 49121  1  0  0  0
 50 51  1  0  0  0
 50122  1  0  0  0
 50123  1  0  0  0
 51 52  1  0  0  0
 51124  1  0  0  0
 51125  1  0  0  0
 52126  1  0  0  0
 52127  1  0  0  0
 53 54  1  0  0  0
 54 55  2  0  0  0
 54128  1  0  0  0
 55 57  1  0  0  0
 55129  1  0  0  0
 56 69  2  0  0  0
 57 58  2  0  0  0
 57130  1  0  0  0
 58131  1  0  0  0
 59 60  1  0  0  0
 59 61  1  0  0  0
 59 62  1  0  0  0
 60132  1  0  0  0
 60133  1  0  0  0
 60134  1  0  0  0
 61135  1  0  0  0
 61136  1  0  0  0
 61137  1  0  0  0
 62138  1  0  0  0
 62139  1  0  0  0
 62140  1  0  0  0
 63 65  1  0  0  0
 63141  1  0  0  0
 63142  1  0  0  0
 63143  1  0  0  0
 64144  1  0  0  0
 65145  1  0  0  0
 68 81  1  0  0  0
 71 73  2  0  0  0
 71 75  1  0  0  0
 71146  1  0  0  0
 72 73  1  0  0  0
 72 76  2  0  0  0
 72147  1  0  0  0
 73 82  1  0  0  0
 74 75  2  0  0  0
 74 76  1  0  0  0
 74 83  1  0  0  0
 75 85  1  0  0  0
 76 86  1  0  0  0
 77148  1  0  0  0
 77149  1  0  0  0
 77150  1  0  0  0
 77 82  1  0  0  0
 78 85  1  0  0  0
 78151  1  0  0  0
 78152  1  0  0  0
 78153  1  0  0  0
 79 80  1  0  0  0
 79 81  1  0  0  0
 79154  1  0  0  0
 79155  1  0  0  0
 80 84  1  0  0  0
 80156  1  0  0  0
 80157  1  0  0  0
 81158  1  0  0  0
 81159  1  0  0  0
 82 84  1  0  0  0
 82160  1  0  0  0
 83161  1  0  0  0
 84162  1  0  0  0
 84163  1  0  0  0
M  CHG  1  84   1
M  ISO  4   1 100  68 101  81 101  83 100
M  END
> <chiral flag>
0

> <version>
0

> <s_m_source_file>
/data/baiqing/PycharmProjects/Reinvent-master-3.2/result/LINK_invent/BTK/process_docking_weight1_custom_sum_contain_oxygen_bond_distance_aromatic_linkinvent_7_9_3/rearranged_h_0015.sdf

> <i_m_source_file_index>
60

> <r_mmod_Potential_Energy-OPLS-2005>
-301.039611816406

> <r_mmod_Stretch_Energy-OPLS-2005>
37.4557685852051

> <r_mmod_Bend_Energy-OPLS-2005>
106.580345153809

> <r_mmod_Torsional_Energy-OPLS-2005>
240.816207885742

> <r_mmod_Improper_Torsional_Energy-OPLS-2005>
3.66552114486694

> <r_mmod_Van_der_Waal_Energy-OPLS-2005>
161.422378540039

> <r_mmod_Electrostatic_Energy-OPLS-2005>
-368.304718017578

> <r_mmod_Solvation_Energy-OPLS-2005>
-494.384033203125

> <b_mmod_Minimization_Converged-OPLS-2005>
0

> <r_mmod_RMS_Derivative-OPLS-2005>
2.50490021705627

$$$$
61
                    3D
 Structure written by MMmdl.
162170  0  0  1  0            999 V2000
  -30.6334  -14.7165   20.4434 C   0  0  0  0  0  0
  -30.4235  -12.4308   19.4755 C   0  0  0  0  0  0
  -29.5083  -12.4976   18.2348 C   0  0  0  0  0  0
  -28.0331  -12.3313   18.6463 C   0  0  0  0  0  0
  -27.6402  -13.2335   19.8469 C   0  0  2  0  0  0
  -28.6827  -13.1694   20.9840 C   0  0  0  0  0  0
  -25.2501  -13.8207   20.5687 C   0  0  0  0  0  0
  -24.1798  -13.0449   20.9212 C   0  0  0  0  0  0
  -24.6392  -11.6930   20.8766 C   0  0  0  0  0  0
  -23.9067  -10.4300   21.0421 C   0  0  0  0  0  0
  -24.3622   -9.4204   21.9186 C   0  0  0  0  0  0
  -23.6296   -8.2240   22.0752 C   0  0  0  0  0  0
  -22.4278   -8.0282   21.3540 C   0  0  0  0  0  0
  -21.9916   -9.0256   20.4639 C   0  0  0  0  0  0
  -22.7248  -10.2134   20.3056 C   0  0  0  0  0  0
  -21.6850   -6.0735   22.5279 C   0  0  0  0  0  0
  -21.4013   -6.5638   23.8213 C   0  0  0  0  0  0
  -21.3663   -5.6786   24.9174 C   0  0  0  0  0  0
  -21.6044   -4.3048   24.7219 C   0  0  0  0  0  0
  -21.8821   -3.8144   23.4339 C   0  0  0  0  0  0
  -21.9191   -4.6963   22.3398 C   0  0  0  0  0  0
  -22.7816  -13.5227   21.1860 C   0  0  0  0  0  0
  -22.1661   -4.2155   21.0972 F   0  0  0  0  0  0
  -21.5631   -3.4523   25.7728 F   0  0  0  0  0  0
  -29.9880  -13.5020   20.4017 N   0  0  0  0  0  0
  -26.2923  -12.9415   20.3257 N   0  0  0  0  0  0
  -25.9316  -11.6553   20.5748 N   0  0  0  0  0  0
  -22.0452  -12.8229   22.0417 N   0  0  0  0  0  0
  -25.4169  -15.1931   20.4094 N   0  0  0  0  0  0
  -31.8320  -14.7574   20.1583 O   0  0  0  0  0  0
  -21.6640   -6.8885   21.4240 O   0  0  0  0  0  0
  -22.3507  -14.5523   20.6684 O   0  0  0  0  0  0
  -24.6285  -31.8546   23.1977 C   0  0  0  0  0  0
  -25.9118  -32.4749   23.8320 C   0  0  1  0  0  0
  -27.2253  -27.2790   20.1181 C   0  0  0  0  0  0
  -25.5932  -33.8554   24.2247 N   0  0  0  0  0  0
  -23.4241  -30.4760   21.5402 C   0  0  2  0  0  0
  -24.8698  -28.9205   20.1093 C   0  0  0  0  0  0
  -22.7488  -29.4594   22.4913 C   0  0  0  0  0  0
  -18.0290  -28.1386   22.8491 C   0  0  0  0  0  0
  -24.1484  -36.7278   23.2641 C   0  0  0  0  0  0
  -25.9678  -30.7719   21.3743 C   0  0  0  0  0  0
  -26.0391  -29.3956   20.7157 C   0  0  0  0  0  0
  -27.2147  -28.5858   20.7099 C   0  0  0  0  0  0
  -26.0289  -26.8574   19.4957 C   0  0  0  0  0  0
  -24.8689  -27.6597   19.4915 C   0  0  0  0  0  0
  -23.6397  -29.8055   20.1573 C   0  0  0  0  0  0
  -25.4115  -36.3064   24.0322 C   0  0  1  0  0  0
  -20.5893  -28.3681   23.1279 C   0  0  2  0  0  0
  -20.6775  -26.9398   22.5406 C   0  0  0  0  0  0
  -19.5737  -26.6378   21.5217 C   0  0  0  0  0  0
  -18.1923  -26.7930   22.1633 C   0  0  0  0  0  0
  -19.1544  -28.8855   23.2875 C   0  0  0  0  0  0
  -18.9464  -30.1466   23.8870 C   0  0  0  0  0  0
  -17.6459  -30.6577   24.0569 C   0  0  0  0  0  0
  -25.9055  -34.9436   23.5085 C   0  0  0  0  0  0
  -16.5351  -29.9071   23.6340 C   0  0  0  0  0  0
  -16.7278  -28.6500   23.0346 C   0  0  0  0  0  0
  -26.4501  -31.6582   25.0711 C   0  0  0  0  0  0
  -25.3742  -31.3734   26.1450 C   0  0  0  0  0  0
  -27.0351  -30.2999   24.6196 C   0  0  0  0  0  0
  -27.6043  -32.4342   25.7482 C   0  0  0  0  0  0
  -27.5577  -37.1795   24.8464 C   0  0  0  0  0  0
  -21.4194  -29.3030   22.3674 N   0  0  0  0  0  0
  -26.4288  -37.3761   23.9412 N   0  0  0  0  0  0
  -24.6925  -31.0529   22.0937 N   0  0  0  0  0  0
  -23.4204  -28.8134   23.3001 O   0  0  0  0  0  0
  -28.3604  -26.4474   20.1915 O   0  0  0  0  0  0
  -26.5611  -34.8905   22.4645 O   0  0  0  0  0  0
  -23.5440  -32.1365   23.7284 O   0  0  0  0  0  0
  -30.8767  -20.0657   19.7708 C   0  0  0  0  0  0
  -31.4014  -17.6722   19.7197 C   0  0  0  0  0  0
  -31.7476  -19.0097   19.4445 C   0  0  0  0  0  0
  -29.6265  -19.8249   20.3766 C   0  0  0  0  0  0
  -29.2948  -18.4293   20.6668 C   0  0  0  0  0  0
  -30.1836  -17.3119   20.3494 C   0  0  0  0  0  0
  -33.0841  -19.3056   18.7900 C   0  0  0  0  0  0
  -27.9658  -18.1441   21.3506 C   0  0  0  0  0  0
  -26.8159  -23.5566   20.9479 C   0  0  0  0  0  0
  -28.7421  -21.0963   20.7684 C   0  0  0  0  0  0
  -28.4508  -25.0590   19.6373 C   0  0  0  0  0  0
  -28.2960  -23.7379   20.5597 C   0  0  2  0  0  0
  -29.8780  -15.8732   20.6168 N   0  0  0  0  0  0
  -28.8983  -22.4226   20.0062 N   0  3  0  0  0  0
  -31.4680  -12.5334   19.1755 H   0  0  0  0  0  0
  -30.3481  -11.4551   19.9579 H   0  0  0  0  0  0
  -29.7877  -11.7238   17.5178 H   0  0  0  0  0  0
  -29.6445  -13.4525   17.7253 H   0  0  0  0  0  0
  -27.8881  -11.2837   18.9104 H   0  0  0  0  0  0
  -27.3766  -12.5222   17.7961 H   0  0  0  0  0  0
  -27.6353  -14.2554   19.4657 H   0  0  0  0  0  0
  -28.7075  -12.1752   21.4324 H   0  0  0  0  0  0
  -28.4226  -13.8617   21.7868 H   0  0  0  0  0  0
  -25.2770   -9.5676   22.4753 H   0  0  0  0  0  0
  -24.0001   -7.4634   22.7473 H   0  0  0  0  0  0
  -21.0845   -8.8774   19.8951 H   0  0  0  0  0  0
  -22.3710  -10.9666   19.6160 H   0  0  0  0  0  0
  -21.2005   -7.6146   23.9722 H   0  0  0  0  0  0
  -21.1483   -6.0511   25.9081 H   0  0  0  0  0  0
  -22.0597   -2.7604   23.2829 H   0  0  0  0  0  0
  -22.4055  -11.9901   22.4830 H   0  0  0  0  0  0
  -21.1061  -13.1251   22.2597 H   0  0  0  0  0  0
  -24.6383  -15.8360   20.5058 H   0  0  0  0  0  0
  -26.2454  -15.6280   20.0258 H   0  0  0  0  0  0
  -26.7183  -32.5390   23.1061 H   0  0  0  0  0  0
  -25.0143  -33.9706   25.0437 H   0  0  0  0  0  0
  -22.7202  -31.2981   21.3940 H   0  0  0  0  0  0
  -23.3749  -35.9605   23.3292 H   0  0  0  0  0  0
  -24.3588  -36.8912   22.2061 H   0  0  0  0  0  0
  -23.7232  -37.6474   23.6672 H   0  0  0  0  0  0
  -26.1076  -31.5336   20.6061 H   0  0  0  0  0  0
  -26.8466  -30.8187   22.0066 H   0  0  0  0  0  0
  -28.1122  -28.9470   21.1930 H   0  0  0  0  0  0
  -25.9485  -25.8880   19.0301 H   0  0  0  0  0  0
  -23.9695  -27.2883   19.0197 H   0  0  0  0  0  0
  -23.7617  -30.5806   19.3993 H   0  0  0  0  0  0
  -22.7586  -29.2367   19.8540 H   0  0  0  0  0  0
  -25.1297  -36.1907   25.0811 H   0  0  0  0  0  0
  -20.9992  -28.3242   24.1397 H   0  0  0  0  0  0
  -20.5669  -26.2284   23.3605 H   0  0  0  0  0  0
  -21.6639  -26.7410   22.1198 H   0  0  0  0  0  0
  -19.6879  -25.6286   21.1242 H   0  0  0  0  0  0
  -19.6674  -27.3193   20.6747 H   0  0  0  0  0  0
  -17.4197  -26.6701   21.4029 H   0  0  0  0  0  0
  -18.0297  -26.0069   22.9019 H   0  0  0  0  0  0
  -19.7938  -30.7310   24.2197 H   0  0  0  0  0  0
  -17.5005  -31.6247   24.5187 H   0  0  0  0  0  0
  -15.5347  -30.2962   23.7672 H   0  0  0  0  0  0
  -15.8686  -28.0821   22.7039 H   0  0  0  0  0  0
  -24.5910  -30.7080   25.7803 H   0  0  0  0  0  0
  -24.8951  -32.2911   26.4867 H   0  0  0  0  0  0
  -25.8091  -30.8933   27.0227 H   0  0  0  0  0  0
  -26.2930  -29.6745   24.1224 H   0  0  0  0  0  0
  -27.4044  -29.7257   25.4703 H   0  0  0  0  0  0
  -27.8796  -30.4273   23.9420 H   0  0  0  0  0  0
  -27.2630  -33.3651   26.2014 H   0  0  0  0  0  0
  -28.3870  -32.6900   25.0330 H   0  0  0  0  0  0
  -28.0692  -31.8513   26.5441 H   0  0  0  0  0  0
  -28.2582  -38.0103   24.7522 H   0  0  0  0  0  0
  -28.1083  -36.2639   24.6271 H   0  0  0  0  0  0
  -27.2301  -37.1409   25.8866 H   0  0  0  0  0  0
  -20.9362  -29.8782   21.6919 H   0  0  0  0  0  0
  -26.0159  -38.2824   24.1432 H   0  0  0  0  0  0
  -31.1932  -21.0769   19.5593 H   0  0  0  0  0  0
  -32.1207  -16.9295   19.4166 H   0  0  0  0  0  0
  -33.2839  -20.3759   18.7330 H   0  0  0  0  0  0
  -33.1058  -18.9055   17.7760 H   0  0  0  0  0  0
  -33.8969  -18.8448   19.3535 H   0  0  0  0  0  0
  -27.8898  -18.7026   22.2837 H   0  0  0  0  0  0
  -27.8282  -17.0935   21.5976 H   0  0  0  0  0  0
  -27.1371  -18.4400   20.7068 H   0  0  0  0  0  0
  -26.3987  -24.4875   21.3351 H   0  0  0  0  0  0
  -26.6888  -22.8066   21.7282 H   0  0  0  0  0  0
  -26.2101  -23.2602   20.0907 H   0  0  0  0  0  0
  -28.9370  -21.2935   21.8226 H   0  0  0  0  0  0
  -27.6925  -20.8095   20.7086 H   0  0  0  0  0  0
  -27.8386  -24.9568   18.7420 H   0  0  0  0  0  0
  -29.4667  -25.0247   19.2446 H   0  0  0  0  0  0
  -28.8490  -23.9426   21.4773 H   0  0  0  0  0  0
  -28.9270  -15.6877   20.8922 H   0  0  0  0  0  0
  -28.5458  -22.2608   19.0755 H   0  0  0  0  0  0
  -29.8889  -22.5765   19.9111 H   0  0  0  0  0  0
  1 25  1  0  0  0
  1 30  2  0  0  0
  1 83  1  0  0  0
  2  3  1  0  0  0
  2 25  1  0  0  0
  2 85  1  0  0  0
  2 86  1  0  0  0
  3  4  1  0  0  0
  3 87  1  0  0  0
  3 88  1  0  0  0
  4  5  1  0  0  0
  4 89  1  0  0  0
  4 90  1  0  0  0
  5  6  1  0  0  0
  5 26  1  0  0  0
  5 91  1  0  0  0
  6 25  1  0  0  0
  6 92  1  0  0  0
  6 93  1  0  0  0
  7  8  2  0  0  0
  7 26  1  0  0  0
  7 29  1  0  0  0
  8  9  1  0  0  0
  8 22  1  0  0  0
  9 10  1  0  0  0
  9 27  2  0  0  0
 10 11  2  0  0  0
 10 15  1  0  0  0
 11 12  1  0  0  0
 11 94  1  0  0  0
 12 13  2  0  0  0
 12 95  1  0  0  0
 13 14  1  0  0  0
 13 31  1  0  0  0
 14 15  2  0  0  0
 14 96  1  0  0  0
 15 97  1  0  0  0
 16 17  2  0  0  0
 16 21  1  0  0  0
 16 31  1  0  0  0
 17 18  1  0  0  0
 17 98  1  0  0  0
 18 19  2  0  0  0
 18 99  1  0  0  0
 19 20  1  0  0  0
 19 24  1  0  0  0
 20 21  2  0  0  0
 20100  1  0  0  0
 21 23  1  0  0  0
 22 28  1  0  0  0
 22 32  2  0  0  0
 26 27  1  0  0  0
 28101  1  0  0  0
 28102  1  0  0  0
 29103  1  0  0  0
 29104  1  0  0  0
 33 34  1  0  0  0
 33 66  1  0  0  0
 33 70  2  0  0  0
 34 36  1  0  0  0
 34 59  1  0  0  0
 34105  1  0  0  0
 35 44  2  0  0  0
 35 45  1  0  0  0
 35 68  1  0  0  0
 36 56  1  0  0  0
 36106  1  0  0  0
 37 39  1  0  0  0
 37 47  1  0  0  0
 37 66  1  0  0  0
 37107  1  0  0  0
 38 43  2  0  0  0
 38 46  1  0  0  0
 38 47  1  0  0  0
 39 64  1  0  0  0
 39 67  2  0  0  0
 40 52  1  0  0  0
 40 53  2  0  0  0
 40 58  1  0  0  0
 41108  1  0  0  0
 41109  1  0  0  0
 41110  1  0  0  0
 41 48  1  0  0  0
 42 43  1  0  0  0
 42 66  1  0  0  0
 42111  1  0  0  0
 42112  1  0  0  0
 43 44  1  0  0  0
 44113  1  0  0  0
 45 46  2  0  0  0
 45114  1  0  0  0
 46115  1  0  0  0
 47116  1  0  0  0
 47117  1  0  0  0
 48 56  1  0  0  0
 48 65  1  0  0  0
 48118  1  0  0  0
 49 50  1  0  0  0
 49 53  1  0  0  0
 49 64  1  0  0  0
 49119  1  0  0  0
 50 51  1  0  0  0
 50120  1  0  0  0
 50121  1  0  0  0
 51 52  1  0  0  0
 51122  1  0  0  0
 51123  1  0  0  0
 52124  1  0  0  0
 52125  1  0  0  0
 53 54  1  0  0  0
 54 55  2  0  0  0
 54126  1  0  0  0
 55 57  1  0  0  0
 55127  1  0  0  0
 56 69  2  0  0  0
 57 58  2  0  0  0
 57128  1  0  0  0
 58129  1  0  0  0
 59 60  1  0  0  0
 59 61  1  0  0  0
 59 62  1  0  0  0
 60130  1  0  0  0
 60131  1  0  0  0
 60132  1  0  0  0
 61133  1  0  0  0
 61134  1  0  0  0
 61135  1  0  0  0
 62136  1  0  0  0
 62137  1  0  0  0
 62138  1  0  0  0
 63 65  1  0  0  0
 63139  1  0  0  0
 63140  1  0  0  0
 63141  1  0  0  0
 64142  1  0  0  0
 65143  1  0  0  0
 68 81  1  0  0  0
 71 73  2  0  0  0
 71 74  1  0  0  0
 71144  1  0  0  0
 72 73  1  0  0  0
 72 76  2  0  0  0
 72145  1  0  0  0
 73 77  1  0  0  0
 74 75  2  0  0  0
 74 80  1  0  0  0
 75 76  1  0  0  0
 75 78  1  0  0  0
 76 83  1  0  0  0
 77146  1  0  0  0
 77147  1  0  0  0
 77148  1  0  0  0
 78149  1  0  0  0
 78150  1  0  0  0
 78151  1  0  0  0
 79152  1  0  0  0
 79153  1  0  0  0
 79154  1  0  0  0
 79 82  1  0  0  0
 80 84  1  0  0  0
 80155  1  0  0  0
 80156  1  0  0  0
 81 82  1  0  0  0
 81157  1  0  0  0
 81158  1  0  0  0
 82 84  1  0  0  0
 82159  1  0  0  0
 83160  1  0  0  0
 84161  1  0  0  0
 84162  1  0  0  0
M  CHG  1  84   1
M  ISO  4   1 100  68 101  81 101  83 100
M  END
> <chiral flag>
0

> <version>
0

> <s_m_source_file>
/data/baiqing/PycharmProjects/Reinvent-master-3.2/result/LINK_invent/BTK/process_docking_weight1_custom_sum_contain_oxygen_bond_distance_aromatic_linkinvent_7_9_3/rearranged_h_0015.sdf

> <i_m_source_file_index>
61

> <r_mmod_Potential_Energy-OPLS-2005>
-8.37254047393799

> <r_mmod_Stretch_Energy-OPLS-2005>
122.493225097656

> <r_mmod_Bend_Energy-OPLS-2005>
170.706527709961

> <r_mmod_Torsional_Energy-OPLS-2005>
209.520309448242

> <r_mmod_Improper_Torsional_Energy-OPLS-2005>
4.64677000045776

> <r_mmod_Van_der_Waal_Energy-OPLS-2005>
139.96142578125

> <r_mmod_Electrostatic_Energy-OPLS-2005>
-274.779571533203

> <r_mmod_Solvation_Energy-OPLS-2005>
-453.580444335938

> <b_mmod_Minimization_Converged-OPLS-2005>
0

> <r_mmod_RMS_Derivative-OPLS-2005>
1.39745652675629

$$$$
62
                    3D
 Structure written by MMmdl.
159167  0  0  1  0            999 V2000
  -30.6173  -14.7089   20.4511 C   0  0  0  0  0  0
  -30.4332  -12.4252   19.4794 C   0  0  0  0  0  0
  -29.5131  -12.4965   18.2405 C   0  0  0  0  0  0
  -28.0373  -12.3307   18.6502 C   0  0  0  0  0  0
  -27.6469  -13.2285   19.8543 C   0  0  2  0  0  0
  -28.6884  -13.1438   20.9924 C   0  0  0  0  0  0
  -25.2531  -13.8195   20.5695 C   0  0  0  0  0  0
  -24.1813  -13.0445   20.9201 C   0  0  0  0  0  0
  -24.6396  -11.6920   20.8739 C   0  0  0  0  0  0
  -23.9070  -10.4297   21.0402 C   0  0  0  0  0  0
  -24.3620   -9.4210   21.9180 C   0  0  0  0  0  0
  -23.6294   -8.2246   22.0751 C   0  0  0  0  0  0
  -22.4277   -8.0283   21.3539 C   0  0  0  0  0  0
  -21.9916   -9.0255   20.4639 C   0  0  0  0  0  0
  -22.7246  -10.2134   20.3049 C   0  0  0  0  0  0
  -21.6854   -6.0737   22.5277 C   0  0  0  0  0  0
  -21.4014   -6.5639   23.8211 C   0  0  0  0  0  0
  -21.3659   -5.6789   24.9172 C   0  0  0  0  0  0
  -21.6046   -4.3051   24.7221 C   0  0  0  0  0  0
  -21.8821   -3.8145   23.4342 C   0  0  0  0  0  0
  -21.9194   -4.6964   22.3399 C   0  0  0  0  0  0
  -22.7833  -13.5224   21.1862 C   0  0  0  0  0  0
  -22.1663   -4.2150   21.0975 F   0  0  0  0  0  0
  -21.5630   -3.4536   25.7733 F   0  0  0  0  0  0
  -29.9993  -13.4809   20.4223 N   0  0  0  0  0  0
  -26.2959  -12.9399   20.3286 N   0  0  0  0  0  0
  -25.9327  -11.6543   20.5751 N   0  0  0  0  0  0
  -22.0481  -12.8206   22.0414 N   0  0  0  0  0  0
  -25.4236  -15.1922   20.4112 N   0  0  0  0  0  0
  -31.7993  -14.8141   20.1105 O   0  0  0  0  0  0
  -21.6639   -6.8880   21.4237 O   0  0  0  0  0  0
  -22.3518  -14.5535   20.6720 O   0  0  0  0  0  0
  -24.6295  -31.8572   23.2000 C   0  0  0  0  0  0
  -25.9131  -32.4765   23.8335 C   0  0  1  0  0  0
  -27.2148  -27.2743   20.1192 C   0  0  0  0  0  0
  -25.5922  -33.8563   24.2256 N   0  0  0  0  0  0
  -23.4248  -30.4800   21.5445 C   0  0  2  0  0  0
  -24.8712  -28.9344   20.1070 C   0  0  0  0  0  0
  -22.7499  -29.4605   22.4933 C   0  0  0  0  0  0
  -18.0281  -28.1387   22.8480 C   0  0  0  0  0  0
  -24.1491  -36.7291   23.2639 C   0  0  0  0  0  0
  -25.9696  -30.7724   21.3800 C   0  0  0  0  0  0
  -26.0413  -29.3962   20.7217 C   0  0  0  0  0  0
  -27.2147  -28.5767   20.7225 C   0  0  0  0  0  0
  -26.0264  -26.8922   19.4519 C   0  0  0  0  0  0
  -24.8681  -27.6905   19.4617 C   0  0  0  0  0  0
  -23.6409  -29.8179   20.1588 C   0  0  0  0  0  0
  -25.4114  -36.3075   24.0323 C   0  0  1  0  0  0
  -20.5884  -28.3697   23.1278 C   0  0  2  0  0  0
  -20.6770  -26.9416   22.5412 C   0  0  0  0  0  0
  -19.5745  -26.6388   21.5212 C   0  0  0  0  0  0
  -18.1926  -26.7928   22.1623 C   0  0  0  0  0  0
  -19.1536  -28.8858   23.2867 C   0  0  0  0  0  0
  -18.9459  -30.1456   23.8889 C   0  0  0  0  0  0
  -17.6460  -30.6589   24.0561 C   0  0  0  0  0  0
  -25.9054  -34.9448   23.5097 C   0  0  0  0  0  0
  -16.5349  -29.9087   23.6330 C   0  0  0  0  0  0
  -16.7268  -28.6511   23.0338 C   0  0  0  0  0  0
  -26.4499  -31.6590   25.0724 C   0  0  0  0  0  0
  -25.3703  -31.3738   26.1431 C   0  0  0  0  0  0
  -27.0351  -30.3001   24.6214 C   0  0  0  0  0  0
  -27.6051  -32.4336   25.7493 C   0  0  0  0  0  0
  -27.5583  -37.1789   24.8456 C   0  0  0  0  0  0
  -21.4207  -29.3046   22.3685 N   0  0  0  0  0  0
  -26.4289  -37.3773   23.9411 N   0  0  0  0  0  0
  -24.6935  -31.0546   22.0975 N   0  0  0  0  0  0
  -23.4208  -28.8139   23.3023 O   0  0  0  0  0  0
  -28.3087  -26.3822   20.2021 O   0  0  0  0  0  0
  -26.5648  -34.8924   22.4677 O   0  0  0  0  0  0
  -23.5450  -32.1402   23.7305 O   0  0  0  0  0  0
  -29.9568  -19.7361   18.7959 C   0  0  0  0  0  0
  -30.2197  -18.5396   18.1026 C   0  0  0  0  0  0
  -29.6376  -19.7345   20.1695 C   0  0  0  0  0  0
  -29.6184  -18.4306   20.8317 C   0  0  0  0  0  0
  -29.9178  -17.1826   20.1338 C   0  0  0  0  0  0
  -30.1929  -17.2887   18.7467 C   0  0  0  0  0  0
  -29.3035  -18.3794   22.3191 C   0  0  0  0  0  0
  -28.7060  -23.8568   22.1711 C   0  0  0  0  0  0
  -29.4487  -21.1521   20.8792 C   0  0  0  0  0  0
  -28.1057  -24.9197   19.9175 C   0  0  0  0  0  0
  -28.9773  -23.7777   20.6546 C   0  0  2  0  0  0
  -29.8529  -15.8268   20.7331 N   0  0  0  0  0  0
  -28.8091  -22.3310   20.1316 N   0  3  0  0  0  0
  -30.3949  -16.1815   17.9917 F   0  0  0  0  0  0
  -31.4760  -12.5409   19.1786 H   0  0  0  0  0  0
  -30.3683  -11.4454   19.9548 H   0  0  0  0  0  0
  -29.7891  -11.7230   17.5222 H   0  0  0  0  0  0
  -29.6503  -13.4520   17.7317 H   0  0  0  0  0  0
  -27.8868  -11.2821   18.9104 H   0  0  0  0  0  0
  -27.3827  -12.5278   17.8004 H   0  0  0  0  0  0
  -27.6488  -14.2528   19.4808 H   0  0  0  0  0  0
  -28.7095  -12.1425   21.4245 H   0  0  0  0  0  0
  -28.4263  -13.8201   21.8076 H   0  0  0  0  0  0
  -25.2762   -9.5688   22.4758 H   0  0  0  0  0  0
  -24.0003   -7.4638   22.7472 H   0  0  0  0  0  0
  -21.0850   -8.8770   19.8942 H   0  0  0  0  0  0
  -22.3701  -10.9670   19.6157 H   0  0  0  0  0  0
  -21.2003   -7.6144   23.9714 H   0  0  0  0  0  0
  -21.1481   -6.0518   25.9077 H   0  0  0  0  0  0
  -22.0602   -2.7609   23.2839 H   0  0  0  0  0  0
  -22.4092  -11.9857   22.4788 H   0  0  0  0  0  0
  -21.1096  -13.1222   22.2619 H   0  0  0  0  0  0
  -24.6555  -15.8457   20.5190 H   0  0  0  0  0  0
  -26.2714  -15.6300   20.0743 H   0  0  0  0  0  0
  -26.7199  -32.5421   23.1079 H   0  0  0  0  0  0
  -25.0008  -33.9687   25.0358 H   0  0  0  0  0  0
  -22.7201  -31.3016   21.4015 H   0  0  0  0  0  0
  -23.3757  -35.9619   23.3282 H   0  0  0  0  0  0
  -24.3587  -36.8942   22.2059 H   0  0  0  0  0  0
  -23.7241  -37.6479   23.6687 H   0  0  0  0  0  0
  -26.1069  -31.5337   20.6109 H   0  0  0  0  0  0
  -26.8476  -30.8207   22.0126 H   0  0  0  0  0  0
  -28.1081  -28.9207   21.2254 H   0  0  0  0  0  0
  -25.9517  -25.9579   18.9171 H   0  0  0  0  0  0
  -23.9752  -27.3387   18.9629 H   0  0  0  0  0  0
  -23.7623  -30.5957   19.4039 H   0  0  0  0  0  0
  -22.7594  -29.2491   19.8566 H   0  0  0  0  0  0
  -25.1291  -36.1920   25.0813 H   0  0  0  0  0  0
  -20.9952  -28.3283   24.1406 H   0  0  0  0  0  0
  -20.5683  -26.2304   23.3615 H   0  0  0  0  0  0
  -21.6638  -26.7456   22.1196 H   0  0  0  0  0  0
  -19.6911  -25.6300   21.1242 H   0  0  0  0  0  0
  -19.6681  -27.3204   20.6745 H   0  0  0  0  0  0
  -17.4188  -26.6663   21.4029 H   0  0  0  0  0  0
  -18.0322  -26.0075   22.9023 H   0  0  0  0  0  0
  -19.7941  -30.7264   24.2264 H   0  0  0  0  0  0
  -17.5019  -31.6264   24.5178 H   0  0  0  0  0  0
  -15.5353  -30.2985   23.7665 H   0  0  0  0  0  0
  -15.8664  -28.0839   22.7045 H   0  0  0  0  0  0
  -24.5894  -30.7072   25.7749 H   0  0  0  0  0  0
  -24.8860  -32.2901   26.4817 H   0  0  0  0  0  0
  -25.7989  -30.8943   27.0238 H   0  0  0  0  0  0
  -26.2940  -29.6737   24.1232 H   0  0  0  0  0  0
  -27.4019  -29.7277   25.4747 H   0  0  0  0  0  0
  -27.8825  -30.4267   23.9471 H   0  0  0  0  0  0
  -27.2666  -33.3665   26.2015 H   0  0  0  0  0  0
  -28.3878  -32.6850   25.0322 H   0  0  0  0  0  0
  -28.0694  -31.8488   26.5445 H   0  0  0  0  0  0
  -28.2569  -38.0120   24.7546 H   0  0  0  0  0  0
  -28.1109  -36.2644   24.6226 H   0  0  0  0  0  0
  -27.2300  -37.1366   25.8859 H   0  0  0  0  0  0
  -20.9398  -29.8790   21.6902 H   0  0  0  0  0  0
  -26.0169  -38.2844   24.1426 H   0  0  0  0  0  0
  -30.0169  -20.6651   18.2476 H   0  0  0  0  0  0
  -30.4445  -18.5775   17.0467 H   0  0  0  0  0  0
  -29.9948  -19.0114   22.8769 H   0  0  0  0  0  0
  -29.3828  -17.3751   22.7336 H   0  0  0  0  0  0
  -28.2886  -18.7315   22.5052 H   0  0  0  0  0  0
  -28.8544  -24.8738   22.5366 H   0  0  0  0  0  0
  -29.3759  -23.2174   22.7464 H   0  0  0  0  0  0
  -27.6800  -23.5727   22.4095 H   0  0  0  0  0  0
  -30.4443  -21.4679   21.1914 H   0  0  0  0  0  0
  -28.8830  -21.0089   21.7993 H   0  0  0  0  0  0
  -27.0751  -24.6509   20.1457 H   0  0  0  0  0  0
  -28.2175  -24.7971   18.8395 H   0  0  0  0  0  0
  -30.0257  -24.0322   20.4948 H   0  0  0  0  0  0
  -28.9973  -15.6281   21.2269 H   0  0  0  0  0  0
  -27.8254  -22.1207   20.0599 H   0  0  0  0  0  0
  -29.1699  -22.3115   19.1911 H   0  0  0  0  0  0
  1 25  1  0  0  0
  1 30  2  0  0  0
  1 82  1  0  0  0
  2  3  1  0  0  0
  2 25  1  0  0  0
  2 85  1  0  0  0
  2 86  1  0  0  0
  3  4  1  0  0  0
  3 87  1  0  0  0
  3 88  1  0  0  0
  4  5  1  0  0  0
  4 89  1  0  0  0
  4 90  1  0  0  0
  5  6  1  0  0  0
  5 26  1  0  0  0
  5 91  1  0  0  0
  6 25  1  0  0  0
  6 92  1  0  0  0
  6 93  1  0  0  0
  7  8  2  0  0  0
  7 26  1  0  0  0
  7 29  1  0  0  0
  8  9  1  0  0  0
  8 22  1  0  0  0
  9 10  1  0  0  0
  9 27  2  0  0  0
 10 11  2  0  0  0
 10 15  1  0  0  0
 11 12  1  0  0  0
 11 94  1  0  0  0
 12 13  2  0  0  0
 12 95  1  0  0  0
 13 14  1  0  0  0
 13 31  1  0  0  0
 14 15  2  0  0  0
 14 96  1  0  0  0
 15 97  1  0  0  0
 16 17  2  0  0  0
 16 21  1  0  0  0
 16 31  1  0  0  0
 17 18  1  0  0  0
 17 98  1  0  0  0
 18 19  2  0  0  0
 18 99  1  0  0  0
 19 20  1  0  0  0
 19 24  1  0  0  0
 20 21  2  0  0  0
 20100  1  0  0  0
 21 23  1  0  0  0
 22 28  1  0  0  0
 22 32  2  0  0  0
 26 27  1  0  0  0
 28101  1  0  0  0
 28102  1  0  0  0
 29103  1  0  0  0
 29104  1  0  0  0
 33 34  1  0  0  0
 33 66  1  0  0  0
 33 70  2  0  0  0
 34 36  1  0  0  0
 34 59  1  0  0  0
 34105  1  0  0  0
 35 44  2  0  0  0
 35 45  1  0  0  0
 35 68  1  0  0  0
 36 56  1  0  0  0
 36106  1  0  0  0
 37 39  1  0  0  0
 37 47  1  0  0  0
 37 66  1  0  0  0
 37107  1  0  0  0
 38 43  2  0  0  0
 38 46  1  0  0  0
 38 47  1  0  0  0
 39 64  1  0  0  0
 39 67  2  0  0  0
 40 52  1  0  0  0
 40 53  2  0  0  0
 40 58  1  0  0  0
 41108  1  0  0  0
 41109  1  0  0  0
 41110  1  0  0  0
 41 48  1  0  0  0
 42 43  1  0  0  0
 42 66  1  0  0  0
 42111  1  0  0  0
 42112  1  0  0  0
 43 44  1  0  0  0
 44113  1  0  0  0
 45 46  2  0  0  0
 45114  1  0  0  0
 46115  1  0  0  0
 47116  1  0  0  0
 47117  1  0  0  0
 48 56  1  0  0  0
 48 65  1  0  0  0
 48118  1  0  0  0
 49 50  1  0  0  0
 49 53  1  0  0  0
 49 64  1  0  0  0
 49119  1  0  0  0
 50 51  1  0  0  0
 50120  1  0  0  0
 50121  1  0  0  0
 51 52  1  0  0  0
 51122  1  0  0  0
 51123  1  0  0  0
 52124  1  0  0  0
 52125  1  0  0  0
 53 54  1  0  0  0
 54 55  2  0  0  0
 54126  1  0  0  0
 55 57  1  0  0  0
 55127  1  0  0  0
 56 69  2  0  0  0
 57 58  2  0  0  0
 57128  1  0  0  0
 58129  1  0  0  0
 59 60  1  0  0  0
 59 61  1  0  0  0
 59 62  1  0  0  0
 60130  1  0  0  0
 60131  1  0  0  0
 60132  1  0  0  0
 61133  1  0  0  0
 61134  1  0  0  0
 61135  1  0  0  0
 62136  1  0  0  0
 62137  1  0  0  0
 62138  1  0  0  0
 63 65  1  0  0  0
 63139  1  0  0  0
 63140  1  0  0  0
 63141  1  0  0  0
 64142  1  0  0  0
 65143  1  0  0  0
 68 80  1  0  0  0
 71 72  2  0  0  0
 71 73  1  0  0  0
 71144  1  0  0  0
 72 76  1  0  0  0
 72145  1  0  0  0
 73 74  2  0  0  0
 73 79  1  0  0  0
 74 75  1  0  0  0
 74 77  1  0  0  0
 75 76  2  0  0  0
 75 82  1  0  0  0
 76 84  1  0  0  0
 77146  1  0  0  0
 77147  1  0  0  0
 77148  1  0  0  0
 78149  1  0  0  0
 78150  1  0  0  0
 78151  1  0  0  0
 78 81  1  0  0  0
 79 83  1  0  0  0
 79152  1  0  0  0
 79153  1  0  0  0
 80 81  1  0  0  0
 80154  1  0  0  0
 80155  1  0  0  0
 81 83  1  0  0  0
 81156  1  0  0  0
 82157  1  0  0  0
 83158  1  0  0  0
 83159  1  0  0  0
M  CHG  1  83   1
M  ISO  4   1 100  68 101  80 101  82 100
M  END
> <chiral flag>
0

> <version>
0

> <s_m_source_file>
/data/baiqing/PycharmProjects/Reinvent-master-3.2/result/LINK_invent/BTK/process_docking_weight1_custom_sum_contain_oxygen_bond_distance_aromatic_linkinvent_7_9_3/rearranged_h_0015.sdf

> <i_m_source_file_index>
62

> <r_mmod_Potential_Energy-OPLS-2005>
-22.5715465545654

> <r_mmod_Stretch_Energy-OPLS-2005>
117.703689575195

> <r_mmod_Bend_Energy-OPLS-2005>
149.216522216797

> <r_mmod_Torsional_Energy-OPLS-2005>
237.300750732422

> <r_mmod_Improper_Torsional_Energy-OPLS-2005>
4.57406568527222

> <r_mmod_Van_der_Waal_Energy-OPLS-2005>
144.400329589844

> <r_mmod_Electrostatic_Energy-OPLS-2005>
-277.479400634766

> <r_mmod_Solvation_Energy-OPLS-2005>
-473.803375244141

> <b_mmod_Minimization_Converged-OPLS-2005>
0

> <r_mmod_RMS_Derivative-OPLS-2005>
1.13630878925323

$$$$
63
                    3D
 Structure written by MMmdl.
152160  0  0  1  0            999 V2000
  -30.5343  -14.9806   20.4766 C   0  0  0  0  0  0
  -30.4474  -12.6269   19.4962 C   0  0  0  0  0  0
  -29.5265  -12.5547   18.2535 C   0  0  0  0  0  0
  -28.0563  -12.3302   18.6590 C   0  0  0  0  0  0
  -27.6316  -13.2416   19.8383 C   0  0  2  0  0  0
  -28.6724  -13.2040   20.9706 C   0  0  0  0  0  0
  -25.2480  -13.8200   20.5679 C   0  0  0  0  0  0
  -24.1789  -13.0433   20.9203 C   0  0  0  0  0  0
  -24.6396  -11.6917   20.8726 C   0  0  0  0  0  0
  -23.9068  -10.4297   21.0396 C   0  0  0  0  0  0
  -24.3625   -9.4215   21.9172 C   0  0  0  0  0  0
  -23.6303   -8.2248   22.0746 C   0  0  0  0  0  0
  -22.4281   -8.0286   21.3543 C   0  0  0  0  0  0
  -21.9912   -9.0255   20.4643 C   0  0  0  0  0  0
  -22.7239  -10.2133   20.3047 C   0  0  0  0  0  0
  -21.6867   -6.0746   22.5291 C   0  0  0  0  0  0
  -21.4017   -6.5644   23.8226 C   0  0  0  0  0  0
  -21.3653   -5.6789   24.9182 C   0  0  0  0  0  0
  -21.6037   -4.3052   24.7224 C   0  0  0  0  0  0
  -21.8814   -3.8150   23.4343 C   0  0  0  0  0  0
  -21.9197   -4.6971   22.3406 C   0  0  0  0  0  0
  -22.7808  -13.5215   21.1879 C   0  0  0  0  0  0
  -22.1660   -4.2161   21.0978 F   0  0  0  0  0  0
  -21.5630   -3.4531   25.7730 F   0  0  0  0  0  0
  -29.9396  -13.7065   20.4035 N   0  0  0  0  0  0
  -26.2883  -12.9413   20.3187 N   0  0  0  0  0  0
  -25.9319  -11.6549   20.5682 N   0  0  0  0  0  0
  -22.0450  -12.8219   22.0438 N   0  0  0  0  0  0
  -25.4172  -15.1931   20.4132 N   0  0  0  0  0  0
  -31.7111  -15.0373   20.1022 O   0  0  0  0  0  0
  -21.6645   -6.8886   21.4253 O   0  0  0  0  0  0
  -22.3484  -14.5519   20.6725 O   0  0  0  0  0  0
  -24.6457  -31.8429   23.1869 C   0  0  0  0  0  0
  -25.9214  -32.4688   23.8272 C   0  0  1  0  0  0
  -27.2176  -27.1187   20.1469 C   0  0  0  0  0  0
  -25.5953  -33.8499   24.2186 N   0  0  0  0  0  0
  -23.4502  -30.4624   21.5340 C   0  0  2  0  0  0
  -24.8985  -28.8857   20.1139 C   0  0  0  0  0  0
  -22.7579  -29.4544   22.4858 C   0  0  0  0  0  0
  -18.0308  -28.1393   22.8483 C   0  0  0  0  0  0
  -24.1492  -36.7258   23.2645 C   0  0  0  0  0  0
  -26.0090  -30.7098   21.3894 C   0  0  0  0  0  0
  -26.0787  -29.3198   20.7301 C   0  0  0  0  0  0
  -27.2397  -28.4546   20.7266 C   0  0  0  0  0  0
  -26.0065  -26.7910   19.4969 C   0  0  0  0  0  0
  -24.8753  -27.6341   19.4836 C   0  0  0  0  0  0
  -23.6779  -29.7919   20.1547 C   0  0  0  0  0  0
  -25.4124  -36.3031   24.0313 C   0  0  1  0  0  0
  -20.5922  -28.3720   23.1228 C   0  0  2  0  0  0
  -20.6792  -26.9419   22.5406 C   0  0  0  0  0  0
  -19.5763  -26.6377   21.5217 C   0  0  0  0  0  0
  -18.1944  -26.7932   22.1627 C   0  0  0  0  0  0
  -19.1566  -28.8875   23.2850 C   0  0  0  0  0  0
  -18.9483  -30.1471   23.8872 C   0  0  0  0  0  0
  -17.6478  -30.6590   24.0558 C   0  0  0  0  0  0
  -25.9074  -34.9404   23.5059 C   0  0  0  0  0  0
  -16.5368  -29.9080   23.6338 C   0  0  0  0  0  0
  -16.7291  -28.6499   23.0356 C   0  0  0  0  0  0
  -26.4521  -31.6564   25.0725 C   0  0  0  0  0  0
  -25.3698  -31.3770   26.1416 C   0  0  0  0  0  0
  -27.0393  -30.2955   24.6327 C   0  0  0  0  0  0
  -27.6036  -32.4346   25.7513 C   0  0  0  0  0  0
  -27.5577  -37.1784   24.8462 C   0  0  0  0  0  0
  -21.4271  -29.3047   22.3605 N   0  0  0  0  0  0
  -26.4289  -37.3744   23.9402 N   0  0  0  0  0  0
  -24.7217  -31.0267   22.0914 N   0  0  0  0  0  0
  -23.4215  -28.8094   23.3016 O   0  0  0  0  0  0
  -28.2716  -26.1264   20.1922 O   0  0  0  0  0  0
  -26.5668  -34.8900   22.4643 O   0  0  0  0  0  0
  -23.5570  -32.1315   23.7071 O   0  0  0  0  0  0
  -29.2035  -18.8715   20.6442 C   0  0  0  0  0  0
  -30.5229  -20.2814   19.2305 C   0  0  0  0  0  0
  -30.9847  -17.9556   19.3373 C   0  0  0  0  0  0
  -29.4459  -20.2476   20.1333 C   0  0  0  0  0  0
  -29.9780  -17.6481   20.2798 C   0  0  0  0  0  0
  -29.0223  -16.1452   22.0364 C   0  0  0  0  0  0
  -28.5733  -21.6339   20.4161 C   0  0  0  0  0  0
  -29.0287  -23.2568   20.1878 C   0  0  0  0  0  0
  -27.9732  -24.5870   20.1831 C   0  0  0  0  0  0
  -31.2456  -19.1974   18.8498 N   0  0  0  0  0  0
  -29.8136  -16.1950   20.8021 N   0  0  0  0  0  0
  -31.4747  -12.8061   19.1746 H   0  0  0  0  0  0
  -30.4753  -11.6651   20.0109 H   0  0  0  0  0  0
  -29.8570  -11.7596   17.5833 H   0  0  0  0  0  0
  -29.6080  -13.4841   17.6883 H   0  0  0  0  0  0
  -27.9500  -11.2845   18.9487 H   0  0  0  0  0  0
  -27.3966  -12.4765   17.8025 H   0  0  0  0  0  0
  -27.6095  -14.2587   19.4452 H   0  0  0  0  0  0
  -28.7854  -12.1839   21.3409 H   0  0  0  0  0  0
  -28.3163  -13.7575   21.8307 H   0  0  0  0  0  0
  -25.2771   -9.5706   22.4745 H   0  0  0  0  0  0
  -24.0031   -7.4636   22.7452 H   0  0  0  0  0  0
  -21.0849   -8.8762   19.8946 H   0  0  0  0  0  0
  -22.3690  -10.9669   19.6158 H   0  0  0  0  0  0
  -21.2004   -7.6150   23.9739 H   0  0  0  0  0  0
  -21.1484   -6.0512   25.9091 H   0  0  0  0  0  0
  -22.0598   -2.7615   23.2838 H   0  0  0  0  0  0
  -22.4068  -11.9914   22.4888 H   0  0  0  0  0  0
  -21.1058  -13.1247   22.2594 H   0  0  0  0  0  0
  -24.6531  -15.8487   20.5340 H   0  0  0  0  0  0
  -26.2744  -15.6347   20.1056 H   0  0  0  0  0  0
  -26.7280  -32.5287   23.1000 H   0  0  0  0  0  0
  -25.0050  -33.9607   25.0299 H   0  0  0  0  0  0
  -22.7530  -31.2887   21.3786 H   0  0  0  0  0  0
  -23.3756  -35.9589   23.3293 H   0  0  0  0  0  0
  -24.3586  -36.8911   22.2065 H   0  0  0  0  0  0
  -23.7237  -37.6446   23.6694 H   0  0  0  0  0  0
  -26.1704  -31.4641   20.6177 H   0  0  0  0  0  0
  -26.8771  -30.7583   22.0355 H   0  0  0  0  0  0
  -28.1393  -28.7848   21.2268 H   0  0  0  0  0  0
  -25.8923  -25.8426   18.9973 H   0  0  0  0  0  0
  -23.9743  -27.2942   18.9913 H   0  0  0  0  0  0
  -23.8173  -30.5664   19.3990 H   0  0  0  0  0  0
  -22.7917  -29.2371   19.8424 H   0  0  0  0  0  0
  -25.1314  -36.1869   25.0808 H   0  0  0  0  0  0
  -21.0013  -28.3310   24.1351 H   0  0  0  0  0  0
  -20.5687  -26.2332   23.3629 H   0  0  0  0  0  0
  -21.6652  -26.7423   22.1195 H   0  0  0  0  0  0
  -19.6917  -25.6283   21.1258 H   0  0  0  0  0  0
  -19.6691  -27.3176   20.6737 H   0  0  0  0  0  0
  -17.4210  -26.6678   21.4031 H   0  0  0  0  0  0
  -18.0333  -26.0084   22.9033 H   0  0  0  0  0  0
  -19.7957  -30.7302   24.2218 H   0  0  0  0  0  0
  -17.5026  -31.6263   24.5167 H   0  0  0  0  0  0
  -15.5363  -30.2969   23.7677 H   0  0  0  0  0  0
  -15.8692  -28.0809   22.7078 H   0  0  0  0  0  0
  -24.5835  -30.7175   25.7721 H   0  0  0  0  0  0
  -24.8939  -32.2968   26.4828 H   0  0  0  0  0  0
  -25.7960  -30.8923   27.0207 H   0  0  0  0  0  0
  -26.3019  -29.6669   24.1317 H   0  0  0  0  0  0
  -27.3976  -29.7268   25.4917 H   0  0  0  0  0  0
  -27.8941  -30.4187   23.9672 H   0  0  0  0  0  0
  -27.2595  -33.3639   26.2067 H   0  0  0  0  0  0
  -28.3850  -32.6930   25.0354 H   0  0  0  0  0  0
  -28.0701  -31.8504   26.5455 H   0  0  0  0  0  0
  -28.2580  -38.0094   24.7513 H   0  0  0  0  0  0
  -28.1086  -36.2621   24.6284 H   0  0  0  0  0  0
  -27.2300  -37.1427   25.8867 H   0  0  0  0  0  0
  -20.9481  -29.8776   21.6796 H   0  0  0  0  0  0
  -26.0158  -38.2816   24.1406 H   0  0  0  0  0  0
  -28.3787  -18.7593   21.3317 H   0  0  0  0  0  0
  -30.8055  -21.2149   18.7667 H   0  0  0  0  0  0
  -31.6351  -17.1906   18.9448 H   0  0  0  0  0  0
  -27.9671  -15.9811   21.8161 H   0  0  0  0  0  0
  -29.1008  -17.0682   22.6093 H   0  0  0  0  0  0
  -29.3741  -15.3765   22.7269 H   0  0  0  0  0  0
  -28.2245  -21.5548   21.4460 H   0  0  0  0  0  0
  -27.6698  -21.5004   19.8209 H   0  0  0  0  0  0
  -29.5448  -23.3014   19.2289 H   0  0  0  0  0  0
  -29.8032  -23.4691   20.9245 H   0  0  0  0  0  0
  -27.2965  -24.4339   21.0242 H   0  0  0  0  0  0
  -27.3647  -24.4048   19.2998 H   0  0  0  0  0  0
  1 25  1  0  0  0
  1 30  2  0  0  0
  1 81  1  0  0  0
  2  3  1  0  0  0
  2 25  1  0  0  0
  2 82  1  0  0  0
  2 83  1  0  0  0
  3  4  1  0  0  0
  3 84  1  0  0  0
  3 85  1  0  0  0
  4  5  1  0  0  0
  4 86  1  0  0  0
  4 87  1  0  0  0
  5  6  1  0  0  0
  5 26  1  0  0  0
  5 88  1  0  0  0
  6 25  1  0  0  0
  6 89  1  0  0  0
  6 90  1  0  0  0
  7  8  2  0  0  0
  7 26  1  0  0  0
  7 29  1  0  0  0
  8  9  1  0  0  0
  8 22  1  0  0  0
  9 10  1  0  0  0
  9 27  2  0  0  0
 10 11  2  0  0  0
 10 15  1  0  0  0
 11 12  1  0  0  0
 11 91  1  0  0  0
 12 13  2  0  0  0
 12 92  1  0  0  0
 13 14  1  0  0  0
 13 31  1  0  0  0
 14 15  2  0  0  0
 14 93  1  0  0  0
 15 94  1  0  0  0
 16 17  2  0  0  0
 16 21  1  0  0  0
 16 31  1  0  0  0
 17 18  1  0  0  0
 17 95  1  0  0  0
 18 19  2  0  0  0
 18 96  1  0  0  0
 19 20  1  0  0  0
 19 24  1  0  0  0
 20 21  2  0  0  0
 20 97  1  0  0  0
 21 23  1  0  0  0
 22 28  1  0  0  0
 22 32  2  0  0  0
 26 27  1  0  0  0
 28 98  1  0  0  0
 28 99  1  0  0  0
 29100  1  0  0  0
 29101  1  0  0  0
 33 34  1  0  0  0
 33 66  1  0  0  0
 33 70  2  0  0  0
 34 36  1  0  0  0
 34 59  1  0  0  0
 34102  1  0  0  0
 35 44  2  0  0  0
 35 45  1  0  0  0
 35 68  1  0  0  0
 36 56  1  0  0  0
 36103  1  0  0  0
 37 39  1  0  0  0
 37 47  1  0  0  0
 37 66  1  0  0  0
 37104  1  0  0  0
 38 43  2  0  0  0
 38 46  1  0  0  0
 38 47  1  0  0  0
 39 64  1  0  0  0
 39 67  2  0  0  0
 40 52  1  0  0  0
 40 53  2  0  0  0
 40 58  1  0  0  0
 41105  1  0  0  0
 41106  1  0  0  0
 41107  1  0  0  0
 41 48  1  0  0  0
 42 43  1  0  0  0
 42 66  1  0  0  0
 42108  1  0  0  0
 42109  1  0  0  0
 43 44  1  0  0  0
 44110  1  0  0  0
 45 46  2  0  0  0
 45111  1  0  0  0
 46112  1  0  0  0
 47113  1  0  0  0
 47114  1  0  0  0
 48 56  1  0  0  0
 48 65  1  0  0  0
 48115  1  0  0  0
 49 50  1  0  0  0
 49 53  1  0  0  0
 49 64  1  0  0  0
 49116  1  0  0  0
 50 51  1  0  0  0
 50117  1  0  0  0
 50118  1  0  0  0
 51 52  1  0  0  0
 51119  1  0  0  0
 51120  1  0  0  0
 52121  1  0  0  0
 52122  1  0  0  0
 53 54  1  0  0  0
 54 55  2  0  0  0
 54123  1  0  0  0
 55 57  1  0  0  0
 55124  1  0  0  0
 56 69  2  0  0  0
 57 58  2  0  0  0
 57125  1  0  0  0
 58126  1  0  0  0
 59 60  1  0  0  0
 59 61  1  0  0  0
 59 62  1  0  0  0
 60127  1  0  0  0
 60128  1  0  0  0
 60129  1  0  0  0
 61130  1  0  0  0
 61131  1  0  0  0
 61132  1  0  0  0
 62133  1  0  0  0
 62134  1  0  0  0
 62135  1  0  0  0
 63 65  1  0  0  0
 63136  1  0  0  0
 63137  1  0  0  0
 63138  1  0  0  0
 64139  1  0  0  0
 65140  1  0  0  0
 68 79  1  0  0  0
 71 74  2  0  0  0
 71 75  1  0  0  0
 71141  1  0  0  0
 72 74  1  0  0  0
 72 80  2  0  0  0
 72142  1  0  0  0
 73 75  2  0  0  0
 73 80  1  0  0  0
 73143  1  0  0  0
 74 77  1  0  0  0
 75 81  1  0  0  0
 76 81  1  0  0  0
 76144  1  0  0  0
 76145  1  0  0  0
 76146  1  0  0  0
 77 78  1  0  0  0
 77147  1  0  0  0
 77148  1  0  0  0
 78 79  1  0  0  0
 78149  1  0  0  0
 78150  1  0  0  0
 79151  1  0  0  0
 79152  1  0  0  0
M  ISO  4   1 100  68 101  79 101  81 100
M  END
> <chiral flag>
0

> <version>
0

> <s_m_source_file>
/data/baiqing/PycharmProjects/Reinvent-master-3.2/result/LINK_invent/BTK/process_docking_weight1_custom_sum_contain_oxygen_bond_distance_aromatic_linkinvent_7_9_3/rearranged_h_0015.sdf

> <i_m_source_file_index>
63

> <r_mmod_Potential_Energy-OPLS-2005>
536.077819824219

> <r_mmod_Stretch_Energy-OPLS-2005>
293.850463867188

> <r_mmod_Bend_Energy-OPLS-2005>
269.938659667969

> <r_mmod_Torsional_Energy-OPLS-2005>
268.191711425781

> <r_mmod_Improper_Torsional_Energy-OPLS-2005>
3.99477219581604

> <r_mmod_Van_der_Waal_Energy-OPLS-2005>
146.457061767578

> <r_mmod_Electrostatic_Energy-OPLS-2005>
-441.505981445312

> <r_mmod_Solvation_Energy-OPLS-2005>
-206.405548095703

> <b_mmod_Minimization_Converged-OPLS-2005>
0

> <r_mmod_RMS_Derivative-OPLS-2005>
1.22284841537476

$$$$
64
                    3D
 Structure written by MMmdl.
162170  0  0  1  0            999 V2000
  -30.6228  -14.7208   20.4463 C   0  0  0  0  0  0
  -30.4291  -12.4346   19.4775 C   0  0  0  0  0  0
  -29.5094  -12.4934   18.2387 C   0  0  0  0  0  0
  -28.0358  -12.3218   18.6537 C   0  0  0  0  0  0
  -27.6428  -13.2282   19.8503 C   0  0  2  0  0  0
  -28.6854  -13.1623   20.9884 C   0  0  0  0  0  0
  -25.2519  -13.8194   20.5691 C   0  0  0  0  0  0
  -24.1814  -13.0448   20.9216 C   0  0  0  0  0  0
  -24.6389  -11.6916   20.8753 C   0  0  0  0  0  0
  -23.9064  -10.4299   21.0411 C   0  0  0  0  0  0
  -24.3614   -9.4213   21.9190 C   0  0  0  0  0  0
  -23.6294   -8.2246   22.0754 C   0  0  0  0  0  0
  -22.4278   -8.0283   21.3540 C   0  0  0  0  0  0
  -21.9916   -9.0256   20.4637 C   0  0  0  0  0  0
  -22.7240  -10.2134   20.3056 C   0  0  0  0  0  0
  -21.6852   -6.0739   22.5276 C   0  0  0  0  0  0
  -21.4012   -6.5640   23.8212 C   0  0  0  0  0  0
  -21.3659   -5.6791   24.9175 C   0  0  0  0  0  0
  -21.6048   -4.3053   24.7222 C   0  0  0  0  0  0
  -21.8818   -3.8145   23.4342 C   0  0  0  0  0  0
  -21.9194   -4.6966   22.3401 C   0  0  0  0  0  0
  -22.7836  -13.5236   21.1861 C   0  0  0  0  0  0
  -22.1664   -4.2149   21.0978 F   0  0  0  0  0  0
  -21.5629   -3.4537   25.7736 F   0  0  0  0  0  0
  -29.9900  -13.4998   20.4081 N   0  0  0  0  0  0
  -26.2938  -12.9391   20.3273 N   0  0  0  0  0  0
  -25.9314  -11.6538   20.5764 N   0  0  0  0  0  0
  -22.0467  -12.8222   22.0401 N   0  0  0  0  0  0
  -25.4218  -15.1920   20.4057 N   0  0  0  0  0  0
  -31.8191  -14.7861   20.1524 O   0  0  0  0  0  0
  -21.6641   -6.8881   21.4237 O   0  0  0  0  0  0
  -22.3527  -14.5548   20.6709 O   0  0  0  0  0  0
  -24.6295  -31.8551   23.1952 C   0  0  0  0  0  0
  -25.9133  -32.4749   23.8292 C   0  0  1  0  0  0
  -27.2222  -27.2746   20.1142 C   0  0  0  0  0  0
  -25.5924  -33.8544   24.2236 N   0  0  0  0  0  0
  -23.4244  -30.4752   21.5408 C   0  0  2  0  0  0
  -24.8694  -28.9214   20.1080 C   0  0  0  0  0  0
  -22.7496  -29.4587   22.4928 C   0  0  0  0  0  0
  -18.0270  -28.1379   22.8468 C   0  0  0  0  0  0
  -24.1495  -36.7289   23.2636 C   0  0  0  0  0  0
  -25.9666  -30.7698   21.3738 C   0  0  0  0  0  0
  -26.0387  -29.3924   20.7162 C   0  0  0  0  0  0
  -27.2148  -28.5799   20.7111 C   0  0  0  0  0  0
  -26.0237  -26.8593   19.4916 C   0  0  0  0  0  0
  -24.8658  -27.6624   19.4873 C   0  0  0  0  0  0
  -23.6389  -29.8066   20.1573 C   0  0  0  0  0  0
  -25.4116  -36.3068   24.0320 C   0  0  1  0  0  0
  -20.5880  -28.3688   23.1275 C   0  0  2  0  0  0
  -20.6758  -26.9411   22.5397 C   0  0  0  0  0  0
  -19.5741  -26.6388   21.5186 C   0  0  0  0  0  0
  -18.1920  -26.7922   22.1601 C   0  0  0  0  0  0
  -19.1527  -28.8846   23.2863 C   0  0  0  0  0  0
  -18.9453  -30.1439   23.8892 C   0  0  0  0  0  0
  -17.6460  -30.6584   24.0557 C   0  0  0  0  0  0
  -25.9057  -34.9438   23.5090 C   0  0  0  0  0  0
  -16.5345  -29.9083   23.6332 C   0  0  0  0  0  0
  -16.7257  -28.6500   23.0348 C   0  0  0  0  0  0
  -26.4501  -31.6580   25.0687 C   0  0  0  0  0  0
  -25.3717  -31.3694   26.1411 C   0  0  0  0  0  0
  -27.0376  -30.3007   24.6166 C   0  0  0  0  0  0
  -27.6053  -32.4328   25.7463 C   0  0  0  0  0  0
  -27.5590  -37.1790   24.8457 C   0  0  0  0  0  0
  -21.4202  -29.3048   22.3690 N   0  0  0  0  0  0
  -26.4296  -37.3772   23.9410 N   0  0  0  0  0  0
  -24.6927  -31.0520   22.0927 N   0  0  0  0  0  0
  -23.4211  -28.8121   23.3017 O   0  0  0  0  0  0
  -28.3547  -26.4359   20.1805 O   0  0  0  0  0  0
  -26.5645  -34.8918   22.4670 O   0  0  0  0  0  0
  -23.5456  -32.1382   23.7258 O   0  0  0  0  0  0
  -31.1064  -17.5839   19.3095 C   0  0  0  0  0  0
  -31.3890  -18.9032   18.9002 C   0  0  0  0  0  0
  -29.3339  -18.4325   20.7481 C   0  0  0  0  0  0
  -29.5990  -19.8085   20.3198 C   0  0  0  0  0  0
  -30.0989  -17.2862   20.2595 C   0  0  0  0  0  0
  -30.6596  -19.9945   19.4089 C   0  0  0  0  0  0
  -32.4991  -19.1602   17.8986 C   0  0  0  0  0  0
  -28.2377  -18.1939   21.7764 C   0  0  0  0  0  0
  -26.9335  -23.6308   21.2103 C   0  0  0  0  0  0
  -28.8689  -21.1223   20.8625 C   0  0  0  0  0  0
  -28.4179  -25.0375   19.6405 C   0  0  0  0  0  0
  -28.3456  -23.7380   20.6022 C   0  0  2  0  0  0
  -29.8567  -15.8651   20.6431 N   0  0  0  0  0  0
  -28.7760  -22.3847   19.9900 N   0  3  0  0  0  0
  -30.9949  -21.2485   19.0139 F   0  0  0  0  0  0
  -31.4710  -12.5475   19.1745 H   0  0  0  0  0  0
  -30.3647  -11.4582   19.9613 H   0  0  0  0  0  0
  -29.7867  -11.7165   17.5247 H   0  0  0  0  0  0
  -29.6402  -13.4463   17.7229 H   0  0  0  0  0  0
  -27.8952  -11.2747   18.9259 H   0  0  0  0  0  0
  -27.3764  -12.5042   17.8036 H   0  0  0  0  0  0
  -27.6389  -14.2481   19.4648 H   0  0  0  0  0  0
  -28.7131  -12.1660   21.4338 H   0  0  0  0  0  0
  -28.4242  -13.8504   21.7938 H   0  0  0  0  0  0
  -25.2750   -9.5696   22.4775 H   0  0  0  0  0  0
  -23.9999   -7.4640   22.7481 H   0  0  0  0  0  0
  -21.0852   -8.8768   19.8945 H   0  0  0  0  0  0
  -22.3693  -10.9675   19.6170 H   0  0  0  0  0  0
  -21.1999   -7.6144   23.9715 H   0  0  0  0  0  0
  -21.1485   -6.0522   25.9081 H   0  0  0  0  0  0
  -22.0597   -2.7606   23.2843 H   0  0  0  0  0  0
  -22.4064  -11.9871   22.4783 H   0  0  0  0  0  0
  -21.1083  -13.1250   22.2590 H   0  0  0  0  0  0
  -24.6446  -15.8382   20.4920 H   0  0  0  0  0  0
  -26.2534  -15.6222   20.0227 H   0  0  0  0  0  0
  -26.7189  -32.5409   23.1015 H   0  0  0  0  0  0
  -25.0029  -33.9656   25.0354 H   0  0  0  0  0  0
  -22.7189  -31.2960   21.3951 H   0  0  0  0  0  0
  -23.3772  -35.9613   23.3266 H   0  0  0  0  0  0
  -24.3586  -36.8945   22.2059 H   0  0  0  0  0  0
  -23.7238  -37.6464   23.6698 H   0  0  0  0  0  0
  -26.1055  -31.5299   20.6041 H   0  0  0  0  0  0
  -26.8426  -30.8180   22.0091 H   0  0  0  0  0  0
  -28.1131  -28.9361   21.1963 H   0  0  0  0  0  0
  -25.9346  -25.8955   19.0164 H   0  0  0  0  0  0
  -23.9682  -27.2923   19.0097 H   0  0  0  0  0  0
  -23.7587  -30.5821   19.3984 H   0  0  0  0  0  0
  -22.7573  -29.2360   19.8595 H   0  0  0  0  0  0
  -25.1299  -36.1907   25.0812 H   0  0  0  0  0  0
  -20.9932  -28.3271   24.1413 H   0  0  0  0  0  0
  -20.5642  -26.2296   23.3593 H   0  0  0  0  0  0
  -21.6629  -26.7440   22.1202 H   0  0  0  0  0  0
  -19.6905  -25.6299   21.1217 H   0  0  0  0  0  0
  -19.6680  -27.3197   20.6715 H   0  0  0  0  0  0
  -17.4179  -26.6645   21.4010 H   0  0  0  0  0  0
  -18.0327  -26.0064   22.8996 H   0  0  0  0  0  0
  -19.7937  -30.7224   24.2298 H   0  0  0  0  0  0
  -17.5025  -31.6263   24.5157 H   0  0  0  0  0  0
  -15.5351  -30.2980   23.7667 H   0  0  0  0  0  0
  -15.8653  -28.0815   22.7087 H   0  0  0  0  0  0
  -24.5912  -30.7029   25.7721 H   0  0  0  0  0  0
  -24.8866  -32.2830   26.4850 H   0  0  0  0  0  0
  -25.8024  -30.8859   27.0187 H   0  0  0  0  0  0
  -26.2960  -29.6707   24.1235 H   0  0  0  0  0  0
  -27.4127  -29.7315   25.4678 H   0  0  0  0  0  0
  -27.8801  -30.4289   23.9365 H   0  0  0  0  0  0
  -27.2682  -33.3664   26.1985 H   0  0  0  0  0  0
  -28.3890  -32.6828   25.0296 H   0  0  0  0  0  0
  -28.0700  -31.8477   26.5408 H   0  0  0  0  0  0
  -28.2577  -38.0127   24.7576 H   0  0  0  0  0  0
  -28.1122  -36.2654   24.6213 H   0  0  0  0  0  0
  -27.2304  -37.1344   25.8858 H   0  0  0  0  0  0
  -20.9393  -29.8819   21.6933 H   0  0  0  0  0  0
  -26.0178  -38.2844   24.1424 H   0  0  0  0  0  0
  -31.6928  -16.7964   18.8616 H   0  0  0  0  0  0
  -32.9375  -18.2336   17.5275 H   0  0  0  0  0  0
  -33.2937  -19.7501   18.3562 H   0  0  0  0  0  0
  -32.1145  -19.7145   17.0426 H   0  0  0  0  0  0
  -28.5133  -18.6461   22.7297 H   0  0  0  0  0  0
  -28.0477  -17.1372   21.9612 H   0  0  0  0  0  0
  -27.2960  -18.6324   21.4463 H   0  0  0  0  0  0
  -26.6350  -24.5739   21.6697 H   0  0  0  0  0  0
  -26.8840  -22.8703   21.9894 H   0  0  0  0  0  0
  -26.1862  -23.3843   20.4536 H   0  0  0  0  0  0
  -29.3866  -21.4015   21.7805 H   0  0  0  0  0  0
  -27.8549  -20.8606   21.1609 H   0  0  0  0  0  0
  -27.7424  -24.9071   18.7980 H   0  0  0  0  0  0
  -29.3999  -24.9982   19.1701 H   0  0  0  0  0  0
  -29.0445  -23.9262   21.4179 H   0  0  0  0  0  0
  -28.9373  -15.6754   21.0095 H   0  0  0  0  0  0
  -28.1627  -22.1648   19.2203 H   0  0  0  0  0  0
  -29.6994  -22.4909   19.5887 H   0  0  0  0  0  0
  1 25  1  0  0  0
  1 30  2  0  0  0
  1 83  1  0  0  0
  2  3  1  0  0  0
  2 25  1  0  0  0
  2 86  1  0  0  0
  2 87  1  0  0  0
  3  4  1  0  0  0
  3 88  1  0  0  0
  3 89  1  0  0  0
  4  5  1  0  0  0
  4 90  1  0  0  0
  4 91  1  0  0  0
  5  6  1  0  0  0
  5 26  1  0  0  0
  5 92  1  0  0  0
  6 25  1  0  0  0
  6 93  1  0  0  0
  6 94  1  0  0  0
  7  8  2  0  0  0
  7 26  1  0  0  0
  7 29  1  0  0  0
  8  9  1  0  0  0
  8 22  1  0  0  0
  9 10  1  0  0  0
  9 27  2  0  0  0
 10 11  2  0  0  0
 10 15  1  0  0  0
 11 12  1  0  0  0
 11 95  1  0  0  0
 12 13  2  0  0  0
 12 96  1  0  0  0
 13 14  1  0  0  0
 13 31  1  0  0  0
 14 15  2  0  0  0
 14 97  1  0  0  0
 15 98  1  0  0  0
 16 17  2  0  0  0
 16 21  1  0  0  0
 16 31  1  0  0  0
 17 18  1  0  0  0
 17 99  1  0  0  0
 18 19  2  0  0  0
 18100  1  0  0  0
 19 20  1  0  0  0
 19 24  1  0  0  0
 20 21  2  0  0  0
 20101  1  0  0  0
 21 23  1  0  0  0
 22 28  1  0  0  0
 22 32  2  0  0  0
 26 27  1  0  0  0
 28102  1  0  0  0
 28103  1  0  0  0
 29104  1  0  0  0
 29105  1  0  0  0
 33 34  1  0  0  0
 33 66  1  0  0  0
 33 70  2  0  0  0
 34 36  1  0  0  0
 34 59  1  0  0  0
 34106  1  0  0  0
 35 44  2  0  0  0
 35 45  1  0  0  0
 35 68  1  0  0  0
 36 56  1  0  0  0
 36107  1  0  0  0
 37 39  1  0  0  0
 37 47  1  0  0  0
 37 66  1  0  0  0
 37108  1  0  0  0
 38 43  2  0  0  0
 38 46  1  0  0  0
 38 47  1  0  0  0
 39 64  1  0  0  0
 39 67  2  0  0  0
 40 52  1  0  0  0
 40 53  2  0  0  0
 40 58  1  0  0  0
 41109  1  0  0  0
 41110  1  0  0  0
 41111  1  0  0  0
 41 48  1  0  0  0
 42 43  1  0  0  0
 42 66  1  0  0  0
 42112  1  0  0  0
 42113  1  0  0  0
 43 44  1  0  0  0
 44114  1  0  0  0
 45 46  2  0  0  0
 45115  1  0  0  0
 46116  1  0  0  0
 47117  1  0  0  0
 47118  1  0  0  0
 48 56  1  0  0  0
 48 65  1  0  0  0
 48119  1  0  0  0
 49 50  1  0  0  0
 49 53  1  0  0  0
 49 64  1  0  0  0
 49120  1  0  0  0
 50 51  1  0  0  0
 50121  1  0  0  0
 50122  1  0  0  0
 51 52  1  0  0  0
 51123  1  0  0  0
 51124  1  0  0  0
 52125  1  0  0  0
 52126  1  0  0  0
 53 54  1  0  0  0
 54 55  2  0  0  0
 54127  1  0  0  0
 55 57  1  0  0  0
 55128  1  0  0  0
 56 69  2  0  0  0
 57 58  2  0  0  0
 57129  1  0  0  0
 58130  1  0  0  0
 59 60  1  0  0  0
 59 61  1  0  0  0
 59 62  1  0  0  0
 60131  1  0  0  0
 60132  1  0  0  0
 60133  1  0  0  0
 61134  1  0  0  0
 61135  1  0  0  0
 61136  1  0  0  0
 62137  1  0  0  0
 62138  1  0  0  0
 62139  1  0  0  0
 63 65  1  0  0  0
 63140  1  0  0  0
 63141  1  0  0  0
 63142  1  0  0  0
 64143  1  0  0  0
 65144  1  0  0  0
 68 81  1  0  0  0
 71 72  2  0  0  0
 71 75  1  0  0  0
 71145  1  0  0  0
 72 76  1  0  0  0
 72 77  1  0  0  0
 73 74  1  0  0  0
 73 75  2  0  0  0
 73 78  1  0  0  0
 74 76  2  0  0  0
 74 80  1  0  0  0
 75 83  1  0  0  0
 76 85  1  0  0  0
 77146  1  0  0  0
 77147  1  0  0  0
 77148  1  0  0  0
 78149  1  0  0  0
 78150  1  0  0  0
 78151  1  0  0  0
 79152  1  0  0  0
 79153  1  0  0  0
 79154  1  0  0  0
 79 82  1  0  0  0
 80 84  1  0  0  0
 80155  1  0  0  0
 80156  1  0  0  0
 81 82  1  0  0  0
 81157  1  0  0  0
 81158  1  0  0  0
 82 84  1  0  0  0
 82159  1  0  0  0
 83160  1  0  0  0
 84161  1  0  0  0
 84162  1  0  0  0
M  CHG  1  84   1
M  ISO  4   1 100  68 101  81 101  83 100
M  END
> <chiral flag>
0

> <version>
0

> <s_m_source_file>
/data/baiqing/PycharmProjects/Reinvent-master-3.2/result/LINK_invent/BTK/process_docking_weight1_custom_sum_contain_oxygen_bond_distance_aromatic_linkinvent_7_9_3/rearranged_h_0015.sdf

> <i_m_source_file_index>
64

> <r_mmod_Potential_Energy-OPLS-2005>
-23.3857231140137

> <r_mmod_Stretch_Energy-OPLS-2005>
122.118698120117

> <r_mmod_Bend_Energy-OPLS-2005>
166.276733398438

> <r_mmod_Torsional_Energy-OPLS-2005>
213.362899780273

> <r_mmod_Improper_Torsional_Energy-OPLS-2005>
4.53729772567749

> <r_mmod_Van_der_Waal_Energy-OPLS-2005>
144.300506591797

> <r_mmod_Electrostatic_Energy-OPLS-2005>
-315.127136230469

> <r_mmod_Solvation_Energy-OPLS-2005>
-433.030883789062

> <b_mmod_Minimization_Converged-OPLS-2005>
0

> <r_mmod_RMS_Derivative-OPLS-2005>
1.86186718940735

$$$$
65
                    3D
 Structure written by MMmdl.
161169  0  0  1  0            999 V2000
  -30.6024  -14.6219   20.4955 C   0  0  0  0  0  0
  -30.4340  -12.3769   19.4496 C   0  0  0  0  0  0
  -29.5097  -12.5278   18.2206 C   0  0  0  0  0  0
  -28.0257  -12.3767   18.6191 C   0  0  0  0  0  0
  -27.6531  -13.2215   19.8668 C   0  0  2  0  0  0
  -28.6956  -13.0415   20.9939 C   0  0  0  0  0  0
  -25.2546  -13.8192   20.5661 C   0  0  0  0  0  0
  -24.1833  -13.0417   20.9177 C   0  0  0  0  0  0
  -24.6427  -11.6899   20.8737 C   0  0  0  0  0  0
  -23.9103  -10.4268   21.0401 C   0  0  0  0  0  0
  -24.3632   -9.4178   21.9180 C   0  0  0  0  0  0
  -23.6290   -8.2221   22.0752 C   0  0  0  0  0  0
  -22.4275   -8.0272   21.3527 C   0  0  0  0  0  0
  -21.9928   -9.0257   20.4637 C   0  0  0  0  0  0
  -22.7275  -10.2127   20.3048 C   0  0  0  0  0  0
  -21.6857   -6.0746   22.5289 C   0  0  0  0  0  0
  -21.4024   -6.5640   23.8225 C   0  0  0  0  0  0
  -21.3659   -5.6804   24.9190 C   0  0  0  0  0  0
  -21.6049   -4.3063   24.7245 C   0  0  0  0  0  0
  -21.8817   -3.8149   23.4365 C   0  0  0  0  0  0
  -21.9201   -4.6976   22.3420 C   0  0  0  0  0  0
  -22.7848  -13.5169   21.1861 C   0  0  0  0  0  0
  -22.1650   -4.2154   21.0990 F   0  0  0  0  0  0
  -21.5635   -3.4540   25.7761 F   0  0  0  0  0  0
  -30.0127  -13.3872   20.4363 N   0  0  0  0  0  0
  -26.2985  -12.9388   20.3313 N   0  0  0  0  0  0
  -25.9349  -11.6536   20.5744 N   0  0  0  0  0  0
  -22.0521  -12.8128   22.0454 N   0  0  0  0  0  0
  -25.4226  -15.1887   20.3960 N   0  0  0  0  0  0
  -31.7652  -14.8061   20.1192 O   0  0  0  0  0  0
  -21.6617   -6.8880   21.4247 O   0  0  0  0  0  0
  -22.3505  -14.5469   20.6748 O   0  0  0  0  0  0
  -24.6247  -31.8613   23.2033 C   0  0  0  0  0  0
  -25.9088  -32.4780   23.8387 C   0  0  1  0  0  0
  -27.2275  -27.3239   20.1021 C   0  0  0  0  0  0
  -25.5893  -33.8600   24.2267 N   0  0  0  0  0  0
  -23.4186  -30.4810   21.5478 C   0  0  2  0  0  0
  -24.8642  -28.9285   20.1196 C   0  0  0  0  0  0
  -22.7436  -29.4662   22.4994 C   0  0  0  0  0  0
  -18.0248  -28.1398   22.8466 C   0  0  0  0  0  0
  -24.1486  -36.7315   23.2640 C   0  0  0  0  0  0
  -25.9593  -30.7861   21.3795 C   0  0  0  0  0  0
  -26.0331  -29.4136   20.7198 C   0  0  0  0  0  0
  -27.2205  -28.6234   20.6973 C   0  0  0  0  0  0
  -26.0370  -26.8905   19.4795 C   0  0  0  0  0  0
  -24.8669  -27.6722   19.4927 C   0  0  0  0  0  0
  -23.6323  -29.8071   20.1666 C   0  0  0  0  0  0
  -25.4126  -36.3114   24.0318 C   0  0  1  0  0  0
  -20.5839  -28.3731   23.1272 C   0  0  2  0  0  0
  -20.6759  -26.9475   22.5397 C   0  0  0  0  0  0
  -19.5754  -26.6407   21.5188 C   0  0  0  0  0  0
  -18.1921  -26.7939   22.1587 C   0  0  0  0  0  0
  -19.1493  -28.8876   23.2854 C   0  0  0  0  0  0
  -18.9438  -30.1462   23.8909 C   0  0  0  0  0  0
  -17.6455  -30.6619   24.0568 C   0  0  0  0  0  0
  -25.9071  -34.9464   23.5107 C   0  0  0  0  0  0
  -16.5340  -29.9134   23.6333 C   0  0  0  0  0  0
  -16.7239  -28.6520   23.0386 C   0  0  0  0  0  0
  -26.4462  -31.6611   25.0785 C   0  0  0  0  0  0
  -25.3649  -31.3742   26.1470 C   0  0  0  0  0  0
  -27.0352  -30.3040   24.6313 C   0  0  0  0  0  0
  -27.6009  -32.4378   25.7542 C   0  0  0  0  0  0
  -27.5604  -37.1820   24.8455 C   0  0  0  0  0  0
  -21.4157  -29.3087   22.3691 N   0  0  0  0  0  0
  -26.4308  -37.3812   23.9393 N   0  0  0  0  0  0
  -24.6859  -31.0598   22.1005 N   0  0  0  0  0  0
  -23.4128  -28.8216   23.3109 O   0  0  0  0  0  0
  -28.3593  -26.4991   20.0851 O   0  0  0  0  0  0
  -26.5672  -34.8912   22.4700 O   0  0  0  0  0  0
  -23.5401  -32.1446   23.7325 O   0  0  0  0  0  0
  -30.0002  -17.9987   21.6632 C   0  0  0  0  0  0
  -29.5910  -19.0541   19.1172 C   0  0  0  0  0  0
  -29.9641  -19.4155   21.4772 C   0  0  0  0  0  0
  -29.7998  -19.9826   20.1751 C   0  0  0  0  0  0
  -29.5992  -17.6409   19.3138 C   0  0  0  0  0  0
  -29.8603  -17.0787   20.5909 C   0  0  0  0  0  0
  -30.0873  -20.2979   22.7114 C   0  0  0  0  0  0
  -30.6344  -24.4308   19.8474 C   0  0  0  0  0  0
  -30.0053  -21.5140   19.8486 C   0  0  0  0  0  0
  -28.2038  -25.0650   20.4293 C   0  0  0  0  0  0
  -29.1542  -23.9979   19.7146 C   0  0  2  0  0  0
  -29.3194  -16.7969   18.2387 N   0  0  0  0  0  0
  -29.7708  -15.6470   20.8416 N   0  0  0  0  0  0
  -28.9213  -22.5352   20.1288 N   0  3  0  0  0  0
  -31.4786  -12.5003   19.1562 H   0  0  0  0  0  0
  -30.3476  -11.3734   19.8712 H   0  0  0  0  0  0
  -29.7695  -11.7981   17.4542 H   0  0  0  0  0  0
  -29.6671  -13.5079   17.7663 H   0  0  0  0  0  0
  -27.8378  -11.3204   18.8132 H   0  0  0  0  0  0
  -27.3813  -12.6484   17.7811 H   0  0  0  0  0  0
  -27.6766  -14.2639   19.5533 H   0  0  0  0  0  0
  -28.6954  -12.0078   21.3434 H   0  0  0  0  0  0
  -28.4423  -13.6476   21.8655 H   0  0  0  0  0  0
  -25.2780   -9.5624   22.4755 H   0  0  0  0  0  0
  -23.9983   -7.4616   22.7464 H   0  0  0  0  0  0
  -21.0873   -8.8801   19.8936 H   0  0  0  0  0  0
  -22.3759  -10.9670   19.6145 H   0  0  0  0  0  0
  -21.2007   -7.6148   23.9732 H   0  0  0  0  0  0
  -21.1478   -6.0526   25.9089 H   0  0  0  0  0  0
  -22.0599   -2.7612   23.2884 H   0  0  0  0  0  0
  -22.4124  -11.9727   22.4714 H   0  0  0  0  0  0
  -21.1142  -13.1152   22.2720 H   0  0  0  0  0  0
  -24.6464  -15.8369   20.4677 H   0  0  0  0  0  0
  -26.2591  -15.6206   20.0230 H   0  0  0  0  0  0
  -26.7146  -32.5430   23.1129 H   0  0  0  0  0  0
  -24.9975  -33.9750   25.0361 H   0  0  0  0  0  0
  -22.7186  -31.3056   21.4003 H   0  0  0  0  0  0
  -23.3776  -35.9627   23.3307 H   0  0  0  0  0  0
  -24.3561  -36.8952   22.2060 H   0  0  0  0  0  0
  -23.7195  -37.6491   23.6675 H   0  0  0  0  0  0
  -26.0942  -31.5481   20.6105 H   0  0  0  0  0  0
  -26.8357  -30.8276   22.0143 H   0  0  0  0  0  0
  -28.1258  -29.0010   21.1546 H   0  0  0  0  0  0
  -25.9959  -25.9417   18.9651 H   0  0  0  0  0  0
  -23.9742  -27.3010   19.0093 H   0  0  0  0  0  0
  -23.7512  -30.5799   19.4063 H   0  0  0  0  0  0
  -22.7505  -29.2358   19.8716 H   0  0  0  0  0  0
  -25.1308  -36.1996   25.0814 H   0  0  0  0  0  0
  -20.9886  -28.3307   24.1405 H   0  0  0  0  0  0
  -20.5663  -26.2381   23.3608 H   0  0  0  0  0  0
  -21.6650  -26.7539   22.1218 H   0  0  0  0  0  0
  -19.6982  -25.6301   21.1275 H   0  0  0  0  0  0
  -19.6692  -27.3172   20.6685 H   0  0  0  0  0  0
  -17.4209  -26.6648   21.3989 H   0  0  0  0  0  0
  -18.0356  -26.0061   22.8968 H   0  0  0  0  0  0
  -19.7921  -30.7241   24.2342 H   0  0  0  0  0  0
  -17.5025  -31.6304   24.5172 H   0  0  0  0  0  0
  -15.5349  -30.3074   23.7666 H   0  0  0  0  0  0
  -15.8608  -28.0845   22.7191 H   0  0  0  0  0  0
  -24.5798  -30.7160   25.7728 H   0  0  0  0  0  0
  -24.8871  -32.2909   26.4954 H   0  0  0  0  0  0
  -25.7896  -30.8827   27.0229 H   0  0  0  0  0  0
  -26.3016  -29.6771   24.1256 H   0  0  0  0  0  0
  -27.3930  -29.7321   25.4884 H   0  0  0  0  0  0
  -27.8896  -30.4344   23.9672 H   0  0  0  0  0  0
  -27.2612  -33.3620   26.2229 H   0  0  0  0  0  0
  -28.3737  -32.7060   25.0326 H   0  0  0  0  0  0
  -28.0803  -31.8483   26.5358 H   0  0  0  0  0  0
  -28.2614  -38.0134   24.7558 H   0  0  0  0  0  0
  -28.1103  -36.2670   24.6226 H   0  0  0  0  0  0
  -27.2317  -37.1418   25.8854 H   0  0  0  0  0  0
  -20.9392  -29.8788   21.6840 H   0  0  0  0  0  0
  -26.0207  -38.2888   24.1400 H   0  0  0  0  0  0
  -30.1232  -17.6051   22.6633 H   0  0  0  0  0  0
  -29.4399  -19.4374   18.1172 H   0  0  0  0  0  0
  -30.4318  -19.7294   23.5782 H   0  0  0  0  0  0
  -29.1116  -20.7141   22.9657 H   0  0  0  0  0  0
  -30.7895  -21.1182   22.5752 H   0  0  0  0  0  0
  -30.7511  -25.4811   19.5762 H   0  0  0  0  0  0
  -31.2851  -23.8731   19.1722 H   0  0  0  0  0  0
  -31.0132  -24.3127   20.8635 H   0  0  0  0  0  0
  -30.2490  -21.5834   18.7877 H   0  0  0  0  0  0
  -30.9156  -21.8206   20.3641 H   0  0  0  0  0  0
  -28.3781  -25.0046   21.5040 H   0  0  0  0  0  0
  -27.1743  -24.7306   20.3070 H   0  0  0  0  0  0
  -28.9153  -24.0413   18.6483 H   0  0  0  0  0  0
  -29.2660  -17.1826   17.3023 H   0  0  0  0  0  0
  -29.7013  -15.8598   18.2630 H   0  0  0  0  0  0
  -28.8613  -15.3307   21.1413 H   0  0  0  0  0  0
  -28.7139  -22.4937   21.1127 H   0  0  0  0  0  0
  -28.0947  -22.2103   19.6481 H   0  0  0  0  0  0
  1 25  1  0  0  0
  1 30  2  0  0  0
  1 83  1  0  0  0
  2  3  1  0  0  0
  2 25  1  0  0  0
  2 85  1  0  0  0
  2 86  1  0  0  0
  3  4  1  0  0  0
  3 87  1  0  0  0
  3 88  1  0  0  0
  4  5  1  0  0  0
  4 89  1  0  0  0
  4 90  1  0  0  0
  5  6  1  0  0  0
  5 26  1  0  0  0
  5 91  1  0  0  0
  6 25  1  0  0  0
  6 92  1  0  0  0
  6 93  1  0  0  0
  7  8  2  0  0  0
  7 26  1  0  0  0
  7 29  1  0  0  0
  8  9  1  0  0  0
  8 22  1  0  0  0
  9 10  1  0  0  0
  9 27  2  0  0  0
 10 11  2  0  0  0
 10 15  1  0  0  0
 11 12  1  0  0  0
 11 94  1  0  0  0
 12 13  2  0  0  0
 12 95  1  0  0  0
 13 14  1  0  0  0
 13 31  1  0  0  0
 14 15  2  0  0  0
 14 96  1  0  0  0
 15 97  1  0  0  0
 16 17  2  0  0  0
 16 21  1  0  0  0
 16 31  1  0  0  0
 17 18  1  0  0  0
 17 98  1  0  0  0
 18 19  2  0  0  0
 18 99  1  0  0  0
 19 20  1  0  0  0
 19 24  1  0  0  0
 20 21  2  0  0  0
 20100  1  0  0  0
 21 23  1  0  0  0
 22 28  1  0  0  0
 22 32  2  0  0  0
 26 27  1  0  0  0
 28101  1  0  0  0
 28102  1  0  0  0
 29103  1  0  0  0
 29104  1  0  0  0
 33 34  1  0  0  0
 33 66  1  0  0  0
 33 70  2  0  0  0
 34 36  1  0  0  0
 34 59  1  0  0  0
 34105  1  0  0  0
 35 44  2  0  0  0
 35 45  1  0  0  0
 35 68  1  0  0  0
 36 56  1  0  0  0
 36106  1  0  0  0
 37 39  1  0  0  0
 37 47  1  0  0  0
 37 66  1  0  0  0
 37107  1  0  0  0
 38 43  2  0  0  0
 38 46  1  0  0  0
 38 47  1  0  0  0
 39 64  1  0  0  0
 39 67  2  0  0  0
 40 52  1  0  0  0
 40 53  2  0  0  0
 40 58  1  0  0  0
 41108  1  0  0  0
 41109  1  0  0  0
 41110  1  0  0  0
 41 48  1  0  0  0
 42 43  1  0  0  0
 42 66  1  0  0  0
 42111  1  0  0  0
 42112  1  0  0  0
 43 44  1  0  0  0
 44113  1  0  0  0
 45 46  2  0  0  0
 45114  1  0  0  0
 46115  1  0  0  0
 47116  1  0  0  0
 47117  1  0  0  0
 48 56  1  0  0  0
 48 65  1  0  0  0
 48118  1  0  0  0
 49 50  1  0  0  0
 49 53  1  0  0  0
 49 64  1  0  0  0
 49119  1  0  0  0
 50 51  1  0  0  0
 50120  1  0  0  0
 50121  1  0  0  0
 51 52  1  0  0  0
 51122  1  0  0  0
 51123  1  0  0  0
 52124  1  0  0  0
 52125  1  0  0  0
 53 54  1  0  0  0
 54 55  2  0  0  0
 54126  1  0  0  0
 55 57  1  0  0  0
 55127  1  0  0  0
 56 69  2  0  0  0
 57 58  2  0  0  0
 57128  1  0  0  0
 58129  1  0  0  0
 59 60  1  0  0  0
 59 61  1  0  0  0
 59 62  1  0  0  0
 60130  1  0  0  0
 60131  1  0  0  0
 60132  1  0  0  0
 61133  1  0  0  0
 61134  1  0  0  0
 61135  1  0  0  0
 62136  1  0  0  0
 62137  1  0  0  0
 62138  1  0  0  0
 63 65  1  0  0  0
 63139  1  0  0  0
 63140  1  0  0  0
 63141  1  0  0  0
 64142  1  0  0  0
 65143  1  0  0  0
 68 80  1  0  0  0
 71 73  2  0  0  0
 71 76  1  0  0  0
 71144  1  0  0  0
 72 74  2  0  0  0
 72 75  1  0  0  0
 72145  1  0  0  0
 73 74  1  0  0  0
 73 77  1  0  0  0
 74 79  1  0  0  0
 75 76  2  0  0  0
 75 82  1  0  0  0
 76 83  1  0  0  0
 77146  1  0  0  0
 77147  1  0  0  0
 77148  1  0  0  0
 78149  1  0  0  0
 78150  1  0  0  0
 78151  1  0  0  0
 78 81  1  0  0  0
 79 84  1  0  0  0
 79152  1  0  0  0
 79153  1  0  0  0
 80 81  1  0  0  0
 80154  1  0  0  0
 80155  1  0  0  0
 81 84  1  0  0  0
 81156  1  0  0  0
 82157  1  0  0  0
 82158  1  0  0  0
 83159  1  0  0  0
 84160  1  0  0  0
 84161  1  0  0  0
M  CHG  1  84   1
M  ISO  4   1 100  68 101  80 101  83 100
M  END
> <chiral flag>
0

> <version>
0

> <s_m_source_file>
/data/baiqing/PycharmProjects/Reinvent-master-3.2/result/LINK_invent/BTK/process_docking_weight1_custom_sum_contain_oxygen_bond_distance_aromatic_linkinvent_7_9_3/rearranged_h_0015.sdf

> <i_m_source_file_index>
65

> <r_mmod_Potential_Energy-OPLS-2005>
-171.512878417969

> <r_mmod_Stretch_Energy-OPLS-2005>
79.2005157470703

> <r_mmod_Bend_Energy-OPLS-2005>
134.970260620117

> <r_mmod_Torsional_Energy-OPLS-2005>
260.468719482422

> <r_mmod_Improper_Torsional_Energy-OPLS-2005>
9.19579219818115

> <r_mmod_Van_der_Waal_Energy-OPLS-2005>
141.311431884766

> <r_mmod_Electrostatic_Energy-OPLS-2005>
-380.063323974609

> <r_mmod_Solvation_Energy-OPLS-2005>
-459.284118652344

> <b_mmod_Minimization_Converged-OPLS-2005>
0

> <r_mmod_RMS_Derivative-OPLS-2005>
4.49729013442993

$$$$
66
                    3D
 Structure written by MMmdl.
163171  0  0  1  0            999 V2000
  -30.7490  -14.4758   20.5591 C   0  0  0  0  0  0
  -30.4096  -12.3140   19.4205 C   0  0  0  0  0  0
  -29.4868  -12.5093   18.2030 C   0  0  0  0  0  0
  -28.0108  -12.3471   18.6146 C   0  0  0  0  0  0
  -27.6493  -13.1907   19.8639 C   0  0  2  0  0  0
  -28.7006  -13.0194   20.9874 C   0  0  0  0  0  0
  -25.2547  -13.8101   20.5644 C   0  0  0  0  0  0
  -24.1795  -13.0411   20.9148 C   0  0  0  0  0  0
  -24.6320  -11.6872   20.8712 C   0  0  0  0  0  0
  -23.8988  -10.4270   21.0384 C   0  0  0  0  0  0
  -24.3561   -9.4203   21.9155 C   0  0  0  0  0  0
  -23.6263   -8.2231   22.0764 C   0  0  0  0  0  0
  -22.4255   -8.0236   21.3547 C   0  0  0  0  0  0
  -21.9867   -9.0185   20.4649 C   0  0  0  0  0  0
  -22.7165  -10.2079   20.3033 C   0  0  0  0  0  0
  -21.6846   -6.0692   22.5263 C   0  0  0  0  0  0
  -21.4005   -6.5609   23.8184 C   0  0  0  0  0  0
  -21.3676   -5.6776   24.9158 C   0  0  0  0  0  0
  -21.6061   -4.3036   24.7218 C   0  0  0  0  0  0
  -21.8830   -3.8114   23.4341 C   0  0  0  0  0  0
  -21.9192   -4.6923   22.3390 C   0  0  0  0  0  0
  -22.7823  -13.5229   21.1794 C   0  0  0  0  0  0
  -22.1671   -4.2099   21.0976 F   0  0  0  0  0  0
  -21.5644   -3.4538   25.7750 F   0  0  0  0  0  0
  -30.0294  -13.3218   20.4276 N   0  0  0  0  0  0
  -26.2945  -12.9224   20.3323 N   0  0  0  0  0  0
  -25.9240  -11.6408   20.5751 N   0  0  0  0  0  0
  -22.0442  -12.8239   22.0338 N   0  0  0  0  0  0
  -25.4277  -15.1811   20.4059 N   0  0  0  0  0  0
  -31.8842  -14.5851   20.0818 O   0  0  0  0  0  0
  -21.6643   -6.8822   21.4227 O   0  0  0  0  0  0
  -22.3538  -14.5539   20.6625 O   0  0  0  0  0  0
  -24.6101  -31.8719   23.2131 C   0  0  0  0  0  0
  -25.9013  -32.4846   23.8425 C   0  0  1  0  0  0
  -27.2431  -27.4841   20.0914 C   0  0  0  0  0  0
  -25.5890  -33.8644   24.2369 N   0  0  0  0  0  0
  -23.3955  -30.4935   21.5539 C   0  0  2  0  0  0
  -24.8433  -28.9603   20.1179 C   0  0  0  0  0  0
  -22.7385  -29.4669   22.5037 C   0  0  0  0  0  0
  -18.0261  -28.1372   22.8512 C   0  0  0  0  0  0
  -24.1478  -36.7312   23.2640 C   0  0  0  0  0  0
  -25.9160  -30.8569   21.3503 C   0  0  0  0  0  0
  -25.9993  -29.4902   20.7071 C   0  0  0  0  0  0
  -27.2036  -28.7596   20.6877 C   0  0  0  0  0  0
  -26.0776  -26.9547   19.4980 C   0  0  0  0  0  0
  -24.8763  -27.6911   19.5083 C   0  0  0  0  0  0
  -23.6006  -29.8194   20.1686 C   0  0  0  0  0  0
  -25.4098  -36.3120   24.0349 C   0  0  1  0  0  0
  -20.5857  -28.3634   23.1364 C   0  0  2  0  0  0
  -20.6745  -26.9379   22.5444 C   0  0  0  0  0  0
  -19.5727  -26.6383   21.5229 C   0  0  0  0  0  0
  -18.1905  -26.7928   22.1630 C   0  0  0  0  0  0
  -19.1521  -28.8817   23.2933 C   0  0  0  0  0  0
  -18.9440  -30.1432   23.8922 C   0  0  0  0  0  0
  -17.6448  -30.6569   24.0582 C   0  0  0  0  0  0
  -25.9027  -34.9487   23.5163 C   0  0  0  0  0  0
  -16.5337  -29.9083   23.6325 C   0  0  0  0  0  0
  -16.7257  -28.6509   23.0330 C   0  0  0  0  0  0
  -26.4465  -31.6601   25.0721 C   0  0  0  0  0  0
  -25.3754  -31.3646   26.1475 C   0  0  0  0  0  0
  -27.0306  -30.3090   24.5975 C   0  0  0  0  0  0
  -27.6037  -32.4313   25.7498 C   0  0  0  0  0  0
  -27.5579  -37.1817   24.8455 C   0  0  0  0  0  0
  -21.4115  -29.3014   22.3784 N   0  0  0  0  0  0
  -26.4283  -37.3805   23.9417 N   0  0  0  0  0  0
  -24.6599  -31.0867   22.0988 N   0  0  0  0  0  0
  -23.4187  -28.8208   23.3045 O   0  0  0  0  0  0
  -28.4252  -26.7925   20.0477 O   0  0  0  0  0  0
  -26.5563  -34.8937   22.4700 O   0  0  0  0  0  0
  -23.5313  -32.1426   23.7562 O   0  0  0  0  0  0
  -29.9249  -20.6775   20.6782 C   0  0  0  0  0  0
  -28.9843  -17.7212   20.8252 C   0  0  0  0  0  0
  -31.4889  -17.7125   21.1232 C   0  0  0  0  0  0
  -28.9630  -16.1761   20.7634 C   0  0  0  0  0  0
  -31.1103  -16.4563   21.9588 C   0  0  0  0  0  0
  -30.3219  -18.2126   20.2466 C   0  0  0  0  0  0
  -30.9908  -19.9157   18.5929 C   0  0  0  0  0  0
  -29.8772  -22.0871   20.0510 C   0  0  0  0  0  0
  -29.1644  -23.1687   20.8836 C   0  0  0  0  0  0
  -29.0083  -24.4678   20.0730 C   0  0  0  0  0  0
  -28.4910  -25.6508   20.8944 C   0  0  0  0  0  0
  -30.2095  -15.5257   21.2384 N   0  0  0  0  0  0
  -30.3864  -19.6549   19.9090 N   0  0  0  0  0  0
  -29.5238  -20.5222   21.8348 O   0  0  0  0  0  0
  -31.4553  -12.3886   19.1158 H   0  0  0  0  0  0
  -30.3013  -11.3061   19.8288 H   0  0  0  0  0  0
  -29.7381  -11.7944   17.4191 H   0  0  0  0  0  0
  -29.6484  -13.5004   17.7746 H   0  0  0  0  0  0
  -27.8305  -11.2900   18.8115 H   0  0  0  0  0  0
  -27.3588  -12.6142   17.7821 H   0  0  0  0  0  0
  -27.6539  -14.2159   19.5164 H   0  0  0  0  0  0
  -28.6796  -11.9939   21.3583 H   0  0  0  0  0  0
  -28.4671  -13.6396   21.8518 H   0  0  0  0  0  0
  -25.2707   -9.5717   22.4710 H   0  0  0  0  0  0
  -23.9969   -7.4655   22.7519 H   0  0  0  0  0  0
  -21.0775   -8.8652   19.8983 H   0  0  0  0  0  0
  -22.3564  -10.9573   19.6131 H   0  0  0  0  0  0
  -21.1985   -7.6115   23.9660 H   0  0  0  0  0  0
  -21.1513   -6.0519   25.9056 H   0  0  0  0  0  0
  -22.0600   -2.7569   23.2850 H   0  0  0  0  0  0
  -22.4066  -11.9917   22.4745 H   0  0  0  0  0  0
  -21.1064  -13.1282   22.2541 H   0  0  0  0  0  0
  -24.6682  -15.8433   20.5265 H   0  0  0  0  0  0
  -26.2918  -15.6160   20.1126 H   0  0  0  0  0  0
  -26.7086  -32.5595   23.1207 H   0  0  0  0  0  0
  -25.0120  -33.9826   25.0565 H   0  0  0  0  0  0
  -22.6826  -31.3094   21.4172 H   0  0  0  0  0  0
  -23.3757  -35.9628   23.3295 H   0  0  0  0  0  0
  -24.3587  -36.8926   22.2057 H   0  0  0  0  0  0
  -23.7209  -37.6514   23.6646 H   0  0  0  0  0  0
  -26.0051  -31.6206   20.5757 H   0  0  0  0  0  0
  -26.8146  -30.9279   21.9509 H   0  0  0  0  0  0
  -28.1040  -29.1733   21.1205 H   0  0  0  0  0  0
  -26.1082  -25.9902   19.0112 H   0  0  0  0  0  0
  -23.9910  -27.2866   19.0348 H   0  0  0  0  0  0
  -23.6951  -30.5915   19.4033 H   0  0  0  0  0  0
  -22.7277  -29.2295   19.8840 H   0  0  0  0  0  0
  -25.1275  -36.1989   25.0844 H   0  0  0  0  0  0
  -20.9965  -28.3162   24.1476 H   0  0  0  0  0  0
  -20.5635  -26.2230   23.3618 H   0  0  0  0  0  0
  -21.6614  -26.7407   22.1241 H   0  0  0  0  0  0
  -19.6876  -25.6296   21.1242 H   0  0  0  0  0  0
  -19.6688  -27.3212   20.6774 H   0  0  0  0  0  0
  -17.4201  -26.6722   21.4000 H   0  0  0  0  0  0
  -18.0263  -26.0049   22.8993 H   0  0  0  0  0  0
  -19.7920  -30.7242   24.2290 H   0  0  0  0  0  0
  -17.5006  -31.6244   24.5184 H   0  0  0  0  0  0
  -15.5341  -30.2990   23.7615 H   0  0  0  0  0  0
  -15.8665  -28.0848   22.6984 H   0  0  0  0  0  0
  -24.5925  -30.6999   25.7807 H   0  0  0  0  0  0
  -24.8943  -32.2779   26.4986 H   0  0  0  0  0  0
  -25.8139  -30.8780   27.0193 H   0  0  0  0  0  0
  -26.2821  -29.6860   24.1057 H   0  0  0  0  0  0
  -27.4212  -29.7283   25.4340 H   0  0  0  0  0  0
  -27.8585  -30.4527   23.9022 H   0  0  0  0  0  0
  -27.2661  -33.3612   26.2094 H   0  0  0  0  0  0
  -28.3846  -32.6866   25.0323 H   0  0  0  0  0  0
  -28.0699  -31.8417   26.5407 H   0  0  0  0  0  0
  -28.2557  -38.0147   24.7528 H   0  0  0  0  0  0
  -28.1108  -36.2674   24.6234 H   0  0  0  0  0  0
  -27.2312  -37.1399   25.8861 H   0  0  0  0  0  0
  -20.9246  -29.8801   21.7085 H   0  0  0  0  0  0
  -26.0170  -38.2886   24.1415 H   0  0  0  0  0  0
  -28.8512  -18.0510   21.8566 H   0  0  0  0  0  0
  -28.1451  -18.1325   20.2630 H   0  0  0  0  0  0
  -32.3387  -17.4880   20.4754 H   0  0  0  0  0  0
  -31.8289  -18.4982   21.8003 H   0  0  0  0  0  0
  -28.8219  -15.9314   19.7099 H   0  0  0  0  0  0
  -28.1028  -15.7998   21.3143 H   0  0  0  0  0  0
  -30.6011  -16.7713   22.8700 H   0  0  0  0  0  0
  -32.0178  -15.9542   22.2998 H   0  0  0  0  0  0
  -30.4027  -17.6711   19.3039 H   0  0  0  0  0  0
  -31.6603  -20.7750   18.6016 H   0  0  0  0  0  0
  -30.2085  -20.0976   17.8566 H   0  0  0  0  0  0
  -31.5991  -19.0875   18.2337 H   0  0  0  0  0  0
  -29.3724  -22.0148   19.0860 H   0  0  0  0  0  0
  -30.8975  -22.4212   19.8574 H   0  0  0  0  0  0
  -29.7364  -23.3616   21.7940 H   0  0  0  0  0  0
  -28.1815  -22.8165   21.1979 H   0  0  0  0  0  0
  -28.3306  -24.2923   19.2361 H   0  0  0  0  0  0
  -29.9703  -24.7408   19.6378 H   0  0  0  0  0  0
  -29.1875  -25.8692   21.7061 H   0  0  0  0  0  0
  -27.5341  -25.4088   21.3609 H   0  0  0  0  0  0
  1 25  1  0  0  0
  1 30  2  0  0  0
  1 82  1  0  0  0
  2  3  1  0  0  0
  2 25  1  0  0  0
  2 85  1  0  0  0
  2 86  1  0  0  0
  3  4  1  0  0  0
  3 87  1  0  0  0
  3 88  1  0  0  0
  4  5  1  0  0  0
  4 89  1  0  0  0
  4 90  1  0  0  0
  5  6  1  0  0  0
  5 26  1  0  0  0
  5 91  1  0  0  0
  6 25  1  0  0  0
  6 92  1  0  0  0
  6 93  1  0  0  0
  7  8  2  0  0  0
  7 26  1  0  0  0
  7 29  1  0  0  0
  8  9  1  0  0  0
  8 22  1  0  0  0
  9 10  1  0  0  0
  9 27  2  0  0  0
 10 11  2  0  0  0
 10 15  1  0  0  0
 11 12  1  0  0  0
 11 94  1  0  0  0
 12 13  2  0  0  0
 12 95  1  0  0  0
 13 14  1  0  0  0
 13 31  1  0  0  0
 14 15  2  0  0  0
 14 96  1  0  0  0
 15 97  1  0  0  0
 16 17  2  0  0  0
 16 21  1  0  0  0
 16 31  1  0  0  0
 17 18  1  0  0  0
 17 98  1  0  0  0
 18 19  2  0  0  0
 18 99  1  0  0  0
 19 20  1  0  0  0
 19 24  1  0  0  0
 20 21  2  0  0  0
 20100  1  0  0  0
 21 23  1  0  0  0
 22 28  1  0  0  0
 22 32  2  0  0  0
 26 27  1  0  0  0
 28101  1  0  0  0
 28102  1  0  0  0
 29103  1  0  0  0
 29104  1  0  0  0
 33 34  1  0  0  0
 33 66  1  0  0  0
 33 70  2  0  0  0
 34 36  1  0  0  0
 34 59  1  0  0  0
 34105  1  0  0  0
 35 44  2  0  0  0
 35 45  1  0  0  0
 35 68  1  0  0  0
 36 56  1  0  0  0
 36106  1  0  0  0
 37 39  1  0  0  0
 37 47  1  0  0  0
 37 66  1  0  0  0
 37107  1  0  0  0
 38 43  2  0  0  0
 38 46  1  0  0  0
 38 47  1  0  0  0
 39 64  1  0  0  0
 39 67  2  0  0  0
 40 52  1  0  0  0
 40 53  2  0  0  0
 40 58  1  0  0  0
 41108  1  0  0  0
 41109  1  0  0  0
 41110  1  0  0  0
 41 48  1  0  0  0
 42 43  1  0  0  0
 42 66  1  0  0  0
 42111  1  0  0  0
 42112  1  0  0  0
 43 44  1  0  0  0
 44113  1  0  0  0
 45 46  2  0  0  0
 45114  1  0  0  0
 46115  1  0  0  0
 47116  1  0  0  0
 47117  1  0  0  0
 48 56  1  0  0  0
 48 65  1  0  0  0
 48118  1  0  0  0
 49 50  1  0  0  0
 49 53  1  0  0  0
 49 64  1  0  0  0
 49119  1  0  0  0
 50 51  1  0  0  0
 50120  1  0  0  0
 50121  1  0  0  0
 51 52  1  0  0  0
 51122  1  0  0  0
 51123  1  0  0  0
 52124  1  0  0  0
 52125  1  0  0  0
 53 54  1  0  0  0
 54 55  2  0  0  0
 54126  1  0  0  0
 55 57  1  0  0  0
 55127  1  0  0  0
 56 69  2  0  0  0
 57 58  2  0  0  0
 57128  1  0  0  0
 58129  1  0  0  0
 59 60  1  0  0  0
 59 61  1  0  0  0
 59 62  1  0  0  0
 60130  1  0  0  0
 60131  1  0  0  0
 60132  1  0  0  0
 61133  1  0  0  0
 61134  1  0  0  0
 61135  1  0  0  0
 62136  1  0  0  0
 62137  1  0  0  0
 62138  1  0  0  0
 63 65  1  0  0  0
 63139  1  0  0  0
 63140  1  0  0  0
 63141  1  0  0  0
 64142  1  0  0  0
 65143  1  0  0  0
 68 81  1  0  0  0
 71 78  1  0  0  0
 71 83  1  0  0  0
 71 84  2  0  0  0
 72 74  1  0  0  0
 72 76  1  0  0  0
 72144  1  0  0  0
 72145  1  0  0  0
 73 75  1  0  0  0
 73 76  1  0  0  0
 73146  1  0  0  0
 73147  1  0  0  0
 74 82  1  0  0  0
 74148  1  0  0  0
 74149  1  0  0  0
 75 82  1  0  0  0
 75150  1  0  0  0
 75151  1  0  0  0
 76 83  1  0  0  0
 76152  1  0  0  0
 77 83  1  0  0  0
 77153  1  0  0  0
 77154  1  0  0  0
 77155  1  0  0  0
 78 79  1  0  0  0
 78156  1  0  0  0
 78157  1  0  0  0
 79 80  1  0  0  0
 79158  1  0  0  0
 79159  1  0  0  0
 80 81  1  0  0  0
 80160  1  0  0  0
 80161  1  0  0  0
 81162  1  0  0  0
 81163  1  0  0  0
M  ISO  4   1 100  68 101  81 101  82 100
M  END
> <chiral flag>
0

> <version>
0

> <s_m_source_file>
/data/baiqing/PycharmProjects/Reinvent-master-3.2/result/LINK_invent/BTK/process_docking_weight1_custom_sum_contain_oxygen_bond_distance_aromatic_linkinvent_7_9_3/rearranged_h_0015.sdf

> <i_m_source_file_index>
66

> <r_mmod_Potential_Energy-OPLS-2005>
213.504486083984

> <r_mmod_Stretch_Energy-OPLS-2005>
40.1540946960449

> <r_mmod_Bend_Energy-OPLS-2005>
112.343078613281

> <r_mmod_Torsional_Energy-OPLS-2005>
354.872192382812

> <r_mmod_Improper_Torsional_Energy-OPLS-2005>
4.05035877227783

> <r_mmod_Van_der_Waal_Energy-OPLS-2005>
161.555847167969

> <r_mmod_Electrostatic_Energy-OPLS-2005>
-260.391235351562

> <r_mmod_Solvation_Energy-OPLS-2005>
-212.404296875

> <b_mmod_Minimization_Converged-OPLS-2005>
0

> <r_mmod_RMS_Derivative-OPLS-2005>
3.32239747047424

$$$$
67
                    3D
 Structure written by MMmdl.
158166  0  0  1  0            999 V2000
  -30.6601  -14.6591   20.5017 C   0  0  0  0  0  0
  -30.4380  -12.4080   19.4588 C   0  0  0  0  0  0
  -29.5070  -12.5127   18.2306 C   0  0  0  0  0  0
  -28.0311  -12.3499   18.6450 C   0  0  0  0  0  0
  -27.6493  -13.2281   19.8670 C   0  0  2  0  0  0
  -28.7030  -13.1090   20.9951 C   0  0  0  0  0  0
  -25.2350  -13.7992   20.5588 C   0  0  0  0  0  0
  -24.1720  -13.0259   20.9212 C   0  0  0  0  0  0
  -24.6404  -11.6797   20.8787 C   0  0  0  0  0  0
  -23.9088  -10.4201   21.0425 C   0  0  0  0  0  0
  -24.3626   -9.4128   21.9208 C   0  0  0  0  0  0
  -23.6282   -8.2180   22.0767 C   0  0  0  0  0  0
  -22.4266   -8.0243   21.3546 C   0  0  0  0  0  0
  -21.9914   -9.0219   20.4645 C   0  0  0  0  0  0
  -22.7263  -10.2081   20.3061 C   0  0  0  0  0  0
  -21.6837   -6.0721   22.5283 C   0  0  0  0  0  0
  -21.4003   -6.5630   23.8215 C   0  0  0  0  0  0
  -21.3657   -5.6786   24.9178 C   0  0  0  0  0  0
  -21.6045   -4.3048   24.7229 C   0  0  0  0  0  0
  -21.8820   -3.8139   23.4350 C   0  0  0  0  0  0
  -21.9187   -4.6953   22.3405 C   0  0  0  0  0  0
  -22.7748  -13.5074   21.1867 C   0  0  0  0  0  0
  -22.1659   -4.2142   21.0982 F   0  0  0  0  0  0
  -21.5633   -3.4532   25.7743 F   0  0  0  0  0  0
  -30.0217  -13.4438   20.4270 N   0  0  0  0  0  0
  -26.2953  -12.9342   20.3372 N   0  0  0  0  0  0
  -25.9363  -11.6475   20.5852 N   0  0  0  0  0  0
  -22.0415  -12.8100   22.0464 N   0  0  0  0  0  0
  -25.3536  -15.1632   20.3742 N   0  0  0  0  0  0
  -31.8210  -14.7938   20.1080 O   0  0  0  0  0  0
  -21.6614   -6.8858   21.4245 O   0  0  0  0  0  0
  -22.3424  -14.5387   20.6725 O   0  0  0  0  0  0
  -24.6253  -31.8605   23.2038 C   0  0  0  0  0  0
  -25.9105  -32.4782   23.8362 C   0  0  1  0  0  0
  -27.2396  -27.3358   20.1136 C   0  0  0  0  0  0
  -25.5930  -33.8585   24.2288 N   0  0  0  0  0  0
  -23.4188  -30.4833   21.5460 C   0  0  2  0  0  0
  -24.8680  -28.9394   20.1133 C   0  0  0  0  0  0
  -22.7471  -29.4620   22.4947 C   0  0  0  0  0  0
  -18.0283  -28.1379   22.8478 C   0  0  0  0  0  0
  -24.1492  -36.7294   23.2640 C   0  0  0  0  0  0
  -25.9583  -30.7964   21.3728 C   0  0  0  0  0  0
  -26.0359  -29.4250   20.7147 C   0  0  0  0  0  0
  -27.2228  -28.6355   20.7044 C   0  0  0  0  0  0
  -26.0437  -26.8970   19.4953 C   0  0  0  0  0  0
  -24.8732  -27.6795   19.4960 C   0  0  0  0  0  0
  -23.6342  -29.8173   20.1615 C   0  0  0  0  0  0
  -25.4115  -36.3088   24.0330 C   0  0  1  0  0  0
  -20.5882  -28.3682   23.1284 C   0  0  2  0  0  0
  -20.6776  -26.9408   22.5406 C   0  0  0  0  0  0
  -19.5757  -26.6382   21.5204 C   0  0  0  0  0  0
  -18.1934  -26.7923   22.1612 C   0  0  0  0  0  0
  -19.1533  -28.8848   23.2875 C   0  0  0  0  0  0
  -18.9462  -30.1452   23.8890 C   0  0  0  0  0  0
  -17.6463  -30.6584   24.0558 C   0  0  0  0  0  0
  -25.9051  -34.9455   23.5105 C   0  0  0  0  0  0
  -16.5354  -29.9080   23.6328 C   0  0  0  0  0  0
  -16.7271  -28.6499   23.0345 C   0  0  0  0  0  0
  -26.4497  -31.6589   25.0725 C   0  0  0  0  0  0
  -25.3740  -31.3710   26.1458 C   0  0  0  0  0  0
  -27.0342  -30.3021   24.6161 C   0  0  0  0  0  0
  -27.6062  -32.4319   25.7492 C   0  0  0  0  0  0
  -27.5580  -37.1806   24.8466 C   0  0  0  0  0  0
  -21.4186  -29.3036   22.3684 N   0  0  0  0  0  0
  -26.4296  -37.3779   23.9405 N   0  0  0  0  0  0
  -24.6859  -31.0628   22.0981 N   0  0  0  0  0  0
  -23.4198  -28.8162   23.3027 O   0  0  0  0  0  0
  -28.3772  -26.5123   20.1559 O   0  0  0  0  0  0
  -26.5614  -34.8915   22.4668 O   0  0  0  0  0  0
  -23.5417  -32.1394   23.7373 O   0  0  0  0  0  0
  -31.2543  -17.8858   20.5563 C   0  0  0  0  0  0
  -28.9452  -19.4547   20.7426 C   0  0  0  0  0  0
  -31.3236  -19.3144   20.4590 C   0  0  0  0  0  0
  -28.8707  -18.0356   20.8540 C   0  0  0  0  0  0
  -30.1614  -20.1387   20.5464 C   0  0  0  0  0  0
  -30.0267  -17.1949   20.7525 C   0  0  0  0  0  0
  -32.6838  -19.9603   20.2556 C   0  0  0  0  0  0
  -29.3982  -24.0655   20.3346 C   0  0  0  0  0  0
  -29.0787  -22.5026   20.3003 C   0  0  0  0  0  0
  -28.1867  -25.0514   20.0389 C   0  0  0  0  0  0
  -27.4859  -17.4360   20.9942 C   0  0  0  0  0  0
  -29.8894  -15.7289   20.8736 N   0  0  0  0  0  0
  -30.2388  -21.5696   20.4474 N   0  0  0  0  0  0
  -26.5720  -18.3154   21.4092 F   0  0  0  0  0  0
  -27.1515  -17.0150   19.7757 F   0  0  0  0  0  0
  -27.4808  -16.4092   21.8461 F   0  0  0  0  0  0
  -31.4791  -12.5232   19.1519 H   0  0  0  0  0  0
  -30.3694  -11.4180   19.9123 H   0  0  0  0  0  0
  -29.7723  -11.7562   17.4908 H   0  0  0  0  0  0
  -29.6466  -13.4790   17.7434 H   0  0  0  0  0  0
  -27.8727  -11.2977   18.8842 H   0  0  0  0  0  0
  -27.3750  -12.5706   17.8021 H   0  0  0  0  0  0
  -27.6535  -14.2615   19.5193 H   0  0  0  0  0  0
  -28.7172  -12.0964   21.4009 H   0  0  0  0  0  0
  -28.4480  -13.7597   21.8330 H   0  0  0  0  0  0
  -25.2767   -9.5598   22.4792 H   0  0  0  0  0  0
  -23.9976   -7.4564   22.7488 H   0  0  0  0  0  0
  -21.0846   -8.8748   19.8945 H   0  0  0  0  0  0
  -22.3741  -10.9629   19.6170 H   0  0  0  0  0  0
  -21.1993   -7.6139   23.9717 H   0  0  0  0  0  0
  -21.1484   -6.0517   25.9082 H   0  0  0  0  0  0
  -22.0604   -2.7603   23.2851 H   0  0  0  0  0  0
  -22.4042  -11.9766   22.4852 H   0  0  0  0  0  0
  -21.1048  -13.1142   22.2705 H   0  0  0  0  0  0
  -24.5616  -15.7834   20.4878 H   0  0  0  0  0  0
  -26.1807  -15.6444   20.0398 H   0  0  0  0  0  0
  -26.7174  -32.5456   23.1115 H   0  0  0  0  0  0
  -25.0102  -33.9728   25.0451 H   0  0  0  0  0  0
  -22.7121  -31.3032   21.4025 H   0  0  0  0  0  0
  -23.3754  -35.9628   23.3306 H   0  0  0  0  0  0
  -24.3584  -36.8908   22.2055 H   0  0  0  0  0  0
  -23.7248  -37.6498   23.6654 H   0  0  0  0  0  0
  -26.0889  -31.5628   20.6072 H   0  0  0  0  0  0
  -26.8385  -30.8437   22.0020 H   0  0  0  0  0  0
  -28.1192  -29.0073   21.1812 H   0  0  0  0  0  0
  -25.9841  -25.9362   19.0074 H   0  0  0  0  0  0
  -23.9774  -27.2999   19.0232 H   0  0  0  0  0  0
  -23.7533  -30.5938   19.4049 H   0  0  0  0  0  0
  -22.7550  -29.2466   19.8579 H   0  0  0  0  0  0
  -25.1299  -36.1941   25.0823 H   0  0  0  0  0  0
  -20.9968  -28.3259   24.1407 H   0  0  0  0  0  0
  -20.5682  -26.2293   23.3603 H   0  0  0  0  0  0
  -21.6647  -26.7444   22.1202 H   0  0  0  0  0  0
  -19.6926  -25.6294   21.1236 H   0  0  0  0  0  0
  -19.6700  -27.3188   20.6732 H   0  0  0  0  0  0
  -17.4205  -26.6660   21.4014 H   0  0  0  0  0  0
  -18.0338  -26.0064   22.9008 H   0  0  0  0  0  0
  -19.7943  -30.7264   24.2257 H   0  0  0  0  0  0
  -17.5022  -31.6263   24.5163 H   0  0  0  0  0  0
  -15.5355  -30.2983   23.7663 H   0  0  0  0  0  0
  -15.8667  -28.0825   22.7061 H   0  0  0  0  0  0
  -24.5924  -30.7043   25.7796 H   0  0  0  0  0  0
  -24.8919  -32.2866   26.4893 H   0  0  0  0  0  0
  -25.8084  -30.8895   27.0229 H   0  0  0  0  0  0
  -26.2908  -29.6766   24.1205 H   0  0  0  0  0  0
  -27.4079  -29.7276   25.4647 H   0  0  0  0  0  0
  -27.8758  -30.4319   23.9352 H   0  0  0  0  0  0
  -27.2679  -33.3620   26.2068 H   0  0  0  0  0  0
  -28.3874  -32.6877   25.0321 H   0  0  0  0  0  0
  -28.0724  -31.8443   26.5411 H   0  0  0  0  0  0
  -28.2606  -38.0097   24.7509 H   0  0  0  0  0  0
  -28.1069  -36.2630   24.6301 H   0  0  0  0  0  0
  -27.2294  -37.1464   25.8868 H   0  0  0  0  0  0
  -20.9367  -29.8764   21.6898 H   0  0  0  0  0  0
  -26.0178  -38.2853   24.1405 H   0  0  0  0  0  0
  -32.1692  -17.3164   20.4845 H   0  0  0  0  0  0
  -28.0316  -20.0247   20.8027 H   0  0  0  0  0  0
  -33.4797  -19.2175   20.1940 H   0  0  0  0  0  0
  -32.9143  -20.6288   21.0854 H   0  0  0  0  0  0
  -32.6959  -20.5401   19.3324 H   0  0  0  0  0  0
  -30.1889  -24.2824   19.6153 H   0  0  0  0  0  0
  -29.8100  -24.3139   21.3133 H   0  0  0  0  0  0
  -28.5829  -22.2683   19.3565 H   0  0  0  0  0  0
  -28.3530  -22.2853   21.0851 H   0  0  0  0  0  0
  -27.8516  -24.8349   19.0244 H   0  0  0  0  0  0
  -27.3685  -24.7680   20.7031 H   0  0  0  0  0  0
  -28.9721  -15.4361   21.1805 H   0  0  0  0  0  0
  -31.1603  -21.9652   20.2796 H   0  0  0  0  0  0
  1 25  1  0  0  0
  1 30  2  0  0  0
  1 82  1  0  0  0
  2  3  1  0  0  0
  2 25  1  0  0  0
  2 87  1  0  0  0
  2 88  1  0  0  0
  3  4  1  0  0  0
  3 89  1  0  0  0
  3 90  1  0  0  0
  4  5  1  0  0  0
  4 91  1  0  0  0
  4 92  1  0  0  0
  5  6  1  0  0  0
  5 26  1  0  0  0
  5 93  1  0  0  0
  6 25  1  0  0  0
  6 94  1  0  0  0
  6 95  1  0  0  0
  7  8  2  0  0  0
  7 26  1  0  0  0
  7 29  1  0  0  0
  8  9  1  0  0  0
  8 22  1  0  0  0
  9 10  1  0  0  0
  9 27  2  0  0  0
 10 11  2  0  0  0
 10 15  1  0  0  0
 11 12  1  0  0  0
 11 96  1  0  0  0
 12 13  2  0  0  0
 12 97  1  0  0  0
 13 14  1  0  0  0
 13 31  1  0  0  0
 14 15  2  0  0  0
 14 98  1  0  0  0
 15 99  1  0  0  0
 16 17  2  0  0  0
 16 21  1  0  0  0
 16 31  1  0  0  0
 17 18  1  0  0  0
 17100  1  0  0  0
 18 19  2  0  0  0
 18101  1  0  0  0
 19 20  1  0  0  0
 19 24  1  0  0  0
 20 21  2  0  0  0
 20102  1  0  0  0
 21 23  1  0  0  0
 22 28  1  0  0  0
 22 32  2  0  0  0
 26 27  1  0  0  0
 28103  1  0  0  0
 28104  1  0  0  0
 29105  1  0  0  0
 29106  1  0  0  0
 33 34  1  0  0  0
 33 66  1  0  0  0
 33 70  2  0  0  0
 34 36  1  0  0  0
 34 59  1  0  0  0
 34107  1  0  0  0
 35 44  2  0  0  0
 35 45  1  0  0  0
 35 68  1  0  0  0
 36 56  1  0  0  0
 36108  1  0  0  0
 37 39  1  0  0  0
 37 47  1  0  0  0
 37 66  1  0  0  0
 37109  1  0  0  0
 38 43  2  0  0  0
 38 46  1  0  0  0
 38 47  1  0  0  0
 39 64  1  0  0  0
 39 67  2  0  0  0
 40 52  1  0  0  0
 40 53  2  0  0  0
 40 58  1  0  0  0
 41110  1  0  0  0
 41111  1  0  0  0
 41112  1  0  0  0
 41 48  1  0  0  0
 42 43  1  0  0  0
 42 66  1  0  0  0
 42113  1  0  0  0
 42114  1  0  0  0
 43 44  1  0  0  0
 44115  1  0  0  0
 45 46  2  0  0  0
 45116  1  0  0  0
 46117  1  0  0  0
 47118  1  0  0  0
 47119  1  0  0  0
 48 56  1  0  0  0
 48 65  1  0  0  0
 48120  1  0  0  0
 49 50  1  0  0  0
 49 53  1  0  0  0
 49 64  1  0  0  0
 49121  1  0  0  0
 50 51  1  0  0  0
 50122  1  0  0  0
 50123  1  0  0  0
 51 52  1  0  0  0
 51124  1  0  0  0
 51125  1  0  0  0
 52126  1  0  0  0
 52127  1  0  0  0
 53 54  1  0  0  0
 54 55  2  0  0  0
 54128  1  0  0  0
 55 57  1  0  0  0
 55129  1  0  0  0
 56 69  2  0  0  0
 57 58  2  0  0  0
 57130  1  0  0  0
 58131  1  0  0  0
 59 60  1  0  0  0
 59 61  1  0  0  0
 59 62  1  0  0  0
 60132  1  0  0  0
 60133  1  0  0  0
 60134  1  0  0  0
 61135  1  0  0  0
 61136  1  0  0  0
 61137  1  0  0  0
 62138  1  0  0  0
 62139  1  0  0  0
 62140  1  0  0  0
 63 65  1  0  0  0
 63141  1  0  0  0
 63142  1  0  0  0
 63143  1  0  0  0
 64144  1  0  0  0
 65145  1  0  0  0
 68 80  1  0  0  0
 71 73  2  0  0  0
 71 76  1  0  0  0
 71146  1  0  0  0
 72 74  1  0  0  0
 72 75  2  0  0  0
 72147  1  0  0  0
 73 75  1  0  0  0
 73 77  1  0  0  0
 74 76  2  0  0  0
 74 81  1  0  0  0
 75 83  1  0  0  0
 76 82  1  0  0  0
 77148  1  0  0  0
 77149  1  0  0  0
 77150  1  0  0  0
 78 79  1  0  0  0
 78 80  1  0  0  0
 78151  1  0  0  0
 78152  1  0  0  0
 79 83  1  0  0  0
 79153  1  0  0  0
 79154  1  0  0  0
 80155  1  0  0  0
 80156  1  0  0  0
 81 84  1  0  0  0
 81 85  1  0  0  0
 81 86  1  0  0  0
 82157  1  0  0  0
 83158  1  0  0  0
M  ISO  4   1 100  68 101  80 101  82 100
M  END
> <chiral flag>
0

> <version>
0

> <s_m_source_file>
/data/baiqing/PycharmProjects/Reinvent-master-3.2/result/LINK_invent/BTK/process_docking_weight1_custom_sum_contain_oxygen_bond_distance_aromatic_linkinvent_7_9_3/rearranged_h_0015.sdf

> <i_m_source_file_index>
67

> <r_mmod_Potential_Energy-OPLS-2005>
54.0517807006836

> <r_mmod_Stretch_Energy-OPLS-2005>
80.0454711914062

> <r_mmod_Bend_Energy-OPLS-2005>
148.551666259766

> <r_mmod_Torsional_Energy-OPLS-2005>
199.481018066406

> <r_mmod_Improper_Torsional_Energy-OPLS-2005>
4.49697971343994

> <r_mmod_Van_der_Waal_Energy-OPLS-2005>
158.194915771484

> <r_mmod_Electrostatic_Energy-OPLS-2005>
-386.799835205078

> <r_mmod_Solvation_Energy-OPLS-2005>
-198.041625976562

> <b_mmod_Minimization_Converged-OPLS-2005>
0

> <r_mmod_RMS_Derivative-OPLS-2005>
0.641729593276978

$$$$
68
                    3D
 Structure written by MMmdl.
156164  0  0  1  0            999 V2000
  -30.6272  -14.6298   20.5117 C   0  0  0  0  0  0
  -30.4389  -12.3880   19.4548 C   0  0  0  0  0  0
  -29.5086  -12.5110   18.2270 C   0  0  0  0  0  0
  -28.0309  -12.3507   18.6373 C   0  0  0  0  0  0
  -27.6553  -13.2172   19.8691 C   0  0  2  0  0  0
  -28.6994  -13.0615   20.9986 C   0  0  0  0  0  0
  -25.2528  -13.8140   20.5623 C   0  0  0  0  0  0
  -24.1809  -13.0411   20.9161 C   0  0  0  0  0  0
  -24.6397  -11.6892   20.8738 C   0  0  0  0  0  0
  -23.9067  -10.4279   21.0407 C   0  0  0  0  0  0
  -24.3616   -9.4197   21.9187 C   0  0  0  0  0  0
  -23.6290   -8.2235   22.0756 C   0  0  0  0  0  0
  -22.4272   -8.0276   21.3545 C   0  0  0  0  0  0
  -21.9909   -9.0249   20.4647 C   0  0  0  0  0  0
  -22.7239  -10.2126   20.3056 C   0  0  0  0  0  0
  -21.6851   -6.0733   22.5280 C   0  0  0  0  0  0
  -21.4011   -6.5637   23.8212 C   0  0  0  0  0  0
  -21.3657   -5.6790   24.9175 C   0  0  0  0  0  0
  -21.6044   -4.3053   24.7226 C   0  0  0  0  0  0
  -21.8820   -3.8145   23.4347 C   0  0  0  0  0  0
  -21.9192   -4.6962   22.3404 C   0  0  0  0  0  0
  -22.7836  -13.5212   21.1837 C   0  0  0  0  0  0
  -22.1662   -4.2147   21.0982 F   0  0  0  0  0  0
  -21.5630   -3.4537   25.7739 F   0  0  0  0  0  0
  -30.0187  -13.4034   20.4415 N   0  0  0  0  0  0
  -26.2996  -12.9347   20.3345 N   0  0  0  0  0  0
  -25.9336  -11.6500   20.5787 N   0  0  0  0  0  0
  -22.0487  -12.8211   22.0407 N   0  0  0  0  0  0
  -25.4160  -15.1841   20.3952 N   0  0  0  0  0  0
  -31.7758  -14.8004   20.0932 O   0  0  0  0  0  0
  -21.6636   -6.8875   21.4242 O   0  0  0  0  0  0
  -22.3513  -14.5519   20.6693 O   0  0  0  0  0  0
  -24.6237  -31.8607   23.2025 C   0  0  0  0  0  0
  -25.9091  -32.4785   23.8353 C   0  0  1  0  0  0
  -27.2305  -27.3368   20.1255 C   0  0  0  0  0  0
  -25.5913  -33.8585   24.2284 N   0  0  0  0  0  0
  -23.4174  -30.4822   21.5444 C   0  0  2  0  0  0
  -24.8659  -28.9339   20.1157 C   0  0  0  0  0  0
  -22.7462  -29.4625   22.4945 C   0  0  0  0  0  0
  -18.0284  -28.1387   22.8491 C   0  0  0  0  0  0
  -24.1487  -36.7292   23.2641 C   0  0  0  0  0  0
  -25.9552  -30.7981   21.3693 C   0  0  0  0  0  0
  -26.0322  -29.4243   20.7169 C   0  0  0  0  0  0
  -27.2196  -28.6385   20.7087 C   0  0  0  0  0  0
  -26.0456  -26.8907   19.5013 C   0  0  0  0  0  0
  -24.8729  -27.6716   19.4990 C   0  0  0  0  0  0
  -23.6322  -29.8119   20.1613 C   0  0  0  0  0  0
  -25.4112  -36.3087   24.0333 C   0  0  1  0  0  0
  -20.5883  -28.3684   23.1294 C   0  0  2  0  0  0
  -20.6772  -26.9409   22.5416 C   0  0  0  0  0  0
  -19.5750  -26.6388   21.5215 C   0  0  0  0  0  0
  -18.1930  -26.7932   22.1626 C   0  0  0  0  0  0
  -19.1537  -28.8852   23.2890 C   0  0  0  0  0  0
  -18.9460  -30.1456   23.8904 C   0  0  0  0  0  0
  -17.6461  -30.6589   24.0566 C   0  0  0  0  0  0
  -25.9046  -34.9456   23.5110 C   0  0  0  0  0  0
  -16.5352  -29.9089   23.6330 C   0  0  0  0  0  0
  -16.7273  -28.6506   23.0353 C   0  0  0  0  0  0
  -26.4487  -31.6591   25.0715 C   0  0  0  0  0  0
  -25.3728  -31.3719   26.1447 C   0  0  0  0  0  0
  -27.0329  -30.3023   24.6146 C   0  0  0  0  0  0
  -27.6051  -32.4321   25.7485 C   0  0  0  0  0  0
  -27.5577  -37.1802   24.8468 C   0  0  0  0  0  0
  -21.4178  -29.3039   22.3689 N   0  0  0  0  0  0
  -26.4293  -37.3779   23.9408 N   0  0  0  0  0  0
  -24.6841  -31.0633   22.0964 N   0  0  0  0  0  0
  -23.4195  -28.8168   23.3021 O   0  0  0  0  0  0
  -28.3638  -26.5191   20.1257 O   0  0  0  0  0  0
  -26.5615  -34.8921   22.4676 O   0  0  0  0  0  0
  -23.5405  -32.1394   23.7367 O   0  0  0  0  0  0
  -28.6123  -19.2686   20.8459 C   0  0  0  0  0  0
  -30.8468  -17.8180   19.9817 C   0  0  0  0  0  0
  -29.5797  -19.9749   20.0861 C   0  0  0  0  0  0
  -29.8473  -17.1041   20.6933 C   0  0  0  0  0  0
  -28.7474  -17.8821   21.1511 C   0  0  0  0  0  0
  -30.7229  -19.2111   19.6893 C   0  0  0  0  0  0
  -30.5342  -24.4691   19.7008 C   0  0  0  0  0  0
  -29.3114  -21.4365   19.5471 C   0  0  0  0  0  0
  -28.2316  -25.1279   20.6116 C   0  0  0  0  0  0
  -29.0723  -24.0007   19.8613 C   0  0  2  0  0  0
  -29.8440  -15.6608   20.9519 N   0  0  0  0  0  0
  -29.0308  -22.5991   20.4784 N   0  3  0  0  0  0
  -27.5077  -17.1240   22.0840 Cl  0  0  0  0  0  0
  -31.9973  -19.9372   18.7736 Cl  0  0  0  0  0  0
  -31.4804  -12.5117   19.1528 H   0  0  0  0  0  0
  -30.3724  -11.3897   19.8900 H   0  0  0  0  0  0
  -29.7715  -11.7625   17.4783 H   0  0  0  0  0  0
  -29.6532  -13.4823   17.7513 H   0  0  0  0  0  0
  -27.8645  -11.2969   18.8639 H   0  0  0  0  0  0
  -27.3775  -12.5863   17.7965 H   0  0  0  0  0  0
  -27.6766  -14.2551   19.5363 H   0  0  0  0  0  0
  -28.7075  -12.0366   21.3727 H   0  0  0  0  0  0
  -28.4424  -13.6851   21.8562 H   0  0  0  0  0  0
  -25.2762   -9.5673   22.4760 H   0  0  0  0  0  0
  -23.9997   -7.4626   22.7476 H   0  0  0  0  0  0
  -21.0840   -8.8768   19.8954 H   0  0  0  0  0  0
  -22.3700  -10.9664   19.6162 H   0  0  0  0  0  0
  -21.2000   -7.6145   23.9714 H   0  0  0  0  0  0
  -21.1480   -6.0521   25.9078 H   0  0  0  0  0  0
  -22.0600   -2.7607   23.2847 H   0  0  0  0  0  0
  -22.4106  -11.9871   22.4790 H   0  0  0  0  0  0
  -21.1109  -13.1242   22.2624 H   0  0  0  0  0  0
  -24.6560  -15.8379   20.5430 H   0  0  0  0  0  0
  -26.2864  -15.6392   20.1545 H   0  0  0  0  0  0
  -26.7159  -32.5467   23.1107 H   0  0  0  0  0  0
  -25.0061  -33.9731   25.0429 H   0  0  0  0  0  0
  -22.7105  -31.3017   21.3992 H   0  0  0  0  0  0
  -23.3749  -35.9626   23.3315 H   0  0  0  0  0  0
  -24.3576  -36.8899   22.2053 H   0  0  0  0  0  0
  -23.7240  -37.6499   23.6652 H   0  0  0  0  0  0
  -26.0806  -31.5603   20.5990 H   0  0  0  0  0  0
  -26.8379  -30.8515   21.9950 H   0  0  0  0  0  0
  -28.1190  -29.0145   21.1764 H   0  0  0  0  0  0
  -26.0195  -25.9285   19.0099 H   0  0  0  0  0  0
  -23.9798  -27.2923   19.0215 H   0  0  0  0  0  0
  -23.7491  -30.5854   19.4015 H   0  0  0  0  0  0
  -22.7537  -29.2377   19.8617 H   0  0  0  0  0  0
  -25.1294  -36.1944   25.0827 H   0  0  0  0  0  0
  -20.9978  -28.3257   24.1414 H   0  0  0  0  0  0
  -20.5674  -26.2291   23.3612 H   0  0  0  0  0  0
  -21.6640  -26.7445   22.1205 H   0  0  0  0  0  0
  -19.6910  -25.6301   21.1239 H   0  0  0  0  0  0
  -19.6690  -27.3202   20.6748 H   0  0  0  0  0  0
  -17.4199  -26.6684   21.4027 H   0  0  0  0  0  0
  -18.0330  -26.0075   22.9024 H   0  0  0  0  0  0
  -19.7936  -30.7271   24.2275 H   0  0  0  0  0  0
  -17.5016  -31.6270   24.5167 H   0  0  0  0  0  0
  -15.5352  -30.2994   23.7651 H   0  0  0  0  0  0
  -15.8673  -28.0828   22.7065 H   0  0  0  0  0  0
  -24.5908  -30.7063   25.7777 H   0  0  0  0  0  0
  -24.8912  -32.2880   26.4874 H   0  0  0  0  0  0
  -25.8061  -30.8898   27.0219 H   0  0  0  0  0  0
  -26.2894  -29.6774   24.1185 H   0  0  0  0  0  0
  -27.4060  -29.7277   25.4633 H   0  0  0  0  0  0
  -27.8748  -30.4326   23.9342 H   0  0  0  0  0  0
  -27.2669  -33.3624   26.2062 H   0  0  0  0  0  0
  -28.3862  -32.6877   25.0313 H   0  0  0  0  0  0
  -28.0717  -31.8445   26.5401 H   0  0  0  0  0  0
  -28.2605  -38.0089   24.7506 H   0  0  0  0  0  0
  -28.1064  -36.2621   24.6311 H   0  0  0  0  0  0
  -27.2294  -37.1472   25.8872 H   0  0  0  0  0  0
  -20.9352  -29.8758   21.6898 H   0  0  0  0  0  0
  -26.0178  -38.2858   24.1403 H   0  0  0  0  0  0
  -27.7179  -19.7792   21.1717 H   0  0  0  0  0  0
  -31.7202  -17.2985   19.6174 H   0  0  0  0  0  0
  -30.5818  -25.4303   19.1875 H   0  0  0  0  0  0
  -31.1329  -23.7723   19.1147 H   0  0  0  0  0  0
  -31.0226  -24.5954   20.6679 H   0  0  0  0  0  0
  -28.4643  -21.3630   18.8643 H   0  0  0  0  0  0
  -30.1403  -21.7327   18.9096 H   0  0  0  0  0  0
  -28.5427  -25.1476   21.6565 H   0  0  0  0  0  0
  -27.1872  -24.8175   20.6391 H   0  0  0  0  0  0
  -28.6380  -23.9205   18.8635 H   0  0  0  0  0  0
  -28.9891  -15.3420   21.3834 H   0  0  0  0  0  0
  -29.6792  -22.5574   21.2486 H   0  0  0  0  0  0
  -28.1123  -22.4408   20.8630 H   0  0  0  0  0  0
  1 25  1  0  0  0
  1 30  2  0  0  0
  1 81  1  0  0  0
  2  3  1  0  0  0
  2 25  1  0  0  0
  2 85  1  0  0  0
  2 86  1  0  0  0
  3  4  1  0  0  0
  3 87  1  0  0  0
  3 88  1  0  0  0
  4  5  1  0  0  0
  4 89  1  0  0  0
  4 90  1  0  0  0
  5  6  1  0  0  0
  5 26  1  0  0  0
  5 91  1  0  0  0
  6 25  1  0  0  0
  6 92  1  0  0  0
  6 93  1  0  0  0
  7  8  2  0  0  0
  7 26  1  0  0  0
  7 29  1  0  0  0
  8  9  1  0  0  0
  8 22  1  0  0  0
  9 10  1  0  0  0
  9 27  2  0  0  0
 10 11  2  0  0  0
 10 15  1  0  0  0
 11 12  1  0  0  0
 11 94  1  0  0  0
 12 13  2  0  0  0
 12 95  1  0  0  0
 13 14  1  0  0  0
 13 31  1  0  0  0
 14 15  2  0  0  0
 14 96  1  0  0  0
 15 97  1  0  0  0
 16 17  2  0  0  0
 16 21  1  0  0  0
 16 31  1  0  0  0
 17 18  1  0  0  0
 17 98  1  0  0  0
 18 19  2  0  0  0
 18 99  1  0  0  0
 19 20  1  0  0  0
 19 24  1  0  0  0
 20 21  2  0  0  0
 20100  1  0  0  0
 21 23  1  0  0  0
 22 28  1  0  0  0
 22 32  2  0  0  0
 26 27  1  0  0  0
 28101  1  0  0  0
 28102  1  0  0  0
 29103  1  0  0  0
 29104  1  0  0  0
 33 34  1  0  0  0
 33 66  1  0  0  0
 33 70  2  0  0  0
 34 36  1  0  0  0
 34 59  1  0  0  0
 34105  1  0  0  0
 35 44  2  0  0  0
 35 45  1  0  0  0
 35 68  1  0  0  0
 36 56  1  0  0  0
 36106  1  0  0  0
 37 39  1  0  0  0
 37 47  1  0  0  0
 37 66  1  0  0  0
 37107  1  0  0  0
 38 43  2  0  0  0
 38 46  1  0  0  0
 38 47  1  0  0  0
 39 64  1  0  0  0
 39 67  2  0  0  0
 40 52  1  0  0  0
 40 53  2  0  0  0
 40 58  1  0  0  0
 41108  1  0  0  0
 41109  1  0  0  0
 41110  1  0  0  0
 41 48  1  0  0  0
 42 43  1  0  0  0
 42 66  1  0  0  0
 42111  1  0  0  0
 42112  1  0  0  0
 43 44  1  0  0  0
 44113  1  0  0  0
 45 46  2  0  0  0
 45114  1  0  0  0
 46115  1  0  0  0
 47116  1  0  0  0
 47117  1  0  0  0
 48 56  1  0  0  0
 48 65  1  0  0  0
 48118  1  0  0  0
 49 50  1  0  0  0
 49 53  1  0  0  0
 49 64  1  0  0  0
 49119  1  0  0  0
 50 51  1  0  0  0
 50120  1  0  0  0
 50121  1  0  0  0
 51 52  1  0  0  0
 51122  1  0  0  0
 51123  1  0  0  0
 52124  1  0  0  0
 52125  1  0  0  0
 53 54  1  0  0  0
 54 55  2  0  0  0
 54126  1  0  0  0
 55 57  1  0  0  0
 55127  1  0  0  0
 56 69  2  0  0  0
 57 58  2  0  0  0
 57128  1  0  0  0
 58129  1  0  0  0
 59 60  1  0  0  0
 59 61  1  0  0  0
 59 62  1  0  0  0
 60130  1  0  0  0
 60131  1  0  0  0
 60132  1  0  0  0
 61133  1  0  0  0
 61134  1  0  0  0
 61135  1  0  0  0
 62136  1  0  0  0
 62137  1  0  0  0
 62138  1  0  0  0
 63 65  1  0  0  0
 63139  1  0  0  0
 63140  1  0  0  0
 63141  1  0  0  0
 64142  1  0  0  0
 65143  1  0  0  0
 68 79  1  0  0  0
 71 73  2  0  0  0
 71 75  1  0  0  0
 71144  1  0  0  0
 72 74  1  0  0  0
 72 76  2  0  0  0
 72145  1  0  0  0
 73 76  1  0  0  0
 73 78  1  0  0  0
 74 75  2  0  0  0
 74 81  1  0  0  0
 75 83  1  0  0  0
 76 84  1  0  0  0
 77146  1  0  0  0
 77147  1  0  0  0
 77148  1  0  0  0
 77 80  1  0  0  0
 78 82  1  0  0  0
 78149  1  0  0  0
 78150  1  0  0  0
 79 80  1  0  0  0
 79151  1  0  0  0
 79152  1  0  0  0
 80 82  1  0  0  0
 80153  1  0  0  0
 81154  1  0  0  0
 82155  1  0  0  0
 82156  1  0  0  0
M  CHG  1  82   1
M  ISO  4   1 100  68 101  79 101  81 100
M  END
> <chiral flag>
0

> <version>
0

> <s_m_source_file>
/data/baiqing/PycharmProjects/Reinvent-master-3.2/result/LINK_invent/BTK/process_docking_weight1_custom_sum_contain_oxygen_bond_distance_aromatic_linkinvent_7_9_3/rearranged_h_0015.sdf

> <i_m_source_file_index>
68

> <r_mmod_Potential_Energy-OPLS-2005>
-127.769317626953

> <r_mmod_Stretch_Energy-OPLS-2005>
77.9755554199219

> <r_mmod_Bend_Energy-OPLS-2005>
136.914276123047

> <r_mmod_Torsional_Energy-OPLS-2005>
232.580032348633

> <r_mmod_Improper_Torsional_Energy-OPLS-2005>
4.38625240325928

> <r_mmod_Van_der_Waal_Energy-OPLS-2005>
139.249816894531

> <r_mmod_Electrostatic_Energy-OPLS-2005>
-291.743591308594

> <r_mmod_Solvation_Energy-OPLS-2005>
-468.048095703125

> <b_mmod_Minimization_Converged-OPLS-2005>
0

> <r_mmod_RMS_Derivative-OPLS-2005>
0.289982080459595

$$$$
69
                    3D
 Structure written by MMmdl.
157164  0  0  1  0            999 V2000
  -30.5961  -14.9834   20.2763 C   0  0  0  0  0  0
  -30.4391  -12.5921   19.4802 C   0  0  0  0  0  0
  -29.5127  -12.4329   18.2532 C   0  0  0  0  0  0
  -28.0492  -12.2238   18.6903 C   0  0  0  0  0  0
  -27.6067  -13.1876   19.8196 C   0  0  2  0  0  0
  -28.6732  -13.3644   20.9227 C   0  0  0  0  0  0
  -25.2480  -13.8003   20.5825 C   0  0  0  0  0  0
  -24.1742  -13.0319   20.9293 C   0  0  0  0  0  0
  -24.6295  -11.6786   20.8841 C   0  0  0  0  0  0
  -23.8973  -10.4216   21.0457 C   0  0  0  0  0  0
  -24.3553   -9.4137   21.9216 C   0  0  0  0  0  0
  -23.6251   -8.2172   22.0752 C   0  0  0  0  0  0
  -22.4238   -8.0223   21.3532 C   0  0  0  0  0  0
  -21.9859   -9.0194   20.4640 C   0  0  0  0  0  0
  -22.7164  -10.2080   20.3079 C   0  0  0  0  0  0
  -21.6817   -6.0720   22.5291 C   0  0  0  0  0  0
  -21.3988   -6.5639   23.8219 C   0  0  0  0  0  0
  -21.3661   -5.6795   24.9191 C   0  0  0  0  0  0
  -21.6045   -4.3060   24.7242 C   0  0  0  0  0  0
  -21.8819   -3.8144   23.4371 C   0  0  0  0  0  0
  -21.9183   -4.6954   22.3419 C   0  0  0  0  0  0
  -22.7782  -13.5156   21.1914 C   0  0  0  0  0  0
  -22.1660   -4.2146   21.0996 F   0  0  0  0  0  0
  -21.5625   -3.4544   25.7757 F   0  0  0  0  0  0
  -29.9457  -13.7430   20.2853 N   0  0  0  0  0  0
  -26.2816  -12.9086   20.3371 N   0  0  0  0  0  0
  -25.9208  -11.6296   20.5883 N   0  0  0  0  0  0
  -22.0403  -12.8153   22.0453 N   0  0  0  0  0  0
  -25.4196  -15.1735   20.4235 N   0  0  0  0  0  0
  -31.8273  -14.9048   20.3364 O   0  0  0  0  0  0
  -21.6596   -6.8838   21.4238 O   0  0  0  0  0  0
  -22.3519  -14.5488   20.6757 O   0  0  0  0  0  0
  -24.6376  -31.8483   23.1909 C   0  0  0  0  0  0
  -25.9178  -32.4705   23.8279 C   0  0  1  0  0  0
  -27.2224  -27.1927   20.1387 C   0  0  0  0  0  0
  -25.5951  -33.8514   24.2195 N   0  0  0  0  0  0
  -23.4364  -30.4694   21.5364 C   0  0  2  0  0  0
  -24.8860  -28.9049   20.1074 C   0  0  0  0  0  0
  -22.7516  -29.4585   22.4885 C   0  0  0  0  0  0
  -18.0316  -28.1364   22.8452 C   0  0  0  0  0  0
  -24.1497  -36.7263   23.2640 C   0  0  0  0  0  0
  -25.9884  -30.7390   21.3814 C   0  0  0  0  0  0
  -26.0606  -29.3560   20.7220 C   0  0  0  0  0  0
  -27.2294  -28.5157   20.7220 C   0  0  0  0  0  0
  -26.0234  -26.8309   19.4828 C   0  0  0  0  0  0
  -24.8775  -27.6534   19.4737 C   0  0  0  0  0  0
  -23.6578  -29.7980   20.1549 C   0  0  0  0  0  0
  -25.4128  -36.3038   24.0311 C   0  0  1  0  0  0
  -20.5914  -28.3706   23.1236 C   0  0  2  0  0  0
  -20.6825  -26.9413   22.5398 C   0  0  0  0  0  0
  -19.5810  -26.6353   21.5204 C   0  0  0  0  0  0
  -18.1986  -26.7902   22.1605 C   0  0  0  0  0  0
  -19.1562  -28.8848   23.2837 C   0  0  0  0  0  0
  -18.9473  -30.1449   23.8849 C   0  0  0  0  0  0
  -17.6465  -30.6562   24.0531 C   0  0  0  0  0  0
  -25.9078  -34.9411   23.5059 C   0  0  0  0  0  0
  -16.5364  -29.9039   23.6317 C   0  0  0  0  0  0
  -16.7295  -28.6464   23.0328 C   0  0  0  0  0  0
  -26.4523  -31.6560   25.0699 C   0  0  0  0  0  0
  -25.3715  -31.3728   26.1396 C   0  0  0  0  0  0
  -27.0383  -30.2963   24.6238 C   0  0  0  0  0  0
  -27.6067  -32.4309   25.7482 C   0  0  0  0  0  0
  -27.5579  -37.1784   24.8464 C   0  0  0  0  0  0
  -21.4223  -29.3044   22.3608 N   0  0  0  0  0  0
  -26.4292  -37.3747   23.9403 N   0  0  0  0  0  0
  -24.7067  -31.0386   22.0917 N   0  0  0  0  0  0
  -23.4181  -28.8154   23.3033 O   0  0  0  0  0  0
  -28.2979  -26.2492   20.2191 O   0  0  0  0  0  0
  -26.5665  -34.8906   22.4638 O   0  0  0  0  0  0
  -23.5515  -32.1349   23.7172 O   0  0  0  0  0  0
  -29.8951  -17.8491   20.5156 C   0  0  0  0  0  0
  -31.0508  -16.8286   18.5510 C   0  0  0  0  0  0
  -28.7390  -16.1456   18.8192 C   0  0  0  0  0  0
  -28.2749  -19.1002   19.0346 C   0  0  0  0  0  0
  -28.7476  -21.9134   20.0740 C   0  0  0  0  0  0
  -29.0514  -23.5016   20.4691 C   0  0  0  0  0  0
  -29.5731  -20.5499   20.6035 C   0  0  0  0  0  0
  -28.0580  -24.7479   20.0014 C   0  0  0  0  0  0
  -30.0052  -16.4356   19.6323 C   0  0  0  0  0  0
  -29.3121  -19.0881   20.0742 N   0  0  0  0  0  0
  -30.4772  -17.8581   21.6028 O   0  0  0  0  0  0
  -31.4642  -12.7448   19.1395 H   0  0  0  0  0  0
  -30.4558  -11.6816   20.0816 H   0  0  0  0  0  0
  -29.8366  -11.5780   17.6575 H   0  0  0  0  0  0
  -29.5985  -13.2956   17.5948 H   0  0  0  0  0  0
  -27.9633  -11.1945   19.0401 H   0  0  0  0  0  0
  -27.3800  -12.3048   17.8331 H   0  0  0  0  0  0
  -27.4564  -14.1152   19.3073 H   0  0  0  0  0  0
  -28.7895  -12.4460   21.4996 H   0  0  0  0  0  0
  -28.3653  -14.1393   21.6256 H   0  0  0  0  0  0
  -25.2689   -9.5626   22.4807 H   0  0  0  0  0  0
  -23.9973   -7.4549   22.7452 H   0  0  0  0  0  0
  -21.0800   -8.8691   19.8939 H   0  0  0  0  0  0
  -22.3602  -10.9638   19.6218 H   0  0  0  0  0  0
  -21.1959   -7.6144   23.9722 H   0  0  0  0  0  0
  -21.1488   -6.0531   25.9093 H   0  0  0  0  0  0
  -22.0598   -2.7610   23.2867 H   0  0  0  0  0  0
  -22.3989  -11.9784   22.4823 H   0  0  0  0  0  0
  -21.1040  -13.1209   22.2701 H   0  0  0  0  0  0
  -24.6519  -15.8275   20.5271 H   0  0  0  0  0  0
  -26.2726  -15.6107   20.1050 H   0  0  0  0  0  0
  -26.7233  -32.5331   23.1007 H   0  0  0  0  0  0
  -25.0057  -33.9637   25.0311 H   0  0  0  0  0  0
  -22.7348  -31.2927   21.3849 H   0  0  0  0  0  0
  -23.3755  -35.9600   23.3296 H   0  0  0  0  0  0
  -24.3582  -36.8905   22.2058 H   0  0  0  0  0  0
  -23.7259  -37.6459   23.6683 H   0  0  0  0  0  0
  -26.1371  -31.4957   20.6106 H   0  0  0  0  0  0
  -26.8622  -30.7869   22.0194 H   0  0  0  0  0  0
  -28.1258  -28.8586   21.2198 H   0  0  0  0  0  0
  -25.9380  -25.8766   18.9854 H   0  0  0  0  0  0
  -23.9804  -27.3016   18.9814 H   0  0  0  0  0  0
  -23.7816  -30.5703   19.3954 H   0  0  0  0  0  0
  -22.7743  -29.2319   19.8533 H   0  0  0  0  0  0
  -25.1312  -36.1866   25.0800 H   0  0  0  0  0  0
  -20.9995  -28.3291   24.1363 H   0  0  0  0  0  0
  -20.5749  -26.2297   23.3597 H   0  0  0  0  0  0
  -21.6698  -26.7465   22.1187 H   0  0  0  0  0  0
  -19.6985  -25.6250   21.1258 H   0  0  0  0  0  0
  -19.6750  -27.3137   20.6713 H   0  0  0  0  0  0
  -17.4260  -26.6632   21.4006 H   0  0  0  0  0  0
  -18.0403  -26.0051   22.8999 H   0  0  0  0  0  0
  -19.7945  -30.7288   24.2186 H   0  0  0  0  0  0
  -17.5008  -31.6246   24.5121 H   0  0  0  0  0  0
  -15.5361  -30.2925   23.7641 H   0  0  0  0  0  0
  -15.8712  -28.0763   22.7046 H   0  0  0  0  0  0
  -24.5905  -30.7067   25.7700 H   0  0  0  0  0  0
  -24.8891  -32.2901   26.4778 H   0  0  0  0  0  0
  -25.8013  -30.8922   27.0193 H   0  0  0  0  0  0
  -26.2990  -29.6686   24.1247 H   0  0  0  0  0  0
  -27.4018  -29.7259   25.4796 H   0  0  0  0  0  0
  -27.8889  -30.4211   23.9535 H   0  0  0  0  0  0
  -27.2672  -33.3620   26.2035 H   0  0  0  0  0  0
  -28.3901  -32.6847   25.0324 H   0  0  0  0  0  0
  -28.0706  -31.8438   26.5419 H   0  0  0  0  0  0
  -28.2584  -38.0091   24.7505 H   0  0  0  0  0  0
  -28.1086  -36.2616   24.6298 H   0  0  0  0  0  0
  -27.2293  -37.1441   25.8867 H   0  0  0  0  0  0
  -20.9436  -29.8664   21.6713 H   0  0  0  0  0  0
  -26.0160  -38.2816   24.1395 H   0  0  0  0  0  0
  -32.0033  -17.1305   18.9896 H   0  0  0  0  0  0
  -30.7124  -17.6657   17.9398 H   0  0  0  0  0  0
  -31.2518  -16.0047   17.8652 H   0  0  0  0  0  0
  -28.8335  -15.2041   18.2928 H   0  0  0  0  0  0
  -27.8551  -16.1608   19.4530 H   0  0  0  0  0  0
  -28.5827  -16.8270   17.9889 H   0  0  0  0  0  0
  -28.7121  -18.9923   18.0425 H   0  0  0  0  0  0
  -27.6615  -19.9924   18.9987 H   0  0  0  0  0  0
  -27.5299  -18.3306   19.2156 H   0  0  0  0  0  0
  -28.7772  -21.8918   18.9847 H   0  0  0  0  0  0
  -27.7020  -21.7552   20.3395 H   0  0  0  0  0  0
  -30.0468  -23.7416   20.0950 H   0  0  0  0  0  0
  -29.1438  -23.5608   21.5539 H   0  0  0  0  0  0
  -29.4632  -20.5062   21.6870 H   0  0  0  0  0  0
  -30.6348  -20.7376   20.4398 H   0  0  0  0  0  0
  -27.0888  -24.5225   20.4465 H   0  0  0  0  0  0
  -27.9086  -24.6283   18.9282 H   0  0  0  0  0  0
  1 25  1  0  0  0
  1 30  2  0  0  0
  1 79  1  0  0  0
  2  3  1  0  0  0
  2 25  1  0  0  0
  2 82  1  0  0  0
  2 83  1  0  0  0
  3  4  1  0  0  0
  3 84  1  0  0  0
  3 85  1  0  0  0
  4  5  1  0  0  0
  4 86  1  0  0  0
  4 87  1  0  0  0
  5  6  1  0  0  0
  5 26  1  0  0  0
  5 88  1  0  0  0
  6 25  1  0  0  0
  6 89  1  0  0  0
  6 90  1  0  0  0
  7  8  2  0  0  0
  7 26  1  0  0  0
  7 29  1  0  0  0
  8  9  1  0  0  0
  8 22  1  0  0  0
  9 10  1  0  0  0
  9 27  2  0  0  0
 10 11  2  0  0  0
 10 15  1  0  0  0
 11 12  1  0  0  0
 11 91  1  0  0  0
 12 13  2  0  0  0
 12 92  1  0  0  0
 13 14  1  0  0  0
 13 31  1  0  0  0
 14 15  2  0  0  0
 14 93  1  0  0  0
 15 94  1  0  0  0
 16 17  2  0  0  0
 16 21  1  0  0  0
 16 31  1  0  0  0
 17 18  1  0  0  0
 17 95  1  0  0  0
 18 19  2  0  0  0
 18 96  1  0  0  0
 19 20  1  0  0  0
 19 24  1  0  0  0
 20 21  2  0  0  0
 20 97  1  0  0  0
 21 23  1  0  0  0
 22 28  1  0  0  0
 22 32  2  0  0  0
 26 27  1  0  0  0
 28 98  1  0  0  0
 28 99  1  0  0  0
 29100  1  0  0  0
 29101  1  0  0  0
 33 34  1  0  0  0
 33 66  1  0  0  0
 33 70  2  0  0  0
 34 36  1  0  0  0
 34 59  1  0  0  0
 34102  1  0  0  0
 35 44  2  0  0  0
 35 45  1  0  0  0
 35 68  1  0  0  0
 36 56  1  0  0  0
 36103  1  0  0  0
 37 39  1  0  0  0
 37 47  1  0  0  0
 37 66  1  0  0  0
 37104  1  0  0  0
 38 43  2  0  0  0
 38 46  1  0  0  0
 38 47  1  0  0  0
 39 64  1  0  0  0
 39 67  2  0  0  0
 40 52  1  0  0  0
 40 53  2  0  0  0
 40 58  1  0  0  0
 41105  1  0  0  0
 41106  1  0  0  0
 41107  1  0  0  0
 41 48  1  0  0  0
 42 43  1  0  0  0
 42 66  1  0  0  0
 42108  1  0  0  0
 42109  1  0  0  0
 43 44  1  0  0  0
 44110  1  0  0  0
 45 46  2  0  0  0
 45111  1  0  0  0
 46112  1  0  0  0
 47113  1  0  0  0
 47114  1  0  0  0
 48 56  1  0  0  0
 48 65  1  0  0  0
 48115  1  0  0  0
 49 50  1  0  0  0
 49 53  1  0  0  0
 49 64  1  0  0  0
 49116  1  0  0  0
 50 51  1  0  0  0
 50117  1  0  0  0
 50118  1  0  0  0
 51 52  1  0  0  0
 51119  1  0  0  0
 51120  1  0  0  0
 52121  1  0  0  0
 52122  1  0  0  0
 53 54  1  0  0  0
 54 55  2  0  0  0
 54123  1  0  0  0
 55 57  1  0  0  0
 55124  1  0  0  0
 56 69  2  0  0  0
 57 58  2  0  0  0
 57125  1  0  0  0
 58126  1  0  0  0
 59 60  1  0  0  0
 59 61  1  0  0  0
 59 62  1  0  0  0
 60127  1  0  0  0
 60128  1  0  0  0
 60129  1  0  0  0
 61130  1  0  0  0
 61131  1  0  0  0
 61132  1  0  0  0
 62133  1  0  0  0
 62134  1  0  0  0
 62135  1  0  0  0
 63 65  1  0  0  0
 63136  1  0  0  0
 63137  1  0  0  0
 63138  1  0  0  0
 64139  1  0  0  0
 65140  1  0  0  0
 68 78  1  0  0  0
 71 79  1  0  0  0
 71 80  1  0  0  0
 71 81  2  0  0  0
 72141  1  0  0  0
 72142  1  0  0  0
 72143  1  0  0  0
 72 79  1  0  0  0
 73 79  1  0  0  0
 73144  1  0  0  0
 73145  1  0  0  0
 73146  1  0  0  0
 74 80  1  0  0  0
 74147  1  0  0  0
 74148  1  0  0  0
 74149  1  0  0  0
 75 76  1  0  0  0
 75 77  1  0  0  0
 75150  1  0  0  0
 75151  1  0  0  0
 76 78  1  0  0  0
 76152  1  0  0  0
 76153  1  0  0  0
 77 80  1  0  0  0
 77154  1  0  0  0
 77155  1  0  0  0
 78156  1  0  0  0
 78157  1  0  0  0
M  ISO  4   1 100  68 101  78 101  79 100
M  END
> <chiral flag>
0

> <version>
0

> <s_m_source_file>
/data/baiqing/PycharmProjects/Reinvent-master-3.2/result/LINK_invent/BTK/process_docking_weight1_custom_sum_contain_oxygen_bond_distance_aromatic_linkinvent_7_9_3/rearranged_h_0015.sdf

> <i_m_source_file_index>
69

> <r_mmod_Potential_Energy-OPLS-2005>
703.023986816406

> <r_mmod_Stretch_Energy-OPLS-2005>
258.56298828125

> <r_mmod_Bend_Energy-OPLS-2005>
279.226013183594

> <r_mmod_Torsional_Energy-OPLS-2005>
280.018310546875

> <r_mmod_Improper_Torsional_Energy-OPLS-2005>
18.466869354248

> <r_mmod_Van_der_Waal_Energy-OPLS-2005>
153.364700317383

> <r_mmod_Electrostatic_Energy-OPLS-2005>
-270.636566162109

> <r_mmod_Solvation_Energy-OPLS-2005>
-217.777908325195

> <b_mmod_Minimization_Converged-OPLS-2005>
0

> <r_mmod_RMS_Derivative-OPLS-2005>
2.05855274200439

$$$$
70
                    3D
 Structure written by MMmdl.
165173  0  0  1  0            999 V2000
  -30.7188  -14.4523   20.6061 C   0  0  0  0  0  0
  -30.4161  -12.3059   19.4270 C   0  0  0  0  0  0
  -29.4906  -12.5158   18.2118 C   0  0  0  0  0  0
  -28.0131  -12.3740   18.6221 C   0  0  0  0  0  0
  -27.6615  -13.2092   19.8822 C   0  0  2  0  0  0
  -28.6999  -12.9833   21.0046 C   0  0  0  0  0  0
  -25.2561  -13.8147   20.5668 C   0  0  0  0  0  0
  -24.1813  -13.0432   20.9160 C   0  0  0  0  0  0
  -24.6385  -11.6911   20.8733 C   0  0  0  0  0  0
  -23.9056  -10.4299   21.0408 C   0  0  0  0  0  0
  -24.3607   -9.4212   21.9188 C   0  0  0  0  0  0
  -23.6292   -8.2242   22.0753 C   0  0  0  0  0  0
  -22.4271   -8.0281   21.3545 C   0  0  0  0  0  0
  -21.9906   -9.0253   20.4643 C   0  0  0  0  0  0
  -22.7227  -10.2136   20.3061 C   0  0  0  0  0  0
  -21.6850   -6.0739   22.5280 C   0  0  0  0  0  0
  -21.4010   -6.5637   23.8212 C   0  0  0  0  0  0
  -21.3662   -5.6791   24.9170 C   0  0  0  0  0  0
  -21.6044   -4.3056   24.7222 C   0  0  0  0  0  0
  -21.8819   -3.8147   23.4342 C   0  0  0  0  0  0
  -21.9190   -4.6968   22.3397 C   0  0  0  0  0  0
  -22.7844  -13.5236   21.1837 C   0  0  0  0  0  0
  -22.1660   -4.2153   21.0980 F   0  0  0  0  0  0
  -21.5630   -3.4543   25.7734 F   0  0  0  0  0  0
  -30.0354  -13.2841   20.4609 N   0  0  0  0  0  0
  -26.3028  -12.9343   20.3413 N   0  0  0  0  0  0
  -25.9319  -11.6497   20.5790 N   0  0  0  0  0  0
  -22.0483  -12.8238   22.0394 N   0  0  0  0  0  0
  -25.4279  -15.1849   20.4057 N   0  0  0  0  0  0
  -31.8199  -14.6305   20.0780 O   0  0  0  0  0  0
  -21.6632   -6.8877   21.4245 O   0  0  0  0  0  0
  -22.3543  -14.5549   20.6686 O   0  0  0  0  0  0
  -24.6141  -31.8678   23.2103 C   0  0  0  0  0  0
  -25.9037  -32.4829   23.8383 C   0  0  1  0  0  0
  -27.2394  -27.4328   20.1018 C   0  0  0  0  0  0
  -25.5904  -33.8623   24.2302 N   0  0  0  0  0  0
  -23.4025  -30.4928   21.5496 C   0  0  2  0  0  0
  -24.8522  -28.9635   20.1113 C   0  0  0  0  0  0
  -22.7425  -29.4651   22.4978 C   0  0  0  0  0  0
  -18.0284  -28.1385   22.8463 C   0  0  0  0  0  0
  -24.1500  -36.7314   23.2640 C   0  0  0  0  0  0
  -25.9342  -30.8352   21.3642 C   0  0  0  0  0  0
  -26.0128  -29.4714   20.7078 C   0  0  0  0  0  0
  -27.2080  -28.7153   20.6960 C   0  0  0  0  0  0
  -26.0586  -26.9451   19.4896 C   0  0  0  0  0  0
  -24.8729  -27.6991   19.4978 C   0  0  0  0  0  0
  -23.6113  -29.8259   20.1638 C   0  0  0  0  0  0
  -25.4121  -36.3111   24.0342 C   0  0  1  0  0  0
  -20.5873  -28.3659   23.1322 C   0  0  2  0  0  0
  -20.6783  -26.9394   22.5424 C   0  0  0  0  0  0
  -19.5756  -26.6378   21.5226 C   0  0  0  0  0  0
  -18.1924  -26.7912   22.1624 C   0  0  0  0  0  0
  -19.1533  -28.8836   23.2884 C   0  0  0  0  0  0
  -18.9465  -30.1439   23.8904 C   0  0  0  0  0  0
  -17.6471  -30.6577   24.0556 C   0  0  0  0  0  0
  -25.9047  -34.9481   23.5110 C   0  0  0  0  0  0
  -16.5355  -29.9073   23.6341 C   0  0  0  0  0  0
  -16.7277  -28.6505   23.0321 C   0  0  0  0  0  0
  -26.4457  -31.6604   25.0714 C   0  0  0  0  0  0
  -25.3691  -31.3760   26.1444 C   0  0  0  0  0  0
  -27.0277  -30.3038   24.6100 C   0  0  0  0  0  0
  -27.6030  -32.4316   25.7475 C   0  0  0  0  0  0
  -27.5586  -37.1808   24.8466 C   0  0  0  0  0  0
  -21.4154  -29.3011   22.3712 N   0  0  0  0  0  0
  -26.4307  -37.3788   23.9408 N   0  0  0  0  0  0
  -24.6686  -31.0791   22.0994 N   0  0  0  0  0  0
  -23.4196  -28.8194   23.3016 O   0  0  0  0  0  0
  -28.4048  -26.6869   20.1536 O   0  0  0  0  0  0
  -26.5610  -34.8919   22.4672 O   0  0  0  0  0  0
  -23.5337  -32.1422   23.7504 O   0  0  0  0  0  0
  -31.5907  -17.4002   21.0143 C   0  0  0  0  0  0
  -29.3770  -19.1035   21.1458 C   0  0  0  0  0  0
  -31.7691  -18.7872   20.8377 C   0  0  0  0  0  0
  -30.3088  -16.8384   21.2067 C   0  0  0  0  0  0
  -30.6462  -19.6588   20.8510 C   0  0  0  0  0  0
  -29.1975  -17.7030   21.3323 C   0  0  0  0  0  0
  -33.1939  -19.2871   20.6527 C   0  0  0  0  0  0
  -31.4739  -21.4380   19.3334 C   0  0  0  0  0  0
  -26.8512  -17.9486   21.8268 C   0  0  0  0  0  0
  -29.1192  -22.9465   20.7778 C   0  0  0  0  0  0
  -29.4208  -24.4688   20.7358 C   0  0  0  0  0  0
  -30.2088  -22.0640   21.4389 C   0  0  0  0  0  0
  -28.2567  -25.2580   20.0936 C   0  0  0  0  0  0
  -30.0851  -15.4263   21.2939 N   0  0  0  0  0  0
  -30.7612  -21.0389   20.5474 N   0  0  0  0  0  0
  -27.9810  -17.1101   21.6108 O   0  0  0  0  0  0
  -31.4610  -12.3943   19.1264 H   0  0  0  0  0  0
  -30.3101  -11.2938   19.8187 H   0  0  0  0  0  0
  -29.7318  -11.7988   17.4260 H   0  0  0  0  0  0
  -29.6587  -13.5056   17.7849 H   0  0  0  0  0  0
  -27.8230  -11.3174   18.8120 H   0  0  0  0  0  0
  -27.3622  -12.6536   17.7932 H   0  0  0  0  0  0
  -27.7084  -14.2594   19.5939 H   0  0  0  0  0  0
  -28.6726  -11.9442   21.3363 H   0  0  0  0  0  0
  -28.4566  -13.5746   21.8887 H   0  0  0  0  0  0
  -25.2756   -9.5683   22.4761 H   0  0  0  0  0  0
  -23.9997   -7.4631   22.7472 H   0  0  0  0  0  0
  -21.0831   -8.8771   19.8951 H   0  0  0  0  0  0
  -22.3685  -10.9676   19.6167 H   0  0  0  0  0  0
  -21.2001   -7.6150   23.9716 H   0  0  0  0  0  0
  -21.1484   -6.0524   25.9075 H   0  0  0  0  0  0
  -22.0598   -2.7616   23.2840 H   0  0  0  0  0  0
  -22.4097  -11.9891   22.4770 H   0  0  0  0  0  0
  -21.1111  -13.1282   22.2606 H   0  0  0  0  0  0
  -24.6648  -15.8416   20.5208 H   0  0  0  0  0  0
  -26.3003  -15.6290   20.1510 H   0  0  0  0  0  0
  -26.7106  -32.5531   23.1146 H   0  0  0  0  0  0
  -25.0049  -33.9758   25.0438 H   0  0  0  0  0  0
  -22.6902  -31.3086   21.4095 H   0  0  0  0  0  0
  -23.3756  -35.9650   23.3322 H   0  0  0  0  0  0
  -24.3604  -36.8908   22.2053 H   0  0  0  0  0  0
  -23.7258  -37.6526   23.6639 H   0  0  0  0  0  0
  -26.0451  -31.6045   20.5986 H   0  0  0  0  0  0
  -26.8227  -30.8854   21.9812 H   0  0  0  0  0  0
  -28.1017  -29.1006   21.1675 H   0  0  0  0  0  0
  -26.0344  -25.9794   19.0049 H   0  0  0  0  0  0
  -23.9835  -27.3002   19.0305 H   0  0  0  0  0  0
  -23.7125  -30.6011   19.4036 H   0  0  0  0  0  0
  -22.7356  -29.2428   19.8697 H   0  0  0  0  0  0
  -25.1286  -36.1987   25.0839 H   0  0  0  0  0  0
  -20.9961  -28.3241   24.1447 H   0  0  0  0  0  0
  -20.5756  -26.2252   23.3606 H   0  0  0  0  0  0
  -21.6641  -26.7461   22.1166 H   0  0  0  0  0  0
  -19.6942  -25.6306   21.1214 H   0  0  0  0  0  0
  -19.6718  -27.3224   20.6788 H   0  0  0  0  0  0
  -17.4208  -26.6679   21.4017 H   0  0  0  0  0  0
  -18.0304  -26.0068   22.9042 H   0  0  0  0  0  0
  -19.7955  -30.7245   24.2260 H   0  0  0  0  0  0
  -17.5033  -31.6264   24.5143 H   0  0  0  0  0  0
  -15.5350  -30.2973   23.7675 H   0  0  0  0  0  0
  -15.8679  -28.0852   22.6993 H   0  0  0  0  0  0
  -24.5870  -30.7107   25.7785 H   0  0  0  0  0  0
  -24.8869  -32.2937   26.4808 H   0  0  0  0  0  0
  -25.7990  -30.8983   27.0250 H   0  0  0  0  0  0
  -26.2834  -29.6833   24.1109 H   0  0  0  0  0  0
  -27.3992  -29.7253   25.4565 H   0  0  0  0  0  0
  -27.8683  -30.4347   23.9285 H   0  0  0  0  0  0
  -27.2651  -33.3624   26.2024 H   0  0  0  0  0  0
  -28.3838  -32.6855   25.0303 H   0  0  0  0  0  0
  -28.0679  -31.8459   26.5405 H   0  0  0  0  0  0
  -28.2590  -38.0114   24.7482 H   0  0  0  0  0  0
  -28.1078  -36.2630   24.6303 H   0  0  0  0  0  0
  -27.2292  -37.1467   25.8865 H   0  0  0  0  0  0
  -20.9331  -29.8709   21.6911 H   0  0  0  0  0  0
  -26.0210  -38.2871   24.1395 H   0  0  0  0  0  0
  -32.4643  -16.7667   20.9862 H   0  0  0  0  0  0
  -28.5327  -19.7740   21.1825 H   0  0  0  0  0  0
  -33.9159  -18.5913   21.0822 H   0  0  0  0  0  0
  -33.3408  -20.2483   21.1438 H   0  0  0  0  0  0
  -33.4271  -19.3906   19.5934 H   0  0  0  0  0  0
  -31.6114  -20.5982   18.6495 H   0  0  0  0  0  0
  -32.4561  -21.8451   19.5751 H   0  0  0  0  0  0
  -30.9277  -22.2083   18.7896 H   0  0  0  0  0  0
  -26.0351  -17.3537   22.2358 H   0  0  0  0  0  0
  -26.5041  -18.3830   20.8889 H   0  0  0  0  0  0
  -27.0503  -18.7464   22.5433 H   0  0  0  0  0  0
  -28.8963  -22.5971   19.7686 H   0  0  0  0  0  0
  -28.1941  -22.7993   21.3365 H   0  0  0  0  0  0
  -30.3450  -24.6532   20.1857 H   0  0  0  0  0  0
  -29.5877  -24.8343   21.7498 H   0  0  0  0  0  0
  -29.8028  -21.5941   22.3366 H   0  0  0  0  0  0
  -31.0307  -22.6885   21.7885 H   0  0  0  0  0  0
  -27.3488  -24.9614   20.6225 H   0  0  0  0  0  0
  -28.1424  -24.9559   19.0508 H   0  0  0  0  0  0
  -29.1861  -15.1629   21.6696 H   0  0  0  0  0  0
  1 25  1  0  0  0
  1 30  2  0  0  0
  1 84  1  0  0  0
  2  3  1  0  0  0
  2 25  1  0  0  0
  2 87  1  0  0  0
  2 88  1  0  0  0
  3  4  1  0  0  0
  3 89  1  0  0  0
  3 90  1  0  0  0
  4  5  1  0  0  0
  4 91  1  0  0  0
  4 92  1  0  0  0
  5  6  1  0  0  0
  5 26  1  0  0  0
  5 93  1  0  0  0
  6 25  1  0  0  0
  6 94  1  0  0  0
  6 95  1  0  0  0
  7  8  2  0  0  0
  7 26  1  0  0  0
  7 29  1  0  0  0
  8  9  1  0  0  0
  8 22  1  0  0  0
  9 10  1  0  0  0
  9 27  2  0  0  0
 10 11  2  0  0  0
 10 15  1  0  0  0
 11 12  1  0  0  0
 11 96  1  0  0  0
 12 13  2  0  0  0
 12 97  1  0  0  0
 13 14  1  0  0  0
 13 31  1  0  0  0
 14 15  2  0  0  0
 14 98  1  0  0  0
 15 99  1  0  0  0
 16 17  2  0  0  0
 16 21  1  0  0  0
 16 31  1  0  0  0
 17 18  1  0  0  0
 17100  1  0  0  0
 18 19  2  0  0  0
 18101  1  0  0  0
 19 20  1  0  0  0
 19 24  1  0  0  0
 20 21  2  0  0  0
 20102  1  0  0  0
 21 23  1  0  0  0
 22 28  1  0  0  0
 22 32  2  0  0  0
 26 27  1  0  0  0
 28103  1  0  0  0
 28104  1  0  0  0
 29105  1  0  0  0
 29106  1  0  0  0
 33 34  1  0  0  0
 33 66  1  0  0  0
 33 70  2  0  0  0
 34 36  1  0  0  0
 34 59  1  0  0  0
 34107  1  0  0  0
 35 44  2  0  0  0
 35 45  1  0  0  0
 35 68  1  0  0  0
 36 56  1  0  0  0
 36108  1  0  0  0
 37 39  1  0  0  0
 37 47  1  0  0  0
 37 66  1  0  0  0
 37109  1  0  0  0
 38 43  2  0  0  0
 38 46  1  0  0  0
 38 47  1  0  0  0
 39 64  1  0  0  0
 39 67  2  0  0  0
 40 52  1  0  0  0
 40 53  2  0  0  0
 40 58  1  0  0  0
 41110  1  0  0  0
 41111  1  0  0  0
 41112  1  0  0  0
 41 48  1  0  0  0
 42 43  1  0  0  0
 42 66  1  0  0  0
 42113  1  0  0  0
 42114  1  0  0  0
 43 44  1  0  0  0
 44115  1  0  0  0
 45 46  2  0  0  0
 45116  1  0  0  0
 46117  1  0  0  0
 47118  1  0  0  0
 47119  1  0  0  0
 48 56  1  0  0  0
 48 65  1  0  0  0
 48120  1  0  0  0
 49 50  1  0  0  0
 49 53  1  0  0  0
 49 64  1  0  0  0
 49121  1  0  0  0
 50 51  1  0  0  0
 50122  1  0  0  0
 50123  1  0  0  0
 51 52  1  0  0  0
 51124  1  0  0  0
 51125  1  0  0  0
 52126  1  0  0  0
 52127  1  0  0  0
 53 54  1  0  0  0
 54 55  2  0  0  0
 54128  1  0  0  0
 55 57  1  0  0  0
 55129  1  0  0  0
 56 69  2  0  0  0
 57 58  2  0  0  0
 57130  1  0  0  0
 58131  1  0  0  0
 59 60  1  0  0  0
 59 61  1  0  0  0
 59 62  1  0  0  0
 60132  1  0  0  0
 60133  1  0  0  0
 60134  1  0  0  0
 61135  1  0  0  0
 61136  1  0  0  0
 61137  1  0  0  0
 62138  1  0  0  0
 62139  1  0  0  0
 62140  1  0  0  0
 63 65  1  0  0  0
 63141  1  0  0  0
 63142  1  0  0  0
 63143  1  0  0  0
 64144  1  0  0  0
 65145  1  0  0  0
 68 83  1  0  0  0
 71 73  2  0  0  0
 71 74  1  0  0  0
 71146  1  0  0  0
 72 75  2  0  0  0
 72 76  1  0  0  0
 72147  1  0  0  0
 73 75  1  0  0  0
 73 77  1  0  0  0
 74 76  2  0  0  0
 74 84  1  0  0  0
 75 85  1  0  0  0
 76 86  1  0  0  0
 77148  1  0  0  0
 77149  1  0  0  0
 77150  1  0  0  0
 78 85  1  0  0  0
 78151  1  0  0  0
 78152  1  0  0  0
 78153  1  0  0  0
 79 86  1  0  0  0
 79154  1  0  0  0
 79155  1  0  0  0
 79156  1  0  0  0
 80 81  1  0  0  0
 80 82  1  0  0  0
 80157  1  0  0  0
 80158  1  0  0  0
 81 83  1  0  0  0
 81159  1  0  0  0
 81160  1  0  0  0
 82 85  1  0  0  0
 82161  1  0  0  0
 82162  1  0  0  0
 83163  1  0  0  0
 83164  1  0  0  0
 84165  1  0  0  0
M  ISO  4   1 100  68 101  83 101  84 100
M  END
> <chiral flag>
0

> <version>
0

> <s_m_source_file>
/data/baiqing/PycharmProjects/Reinvent-master-3.2/result/LINK_invent/BTK/process_docking_weight1_custom_sum_contain_oxygen_bond_distance_aromatic_linkinvent_7_9_3/rearranged_h_0015.sdf

> <i_m_source_file_index>
70

> <r_mmod_Potential_Energy-OPLS-2005>
-71.3934326171875

> <r_mmod_Stretch_Energy-OPLS-2005>
41.0206184387207

> <r_mmod_Bend_Energy-OPLS-2005>
118.219268798828

> <r_mmod_Torsional_Energy-OPLS-2005>
241.480621337891

> <r_mmod_Improper_Torsional_Energy-OPLS-2005>
3.31023097038269

> <r_mmod_Van_der_Waal_Energy-OPLS-2005>
169.850921630859

> <r_mmod_Electrostatic_Energy-OPLS-2005>
-450.782104492188

> <r_mmod_Solvation_Energy-OPLS-2005>
-206.872421264648

> <b_mmod_Minimization_Converged-OPLS-2005>
0

> <r_mmod_RMS_Derivative-OPLS-2005>
2.66716003417969

$$$$
71
                    3D
 Structure written by MMmdl.
173181  0  0  1  0            999 V2000
  -30.8198  -14.3805   20.6016 C   0  0  0  0  0  0
  -30.4027  -12.2794   19.3984 C   0  0  0  0  0  0
  -29.4662  -12.4842   18.1921 C   0  0  0  0  0  0
  -27.9979  -12.3537   18.6232 C   0  0  0  0  0  0
  -27.6654  -13.2065   19.8793 C   0  0  2  0  0  0
  -28.7200  -13.0077   21.0002 C   0  0  0  0  0  0
  -25.2664  -13.8170   20.5768 C   0  0  0  0  0  0
  -24.1908  -13.0439   20.9242 C   0  0  0  0  0  0
  -24.6453  -11.6885   20.8849 C   0  0  0  0  0  0
  -23.9099  -10.4280   21.0454 C   0  0  0  0  0  0
  -24.3607   -9.4154   21.9193 C   0  0  0  0  0  0
  -23.6260   -8.2195   22.0726 C   0  0  0  0  0  0
  -22.4239   -8.0274   21.3526 C   0  0  0  0  0  0
  -21.9928   -9.0281   20.4640 C   0  0  0  0  0  0
  -22.7275  -10.2154   20.3090 C   0  0  0  0  0  0
  -21.6838   -6.0706   22.5222 C   0  0  0  0  0  0
  -21.3964   -6.5591   23.8161 C   0  0  0  0  0  0
  -21.3682   -5.6733   24.9144 C   0  0  0  0  0  0
  -21.6090   -4.2999   24.7161 C   0  0  0  0  0  0
  -21.8831   -3.8115   23.4273 C   0  0  0  0  0  0
  -21.9185   -4.6952   22.3337 C   0  0  0  0  0  0
  -22.7940  -13.5258   21.1848 C   0  0  0  0  0  0
  -22.1700   -4.2148   21.0914 F   0  0  0  0  0  0
  -21.5672   -3.4469   25.7678 F   0  0  0  0  0  0
  -30.0558  -13.2683   20.4345 N   0  0  0  0  0  0
  -26.3103  -12.9340   20.3490 N   0  0  0  0  0  0
  -25.9391  -11.6509   20.5906 N   0  0  0  0  0  0
  -22.0540  -12.8280   22.0381 N   0  0  0  0  0  0
  -25.4444  -15.1868   20.4138 N   0  0  0  0  0  0
  -31.8564  -14.5585   19.9538 O   0  0  0  0  0  0
  -21.6620   -6.8858   21.4182 O   0  0  0  0  0  0
  -22.3683  -14.5590   20.6704 O   0  0  0  0  0  0
  -24.6115  -31.8694   23.2124 C   0  0  0  0  0  0
  -25.9011  -32.4824   23.8403 C   0  0  1  0  0  0
  -27.2362  -27.4609   20.0719 C   0  0  0  0  0  0
  -25.5902  -33.8625   24.2339 N   0  0  0  0  0  0
  -23.3994  -30.4946   21.5482 C   0  0  2  0  0  0
  -24.8420  -28.9598   20.1147 C   0  0  0  0  0  0
  -22.7375  -29.4674   22.4923 C   0  0  0  0  0  0
  -18.0286  -28.1399   22.8456 C   0  0  0  0  0  0
  -24.1473  -36.7316   23.2623 C   0  0  0  0  0  0
  -25.9225  -30.8367   21.3640 C   0  0  0  0  0  0
  -25.9971  -29.4703   20.7188 C   0  0  0  0  0  0
  -27.1911  -28.7184   20.7119 C   0  0  0  0  0  0
  -26.0579  -26.9504   19.4849 C   0  0  0  0  0  0
  -24.8644  -27.6937   19.5053 C   0  0  0  0  0  0
  -23.6079  -29.8313   20.1605 C   0  0  0  0  0  0
  -25.4091  -36.3110   24.0332 C   0  0  1  0  0  0
  -20.5860  -28.3686   23.1276 C   0  0  2  0  0  0
  -20.6757  -26.9416   22.5396 C   0  0  0  0  0  0
  -19.5753  -26.6406   21.5180 C   0  0  0  0  0  0
  -18.1938  -26.7948   22.1605 C   0  0  0  0  0  0
  -19.1524  -28.8856   23.2886 C   0  0  0  0  0  0
  -18.9476  -30.1459   23.8905 C   0  0  0  0  0  0
  -17.6479  -30.6593   24.0594 C   0  0  0  0  0  0
  -25.9036  -34.9483   23.5136 C   0  0  0  0  0  0
  -16.5362  -29.9126   23.6315 C   0  0  0  0  0  0
  -16.7277  -28.6560   23.0291 C   0  0  0  0  0  0
  -26.4449  -31.6590   25.0712 C   0  0  0  0  0  0
  -25.3746  -31.3762   26.1502 C   0  0  0  0  0  0
  -27.0237  -30.3013   24.6073 C   0  0  0  0  0  0
  -27.6072  -32.4268   25.7455 C   0  0  0  0  0  0
  -27.5590  -37.1789   24.8437 C   0  0  0  0  0  0
  -21.4102  -29.3082   22.3681 N   0  0  0  0  0  0
  -26.4266  -37.3801   23.9440 N   0  0  0  0  0  0
  -24.6616  -31.0812   22.1008 N   0  0  0  0  0  0
  -23.4148  -28.8214   23.2971 O   0  0  0  0  0  0
  -28.4358  -26.7882   20.0422 O   0  0  0  0  0  0
  -26.5592  -34.8931   22.4698 O   0  0  0  0  0  0
  -23.5318  -32.1420   23.7560 O   0  0  0  0  0  0
  -33.0110  -18.4389   22.7326 C   0  0  0  0  0  0
  -31.8512  -17.2483   20.9665 C   0  0  0  0  0  0
  -32.3233  -17.6809   23.7047 C   0  0  0  0  0  0
  -31.3851  -16.6936   23.3050 C   0  0  0  0  0  0
  -32.7537  -18.2592   21.3599 C   0  0  0  0  0  0
  -31.2080  -16.4163   21.9235 C   0  0  0  0  0  0
  -32.6409  -17.9363   25.1719 C   0  0  0  0  0  0
  -30.5730  -15.9492   24.3574 C   0  0  0  0  0  0
  -34.7918  -18.6197   20.1565 C   0  0  0  0  0  0
  -29.6404  -22.1447   19.2560 C   0  0  0  0  0  0
  -30.7951  -21.3090   18.6683 C   0  0  0  0  0  0
  -29.3026  -23.4353   18.4827 C   0  0  0  0  0  0
  -31.3959  -20.3746   19.7383 C   0  0  0  0  0  0
  -28.5370  -24.4410   19.3702 C   0  0  0  0  0  0
  -32.6612  -19.6104   19.2923 C   0  0  0  0  0  0
  -28.7102  -25.9119   18.9472 C   0  0  0  0  0  0
  -30.4191  -15.2946   21.5016 N   0  0  0  0  0  0
  -33.4259  -19.0681   20.4232 N   0  0  0  0  0  0
  -31.4371  -12.3535   19.0603 H   0  0  0  0  0  0
  -30.3113  -11.2684   19.7987 H   0  0  0  0  0  0
  -29.6927  -11.7482   17.4203 H   0  0  0  0  0  0
  -29.6337  -13.4631   17.7400 H   0  0  0  0  0  0
  -27.8219  -11.2983   18.8307 H   0  0  0  0  0  0
  -27.3308  -12.6133   17.7987 H   0  0  0  0  0  0
  -27.6990  -14.2528   19.5710 H   0  0  0  0  0  0
  -28.6919  -11.9886   21.3816 H   0  0  0  0  0  0
  -28.4919  -13.6450   21.8566 H   0  0  0  0  0  0
  -25.2735   -9.5596   22.4826 H   0  0  0  0  0  0
  -23.9960   -7.4555   22.7407 H   0  0  0  0  0  0
  -21.0897   -8.8859   19.8869 H   0  0  0  0  0  0
  -22.3786  -10.9752   19.6230 H   0  0  0  0  0  0
  -21.1917   -7.6084   23.9678 H   0  0  0  0  0  0
  -21.1539   -6.0450   25.9062 H   0  0  0  0  0  0
  -22.0632   -2.7577   23.2735 H   0  0  0  0  0  0
  -22.4095  -11.9868   22.4682 H   0  0  0  0  0  0
  -21.1185  -13.1400   22.2581 H   0  0  0  0  0  0
  -24.6781  -15.8459   20.5020 H   0  0  0  0  0  0
  -26.3191  -15.6130   20.1303 H   0  0  0  0  0  0
  -26.7084  -32.5565   23.1182 H   0  0  0  0  0  0
  -25.0023  -33.9760   25.0466 H   0  0  0  0  0  0
  -22.6924  -31.3137   21.4098 H   0  0  0  0  0  0
  -23.3738  -35.9644   23.3243 H   0  0  0  0  0  0
  -24.3579  -36.8969   22.2051 H   0  0  0  0  0  0
  -23.7202  -37.6505   23.6655 H   0  0  0  0  0  0
  -26.0237  -31.6011   20.5906 H   0  0  0  0  0  0
  -26.8147  -30.8998   21.9752 H   0  0  0  0  0  0
  -28.0820  -29.1067   21.1846 H   0  0  0  0  0  0
  -26.0488  -25.9824   19.0064 H   0  0  0  0  0  0
  -23.9727  -27.2921   19.0450 H   0  0  0  0  0  0
  -23.7305  -30.6086   19.4047 H   0  0  0  0  0  0
  -22.7303  -29.2568   19.8587 H   0  0  0  0  0  0
  -25.1252  -36.1963   25.0812 H   0  0  0  0  0  0
  -20.9966  -28.3287   24.1386 H   0  0  0  0  0  0
  -20.5592  -26.2322   23.3601 H   0  0  0  0  0  0
  -21.6648  -26.7422   22.1252 H   0  0  0  0  0  0
  -19.6923  -25.6331   21.1201 H   0  0  0  0  0  0
  -19.6691  -27.3221   20.6721 H   0  0  0  0  0  0
  -17.4182  -26.6629   21.4042 H   0  0  0  0  0  0
  -18.0397  -26.0098   22.9016 H   0  0  0  0  0  0
  -19.7956  -30.7268   24.2245 H   0  0  0  0  0  0
  -17.5057  -31.6239   24.5254 H   0  0  0  0  0  0
  -15.5385  -30.3065   23.7612 H   0  0  0  0  0  0
  -15.8674  -28.0940   22.6922 H   0  0  0  0  0  0
  -24.5920  -30.7051   25.7914 H   0  0  0  0  0  0
  -24.8939  -32.2958   26.4864 H   0  0  0  0  0  0
  -25.8140  -30.9042   27.0295 H   0  0  0  0  0  0
  -26.2761  -29.6818   24.1082 H   0  0  0  0  0  0
  -27.3935  -29.7197   25.4523 H   0  0  0  0  0  0
  -27.8636  -30.4289   23.9235 H   0  0  0  0  0  0
  -27.2718  -33.3560   26.2069 H   0  0  0  0  0  0
  -28.3875  -32.6806   25.0268 H   0  0  0  0  0  0
  -28.0720  -31.8335   26.5337 H   0  0  0  0  0  0
  -28.2561  -38.0135   24.7573 H   0  0  0  0  0  0
  -28.1127  -36.2676   24.6123 H   0  0  0  0  0  0
  -27.2333  -37.1284   25.8840 H   0  0  0  0  0  0
  -20.9226  -29.8852   21.6967 H   0  0  0  0  0  0
  -26.0144  -38.2850   24.1557 H   0  0  0  0  0  0
  -33.7263  -19.1831   23.0463 H   0  0  0  0  0  0
  -31.6909  -17.0726   19.9152 H   0  0  0  0  0  0
  -33.4419  -18.6721   25.2876 H   0  0  0  0  0  0
  -32.9811  -17.0149   25.6484 H   0  0  0  0  0  0
  -31.7661  -18.3100   25.7037 H   0  0  0  0  0  0
  -31.1916  -15.6324   25.1931 H   0  0  0  0  0  0
  -30.0762  -15.0544   23.9785 H   0  0  0  0  0  0
  -29.8045  -16.6128   24.7517 H   0  0  0  0  0  0
  -35.4621  -18.8698   20.9838 H   0  0  0  0  0  0
  -35.1927  -19.1057   19.2650 H   0  0  0  0  0  0
  -34.8436  -17.5404   19.9956 H   0  0  0  0  0  0
  -29.9375  -22.4335   20.2629 H   0  0  0  0  0  0
  -28.7482  -21.5271   19.3761 H   0  0  0  0  0  0
  -31.5853  -21.9677   18.3095 H   0  0  0  0  0  0
  -30.4580  -20.7391   17.8022 H   0  0  0  0  0  0
  -28.7356  -23.2120   17.5782 H   0  0  0  0  0  0
  -30.2266  -23.9005   18.1423 H   0  0  0  0  0  0
  -30.6308  -19.6752   20.0709 H   0  0  0  0  0  0
  -31.6512  -20.9742   20.6118 H   0  0  0  0  0  0
  -28.9110  -24.3568   20.3912 H   0  0  0  0  0  0
  -27.4836  -24.1653   19.4196 H   0  0  0  0  0  0
  -33.3182  -20.3006   18.7603 H   0  0  0  0  0  0
  -32.4110  -18.8165   18.5877 H   0  0  0  0  0  0
  -28.1453  -26.1525   18.0442 H   0  0  0  0  0  0
  -29.7552  -26.0863   18.6892 H   0  0  0  0  0  0
  -29.6205  -15.0489   22.0659 H   0  0  0  0  0  0
  1 25  1  0  0  0
  1 30  2  0  0  0
  1 87  1  0  0  0
  2  3  1  0  0  0
  2 25  1  0  0  0
  2 89  1  0  0  0
  2 90  1  0  0  0
  3  4  1  0  0  0
  3 91  1  0  0  0
  3 92  1  0  0  0
  4  5  1  0  0  0
  4 93  1  0  0  0
  4 94  1  0  0  0
  5  6  1  0  0  0
  5 26  1  0  0  0
  5 95  1  0  0  0
  6 25  1  0  0  0
  6 96  1  0  0  0
  6 97  1  0  0  0
  7  8  2  0  0  0
  7 26  1  0  0  0
  7 29  1  0  0  0
  8  9  1  0  0  0
  8 22  1  0  0  0
  9 10  1  0  0  0
  9 27  2  0  0  0
 10 11  2  0  0  0
 10 15  1  0  0  0
 11 12  1  0  0  0
 11 98  1  0  0  0
 12 13  2  0  0  0
 12 99  1  0  0  0
 13 14  1  0  0  0
 13 31  1  0  0  0
 14 15  2  0  0  0
 14100  1  0  0  0
 15101  1  0  0  0
 16 17  2  0  0  0
 16 21  1  0  0  0
 16 31  1  0  0  0
 17 18  1  0  0  0
 17102  1  0  0  0
 18 19  2  0  0  0
 18103  1  0  0  0
 19 20  1  0  0  0
 19 24  1  0  0  0
 20 21  2  0  0  0
 20104  1  0  0  0
 21 23  1  0  0  0
 22 28  1  0  0  0
 22 32  2  0  0  0
 26 27  1  0  0  0
 28105  1  0  0  0
 28106  1  0  0  0
 29107  1  0  0  0
 29108  1  0  0  0
 33 34  1  0  0  0
 33 66  1  0  0  0
 33 70  2  0  0  0
 34 36  1  0  0  0
 34 59  1  0  0  0
 34109  1  0  0  0
 35 44  2  0  0  0
 35 45  1  0  0  0
 35 68  1  0  0  0
 36 56  1  0  0  0
 36110  1  0  0  0
 37 39  1  0  0  0
 37 47  1  0  0  0
 37 66  1  0  0  0
 37111  1  0  0  0
 38 43  2  0  0  0
 38 46  1  0  0  0
 38 47  1  0  0  0
 39 64  1  0  0  0
 39 67  2  0  0  0
 40 52  1  0  0  0
 40 53  2  0  0  0
 40 58  1  0  0  0
 41112  1  0  0  0
 41113  1  0  0  0
 41114  1  0  0  0
 41 48  1  0  0  0
 42 43  1  0  0  0
 42 66  1  0  0  0
 42115  1  0  0  0
 42116  1  0  0  0
 43 44  1  0  0  0
 44117  1  0  0  0
 45 46  2  0  0  0
 45118  1  0  0  0
 46119  1  0  0  0
 47120  1  0  0  0
 47121  1  0  0  0
 48 56  1  0  0  0
 48 65  1  0  0  0
 48122  1  0  0  0
 49 50  1  0  0  0
 49 53  1  0  0  0
 49 64  1  0  0  0
 49123  1  0  0  0
 50 51  1  0  0  0
 50124  1  0  0  0
 50125  1  0  0  0
 51 52  1  0  0  0
 51126  1  0  0  0
 51127  1  0  0  0
 52128  1  0  0  0
 52129  1  0  0  0
 53 54  1  0  0  0
 54 55  2  0  0  0
 54130  1  0  0  0
 55 57  1  0  0  0
 55131  1  0  0  0
 56 69  2  0  0  0
 57 58  2  0  0  0
 57132  1  0  0  0
 58133  1  0  0  0
 59 60  1  0  0  0
 59 61  1  0  0  0
 59 62  1  0  0  0
 60134  1  0  0  0
 60135  1  0  0  0
 60136  1  0  0  0
 61137  1  0  0  0
 61138  1  0  0  0
 61139  1  0  0  0
 62140  1  0  0  0
 62141  1  0  0  0
 62142  1  0  0  0
 63 65  1  0  0  0
 63143  1  0  0  0
 63144  1  0  0  0
 63145  1  0  0  0
 64146  1  0  0  0
 65147  1  0  0  0
 68 86  1  0  0  0
 71 73  2  0  0  0
 71 75  1  0  0  0
 71148  1  0  0  0
 72 75  2  0  0  0
 72 76  1  0  0  0
 72149  1  0  0  0
 73 74  1  0  0  0
 73 77  1  0  0  0
 74 76  2  0  0  0
 74 78  1  0  0  0
 75 88  1  0  0  0
 76 87  1  0  0  0
 77150  1  0  0  0
 77151  1  0  0  0
 77152  1  0  0  0
 78153  1  0  0  0
 78154  1  0  0  0
 78155  1  0  0  0
 79 88  1  0  0  0
 79156  1  0  0  0
 79157  1  0  0  0
 79158  1  0  0  0
 80 81  1  0  0  0
 80 82  1  0  0  0
 80159  1  0  0  0
 80160  1  0  0  0
 81 83  1  0  0  0
 81161  1  0  0  0
 81162  1  0  0  0
 82 84  1  0  0  0
 82163  1  0  0  0
 82164  1  0  0  0
 83 85  1  0  0  0
 83165  1  0  0  0
 83166  1  0  0  0
 84 86  1  0  0  0
 84167  1  0  0  0
 84168  1  0  0  0
 85 88  1  0  0  0
 85169  1  0  0  0
 85170  1  0  0  0
 86171  1  0  0  0
 86172  1  0  0  0
 87173  1  0  0  0
M  ISO  4   1 100  68 101  86 101  87 100
M  END
> <chiral flag>
0

> <version>
0

> <s_m_source_file>
/data/baiqing/PycharmProjects/Reinvent-master-3.2/result/LINK_invent/BTK/process_docking_weight1_custom_sum_contain_oxygen_bond_distance_aromatic_linkinvent_7_9_3/rearranged_h_0015.sdf

> <i_m_source_file_index>
71

> <r_mmod_Potential_Energy-OPLS-2005>
1.07428550720215

> <r_mmod_Stretch_Energy-OPLS-2005>
37.1242828369141

> <r_mmod_Bend_Energy-OPLS-2005>
106.474853515625

> <r_mmod_Torsional_Energy-OPLS-2005>
243.296859741211

> <r_mmod_Improper_Torsional_Energy-OPLS-2005>
5.37249183654785

> <r_mmod_Van_der_Waal_Energy-OPLS-2005>
170.358657836914

> <r_mmod_Electrostatic_Energy-OPLS-2005>
-359.636901855469

> <r_mmod_Solvation_Energy-OPLS-2005>
-214.181106567383

> <b_mmod_Minimization_Converged-OPLS-2005>
0

> <r_mmod_RMS_Derivative-OPLS-2005>
6.119713306427

$$$$
72
                    3D
 Structure written by MMmdl.
161169  0  0  1  0            999 V2000
  -30.6206  -14.7097   20.4351 C   0  0  0  0  0  0
  -30.4348  -12.4258   19.4712 C   0  0  0  0  0  0
  -29.5085  -12.4896   18.2360 C   0  0  0  0  0  0
  -28.0340  -12.3246   18.6508 C   0  0  0  0  0  0
  -27.6455  -13.2275   19.8518 C   0  0  2  0  0  0
  -28.6911  -13.1484   20.9864 C   0  0  0  0  0  0
  -25.2527  -13.8193   20.5696 C   0  0  0  0  0  0
  -24.1812  -13.0445   20.9206 C   0  0  0  0  0  0
  -24.6392  -11.6921   20.8741 C   0  0  0  0  0  0
  -23.9062  -10.4297   21.0403 C   0  0  0  0  0  0
  -24.3612   -9.4209   21.9178 C   0  0  0  0  0  0
  -23.6288   -8.2241   22.0747 C   0  0  0  0  0  0
  -22.4270   -8.0274   21.3539 C   0  0  0  0  0  0
  -21.9907   -9.0248   20.4640 C   0  0  0  0  0  0
  -22.7233  -10.2133   20.3051 C   0  0  0  0  0  0
  -21.6854   -6.0726   22.5275 C   0  0  0  0  0  0
  -21.4017   -6.5632   23.8205 C   0  0  0  0  0  0
  -21.3661   -5.6788   24.9168 C   0  0  0  0  0  0
  -21.6043   -4.3051   24.7223 C   0  0  0  0  0  0
  -21.8820   -3.8139   23.4348 C   0  0  0  0  0  0
  -21.9194   -4.6954   22.3403 C   0  0  0  0  0  0
  -22.7829  -13.5219   21.1875 C   0  0  0  0  0  0
  -22.1660   -4.2141   21.0977 F   0  0  0  0  0  0
  -21.5631   -3.4537   25.7736 F   0  0  0  0  0  0
  -29.9984  -13.4847   20.4081 N   0  0  0  0  0  0
  -26.2956  -12.9396   20.3296 N   0  0  0  0  0  0
  -25.9322  -11.6544   20.5764 N   0  0  0  0  0  0
  -22.0476  -12.8201   22.0432 N   0  0  0  0  0  0
  -25.4215  -15.1914   20.4090 N   0  0  0  0  0  0
  -31.8217  -14.8003   20.1687 O   0  0  0  0  0  0
  -21.6639   -6.8869   21.4233 O   0  0  0  0  0  0
  -22.3505  -14.5518   20.6717 O   0  0  0  0  0  0
  -24.6318  -31.8549   23.2007 C   0  0  0  0  0  0
  -25.9152  -32.4740   23.8335 C   0  0  1  0  0  0
  -27.2156  -27.2701   20.1204 C   0  0  0  0  0  0
  -25.5945  -33.8541   24.2251 N   0  0  0  0  0  0
  -23.4269  -30.4799   21.5448 C   0  0  2  0  0  0
  -24.8721  -28.9334   20.1066 C   0  0  0  0  0  0
  -22.7502  -29.4585   22.4928 C   0  0  0  0  0  0
  -18.0288  -28.1374   22.8470 C   0  0  0  0  0  0
  -24.1500  -36.7280   23.2641 C   0  0  0  0  0  0
  -25.9741  -30.7686   21.3833 C   0  0  0  0  0  0
  -26.0442  -29.3952   20.7189 C   0  0  0  0  0  0
  -27.2175  -28.5755   20.7174 C   0  0  0  0  0  0
  -26.0211  -26.8819   19.4682 C   0  0  0  0  0  0
  -24.8653  -27.6839   19.4709 C   0  0  0  0  0  0
  -23.6432  -29.8202   20.1590 C   0  0  0  0  0  0
  -25.4126  -36.3060   24.0324 C   0  0  1  0  0  0
  -20.5893  -28.3664   23.1276 C   0  0  2  0  0  0
  -20.6784  -26.9385   22.5411 C   0  0  0  0  0  0
  -19.5760  -26.6363   21.5213 C   0  0  0  0  0  0
  -18.1931  -26.7916   22.1611 C   0  0  0  0  0  0
  -19.1545  -28.8838   23.2861 C   0  0  0  0  0  0
  -18.9469  -30.1440   23.8870 C   0  0  0  0  0  0
  -17.6475  -30.6571   24.0549 C   0  0  0  0  0  0
  -25.9070  -34.9428   23.5091 C   0  0  0  0  0  0
  -16.5357  -29.9063   23.6348 C   0  0  0  0  0  0
  -16.7278  -28.6489   23.0348 C   0  0  0  0  0  0
  -26.4521  -31.6570   25.0723 C   0  0  0  0  0  0
  -25.3748  -31.3711   26.1442 C   0  0  0  0  0  0
  -27.0381  -30.2991   24.6220 C   0  0  0  0  0  0
  -27.6069  -32.4329   25.7497 C   0  0  0  0  0  0
  -27.5587  -37.1787   24.8461 C   0  0  0  0  0  0
  -21.4208  -29.3016   22.3667 N   0  0  0  0  0  0
  -26.4300  -37.3759   23.9412 N   0  0  0  0  0  0
  -24.6962  -31.0523   22.0984 N   0  0  0  0  0  0
  -23.4207  -28.8120   23.3014 O   0  0  0  0  0  0
  -28.3072  -26.3740   20.1901 O   0  0  0  0  0  0
  -26.5632  -34.8899   22.4650 O   0  0  0  0  0  0
  -23.5472  -32.1379   23.7307 O   0  0  0  0  0  0
  -30.2156  -19.8434   18.8491 C   0  0  0  0  0  0
  -30.5836  -18.6965   18.1208 C   0  0  0  0  0  0
  -29.5434  -18.4206   20.7078 C   0  0  0  0  0  0
  -29.6790  -19.7695   20.1474 C   0  0  0  0  0  0
  -29.9803  -17.2131   20.0084 C   0  0  0  0  0  0
  -30.4508  -17.3993   18.6721 C   0  0  0  0  0  0
  -31.1240  -18.8785   16.7100 C   0  0  0  0  0  0
  -28.8677  -18.2283   22.0588 C   0  0  0  0  0  0
  -29.7875  -21.1865   22.1849 C   0  0  0  0  0  0
  -29.0370  -23.7392   20.4705 C   0  0  0  0  0  0
  -28.6452  -22.2007   20.1358 C   0  0  0  0  0  0
  -28.0631  -24.9116   19.9429 C   0  0  0  0  0  0
  -29.8295  -15.8393   20.5720 N   0  0  0  0  0  0
  -29.3913  -21.0467   20.7852 N   0  0  0  0  0  0
  -30.7741  -16.0670   17.6086 Cl  0  0  0  0  0  0
  -31.4755  -12.5474   19.1651 H   0  0  0  0  0  0
  -30.3764  -11.4466   19.9494 H   0  0  0  0  0  0
  -29.7832  -11.7160   17.5183 H   0  0  0  0  0  0
  -29.6391  -13.4422   17.7229 H   0  0  0  0  0  0
  -27.8868  -11.2767   18.9167 H   0  0  0  0  0  0
  -27.3765  -12.5175   17.8020 H   0  0  0  0  0  0
  -27.6447  -14.2498   19.4728 H   0  0  0  0  0  0
  -28.7151  -12.1480   21.4210 H   0  0  0  0  0  0
  -28.4358  -13.8289   21.7994 H   0  0  0  0  0  0
  -25.2756   -9.5689   22.4755 H   0  0  0  0  0  0
  -23.9999   -7.4634   22.7472 H   0  0  0  0  0  0
  -21.0835   -8.8760   19.8948 H   0  0  0  0  0  0
  -22.3679  -10.9666   19.6162 H   0  0  0  0  0  0
  -21.2006   -7.6141   23.9708 H   0  0  0  0  0  0
  -21.1484   -6.0519   25.9073 H   0  0  0  0  0  0
  -22.0601   -2.7602   23.2849 H   0  0  0  0  0  0
  -22.4095  -11.9861   22.4819 H   0  0  0  0  0  0
  -21.1090  -13.1220   22.2639 H   0  0  0  0  0  0
  -24.6494  -15.8418   20.5048 H   0  0  0  0  0  0
  -26.2609  -15.6288   20.0511 H   0  0  0  0  0  0
  -26.7210  -32.5404   23.1071 H   0  0  0  0  0  0
  -25.0119  -33.9659   25.0415 H   0  0  0  0  0  0
  -22.7232  -31.3033   21.4042 H   0  0  0  0  0  0
  -23.3759  -35.9619   23.3297 H   0  0  0  0  0  0
  -24.3609  -36.8914   22.2061 H   0  0  0  0  0  0
  -23.7252  -37.6472   23.6680 H   0  0  0  0  0  0
  -26.1218  -31.5346   20.6211 H   0  0  0  0  0  0
  -26.8462  -30.8071   22.0241 H   0  0  0  0  0  0
  -28.1117  -28.9201   21.2165 H   0  0  0  0  0  0
  -25.9451  -25.9341   18.9560 H   0  0  0  0  0  0
  -23.9689  -27.3278   18.9809 H   0  0  0  0  0  0
  -23.7630  -30.5989   19.4050 H   0  0  0  0  0  0
  -22.7624  -29.2522   19.8559 H   0  0  0  0  0  0
  -25.1310  -36.1907   25.0816 H   0  0  0  0  0  0
  -20.9978  -28.3237   24.1401 H   0  0  0  0  0  0
  -20.5695  -26.2262   23.3603 H   0  0  0  0  0  0
  -21.6649  -26.7415   22.1194 H   0  0  0  0  0  0
  -19.6920  -25.6277   21.1233 H   0  0  0  0  0  0
  -19.6715  -27.3178   20.6750 H   0  0  0  0  0  0
  -17.4214  -26.6677   21.3995 H   0  0  0  0  0  0
  -18.0302  -26.0057   22.9004 H   0  0  0  0  0  0
  -19.7953  -30.7261   24.2220 H   0  0  0  0  0  0
  -17.5025  -31.6255   24.5140 H   0  0  0  0  0  0
  -15.5351  -30.2938   23.7691 H   0  0  0  0  0  0
  -15.8688  -28.0795   22.7062 H   0  0  0  0  0  0
  -24.5946  -30.7037   25.7762 H   0  0  0  0  0  0
  -24.8914  -32.2868   26.4846 H   0  0  0  0  0  0
  -25.8057  -30.8900   27.0230 H   0  0  0  0  0  0
  -26.2955  -29.6715   24.1279 H   0  0  0  0  0  0
  -27.4101  -29.7279   25.4735 H   0  0  0  0  0  0
  -27.8823  -30.4262   23.9444 H   0  0  0  0  0  0
  -27.2669  -33.3651   26.2021 H   0  0  0  0  0  0
  -28.3890  -32.6852   25.0323 H   0  0  0  0  0  0
  -28.0726  -31.8497   26.5449 H   0  0  0  0  0  0
  -28.2574  -38.0109   24.7527 H   0  0  0  0  0  0
  -28.1104  -36.2634   24.6264 H   0  0  0  0  0  0
  -27.2307  -37.1412   25.8861 H   0  0  0  0  0  0
  -20.9397  -29.8746   21.6880 H   0  0  0  0  0  0
  -26.0174  -38.2831   24.1414 H   0  0  0  0  0  0
  -30.3623  -20.8103   18.3904 H   0  0  0  0  0  0
  -31.1829  -19.9295   16.4278 H   0  0  0  0  0  0
  -30.4819  -18.3768   15.9857 H   0  0  0  0  0  0
  -32.1261  -18.4560   16.6295 H   0  0  0  0  0  0
  -29.6099  -18.1477   22.8522 H   0  0  0  0  0  0
  -28.2552  -17.3270   22.0711 H   0  0  0  0  0  0
  -28.1920  -19.0504   22.2866 H   0  0  0  0  0  0
  -30.4852  -20.4069   22.4942 H   0  0  0  0  0  0
  -28.9202  -21.1559   22.8446 H   0  0  0  0  0  0
  -30.2953  -22.1372   22.3490 H   0  0  0  0  0  0
  -30.0432  -23.9288   20.0969 H   0  0  0  0  0  0
  -29.0939  -23.8579   21.5514 H   0  0  0  0  0  0
  -28.6694  -22.0752   19.0528 H   0  0  0  0  0  0
  -27.5956  -22.0685   20.4025 H   0  0  0  0  0  0
  -27.0893  -24.6607   20.3641 H   0  0  0  0  0  0
  -27.9645  -24.7893   18.8634 H   0  0  0  0  0  0
  -28.9323  -15.6528   20.9896 H   0  0  0  0  0  0
  1 25  1  0  0  0
  1 30  2  0  0  0
  1 83  1  0  0  0
  2  3  1  0  0  0
  2 25  1  0  0  0
  2 86  1  0  0  0
  2 87  1  0  0  0
  3  4  1  0  0  0
  3 88  1  0  0  0
  3 89  1  0  0  0
  4  5  1  0  0  0
  4 90  1  0  0  0
  4 91  1  0  0  0
  5  6  1  0  0  0
  5 26  1  0  0  0
  5 92  1  0  0  0
  6 25  1  0  0  0
  6 93  1  0  0  0
  6 94  1  0  0  0
  7  8  2  0  0  0
  7 26  1  0  0  0
  7 29  1  0  0  0
  8  9  1  0  0  0
  8 22  1  0  0  0
  9 10  1  0  0  0
  9 27  2  0  0  0
 10 11  2  0  0  0
 10 15  1  0  0  0
 11 12  1  0  0  0
 11 95  1  0  0  0
 12 13  2  0  0  0
 12 96  1  0  0  0
 13 14  1  0  0  0
 13 31  1  0  0  0
 14 15  2  0  0  0
 14 97  1  0  0  0
 15 98  1  0  0  0
 16 17  2  0  0  0
 16 21  1  0  0  0
 16 31  1  0  0  0
 17 18  1  0  0  0
 17 99  1  0  0  0
 18 19  2  0  0  0
 18100  1  0  0  0
 19 20  1  0  0  0
 19 24  1  0  0  0
 20 21  2  0  0  0
 20101  1  0  0  0
 21 23  1  0  0  0
 22 28  1  0  0  0
 22 32  2  0  0  0
 26 27  1  0  0  0
 28102  1  0  0  0
 28103  1  0  0  0
 29104  1  0  0  0
 29105  1  0  0  0
 33 34  1  0  0  0
 33 66  1  0  0  0
 33 70  2  0  0  0
 34 36  1  0  0  0
 34 59  1  0  0  0
 34106  1  0  0  0
 35 44  2  0  0  0
 35 45  1  0  0  0
 35 68  1  0  0  0
 36 56  1  0  0  0
 36107  1  0  0  0
 37 39  1  0  0  0
 37 47  1  0  0  0
 37 66  1  0  0  0
 37108  1  0  0  0
 38 43  2  0  0  0
 38 46  1  0  0  0
 38 47  1  0  0  0
 39 64  1  0  0  0
 39 67  2  0  0  0
 40 52  1  0  0  0
 40 53  2  0  0  0
 40 58  1  0  0  0
 41109  1  0  0  0
 41110  1  0  0  0
 41111  1  0  0  0
 41 48  1  0  0  0
 42 43  1  0  0  0
 42 66  1  0  0  0
 42112  1  0  0  0
 42113  1  0  0  0
 43 44  1  0  0  0
 44114  1  0  0  0
 45 46  2  0  0  0
 45115  1  0  0  0
 46116  1  0  0  0
 47117  1  0  0  0
 47118  1  0  0  0
 48 56  1  0  0  0
 48 65  1  0  0  0
 48119  1  0  0  0
 49 50  1  0  0  0
 49 53  1  0  0  0
 49 64  1  0  0  0
 49120  1  0  0  0
 50 51  1  0  0  0
 50121  1  0  0  0
 50122  1  0  0  0
 51 52  1  0  0  0
 51123  1  0  0  0
 51124  1  0  0  0
 52125  1  0  0  0
 52126  1  0  0  0
 53 54  1  0  0  0
 54 55  2  0  0  0
 54127  1  0  0  0
 55 57  1  0  0  0
 55128  1  0  0  0
 56 69  2  0  0  0
 57 58  2  0  0  0
 57129  1  0  0  0
 58130  1  0  0  0
 59 60  1  0  0  0
 59 61  1  0  0  0
 59 62  1  0  0  0
 60131  1  0  0  0
 60132  1  0  0  0
 60133  1  0  0  0
 61134  1  0  0  0
 61135  1  0  0  0
 61136  1  0  0  0
 62137  1  0  0  0
 62138  1  0  0  0
 62139  1  0  0  0
 63 65  1  0  0  0
 63140  1  0  0  0
 63141  1  0  0  0
 63142  1  0  0  0
 64143  1  0  0  0
 65144  1  0  0  0
 68 82  1  0  0  0
 71 72  2  0  0  0
 71 74  1  0  0  0
 71145  1  0  0  0
 72 76  1  0  0  0
 72 77  1  0  0  0
 73 74  2  0  0  0
 73 75  1  0  0  0
 73 78  1  0  0  0
 74 84  1  0  0  0
 75 76  2  0  0  0
 75 83  1  0  0  0
 76 85  1  0  0  0
 77146  1  0  0  0
 77147  1  0  0  0
 77148  1  0  0  0
 78149  1  0  0  0
 78150  1  0  0  0
 78151  1  0  0  0
 79 84  1  0  0  0
 79152  1  0  0  0
 79153  1  0  0  0
 79154  1  0  0  0
 80 81  1  0  0  0
 80 82  1  0  0  0
 80155  1  0  0  0
 80156  1  0  0  0
 81 84  1  0  0  0
 81157  1  0  0  0
 81158  1  0  0  0
 82159  1  0  0  0
 82160  1  0  0  0
 83161  1  0  0  0
M  ISO  4   1 100  68 101  82 101  83 100
M  END
> <chiral flag>
0

> <version>
0

> <s_m_source_file>
/data/baiqing/PycharmProjects/Reinvent-master-3.2/result/LINK_invent/BTK/process_docking_weight1_custom_sum_contain_oxygen_bond_distance_aromatic_linkinvent_7_9_3/rearranged_h_0015.sdf

> <i_m_source_file_index>
72

> <r_mmod_Potential_Energy-OPLS-2005>
160.710388183594

> <r_mmod_Stretch_Energy-OPLS-2005>
123.717971801758

> <r_mmod_Bend_Energy-OPLS-2005>
167.150741577148

> <r_mmod_Torsional_Energy-OPLS-2005>
246.378860473633

> <r_mmod_Improper_Torsional_Energy-OPLS-2005>
5.54771709442139

> <r_mmod_Van_der_Waal_Energy-OPLS-2005>
156.704727172852

> <r_mmod_Electrostatic_Energy-OPLS-2005>
-394.710205078125

> <r_mmod_Solvation_Energy-OPLS-2005>
-222.272552490234

> <b_mmod_Minimization_Converged-OPLS-2005>
0

> <r_mmod_RMS_Derivative-OPLS-2005>
1.73141646385193

$$$$
73
                    3D
 Structure written by MMmdl.
165173  0  0  1  0            999 V2000
  -30.6808  -14.4788   20.4917 C   0  0  0  0  0  0
  -30.4175  -12.2833   19.4318 C   0  0  0  0  0  0
  -29.4970  -12.4769   18.2084 C   0  0  0  0  0  0
  -28.0163  -12.3407   18.6199 C   0  0  0  0  0  0
  -27.6548  -13.1987   19.8626 C   0  0  2  0  0  0
  -28.6978  -13.0143   20.9887 C   0  0  0  0  0  0
  -25.2585  -13.8132   20.5662 C   0  0  0  0  0  0
  -24.1834  -13.0436   20.9182 C   0  0  0  0  0  0
  -24.6366  -11.6891   20.8733 C   0  0  0  0  0  0
  -23.9031  -10.4288   21.0399 C   0  0  0  0  0  0
  -24.3592   -9.4208   21.9178 C   0  0  0  0  0  0
  -23.6273   -8.2244   22.0752 C   0  0  0  0  0  0
  -22.4258   -8.0276   21.3541 C   0  0  0  0  0  0
  -21.9885   -9.0245   20.4642 C   0  0  0  0  0  0
  -22.7200  -10.2130   20.3051 C   0  0  0  0  0  0
  -21.6850   -6.0724   22.5273 C   0  0  0  0  0  0
  -21.4013   -6.5630   23.8208 C   0  0  0  0  0  0
  -21.3668   -5.6786   24.9174 C   0  0  0  0  0  0
  -21.6046   -4.3047   24.7225 C   0  0  0  0  0  0
  -21.8819   -3.8135   23.4348 C   0  0  0  0  0  0
  -21.9194   -4.6949   22.3401 C   0  0  0  0  0  0
  -22.7864  -13.5253   21.1855 C   0  0  0  0  0  0
  -22.1659   -4.2130   21.0980 F   0  0  0  0  0  0
  -21.5630   -3.4539   25.7744 F   0  0  0  0  0  0
  -30.0267  -13.2915   20.4251 N   0  0  0  0  0  0
  -26.2993  -12.9276   20.3311 N   0  0  0  0  0  0
  -25.9286  -11.6451   20.5749 N   0  0  0  0  0  0
  -22.0485  -12.8255   22.0402 N   0  0  0  0  0  0
  -25.4344  -15.1842   20.4039 N   0  0  0  0  0  0
  -31.8669  -14.6190   20.1914 O   0  0  0  0  0  0
  -21.6632   -6.8864   21.4237 O   0  0  0  0  0  0
  -22.3572  -14.5574   20.6709 O   0  0  0  0  0  0
  -24.6131  -31.8687   23.2096 C   0  0  0  0  0  0
  -25.9025  -32.4827   23.8399 C   0  0  1  0  0  0
  -27.2381  -27.4527   20.0942 C   0  0  0  0  0  0
  -25.5893  -33.8623   24.2339 N   0  0  0  0  0  0
  -23.4012  -30.4914   21.5504 C   0  0  2  0  0  0
  -24.8497  -28.9568   20.1172 C   0  0  0  0  0  0
  -22.7409  -29.4660   22.4995 C   0  0  0  0  0  0
  -18.0291  -28.1353   22.8491 C   0  0  0  0  0  0
  -24.1482  -36.7321   23.2640 C   0  0  0  0  0  0
  -25.9291  -30.8383   21.3625 C   0  0  0  0  0  0
  -26.0078  -29.4723   20.7146 C   0  0  0  0  0  0
  -27.2061  -28.7255   20.7036 C   0  0  0  0  0  0
  -26.0695  -26.9485   19.4878 C   0  0  0  0  0  0
  -24.8743  -27.6927   19.5018 C   0  0  0  0  0  0
  -23.6099  -29.8217   20.1651 C   0  0  0  0  0  0
  -25.4100  -36.3116   24.0339 C   0  0  1  0  0  0
  -20.5871  -28.3667   23.1331 C   0  0  2  0  0  0
  -20.6792  -26.9396   22.5465 C   0  0  0  0  0  0
  -19.5796  -26.6367   21.5231 C   0  0  0  0  0  0
  -18.1962  -26.7904   22.1614 C   0  0  0  0  0  0
  -19.1529  -28.8825   23.2904 C   0  0  0  0  0  0
  -18.9454  -30.1436   23.8897 C   0  0  0  0  0  0
  -17.6450  -30.6566   24.0544 C   0  0  0  0  0  0
  -25.9031  -34.9476   23.5139 C   0  0  0  0  0  0
  -16.5352  -29.9058   23.6295 C   0  0  0  0  0  0
  -16.7279  -28.6472   23.0331 C   0  0  0  0  0  0
  -26.4469  -31.6596   25.0716 C   0  0  0  0  0  0
  -25.3758  -31.3679   26.1481 C   0  0  0  0  0  0
  -27.0302  -30.3044   24.6069 C   0  0  0  0  0  0
  -27.6063  -32.4310   25.7476 C   0  0  0  0  0  0
  -27.5575  -37.1813   24.8467 C   0  0  0  0  0  0
  -21.4135  -29.3044   22.3734 N   0  0  0  0  0  0
  -26.4289  -37.3792   23.9408 N   0  0  0  0  0  0
  -24.6661  -31.0794   22.0999 N   0  0  0  0  0  0
  -23.4189  -28.8201   23.3028 O   0  0  0  0  0  0
  -28.3956  -26.7110   20.0785 O   0  0  0  0  0  0
  -26.5594  -34.8928   22.4699 O   0  0  0  0  0  0
  -23.5325  -32.1433   23.7491 O   0  0  0  0  0  0
  -28.0940  -18.2879   23.0188 C   0  0  0  0  0  0
  -28.0510  -18.5064   21.6238 C   0  0  0  0  0  0
  -29.3320  -16.4277   21.2900 C   0  0  0  0  0  0
  -28.7665  -17.1650   23.5468 C   0  0  0  0  0  0
  -28.6818  -17.5717   20.7710 C   0  0  0  0  0  0
  -29.3864  -16.2309   22.6901 C   0  0  0  0  0  0
  -25.5749  -21.8898   22.4391 C   0  0  0  0  0  0
  -26.0078  -22.2008   19.9873 C   0  0  0  0  0  0
  -27.2323  -19.6639   21.0413 C   0  0  0  0  0  0
  -28.0587  -24.3076   20.6303 C   0  0  0  0  0  0
  -27.3394  -23.5025   21.7414 C   0  0  0  0  0  0
  -28.4677  -25.7221   21.1113 C   0  0  0  0  0  0
  -26.6823  -22.1288   21.3797 C   0  0  0  0  0  0
  -29.8712  -15.5337   20.3266 N   0  0  0  0  0  0
  -27.6942  -21.0235   21.4429 N   0  3  0  0  0  0
  -28.7996  -16.9772   24.8880 F   0  0  0  0  0  0
  -28.6360  -17.7470   19.4279 F   0  0  0  0  0  0
  -30.0180  -15.1558   23.2225 F   0  0  0  0  0  0
  -31.4660  -12.3679   19.1403 H   0  0  0  0  0  0
  -30.2995  -11.2817   19.8495 H   0  0  0  0  0  0
  -29.7402  -11.7437   17.4383 H   0  0  0  0  0  0
  -29.6695  -13.4570   17.7614 H   0  0  0  0  0  0
  -27.8335  -11.2879   18.8368 H   0  0  0  0  0  0
  -27.3659  -12.5932   17.7815 H   0  0  0  0  0  0
  -27.6826  -14.2382   19.5387 H   0  0  0  0  0  0
  -28.6689  -11.9970   21.3805 H   0  0  0  0  0  0
  -28.4734  -13.6680   21.8309 H   0  0  0  0  0  0
  -25.2736   -9.5691   22.4756 H   0  0  0  0  0  0
  -23.9978   -7.4642   22.7485 H   0  0  0  0  0  0
  -21.0810   -8.8760   19.8953 H   0  0  0  0  0  0
  -22.3646  -10.9671   19.6165 H   0  0  0  0  0  0
  -21.1998   -7.6137   23.9706 H   0  0  0  0  0  0
  -21.1492   -6.0515   25.9078 H   0  0  0  0  0  0
  -22.0589   -2.7595   23.2852 H   0  0  0  0  0  0
  -22.4081  -11.9906   22.4790 H   0  0  0  0  0  0
  -21.1109  -13.1300   22.2610 H   0  0  0  0  0  0
  -24.6646  -15.8377   20.4910 H   0  0  0  0  0  0
  -26.2780  -15.6042   20.0366 H   0  0  0  0  0  0
  -26.7103  -32.5552   23.1176 H   0  0  0  0  0  0
  -25.0056  -33.9798   25.0491 H   0  0  0  0  0  0
  -22.6897  -31.3084   21.4111 H   0  0  0  0  0  0
  -23.3733  -35.9666   23.3324 H   0  0  0  0  0  0
  -24.3585  -36.8914   22.2053 H   0  0  0  0  0  0
  -23.7246  -37.6536   23.6641 H   0  0  0  0  0  0
  -26.0396  -31.6013   20.5906 H   0  0  0  0  0  0
  -26.8191  -30.8956   21.9774 H   0  0  0  0  0  0
  -28.1024  -29.1186   21.1626 H   0  0  0  0  0  0
  -26.0808  -25.9865   18.9978 H   0  0  0  0  0  0
  -23.9877  -27.2933   19.0288 H   0  0  0  0  0  0
  -23.7163  -30.5963   19.4051 H   0  0  0  0  0  0
  -22.7361  -29.2391   19.8684 H   0  0  0  0  0  0
  -25.1273  -36.1992   25.0830 H   0  0  0  0  0  0
  -20.9953  -28.3252   24.1456 H   0  0  0  0  0  0
  -20.5658  -26.2296   23.3667 H   0  0  0  0  0  0
  -21.6696  -26.7430   22.1329 H   0  0  0  0  0  0
  -19.6970  -25.6282   21.1261 H   0  0  0  0  0  0
  -19.6762  -27.3162   20.6753 H   0  0  0  0  0  0
  -18.0352  -26.0039   22.9000 H   0  0  0  0  0  0
  -17.4256  -26.6639   21.3992 H   0  0  0  0  0  0
  -19.7923  -30.7266   24.2268 H   0  0  0  0  0  0
  -17.4995  -31.6259   24.5120 H   0  0  0  0  0  0
  -15.5349  -30.2967   23.7587 H   0  0  0  0  0  0
  -15.8690  -28.0790   22.7042 H   0  0  0  0  0  0
  -24.5930  -30.7025   25.7818 H   0  0  0  0  0  0
  -24.8949  -32.2820   26.4969 H   0  0  0  0  0  0
  -25.8134  -30.8824   27.0214 H   0  0  0  0  0  0
  -26.2823  -29.6809   24.1148 H   0  0  0  0  0  0
  -27.4117  -29.7275   25.4509 H   0  0  0  0  0  0
  -27.8648  -30.4385   23.9182 H   0  0  0  0  0  0
  -27.2689  -33.3593   26.2098 H   0  0  0  0  0  0
  -28.3842  -32.6892   25.0278 H   0  0  0  0  0  0
  -28.0762  -31.8401   26.5351 H   0  0  0  0  0  0
  -28.2607  -38.0098   24.7494 H   0  0  0  0  0  0
  -28.1058  -36.2627   24.6311 H   0  0  0  0  0  0
  -27.2300  -37.1489   25.8875 H   0  0  0  0  0  0
  -20.9296  -29.8781   21.6968 H   0  0  0  0  0  0
  -26.0185  -38.2878   24.1393 H   0  0  0  0  0  0
  -27.5939  -18.9649   23.6969 H   0  0  0  0  0  0
  -24.8694  -22.7213   22.4648 H   0  0  0  0  0  0
  -25.9901  -21.7910   23.4424 H   0  0  0  0  0  0
  -24.9703  -21.0058   22.2439 H   0  0  0  0  0  0
  -25.3530  -23.0703   19.9147 H   0  0  0  0  0  0
  -25.3882  -21.3281   19.7821 H   0  0  0  0  0  0
  -26.7376  -22.2717   19.1805 H   0  0  0  0  0  0
  -27.2190  -19.6089   19.9517 H   0  0  0  0  0  0
  -26.2037  -19.4876   21.3494 H   0  0  0  0  0  0
  -27.4012  -24.4159   19.7712 H   0  0  0  0  0  0
  -28.9356  -23.7709   20.2660 H   0  0  0  0  0  0
  -28.0052  -23.3865   22.5983 H   0  0  0  0  0  0
  -26.5461  -24.1599   22.0984 H   0  0  0  0  0  0
  -29.4908  -25.6902   21.4889 H   0  0  0  0  0  0
  -27.8584  -26.0324   21.9630 H   0  0  0  0  0  0
  -30.0249  -16.0011   19.4453 H   0  0  0  0  0  0
  -28.4813  -21.2587   20.8591 H   0  0  0  0  0  0
  -28.0435  -20.9716   22.3857 H   0  0  0  0  0  0
  1 25  1  0  0  0
  1 30  2  0  0  0
  1 84  1  0  0  0
  2  3  1  0  0  0
  2 25  1  0  0  0
  2 89  1  0  0  0
  2 90  1  0  0  0
  3  4  1  0  0  0
  3 91  1  0  0  0
  3 92  1  0  0  0
  4  5  1  0  0  0
  4 93  1  0  0  0
  4 94  1  0  0  0
  5  6  1  0  0  0
  5 26  1  0  0  0
  5 95  1  0  0  0
  6 25  1  0  0  0
  6 96  1  0  0  0
  6 97  1  0  0  0
  7  8  2  0  0  0
  7 26  1  0  0  0
  7 29  1  0  0  0
  8  9  1  0  0  0
  8 22  1  0  0  0
  9 10  1  0  0  0
  9 27  2  0  0  0
 10 11  2  0  0  0
 10 15  1  0  0  0
 11 12  1  0  0  0
 11 98  1  0  0  0
 12 13  2  0  0  0
 12 99  1  0  0  0
 13 14  1  0  0  0
 13 31  1  0  0  0
 14 15  2  0  0  0
 14100  1  0  0  0
 15101  1  0  0  0
 16 17  2  0  0  0
 16 21  1  0  0  0
 16 31  1  0  0  0
 17 18  1  0  0  0
 17102  1  0  0  0
 18 19  2  0  0  0
 18103  1  0  0  0
 19 20  1  0  0  0
 19 24  1  0  0  0
 20 21  2  0  0  0
 20104  1  0  0  0
 21 23  1  0  0  0
 22 28  1  0  0  0
 22 32  2  0  0  0
 26 27  1  0  0  0
 28105  1  0  0  0
 28106  1  0  0  0
 29107  1  0  0  0
 29108  1  0  0  0
 33 34  1  0  0  0
 33 66  1  0  0  0
 33 70  2  0  0  0
 34 36  1  0  0  0
 34 59  1  0  0  0
 34109  1  0  0  0
 35 44  2  0  0  0
 35 45  1  0  0  0
 35 68  1  0  0  0
 36 56  1  0  0  0
 36110  1  0  0  0
 37 39  1  0  0  0
 37 47  1  0  0  0
 37 66  1  0  0  0
 37111  1  0  0  0
 38 43  2  0  0  0
 38 46  1  0  0  0
 38 47  1  0  0  0
 39 64  1  0  0  0
 39 67  2  0  0  0
 40 52  1  0  0  0
 40 53  2  0  0  0
 40 58  1  0  0  0
 41112  1  0  0  0
 41113  1  0  0  0
 41114  1  0  0  0
 41 48  1  0  0  0
 42 43  1  0  0  0
 42 66  1  0  0  0
 42115  1  0  0  0
 42116  1  0  0  0
 43 44  1  0  0  0
 44117  1  0  0  0
 45 46  2  0  0  0
 45118  1  0  0  0
 46119  1  0  0  0
 47120  1  0  0  0
 47121  1  0  0  0
 48 56  1  0  0  0
 48 65  1  0  0  0
 48122  1  0  0  0
 49 50  1  0  0  0
 49 53  1  0  0  0
 49 64  1  0  0  0
 49123  1  0  0  0
 50 51  1  0  0  0
 50124  1  0  0  0
 50125  1  0  0  0
 51 52  1  0  0  0
 51126  1  0  0  0
 51127  1  0  0  0
 52128  1  0  0  0
 52129  1  0  0  0
 53 54  1  0  0  0
 54 55  2  0  0  0
 54130  1  0  0  0
 55 57  1  0  0  0
 55131  1  0  0  0
 56 69  2  0  0  0
 57 58  2  0  0  0
 57132  1  0  0  0
 58133  1  0  0  0
 59 60  1  0  0  0
 59 61  1  0  0  0
 59 62  1  0  0  0
 60134  1  0  0  0
 60135  1  0  0  0
 60136  1  0  0  0
 61137  1  0  0  0
 61138  1  0  0  0
 61139  1  0  0  0
 62140  1  0  0  0
 62141  1  0  0  0
 62142  1  0  0  0
 63 65  1  0  0  0
 63143  1  0  0  0
 63144  1  0  0  0
 63145  1  0  0  0
 64146  1  0  0  0
 65147  1  0  0  0
 68 82  1  0  0  0
 71 72  2  0  0  0
 71 74  1  0  0  0
 71148  1  0  0  0
 72 75  1  0  0  0
 72 79  1  0  0  0
 73 75  2  0  0  0
 73 76  1  0  0  0
 73 84  1  0  0  0
 74 76  2  0  0  0
 74 86  1  0  0  0
 75 87  1  0  0  0
 76 88  1  0  0  0
 77149  1  0  0  0
 77150  1  0  0  0
 77151  1  0  0  0
 77 83  1  0  0  0
 78 83  1  0  0  0
 78152  1  0  0  0
 78153  1  0  0  0
 78154  1  0  0  0
 79 85  1  0  0  0
 79155  1  0  0  0
 79156  1  0  0  0
 80 81  1  0  0  0
 80 82  1  0  0  0
 80157  1  0  0  0
 80158  1  0  0  0
 81 83  1  0  0  0
 81159  1  0  0  0
 81160  1  0  0  0
 82161  1  0  0  0
 82162  1  0  0  0
 83 85  1  0  0  0
 84163  1  0  0  0
 85164  1  0  0  0
 85165  1  0  0  0
M  CHG  1  85   1
M  ISO  4   1 100  68 101  82 101  84 100
M  END
> <chiral flag>
0

> <version>
0

> <s_m_source_file>
/data/baiqing/PycharmProjects/Reinvent-master-3.2/result/LINK_invent/BTK/process_docking_weight1_custom_sum_contain_oxygen_bond_distance_aromatic_linkinvent_7_9_3/rearranged_h_0015.sdf

> <i_m_source_file_index>
73

> <r_mmod_Potential_Energy-OPLS-2005>
-178.498123168945

> <r_mmod_Stretch_Energy-OPLS-2005>
37.2728881835938

> <r_mmod_Bend_Energy-OPLS-2005>
111.51651763916

> <r_mmod_Torsional_Energy-OPLS-2005>
309.465393066406

> <r_mmod_Improper_Torsional_Energy-OPLS-2005>
21.9830799102783

> <r_mmod_Van_der_Waal_Energy-OPLS-2005>
148.873718261719

> <r_mmod_Electrostatic_Energy-OPLS-2005>
-357.373809814453

> <r_mmod_Solvation_Energy-OPLS-2005>
-467.339233398438

> <b_mmod_Minimization_Converged-OPLS-2005>
0

> <r_mmod_RMS_Derivative-OPLS-2005>
1.59897470474243

$$$$
74
                    3D
 Structure written by MMmdl.
167175  0  0  1  0            999 V2000
  -30.7278  -14.4138   20.5962 C   0  0  0  0  0  0
  -30.4217  -12.2791   19.4172 C   0  0  0  0  0  0
  -29.4976  -12.5084   18.2029 C   0  0  0  0  0  0
  -28.0172  -12.3718   18.6117 C   0  0  0  0  0  0
  -27.6679  -13.2041   19.8756 C   0  0  2  0  0  0
  -28.7044  -12.9639   20.9990 C   0  0  0  0  0  0
  -25.2615  -13.8165   20.5669 C   0  0  0  0  0  0
  -24.1845  -13.0452   20.9147 C   0  0  0  0  0  0
  -24.6395  -11.6920   20.8695 C   0  0  0  0  0  0
  -23.9044  -10.4314   21.0397 C   0  0  0  0  0  0
  -24.3599   -9.4224   21.9170 C   0  0  0  0  0  0
  -23.6290   -8.2246   22.0736 C   0  0  0  0  0  0
  -22.4255   -8.0278   21.3543 C   0  0  0  0  0  0
  -21.9902   -9.0256   20.4649 C   0  0  0  0  0  0
  -22.7213  -10.2146   20.3054 C   0  0  0  0  0  0
  -21.6850   -6.0734   22.5273 C   0  0  0  0  0  0
  -21.4032   -6.5639   23.8211 C   0  0  0  0  0  0
  -21.3660   -5.6782   24.9159 C   0  0  0  0  0  0
  -21.6018   -4.3040   24.7219 C   0  0  0  0  0  0
  -21.8811   -3.8144   23.4341 C   0  0  0  0  0  0
  -21.9203   -4.6965   22.3407 C   0  0  0  0  0  0
  -22.7857  -13.5256   21.1812 C   0  0  0  0  0  0
  -22.1658   -4.2147   21.0983 F   0  0  0  0  0  0
  -21.5642   -3.4532   25.7743 F   0  0  0  0  0  0
  -30.0460  -13.2502   20.4566 N   0  0  0  0  0  0
  -26.3058  -12.9332   20.3330 N   0  0  0  0  0  0
  -25.9322  -11.6495   20.5708 N   0  0  0  0  0  0
  -22.0497  -12.8268   22.0392 N   0  0  0  0  0  0
  -25.4366  -15.1876   20.4105 N   0  0  0  0  0  0
  -31.8316  -14.6119   20.0744 O   0  0  0  0  0  0
  -21.6626   -6.8870   21.4226 O   0  0  0  0  0  0
  -22.3534  -14.5543   20.6624 O   0  0  0  0  0  0
  -24.6086  -31.8710   23.2128 C   0  0  0  0  0  0
  -25.8999  -32.4841   23.8416 C   0  0  1  0  0  0
  -27.2619  -27.4875   20.0937 C   0  0  0  0  0  0
  -25.5872  -33.8639   24.2352 N   0  0  0  0  0  0
  -23.3952  -30.4912   21.5525 C   0  0  2  0  0  0
  -24.8468  -28.9587   20.1208 C   0  0  0  0  0  0
  -22.7377  -29.4663   22.5026 C   0  0  0  0  0  0
  -18.0268  -28.1385   22.8496 C   0  0  0  0  0  0
  -24.1484  -36.7331   23.2640 C   0  0  0  0  0  0
  -25.9149  -30.8561   21.3551 C   0  0  0  0  0  0
  -25.9982  -29.4902   20.7120 C   0  0  0  0  0  0
  -27.2044  -28.7646   20.7020 C   0  0  0  0  0  0
  -26.0906  -26.9579   19.5139 C   0  0  0  0  0  0
  -24.8842  -27.6864   19.5218 C   0  0  0  0  0  0
  -23.6024  -29.8161   20.1688 C   0  0  0  0  0  0
  -25.4100  -36.3125   24.0349 C   0  0  1  0  0  0
  -20.5847  -28.3656   23.1351 C   0  0  2  0  0  0
  -20.6755  -26.9395   22.5445 C   0  0  0  0  0  0
  -19.5748  -26.6396   21.5223 C   0  0  0  0  0  0
  -18.1916  -26.7938   22.1615 C   0  0  0  0  0  0
  -19.1513  -28.8836   23.2921 C   0  0  0  0  0  0
  -18.9438  -30.1442   23.8930 C   0  0  0  0  0  0
  -17.6443  -30.6587   24.0573 C   0  0  0  0  0  0
  -25.9018  -34.9488   23.5147 C   0  0  0  0  0  0
  -16.5334  -29.9092   23.6328 C   0  0  0  0  0  0
  -16.7259  -28.6511   23.0342 C   0  0  0  0  0  0
  -26.4463  -31.6605   25.0715 C   0  0  0  0  0  0
  -25.3759  -31.3707   26.1500 C   0  0  0  0  0  0
  -27.0271  -30.3050   24.6047 C   0  0  0  0  0  0
  -27.6073  -32.4309   25.7444 C   0  0  0  0  0  0
  -27.5585  -37.1806   24.8459 C   0  0  0  0  0  0
  -21.4114  -29.3022   22.3762 N   0  0  0  0  0  0
  -26.4290  -37.3800   23.9416 N   0  0  0  0  0  0
  -24.6578  -31.0854   22.1004 N   0  0  0  0  0  0
  -23.4167  -28.8214   23.3066 O   0  0  0  0  0  0
  -28.4018  -26.7170   20.0237 O   0  0  0  0  0  0
  -26.5576  -34.8928   22.4705 O   0  0  0  0  0  0
  -23.5293  -32.1426   23.7564 O   0  0  0  0  0  0
  -30.9224  -18.7452   19.8618 C   0  0  0  0  0  0
  -30.6817  -17.3646   19.9563 C   0  0  0  0  0  0
  -30.3717  -18.9910   22.2217 C   0  0  0  0  0  0
  -30.7828  -19.5609   20.9994 C   0  0  0  0  0  0
  -30.1284  -17.6039   22.3236 C   0  0  0  0  0  0
  -30.3146  -16.7748   21.1897 C   0  0  0  0  0  0
  -32.2786  -23.8375   21.8226 C   0  0  0  0  0  0
  -30.7566  -26.2685   20.3291 C   0  0  0  0  0  0
  -29.7073  -17.0244   23.6630 C   0  0  0  0  0  0
  -34.0040  -22.7893   20.3718 C   0  0  0  0  0  0
  -31.1110  -21.0393   20.9081 C   0  0  0  0  0  0
  -32.7510  -25.2399   21.3880 C   0  0  0  0  0  0
  -29.6275  -27.2930   20.4746 C   0  0  0  0  0  0
  -32.4091  -21.3866   21.6609 C   0  0  0  0  0  0
  -30.0907  -15.3728   21.2853 N   0  0  0  0  0  0
  -31.6439  -26.1961   21.3291 N   0  0  0  0  0  0
  -32.8837  -22.7345   21.3191 N   0  0  0  0  0  0
  -31.3531  -23.7583   22.6389 O   0  0  0  0  0  0
  -30.8284  -25.5475   19.3299 O   0  0  0  0  0  0
  -31.4680  -12.3719   19.1143 H   0  0  0  0  0  0
  -30.3135  -11.2642   19.8006 H   0  0  0  0  0  0
  -29.7387  -11.8022   17.4078 H   0  0  0  0  0  0
  -29.6700  -13.5030   17.7868 H   0  0  0  0  0  0
  -27.8152  -11.3165   18.8003 H   0  0  0  0  0  0
  -27.3685  -12.6597   17.7830 H   0  0  0  0  0  0
  -27.7225  -14.2554   19.5918 H   0  0  0  0  0  0
  -28.6668  -11.9280   21.3380 H   0  0  0  0  0  0
  -28.4607  -13.5615   21.8778 H   0  0  0  0  0  0
  -25.2766   -9.5704   22.4703 H   0  0  0  0  0  0
  -24.0022   -7.4638   22.7447 H   0  0  0  0  0  0
  -21.0836   -8.8772   19.8959 H   0  0  0  0  0  0
  -22.3680  -10.9668   19.6150 H   0  0  0  0  0  0
  -21.2019   -7.6148   23.9709 H   0  0  0  0  0  0
  -21.1482   -6.0515   25.9060 H   0  0  0  0  0  0
  -22.0601   -2.7612   23.2840 H   0  0  0  0  0  0
  -22.4139  -11.9981   22.4869 H   0  0  0  0  0  0
  -21.1097  -13.1278   22.2548 H   0  0  0  0  0  0
  -24.6794  -15.8520   20.5229 H   0  0  0  0  0  0
  -26.2975  -15.6209   20.1007 H   0  0  0  0  0  0
  -26.7080  -32.5590   23.1200 H   0  0  0  0  0  0
  -25.0032  -33.9805   25.0504 H   0  0  0  0  0  0
  -22.6813  -31.3054   21.4122 H   0  0  0  0  0  0
  -23.3731  -35.9679   23.3320 H   0  0  0  0  0  0
  -24.3582  -36.8923   22.2051 H   0  0  0  0  0  0
  -23.7249  -37.6554   23.6634 H   0  0  0  0  0  0
  -26.0092  -31.6188   20.5804 H   0  0  0  0  0  0
  -26.8085  -30.9221   21.9641 H   0  0  0  0  0  0
  -28.0745  -29.2096   21.1617 H   0  0  0  0  0  0
  -26.1174  -25.9820   19.0499 H   0  0  0  0  0  0
  -23.9982  -27.2666   19.0667 H   0  0  0  0  0  0
  -23.7010  -30.5866   19.4032 H   0  0  0  0  0  0
  -22.7308  -29.2259   19.8802 H   0  0  0  0  0  0
  -25.1265  -36.2004   25.0842 H   0  0  0  0  0  0
  -20.9935  -28.3224   24.1474 H   0  0  0  0  0  0
  -20.5655  -26.2255   23.3624 H   0  0  0  0  0  0
  -21.6632  -26.7449   22.1243 H   0  0  0  0  0  0
  -19.6905  -25.6313   21.1239 H   0  0  0  0  0  0
  -19.6703  -27.3222   20.6766 H   0  0  0  0  0  0
  -17.4195  -26.6714   21.3997 H   0  0  0  0  0  0
  -18.0287  -26.0067   22.8996 H   0  0  0  0  0  0
  -19.7909  -30.7251   24.2311 H   0  0  0  0  0  0
  -17.4995  -31.6270   24.5178 H   0  0  0  0  0  0
  -15.5333  -30.3001   23.7637 H   0  0  0  0  0  0
  -15.8661  -28.0846   22.7033 H   0  0  0  0  0  0
  -24.5939  -30.7028   25.7871 H   0  0  0  0  0  0
  -24.8935  -32.2858   26.4945 H   0  0  0  0  0  0
  -25.8146  -30.8907   27.0255 H   0  0  0  0  0  0
  -26.2774  -29.6813   24.1161 H   0  0  0  0  0  0
  -27.4122  -29.7286   25.4469 H   0  0  0  0  0  0
  -27.8579  -30.4383   23.9109 H   0  0  0  0  0  0
  -27.2719  -33.3588   26.2090 H   0  0  0  0  0  0
  -28.3821  -32.6908   25.0214 H   0  0  0  0  0  0
  -28.0816  -31.8396   26.5288 H   0  0  0  0  0  0
  -28.2620  -38.0086   24.7490 H   0  0  0  0  0  0
  -28.1058  -36.2619   24.6281 H   0  0  0  0  0  0
  -27.2314  -37.1473   25.8866 H   0  0  0  0  0  0
  -20.9269  -29.8715   21.6963 H   0  0  0  0  0  0
  -26.0191  -38.2886   24.1415 H   0  0  0  0  0  0
  -31.2292  -19.1698   18.9152 H   0  0  0  0  0  0
  -30.7910  -16.7643   19.0640 H   0  0  0  0  0  0
  -30.2654  -19.6230   23.0937 H   0  0  0  0  0  0
  -30.5683  -16.6010   24.1817 H   0  0  0  0  0  0
  -28.9629  -16.2382   23.5373 H   0  0  0  0  0  0
  -29.2666  -17.7948   24.2985 H   0  0  0  0  0  0
  -33.6677  -23.1787   19.4094 H   0  0  0  0  0  0
  -34.4523  -21.8140   20.1767 H   0  0  0  0  0  0
  -34.8053  -23.4269   20.7482 H   0  0  0  0  0  0
  -30.2715  -21.6154   21.2992 H   0  0  0  0  0  0
  -31.2103  -21.3213   19.8587 H   0  0  0  0  0  0
  -33.2522  -25.2277   20.4214 H   0  0  0  0  0  0
  -33.4850  -25.5880   22.1144 H   0  0  0  0  0  0
  -29.8764  -28.1697   19.8743 H   0  0  0  0  0  0
  -29.5531  -27.5977   21.5199 H   0  0  0  0  0  0
  -33.1688  -20.6443   21.4199 H   0  0  0  0  0  0
  -32.2580  -21.2993   22.7384 H   0  0  0  0  0  0
  -29.2926  -15.0763   21.8271 H   0  0  0  0  0  0
  -31.4968  -26.7816   22.1393 H   0  0  0  0  0  0
  1 25  1  0  0  0
  1 30  2  0  0  0
  1 85  1  0  0  0
  2  3  1  0  0  0
  2 25  1  0  0  0
  2 90  1  0  0  0
  2 91  1  0  0  0
  3  4  1  0  0  0
  3 92  1  0  0  0
  3 93  1  0  0  0
  4  5  1  0  0  0
  4 94  1  0  0  0
  4 95  1  0  0  0
  5  6  1  0  0  0
  5 26  1  0  0  0
  5 96  1  0  0  0
  6 25  1  0  0  0
  6 97  1  0  0  0
  6 98  1  0  0  0
  7  8  2  0  0  0
  7 26  1  0  0  0
  7 29  1  0  0  0
  8  9  1  0  0  0
  8 22  1  0  0  0
  9 10  1  0  0  0
  9 27  2  0  0  0
 10 11  2  0  0  0
 10 15  1  0  0  0
 11 12  1  0  0  0
 11 99  1  0  0  0
 12 13  2  0  0  0
 12100  1  0  0  0
 13 14  1  0  0  0
 13 31  1  0  0  0
 14 15  2  0  0  0
 14101  1  0  0  0
 15102  1  0  0  0
 16 17  2  0  0  0
 16 21  1  0  0  0
 16 31  1  0  0  0
 17 18  1  0  0  0
 17103  1  0  0  0
 18 19  2  0  0  0
 18104  1  0  0  0
 19 20  1  0  0  0
 19 24  1  0  0  0
 20 21  2  0  0  0
 20105  1  0  0  0
 21 23  1  0  0  0
 22 28  1  0  0  0
 22 32  2  0  0  0
 26 27  1  0  0  0
 28106  1  0  0  0
 28107  1  0  0  0
 29108  1  0  0  0
 29109  1  0  0  0
 33 34  1  0  0  0
 33 66  1  0  0  0
 33 70  2  0  0  0
 34 36  1  0  0  0
 34 59  1  0  0  0
 34110  1  0  0  0
 35 44  2  0  0  0
 35 45  1  0  0  0
 35 68  1  0  0  0
 36 56  1  0  0  0
 36111  1  0  0  0
 37 39  1  0  0  0
 37 47  1  0  0  0
 37 66  1  0  0  0
 37112  1  0  0  0
 38 43  2  0  0  0
 38 46  1  0  0  0
 38 47  1  0  0  0
 39 64  1  0  0  0
 39 67  2  0  0  0
 40 52  1  0  0  0
 40 53  2  0  0  0
 40 58  1  0  0  0
 41113  1  0  0  0
 41114  1  0  0  0
 41115  1  0  0  0
 41 48  1  0  0  0
 42 43  1  0  0  0
 42 66  1  0  0  0
 42116  1  0  0  0
 42117  1  0  0  0
 43 44  1  0  0  0
 44118  1  0  0  0
 45 46  2  0  0  0
 45119  1  0  0  0
 46120  1  0  0  0
 47121  1  0  0  0
 47122  1  0  0  0
 48 56  1  0  0  0
 48 65  1  0  0  0
 48123  1  0  0  0
 49 50  1  0  0  0
 49 53  1  0  0  0
 49 64  1  0  0  0
 49124  1  0  0  0
 50 51  1  0  0  0
 50125  1  0  0  0
 50126  1  0  0  0
 51 52  1  0  0  0
 51127  1  0  0  0
 51128  1  0  0  0
 52129  1  0  0  0
 52130  1  0  0  0
 53 54  1  0  0  0
 54 55  2  0  0  0
 54131  1  0  0  0
 55 57  1  0  0  0
 55132  1  0  0  0
 56 69  2  0  0  0
 57 58  2  0  0  0
 57133  1  0  0  0
 58134  1  0  0  0
 59 60  1  0  0  0
 59 61  1  0  0  0
 59 62  1  0  0  0
 60135  1  0  0  0
 60136  1  0  0  0
 60137  1  0  0  0
 61138  1  0  0  0
 61139  1  0  0  0
 61140  1  0  0  0
 62141  1  0  0  0
 62142  1  0  0  0
 62143  1  0  0  0
 63 65  1  0  0  0
 63144  1  0  0  0
 63145  1  0  0  0
 63146  1  0  0  0
 64147  1  0  0  0
 65148  1  0  0  0
 68 83  1  0  0  0
 71 72  2  0  0  0
 71 74  1  0  0  0
 71149  1  0  0  0
 72 76  1  0  0  0
 72150  1  0  0  0
 73 74  2  0  0  0
 73 75  1  0  0  0
 73151  1  0  0  0
 74 81  1  0  0  0
 75 76  2  0  0  0
 75 79  1  0  0  0
 76 85  1  0  0  0
 77 82  1  0  0  0
 77 87  1  0  0  0
 77 88  2  0  0  0
 78 83  1  0  0  0
 78 86  1  0  0  0
 78 89  2  0  0  0
 79152  1  0  0  0
 79153  1  0  0  0
 79154  1  0  0  0
 80 87  1  0  0  0
 80155  1  0  0  0
 80156  1  0  0  0
 80157  1  0  0  0
 81 84  1  0  0  0
 81158  1  0  0  0
 81159  1  0  0  0
 82 86  1  0  0  0
 82160  1  0  0  0
 82161  1  0  0  0
 83162  1  0  0  0
 83163  1  0  0  0
 84 87  1  0  0  0
 84164  1  0  0  0
 84165  1  0  0  0
 85166  1  0  0  0
 86167  1  0  0  0
M  ISO  4   1 100  68 101  83 101  85 100
M  END
> <chiral flag>
0

> <version>
0

> <s_m_source_file>
/data/baiqing/PycharmProjects/Reinvent-master-3.2/result/LINK_invent/BTK/process_docking_weight1_custom_sum_contain_oxygen_bond_distance_aromatic_linkinvent_7_9_3/rearranged_h_0015.sdf

> <i_m_source_file_index>
74

> <r_mmod_Potential_Energy-OPLS-2005>
-183.985626220703

> <r_mmod_Stretch_Energy-OPLS-2005>
35.0844535827637

> <r_mmod_Bend_Energy-OPLS-2005>
92.2044143676758

> <r_mmod_Torsional_Energy-OPLS-2005>
220.849273681641

> <r_mmod_Improper_Torsional_Energy-OPLS-2005>
2.63575387001038

> <r_mmod_Van_der_Waal_Energy-OPLS-2005>
176.034957885742

> <r_mmod_Electrostatic_Energy-OPLS-2005>
-449.754821777344

> <r_mmod_Solvation_Energy-OPLS-2005>
-268.381225585938

> <b_mmod_Minimization_Converged-OPLS-2005>
0

> <r_mmod_RMS_Derivative-OPLS-2005>
2.90895533561707

$$$$
75
                    3D
 Structure written by MMmdl.
162170  0  0  1  0            999 V2000
  -30.6091  -14.6431   20.4806 C   0  0  0  0  0  0
  -30.4402  -12.3916   19.4445 C   0  0  0  0  0  0
  -29.5078  -12.5119   18.2180 C   0  0  0  0  0  0
  -28.0296  -12.3485   18.6278 C   0  0  0  0  0  0
  -27.6520  -13.2129   19.8605 C   0  0  2  0  0  0
  -28.6992  -13.0682   20.9879 C   0  0  0  0  0  0
  -25.2568  -13.8144   20.5704 C   0  0  0  0  0  0
  -24.1829  -13.0413   20.9177 C   0  0  0  0  0  0
  -24.6394  -11.6884   20.8714 C   0  0  0  0  0  0
  -23.9057  -10.4276   21.0382 C   0  0  0  0  0  0
  -24.3613   -9.4201   21.9168 C   0  0  0  0  0  0
  -23.6289   -8.2240   22.0751 C   0  0  0  0  0  0
  -22.4274   -8.0271   21.3542 C   0  0  0  0  0  0
  -21.9902   -9.0237   20.4641 C   0  0  0  0  0  0
  -22.7226  -10.2115   20.3042 C   0  0  0  0  0  0
  -21.6858   -6.0727   22.5275 C   0  0  0  0  0  0
  -21.4013   -6.5634   23.8206 C   0  0  0  0  0  0
  -21.3668   -5.6793   24.9173 C   0  0  0  0  0  0
  -21.6049   -4.3055   24.7226 C   0  0  0  0  0  0
  -21.8819   -3.8140   23.4348 C   0  0  0  0  0  0
  -21.9192   -4.6954   22.3402 C   0  0  0  0  0  0
  -22.7856  -13.5218   21.1850 C   0  0  0  0  0  0
  -22.1662   -4.2139   21.0982 F   0  0  0  0  0  0
  -21.5635   -3.4546   25.7743 F   0  0  0  0  0  0
  -30.0133  -13.4111   20.4206 N   0  0  0  0  0  0
  -26.2986  -12.9319   20.3301 N   0  0  0  0  0  0
  -25.9320  -11.6477   20.5726 N   0  0  0  0  0  0
  -22.0504  -12.8207   22.0407 N   0  0  0  0  0  0
  -25.4266  -15.1869   20.4189 N   0  0  0  0  0  0
  -31.7857  -14.8121   20.1477 O   0  0  0  0  0  0
  -21.6646   -6.8864   21.4232 O   0  0  0  0  0  0
  -22.3543  -14.5527   20.6705 O   0  0  0  0  0  0
  -24.6246  -31.8601   23.2036 C   0  0  0  0  0  0
  -25.9103  -32.4779   23.8359 C   0  0  1  0  0  0
  -27.2248  -27.3296   20.1216 C   0  0  0  0  0  0
  -25.5928  -33.8580   24.2284 N   0  0  0  0  0  0
  -23.4172  -30.4827   21.5472 C   0  0  2  0  0  0
  -24.8628  -28.9345   20.1168 C   0  0  0  0  0  0
  -22.7461  -29.4629   22.4971 C   0  0  0  0  0  0
  -18.0277  -28.1381   22.8495 C   0  0  0  0  0  0
  -24.1481  -36.7288   23.2642 C   0  0  0  0  0  0
  -25.9562  -30.7948   21.3714 C   0  0  0  0  0  0
  -26.0315  -29.4216   20.7160 C   0  0  0  0  0  0
  -27.2176  -28.6317   20.7057 C   0  0  0  0  0  0
  -26.0364  -26.8893   19.4996 C   0  0  0  0  0  0
  -24.8649  -27.6718   19.5025 C   0  0  0  0  0  0
  -23.6298  -29.8133   20.1638 C   0  0  0  0  0  0
  -25.4107  -36.3082   24.0334 C   0  0  1  0  0  0
  -20.5877  -28.3680   23.1300 C   0  0  2  0  0  0
  -20.6770  -26.9408   22.5417 C   0  0  0  0  0  0
  -19.5744  -26.6381   21.5218 C   0  0  0  0  0  0
  -18.1922  -26.7928   22.1625 C   0  0  0  0  0  0
  -19.1530  -28.8849   23.2890 C   0  0  0  0  0  0
  -18.9458  -30.1457   23.8898 C   0  0  0  0  0  0
  -17.6456  -30.6591   24.0562 C   0  0  0  0  0  0
  -25.9052  -34.9453   23.5109 C   0  0  0  0  0  0
  -16.5347  -29.9087   23.6339 C   0  0  0  0  0  0
  -16.7262  -28.6501   23.0366 C   0  0  0  0  0  0
  -26.4487  -31.6595   25.0733 C   0  0  0  0  0  0
  -25.3719  -31.3724   26.1460 C   0  0  0  0  0  0
  -27.0347  -30.3028   24.6185 C   0  0  0  0  0  0
  -27.6045  -32.4335   25.7504 C   0  0  0  0  0  0
  -27.5578  -37.1799   24.8466 C   0  0  0  0  0  0
  -21.4180  -29.3036   22.3704 N   0  0  0  0  0  0
  -26.4284  -37.3782   23.9414 N   0  0  0  0  0  0
  -24.6850  -31.0616   22.0983 N   0  0  0  0  0  0
  -23.4193  -28.8178   23.3055 O   0  0  0  0  0  0
  -28.3506  -26.4987   20.1254 O   0  0  0  0  0  0
  -26.5621  -34.8920   22.4678 O   0  0  0  0  0  0
  -23.5414  -32.1402   23.7377 O   0  0  0  0  0  0
  -30.8882  -17.9383   21.0003 C   0  0  0  0  0  0
  -28.7752  -19.2016   19.6725 C   0  0  0  0  0  0
  -30.8789  -19.3597   20.8426 C   0  0  0  0  0  0
  -29.8489  -17.1183   20.4969 C   0  0  0  0  0  0
  -29.8178  -20.0320   20.1542 C   0  0  0  0  0  0
  -28.7780  -17.7752   19.8315 C   0  0  0  0  0  0
  -32.0394  -20.1359   21.4438 C   0  0  0  0  0  0
  -31.0046  -21.8553   19.0506 C   0  0  0  0  0  0
  -26.8449  -17.5272   18.4278 C   0  0  0  0  0  0
  -29.0559  -23.9636   19.8952 C   0  0  0  0  0  0
  -29.0059  -22.4825   20.5051 C   0  0  0  0  0  0
  -28.1815  -25.1001   20.5799 C   0  0  0  0  0  0
  -29.7543  -15.6812   20.7288 N   0  0  0  0  0  0
  -29.8365  -21.4357   19.8235 N   0  0  0  0  0  0
  -27.7734  -16.9612   19.3461 O   0  0  0  0  0  0
  -31.4812  -12.5231   19.1436 H   0  0  0  0  0  0
  -30.3762  -11.3938   19.8823 H   0  0  0  0  0  0
  -29.7739  -11.7679   17.4663 H   0  0  0  0  0  0
  -29.6488  -13.4851   17.7445 H   0  0  0  0  0  0
  -27.8617  -11.2934   18.8480 H   0  0  0  0  0  0
  -27.3784  -12.5903   17.7870 H   0  0  0  0  0  0
  -27.6647  -14.2477   19.5190 H   0  0  0  0  0  0
  -28.7111  -12.0474   21.3727 H   0  0  0  0  0  0
  -28.4486  -13.7041   21.8382 H   0  0  0  0  0  0
  -25.2755   -9.5695   22.4744 H   0  0  0  0  0  0
  -24.0003   -7.4641   22.7477 H   0  0  0  0  0  0
  -21.0834   -8.8737   19.8953 H   0  0  0  0  0  0
  -22.3666  -10.9647   19.6156 H   0  0  0  0  0  0
  -21.2001   -7.6138   23.9706 H   0  0  0  0  0  0
  -21.1499   -6.0525   25.9076 H   0  0  0  0  0  0
  -22.0593   -2.7603   23.2854 H   0  0  0  0  0  0
  -22.4126  -11.9869   22.4787 H   0  0  0  0  0  0
  -21.1113  -13.1218   22.2607 H   0  0  0  0  0  0
  -24.6559  -15.8336   20.5451 H   0  0  0  0  0  0
  -26.2755  -15.6404   20.1004 H   0  0  0  0  0  0
  -26.7172  -32.5446   23.1110 H   0  0  0  0  0  0
  -25.0064  -33.9724   25.0421 H   0  0  0  0  0  0
  -22.7108  -31.3031   21.4033 H   0  0  0  0  0  0
  -23.3755  -35.9611   23.3293 H   0  0  0  0  0  0
  -24.3575  -36.8918   22.2059 H   0  0  0  0  0  0
  -23.7220  -37.6480   23.6670 H   0  0  0  0  0  0
  -26.0838  -31.5584   20.6025 H   0  0  0  0  0  0
  -26.8379  -30.8453   21.9986 H   0  0  0  0  0  0
  -28.1179  -29.0045   21.1738 H   0  0  0  0  0  0
  -26.0025  -25.9254   19.0111 H   0  0  0  0  0  0
  -23.9672  -27.2922   19.0338 H   0  0  0  0  0  0
  -23.7473  -30.5869   19.4045 H   0  0  0  0  0  0
  -22.7495  -29.2405   19.8643 H   0  0  0  0  0  0
  -25.1288  -36.1934   25.0828 H   0  0  0  0  0  0
  -20.9952  -28.3237   24.1425 H   0  0  0  0  0  0
  -20.5669  -26.2285   23.3614 H   0  0  0  0  0  0
  -21.6639  -26.7451   22.1201 H   0  0  0  0  0  0
  -19.6906  -25.6291   21.1248 H   0  0  0  0  0  0
  -19.6681  -27.3192   20.6749 H   0  0  0  0  0  0
  -17.4196  -26.6690   21.4022 H   0  0  0  0  0  0
  -18.0311  -26.0062   22.9007 H   0  0  0  0  0  0
  -19.7932  -30.7277   24.2261 H   0  0  0  0  0  0
  -17.5011  -31.6277   24.5156 H   0  0  0  0  0  0
  -15.5352  -30.2989   23.7672 H   0  0  0  0  0  0
  -15.8656  -28.0817   22.7099 H   0  0  0  0  0  0
  -24.5906  -30.7060   25.7788 H   0  0  0  0  0  0
  -24.8903  -32.2886   26.4882 H   0  0  0  0  0  0
  -25.8046  -30.8908   27.0236 H   0  0  0  0  0  0
  -26.2934  -29.6768   24.1205 H   0  0  0  0  0  0
  -27.4051  -29.7291   25.4692 H   0  0  0  0  0  0
  -27.8789  -30.4329   23.9411 H   0  0  0  0  0  0
  -27.2655  -33.3640   26.2065 H   0  0  0  0  0  0
  -28.3863  -32.6884   25.0339 H   0  0  0  0  0  0
  -28.0700  -31.8471   26.5431 H   0  0  0  0  0  0
  -28.2586  -38.0105   24.7537 H   0  0  0  0  0  0
  -28.1083  -36.2644   24.6263 H   0  0  0  0  0  0
  -27.2300  -37.1405   25.8869 H   0  0  0  0  0  0
  -20.9364  -29.8744   21.6897 H   0  0  0  0  0  0
  -26.0164  -38.2852   24.1437 H   0  0  0  0  0  0
  -31.7007  -17.4724   21.5394 H   0  0  0  0  0  0
  -27.9746  -19.6893   19.1377 H   0  0  0  0  0  0
  -32.4749  -19.5974   22.2861 H   0  0  0  0  0  0
  -31.7192  -21.1103   21.8134 H   0  0  0  0  0  0
  -32.8227  -20.2848   20.7002 H   0  0  0  0  0  0
  -31.5422  -21.0065   18.6246 H   0  0  0  0  0  0
  -31.7011  -22.4227   19.6689 H   0  0  0  0  0  0
  -30.7049  -22.4914   18.2161 H   0  0  0  0  0  0
  -26.2086  -16.7402   18.0230 H   0  0  0  0  0  0
  -27.3483  -18.0028   17.5845 H   0  0  0  0  0  0
  -26.1975  -18.2561   18.9169 H   0  0  0  0  0  0
  -28.7729  -23.9177   18.8435 H   0  0  0  0  0  0
  -30.0897  -24.3072   19.9099 H   0  0  0  0  0  0
  -27.9698  -22.1407   20.5072 H   0  0  0  0  0  0
  -29.3077  -22.5223   21.5532 H   0  0  0  0  0  0
  -28.4225  -25.1052   21.6433 H   0  0  0  0  0  0
  -27.1396  -24.7844   20.5408 H   0  0  0  0  0  0
  -28.8074  -15.3596   20.8547 H   0  0  0  0  0  0
  1 25  1  0  0  0
  1 30  2  0  0  0
  1 83  1  0  0  0
  2  3  1  0  0  0
  2 25  1  0  0  0
  2 86  1  0  0  0
  2 87  1  0  0  0
  3  4  1  0  0  0
  3 88  1  0  0  0
  3 89  1  0  0  0
  4  5  1  0  0  0
  4 90  1  0  0  0
  4 91  1  0  0  0
  5  6  1  0  0  0
  5 26  1  0  0  0
  5 92  1  0  0  0
  6 25  1  0  0  0
  6 93  1  0  0  0
  6 94  1  0  0  0
  7  8  2  0  0  0
  7 26  1  0  0  0
  7 29  1  0  0  0
  8  9  1  0  0  0
  8 22  1  0  0  0
  9 10  1  0  0  0
  9 27  2  0  0  0
 10 11  2  0  0  0
 10 15  1  0  0  0
 11 12  1  0  0  0
 11 95  1  0  0  0
 12 13  2  0  0  0
 12 96  1  0  0  0
 13 14  1  0  0  0
 13 31  1  0  0  0
 14 15  2  0  0  0
 14 97  1  0  0  0
 15 98  1  0  0  0
 16 17  2  0  0  0
 16 21  1  0  0  0
 16 31  1  0  0  0
 17 18  1  0  0  0
 17 99  1  0  0  0
 18 19  2  0  0  0
 18100  1  0  0  0
 19 20  1  0  0  0
 19 24  1  0  0  0
 20 21  2  0  0  0
 20101  1  0  0  0
 21 23  1  0  0  0
 22 28  1  0  0  0
 22 32  2  0  0  0
 26 27  1  0  0  0
 28102  1  0  0  0
 28103  1  0  0  0
 29104  1  0  0  0
 29105  1  0  0  0
 33 34  1  0  0  0
 33 66  1  0  0  0
 33 70  2  0  0  0
 34 36  1  0  0  0
 34 59  1  0  0  0
 34106  1  0  0  0
 35 44  2  0  0  0
 35 45  1  0  0  0
 35 68  1  0  0  0
 36 56  1  0  0  0
 36107  1  0  0  0
 37 39  1  0  0  0
 37 47  1  0  0  0
 37 66  1  0  0  0
 37108  1  0  0  0
 38 43  2  0  0  0
 38 46  1  0  0  0
 38 47  1  0  0  0
 39 64  1  0  0  0
 39 67  2  0  0  0
 40 52  1  0  0  0
 40 53  2  0  0  0
 40 58  1  0  0  0
 41109  1  0  0  0
 41110  1  0  0  0
 41111  1  0  0  0
 41 48  1  0  0  0
 42 43  1  0  0  0
 42 66  1  0  0  0
 42112  1  0  0  0
 42113  1  0  0  0
 43 44  1  0  0  0
 44114  1  0  0  0
 45 46  2  0  0  0
 45115  1  0  0  0
 46116  1  0  0  0
 47117  1  0  0  0
 47118  1  0  0  0
 48 56  1  0  0  0
 48 65  1  0  0  0
 48119  1  0  0  0
 49 50  1  0  0  0
 49 53  1  0  0  0
 49 64  1  0  0  0
 49120  1  0  0  0
 50 51  1  0  0  0
 50121  1  0  0  0
 50122  1  0  0  0
 51 52  1  0  0  0
 51123  1  0  0  0
 51124  1  0  0  0
 52125  1  0  0  0
 52126  1  0  0  0
 53 54  1  0  0  0
 54 55  2  0  0  0
 54127  1  0  0  0
 55 57  1  0  0  0
 55128  1  0  0  0
 56 69  2  0  0  0
 57 58  2  0  0  0
 57129  1  0  0  0
 58130  1  0  0  0
 59 60  1  0  0  0
 59 61  1  0  0  0
 59 62  1  0  0  0
 60131  1  0  0  0
 60132  1  0  0  0
 60133  1  0  0  0
 61134  1  0  0  0
 61135  1  0  0  0
 61136  1  0  0  0
 62137  1  0  0  0
 62138  1  0  0  0
 62139  1  0  0  0
 63 65  1  0  0  0
 63140  1  0  0  0
 63141  1  0  0  0
 63142  1  0  0  0
 64143  1  0  0  0
 65144  1  0  0  0
 68 82  1  0  0  0
 71 73  2  0  0  0
 71 74  1  0  0  0
 71145  1  0  0  0
 72 75  2  0  0  0
 72 76  1  0  0  0
 72146  1  0  0  0
 73 75  1  0  0  0
 73 77  1  0  0  0
 74 76  2  0  0  0
 74 83  1  0  0  0
 75 84  1  0  0  0
 76 85  1  0  0  0
 77147  1  0  0  0
 77148  1  0  0  0
 77149  1  0  0  0
 78 84  1  0  0  0
 78150  1  0  0  0
 78151  1  0  0  0
 78152  1  0  0  0
 79 85  1  0  0  0
 79153  1  0  0  0
 79154  1  0  0  0
 79155  1  0  0  0
 80 81  1  0  0  0
 80 82  1  0  0  0
 80156  1  0  0  0
 80157  1  0  0  0
 81 84  1  0  0  0
 81158  1  0  0  0
 81159  1  0  0  0
 82160  1  0  0  0
 82161  1  0  0  0
 83162  1  0  0  0
M  ISO  4   1 100  68 101  82 101  83 100
M  END
> <chiral flag>
0

> <version>
0

> <s_m_source_file>
/data/baiqing/PycharmProjects/Reinvent-master-3.2/result/LINK_invent/BTK/process_docking_weight1_custom_sum_contain_oxygen_bond_distance_aromatic_linkinvent_7_9_3/rearranged_h_0015.sdf

> <i_m_source_file_index>
75

> <r_mmod_Potential_Energy-OPLS-2005>
44.2297325134277

> <r_mmod_Stretch_Energy-OPLS-2005>
78.0699844360352

> <r_mmod_Bend_Energy-OPLS-2005>
144.407608032227

> <r_mmod_Torsional_Energy-OPLS-2005>
269.208740234375

> <r_mmod_Improper_Torsional_Energy-OPLS-2005>
7.14044523239136

> <r_mmod_Van_der_Waal_Energy-OPLS-2005>
145.538055419922

> <r_mmod_Electrostatic_Energy-OPLS-2005>
-436.815826416016

> <r_mmod_Solvation_Energy-OPLS-2005>
-209.861053466797

> <b_mmod_Minimization_Converged-OPLS-2005>
0

> <r_mmod_RMS_Derivative-OPLS-2005>
1.31099355220795

$$$$
76
                    3D
 Structure written by MMmdl.
157165  0  0  1  0            999 V2000
  -30.7021  -14.4769   20.6470 C   0  0  0  0  0  0
  -30.4271  -12.3243   19.4399 C   0  0  0  0  0  0
  -29.5057  -12.5309   18.2191 C   0  0  0  0  0  0
  -28.0260  -12.3713   18.6238 C   0  0  0  0  0  0
  -27.6649  -13.2069   19.8794 C   0  0  2  0  0  0
  -28.6969  -12.9788   21.0082 C   0  0  0  0  0  0
  -25.2582  -13.8157   20.5642 C   0  0  0  0  0  0
  -24.1819  -13.0430   20.9104 C   0  0  0  0  0  0
  -24.6385  -11.6906   20.8687 C   0  0  0  0  0  0
  -23.9053  -10.4284   21.0387 C   0  0  0  0  0  0
  -24.3607   -9.4200   21.9171 C   0  0  0  0  0  0
  -23.6269   -8.2252   22.0784 C   0  0  0  0  0  0
  -22.4240   -8.0292   21.3575 C   0  0  0  0  0  0
  -21.9864   -9.0262   20.4672 C   0  0  0  0  0  0
  -22.7216  -10.2120   20.3051 C   0  0  0  0  0  0
  -21.6850   -6.0722   22.5273 C   0  0  0  0  0  0
  -21.4028   -6.5626   23.8202 C   0  0  0  0  0  0
  -21.3652   -5.6784   24.9167 C   0  0  0  0  0  0
  -21.6049   -4.3049   24.7222 C   0  0  0  0  0  0
  -21.8812   -3.8130   23.4348 C   0  0  0  0  0  0
  -21.9189   -4.6951   22.3397 C   0  0  0  0  0  0
  -22.7840  -13.5234   21.1776 C   0  0  0  0  0  0
  -22.1653   -4.2131   21.0979 F   0  0  0  0  0  0
  -21.5620   -3.4537   25.7739 F   0  0  0  0  0  0
  -30.0389  -13.2960   20.4795 N   0  0  0  0  0  0
  -26.3021  -12.9335   20.3334 N   0  0  0  0  0  0
  -25.9310  -11.6493   20.5712 N   0  0  0  0  0  0
  -22.0495  -12.8259   22.0361 N   0  0  0  0  0  0
  -25.4311  -15.1879   20.4100 N   0  0  0  0  0  0
  -31.7693  -14.7131   20.0773 O   0  0  0  0  0  0
  -21.6640   -6.8871   21.4237 O   0  0  0  0  0  0
  -22.3521  -14.5529   20.6611 O   0  0  0  0  0  0
  -24.6137  -31.8743   23.2089 C   0  0  0  0  0  0
  -25.9019  -32.4869   23.8392 C   0  0  1  0  0  0
  -27.2096  -27.4291   20.0875 C   0  0  0  0  0  0
  -25.5848  -33.8653   24.2326 N   0  0  0  0  0  0
  -23.3977  -30.5053   21.5520 C   0  0  2  0  0  0
  -24.8351  -28.9745   20.1127 C   0  0  0  0  0  0
  -22.7389  -29.4726   22.4951 C   0  0  0  0  0  0
  -18.0280  -28.1376   22.8508 C   0  0  0  0  0  0
  -24.1470  -36.7340   23.2647 C   0  0  0  0  0  0
  -25.9279  -30.8468   21.3506 C   0  0  0  0  0  0
  -26.0033  -29.4803   20.6965 C   0  0  0  0  0  0
  -27.1987  -28.7209   20.6681 C   0  0  0  0  0  0
  -26.0146  -26.9406   19.5089 C   0  0  0  0  0  0
  -24.8351  -27.7031   19.5195 C   0  0  0  0  0  0
  -23.6029  -29.8511   20.1623 C   0  0  0  0  0  0
  -25.4087  -36.3144   24.0353 C   0  0  1  0  0  0
  -20.5873  -28.3674   23.1299 C   0  0  2  0  0  0
  -20.6745  -26.9404   22.5414 C   0  0  0  0  0  0
  -19.5727  -26.6386   21.5206 C   0  0  0  0  0  0
  -18.1916  -26.7924   22.1637 C   0  0  0  0  0  0
  -19.1533  -28.8833   23.2919 C   0  0  0  0  0  0
  -18.9475  -30.1421   23.8968 C   0  0  0  0  0  0
  -17.6485  -30.6581   24.0585 C   0  0  0  0  0  0
  -25.9023  -34.9516   23.5153 C   0  0  0  0  0  0
  -16.5374  -29.9112   23.6300 C   0  0  0  0  0  0
  -16.7277  -28.6512   23.0356 C   0  0  0  0  0  0
  -26.4425  -31.6626   25.0710 C   0  0  0  0  0  0
  -25.3667  -31.3735   26.1444 C   0  0  0  0  0  0
  -27.0243  -30.3089   24.6023 C   0  0  0  0  0  0
  -27.6038  -32.4299   25.7457 C   0  0  0  0  0  0
  -27.5570  -37.1826   24.8477 C   0  0  0  0  0  0
  -21.4119  -29.3066   22.3697 N   0  0  0  0  0  0
  -26.4288  -37.3817   23.9407 N   0  0  0  0  0  0
  -24.6667  -31.0856   22.0980 N   0  0  0  0  0  0
  -23.4179  -28.8255   23.2963 O   0  0  0  0  0  0
  -28.3674  -26.6742   20.0886 O   0  0  0  0  0  0
  -26.5635  -34.8970   22.4742 O   0  0  0  0  0  0
  -23.5332  -32.1478   23.7500 O   0  0  0  0  0  0
  -28.9869  -18.6843   22.6919 C   0  0  0  0  0  0
  -29.7920  -19.6150   21.9965 C   0  0  0  0  0  0
  -30.1102  -16.7741   21.6173 C   0  0  0  0  0  0
  -29.1470  -17.2954   22.5083 C   0  0  0  0  0  0
  -30.7987  -19.1005   21.1429 C   0  0  0  0  0  0
  -30.9557  -17.7017   20.9427 C   0  0  0  0  0  0
  -29.4664  -22.1352   21.1554 C   0  0  0  0  0  0
  -29.6756  -23.9557   22.8336 C   0  0  0  0  0  0
  -29.6465  -21.1181   22.3179 C   0  0  0  0  0  0
  -29.5616  -24.5469   20.4461 C   0  0  0  0  0  0
  -28.2004  -25.2512   20.2498 C   0  0  0  0  0  0
  -30.1087  -15.3383   21.5010 N   0  0  0  0  0  0
  -29.5287  -23.4653   21.4550 N   0  0  0  0  0  0
  -29.2747  -21.7316   20.0048 O   0  0  0  0  0  0
  -28.3637  -16.4394   23.2099 F   0  0  0  0  0  0
  -31.6541  -19.9534   20.5279 F   0  0  0  0  0  0
  -31.9380  -17.2866   20.1121 F   0  0  0  0  0  0
  -31.4756  -12.4206   19.1540 H   0  0  0  0  0  0
  -30.3182  -11.3095   19.8255 H   0  0  0  0  0  0
  -29.7552  -11.8214   17.4307 H   0  0  0  0  0  0
  -29.6713  -13.5226   17.7956 H   0  0  0  0  0  0
  -27.8443  -11.3140   18.8215 H   0  0  0  0  0  0
  -27.3774  -12.6424   17.7901 H   0  0  0  0  0  0
  -27.7146  -14.2561   19.5903 H   0  0  0  0  0  0
  -28.6657  -11.9386   21.3375 H   0  0  0  0  0  0
  -28.4267  -13.5606   21.8891 H   0  0  0  0  0  0
  -25.2775   -9.5644   22.4726 H   0  0  0  0  0  0
  -23.9967   -7.4629   22.7500 H   0  0  0  0  0  0
  -21.0799   -8.8779   19.8975 H   0  0  0  0  0  0
  -22.3700  -10.9654   19.6141 H   0  0  0  0  0  0
  -21.2044   -7.6136   23.9694 H   0  0  0  0  0  0
  -21.1478   -6.0526   25.9061 H   0  0  0  0  0  0
  -22.0599   -2.7596   23.2860 H   0  0  0  0  0  0
  -22.4140  -11.9936   22.4768 H   0  0  0  0  0  0
  -21.1132  -13.1323   22.2606 H   0  0  0  0  0  0
  -24.6713  -15.8465   20.5304 H   0  0  0  0  0  0
  -26.2985  -15.6299   20.1315 H   0  0  0  0  0  0
  -26.7115  -32.5581   23.1184 H   0  0  0  0  0  0
  -24.9823  -33.9817   25.0347 H   0  0  0  0  0  0
  -22.6855  -31.3230   21.4217 H   0  0  0  0  0  0
  -23.3727  -35.9684   23.3354 H   0  0  0  0  0  0
  -24.3567  -36.8909   22.2057 H   0  0  0  0  0  0
  -23.7234  -37.6563   23.6631 H   0  0  0  0  0  0
  -26.0217  -31.6125   20.5786 H   0  0  0  0  0  0
  -26.8235  -30.9134   21.9559 H   0  0  0  0  0  0
  -28.1039  -29.1169   21.1044 H   0  0  0  0  0  0
  -25.9638  -25.9691   19.0426 H   0  0  0  0  0  0
  -23.9316  -27.3028   19.0771 H   0  0  0  0  0  0
  -23.7239  -30.6389   19.4167 H   0  0  0  0  0  0
  -22.7201  -29.2900   19.8501 H   0  0  0  0  0  0
  -25.1256  -36.2035   25.0850 H   0  0  0  0  0  0
  -21.0009  -28.3257   24.1403 H   0  0  0  0  0  0
  -20.5573  -26.2316   23.3619 H   0  0  0  0  0  0
  -21.6624  -26.7370   22.1270 H   0  0  0  0  0  0
  -19.6872  -25.6297   21.1236 H   0  0  0  0  0  0
  -19.6649  -27.3190   20.6729 H   0  0  0  0  0  0
  -17.4161  -26.6680   21.4060 H   0  0  0  0  0  0
  -18.0331  -26.0051   22.9024 H   0  0  0  0  0  0
  -19.7960  -30.7195   24.2395 H   0  0  0  0  0  0
  -17.5057  -31.6270   24.5167 H   0  0  0  0  0  0
  -15.5383  -30.3058   23.7545 H   0  0  0  0  0  0
  -15.8681  -28.0831   22.7064 H   0  0  0  0  0  0
  -24.5854  -30.7078   25.7748 H   0  0  0  0  0  0
  -24.8830  -32.2900   26.4843 H   0  0  0  0  0  0
  -25.7982  -30.8919   27.0229 H   0  0  0  0  0  0
  -26.2779  -29.6883   24.1058 H   0  0  0  0  0  0
  -27.4048  -29.7279   25.4427 H   0  0  0  0  0  0
  -27.8585  -30.4447   23.9140 H   0  0  0  0  0  0
  -27.2722  -33.3619   26.2039 H   0  0  0  0  0  0
  -28.3839  -32.6810   25.0259 H   0  0  0  0  0  0
  -28.0706  -31.8396   26.5349 H   0  0  0  0  0  0
  -28.2639  -38.0070   24.7473 H   0  0  0  0  0  0
  -28.1022  -36.2615   24.6361 H   0  0  0  0  0  0
  -27.2317  -37.1558   25.8893 H   0  0  0  0  0  0
  -20.9229  -29.8875   21.7029 H   0  0  0  0  0  0
  -26.0206  -38.2918   24.1362 H   0  0  0  0  0  0
  -28.2524  -19.0337   23.4030 H   0  0  0  0  0  0
  -28.8691  -23.5907   23.4723 H   0  0  0  0  0  0
  -29.6472  -25.0455   22.8912 H   0  0  0  0  0  0
  -30.6252  -23.6391   23.2668 H   0  0  0  0  0  0
  -30.5315  -21.3996   22.8858 H   0  0  0  0  0  0
  -28.7954  -21.2542   22.9859 H   0  0  0  0  0  0
  -30.3058  -25.2827   20.7494 H   0  0  0  0  0  0
  -29.9229  -24.1838   19.4820 H   0  0  0  0  0  0
  -27.5567  -25.0798   21.1150 H   0  0  0  0  0  0
  -27.7091  -24.8014   19.3854 H   0  0  0  0  0  0
  -29.3550  -14.9143   22.0209 H   0  0  0  0  0  0
  1 25  1  0  0  0
  1 30  2  0  0  0
  1 82  1  0  0  0
  2  3  1  0  0  0
  2 25  1  0  0  0
  2 88  1  0  0  0
  2 89  1  0  0  0
  3  4  1  0  0  0
  3 90  1  0  0  0
  3 91  1  0  0  0
  4  5  1  0  0  0
  4 92  1  0  0  0
  4 93  1  0  0  0
  5  6  1  0  0  0
  5 26  1  0  0  0
  5 94  1  0  0  0
  6 25  1  0  0  0
  6 95  1  0  0  0
  6 96  1  0  0  0
  7  8  2  0  0  0
  7 26  1  0  0  0
  7 29  1  0  0  0
  8  9  1  0  0  0
  8 22  1  0  0  0
  9 10  1  0  0  0
  9 27  2  0  0  0
 10 11  2  0  0  0
 10 15  1  0  0  0
 11 12  1  0  0  0
 11 97  1  0  0  0
 12 13  2  0  0  0
 12 98  1  0  0  0
 13 14  1  0  0  0
 13 31  1  0  0  0
 14 15  2  0  0  0
 14 99  1  0  0  0
 15100  1  0  0  0
 16 17  2  0  0  0
 16 21  1  0  0  0
 16 31  1  0  0  0
 17 18  1  0  0  0
 17101  1  0  0  0
 18 19  2  0  0  0
 18102  1  0  0  0
 19 20  1  0  0  0
 19 24  1  0  0  0
 20 21  2  0  0  0
 20103  1  0  0  0
 21 23  1  0  0  0
 22 28  1  0  0  0
 22 32  2  0  0  0
 26 27  1  0  0  0
 28104  1  0  0  0
 28105  1  0  0  0
 29106  1  0  0  0
 29107  1  0  0  0
 33 34  1  0  0  0
 33 66  1  0  0  0
 33 70  2  0  0  0
 34 36  1  0  0  0
 34 59  1  0  0  0
 34108  1  0  0  0
 35 44  2  0  0  0
 35 45  1  0  0  0
 35 68  1  0  0  0
 36 56  1  0  0  0
 36109  1  0  0  0
 37 39  1  0  0  0
 37 47  1  0  0  0
 37 66  1  0  0  0
 37110  1  0  0  0
 38 43  2  0  0  0
 38 46  1  0  0  0
 38 47  1  0  0  0
 39 64  1  0  0  0
 39 67  2  0  0  0
 40 52  1  0  0  0
 40 53  2  0  0  0
 40 58  1  0  0  0
 41111  1  0  0  0
 41112  1  0  0  0
 41113  1  0  0  0
 41 48  1  0  0  0
 42 43  1  0  0  0
 42 66  1  0  0  0
 42114  1  0  0  0
 42115  1  0  0  0
 43 44  1  0  0  0
 44116  1  0  0  0
 45 46  2  0  0  0
 45117  1  0  0  0
 46118  1  0  0  0
 47119  1  0  0  0
 47120  1  0  0  0
 48 56  1  0  0  0
 48 65  1  0  0  0
 48121  1  0  0  0
 49 50  1  0  0  0
 49 53  1  0  0  0
 49 64  1  0  0  0
 49122  1  0  0  0
 50 51  1  0  0  0
 50123  1  0  0  0
 50124  1  0  0  0
 51 52  1  0  0  0
 51125  1  0  0  0
 51126  1  0  0  0
 52127  1  0  0  0
 52128  1  0  0  0
 53 54  1  0  0  0
 54 55  2  0  0  0
 54129  1  0  0  0
 55 57  1  0  0  0
 55130  1  0  0  0
 56 69  2  0  0  0
 57 58  2  0  0  0
 57131  1  0  0  0
 58132  1  0  0  0
 59 60  1  0  0  0
 59 61  1  0  0  0
 59 62  1  0  0  0
 60133  1  0  0  0
 60134  1  0  0  0
 60135  1  0  0  0
 61136  1  0  0  0
 61137  1  0  0  0
 61138  1  0  0  0
 62139  1  0  0  0
 62140  1  0  0  0
 62141  1  0  0  0
 63 65  1  0  0  0
 63142  1  0  0  0
 63143  1  0  0  0
 63144  1  0  0  0
 64145  1  0  0  0
 65146  1  0  0  0
 68 81  1  0  0  0
 71 72  2  0  0  0
 71 74  1  0  0  0
 71147  1  0  0  0
 72 75  1  0  0  0
 72 79  1  0  0  0
 73 74  2  0  0  0
 73 76  1  0  0  0
 73 82  1  0  0  0
 74 85  1  0  0  0
 75 76  2  0  0  0
 75 86  1  0  0  0
 76 87  1  0  0  0
 77 79  1  0  0  0
 77 83  1  0  0  0
 77 84  2  0  0  0
 78 83  1  0  0  0
 78148  1  0  0  0
 78149  1  0  0  0
 78150  1  0  0  0
 79151  1  0  0  0
 79152  1  0  0  0
 80 81  1  0  0  0
 80 83  1  0  0  0
 80153  1  0  0  0
 80154  1  0  0  0
 81155  1  0  0  0
 81156  1  0  0  0
 82157  1  0  0  0
M  ISO  4   1 100  68 101  81 101  82 100
M  END
> <chiral flag>
0

> <version>
0

> <s_m_source_file>
/data/baiqing/PycharmProjects/Reinvent-master-3.2/result/LINK_invent/BTK/process_docking_weight1_custom_sum_contain_oxygen_bond_distance_aromatic_linkinvent_7_9_3/rearranged_h_0015.sdf

> <i_m_source_file_index>
76

> <r_mmod_Potential_Energy-OPLS-2005>
-54.9429817199707

> <r_mmod_Stretch_Energy-OPLS-2005>
45.564624786377

> <r_mmod_Bend_Energy-OPLS-2005>
121.262825012207

> <r_mmod_Torsional_Energy-OPLS-2005>
239.336837768555

> <r_mmod_Improper_Torsional_Energy-OPLS-2005>
3.21314406394958

> <r_mmod_Van_der_Waal_Energy-OPLS-2005>
165.320220947266

> <r_mmod_Electrostatic_Energy-OPLS-2005>
-416.519348144531

> <r_mmod_Solvation_Energy-OPLS-2005>
-226.666320800781

> <b_mmod_Minimization_Converged-OPLS-2005>
0

> <r_mmod_RMS_Derivative-OPLS-2005>
3.98670887947083

$$$$
77
                    3D
 Structure written by MMmdl.
165173  0  0  1  0            999 V2000
  -30.6986  -14.4813   20.5456 C   0  0  0  0  0  0
  -30.4185  -12.3029   19.4317 C   0  0  0  0  0  0
  -29.4957  -12.5041   18.2114 C   0  0  0  0  0  0
  -28.0152  -12.3710   18.6197 C   0  0  0  0  0  0
  -27.6602  -13.2113   19.8763 C   0  0  2  0  0  0
  -28.7008  -12.9987   20.9982 C   0  0  0  0  0  0
  -25.2569  -13.8161   20.5685 C   0  0  0  0  0  0
  -24.1821  -13.0432   20.9161 C   0  0  0  0  0  0
  -24.6385  -11.6904   20.8718 C   0  0  0  0  0  0
  -23.9052  -10.4291   21.0391 C   0  0  0  0  0  0
  -24.3606   -9.4213   21.9170 C   0  0  0  0  0  0
  -23.6286   -8.2247   22.0747 C   0  0  0  0  0  0
  -22.4271   -8.0277   21.3538 C   0  0  0  0  0  0
  -21.9900   -9.0248   20.4641 C   0  0  0  0  0  0
  -22.7219  -10.2133   20.3048 C   0  0  0  0  0  0
  -21.6852   -6.0732   22.5273 C   0  0  0  0  0  0
  -21.4016   -6.5633   23.8207 C   0  0  0  0  0  0
  -21.3664   -5.6791   24.9169 C   0  0  0  0  0  0
  -21.6047   -4.3055   24.7222 C   0  0  0  0  0  0
  -21.8819   -3.8145   23.4343 C   0  0  0  0  0  0
  -21.9193   -4.6958   22.3401 C   0  0  0  0  0  0
  -22.7846  -13.5227   21.1838 C   0  0  0  0  0  0
  -22.1661   -4.2143   21.0978 F   0  0  0  0  0  0
  -21.5633   -3.4540   25.7738 F   0  0  0  0  0  0
  -30.0346  -13.2961   20.4479 N   0  0  0  0  0  0
  -26.3017  -12.9345   20.3384 N   0  0  0  0  0  0
  -25.9317  -11.6497   20.5765 N   0  0  0  0  0  0
  -22.0499  -12.8221   22.0408 N   0  0  0  0  0  0
  -25.4292  -15.1875   20.4120 N   0  0  0  0  0  0
  -31.8357  -14.6233   20.0979 O   0  0  0  0  0  0
  -21.6638   -6.8871   21.4235 O   0  0  0  0  0  0
  -22.3518  -14.5530   20.6689 O   0  0  0  0  0  0
  -24.6148  -31.8676   23.2105 C   0  0  0  0  0  0
  -25.9043  -32.4820   23.8393 C   0  0  1  0  0  0
  -27.2375  -27.4367   20.0766 C   0  0  0  0  0  0
  -25.5897  -33.8618   24.2322 N   0  0  0  0  0  0
  -23.4020  -30.4924   21.5509 C   0  0  2  0  0  0
  -24.8471  -28.9589   20.1130 C   0  0  0  0  0  0
  -22.7408  -29.4659   22.4986 C   0  0  0  0  0  0
  -18.0271  -28.1376   22.8494 C   0  0  0  0  0  0
  -24.1487  -36.7317   23.2637 C   0  0  0  0  0  0
  -25.9318  -30.8311   21.3652 C   0  0  0  0  0  0
  -26.0069  -29.4660   20.7104 C   0  0  0  0  0  0
  -27.2001  -28.7077   20.6979 C   0  0  0  0  0  0
  -26.0493  -26.9345   19.4972 C   0  0  0  0  0  0
  -24.8621  -27.6902   19.5088 C   0  0  0  0  0  0
  -23.6101  -29.8268   20.1643 C   0  0  0  0  0  0
  -25.4108  -36.3110   24.0335 C   0  0  1  0  0  0
  -20.5861  -28.3662   23.1319 C   0  0  2  0  0  0
  -20.6760  -26.9397   22.5423 C   0  0  0  0  0  0
  -19.5742  -26.6384   21.5215 C   0  0  0  0  0  0
  -18.1919  -26.7923   22.1625 C   0  0  0  0  0  0
  -19.1519  -28.8835   23.2905 C   0  0  0  0  0  0
  -18.9449  -30.1442   23.8915 C   0  0  0  0  0  0
  -17.6451  -30.6585   24.0567 C   0  0  0  0  0  0
  -25.9034  -34.9474   23.5126 C   0  0  0  0  0  0
  -16.5342  -29.9089   23.6324 C   0  0  0  0  0  0
  -16.7259  -28.6505   23.0346 C   0  0  0  0  0  0
  -26.4474  -31.6602   25.0722 C   0  0  0  0  0  0
  -25.3747  -31.3715   26.1478 C   0  0  0  0  0  0
  -27.0299  -30.3040   24.6105 C   0  0  0  0  0  0
  -27.6055  -32.4320   25.7475 C   0  0  0  0  0  0
  -27.5582  -37.1809   24.8463 C   0  0  0  0  0  0
  -21.4135  -29.3030   22.3725 N   0  0  0  0  0  0
  -26.4295  -37.3793   23.9407 N   0  0  0  0  0  0
  -24.6677  -31.0778   22.1007 N   0  0  0  0  0  0
  -23.4180  -28.8199   23.3028 O   0  0  0  0  0  0
  -28.4121  -26.7103   20.1099 O   0  0  0  0  0  0
  -26.5600  -34.8926   22.4689 O   0  0  0  0  0  0
  -23.5340  -32.1428   23.7503 O   0  0  0  0  0  0
  -28.2467  -18.7440   20.8925 C   0  0  0  0  0  0
  -30.1562  -18.9126   19.3969 C   0  0  0  0  0  0
  -28.9868  -19.5013   19.9612 C   0  0  0  0  0  0
  -29.7905  -16.8410   20.7060 C   0  0  0  0  0  0
  -30.5814  -17.6134   19.8041 C   0  0  0  0  0  0
  -28.6342  -17.4377   21.2480 C   0  0  0  0  0  0
  -30.9449  -19.6294   18.3041 C   0  0  0  0  0  0
  -27.5574  -20.6468   18.4315 C   0  0  0  0  0  0
  -32.9032  -17.5415   19.9970 C   0  0  0  0  0  0
  -28.5133  -23.3018   19.6285 C   0  0  0  0  0  0
  -29.4360  -24.5368   19.4743 C   0  0  0  0  0  0
  -29.3029  -21.9624   19.6797 C   0  0  0  0  0  0
  -28.7476  -25.8475   19.0145 C   0  0  0  0  0  0
  -30.0082  -15.4817   21.1264 N   0  0  0  0  0  0
  -28.4588  -20.7601   19.5775 N   0  0  0  0  0  0
  -31.7476  -17.1234   19.2806 O   0  0  0  0  0  0
  -27.8692  -16.7252   22.1120 F   0  0  0  0  0  0
  -31.4649  -12.3873   19.1336 H   0  0  0  0  0  0
  -30.3088  -11.2948   19.8351 H   0  0  0  0  0  0
  -29.7359  -11.7760   17.4350 H   0  0  0  0  0  0
  -29.6698  -13.4883   17.7733 H   0  0  0  0  0  0
  -27.8213  -11.3157   18.8139 H   0  0  0  0  0  0
  -27.3671  -12.6488   17.7876 H   0  0  0  0  0  0
  -27.7017  -14.2597   19.5797 H   0  0  0  0  0  0
  -28.6731  -11.9653   21.3473 H   0  0  0  0  0  0
  -28.4598  -13.6055   21.8716 H   0  0  0  0  0  0
  -25.2749   -9.5699   22.4740 H   0  0  0  0  0  0
  -24.0000   -7.4645   22.7470 H   0  0  0  0  0  0
  -21.0832   -8.8757   19.8948 H   0  0  0  0  0  0
  -22.3662  -10.9670   19.6165 H   0  0  0  0  0  0
  -21.2004   -7.6144   23.9704 H   0  0  0  0  0  0
  -21.1488   -6.0523   25.9072 H   0  0  0  0  0  0
  -22.0595   -2.7607   23.2841 H   0  0  0  0  0  0
  -22.4121  -11.9884   22.4793 H   0  0  0  0  0  0
  -21.1117  -13.1244   22.2621 H   0  0  0  0  0  0
  -24.6749  -15.8481   20.5596 H   0  0  0  0  0  0
  -26.3085  -15.6348   20.1906 H   0  0  0  0  0  0
  -26.7111  -32.5527   23.1152 H   0  0  0  0  0  0
  -25.0049  -33.9778   25.0467 H   0  0  0  0  0  0
  -22.6909  -31.3095   21.4131 H   0  0  0  0  0  0
  -23.3741  -35.9658   23.3312 H   0  0  0  0  0  0
  -24.3580  -36.8919   22.2049 H   0  0  0  0  0  0
  -23.7248  -37.6529   23.6644 H   0  0  0  0  0  0
  -26.0469  -31.5985   20.5985 H   0  0  0  0  0  0
  -26.8188  -30.8813   21.9849 H   0  0  0  0  0  0
  -28.0957  -29.0964   21.1624 H   0  0  0  0  0  0
  -26.0091  -25.9488   19.0589 H   0  0  0  0  0  0
  -23.9649  -27.2855   19.0609 H   0  0  0  0  0  0
  -23.7204  -30.6035   19.4067 H   0  0  0  0  0  0
  -22.7334  -29.2487   19.8665 H   0  0  0  0  0  0
  -25.1286  -36.1974   25.0829 H   0  0  0  0  0  0
  -20.9954  -28.3228   24.1440 H   0  0  0  0  0  0
  -20.5660  -26.2269   23.3610 H   0  0  0  0  0  0
  -21.6632  -26.7440   22.1216 H   0  0  0  0  0  0
  -19.6905  -25.6299   21.1234 H   0  0  0  0  0  0
  -19.6688  -27.3205   20.6754 H   0  0  0  0  0  0
  -17.4192  -26.6673   21.4023 H   0  0  0  0  0  0
  -18.0321  -26.0060   22.9017 H   0  0  0  0  0  0
  -19.7925  -30.7249   24.2295 H   0  0  0  0  0  0
  -17.5009  -31.6268   24.5165 H   0  0  0  0  0  0
  -15.5344  -30.2999   23.7637 H   0  0  0  0  0  0
  -15.8658  -28.0833   22.7049 H   0  0  0  0  0  0
  -24.5911  -30.7069   25.7823 H   0  0  0  0  0  0
  -24.8952  -32.2876   26.4937 H   0  0  0  0  0  0
  -25.8107  -30.8878   27.0229 H   0  0  0  0  0  0
  -26.2839  -29.6801   24.1168 H   0  0  0  0  0  0
  -27.4071  -29.7278   25.4563 H   0  0  0  0  0  0
  -27.8675  -30.4349   23.9250 H   0  0  0  0  0  0
  -27.2678  -33.3608   26.2085 H   0  0  0  0  0  0
  -28.3843  -32.6902   25.0287 H   0  0  0  0  0  0
  -28.0749  -31.8428   26.5361 H   0  0  0  0  0  0
  -28.2610  -38.0096   24.7500 H   0  0  0  0  0  0
  -28.1065  -36.2627   24.6299 H   0  0  0  0  0  0
  -27.2299  -37.1474   25.8866 H   0  0  0  0  0  0
  -20.9292  -29.8755   21.6952 H   0  0  0  0  0  0
  -26.0185  -38.2872   24.1408 H   0  0  0  0  0  0
  -27.3432  -19.1524   21.3213 H   0  0  0  0  0  0
  -30.2790  -20.1382   17.6085 H   0  0  0  0  0  0
  -31.5355  -18.9405   17.7011 H   0  0  0  0  0  0
  -31.6256  -20.3594   18.7412 H   0  0  0  0  0  0
  -27.3293  -19.6096   18.1771 H   0  0  0  0  0  0
  -27.9903  -21.1140   17.5456 H   0  0  0  0  0  0
  -26.6118  -21.1466   18.6449 H   0  0  0  0  0  0
  -33.7921  -17.0934   19.5530 H   0  0  0  0  0  0
  -32.8547  -17.2256   21.0402 H   0  0  0  0  0  0
  -33.0281  -18.6243   19.9694 H   0  0  0  0  0  0
  -27.8339  -23.2892   18.7763 H   0  0  0  0  0  0
  -27.8863  -23.4109   20.5144 H   0  0  0  0  0  0
  -30.1774  -24.2927   18.7121 H   0  0  0  0  0  0
  -30.0062  -24.7074   20.3881 H   0  0  0  0  0  0
  -29.8908  -21.9170   20.5983 H   0  0  0  0  0  0
  -30.0168  -21.9707   18.8585 H   0  0  0  0  0  0
  -27.9395  -25.6289   18.3195 H   0  0  0  0  0  0
  -29.4676  -26.4125   18.4213 H   0  0  0  0  0  0
  -29.2384  -15.1420   21.6838 H   0  0  0  0  0  0
  1 25  1  0  0  0
  1 30  2  0  0  0
  1 84  1  0  0  0
  2  3  1  0  0  0
  2 25  1  0  0  0
  2 88  1  0  0  0
  2 89  1  0  0  0
  3  4  1  0  0  0
  3 90  1  0  0  0
  3 91  1  0  0  0
  4  5  1  0  0  0
  4 92  1  0  0  0
  4 93  1  0  0  0
  5  6  1  0  0  0
  5 26  1  0  0  0
  5 94  1  0  0  0
  6 25  1  0  0  0
  6 95  1  0  0  0
  6 96  1  0  0  0
  7  8  2  0  0  0
  7 26  1  0  0  0
  7 29  1  0  0  0
  8  9  1  0  0  0
  8 22  1  0  0  0
  9 10  1  0  0  0
  9 27  2  0  0  0
 10 11  2  0  0  0
 10 15  1  0  0  0
 11 12  1  0  0  0
 11 97  1  0  0  0
 12 13  2  0  0  0
 12 98  1  0  0  0
 13 14  1  0  0  0
 13 31  1  0  0  0
 14 15  2  0  0  0
 14 99  1  0  0  0
 15100  1  0  0  0
 16 17  2  0  0  0
 16 21  1  0  0  0
 16 31  1  0  0  0
 17 18  1  0  0  0
 17101  1  0  0  0
 18 19  2  0  0  0
 18102  1  0  0  0
 19 20  1  0  0  0
 19 24  1  0  0  0
 20 21  2  0  0  0
 20103  1  0  0  0
 21 23  1  0  0  0
 22 28  1  0  0  0
 22 32  2  0  0  0
 26 27  1  0  0  0
 28104  1  0  0  0
 28105  1  0  0  0
 29106  1  0  0  0
 29107  1  0  0  0
 33 34  1  0  0  0
 33 66  1  0  0  0
 33 70  2  0  0  0
 34 36  1  0  0  0
 34 59  1  0  0  0
 34108  1  0  0  0
 35 44  2  0  0  0
 35 45  1  0  0  0
 35 68  1  0  0  0
 36 56  1  0  0  0
 36109  1  0  0  0
 37 39  1  0  0  0
 37 47  1  0  0  0
 37 66  1  0  0  0
 37110  1  0  0  0
 38 43  2  0  0  0
 38 46  1  0  0  0
 38 47  1  0  0  0
 39 64  1  0  0  0
 39 67  2  0  0  0
 40 52  1  0  0  0
 40 53  2  0  0  0
 40 58  1  0  0  0
 41111  1  0  0  0
 41112  1  0  0  0
 41113  1  0  0  0
 41 48  1  0  0  0
 42 43  1  0  0  0
 42 66  1  0  0  0
 42114  1  0  0  0
 42115  1  0  0  0
 43 44  1  0  0  0
 44116  1  0  0  0
 45 46  2  0  0  0
 45117  1  0  0  0
 46118  1  0  0  0
 47119  1  0  0  0
 47120  1  0  0  0
 48 56  1  0  0  0
 48 65  1  0  0  0
 48121  1  0  0  0
 49 50  1  0  0  0
 49 53  1  0  0  0
 49 64  1  0  0  0
 49122  1  0  0  0
 50 51  1  0  0  0
 50123  1  0  0  0
 50124  1  0  0  0
 51 52  1  0  0  0
 51125  1  0  0  0
 51126  1  0  0  0
 52127  1  0  0  0
 52128  1  0  0  0
 53 54  1  0  0  0
 54 55  2  0  0  0
 54129  1  0  0  0
 55 57  1  0  0  0
 55130  1  0  0  0
 56 69  2  0  0  0
 57 58  2  0  0  0
 57131  1  0  0  0
 58132  1  0  0  0
 59 60  1  0  0  0
 59 61  1  0  0  0
 59 62  1  0  0  0
 60133  1  0  0  0
 60134  1  0  0  0
 60135  1  0  0  0
 61136  1  0  0  0
 61137  1  0  0  0
 61138  1  0  0  0
 62139  1  0  0  0
 62140  1  0  0  0
 62141  1  0  0  0
 63 65  1  0  0  0
 63142  1  0  0  0
 63143  1  0  0  0
 63144  1  0  0  0
 64145  1  0  0  0
 65146  1  0  0  0
 68 83  1  0  0  0
 71 73  2  0  0  0
 71 76  1  0  0  0
 71147  1  0  0  0
 72 73  1  0  0  0
 72 75  2  0  0  0
 72 77  1  0  0  0
 73 85  1  0  0  0
 74 75  1  0  0  0
 74 76  2  0  0  0
 74 84  1  0  0  0
 75 86  1  0  0  0
 76 87  1  0  0  0
 77148  1  0  0  0
 77149  1  0  0  0
 77150  1  0  0  0
 78 85  1  0  0  0
 78151  1  0  0  0
 78152  1  0  0  0
 78153  1  0  0  0
 79 86  1  0  0  0
 79154  1  0  0  0
 79155  1  0  0  0
 79156  1  0  0  0
 80 81  1  0  0  0
 80 82  1  0  0  0
 80157  1  0  0  0
 80158  1  0  0  0
 81 83  1  0  0  0
 81159  1  0  0  0
 81160  1  0  0  0
 82 85  1  0  0  0
 82161  1  0  0  0
 82162  1  0  0  0
 83163  1  0  0  0
 83164  1  0  0  0
 84165  1  0  0  0
M  ISO  4   1 100  68 101  83 101  84 100
M  END
> <chiral flag>
0

> <version>
0

> <s_m_source_file>
/data/baiqing/PycharmProjects/Reinvent-master-3.2/result/LINK_invent/BTK/process_docking_weight1_custom_sum_contain_oxygen_bond_distance_aromatic_linkinvent_7_9_3/rearranged_h_0015.sdf

> <i_m_source_file_index>
77

> <r_mmod_Potential_Energy-OPLS-2005>
-33.6014251708984

> <r_mmod_Stretch_Energy-OPLS-2005>
42.417366027832

> <r_mmod_Bend_Energy-OPLS-2005>
126.731552124023

> <r_mmod_Torsional_Energy-OPLS-2005>
288.887512207031

> <r_mmod_Improper_Torsional_Energy-OPLS-2005>
7.36179876327515

> <r_mmod_Van_der_Waal_Energy-OPLS-2005>
159.653289794922

> <r_mmod_Electrostatic_Energy-OPLS-2005>
-458.694610595703

> <r_mmod_Solvation_Energy-OPLS-2005>
-214.056610107422

> <b_mmod_Minimization_Converged-OPLS-2005>
0

> <r_mmod_RMS_Derivative-OPLS-2005>
0.820675313472748

$$$$
78
                    3D
 Structure written by MMmdl.
162170  0  0  1  0            999 V2000
  -30.6422  -14.7140   20.4422 C   0  0  0  0  0  0
  -30.4203  -12.4302   19.4746 C   0  0  0  0  0  0
  -29.5058  -12.4961   18.2337 C   0  0  0  0  0  0
  -28.0313  -12.3302   18.6464 C   0  0  0  0  0  0
  -27.6389  -13.2341   19.8457 C   0  0  2  0  0  0
  -28.6822  -13.1757   20.9824 C   0  0  0  0  0  0
  -25.2496  -13.8208   20.5689 C   0  0  0  0  0  0
  -24.1796  -13.0451   20.9220 C   0  0  0  0  0  0
  -24.6390  -11.6929   20.8763 C   0  0  0  0  0  0
  -23.9066  -10.4301   21.0418 C   0  0  0  0  0  0
  -24.3621   -9.4211   21.9187 C   0  0  0  0  0  0
  -23.6297   -8.2245   22.0756 C   0  0  0  0  0  0
  -22.4278   -8.0285   21.3547 C   0  0  0  0  0  0
  -21.9914   -9.0256   20.4645 C   0  0  0  0  0  0
  -22.7244  -10.2136   20.3058 C   0  0  0  0  0  0
  -21.6851   -6.0736   22.5279 C   0  0  0  0  0  0
  -21.4012   -6.5638   23.8212 C   0  0  0  0  0  0
  -21.3663   -5.6790   24.9177 C   0  0  0  0  0  0
  -21.6044   -4.3051   24.7222 C   0  0  0  0  0  0
  -21.8821   -3.8146   23.4341 C   0  0  0  0  0  0
  -21.9190   -4.6965   22.3400 C   0  0  0  0  0  0
  -22.7814  -13.5227   21.1865 C   0  0  0  0  0  0
  -22.1662   -4.2153   21.0975 F   0  0  0  0  0  0
  -21.5629   -3.4532   25.7733 F   0  0  0  0  0  0
  -29.9868  -13.5055   20.3974 N   0  0  0  0  0  0
  -26.2920  -12.9418   20.3259 N   0  0  0  0  0  0
  -25.9315  -11.6559   20.5750 N   0  0  0  0  0  0
  -22.0448  -12.8229   22.0421 N   0  0  0  0  0  0
  -25.4164  -15.1930   20.4080 N   0  0  0  0  0  0
  -31.8427  -14.7387   20.1672 O   0  0  0  0  0  0
  -21.6643   -6.8885   21.4241 O   0  0  0  0  0  0
  -22.3504  -14.5527   20.6699 O   0  0  0  0  0  0
  -24.6292  -31.8552   23.1977 C   0  0  0  0  0  0
  -25.9129  -32.4750   23.8320 C   0  0  1  0  0  0
  -27.2235  -27.2785   20.1169 C   0  0  0  0  0  0
  -25.5940  -33.8554   24.2247 N   0  0  0  0  0  0
  -23.4244  -30.4771   21.5413 C   0  0  2  0  0  0
  -24.8697  -28.9223   20.1103 C   0  0  0  0  0  0
  -22.7486  -29.4599   22.4921 C   0  0  0  0  0  0
  -18.0288  -28.1383   22.8491 C   0  0  0  0  0  0
  -24.1487  -36.7279   23.2639 C   0  0  0  0  0  0
  -25.9682  -30.7724   21.3741 C   0  0  0  0  0  0
  -26.0387  -29.3962   20.7158 C   0  0  0  0  0  0
  -27.2147  -28.5851   20.7088 C   0  0  0  0  0  0
  -26.0248  -26.8581   19.4980 C   0  0  0  0  0  0
  -24.8664  -27.6606   19.4941 C   0  0  0  0  0  0
  -23.6397  -29.8072   20.1579 C   0  0  0  0  0  0
  -25.4117  -36.3063   24.0320 C   0  0  1  0  0  0
  -20.5888  -28.3686   23.1278 C   0  0  2  0  0  0
  -20.6773  -26.9402   22.5407 C   0  0  0  0  0  0
  -19.5742  -26.6378   21.5215 C   0  0  0  0  0  0
  -18.1927  -26.7929   22.1628 C   0  0  0  0  0  0
  -19.1542  -28.8855   23.2876 C   0  0  0  0  0  0
  -18.9462  -30.1461   23.8880 C   0  0  0  0  0  0
  -17.6461  -30.6582   24.0565 C   0  0  0  0  0  0
  -25.9057  -34.9436   23.5084 C   0  0  0  0  0  0
  -16.5352  -29.9075   23.6336 C   0  0  0  0  0  0
  -16.7275  -28.6496   23.0353 C   0  0  0  0  0  0
  -26.4505  -31.6582   25.0711 C   0  0  0  0  0  0
  -25.3739  -31.3744   26.1441 C   0  0  0  0  0  0
  -27.0358  -30.2999   24.6199 C   0  0  0  0  0  0
  -27.6049  -32.4338   25.7486 C   0  0  0  0  0  0
  -27.5576  -37.1793   24.8462 C   0  0  0  0  0  0
  -21.4195  -29.3037   22.3673 N   0  0  0  0  0  0
  -26.4289  -37.3762   23.9408 N   0  0  0  0  0  0
  -24.6932  -31.0533   22.0941 N   0  0  0  0  0  0
  -23.4201  -28.8137   23.3007 O   0  0  0  0  0  0
  -28.3586  -26.4449   20.1847 O   0  0  0  0  0  0
  -26.5615  -34.8912   22.4643 O   0  0  0  0  0  0
  -23.5449  -32.1365   23.7288 O   0  0  0  0  0  0
  -31.4941  -17.6586   19.7965 C   0  0  0  0  0  0
  -31.9005  -18.9886   19.5811 C   0  0  0  0  0  0
  -29.3626  -18.4546   20.6454 C   0  0  0  0  0  0
  -29.7498  -19.8524   20.4183 C   0  0  0  0  0  0
  -30.2405  -17.3198   20.3590 C   0  0  0  0  0  0
  -31.0550  -20.0716   19.9043 C   0  0  0  0  0  0
  -33.2879  -19.2443   19.0106 C   0  0  0  0  0  0
  -27.9895  -18.1763   21.2411 C   0  0  0  0  0  0
  -26.9051  -23.6134   21.1269 C   0  0  0  0  0  0
  -28.8804  -21.1311   20.8463 C   0  0  0  0  0  0
  -28.4363  -25.0528   19.6357 C   0  0  0  0  0  0
  -28.3405  -23.7451   20.5835 C   0  0  2  0  0  0
  -29.8993  -15.8828   20.5992 N   0  0  0  0  0  0
  -28.8267  -22.4039   19.9832 N   0  3  0  0  0  0
  -31.6758  -21.6768   19.6871 Cl  0  0  0  0  0  0
  -31.4651  -12.5277   19.1743 H   0  0  0  0  0  0
  -30.3415  -11.4565   19.9603 H   0  0  0  0  0  0
  -29.7843  -11.7211   17.5178 H   0  0  0  0  0  0
  -29.6418  -13.4497   17.7214 H   0  0  0  0  0  0
  -27.8847  -11.2829   18.9121 H   0  0  0  0  0  0
  -27.3746  -12.5200   17.7965 H   0  0  0  0  0  0
  -27.6321  -14.2544   19.4613 H   0  0  0  0  0  0
  -28.7072  -12.1841   21.4363 H   0  0  0  0  0  0
  -28.4228  -13.8732   21.7808 H   0  0  0  0  0  0
  -25.2764   -9.5685   22.4761 H   0  0  0  0  0  0
  -24.0003   -7.4635   22.7474 H   0  0  0  0  0  0
  -21.0845   -8.8774   19.8949 H   0  0  0  0  0  0
  -22.3702  -10.9674   19.6167 H   0  0  0  0  0  0
  -21.2004   -7.6147   23.9719 H   0  0  0  0  0  0
  -21.1484   -6.0518   25.9081 H   0  0  0  0  0  0
  -22.0596   -2.7607   23.2836 H   0  0  0  0  0  0
  -22.4055  -11.9898   22.4831 H   0  0  0  0  0  0
  -21.1059  -13.1253   22.2598 H   0  0  0  0  0  0
  -24.6379  -15.8364   20.5020 H   0  0  0  0  0  0
  -26.2424  -15.6258   20.0170 H   0  0  0  0  0  0
  -26.7194  -32.5394   23.1062 H   0  0  0  0  0  0
  -25.0144  -33.9700   25.0433 H   0  0  0  0  0  0
  -22.7205  -31.2990   21.3947 H   0  0  0  0  0  0
  -23.3752  -35.9607   23.3292 H   0  0  0  0  0  0
  -24.3589  -36.8913   22.2057 H   0  0  0  0  0  0
  -23.7237  -37.6475   23.6672 H   0  0  0  0  0  0
  -26.1076  -31.5340   20.6053 H   0  0  0  0  0  0
  -26.8470  -30.8192   22.0058 H   0  0  0  0  0  0
  -28.1118  -28.9465   21.1909 H   0  0  0  0  0  0
  -25.9382  -25.8893   19.0330 H   0  0  0  0  0  0
  -23.9659  -27.2891   19.0247 H   0  0  0  0  0  0
  -23.7616  -30.5814   19.3996 H   0  0  0  0  0  0
  -22.7587  -29.2377   19.8559 H   0  0  0  0  0  0
  -25.1300  -36.1903   25.0811 H   0  0  0  0  0  0
  -20.9986  -28.3249   24.1395 H   0  0  0  0  0  0
  -20.5673  -26.2289   23.3607 H   0  0  0  0  0  0
  -21.6641  -26.7421   22.1197 H   0  0  0  0  0  0
  -19.6892  -25.6286   21.1243 H   0  0  0  0  0  0
  -19.6679  -27.3190   20.6746 H   0  0  0  0  0  0
  -17.4197  -26.6693   21.4024 H   0  0  0  0  0  0
  -18.0306  -26.0068   22.9016 H   0  0  0  0  0  0
  -19.7939  -30.7293   24.2223 H   0  0  0  0  0  0
  -17.5011  -31.6258   24.5172 H   0  0  0  0  0  0
  -15.5349  -30.2970   23.7668 H   0  0  0  0  0  0
  -15.8678  -28.0814   22.7061 H   0  0  0  0  0  0
  -24.5901  -30.7099   25.7786 H   0  0  0  0  0  0
  -24.8953  -32.2926   26.4852 H   0  0  0  0  0  0
  -25.8069  -30.8935   27.0222 H   0  0  0  0  0  0
  -26.2942  -29.6740   24.1224 H   0  0  0  0  0  0
  -27.4046  -29.7263   25.4713 H   0  0  0  0  0  0
  -27.8812  -30.4274   23.9435 H   0  0  0  0  0  0
  -27.2637  -33.3644   26.2030 H   0  0  0  0  0  0
  -28.3876  -32.6895   25.0334 H   0  0  0  0  0  0
  -28.0698  -31.8497   26.5436 H   0  0  0  0  0  0
  -28.2579  -38.0102   24.7522 H   0  0  0  0  0  0
  -28.1087  -36.2636   24.6270 H   0  0  0  0  0  0
  -27.2301  -37.1413   25.8864 H   0  0  0  0  0  0
  -20.9363  -29.8781   21.6906 H   0  0  0  0  0  0
  -26.0159  -38.2827   24.1426 H   0  0  0  0  0  0
  -32.2038  -16.9009   19.5129 H   0  0  0  0  0  0
  -33.8195  -18.3168   18.7972 H   0  0  0  0  0  0
  -33.8935  -19.8154   19.7153 H   0  0  0  0  0  0
  -33.2234  -19.8089   18.0801 H   0  0  0  0  0  0
  -27.9130  -18.6094   22.2388 H   0  0  0  0  0  0
  -27.7717  -17.1136   21.3337 H   0  0  0  0  0  0
  -27.2076  -18.6085   20.6161 H   0  0  0  0  0  0
  -26.5678  -24.5519   21.5683 H   0  0  0  0  0  0
  -26.8321  -22.8524   21.9037 H   0  0  0  0  0  0
  -26.2006  -23.3549   20.3355 H   0  0  0  0  0  0
  -29.2600  -21.4250   21.8255 H   0  0  0  0  0  0
  -27.8510  -20.8222   21.0190 H   0  0  0  0  0  0
  -27.7834  -24.9290   18.7736 H   0  0  0  0  0  0
  -29.4314  -25.0226   19.1919 H   0  0  0  0  0  0
  -28.9971  -23.9422   21.4321 H   0  0  0  0  0  0
  -28.9399  -15.7117   20.8558 H   0  0  0  0  0  0
  -28.2892  -22.1869   19.1579 H   0  0  0  0  0  0
  -29.7806  -22.5432   19.6758 H   0  0  0  0  0  0
  1 25  1  0  0  0
  1 30  2  0  0  0
  1 83  1  0  0  0
  2  3  1  0  0  0
  2 25  1  0  0  0
  2 86  1  0  0  0
  2 87  1  0  0  0
  3  4  1  0  0  0
  3 88  1  0  0  0
  3 89  1  0  0  0
  4  5  1  0  0  0
  4 90  1  0  0  0
  4 91  1  0  0  0
  5  6  1  0  0  0
  5 26  1  0  0  0
  5 92  1  0  0  0
  6 25  1  0  0  0
  6 93  1  0  0  0
  6 94  1  0  0  0
  7  8  2  0  0  0
  7 26  1  0  0  0
  7 29  1  0  0  0
  8  9  1  0  0  0
  8 22  1  0  0  0
  9 10  1  0  0  0
  9 27  2  0  0  0
 10 11  2  0  0  0
 10 15  1  0  0  0
 11 12  1  0  0  0
 11 95  1  0  0  0
 12 13  2  0  0  0
 12 96  1  0  0  0
 13 14  1  0  0  0
 13 31  1  0  0  0
 14 15  2  0  0  0
 14 97  1  0  0  0
 15 98  1  0  0  0
 16 17  2  0  0  0
 16 21  1  0  0  0
 16 31  1  0  0  0
 17 18  1  0  0  0
 17 99  1  0  0  0
 18 19  2  0  0  0
 18100  1  0  0  0
 19 20  1  0  0  0
 19 24  1  0  0  0
 20 21  2  0  0  0
 20101  1  0  0  0
 21 23  1  0  0  0
 22 28  1  0  0  0
 22 32  2  0  0  0
 26 27  1  0  0  0
 28102  1  0  0  0
 28103  1  0  0  0
 29104  1  0  0  0
 29105  1  0  0  0
 33 34  1  0  0  0
 33 66  1  0  0  0
 33 70  2  0  0  0
 34 36  1  0  0  0
 34 59  1  0  0  0
 34106  1  0  0  0
 35 44  2  0  0  0
 35 45  1  0  0  0
 35 68  1  0  0  0
 36 56  1  0  0  0
 36107  1  0  0  0
 37 39  1  0  0  0
 37 47  1  0  0  0
 37 66  1  0  0  0
 37108  1  0  0  0
 38 43  2  0  0  0
 38 46  1  0  0  0
 38 47  1  0  0  0
 39 64  1  0  0  0
 39 67  2  0  0  0
 40 52  1  0  0  0
 40 53  2  0  0  0
 40 58  1  0  0  0
 41109  1  0  0  0
 41110  1  0  0  0
 41111  1  0  0  0
 41 48  1  0  0  0
 42 43  1  0  0  0
 42 66  1  0  0  0
 42112  1  0  0  0
 42113  1  0  0  0
 43 44  1  0  0  0
 44114  1  0  0  0
 45 46  2  0  0  0
 45115  1  0  0  0
 46116  1  0  0  0
 47117  1  0  0  0
 47118  1  0  0  0
 48 56  1  0  0  0
 48 65  1  0  0  0
 48119  1  0  0  0
 49 50  1  0  0  0
 49 53  1  0  0  0
 49 64  1  0  0  0
 49120  1  0  0  0
 50 51  1  0  0  0
 50121  1  0  0  0
 50122  1  0  0  0
 51 52  1  0  0  0
 51123  1  0  0  0
 51124  1  0  0  0
 52125  1  0  0  0
 52126  1  0  0  0
 53 54  1  0  0  0
 54 55  2  0  0  0
 54127  1  0  0  0
 55 57  1  0  0  0
 55128  1  0  0  0
 56 69  2  0  0  0
 57 58  2  0  0  0
 57129  1  0  0  0
 58130  1  0  0  0
 59 60  1  0  0  0
 59 61  1  0  0  0
 59 62  1  0  0  0
 60131  1  0  0  0
 60132  1  0  0  0
 60133  1  0  0  0
 61134  1  0  0  0
 61135  1  0  0  0
 61136  1  0  0  0
 62137  1  0  0  0
 62138  1  0  0  0
 62139  1  0  0  0
 63 65  1  0  0  0
 63140  1  0  0  0
 63141  1  0  0  0
 63142  1  0  0  0
 64143  1  0  0  0
 65144  1  0  0  0
 68 81  1  0  0  0
 71 72  2  0  0  0
 71 75  1  0  0  0
 71145  1  0  0  0
 72 76  1  0  0  0
 72 77  1  0  0  0
 73 74  1  0  0  0
 73 75  2  0  0  0
 73 78  1  0  0  0
 74 76  2  0  0  0
 74 80  1  0  0  0
 75 83  1  0  0  0
 76 85  1  0  0  0
 77146  1  0  0  0
 77147  1  0  0  0
 77148  1  0  0  0
 78149  1  0  0  0
 78150  1  0  0  0
 78151  1  0  0  0
 79152  1  0  0  0
 79153  1  0  0  0
 79154  1  0  0  0
 79 82  1  0  0  0
 80 84  1  0  0  0
 80155  1  0  0  0
 80156  1  0  0  0
 81 82  1  0  0  0
 81157  1  0  0  0
 81158  1  0  0  0
 82 84  1  0  0  0
 82159  1  0  0  0
 83160  1  0  0  0
 84161  1  0  0  0
 84162  1  0  0  0
M  CHG  1  84   1
M  ISO  4   1 100  68 101  81 101  83 100
M  END
> <chiral flag>
0

> <version>
0

> <s_m_source_file>
/data/baiqing/PycharmProjects/Reinvent-master-3.2/result/LINK_invent/BTK/process_docking_weight1_custom_sum_contain_oxygen_bond_distance_aromatic_linkinvent_7_9_3/rearranged_h_0015.sdf

> <i_m_source_file_index>
78

> <r_mmod_Potential_Energy-OPLS-2005>
-5.85831546783447

> <r_mmod_Stretch_Energy-OPLS-2005>
126.91820526123

> <r_mmod_Bend_Energy-OPLS-2005>
173.234741210938

> <r_mmod_Torsional_Energy-OPLS-2005>
208.102020263672

> <r_mmod_Improper_Torsional_Energy-OPLS-2005>
5.12510442733765

> <r_mmod_Van_der_Waal_Energy-OPLS-2005>
152.272888183594

> <r_mmod_Electrostatic_Energy-OPLS-2005>
-303.519378662109

> <r_mmod_Solvation_Energy-OPLS-2005>
-440.838989257812

> <b_mmod_Minimization_Converged-OPLS-2005>
0

> <r_mmod_RMS_Derivative-OPLS-2005>
1.03329467773438

$$$$
79
                    3D
 Structure written by MMmdl.
159167  0  0  1  0            999 V2000
  -29.5033  -13.3050   21.4676 C   0  0  0  0  0  0
  -30.5824  -12.5096   19.2575 C   0  0  0  0  0  0
  -29.7701  -12.7918   17.9139 C   0  0  0  0  0  0
  -28.1989  -12.8971   17.9836 C   0  0  0  0  0  0
  -27.8682  -13.3336   19.3815 C   0  0  2  0  0  0
  -28.5136  -12.0582   20.0309 C   0  0  0  0  0  0
  -25.6372  -14.6627   19.9435 C   0  0  0  0  0  0
  -24.4264  -14.1095   20.0216 C   0  0  0  0  0  0
  -25.1536  -12.9895   20.6427 C   0  0  0  0  0  0
  -24.3339  -11.0960   22.6565 C   0  0  0  0  0  0
  -24.6952   -9.6004   22.7831 C   0  0  0  0  0  0
  -24.0790   -8.3184   22.3190 C   0  0  0  0  0  0
  -22.7803   -8.2136   21.7337 C   0  0  0  0  0  0
  -22.1847   -9.4603   21.7333 C   0  0  0  0  0  0
  -22.8644  -10.4530   22.6013 C   0  0  0  0  0  0
  -21.8113   -6.1521   22.5257 C   0  0  0  0  0  0
  -21.4740   -6.6072   23.8202 C   0  0  0  0  0  0
  -21.3649   -5.7015   24.8974 C   0  0  0  0  0  0
  -21.5763   -4.3271   24.6882 C   0  0  0  0  0  0
  -21.8494   -3.8546   23.3919 C   0  0  0  0  0  0
  -21.9467   -4.7597   22.3137 C   0  0  0  0  0  0
  -22.9368  -14.7494   20.1527 C   0  0  0  0  0  0
  -22.1971   -4.2751   21.0738 F   0  0  0  0  0  0
  -21.5303   -3.4624   25.7318 F   0  0  0  0  0  0
  -29.7229  -12.4963   20.4516 N   0  0  0  0  0  0
  -26.5242  -13.6184   19.6997 N   0  0  0  0  0  0
  -25.7568  -12.7035   19.4801 N   0  0  0  0  0  0
  -22.0697  -14.8255   21.2147 N   0  0  0  0  0  0
  -26.0159  -15.9394   20.0390 N   0  0  0  0  0  0
  -30.3853  -14.2500   21.4256 O   0  0  0  0  0  0
  -22.0402   -7.0488   21.4851 O   0  0  0  0  0  0
  -22.3484  -15.0862   19.2002 O   0  0  0  0  0  0
  -24.7189  -31.7385   23.1293 C   0  0  0  0  0  0
  -25.9614  -32.4141   23.7905 C   0  0  1  0  0  0
  -26.4656  -25.9044   20.6519 C   0  0  0  0  0  0
  -25.6036  -33.8049   24.1681 N   0  0  0  0  0  0
  -23.5417  -30.3509   21.4879 C   0  0  2  0  0  0
  -24.8985  -28.5686   20.1293 C   0  0  0  0  0  0
  -22.7808  -29.3997   22.4512 C   0  0  0  0  0  0
  -18.0275  -28.1468   22.8388 C   0  0  0  0  0  0
  -24.1479  -36.7034   23.2650 C   0  0  0  0  0  0
  -26.1073  -30.1914   21.5366 C   0  0  0  0  0  0
  -26.0172  -28.6829   20.9477 C   0  0  0  0  0  0
  -26.7968  -27.3782   21.1716 C   0  0  0  0  0  0
  -25.5946  -26.2023   19.5719 C   0  0  0  0  0  0
  -24.8024  -27.3868   19.3749 C   0  0  0  0  0  0
  -23.8150  -29.6649   20.1105 C   0  0  0  0  0  0
  -25.4162  -36.2739   24.0222 C   0  0  1  0  0  0
  -20.5925  -28.3808   23.1055 C   0  0  2  0  0  0
  -20.6778  -26.9432   22.5413 C   0  0  0  0  0  0
  -19.5778  -26.6355   21.5226 C   0  0  0  0  0  0
  -18.1928  -26.7983   22.1579 C   0  0  0  0  0  0
  -19.1553  -28.8958   23.2703 C   0  0  0  0  0  0
  -18.9481  -30.1535   23.8767 C   0  0  0  0  0  0
  -17.6480  -30.6630   24.0539 C   0  0  0  0  0  0
  -25.9178  -34.9135   23.4831 C   0  0  0  0  0  0
  -16.5356  -29.9116   23.6383 C   0  0  0  0  0  0
  -16.7259  -28.6561   23.0352 C   0  0  0  0  0  0
  -26.4653  -31.6529   25.0803 C   0  0  0  0  0  0
  -25.3587  -31.4063   26.1345 C   0  0  0  0  0  0
  -27.0756  -30.2818   24.7278 C   0  0  0  0  0  0
  -27.5982  -32.4623   25.7583 C   0  0  0  0  0  0
  -27.5564  -37.1667   24.8454 C   0  0  0  0  0  0
  -21.4433  -29.2971   22.3312 N   0  0  0  0  0  0
  -26.4241  -37.3563   23.9420 N   0  0  0  0  0  0
  -24.8239  -30.8236   22.0952 N   0  0  0  0  0  0
  -23.4087  -28.7591   23.2974 O   0  0  0  0  0  0
  -26.7432  -24.2577   21.0513 O   0  0  0  0  0  0
  -26.5889  -34.8814   22.4503 O   0  0  0  0  0  0
  -23.6137  -32.0884   23.5887 O   0  0  0  0  0  0
  -25.8964  -10.8645   20.9956 C   0  0  0  0  0  0
  -24.1487  -13.9356   22.5268 C   0  0  0  0  0  0
  -26.6584  -12.1068   22.2179 C   0  0  0  0  0  0
  -24.0222  -11.1014   20.4373 C   0  0  0  0  0  0
  -23.1102  -12.5717   21.4660 C   0  0  0  0  0  0
  -25.6137  -13.2556   22.9811 C   0  0  0  0  0  0
  -24.0255  -20.5584   22.4741 C   0  0  0  0  0  0
  -28.6053  -13.4454   23.6544 C   0  0  0  0  0  0
  -24.3725  -16.2069   22.4972 C   0  0  0  0  0  0
  -26.1156  -22.2155   21.0732 C   0  0  0  0  0  0
  -25.3834  -20.1130   21.9405 C   0  0  2  0  0  0
  -28.2728  -12.8543   22.3399 N   0  0  0  0  0  0
  -25.0999  -18.0432   21.7732 N   0  3  0  0  0  0
  -23.4207  -10.3493   19.4828 F   0  0  0  0  0  0
  -21.7418  -12.5012   21.4176 F   0  0  0  0  0  0
  -25.8755  -13.7210   24.6344 Cl  0  0  0  0  0  0
  -31.3959  -13.2292   19.3591 H   0  0  0  0  0  0
  -31.0741  -11.5370   19.2012 H   0  0  0  0  0  0
  -30.0678  -12.0765   17.1411 H   0  0  0  0  0  0
  -30.1286  -13.7503   17.5373 H   0  0  0  0  0  0
  -27.6992  -11.9727   17.6853 H   0  0  0  0  0  0
  -27.8305  -13.6496   17.2871 H   0  0  0  0  0  0
  -28.3852  -14.2887   19.4975 H   0  0  0  0  0  0
  -28.6653  -11.2078   19.3521 H   0  0  0  0  0  0
  -28.1293  -11.3071   20.6745 H   0  0  0  0  0  0
  -25.7001   -9.4392   23.1450 H   0  0  0  0  0  0
  -24.6316   -7.4081   22.5019 H   0  0  0  0  0  0
  -21.1110   -9.4892   21.5956 H   0  0  0  0  0  0
  -22.1212  -11.0730   23.0897 H   0  0  0  0  0  0
  -21.3479   -7.6625   24.0129 H   0  0  0  0  0  0
  -21.1409   -6.0692   25.8878 H   0  0  0  0  0  0
  -21.9925   -2.7983   23.2216 H   0  0  0  0  0  0
  -22.2385  -14.3308   22.0768 H   0  0  0  0  0  0
  -21.1522  -15.2103   21.0270 H   0  0  0  0  0  0
  -25.4836  -16.4725   19.3584 H   0  0  0  0  0  0
  -26.9936  -16.0633   19.7944 H   0  0  0  0  0  0
  -26.7726  -32.4379   23.0604 H   0  0  0  0  0  0
  -25.0022  -33.9042   24.9727 H   0  0  0  0  0  0
  -22.8933  -31.2069   21.2937 H   0  0  0  0  0  0
  -23.3800  -35.9291   23.3156 H   0  0  0  0  0  0
  -24.3528  -36.8897   22.2097 H   0  0  0  0  0  0
  -23.7170  -37.6115   23.6879 H   0  0  0  0  0  0
  -26.4327  -30.8152   20.7018 H   0  0  0  0  0  0
  -26.9480  -30.2356   22.2161 H   0  0  0  0  0  0
  -27.5506  -27.4397   21.9487 H   0  0  0  0  0  0
  -25.3069  -25.3505   18.9722 H   0  0  0  0  0  0
  -24.0113  -27.3122   18.6453 H   0  0  0  0  0  0
  -24.1315  -30.4239   19.3914 H   0  0  0  0  0  0
  -22.8918  -29.2342   19.7194 H   0  0  0  0  0  0
  -25.1376  -36.1415   25.0694 H   0  0  0  0  0  0
  -20.9987  -28.3503   24.1182 H   0  0  0  0  0  0
  -20.5695  -26.2403   23.3685 H   0  0  0  0  0  0
  -21.6629  -26.7377   22.1203 H   0  0  0  0  0  0
  -19.6972  -25.6245   21.1319 H   0  0  0  0  0  0
  -19.6817  -27.3096   20.6714 H   0  0  0  0  0  0
  -17.4232  -26.6636   21.3962 H   0  0  0  0  0  0
  -18.0303  -26.0187   22.9029 H   0  0  0  0  0  0
  -19.7960  -30.7366   24.2099 H   0  0  0  0  0  0
  -17.5034  -31.6302   24.5173 H   0  0  0  0  0  0
  -15.5368  -30.3009   23.7829 H   0  0  0  0  0  0
  -15.8621  -28.0907   22.7147 H   0  0  0  0  0  0
  -24.5749  -30.7444   25.7649 H   0  0  0  0  0  0
  -24.8807  -32.3363   26.4437 H   0  0  0  0  0  0
  -25.7590  -30.9437   27.0382 H   0  0  0  0  0  0
  -26.3555  -29.6073   24.2638 H   0  0  0  0  0  0
  -27.4211  -29.7742   25.6301 H   0  0  0  0  0  0
  -27.9536  -30.3809   24.0894 H   0  0  0  0  0  0
  -27.2442  -33.4110   26.1658 H   0  0  0  0  0  0
  -28.3972  -32.6926   25.0520 H   0  0  0  0  0  0
  -28.0476  -31.9179   26.5904 H   0  0  0  0  0  0
  -28.2444  -38.0092   24.7588 H   0  0  0  0  0  0
  -28.1191  -36.2605   24.6150 H   0  0  0  0  0  0
  -27.2292  -37.1131   25.8855 H   0  0  0  0  0  0
  -20.9769  -29.8562   21.6303 H   0  0  0  0  0  0
  -26.0013  -38.2574   24.1473 H   0  0  0  0  0  0
  -26.4873  -10.1478   20.4388 H   0  0  0  0  0  0
  -24.0768  -21.5981   22.7983 H   0  0  0  0  0  0
  -23.7135  -19.9511   23.3257 H   0  0  0  0  0  0
  -23.2669  -20.4900   21.6941 H   0  0  0  0  0  0
  -28.1261  -14.4258   23.7568 H   0  0  0  0  0  0
  -29.6648  -13.6533   23.8551 H   0  0  0  0  0  0
  -28.3076  -12.7605   24.4517 H   0  0  0  0  0  0
  -23.3265  -16.4921   22.6052 H   0  0  0  0  0  0
  -24.7356  -16.3384   23.5187 H   0  0  0  0  0  0
  -25.6649  -22.1786   20.0833 H   0  0  0  0  0  0
  -27.1409  -21.8913   20.8932 H   0  0  0  0  0  0
  -26.0115  -20.0975   22.8339 H   0  0  0  0  0  0
  -24.6137  -18.0422   20.8920 H   0  0  0  0  0  0
  -26.0393  -17.7456   21.5551 H   0  0  0  0  0  0
  1 25  1  0  0  0
  1 30  2  0  0  0
  1 82  1  0  0  0
  2  3  1  0  0  0
  2 25  1  0  0  0
  2 87  1  0  0  0
  2 88  1  0  0  0
  3  4  1  0  0  0
  3 89  1  0  0  0
  3 90  1  0  0  0
  4  5  1  0  0  0
  4 91  1  0  0  0
  4 92  1  0  0  0
  5  6  1  0  0  0
  5 26  1  0  0  0
  5 93  1  0  0  0
  6 25  1  0  0  0
  6 94  1  0  0  0
  6 95  1  0  0  0
  7  8  2  0  0  0
  7 26  1  0  0  0
  7 29  1  0  0  0
  8  9  1  0  0  0
  8 22  1  0  0  0
  9 10  1  0  0  0
  9 27  2  0  0  0
 10 11  2  0  0  0
 10 15  1  0  0  0
 11 12  1  0  0  0
 11 96  1  0  0  0
 12 13  2  0  0  0
 12 97  1  0  0  0
 13 14  1  0  0  0
 13 31  1  0  0  0
 14 15  2  0  0  0
 14 98  1  0  0  0
 15 99  1  0  0  0
 16 17  2  0  0  0
 16 21  1  0  0  0
 16 31  1  0  0  0
 17 18  1  0  0  0
 17100  1  0  0  0
 18 19  2  0  0  0
 18101  1  0  0  0
 19 20  1  0  0  0
 19 24  1  0  0  0
 20 21  2  0  0  0
 20102  1  0  0  0
 21 23  1  0  0  0
 22 28  1  0  0  0
 22 32  2  0  0  0
 26 27  1  0  0  0
 28103  1  0  0  0
 28104  1  0  0  0
 29105  1  0  0  0
 29106  1  0  0  0
 33 34  1  0  0  0
 33 66  1  0  0  0
 33 70  2  0  0  0
 34 36  1  0  0  0
 34 59  1  0  0  0
 34107  1  0  0  0
 35 44  2  0  0  0
 35 45  1  0  0  0
 35 68  1  0  0  0
 36 56  1  0  0  0
 36108  1  0  0  0
 37 39  1  0  0  0
 37 47  1  0  0  0
 37 66  1  0  0  0
 37109  1  0  0  0
 38 43  2  0  0  0
 38 46  1  0  0  0
 38 47  1  0  0  0
 39 64  1  0  0  0
 39 67  2  0  0  0
 40 52  1  0  0  0
 40 53  2  0  0  0
 40 58  1  0  0  0
 41110  1  0  0  0
 41111  1  0  0  0
 41112  1  0  0  0
 41 48  1  0  0  0
 42 43  1  0  0  0
 42 66  1  0  0  0
 42113  1  0  0  0
 42114  1  0  0  0
 43 44  1  0  0  0
 44115  1  0  0  0
 45 46  2  0  0  0
 45116  1  0  0  0
 46117  1  0  0  0
 47118  1  0  0  0
 47119  1  0  0  0
 48 56  1  0  0  0
 48 65  1  0  0  0
 48120  1  0  0  0
 49 50  1  0  0  0
 49 53  1  0  0  0
 49 64  1  0  0  0
 49121  1  0  0  0
 50 51  1  0  0  0
 50122  1  0  0  0
 50123  1  0  0  0
 51 52  1  0  0  0
 51124  1  0  0  0
 51125  1  0  0  0
 52126  1  0  0  0
 52127  1  0  0  0
 53 54  1  0  0  0
 54 55  2  0  0  0
 54128  1  0  0  0
 55 57  1  0  0  0
 55129  1  0  0  0
 56 69  2  0  0  0
 57 58  2  0  0  0
 57130  1  0  0  0
 58131  1  0  0  0
 59 60  1  0  0  0
 59 61  1  0  0  0
 59 62  1  0  0  0
 60132  1  0  0  0
 60133  1  0  0  0
 60134  1  0  0  0
 61135  1  0  0  0
 61136  1  0  0  0
 61137  1  0  0  0
 62138  1  0  0  0
 62139  1  0  0  0
 62140  1  0  0  0
 63 65  1  0  0  0
 63141  1  0  0  0
 63142  1  0  0  0
 63143  1  0  0  0
 64144  1  0  0  0
 65145  1  0  0  0
 68 80  1  0  0  0
 71 73  2  0  0  0
 71 74  1  0  0  0
 71146  1  0  0  0
 72 75  1  0  0  0
 72 76  2  0  0  0
 72 79  1  0  0  0
 73 76  1  0  0  0
 73 82  1  0  0  0
 74 75  2  0  0  0
 74 84  1  0  0  0
 75 85  1  0  0  0
 76 86  1  0  0  0
 77147  1  0  0  0
 77148  1  0  0  0
 77149  1  0  0  0
 77 81  1  0  0  0
 78 82  1  0  0  0
 78150  1  0  0  0
 78151  1  0  0  0
 78152  1  0  0  0
 79 83  1  0  0  0
 79153  1  0  0  0
 79154  1  0  0  0
 80 81  1  0  0  0
 80155  1  0  0  0
 80156  1  0  0  0
 81 83  1  0  0  0
 81157  1  0  0  0
 83158  1  0  0  0
 83159  1  0  0  0
M  CHG  1  83   1
M  ISO  4   1 100  68 101  80 101  82 100
M  END
> <chiral flag>
0

> <version>
0

> <s_m_source_file>
/data/baiqing/PycharmProjects/Reinvent-master-3.2/result/LINK_invent/BTK/process_docking_weight1_custom_sum_contain_oxygen_bond_distance_aromatic_linkinvent_7_9_3/rearranged_h_0015.sdf

> <i_m_source_file_index>
79

> <r_mmod_Potential_Energy-OPLS-2005>
21982.337890625

> <r_mmod_Stretch_Energy-OPLS-2005>
10369.8798828125

> <r_mmod_Bend_Energy-OPLS-2005>
1937.54211425781

> <r_mmod_Torsional_Energy-OPLS-2005>
922.078063964844

> <r_mmod_Improper_Torsional_Energy-OPLS-2005>
88.5928573608398

> <r_mmod_Van_der_Waal_Energy-OPLS-2005>
3276.74682617188

> <r_mmod_Electrostatic_Energy-OPLS-2005>
-269.645935058594

> <r_mmod_Solvation_Energy-OPLS-2005>
-444.616516113281

> <b_mmod_Minimization_Converged-OPLS-2005>
0

> <r_mmod_RMS_Derivative-OPLS-2005>
16.2027549743652

$$$$
80
                    3D
 Structure written by MMmdl.
153161  0  0  1  0            999 V2000
  -30.5206  -15.0208   20.3847 C   0  0  0  0  0  0
  -30.4352  -12.6327   19.5093 C   0  0  0  0  0  0
  -29.5260  -12.5434   18.2612 C   0  0  0  0  0  0
  -28.0595  -12.3193   18.6749 C   0  0  0  0  0  0
  -27.6234  -13.2586   19.8304 C   0  0  2  0  0  0
  -28.6622  -13.3219   20.9700 C   0  0  0  0  0  0
  -25.2431  -13.8225   20.5706 C   0  0  0  0  0  0
  -24.1761  -13.0433   20.9216 C   0  0  0  0  0  0
  -24.6394  -11.6923   20.8732 C   0  0  0  0  0  0
  -23.9078  -10.4292   21.0392 C   0  0  0  0  0  0
  -24.3629   -9.4210   21.9172 C   0  0  0  0  0  0
  -23.6302   -8.2247   22.0750 C   0  0  0  0  0  0
  -22.4283   -8.0282   21.3544 C   0  0  0  0  0  0
  -21.9917   -9.0253   20.4645 C   0  0  0  0  0  0
  -22.7246  -10.2129   20.3048 C   0  0  0  0  0  0
  -21.6860   -6.0738   22.5278 C   0  0  0  0  0  0
  -21.4019   -6.5639   23.8212 C   0  0  0  0  0  0
  -21.3661   -5.6789   24.9172 C   0  0  0  0  0  0
  -21.6045   -4.3052   24.7222 C   0  0  0  0  0  0
  -21.8820   -3.8147   23.4341 C   0  0  0  0  0  0
  -21.9190   -4.6965   22.3399 C   0  0  0  0  0  0
  -22.7781  -13.5201   21.1873 C   0  0  0  0  0  0
  -22.1663   -4.2152   21.0977 F   0  0  0  0  0  0
  -21.5624   -3.4534   25.7732 F   0  0  0  0  0  0
  -29.9314  -13.7494   20.3675 N   0  0  0  0  0  0
  -26.2856  -12.9478   20.3198 N   0  0  0  0  0  0
  -25.9328  -11.6595   20.5697 N   0  0  0  0  0  0
  -22.0438  -12.8196   22.0436 N   0  0  0  0  0  0
  -25.4073  -15.1961   20.4166 N   0  0  0  0  0  0
  -31.7370  -15.0377   20.1618 O   0  0  0  0  0  0
  -21.6646   -6.8882   21.4242 O   0  0  0  0  0  0
  -22.3460  -14.5501   20.6714 O   0  0  0  0  0  0
  -24.6484  -31.8392   23.1848 C   0  0  0  0  0  0
  -25.9232  -32.4671   23.8258 C   0  0  1  0  0  0
  -27.2114  -27.0782   20.1664 C   0  0  0  0  0  0
  -25.5955  -33.8480   24.2166 N   0  0  0  0  0  0
  -23.4552  -30.4570   21.5318 C   0  0  2  0  0  0
  -24.9044  -28.8723   20.1153 C   0  0  0  0  0  0
  -22.7595  -29.4515   22.4841 C   0  0  0  0  0  0
  -18.0310  -28.1399   22.8472 C   0  0  0  0  0  0
  -24.1489  -36.7249   23.2643 C   0  0  0  0  0  0
  -26.0151  -30.6939   21.3937 C   0  0  0  0  0  0
  -26.0843  -29.2987   20.7376 C   0  0  0  0  0  0
  -27.2388  -28.4197   20.7427 C   0  0  0  0  0  0
  -26.0075  -26.7708   19.4964 C   0  0  0  0  0  0
  -24.8814  -27.6232   19.4781 C   0  0  0  0  0  0
  -23.6864  -29.7841   20.1527 C   0  0  0  0  0  0
  -25.4123  -36.3021   24.0312 C   0  0  1  0  0  0
  -20.5923  -28.3726   23.1222 C   0  0  2  0  0  0
  -20.6791  -26.9424   22.5399 C   0  0  0  0  0  0
  -19.5764  -26.6375   21.5212 C   0  0  0  0  0  0
  -18.1948  -26.7934   22.1624 C   0  0  0  0  0  0
  -19.1566  -28.8882   23.2839 C   0  0  0  0  0  0
  -18.9480  -30.1481   23.8863 C   0  0  0  0  0  0
  -17.6475  -30.6590   24.0557 C   0  0  0  0  0  0
  -25.9076  -34.9393   23.5053 C   0  0  0  0  0  0
  -16.5366  -29.9081   23.6338 C   0  0  0  0  0  0
  -16.7294  -28.6502   23.0353 C   0  0  0  0  0  0
  -26.4530  -31.6564   25.0728 C   0  0  0  0  0  0
  -25.3697  -31.3776   26.1413 C   0  0  0  0  0  0
  -27.0409  -30.2952   24.6358 C   0  0  0  0  0  0
  -27.6046  -32.4346   25.7518 C   0  0  0  0  0  0
  -27.5576  -37.1779   24.8460 C   0  0  0  0  0  0
  -21.4278  -29.3047   22.3594 N   0  0  0  0  0  0
  -26.4283  -37.3740   23.9407 N   0  0  0  0  0  0
  -24.7266  -31.0190   22.0915 N   0  0  0  0  0  0
  -23.4213  -28.8065   23.3013 O   0  0  0  0  0  0
  -28.2544  -26.0647   20.2057 O   0  0  0  0  0  0
  -26.5669  -34.8898   22.4636 O   0  0  0  0  0  0
  -23.5588  -32.1291   23.7030 O   0  0  0  0  0  0
  -30.2928  -20.4608   19.0274 C   0  0  0  0  0  0
  -30.9241  -19.3287   18.4707 C   0  0  0  0  0  0
  -29.3798  -20.3695   20.0914 C   0  0  0  0  0  0
  -29.9167  -17.7230   20.0696 C   0  0  0  0  0  0
  -30.7305  -17.9949   18.9316 C   0  0  0  0  0  0
  -29.2274  -18.9555   20.5999 C   0  0  0  0  0  0
  -31.9652  -17.1381   17.0332 C   0  0  0  0  0  0
  -28.9874  -23.1624   20.0896 C   0  0  0  0  0  0
  -27.9740  -24.5150   20.3901 C   0  0  0  0  0  0
  -29.7506  -16.2326   20.5198 N   0  0  0  0  0  0
  -28.7132  -21.6543   20.5112 N   0  0  0  0  0  0
  -31.2796  -16.9213   18.2602 O   0  0  0  0  0  0
  -28.3713  -18.7703   21.6350 F   0  0  0  0  0  0
  -31.4693  -12.7892   19.1998 H   0  0  0  0  0  0
  -30.4304  -11.6906   20.0597 H   0  0  0  0  0  0
  -29.8608  -11.7399   17.6034 H   0  0  0  0  0  0
  -29.6068  -13.4659   17.6835 H   0  0  0  0  0  0
  -27.9630  -11.2797   18.9898 H   0  0  0  0  0  0
  -27.3998  -12.4393   17.8145 H   0  0  0  0  0  0
  -27.5750  -14.2545   19.3880 H   0  0  0  0  0  0
  -28.7628  -12.3562   21.4679 H   0  0  0  0  0  0
  -28.3479  -14.0344   21.7339 H   0  0  0  0  0  0
  -25.2778   -9.5695   22.4739 H   0  0  0  0  0  0
  -24.0016   -7.4646   22.7477 H   0  0  0  0  0  0
  -21.0845   -8.8769   19.8959 H   0  0  0  0  0  0
  -22.3699  -10.9665   19.6157 H   0  0  0  0  0  0
  -21.2024   -7.6150   23.9718 H   0  0  0  0  0  0
  -21.1481   -6.0518   25.9074 H   0  0  0  0  0  0
  -22.0598   -2.7610   23.2834 H   0  0  0  0  0  0
  -22.4073  -11.9882   22.4855 H   0  0  0  0  0  0
  -21.1052  -13.1217   22.2628 H   0  0  0  0  0  0
  -24.6341  -15.8425   20.5321 H   0  0  0  0  0  0
  -26.2495  -15.6450   20.0813 H   0  0  0  0  0  0
  -26.7301  -32.5262   23.0985 H   0  0  0  0  0  0
  -25.0070  -33.9592   25.0292 H   0  0  0  0  0  0
  -22.7612  -31.2848   21.3734 H   0  0  0  0  0  0
  -23.3762  -35.9571   23.3282 H   0  0  0  0  0  0
  -24.3570  -36.8910   22.2062 H   0  0  0  0  0  0
  -23.7234  -37.6429   23.6702 H   0  0  0  0  0  0
  -26.1781  -31.4451   20.6200 H   0  0  0  0  0  0
  -26.8823  -30.7446   22.0404 H   0  0  0  0  0  0
  -28.1379  -28.7419   21.2487 H   0  0  0  0  0  0
  -25.9065  -25.8277   18.9820 H   0  0  0  0  0  0
  -23.9835  -27.2941   18.9729 H   0  0  0  0  0  0
  -23.8362  -30.5584   19.3993 H   0  0  0  0  0  0
  -22.7986  -29.2344   19.8347 H   0  0  0  0  0  0
  -25.1315  -36.1840   25.0805 H   0  0  0  0  0  0
  -21.0016  -28.3319   24.1344 H   0  0  0  0  0  0
  -20.5679  -26.2344   23.3625 H   0  0  0  0  0  0
  -21.6657  -26.7423   22.1201 H   0  0  0  0  0  0
  -19.6922  -25.6277   21.1267 H   0  0  0  0  0  0
  -19.6698  -27.3167   20.6728 H   0  0  0  0  0  0
  -17.4213  -26.6675   21.4032 H   0  0  0  0  0  0
  -18.0349  -26.0086   22.9032 H   0  0  0  0  0  0
  -19.7955  -30.7310   24.2210 H   0  0  0  0  0  0
  -17.5024  -31.6263   24.5173 H   0  0  0  0  0  0
  -15.5363  -30.2969   23.7679 H   0  0  0  0  0  0
  -15.8697  -28.0813   22.7078 H   0  0  0  0  0  0
  -24.5851  -30.7163   25.7717 H   0  0  0  0  0  0
  -24.8923  -32.2975   26.4799 H   0  0  0  0  0  0
  -25.7954  -30.8947   27.0220 H   0  0  0  0  0  0
  -26.3049  -29.6655   24.1352 H   0  0  0  0  0  0
  -27.3981  -29.7273   25.4959 H   0  0  0  0  0  0
  -27.8973  -30.4171   23.9724 H   0  0  0  0  0  0
  -27.2623  -33.3655   26.2049 H   0  0  0  0  0  0
  -28.3883  -32.6898   25.0373 H   0  0  0  0  0  0
  -28.0695  -31.8512   26.5475 H   0  0  0  0  0  0
  -28.2576  -38.0092   24.7518 H   0  0  0  0  0  0
  -28.1091  -36.2621   24.6275 H   0  0  0  0  0  0
  -27.2296  -37.1413   25.8863 H   0  0  0  0  0  0
  -20.9498  -29.8775   21.6777 H   0  0  0  0  0  0
  -26.0146  -38.2804   24.1419 H   0  0  0  0  0  0
  -30.5057  -21.4200   18.5802 H   0  0  0  0  0  0
  -31.5667  -19.5320   17.6277 H   0  0  0  0  0  0
  -32.2589  -16.1765   16.6130 H   0  0  0  0  0  0
  -32.8745  -17.7219   17.1824 H   0  0  0  0  0  0
  -31.3306  -17.6362   16.2986 H   0  0  0  0  0  0
  -29.9580  -23.4076   20.5216 H   0  0  0  0  0  0
  -29.1603  -23.1559   19.0132 H   0  0  0  0  0  0
  -27.6885  -24.4336   21.4390 H   0  0  0  0  0  0
  -27.0561  -24.2865   19.8538 H   0  0  0  0  0  0
  -28.8413  -16.0529   20.9166 H   0  0  0  0  0  0
  -28.0447  -21.5443   21.2712 H   0  0  0  0  0  0
  1 25  1  0  0  0
  1 30  2  0  0  0
  1 80  1  0  0  0
  2  3  1  0  0  0
  2 25  1  0  0  0
  2 84  1  0  0  0
  2 85  1  0  0  0
  3  4  1  0  0  0
  3 86  1  0  0  0
  3 87  1  0  0  0
  4  5  1  0  0  0
  4 88  1  0  0  0
  4 89  1  0  0  0
  5  6  1  0  0  0
  5 26  1  0  0  0
  5 90  1  0  0  0
  6 25  1  0  0  0
  6 91  1  0  0  0
  6 92  1  0  0  0
  7  8  2  0  0  0
  7 26  1  0  0  0
  7 29  1  0  0  0
  8  9  1  0  0  0
  8 22  1  0  0  0
  9 10  1  0  0  0
  9 27  2  0  0  0
 10 11  2  0  0  0
 10 15  1  0  0  0
 11 12  1  0  0  0
 11 93  1  0  0  0
 12 13  2  0  0  0
 12 94  1  0  0  0
 13 14  1  0  0  0
 13 31  1  0  0  0
 14 15  2  0  0  0
 14 95  1  0  0  0
 15 96  1  0  0  0
 16 17  2  0  0  0
 16 21  1  0  0  0
 16 31  1  0  0  0
 17 18  1  0  0  0
 17 97  1  0  0  0
 18 19  2  0  0  0
 18 98  1  0  0  0
 19 20  1  0  0  0
 19 24  1  0  0  0
 20 21  2  0  0  0
 20 99  1  0  0  0
 21 23  1  0  0  0
 22 28  1  0  0  0
 22 32  2  0  0  0
 26 27  1  0  0  0
 28100  1  0  0  0
 28101  1  0  0  0
 29102  1  0  0  0
 29103  1  0  0  0
 33 34  1  0  0  0
 33 66  1  0  0  0
 33 70  2  0  0  0
 34 36  1  0  0  0
 34 59  1  0  0  0
 34104  1  0  0  0
 35 44  2  0  0  0
 35 45  1  0  0  0
 35 68  1  0  0  0
 36 56  1  0  0  0
 36105  1  0  0  0
 37 39  1  0  0  0
 37 47  1  0  0  0
 37 66  1  0  0  0
 37106  1  0  0  0
 38 43  2  0  0  0
 38 46  1  0  0  0
 38 47  1  0  0  0
 39 64  1  0  0  0
 39 67  2  0  0  0
 40 52  1  0  0  0
 40 53  2  0  0  0
 40 58  1  0  0  0
 41107  1  0  0  0
 41108  1  0  0  0
 41109  1  0  0  0
 41 48  1  0  0  0
 42 43  1  0  0  0
 42 66  1  0  0  0
 42110  1  0  0  0
 42111  1  0  0  0
 43 44  1  0  0  0
 44112  1  0  0  0
 45 46  2  0  0  0
 45113  1  0  0  0
 46114  1  0  0  0
 47115  1  0  0  0
 47116  1  0  0  0
 48 56  1  0  0  0
 48 65  1  0  0  0
 48117  1  0  0  0
 49 50  1  0  0  0
 49 53  1  0  0  0
 49 64  1  0  0  0
 49118  1  0  0  0
 50 51  1  0  0  0
 50119  1  0  0  0
 50120  1  0  0  0
 51 52  1  0  0  0
 51121  1  0  0  0
 51122  1  0  0  0
 52123  1  0  0  0
 52124  1  0  0  0
 53 54  1  0  0  0
 54 55  2  0  0  0
 54125  1  0  0  0
 55 57  1  0  0  0
 55126  1  0  0  0
 56 69  2  0  0  0
 57 58  2  0  0  0
 57127  1  0  0  0
 58128  1  0  0  0
 59 60  1  0  0  0
 59 61  1  0  0  0
 59 62  1  0  0  0
 60129  1  0  0  0
 60130  1  0  0  0
 60131  1  0  0  0
 61132  1  0  0  0
 61133  1  0  0  0
 61134  1  0  0  0
 62135  1  0  0  0
 62136  1  0  0  0
 62137  1  0  0  0
 63 65  1  0  0  0
 63138  1  0  0  0
 63139  1  0  0  0
 63140  1  0  0  0
 64141  1  0  0  0
 65142  1  0  0  0
 68 79  1  0  0  0
 71 72  2  0  0  0
 71 73  1  0  0  0
 71143  1  0  0  0
 72 75  1  0  0  0
 72144  1  0  0  0
 73 76  2  0  0  0
 73 81  1  0  0  0
 74 75  2  0  0  0
 74 76  1  0  0  0
 74 80  1  0  0  0
 75 82  1  0  0  0
 76 83  1  0  0  0
 77 82  1  0  0  0
 77145  1  0  0  0
 77146  1  0  0  0
 77147  1  0  0  0
 78 79  1  0  0  0
 78 81  1  0  0  0
 78148  1  0  0  0
 78149  1  0  0  0
 79150  1  0  0  0
 79151  1  0  0  0
 80152  1  0  0  0
 81153  1  0  0  0
M  ISO  4   1 100  68 101  79 101  80 100
M  END
> <chiral flag>
0

> <version>
0

> <s_m_source_file>
/data/baiqing/PycharmProjects/Reinvent-master-3.2/result/LINK_invent/BTK/process_docking_weight1_custom_sum_contain_oxygen_bond_distance_aromatic_linkinvent_7_9_3/rearranged_h_0015.sdf

> <i_m_source_file_index>
80

> <r_mmod_Potential_Energy-OPLS-2005>
630.584594726562

> <r_mmod_Stretch_Energy-OPLS-2005>
323.928466796875

> <r_mmod_Bend_Energy-OPLS-2005>
288.428253173828

> <r_mmod_Torsional_Energy-OPLS-2005>
225.633850097656

> <r_mmod_Improper_Torsional_Energy-OPLS-2005>
3.3950572013855

> <r_mmod_Van_der_Waal_Energy-OPLS-2005>
143.13134765625

> <r_mmod_Electrostatic_Energy-OPLS-2005>
-370.668823242188

> <r_mmod_Solvation_Energy-OPLS-2005>
-227.691009521484

> <b_mmod_Minimization_Converged-OPLS-2005>
0

> <r_mmod_RMS_Derivative-OPLS-2005>
0.904237270355225

$$$$
81
                    3D
 Structure written by MMmdl.
161169  0  0  1  0            999 V2000
  -30.6706  -14.5900   20.5864 C   0  0  0  0  0  0
  -30.4242  -12.3926   19.4442 C   0  0  0  0  0  0
  -29.4944  -12.5285   18.2178 C   0  0  0  0  0  0
  -28.0161  -12.3675   18.6232 C   0  0  0  0  0  0
  -27.6489  -13.2155   19.8690 C   0  0  2  0  0  0
  -28.6861  -13.0145   20.9889 C   0  0  0  0  0  0
  -25.2523  -13.8178   20.5684 C   0  0  0  0  0  0
  -24.1790  -13.0446   20.9178 C   0  0  0  0  0  0
  -24.6356  -11.6907   20.8721 C   0  0  0  0  0  0
  -23.9039  -10.4294   21.0395 C   0  0  0  0  0  0
  -24.3599   -9.4214   21.9175 C   0  0  0  0  0  0
  -23.6280   -8.2246   22.0747 C   0  0  0  0  0  0
  -22.4266   -8.0279   21.3542 C   0  0  0  0  0  0
  -21.9898   -9.0241   20.4642 C   0  0  0  0  0  0
  -22.7211  -10.2129   20.3046 C   0  0  0  0  0  0
  -21.6849   -6.0734   22.5279 C   0  0  0  0  0  0
  -21.4006   -6.5633   23.8210 C   0  0  0  0  0  0
  -21.3658   -5.6788   24.9170 C   0  0  0  0  0  0
  -21.6048   -4.3052   24.7229 C   0  0  0  0  0  0
  -21.8822   -3.8146   23.4350 C   0  0  0  0  0  0
  -21.9187   -4.6961   22.3402 C   0  0  0  0  0  0
  -22.7817  -13.5234   21.1852 C   0  0  0  0  0  0
  -22.1659   -4.2148   21.0979 F   0  0  0  0  0  0
  -21.5634   -3.4533   25.7742 F   0  0  0  0  0  0
  -29.9999  -13.3966   20.4486 N   0  0  0  0  0  0
  -26.2940  -12.9351   20.3327 N   0  0  0  0  0  0
  -25.9279  -11.6504   20.5741 N   0  0  0  0  0  0
  -22.0466  -12.8220   22.0401 N   0  0  0  0  0  0
  -25.4283  -15.1903   20.4136 N   0  0  0  0  0  0
  -31.8056  -14.7059   20.1064 O   0  0  0  0  0  0
  -21.6629   -6.8883   21.4242 O   0  0  0  0  0  0
  -22.3499  -14.5543   20.6710 O   0  0  0  0  0  0
  -24.6231  -31.8646   23.2064 C   0  0  0  0  0  0
  -25.9091  -32.4799   23.8381 C   0  0  1  0  0  0
  -27.2003  -27.3320   20.1165 C   0  0  0  0  0  0
  -25.5928  -33.8602   24.2292 N   0  0  0  0  0  0
  -23.4156  -30.4913   21.5507 C   0  0  2  0  0  0
  -24.8556  -28.9542   20.1110 C   0  0  0  0  0  0
  -22.7472  -29.4630   22.4947 C   0  0  0  0  0  0
  -18.0292  -28.1351   22.8490 C   0  0  0  0  0  0
  -24.1486  -36.7292   23.2628 C   0  0  0  0  0  0
  -25.9577  -30.7986   21.3775 C   0  0  0  0  0  0
  -26.0282  -29.4298   20.7138 C   0  0  0  0  0  0
  -27.2076  -28.6301   20.7072 C   0  0  0  0  0  0
  -26.0154  -26.9168   19.4689 C   0  0  0  0  0  0
  -24.8490  -27.7013   19.4818 C   0  0  0  0  0  0
  -23.6287  -29.8387   20.1617 C   0  0  0  0  0  0
  -25.4115  -36.3096   24.0326 C   0  0  1  0  0  0
  -20.5896  -28.3667   23.1284 C   0  0  2  0  0  0
  -20.6795  -26.9386   22.5412 C   0  0  0  0  0  0
  -19.5756  -26.6367   21.5221 C   0  0  0  0  0  0
  -18.1926  -26.7905   22.1617 C   0  0  0  0  0  0
  -19.1544  -28.8820   23.2876 C   0  0  0  0  0  0
  -18.9478  -30.1436   23.8870 C   0  0  0  0  0  0
  -17.6480  -30.6560   24.0555 C   0  0  0  0  0  0
  -25.9058  -34.9461   23.5105 C   0  0  0  0  0  0
  -16.5370  -29.9071   23.6318 C   0  0  0  0  0  0
  -16.7279  -28.6488   23.0340 C   0  0  0  0  0  0
  -26.4469  -31.6599   25.0741 C   0  0  0  0  0  0
  -25.3717  -31.3745   26.1485 C   0  0  0  0  0  0
  -27.0322  -30.3032   24.6190 C   0  0  0  0  0  0
  -27.5996  -32.4383   25.7504 C   0  0  0  0  0  0
  -27.5588  -37.1795   24.8443 C   0  0  0  0  0  0
  -21.4191  -29.3032   22.3685 N   0  0  0  0  0  0
  -26.4276  -37.3813   23.9422 N   0  0  0  0  0  0
  -24.6847  -31.0675   22.1009 N   0  0  0  0  0  0
  -23.4210  -28.8174   23.3009 O   0  0  0  0  0  0
  -28.2879  -26.4550   20.1666 O   0  0  0  0  0  0
  -26.5617  -34.8919   22.4674 O   0  0  0  0  0  0
  -23.5408  -32.1435   23.7400 O   0  0  0  0  0  0
  -30.3693  -19.5501   19.8887 C   0  0  0  0  0  0
  -29.9389  -20.9004   20.0010 C   0  0  0  0  0  0
  -28.7347  -18.8518   21.5011 C   0  0  0  0  0  0
  -29.7916  -18.4821   20.6260 C   0  0  0  0  0  0
  -28.3051  -20.2115   21.6333 C   0  0  0  0  0  0
  -28.8977  -21.2716   20.8821 C   0  0  0  0  0  0
  -27.1761  -20.5221   22.6052 C   0  0  0  0  0  0
  -30.3488  -24.1901   20.9392 C   0  0  0  0  0  0
  -29.4456  -15.7927   22.3502 C   0  0  0  0  0  0
  -30.4032  -17.0478   20.3820 C   0  0  0  0  0  0
  -27.9836  -25.1149   20.7107 C   0  0  0  0  0  0
  -28.9378  -23.8771   20.4238 C   0  0  2  0  0  0
  -28.4259  -22.6156   21.0375 N   0  0  0  0  0  0
  -29.9870  -15.7265   20.9905 N   0  0  0  0  0  0
  -31.4618  -12.5167   19.1301 H   0  0  0  0  0  0
  -30.3702  -11.3863   19.8622 H   0  0  0  0  0  0
  -29.7565  -11.7907   17.4582 H   0  0  0  0  0  0
  -29.6387  -13.5072   17.7567 H   0  0  0  0  0  0
  -27.8395  -11.3114   18.8290 H   0  0  0  0  0  0
  -27.3642  -12.6274   17.7882 H   0  0  0  0  0  0
  -27.6858  -14.2626   19.5671 H   0  0  0  0  0  0
  -28.7017  -11.9680   21.2967 H   0  0  0  0  0  0
  -28.3935  -13.5561   21.8823 H   0  0  0  0  0  0
  -25.2748   -9.5690   22.4739 H   0  0  0  0  0  0
  -23.9997   -7.4640   22.7461 H   0  0  0  0  0  0
  -21.0839   -8.8763   19.8934 H   0  0  0  0  0  0
  -22.3679  -10.9667   19.6151 H   0  0  0  0  0  0
  -21.1992   -7.6136   23.9719 H   0  0  0  0  0  0
  -21.1476   -6.0512   25.9081 H   0  0  0  0  0  0
  -22.0600   -2.7608   23.2850 H   0  0  0  0  0  0
  -22.4101  -11.9880   22.4787 H   0  0  0  0  0  0
  -21.1080  -13.1233   22.2618 H   0  0  0  0  0  0
  -24.6709  -15.8548   20.5336 H   0  0  0  0  0  0
  -26.2943  -15.6250   20.1204 H   0  0  0  0  0  0
  -26.7158  -32.5469   23.1122 H   0  0  0  0  0  0
  -25.0106  -33.9775   25.0457 H   0  0  0  0  0  0
  -22.7078  -31.3126   21.4176 H   0  0  0  0  0  0
  -23.3776  -35.9588   23.3249 H   0  0  0  0  0  0
  -24.3591  -36.8982   22.2054 H   0  0  0  0  0  0
  -23.7220  -37.6470   23.6697 H   0  0  0  0  0  0
  -26.0987  -31.5693   20.6191 H   0  0  0  0  0  0
  -26.8347  -30.8365   22.0117 H   0  0  0  0  0  0
  -28.1091  -28.9877   21.1833 H   0  0  0  0  0  0
  -25.9744  -25.9667   18.9556 H   0  0  0  0  0  0
  -23.9493  -27.3393   19.0016 H   0  0  0  0  0  0
  -23.7589  -30.6262   19.4176 H   0  0  0  0  0  0
  -22.7426  -29.2847   19.8449 H   0  0  0  0  0  0
  -25.1294  -36.1947   25.0823 H   0  0  0  0  0  0
  -20.9976  -28.3249   24.1409 H   0  0  0  0  0  0
  -20.5747  -26.2263   23.3617 H   0  0  0  0  0  0
  -21.6664  -26.7442   22.1180 H   0  0  0  0  0  0
  -19.6921  -25.6278   21.1252 H   0  0  0  0  0  0
  -19.6684  -27.3172   20.6741 H   0  0  0  0  0  0
  -17.4218  -26.6659   21.3988 H   0  0  0  0  0  0
  -18.0280  -26.0024   22.8979 H   0  0  0  0  0  0
  -19.7957  -30.7259   24.2206 H   0  0  0  0  0  0
  -17.5044  -31.6242   24.5158 H   0  0  0  0  0  0
  -15.5372  -30.2979   23.7648 H   0  0  0  0  0  0
  -15.8675  -28.0835   22.7024 H   0  0  0  0  0  0
  -24.5851  -30.7121   25.7847 H   0  0  0  0  0  0
  -24.8920  -32.2910   26.4931 H   0  0  0  0  0  0
  -25.8049  -30.8926   27.0255 H   0  0  0  0  0  0
  -26.2896  -29.6801   24.1185 H   0  0  0  0  0  0
  -27.4009  -29.7274   25.4690 H   0  0  0  0  0  0
  -27.8764  -30.4331   23.9413 H   0  0  0  0  0  0
  -27.2556  -33.3709   26.1994 H   0  0  0  0  0  0
  -28.3811  -32.6942   25.0334 H   0  0  0  0  0  0
  -28.0633  -31.8593   26.5505 H   0  0  0  0  0  0
  -28.2538  -38.0152   24.7632 H   0  0  0  0  0  0
  -28.1179  -36.2719   24.6125 H   0  0  0  0  0  0
  -27.2337  -37.1255   25.8843 H   0  0  0  0  0  0
  -20.9352  -29.8796   21.6936 H   0  0  0  0  0  0
  -26.0156  -38.2872   24.1524 H   0  0  0  0  0  0
  -31.1795  -19.3339   19.2055 H   0  0  0  0  0  0
  -30.4292  -21.6477   19.3961 H   0  0  0  0  0  0
  -28.2332  -18.1014   22.0909 H   0  0  0  0  0  0
  -26.8821  -19.6447   23.1808 H   0  0  0  0  0  0
  -26.2987  -20.8802   22.0651 H   0  0  0  0  0  0
  -27.4770  -21.2958   23.3138 H   0  0  0  0  0  0
  -30.7566  -25.0643   20.4323 H   0  0  0  0  0  0
  -31.0430  -23.3658   20.7768 H   0  0  0  0  0  0
  -30.3389  -24.4082   22.0067 H   0  0  0  0  0  0
  -28.3561  -15.8362   22.3203 H   0  0  0  0  0  0
  -29.8199  -16.6633   22.8865 H   0  0  0  0  0  0
  -29.7311  -14.9292   22.9555 H   0  0  0  0  0  0
  -31.4657  -17.1675   20.6032 H   0  0  0  0  0  0
  -30.3424  -16.9010   19.3020 H   0  0  0  0  0  0
  -27.9180  -25.2423   21.7917 H   0  0  0  0  0  0
  -26.9881  -24.7830   20.4195 H   0  0  0  0  0  0
  -28.9785  -23.7248   19.3442 H   0  0  0  0  0  0
  -27.6334  -22.7302   21.6626 H   0  0  0  0  0  0
  1 25  1  0  0  0
  1 30  2  0  0  0
  1 84  1  0  0  0
  2  3  1  0  0  0
  2 25  1  0  0  0
  2 85  1  0  0  0
  2 86  1  0  0  0
  3  4  1  0  0  0
  3 87  1  0  0  0
  3 88  1  0  0  0
  4  5  1  0  0  0
  4 89  1  0  0  0
  4 90  1  0  0  0
  5  6  1  0  0  0
  5 26  1  0  0  0
  5 91  1  0  0  0
  6 25  1  0  0  0
  6 92  1  0  0  0
  6 93  1  0  0  0
  7  8  2  0  0  0
  7 26  1  0  0  0
  7 29  1  0  0  0
  8  9  1  0  0  0
  8 22  1  0  0  0
  9 10  1  0  0  0
  9 27  2  0  0  0
 10 11  2  0  0  0
 10 15  1  0  0  0
 11 12  1  0  0  0
 11 94  1  0  0  0
 12 13  2  0  0  0
 12 95  1  0  0  0
 13 14  1  0  0  0
 13 31  1  0  0  0
 14 15  2  0  0  0
 14 96  1  0  0  0
 15 97  1  0  0  0
 16 17  2  0  0  0
 16 21  1  0  0  0
 16 31  1  0  0  0
 17 18  1  0  0  0
 17 98  1  0  0  0
 18 19  2  0  0  0
 18 99  1  0  0  0
 19 20  1  0  0  0
 19 24  1  0  0  0
 20 21  2  0  0  0
 20100  1  0  0  0
 21 23  1  0  0  0
 22 28  1  0  0  0
 22 32  2  0  0  0
 26 27  1  0  0  0
 28101  1  0  0  0
 28102  1  0  0  0
 29103  1  0  0  0
 29104  1  0  0  0
 33 34  1  0  0  0
 33 66  1  0  0  0
 33 70  2  0  0  0
 34 36  1  0  0  0
 34 59  1  0  0  0
 34105  1  0  0  0
 35 44  2  0  0  0
 35 45  1  0  0  0
 35 68  1  0  0  0
 36 56  1  0  0  0
 36106  1  0  0  0
 37 39  1  0  0  0
 37 47  1  0  0  0
 37 66  1  0  0  0
 37107  1  0  0  0
 38 43  2  0  0  0
 38 46  1  0  0  0
 38 47  1  0  0  0
 39 64  1  0  0  0
 39 67  2  0  0  0
 40 52  1  0  0  0
 40 53  2  0  0  0
 40 58  1  0  0  0
 41108  1  0  0  0
 41109  1  0  0  0
 41110  1  0  0  0
 41 48  1  0  0  0
 42 43  1  0  0  0
 42 66  1  0  0  0
 42111  1  0  0  0
 42112  1  0  0  0
 43 44  1  0  0  0
 44113  1  0  0  0
 45 46  2  0  0  0
 45114  1  0  0  0
 46115  1  0  0  0
 47116  1  0  0  0
 47117  1  0  0  0
 48 56  1  0  0  0
 48 65  1  0  0  0
 48118  1  0  0  0
 49 50  1  0  0  0
 49 53  1  0  0  0
 49 64  1  0  0  0
 49119  1  0  0  0
 50 51  1  0  0  0
 50120  1  0  0  0
 50121  1  0  0  0
 51 52  1  0  0  0
 51122  1  0  0  0
 51123  1  0  0  0
 52124  1  0  0  0
 52125  1  0  0  0
 53 54  1  0  0  0
 54 55  2  0  0  0
 54126  1  0  0  0
 55 57  1  0  0  0
 55127  1  0  0  0
 56 69  2  0  0  0
 57 58  2  0  0  0
 57128  1  0  0  0
 58129  1  0  0  0
 59 60  1  0  0  0
 59 61  1  0  0  0
 59 62  1  0  0  0
 60130  1  0  0  0
 60131  1  0  0  0
 60132  1  0  0  0
 61133  1  0  0  0
 61134  1  0  0  0
 61135  1  0  0  0
 62136  1  0  0  0
 62137  1  0  0  0
 62138  1  0  0  0
 63 65  1  0  0  0
 63139  1  0  0  0
 63140  1  0  0  0
 63141  1  0  0  0
 64142  1  0  0  0
 65143  1  0  0  0
 68 81  1  0  0  0
 71 72  2  0  0  0
 71 74  1  0  0  0
 71144  1  0  0  0
 72 76  1  0  0  0
 72145  1  0  0  0
 73 74  2  0  0  0
 73 75  1  0  0  0
 73146  1  0  0  0
 74 80  1  0  0  0
 75 76  2  0  0  0
 75 77  1  0  0  0
 76 83  1  0  0  0
 77147  1  0  0  0
 77148  1  0  0  0
 77149  1  0  0  0
 78150  1  0  0  0
 78151  1  0  0  0
 78152  1  0  0  0
 78 82  1  0  0  0
 79 84  1  0  0  0
 79153  1  0  0  0
 79154  1  0  0  0
 79155  1  0  0  0
 80 84  1  0  0  0
 80156  1  0  0  0
 80157  1  0  0  0
 81 82  1  0  0  0
 81158  1  0  0  0
 81159  1  0  0  0
 82 83  1  0  0  0
 82160  1  0  0  0
 83161  1  0  0  0
M  ISO  4   1 100  68 101  81 101  84 100
M  END
> <chiral flag>
0

> <version>
0

> <s_m_source_file>
/data/baiqing/PycharmProjects/Reinvent-master-3.2/result/LINK_invent/BTK/process_docking_weight1_custom_sum_contain_oxygen_bond_distance_aromatic_linkinvent_7_9_3/rearranged_h_0015.sdf

> <i_m_source_file_index>
81

> <r_mmod_Potential_Energy-OPLS-2005>
155.916641235352

> <r_mmod_Stretch_Energy-OPLS-2005>
77.7622299194336

> <r_mmod_Bend_Energy-OPLS-2005>
178.560180664062

> <r_mmod_Torsional_Energy-OPLS-2005>
252.765380859375

> <r_mmod_Improper_Torsional_Energy-OPLS-2005>
8.90020084381104

> <r_mmod_Van_der_Waal_Energy-OPLS-2005>
159.277526855469

> <r_mmod_Electrostatic_Energy-OPLS-2005>
-365.406036376953

> <r_mmod_Solvation_Energy-OPLS-2005>
-195.938507080078

> <b_mmod_Minimization_Converged-OPLS-2005>
0

> <r_mmod_RMS_Derivative-OPLS-2005>
2.77144122123718

$$$$
82
                    3D
 Structure written by MMmdl.
166174  0  0  1  0            999 V2000
  -30.7513  -14.3938   20.6324 C   0  0  0  0  0  0
  -30.4219  -12.2862   19.4030 C   0  0  0  0  0  0
  -29.4879  -12.5080   18.1975 C   0  0  0  0  0  0
  -28.0110  -12.3698   18.6145 C   0  0  0  0  0  0
  -27.6679  -13.2022   19.8795 C   0  0  2  0  0  0
  -28.7086  -12.9566   20.9949 C   0  0  0  0  0  0
  -25.2620  -13.8155   20.5672 C   0  0  0  0  0  0
  -24.1856  -13.0450   20.9151 C   0  0  0  0  0  0
  -24.6394  -11.6909   20.8720 C   0  0  0  0  0  0
  -23.9051  -10.4305   21.0410 C   0  0  0  0  0  0
  -24.3610   -9.4224   21.9191 C   0  0  0  0  0  0
  -23.6288   -8.2257   22.0760 C   0  0  0  0  0  0
  -22.4273   -8.0282   21.3549 C   0  0  0  0  0  0
  -21.9904   -9.0254   20.4655 C   0  0  0  0  0  0
  -22.7221  -10.2136   20.3065 C   0  0  0  0  0  0
  -21.6854   -6.0729   22.5271 C   0  0  0  0  0  0
  -21.4014   -6.5634   23.8205 C   0  0  0  0  0  0
  -21.3658   -5.6790   24.9170 C   0  0  0  0  0  0
  -21.6047   -4.3052   24.7224 C   0  0  0  0  0  0
  -21.8825   -3.8144   23.4346 C   0  0  0  0  0  0
  -21.9198   -4.6959   22.3400 C   0  0  0  0  0  0
  -22.7880  -13.5259   21.1816 C   0  0  0  0  0  0
  -22.1669   -4.2144   21.0979 F   0  0  0  0  0  0
  -21.5630   -3.4537   25.7739 F   0  0  0  0  0  0
  -30.0469  -13.2482   20.4491 N   0  0  0  0  0  0
  -26.3065  -12.9322   20.3392 N   0  0  0  0  0  0
  -25.9325  -11.6486   20.5773 N   0  0  0  0  0  0
  -22.0520  -12.8268   22.0380 N   0  0  0  0  0  0
  -25.4378  -15.1870   20.4071 N   0  0  0  0  0  0
  -31.8272  -14.6258   20.0757 O   0  0  0  0  0  0
  -21.6642   -6.8873   21.4236 O   0  0  0  0  0  0
  -22.3566  -14.5559   20.6645 O   0  0  0  0  0  0
  -24.6111  -31.8710   23.2126 C   0  0  0  0  0  0
  -25.9016  -32.4846   23.8407 C   0  0  1  0  0  0
  -27.2357  -27.4586   20.0839 C   0  0  0  0  0  0
  -25.5889  -33.8641   24.2339 N   0  0  0  0  0  0
  -23.3969  -30.4949   21.5536 C   0  0  2  0  0  0
  -24.8407  -28.9619   20.1196 C   0  0  0  0  0  0
  -22.7391  -29.4666   22.5016 C   0  0  0  0  0  0
  -18.0268  -28.1381   22.8496 C   0  0  0  0  0  0
  -24.1488  -36.7328   23.2638 C   0  0  0  0  0  0
  -25.9236  -30.8426   21.3619 C   0  0  0  0  0  0
  -25.9994  -29.4773   20.7122 C   0  0  0  0  0  0
  -27.1984  -28.7335   20.6891 C   0  0  0  0  0  0
  -26.0562  -26.9507   19.4902 C   0  0  0  0  0  0
  -24.8629  -27.6970   19.5078 C   0  0  0  0  0  0
  -23.6032  -29.8277   20.1678 C   0  0  0  0  0  0
  -25.4111  -36.3131   24.0340 C   0  0  1  0  0  0
  -20.5856  -28.3655   23.1339 C   0  0  2  0  0  0
  -20.6766  -26.9401   22.5423 C   0  0  0  0  0  0
  -19.5746  -26.6394   21.5218 C   0  0  0  0  0  0
  -18.1921  -26.7928   22.1630 C   0  0  0  0  0  0
  -19.1516  -28.8836   23.2913 C   0  0  0  0  0  0
  -18.9449  -30.1447   23.8921 C   0  0  0  0  0  0
  -17.6452  -30.6588   24.0571 C   0  0  0  0  0  0
  -25.9039  -34.9491   23.5137 C   0  0  0  0  0  0
  -16.5344  -29.9097   23.6326 C   0  0  0  0  0  0
  -16.7257  -28.6512   23.0346 C   0  0  0  0  0  0
  -26.4453  -31.6617   25.0724 C   0  0  0  0  0  0
  -25.3719  -31.3726   26.1478 C   0  0  0  0  0  0
  -27.0274  -30.3064   24.6069 C   0  0  0  0  0  0
  -27.6042  -32.4330   25.7484 C   0  0  0  0  0  0
  -27.5585  -37.1821   24.8466 C   0  0  0  0  0  0
  -21.4126  -29.3026   22.3754 N   0  0  0  0  0  0
  -26.4303  -37.3806   23.9406 N   0  0  0  0  0  0
  -24.6623  -31.0828   22.1016 N   0  0  0  0  0  0
  -23.4185  -28.8207   23.3036 O   0  0  0  0  0  0
  -28.4383  -26.7850   20.0529 O   0  0  0  0  0  0
  -26.5598  -34.8930   22.4698 O   0  0  0  0  0  0
  -23.5312  -32.1457   23.7531 O   0  0  0  0  0  0
  -31.4233  -23.4082   21.9317 C   0  0  0  0  0  0
  -32.8516  -21.6040   21.1424 C   0  0  0  0  0  0
  -32.6218  -22.9797   21.3339 C   0  0  0  0  0  0
  -30.4430  -22.4753   22.3321 C   0  0  0  0  0  0
  -31.8869  -20.6533   21.5371 C   0  0  0  0  0  0
  -30.6858  -21.0864   22.1586 C   0  0  0  0  0  0
  -31.7606  -18.5541   20.3376 C   0  0  0  0  0  0
  -33.6564  -24.0019   20.9058 C   0  0  0  0  0  0
  -29.1474  -23.0028   22.9452 C   0  0  0  0  0  0
  -30.5343  -17.6520   20.5480 C   0  0  0  0  0  0
  -30.7178  -16.6398   21.7126 C   0  0  0  0  0  0
  -28.2839  -24.9878   21.6738 C   0  0  0  0  0  0
  -28.4411  -25.3619   20.1891 C   0  0  0  0  0  0
  -32.2188  -19.2849   21.3642 N   0  0  0  0  0  0
  -30.1719  -15.3090   21.4206 N   0  0  0  0  0  0
  -28.2408  -23.5193   21.8967 N   0  3  0  0  0  0
  -32.3628  -18.5200   19.2628 O   0  0  0  0  0  0
  -29.5464  -19.9287   22.7551 Cl  0  0  0  0  0  0
  -31.4636  -12.3876   19.0921 H   0  0  0  0  0  0
  -30.3258  -11.2683   19.7842 H   0  0  0  0  0  0
  -29.7207  -11.7956   17.4049 H   0  0  0  0  0  0
  -29.6571  -13.5003   17.7762 H   0  0  0  0  0  0
  -27.8150  -11.3124   18.7994 H   0  0  0  0  0  0
  -27.3577  -12.6564   17.7891 H   0  0  0  0  0  0
  -27.7233  -14.2554   19.6002 H   0  0  0  0  0  0
  -28.6743  -11.9164   21.3200 H   0  0  0  0  0  0
  -28.4660  -13.5403   21.8833 H   0  0  0  0  0  0
  -25.2770   -9.5694   22.4747 H   0  0  0  0  0  0
  -24.0002   -7.4654   22.7480 H   0  0  0  0  0  0
  -21.0833   -8.8765   19.8968 H   0  0  0  0  0  0
  -22.3685  -10.9665   19.6161 H   0  0  0  0  0  0
  -21.2003   -7.6144   23.9703 H   0  0  0  0  0  0
  -21.1473   -6.0523   25.9069 H   0  0  0  0  0  0
  -22.0608   -2.7606   23.2847 H   0  0  0  0  0  0
  -22.4129  -11.9913   22.4749 H   0  0  0  0  0  0
  -21.1137  -13.1293   22.2589 H   0  0  0  0  0  0
  -24.6779  -15.8490   20.5200 H   0  0  0  0  0  0
  -26.2985  -15.6212   20.0970 H   0  0  0  0  0  0
  -26.7083  -32.5574   23.1177 H   0  0  0  0  0  0
  -25.0040  -33.9821   25.0481 H   0  0  0  0  0  0
  -22.6840  -31.3105   21.4172 H   0  0  0  0  0  0
  -23.3746  -35.9666   23.3322 H   0  0  0  0  0  0
  -24.3573  -36.8925   22.2047 H   0  0  0  0  0  0
  -23.7245  -37.6544   23.6632 H   0  0  0  0  0  0
  -26.0289  -31.6064   20.5899 H   0  0  0  0  0  0
  -26.8152  -30.8997   21.9749 H   0  0  0  0  0  0
  -28.0974  -29.1336   21.1365 H   0  0  0  0  0  0
  -26.0380  -26.0010   18.9782 H   0  0  0  0  0  0
  -23.9731  -27.3014   19.0377 H   0  0  0  0  0  0
  -23.7123  -30.6040   19.4092 H   0  0  0  0  0  0
  -22.7274  -29.2469   19.8717 H   0  0  0  0  0  0
  -25.1285  -36.2010   25.0832 H   0  0  0  0  0  0
  -20.9939  -28.3212   24.1463 H   0  0  0  0  0  0
  -20.5690  -26.2257   23.3597 H   0  0  0  0  0  0
  -21.6635  -26.7472   22.1201 H   0  0  0  0  0  0
  -19.6910  -25.6311   21.1235 H   0  0  0  0  0  0
  -19.6689  -27.3217   20.6753 H   0  0  0  0  0  0
  -17.4195  -26.6680   21.4027 H   0  0  0  0  0  0
  -18.0321  -26.0066   22.9020 H   0  0  0  0  0  0
  -19.7925  -30.7254   24.2301 H   0  0  0  0  0  0
  -17.5012  -31.6270   24.5171 H   0  0  0  0  0  0
  -15.5347  -30.3012   23.7635 H   0  0  0  0  0  0
  -15.8656  -28.0846   22.7045 H   0  0  0  0  0  0
  -24.5888  -30.7078   25.7816 H   0  0  0  0  0  0
  -24.8908  -32.2884   26.4918 H   0  0  0  0  0  0
  -25.8067  -30.8902   27.0237 H   0  0  0  0  0  0
  -26.2805  -29.6855   24.1107 H   0  0  0  0  0  0
  -27.4048  -29.7275   25.4507 H   0  0  0  0  0  0
  -27.8635  -30.4407   23.9203 H   0  0  0  0  0  0
  -27.2667  -33.3617   26.2092 H   0  0  0  0  0  0
  -28.3827  -32.6913   25.0294 H   0  0  0  0  0  0
  -28.0724  -31.8431   26.5375 H   0  0  0  0  0  0
  -28.2620  -38.0101   24.7505 H   0  0  0  0  0  0
  -28.1066  -36.2638   24.6306 H   0  0  0  0  0  0
  -27.2302  -37.1495   25.8869 H   0  0  0  0  0  0
  -20.9276  -29.8750   21.6987 H   0  0  0  0  0  0
  -26.0206  -38.2895   24.1383 H   0  0  0  0  0  0
  -31.2615  -24.4652   22.0890 H   0  0  0  0  0  0
  -33.7773  -21.2769   20.6888 H   0  0  0  0  0  0
  -34.2480  -24.3257   21.7623 H   0  0  0  0  0  0
  -33.1695  -24.8805   20.4817 H   0  0  0  0  0  0
  -34.3367  -23.5980   20.1543 H   0  0  0  0  0  0
  -29.3703  -23.7659   23.6924 H   0  0  0  0  0  0
  -28.6226  -22.2272   23.4993 H   0  0  0  0  0  0
  -30.3809  -17.1144   19.6115 H   0  0  0  0  0  0
  -29.6334  -18.2495   20.6741 H   0  0  0  0  0  0
  -31.7732  -16.5300   21.9723 H   0  0  0  0  0  0
  -30.2354  -17.0234   22.6120 H   0  0  0  0  0  0
  -27.3641  -25.4156   22.0724 H   0  0  0  0  0  0
  -29.0991  -25.4495   22.2309 H   0  0  0  0  0  0
  -27.7016  -24.8669   19.5631 H   0  0  0  0  0  0
  -29.4092  -25.0074   19.8319 H   0  0  0  0  0  0
  -33.2231  -19.1855   21.3944 H   0  0  0  0  0  0
  -29.2912  -15.0524   21.8440 H   0  0  0  0  0  0
  -28.4398  -23.0232   21.0431 H   0  0  0  0  0  0
  -27.3007  -23.2717   22.1642 H   0  0  0  0  0  0
  1 25  1  0  0  0
  1 30  2  0  0  0
  1 85  1  0  0  0
  2  3  1  0  0  0
  2 25  1  0  0  0
  2 89  1  0  0  0
  2 90  1  0  0  0
  3  4  1  0  0  0
  3 91  1  0  0  0
  3 92  1  0  0  0
  4  5  1  0  0  0
  4 93  1  0  0  0
  4 94  1  0  0  0
  5  6  1  0  0  0
  5 26  1  0  0  0
  5 95  1  0  0  0
  6 25  1  0  0  0
  6 96  1  0  0  0
  6 97  1  0  0  0
  7  8  2  0  0  0
  7 26  1  0  0  0
  7 29  1  0  0  0
  8  9  1  0  0  0
  8 22  1  0  0  0
  9 10  1  0  0  0
  9 27  2  0  0  0
 10 11  2  0  0  0
 10 15  1  0  0  0
 11 12  1  0  0  0
 11 98  1  0  0  0
 12 13  2  0  0  0
 12 99  1  0  0  0
 13 14  1  0  0  0
 13 31  1  0  0  0
 14 15  2  0  0  0
 14100  1  0  0  0
 15101  1  0  0  0
 16 17  2  0  0  0
 16 21  1  0  0  0
 16 31  1  0  0  0
 17 18  1  0  0  0
 17102  1  0  0  0
 18 19  2  0  0  0
 18103  1  0  0  0
 19 20  1  0  0  0
 19 24  1  0  0  0
 20 21  2  0  0  0
 20104  1  0  0  0
 21 23  1  0  0  0
 22 28  1  0  0  0
 22 32  2  0  0  0
 26 27  1  0  0  0
 28105  1  0  0  0
 28106  1  0  0  0
 29107  1  0  0  0
 29108  1  0  0  0
 33 34  1  0  0  0
 33 66  1  0  0  0
 33 70  2  0  0  0
 34 36  1  0  0  0
 34 59  1  0  0  0
 34109  1  0  0  0
 35 44  2  0  0  0
 35 45  1  0  0  0
 35 68  1  0  0  0
 36 56  1  0  0  0
 36110  1  0  0  0
 37 39  1  0  0  0
 37 47  1  0  0  0
 37 66  1  0  0  0
 37111  1  0  0  0
 38 43  2  0  0  0
 38 46  1  0  0  0
 38 47  1  0  0  0
 39 64  1  0  0  0
 39 67  2  0  0  0
 40 52  1  0  0  0
 40 53  2  0  0  0
 40 58  1  0  0  0
 41112  1  0  0  0
 41113  1  0  0  0
 41114  1  0  0  0
 41 48  1  0  0  0
 42 43  1  0  0  0
 42 66  1  0  0  0
 42115  1  0  0  0
 42116  1  0  0  0
 43 44  1  0  0  0
 44117  1  0  0  0
 45 46  2  0  0  0
 45118  1  0  0  0
 46119  1  0  0  0
 47120  1  0  0  0
 47121  1  0  0  0
 48 56  1  0  0  0
 48 65  1  0  0  0
 48122  1  0  0  0
 49 50  1  0  0  0
 49 53  1  0  0  0
 49 64  1  0  0  0
 49123  1  0  0  0
 50 51  1  0  0  0
 50124  1  0  0  0
 50125  1  0  0  0
 51 52  1  0  0  0
 51126  1  0  0  0
 51127  1  0  0  0
 52128  1  0  0  0
 52129  1  0  0  0
 53 54  1  0  0  0
 54 55  2  0  0  0
 54130  1  0  0  0
 55 57  1  0  0  0
 55131  1  0  0  0
 56 69  2  0  0  0
 57 58  2  0  0  0
 57132  1  0  0  0
 58133  1  0  0  0
 59 60  1  0  0  0
 59 61  1  0  0  0
 59 62  1  0  0  0
 60134  1  0  0  0
 60135  1  0  0  0
 60136  1  0  0  0
 61137  1  0  0  0
 61138  1  0  0  0
 61139  1  0  0  0
 62140  1  0  0  0
 62141  1  0  0  0
 62142  1  0  0  0
 63 65  1  0  0  0
 63143  1  0  0  0
 63144  1  0  0  0
 63145  1  0  0  0
 64146  1  0  0  0
 65147  1  0  0  0
 68 83  1  0  0  0
 71 73  2  0  0  0
 71 74  1  0  0  0
 71148  1  0  0  0
 72 73  1  0  0  0
 72 75  2  0  0  0
 72149  1  0  0  0
 73 78  1  0  0  0
 74 76  2  0  0  0
 74 79  1  0  0  0
 75 76  1  0  0  0
 75 84  1  0  0  0
 76 88  1  0  0  0
 77 80  1  0  0  0
 77 84  1  0  0  0
 77 87  2  0  0  0
 78150  1  0  0  0
 78151  1  0  0  0
 78152  1  0  0  0
 79 86  1  0  0  0
 79153  1  0  0  0
 79154  1  0  0  0
 80 81  1  0  0  0
 80155  1  0  0  0
 80156  1  0  0  0
 81 85  1  0  0  0
 81157  1  0  0  0
 81158  1  0  0  0
 82 83  1  0  0  0
 82 86  1  0  0  0
 82159  1  0  0  0
 82160  1  0  0  0
 83161  1  0  0  0
 83162  1  0  0  0
 84163  1  0  0  0
 85164  1  0  0  0
 86165  1  0  0  0
 86166  1  0  0  0
M  CHG  1  86   1
M  ISO  4   1 100  68 101  83 101  85 100
M  END
> <chiral flag>
0

> <version>
0

> <s_m_source_file>
/data/baiqing/PycharmProjects/Reinvent-master-3.2/result/LINK_invent/BTK/process_docking_weight1_custom_sum_contain_oxygen_bond_distance_aromatic_linkinvent_7_9_3/rearranged_h_0015.sdf

> <i_m_source_file_index>
82

> <r_mmod_Potential_Energy-OPLS-2005>
-215.873474121094

> <r_mmod_Stretch_Energy-OPLS-2005>
34.6901397705078

> <r_mmod_Bend_Energy-OPLS-2005>
106.702880859375

> <r_mmod_Torsional_Energy-OPLS-2005>
291.276947021484

> <r_mmod_Improper_Torsional_Energy-OPLS-2005>
8.22861862182617

> <r_mmod_Van_der_Waal_Energy-OPLS-2005>
153.273239135742

> <r_mmod_Electrostatic_Energy-OPLS-2005>
-331.089630126953

> <r_mmod_Solvation_Energy-OPLS-2005>
-487.082244873047

> <b_mmod_Minimization_Converged-OPLS-2005>
0

> <r_mmod_RMS_Derivative-OPLS-2005>
1.6316134929657

$$$$
83
                    3D
 Structure written by MMmdl.
164172  0  0  1  0            999 V2000
  -30.7011  -14.4637   20.5581 C   0  0  0  0  0  0
  -30.4257  -12.3017   19.4149 C   0  0  0  0  0  0
  -29.4928  -12.5073   18.2048 C   0  0  0  0  0  0
  -28.0142  -12.3652   18.6174 C   0  0  0  0  0  0
  -27.6626  -13.1911   19.8839 C   0  0  2  0  0  0
  -28.7101  -12.9706   20.9985 C   0  0  0  0  0  0
  -25.2616  -13.8117   20.5688 C   0  0  0  0  0  0
  -24.1846  -13.0426   20.9190 C   0  0  0  0  0  0
  -24.6375  -11.6884   20.8749 C   0  0  0  0  0  0
  -23.9045  -10.4281   21.0407 C   0  0  0  0  0  0
  -24.3608   -9.4202   21.9181 C   0  0  0  0  0  0
  -23.6292   -8.2239   22.0749 C   0  0  0  0  0  0
  -22.4272   -8.0276   21.3543 C   0  0  0  0  0  0
  -21.9904   -9.0252   20.4647 C   0  0  0  0  0  0
  -22.7226  -10.2130   20.3055 C   0  0  0  0  0  0
  -21.6850   -6.0737   22.5280 C   0  0  0  0  0  0
  -21.4015   -6.5641   23.8213 C   0  0  0  0  0  0
  -21.3660   -5.6795   24.9173 C   0  0  0  0  0  0
  -21.6047   -4.3056   24.7227 C   0  0  0  0  0  0
  -21.8824   -3.8152   23.4345 C   0  0  0  0  0  0
  -21.9200   -4.6969   22.3404 C   0  0  0  0  0  0
  -22.7880  -13.5249   21.1857 C   0  0  0  0  0  0
  -22.1661   -4.2158   21.0981 F   0  0  0  0  0  0
  -21.5631   -3.4536   25.7747 F   0  0  0  0  0  0
  -30.0414  -13.2786   20.4438 N   0  0  0  0  0  0
  -26.3032  -12.9242   20.3421 N   0  0  0  0  0  0
  -25.9299  -11.6424   20.5808 N   0  0  0  0  0  0
  -22.0505  -12.8243   22.0396 N   0  0  0  0  0  0
  -25.4390  -15.1828   20.4065 N   0  0  0  0  0  0
  -31.8231  -14.6631   20.0850 O   0  0  0  0  0  0
  -21.6639   -6.8873   21.4242 O   0  0  0  0  0  0
  -22.3579  -14.5558   20.6701 O   0  0  0  0  0  0
  -24.6139  -31.8656   23.2104 C   0  0  0  0  0  0
  -25.9043  -32.4791   23.8384 C   0  0  1  0  0  0
  -27.2483  -27.4373   20.0857 C   0  0  0  0  0  0
  -25.5906  -33.8598   24.2308 N   0  0  0  0  0  0
  -23.4003  -30.4903   21.5492 C   0  0  2  0  0  0
  -24.8473  -28.9515   20.1157 C   0  0  0  0  0  0
  -22.7376  -29.4668   22.4981 C   0  0  0  0  0  0
  -18.0265  -28.1361   22.8488 C   0  0  0  0  0  0
  -24.1491  -36.7314   23.2643 C   0  0  0  0  0  0
  -25.9296  -30.8277   21.3657 C   0  0  0  0  0  0
  -26.0045  -29.4627   20.7122 C   0  0  0  0  0  0
  -27.2006  -28.7112   20.6992 C   0  0  0  0  0  0
  -26.0618  -26.9255   19.5087 C   0  0  0  0  0  0
  -24.8701  -27.6789   19.5165 C   0  0  0  0  0  0
  -23.6089  -29.8196   20.1639 C   0  0  0  0  0  0
  -25.4105  -36.3087   24.0324 C   0  0  1  0  0  0
  -20.5855  -28.3664   23.1295 C   0  0  2  0  0  0
  -20.6767  -26.9401   22.5406 C   0  0  0  0  0  0
  -19.5751  -26.6374   21.5198 C   0  0  0  0  0  0
  -18.1925  -26.7909   22.1607 C   0  0  0  0  0  0
  -19.1517  -28.8822   23.2898 C   0  0  0  0  0  0
  -18.9455  -30.1432   23.8909 C   0  0  0  0  0  0
  -17.6462  -30.6585   24.0561 C   0  0  0  0  0  0
  -25.9031  -34.9456   23.5109 C   0  0  0  0  0  0
  -16.5347  -29.9084   23.6338 C   0  0  0  0  0  0
  -16.7255  -28.6493   23.0360 C   0  0  0  0  0  0
  -26.4500  -31.6591   25.0711 C   0  0  0  0  0  0
  -25.3783  -31.3701   26.1474 C   0  0  0  0  0  0
  -27.0353  -30.3025   24.6120 C   0  0  0  0  0  0
  -27.6055  -32.4340   25.7477 C   0  0  0  0  0  0
  -27.5577  -37.1807   24.8460 C   0  0  0  0  0  0
  -21.4110  -29.3038   22.3700 N   0  0  0  0  0  0
  -26.4287  -37.3770   23.9404 N   0  0  0  0  0  0
  -24.6654  -31.0762   22.0997 N   0  0  0  0  0  0
  -23.4149  -28.8205   23.3020 O   0  0  0  0  0  0
  -28.4546  -26.7601   20.0969 O   0  0  0  0  0  0
  -26.5600  -34.8914   22.4672 O   0  0  0  0  0  0
  -23.5338  -32.1414   23.7502 O   0  0  0  0  0  0
  -29.5561  -18.7526   19.3935 C   0  0  0  0  0  0
  -30.7575  -17.7212   21.7082 C   0  0  0  0  0  0
  -30.1584  -19.6479   20.3043 C   0  0  0  0  0  0
  -30.1191  -16.8365   20.8088 C   0  0  0  0  0  0
  -30.7833  -19.1165   21.4649 C   0  0  0  0  0  0
  -29.5249  -17.3673   19.6371 C   0  0  0  0  0  0
  -30.1770  -21.1273   19.9811 C   0  0  0  0  0  0
  -31.2564  -21.8927   23.7240 C   0  0  0  0  0  0
  -27.6965  -21.1721   20.1753 C   0  0  0  0  0  0
  -28.6671  -24.2840   20.0430 C   0  0  0  0  0  0
  -28.8829  -23.0652   19.1117 C   0  0  0  0  0  0
  -30.5681  -20.6035   23.2721 C   0  0  0  0  0  0
  -28.6731  -25.6170   19.2589 C   0  0  0  0  0  0
  -29.9988  -15.4530   21.1338 N   0  0  0  0  0  0
  -28.9868  -21.7656   19.8072 N   0  0  0  0  0  0
  -31.2643  -21.6926   19.8365 O   0  0  0  0  0  0
  -31.4305  -19.9216   22.3691 O   0  0  0  0  0  0
  -28.7356  -16.3652   18.4739 Cl  0  0  0  0  0  0
  -31.4672  -12.4106   19.1071 H   0  0  0  0  0  0
  -30.3319  -11.2869   19.8046 H   0  0  0  0  0  0
  -29.7318  -11.7899   17.4189 H   0  0  0  0  0  0
  -29.6602  -13.4970   17.7755 H   0  0  0  0  0  0
  -27.8201  -11.3072   18.7969 H   0  0  0  0  0  0
  -27.3663  -12.6558   17.7892 H   0  0  0  0  0  0
  -27.6989  -14.2375   19.6032 H   0  0  0  0  0  0
  -28.6876  -11.9325   21.3341 H   0  0  0  0  0  0
  -28.4725  -13.5650   21.8820 H   0  0  0  0  0  0
  -25.2750   -9.5689   22.4758 H   0  0  0  0  0  0
  -24.0016   -7.4628   22.7456 H   0  0  0  0  0  0
  -21.0846   -8.8768   19.8946 H   0  0  0  0  0  0
  -22.3683  -10.9677   19.6176 H   0  0  0  0  0  0
  -21.1990   -7.6147   23.9719 H   0  0  0  0  0  0
  -21.1477   -6.0520   25.9079 H   0  0  0  0  0  0
  -22.0601   -2.7618   23.2849 H   0  0  0  0  0  0
  -22.4121  -11.9906   22.4790 H   0  0  0  0  0  0
  -21.1119  -13.1267   22.2580 H   0  0  0  0  0  0
  -24.6768  -15.8440   20.5050 H   0  0  0  0  0  0
  -26.2900  -15.6100   20.0637 H   0  0  0  0  0  0
  -26.7097  -32.5489   23.1134 H   0  0  0  0  0  0
  -25.0106  -33.9787   25.0487 H   0  0  0  0  0  0
  -22.6905  -31.3088   21.4082 H   0  0  0  0  0  0
  -23.3733  -35.9673   23.3302 H   0  0  0  0  0  0
  -24.3585  -36.8932   22.2063 H   0  0  0  0  0  0
  -23.7274  -37.6522   23.6669 H   0  0  0  0  0  0
  -26.0510  -31.5923   20.5977 H   0  0  0  0  0  0
  -26.8156  -30.8741   21.9875 H   0  0  0  0  0  0
  -28.0949  -29.1090   21.1588 H   0  0  0  0  0  0
  -26.0307  -25.9431   19.0603 H   0  0  0  0  0  0
  -23.9756  -27.2708   19.0674 H   0  0  0  0  0  0
  -23.7128  -30.5942   19.4029 H   0  0  0  0  0  0
  -22.7331  -29.2380   19.8694 H   0  0  0  0  0  0
  -25.1282  -36.1950   25.0812 H   0  0  0  0  0  0
  -20.9967  -28.3255   24.1407 H   0  0  0  0  0  0
  -20.5664  -26.2282   23.3601 H   0  0  0  0  0  0
  -21.6643  -26.7451   22.1197 H   0  0  0  0  0  0
  -19.6922  -25.6285   21.1234 H   0  0  0  0  0  0
  -19.6690  -27.3188   20.6728 H   0  0  0  0  0  0
  -17.4196  -26.6662   21.4002 H   0  0  0  0  0  0
  -18.0333  -26.0033   22.8981 H   0  0  0  0  0  0
  -19.7937  -30.7239   24.2287 H   0  0  0  0  0  0
  -17.5024  -31.6272   24.5151 H   0  0  0  0  0  0
  -15.5355  -30.2998   23.7652 H   0  0  0  0  0  0
  -15.8646  -28.0815   22.7085 H   0  0  0  0  0  0
  -24.5924  -30.7074   25.7835 H   0  0  0  0  0  0
  -24.9026  -32.2864   26.4969 H   0  0  0  0  0  0
  -25.8157  -30.8836   27.0200 H   0  0  0  0  0  0
  -26.2899  -29.6731   24.1236 H   0  0  0  0  0  0
  -27.4177  -29.7313   25.4596 H   0  0  0  0  0  0
  -27.8711  -30.4316   23.9235 H   0  0  0  0  0  0
  -27.2638  -33.3619   26.2079 H   0  0  0  0  0  0
  -28.3864  -32.6948   25.0317 H   0  0  0  0  0  0
  -28.0731  -31.8453   26.5380 H   0  0  0  0  0  0
  -28.2592  -38.0111   24.7497 H   0  0  0  0  0  0
  -28.1070  -36.2631   24.6285 H   0  0  0  0  0  0
  -27.2294  -37.1464   25.8865 H   0  0  0  0  0  0
  -20.9265  -29.8748   21.6914 H   0  0  0  0  0  0
  -26.0162  -38.2840   24.1399 H   0  0  0  0  0  0
  -29.1015  -19.1298   18.4884 H   0  0  0  0  0  0
  -31.2225  -17.3352   22.6036 H   0  0  0  0  0  0
  -30.6117  -22.4695   24.3884 H   0  0  0  0  0  0
  -31.5041  -22.5250   22.8706 H   0  0  0  0  0  0
  -32.1806  -21.6743   24.2595 H   0  0  0  0  0  0
  -27.7713  -20.5828   21.0907 H   0  0  0  0  0  0
  -27.3267  -20.5243   19.3804 H   0  0  0  0  0  0
  -26.9403  -21.9346   20.3602 H   0  0  0  0  0  0
  -29.4465  -24.3108   20.8065 H   0  0  0  0  0  0
  -27.7186  -24.1782   20.5714 H   0  0  0  0  0  0
  -29.7726  -23.2342   18.5007 H   0  0  0  0  0  0
  -28.0587  -23.0117   18.3994 H   0  0  0  0  0  0
  -29.6066  -20.8461   22.8182 H   0  0  0  0  0  0
  -30.3621  -19.9573   24.1259 H   0  0  0  0  0  0
  -28.0039  -25.5756   18.4012 H   0  0  0  0  0  0
  -29.6644  -25.7444   18.8215 H   0  0  0  0  0  0
  -29.1111  -15.1678   21.5157 H   0  0  0  0  0  0
  1 25  1  0  0  0
  1 30  2  0  0  0
  1 84  1  0  0  0
  2  3  1  0  0  0
  2 25  1  0  0  0
  2 89  1  0  0  0
  2 90  1  0  0  0
  3  4  1  0  0  0
  3 91  1  0  0  0
  3 92  1  0  0  0
  4  5  1  0  0  0
  4 93  1  0  0  0
  4 94  1  0  0  0
  5  6  1  0  0  0
  5 26  1  0  0  0
  5 95  1  0  0  0
  6 25  1  0  0  0
  6 96  1  0  0  0
  6 97  1  0  0  0
  7  8  2  0  0  0
  7 26  1  0  0  0
  7 29  1  0  0  0
  8  9  1  0  0  0
  8 22  1  0  0  0
  9 10  1  0  0  0
  9 27  2  0  0  0
 10 11  2  0  0  0
 10 15  1  0  0  0
 11 12  1  0  0  0
 11 98  1  0  0  0
 12 13  2  0  0  0
 12 99  1  0  0  0
 13 14  1  0  0  0
 13 31  1  0  0  0
 14 15  2  0  0  0
 14100  1  0  0  0
 15101  1  0  0  0
 16 17  2  0  0  0
 16 21  1  0  0  0
 16 31  1  0  0  0
 17 18  1  0  0  0
 17102  1  0  0  0
 18 19  2  0  0  0
 18103  1  0  0  0
 19 20  1  0  0  0
 19 24  1  0  0  0
 20 21  2  0  0  0
 20104  1  0  0  0
 21 23  1  0  0  0
 22 28  1  0  0  0
 22 32  2  0  0  0
 26 27  1  0  0  0
 28105  1  0  0  0
 28106  1  0  0  0
 29107  1  0  0  0
 29108  1  0  0  0
 33 34  1  0  0  0
 33 66  1  0  0  0
 33 70  2  0  0  0
 34 36  1  0  0  0
 34 59  1  0  0  0
 34109  1  0  0  0
 35 44  2  0  0  0
 35 45  1  0  0  0
 35 68  1  0  0  0
 36 56  1  0  0  0
 36110  1  0  0  0
 37 39  1  0  0  0
 37 47  1  0  0  0
 37 66  1  0  0  0
 37111  1  0  0  0
 38 43  2  0  0  0
 38 46  1  0  0  0
 38 47  1  0  0  0
 39 64  1  0  0  0
 39 67  2  0  0  0
 40 52  1  0  0  0
 40 53  2  0  0  0
 40 58  1  0  0  0
 41112  1  0  0  0
 41113  1  0  0  0
 41114  1  0  0  0
 41 48  1  0  0  0
 42 43  1  0  0  0
 42 66  1  0  0  0
 42115  1  0  0  0
 42116  1  0  0  0
 43 44  1  0  0  0
 44117  1  0  0  0
 45 46  2  0  0  0
 45118  1  0  0  0
 46119  1  0  0  0
 47120  1  0  0  0
 47121  1  0  0  0
 48 56  1  0  0  0
 48 65  1  0  0  0
 48122  1  0  0  0
 49 50  1  0  0  0
 49 53  1  0  0  0
 49 64  1  0  0  0
 49123  1  0  0  0
 50 51  1  0  0  0
 50124  1  0  0  0
 50125  1  0  0  0
 51 52  1  0  0  0
 51126  1  0  0  0
 51127  1  0  0  0
 52128  1  0  0  0
 52129  1  0  0  0
 53 54  1  0  0  0
 54 55  2  0  0  0
 54130  1  0  0  0
 55 57  1  0  0  0
 55131  1  0  0  0
 56 69  2  0  0  0
 57 58  2  0  0  0
 57132  1  0  0  0
 58133  1  0  0  0
 59 60  1  0  0  0
 59 61  1  0  0  0
 59 62  1  0  0  0
 60134  1  0  0  0
 60135  1  0  0  0
 60136  1  0  0  0
 61137  1  0  0  0
 61138  1  0  0  0
 61139  1  0  0  0
 62140  1  0  0  0
 62141  1  0  0  0
 62142  1  0  0  0
 63 65  1  0  0  0
 63143  1  0  0  0
 63144  1  0  0  0
 63145  1  0  0  0
 64146  1  0  0  0
 65147  1  0  0  0
 68 83  1  0  0  0
 71 73  2  0  0  0
 71 76  1  0  0  0
 71148  1  0  0  0
 72 74  1  0  0  0
 72 75  2  0  0  0
 72149  1  0  0  0
 73 75  1  0  0  0
 73 77  1  0  0  0
 74 76  2  0  0  0
 74 84  1  0  0  0
 75 87  1  0  0  0
 76 88  1  0  0  0
 77 85  1  0  0  0
 77 86  2  0  0  0
 78 82  1  0  0  0
 78150  1  0  0  0
 78151  1  0  0  0
 78152  1  0  0  0
 79 85  1  0  0  0
 79153  1  0  0  0
 79154  1  0  0  0
 79155  1  0  0  0
 80 81  1  0  0  0
 80 83  1  0  0  0
 80156  1  0  0  0
 80157  1  0  0  0
 81 85  1  0  0  0
 81158  1  0  0  0
 81159  1  0  0  0
 82 87  1  0  0  0
 82160  1  0  0  0
 82161  1  0  0  0
 83162  1  0  0  0
 83163  1  0  0  0
 84164  1  0  0  0
M  ISO  4   1 100  68 101  83 101  84 100
M  END
> <chiral flag>
0

> <version>
0

> <s_m_source_file>
/data/baiqing/PycharmProjects/Reinvent-master-3.2/result/LINK_invent/BTK/process_docking_weight1_custom_sum_contain_oxygen_bond_distance_aromatic_linkinvent_7_9_3/rearranged_h_0015.sdf

> <i_m_source_file_index>
83

> <r_mmod_Potential_Energy-OPLS-2005>
17.8648490905762

> <r_mmod_Stretch_Energy-OPLS-2005>
39.6026573181152

> <r_mmod_Bend_Energy-OPLS-2005>
104.22386932373

> <r_mmod_Torsional_Energy-OPLS-2005>
312.830444335938

> <r_mmod_Improper_Torsional_Energy-OPLS-2005>
4.92547988891602

> <r_mmod_Van_der_Waal_Energy-OPLS-2005>
149.468307495117

> <r_mmod_Electrostatic_Energy-OPLS-2005>
-372.906707763672

> <r_mmod_Solvation_Energy-OPLS-2005>
-232.434616088867

> <b_mmod_Minimization_Converged-OPLS-2005>
0

> <r_mmod_RMS_Derivative-OPLS-2005>
2.11444044113159

$$$$
84
                    3D
 Structure written by MMmdl.
191198  0  0  1  0            999 V2000
  -30.8216  -14.3080   20.7206 C   0  0  0  0  0  0
  -30.4083  -12.2856   19.3742 C   0  0  0  0  0  0
  -29.4729  -12.5261   18.1788 C   0  0  0  0  0  0
  -28.0003  -12.3839   18.6045 C   0  0  0  0  0  0
  -27.6663  -13.2062   19.8751 C   0  0  2  0  0  0
  -28.7074  -12.9586   20.9883 C   0  0  0  0  0  0
  -25.2613  -13.8162   20.5666 C   0  0  0  0  0  0
  -24.1865  -13.0437   20.9175 C   0  0  0  0  0  0
  -24.6438  -11.6904   20.8762 C   0  0  0  0  0  0
  -23.9098  -10.4288   21.0427 C   0  0  0  0  0  0
  -24.3640   -9.4196   21.9204 C   0  0  0  0  0  0
  -23.6307   -8.2245   22.0772 C   0  0  0  0  0  0
  -22.4289   -8.0292   21.3556 C   0  0  0  0  0  0
  -21.9928   -9.0271   20.4663 C   0  0  0  0  0  0
  -22.7280  -10.2143   20.3075 C   0  0  0  0  0  0
  -21.6854   -6.0747   22.5281 C   0  0  0  0  0  0
  -21.4024   -6.5652   23.8220 C   0  0  0  0  0  0
  -21.3654   -5.6798   24.9174 C   0  0  0  0  0  0
  -21.6037   -4.3055   24.7218 C   0  0  0  0  0  0
  -21.8829   -3.8155   23.4339 C   0  0  0  0  0  0
  -21.9199   -4.6978   22.3400 C   0  0  0  0  0  0
  -22.7890  -13.5239   21.1819 C   0  0  0  0  0  0
  -22.1665   -4.2168   21.0978 F   0  0  0  0  0  0
  -21.5620   -3.4536   25.7724 F   0  0  0  0  0  0
  -30.0537  -13.2259   20.4465 N   0  0  0  0  0  0
  -26.3060  -12.9340   20.3378 N   0  0  0  0  0  0
  -25.9357  -11.6501   20.5794 N   0  0  0  0  0  0
  -22.0521  -12.8245   22.0382 N   0  0  0  0  0  0
  -25.4336  -15.1871   20.4076 N   0  0  0  0  0  0
  -31.7900  -14.6480   20.0315 O   0  0  0  0  0  0
  -21.6640   -6.8893   21.4251 O   0  0  0  0  0  0
  -22.3594  -14.5554   20.6661 O   0  0  0  0  0  0
  -24.6119  -31.8682   23.2144 C   0  0  0  0  0  0
  -25.9022  -32.4805   23.8432 C   0  0  1  0  0  0
  -27.2346  -27.4688   20.1076 C   0  0  0  0  0  0
  -25.5910  -33.8612   24.2354 N   0  0  0  0  0  0
  -23.3971  -30.5001   21.5464 C   0  0  2  0  0  0
  -24.8460  -28.9634   20.1146 C   0  0  0  0  0  0
  -22.7355  -29.4747   22.4932 C   0  0  0  0  0  0
  -18.0272  -28.1367   22.8535 C   0  0  0  0  0  0
  -24.1484  -36.7295   23.2649 C   0  0  0  0  0  0
  -25.9250  -30.8434   21.3658 C   0  0  0  0  0  0
  -26.0008  -29.4808   20.7174 C   0  0  0  0  0  0
  -27.1985  -28.7398   20.7164 C   0  0  0  0  0  0
  -26.0750  -26.9630   19.4847 C   0  0  0  0  0  0
  -24.8765  -27.6999   19.4956 C   0  0  0  0  0  0
  -23.6059  -29.8264   20.1623 C   0  0  0  0  0  0
  -25.4107  -36.3106   24.0356 C   0  0  1  0  0  0
  -20.5869  -28.3653   23.1314 C   0  0  2  0  0  0
  -20.6768  -26.9359   22.5453 C   0  0  0  0  0  0
  -19.5730  -26.6363   21.5261 C   0  0  0  0  0  0
  -18.1909  -26.7917   22.1652 C   0  0  0  0  0  0
  -19.1523  -28.8824   23.2936 C   0  0  0  0  0  0
  -18.9437  -30.1448   23.8912 C   0  0  0  0  0  0
  -17.6432  -30.6580   24.0566 C   0  0  0  0  0  0
  -25.9028  -34.9469   23.5145 C   0  0  0  0  0  0
  -16.5331  -29.9066   23.6351 C   0  0  0  0  0  0
  -16.7253  -28.6490   23.0363 C   0  0  0  0  0  0
  -26.4450  -31.6565   25.0744 C   0  0  0  0  0  0
  -25.3730  -31.3618   26.1489 C   0  0  0  0  0  0
  -27.0270  -30.3019   24.6087 C   0  0  0  0  0  0
  -27.6048  -32.4269   25.7481 C   0  0  0  0  0  0
  -27.5583  -37.1787   24.8457 C   0  0  0  0  0  0
  -21.4093  -29.3059   22.3689 N   0  0  0  0  0  0
  -26.4292  -37.3795   23.9414 N   0  0  0  0  0  0
  -24.6622  -31.0846   22.1006 N   0  0  0  0  0  0
  -23.4153  -28.8348   23.2955 O   0  0  0  0  0  0
  -28.3705  -26.6988   20.1206 O   0  0  0  0  0  0
  -26.5569  -34.8922   22.4692 O   0  0  0  0  0  0
  -23.5326  -32.1439   23.7555 O   0  0  0  0  0  0
  -24.8036  -22.4616   23.8806 C   0  0  0  0  0  0
  -26.7129  -22.1603   22.3476 C   0  0  0  0  0  0
  -24.5705  -26.5215   25.0885 C   0  0  0  0  0  0
  -26.3551  -26.8423   26.8340 C   0  0  0  0  0  0
  -29.1753  -24.2563   23.8514 C   0  0  0  0  0  0
  -29.7945  -16.2652   24.4732 C   0  0  0  0  0  0
  -29.1703  -17.3497   25.3722 C   0  0  0  0  0  0
  -30.7960  -16.8249   23.4448 C   0  0  0  0  0  0
  -28.2431  -18.3102   24.6063 C   0  0  0  0  0  0
  -26.4085  -24.7753   25.3544 C   0  0  0  0  0  0
  -31.5086  -15.7454   22.6201 C   0  0  0  0  0  0
  -27.7006  -19.4726   25.4579 C   0  0  0  0  0  0
  -27.9016  -25.0278   21.8572 C   0  0  0  0  0  0
  -27.0411  -21.8161   24.8563 C   0  0  0  0  0  0
  -28.7466  -26.2507   21.4261 C   0  0  0  0  0  0
  -26.6157  -24.2349   23.9103 C   0  0  2  0  0  0
  -26.3370  -22.6784   23.7586 C   0  0  0  0  0  0
  -26.0442  -26.2753   25.4428 C   0  0  0  0  0  0
  -30.5699  -14.8884   21.8979 N   0  0  0  0  0  0
  -26.8585  -20.3635   24.6326 N   0  3  0  0  0  0
  -27.8925  -24.7976   23.3344 N   0  3  1  0  0  0
  -26.8170  -26.9578   24.5931 F   0  0  0  0  0  0
  -31.4515  -12.3772   19.0635 H   0  0  0  0  0  0
  -30.3016  -11.2611   19.7329 H   0  0  0  0  0  0
  -29.6969  -11.8224   17.3748 H   0  0  0  0  0  0
  -29.6486  -13.5228   17.7741 H   0  0  0  0  0  0
  -27.8030  -11.3279   18.7841 H   0  0  0  0  0  0
  -27.3420  -12.6792   17.7872 H   0  0  0  0  0  0
  -27.7198  -14.2589   19.5983 H   0  0  0  0  0  0
  -28.6695  -11.9216   21.3263 H   0  0  0  0  0  0
  -28.4571  -13.5622   21.8601 H   0  0  0  0  0  0
  -25.2792   -9.5648   22.4772 H   0  0  0  0  0  0
  -24.0003   -7.4623   22.7490 H   0  0  0  0  0  0
  -21.0863   -8.8819   19.8951 H   0  0  0  0  0  0
  -22.3777  -10.9691   19.6176 H   0  0  0  0  0  0
  -21.2038   -7.6167   23.9729 H   0  0  0  0  0  0
  -21.1451   -6.0522   25.9074 H   0  0  0  0  0  0
  -22.0615   -2.7624   23.2825 H   0  0  0  0  0  0
  -22.4097  -11.9883   22.4760 H   0  0  0  0  0  0
  -21.1139  -13.1292   22.2552 H   0  0  0  0  0  0
  -24.6704  -15.8435   20.5252 H   0  0  0  0  0  0
  -26.2936  -15.6273   20.1033 H   0  0  0  0  0  0
  -26.7107  -32.5518   23.1212 H   0  0  0  0  0  0
  -25.0094  -33.9783   25.0523 H   0  0  0  0  0  0
  -22.6894  -31.3190   21.4037 H   0  0  0  0  0  0
  -23.3780  -35.9590   23.3296 H   0  0  0  0  0  0
  -24.3599  -36.8926   22.2069 H   0  0  0  0  0  0
  -23.7189  -37.6484   23.6654 H   0  0  0  0  0  0
  -26.0420  -31.6060   20.5955 H   0  0  0  0  0  0
  -26.8127  -30.8937   21.9849 H   0  0  0  0  0  0
  -28.0856  -29.1458   21.1836 H   0  0  0  0  0  0
  -26.0957  -25.9923   19.0108 H   0  0  0  0  0  0
  -23.9903  -27.2962   19.0248 H   0  0  0  0  0  0
  -23.7099  -30.5952   19.3951 H   0  0  0  0  0  0
  -22.7328  -29.2397   19.8701 H   0  0  0  0  0  0
  -25.1281  -36.1984   25.0854 H   0  0  0  0  0  0
  -21.0001  -28.3196   24.1413 H   0  0  0  0  0  0
  -20.5675  -26.2242   23.3658 H   0  0  0  0  0  0
  -21.6632  -26.7371   22.1229 H   0  0  0  0  0  0
  -19.6850  -25.6281   21.1261 H   0  0  0  0  0  0
  -19.6688  -27.3212   20.6827 H   0  0  0  0  0  0
  -17.4207  -26.6738   21.4025 H   0  0  0  0  0  0
  -18.0247  -26.0040   22.9016 H   0  0  0  0  0  0
  -19.7908  -30.7289   24.2267 H   0  0  0  0  0  0
  -17.4963  -31.6256   24.5154 H   0  0  0  0  0  0
  -15.5315  -30.2942   23.7678 H   0  0  0  0  0  0
  -15.8662  -28.0795   22.7044 H   0  0  0  0  0  0
  -24.5943  -30.6911   25.7809 H   0  0  0  0  0  0
  -24.8869  -32.2754   26.4923 H   0  0  0  0  0  0
  -25.8116  -30.8791   27.0236 H   0  0  0  0  0  0
  -26.2778  -29.6762   24.1217 H   0  0  0  0  0  0
  -27.4135  -29.7236   25.4488 H   0  0  0  0  0  0
  -27.8572  -30.4353   23.9158 H   0  0  0  0  0  0
  -27.2682  -33.3558   26.2091 H   0  0  0  0  0  0
  -28.3820  -32.6852   25.0269 H   0  0  0  0  0  0
  -28.0763  -31.8376   26.5358 H   0  0  0  0  0  0
  -28.2577  -38.0105   24.7566 H   0  0  0  0  0  0
  -28.1113  -36.2663   24.6210 H   0  0  0  0  0  0
  -27.2321  -37.1324   25.8858 H   0  0  0  0  0  0
  -20.9231  -29.8766   21.6916 H   0  0  0  0  0  0
  -26.0193  -38.2868   24.1461 H   0  0  0  0  0  0
  -24.5128  -21.4393   23.6373 H   0  0  0  0  0  0
  -24.2522  -23.1029   23.1920 H   0  0  0  0  0  0
  -24.4197  -22.6609   24.8807 H   0  0  0  0  0  0
  -26.3121  -21.1638   22.1580 H   0  0  0  0  0  0
  -27.7898  -22.0962   22.1947 H   0  0  0  0  0  0
  -26.2947  -22.7958   21.5665 H   0  0  0  0  0  0
  -23.9146  -25.8412   25.6329 H   0  0  0  0  0  0
  -24.3775  -26.3864   24.0236 H   0  0  0  0  0  0
  -24.2708  -27.5361   25.3533 H   0  0  0  0  0  0
  -25.7899  -26.3246   27.6090 H   0  0  0  0  0  0
  -26.1063  -27.9026   26.8936 H   0  0  0  0  0  0
  -27.4154  -26.7469   27.0706 H   0  0  0  0  0  0
  -29.9980  -24.9226   23.5953 H   0  0  0  0  0  0
  -29.4120  -23.2784   23.4357 H   0  0  0  0  0  0
  -29.1862  -24.1794   24.9368 H   0  0  0  0  0  0
  -29.0036  -15.7132   23.9647 H   0  0  0  0  0  0
  -30.3111  -15.5398   25.1047 H   0  0  0  0  0  0
  -29.9621  -17.9106   25.8690 H   0  0  0  0  0  0
  -28.6012  -16.8654   26.1685 H   0  0  0  0  0  0
  -31.5503  -17.4184   23.9635 H   0  0  0  0  0  0
  -30.3033  -17.5075   22.7536 H   0  0  0  0  0  0
  -27.4196  -17.7419   24.1739 H   0  0  0  0  0  0
  -28.7891  -18.7396   23.7671 H   0  0  0  0  0  0
  -27.2895  -24.5770   25.9615 H   0  0  0  0  0  0
  -25.6153  -24.2255   25.8581 H   0  0  0  0  0  0
  -32.1140  -15.1132   23.2719 H   0  0  0  0  0  0
  -32.2077  -16.2312   21.9361 H   0  0  0  0  0  0
  -28.5407  -20.0250   25.8805 H   0  0  0  0  0  0
  -27.1139  -19.1065   26.3023 H   0  0  0  0  0  0
  -28.2759  -24.1503   21.3333 H   0  0  0  0  0  0
  -26.8792  -25.1760   21.5103 H   0  0  0  0  0  0
  -26.6740  -22.0622   25.8549 H   0  0  0  0  0  0
  -28.1098  -22.0240   24.8701 H   0  0  0  0  0  0
  -29.7978  -25.9648   21.3945 H   0  0  0  0  0  0
  -28.6735  -27.0624   22.1547 H   0  0  0  0  0  0
  -25.8282  -24.7140   23.3278 H   0  0  0  0  0  0
  -29.7542  -14.5613   22.3940 H   0  0  0  0  0  0
  -25.8906  -20.1111   24.7653 H   0  0  0  0  0  0
  -27.0872  -20.1894   23.6668 H   0  0  0  0  0  0
  -27.8487  -25.7397   23.7116 H   0  0  0  0  0  0
  1 25  1  0  0  0
  1 30  2  0  0  0
  1 89  1  0  0  0
  2  3  1  0  0  0
  2 25  1  0  0  0
  2 93  1  0  0  0
  2 94  1  0  0  0
  3  4  1  0  0  0
  3 95  1  0  0  0
  3 96  1  0  0  0
  4  5  1  0  0  0
  4 97  1  0  0  0
  4 98  1  0  0  0
  5  6  1  0  0  0
  5 26  1  0  0  0
  5 99  1  0  0  0
  6 25  1  0  0  0
  6100  1  0  0  0
  6101  1  0  0  0
  7  8  2  0  0  0
  7 26  1  0  0  0
  7 29  1  0  0  0
  8  9  1  0  0  0
  8 22  1  0  0  0
  9 10  1  0  0  0
  9 27  2  0  0  0
 10 11  2  0  0  0
 10 15  1  0  0  0
 11 12  1  0  0  0
 11102  1  0  0  0
 12 13  2  0  0  0
 12103  1  0  0  0
 13 14  1  0  0  0
 13 31  1  0  0  0
 14 15  2  0  0  0
 14104  1  0  0  0
 15105  1  0  0  0
 16 17  2  0  0  0
 16 21  1  0  0  0
 16 31  1  0  0  0
 17 18  1  0  0  0
 17106  1  0  0  0
 18 19  2  0  0  0
 18107  1  0  0  0
 19 20  1  0  0  0
 19 24  1  0  0  0
 20 21  2  0  0  0
 20108  1  0  0  0
 21 23  1  0  0  0
 22 28  1  0  0  0
 22 32  2  0  0  0
 26 27  1  0  0  0
 28109  1  0  0  0
 28110  1  0  0  0
 29111  1  0  0  0
 29112  1  0  0  0
 33 34  1  0  0  0
 33 66  1  0  0  0
 33 70  2  0  0  0
 34 36  1  0  0  0
 34 59  1  0  0  0
 34113  1  0  0  0
 35 44  2  0  0  0
 35 45  1  0  0  0
 35 68  1  0  0  0
 36 56  1  0  0  0
 36114  1  0  0  0
 37 39  1  0  0  0
 37 47  1  0  0  0
 37 66  1  0  0  0
 37115  1  0  0  0
 38 43  2  0  0  0
 38 46  1  0  0  0
 38 47  1  0  0  0
 39 64  1  0  0  0
 39 67  2  0  0  0
 40 52  1  0  0  0
 40 53  2  0  0  0
 40 58  1  0  0  0
 41116  1  0  0  0
 41117  1  0  0  0
 41118  1  0  0  0
 41 48  1  0  0  0
 42 43  1  0  0  0
 42 66  1  0  0  0
 42119  1  0  0  0
 42120  1  0  0  0
 43 44  1  0  0  0
 44121  1  0  0  0
 45 46  2  0  0  0
 45122  1  0  0  0
 46123  1  0  0  0
 47124  1  0  0  0
 47125  1  0  0  0
 48 56  1  0  0  0
 48 65  1  0  0  0
 48126  1  0  0  0
 49 50  1  0  0  0
 49 53  1  0  0  0
 49 64  1  0  0  0
 49127  1  0  0  0
 50 51  1  0  0  0
 50128  1  0  0  0
 50129  1  0  0  0
 51 52  1  0  0  0
 51130  1  0  0  0
 51131  1  0  0  0
 52132  1  0  0  0
 52133  1  0  0  0
 53 54  1  0  0  0
 54 55  2  0  0  0
 54134  1  0  0  0
 55 57  1  0  0  0
 55135  1  0  0  0
 56 69  2  0  0  0
 57 58  2  0  0  0
 57136  1  0  0  0
 58137  1  0  0  0
 59 60  1  0  0  0
 59 61  1  0  0  0
 59 62  1  0  0  0
 60138  1  0  0  0
 60139  1  0  0  0
 60140  1  0  0  0
 61141  1  0  0  0
 61142  1  0  0  0
 61143  1  0  0  0
 62144  1  0  0  0
 62145  1  0  0  0
 62146  1  0  0  0
 63 65  1  0  0  0
 63147  1  0  0  0
 63148  1  0  0  0
 63149  1  0  0  0
 64150  1  0  0  0
 65151  1  0  0  0
 68 85  1  0  0  0
 71152  1  0  0  0
 71153  1  0  0  0
 71154  1  0  0  0
 71 87  1  0  0  0
 72 87  1  0  0  0
 72155  1  0  0  0
 72156  1  0  0  0
 72157  1  0  0  0
 73158  1  0  0  0
 73159  1  0  0  0
 73160  1  0  0  0
 73 88  1  0  0  0
 74 88  1  0  0  0
 74161  1  0  0  0
 74162  1  0  0  0
 74163  1  0  0  0
 75164  1  0  0  0
 75165  1  0  0  0
 75166  1  0  0  0
 75 91  1  0  0  0
 76 77  1  0  0  0
 76 78  1  0  0  0
 76167  1  0  0  0
 76168  1  0  0  0
 77 79  1  0  0  0
 77169  1  0  0  0
 77170  1  0  0  0
 78 81  1  0  0  0
 78171  1  0  0  0
 78172  1  0  0  0
 79 82  1  0  0  0
 79173  1  0  0  0
 79174  1  0  0  0
 80 88  1  0  0  0
 80175  1  0  0  0
 80176  1  0  0  0
 80 86  1  0  0  0
 81 89  1  0  0  0
 81177  1  0  0  0
 81178  1  0  0  0
 82 90  1  0  0  0
 82179  1  0  0  0
 82180  1  0  0  0
 83 85  1  0  0  0
 83 91  1  0  0  0
 83181  1  0  0  0
 83182  1  0  0  0
 84 87  1  0  0  0
 84 90  1  0  0  0
 84183  1  0  0  0
 84184  1  0  0  0
 85185  1  0  0  0
 85186  1  0  0  0
 86 87  1  0  0  0
 86 91  1  0  0  0
 86187  1  0  0  0
 88 92  1  0  0  0
 89188  1  0  0  0
 90189  1  0  0  0
 90190  1  0  0  0
 91191  1  0  0  0
M  CHG  2  90   1  91   1
M  ISO  4   1 100  68 101  85 101  89 100
M  END
> <chiral flag>
0

> <version>
0

> <s_m_source_file>
/data/baiqing/PycharmProjects/Reinvent-master-3.2/result/LINK_invent/BTK/process_docking_weight1_custom_sum_contain_oxygen_bond_distance_aromatic_linkinvent_7_9_3/rearranged_h_0015.sdf

> <i_m_source_file_index>
84

> <r_mmod_Potential_Energy-OPLS-2005>
-240.809432983398

> <r_mmod_Stretch_Energy-OPLS-2005>
41.1293525695801

> <r_mmod_Bend_Energy-OPLS-2005>
119.342216491699

> <r_mmod_Torsional_Energy-OPLS-2005>
307.915985107422

> <r_mmod_Improper_Torsional_Energy-OPLS-2005>
3.72552609443665

> <r_mmod_Van_der_Waal_Energy-OPLS-2005>
133.038421630859

> <r_mmod_Electrostatic_Energy-OPLS-2005>
43.342658996582

> <r_mmod_Solvation_Energy-OPLS-2005>
-897.667602539062

> <b_mmod_Minimization_Converged-OPLS-2005>
0

> <r_mmod_RMS_Derivative-OPLS-2005>
3.81891274452209

$$$$
85
                    3D
 Structure written by MMmdl.
154162  0  0  1  0            999 V2000
  -30.6476  -14.7129   20.4612 C   0  0  0  0  0  0
  -30.4208  -12.4329   19.4803 C   0  0  0  0  0  0
  -29.5077  -12.5001   18.2382 C   0  0  0  0  0  0
  -28.0335  -12.3280   18.6504 C   0  0  0  0  0  0
  -27.6401  -13.2330   19.8499 C   0  0  2  0  0  0
  -28.6817  -13.1772   20.9884 C   0  0  0  0  0  0
  -25.2506  -13.8212   20.5674 C   0  0  0  0  0  0
  -24.1792  -13.0456   20.9174 C   0  0  0  0  0  0
  -24.6384  -11.6926   20.8744 C   0  0  0  0  0  0
  -23.9066  -10.4303   21.0413 C   0  0  0  0  0  0
  -24.3619   -9.4222   21.9192 C   0  0  0  0  0  0
  -23.6287   -8.2268   22.0769 C   0  0  0  0  0  0
  -22.4277   -8.0311   21.3553 C   0  0  0  0  0  0
  -21.9914   -9.0275   20.4654 C   0  0  0  0  0  0
  -22.7248  -10.2148   20.3056 C   0  0  0  0  0  0
  -21.6862   -6.0754   22.5285 C   0  0  0  0  0  0
  -21.4016   -6.5648   23.8217 C   0  0  0  0  0  0
  -21.3644   -5.6801   24.9175 C   0  0  0  0  0  0
  -21.6045   -4.3066   24.7230 C   0  0  0  0  0  0
  -21.8817   -3.8151   23.4345 C   0  0  0  0  0  0
  -21.9196   -4.6978   22.3403 C   0  0  0  0  0  0
  -22.7821  -13.5248   21.1846 C   0  0  0  0  0  0
  -22.1662   -4.2163   21.0988 F   0  0  0  0  0  0
  -21.5622   -3.4550   25.7729 F   0  0  0  0  0  0
  -29.9884  -13.5056   20.4068 N   0  0  0  0  0  0
  -26.2922  -12.9410   20.3283 N   0  0  0  0  0  0
  -25.9322  -11.6547   20.5763 N   0  0  0  0  0  0
  -22.0465  -12.8239   22.0395 N   0  0  0  0  0  0
  -25.4187  -15.1933   20.4090 N   0  0  0  0  0  0
  -31.8384  -14.7460   20.1493 O   0  0  0  0  0  0
  -21.6651   -6.8901   21.4245 O   0  0  0  0  0  0
  -22.3527  -14.5572   20.6720 O   0  0  0  0  0  0
  -24.6279  -31.8501   23.1982 C   0  0  0  0  0  0
  -25.9101  -32.4737   23.8318 C   0  0  1  0  0  0
  -27.2297  -27.2707   20.1287 C   0  0  0  0  0  0
  -25.5901  -33.8540   24.2231 N   0  0  0  0  0  0
  -23.4289  -30.4717   21.5342 C   0  0  2  0  0  0
  -24.8808  -28.9194   20.1077 C   0  0  0  0  0  0
  -22.7487  -29.4571   22.4872 C   0  0  0  0  0  0
  -18.0285  -28.1411   22.8432 C   0  0  0  0  0  0
  -24.1484  -36.7225   23.2653 C   0  0  0  0  0  0
  -25.9732  -30.7673   21.3805 C   0  0  0  0  0  0
  -26.0476  -29.3921   20.7175 C   0  0  0  0  0  0
  -27.2225  -28.5775   20.7214 C   0  0  0  0  0  0
  -26.0411  -26.8663   19.4826 C   0  0  0  0  0  0
  -24.8786  -27.6631   19.4827 C   0  0  0  0  0  0
  -23.6496  -29.8005   20.1517 C   0  0  0  0  0  0
  -25.4104  -36.3023   24.0332 C   0  0  1  0  0  0
  -20.5896  -28.3669   23.1239 C   0  0  2  0  0  0
  -20.6778  -26.9376   22.5379 C   0  0  0  0  0  0
  -19.5756  -26.6361   21.5188 C   0  0  0  0  0  0
  -18.1943  -26.7953   22.1590 C   0  0  0  0  0  0
  -19.1550  -28.8862   23.2845 C   0  0  0  0  0  0
  -18.9490  -30.1477   23.8843 C   0  0  0  0  0  0
  -17.6488  -30.6603   24.0556 C   0  0  0  0  0  0
  -25.9037  -34.9410   23.5086 C   0  0  0  0  0  0
  -16.5367  -29.9089   23.6372 C   0  0  0  0  0  0
  -16.7266  -28.6532   23.0330 C   0  0  0  0  0  0
  -26.4482  -31.6608   25.0730 C   0  0  0  0  0  0
  -25.3704  -31.3762   26.1444 C   0  0  0  0  0  0
  -27.0400  -30.3052   24.6252 C   0  0  0  0  0  0
  -27.6038  -32.4364   25.7467 C   0  0  0  0  0  0
  -27.5575  -37.1729   24.8451 C   0  0  0  0  0  0
  -21.4206  -29.3037   22.3630 N   0  0  0  0  0  0
  -26.4252  -37.3740   23.9454 N   0  0  0  0  0  0
  -24.6964  -31.0476   22.0957 N   0  0  0  0  0  0
  -23.4211  -28.8117   23.2967 O   0  0  0  0  0  0
  -28.3315  -26.3886   20.2269 O   0  0  0  0  0  0
  -26.5611  -34.8905   22.4659 O   0  0  0  0  0  0
  -23.5434  -32.1287   23.7273 O   0  0  0  0  0  0
  -30.9492  -20.0936   20.0190 C   0  0  0  0  0  0
  -31.5389  -17.7084   20.0161 C   0  0  0  0  0  0
  -31.8822  -19.0594   19.7957 C   0  0  0  0  0  0
  -29.6555  -19.8168   20.5051 C   0  0  0  0  0  0
  -30.2569  -17.3156   20.4764 C   0  0  0  0  0  0
  -29.3282  -18.4079   20.7286 C   0  0  0  0  0  0
  -28.7239  -23.6832   20.6821 C   0  0  0  0  0  0
  -33.2892  -19.3870   19.3289 C   0  0  0  0  0  0
  -28.7264  -21.0549   20.8841 C   0  0  0  0  0  0
  -28.2346  -24.9462   19.8047 C   0  0  0  0  0  0
  -29.9155  -15.8741   20.6758 N   0  0  0  0  0  0
  -28.7585  -22.4010   20.1549 N   0  0  0  0  0  0
  -29.0305  -23.8569   21.8672 O   0  0  0  0  0  0
  -27.7675  -17.9920   21.3475 Cl  0  0  0  0  0  0
  -31.4666  -12.5254   19.1827 H   0  0  0  0  0  0
  -30.3391  -11.4591   19.9663 H   0  0  0  0  0  0
  -29.7877  -11.7261   17.5225 H   0  0  0  0  0  0
  -29.6396  -13.4575   17.7311 H   0  0  0  0  0  0
  -27.8859  -11.2781   18.9074 H   0  0  0  0  0  0
  -27.3778  -12.5239   17.8005 H   0  0  0  0  0  0
  -27.6346  -14.2539   19.4654 H   0  0  0  0  0  0
  -28.7060  -12.1895   21.4521 H   0  0  0  0  0  0
  -28.4195  -13.8793   21.7804 H   0  0  0  0  0  0
  -25.2776   -9.5725   22.4750 H   0  0  0  0  0  0
  -24.0011   -7.4681   22.7495 H   0  0  0  0  0  0
  -21.0859   -8.8792   19.8952 H   0  0  0  0  0  0
  -22.3722  -10.9685   19.6155 H   0  0  0  0  0  0
  -21.2002   -7.6151   23.9727 H   0  0  0  0  0  0
  -21.1456   -6.0524   25.9080 H   0  0  0  0  0  0
  -22.0602   -2.7613   23.2844 H   0  0  0  0  0  0
  -22.4078  -11.9879   22.4738 H   0  0  0  0  0  0
  -21.1093  -13.1273   22.2619 H   0  0  0  0  0  0
  -24.6471  -15.8414   20.5227 H   0  0  0  0  0  0
  -26.2721  -15.6453   20.1069 H   0  0  0  0  0  0
  -26.7138  -32.5358   23.1026 H   0  0  0  0  0  0
  -25.0089  -33.9654   25.0412 H   0  0  0  0  0  0
  -22.7276  -31.2949   21.3762 H   0  0  0  0  0  0
  -23.3785  -35.9523   23.3254 H   0  0  0  0  0  0
  -24.3583  -36.8899   22.2079 H   0  0  0  0  0  0
  -23.7182  -37.6386   23.6713 H   0  0  0  0  0  0
  -26.1218  -31.5339   20.6202 H   0  0  0  0  0  0
  -26.8467  -30.8006   22.0204 H   0  0  0  0  0  0
  -28.1132  -28.9270   21.2213 H   0  0  0  0  0  0
  -25.9813  -25.9045   18.9958 H   0  0  0  0  0  0
  -23.9813  -27.2875   19.0128 H   0  0  0  0  0  0
  -23.7783  -30.5689   19.3891 H   0  0  0  0  0  0
  -22.7735  -29.2238   19.8483 H   0  0  0  0  0  0
  -25.1286  -36.1830   25.0816 H   0  0  0  0  0  0
  -20.9962  -28.3229   24.1363 H   0  0  0  0  0  0
  -20.5662  -26.2266   23.3578 H   0  0  0  0  0  0
  -21.6642  -26.7385   22.1176 H   0  0  0  0  0  0
  -19.6935  -25.6269   21.1226 H   0  0  0  0  0  0
  -19.6764  -27.3165   20.6738 H   0  0  0  0  0  0
  -17.4204  -26.6661   21.4002 H   0  0  0  0  0  0
  -18.0340  -26.0116   22.9007 H   0  0  0  0  0  0
  -19.7989  -30.7305   24.2151 H   0  0  0  0  0  0
  -17.5067  -31.6285   24.5157 H   0  0  0  0  0  0
  -15.5380  -30.2988   23.7791 H   0  0  0  0  0  0
  -15.8649  -28.0884   22.7035 H   0  0  0  0  0  0
  -24.5841  -30.7163   25.7728 H   0  0  0  0  0  0
  -24.8950  -32.2953   26.4884 H   0  0  0  0  0  0
  -25.7975  -30.8870   27.0214 H   0  0  0  0  0  0
  -26.3041  -29.6721   24.1276 H   0  0  0  0  0  0
  -27.4133  -29.7353   25.4781 H   0  0  0  0  0  0
  -27.8866  -30.4381   23.9516 H   0  0  0  0  0  0
  -27.2673  -33.3693   26.2002 H   0  0  0  0  0  0
  -28.3855  -32.6874   25.0282 H   0  0  0  0  0  0
  -28.0724  -31.8533   26.5398 H   0  0  0  0  0  0
  -28.2481  -38.0139   24.7620 H   0  0  0  0  0  0
  -28.1177  -36.2652   24.6106 H   0  0  0  0  0  0
  -27.2304  -37.1157   25.8856 H   0  0  0  0  0  0
  -20.9386  -29.8738   21.6815 H   0  0  0  0  0  0
  -26.0101  -38.2780   24.1603 H   0  0  0  0  0  0
  -31.2422  -21.1201   19.8552 H   0  0  0  0  0  0
  -32.3159  -16.9887   19.8150 H   0  0  0  0  0  0
  -33.5407  -20.4329   19.5116 H   0  0  0  0  0  0
  -33.3998  -19.1842   18.2628 H   0  0  0  0  0  0
  -34.0220  -18.7767   19.8602 H   0  0  0  0  0  0
  -28.9169  -21.2565   21.9381 H   0  0  0  0  0  0
  -27.6879  -20.7237   20.8505 H   0  0  0  0  0  0
  -27.4498  -24.8834   20.5602 H   0  0  0  0  0  0
  -29.3178  -25.0775   19.7944 H   0  0  0  0  0  0
  -28.9557  -15.7105   20.9384 H   0  0  0  0  0  0
  -28.5536  -22.3450   19.1661 H   0  0  0  0  0  0
  1 25  1  0  0  0
  1 30  2  0  0  0
  1 81  1  0  0  0
  2  3  1  0  0  0
  2 25  1  0  0  0
  2 85  1  0  0  0
  2 86  1  0  0  0
  3  4  1  0  0  0
  3 87  1  0  0  0
  3 88  1  0  0  0
  4  5  1  0  0  0
  4 89  1  0  0  0
  4 90  1  0  0  0
  5  6  1  0  0  0
  5 26  1  0  0  0
  5 91  1  0  0  0
  6 25  1  0  0  0
  6 92  1  0  0  0
  6 93  1  0  0  0
  7  8  2  0  0  0
  7 26  1  0  0  0
  7 29  1  0  0  0
  8  9  1  0  0  0
  8 22  1  0  0  0
  9 10  1  0  0  0
  9 27  2  0  0  0
 10 11  2  0  0  0
 10 15  1  0  0  0
 11 12  1  0  0  0
 11 94  1  0  0  0
 12 13  2  0  0  0
 12 95  1  0  0  0
 13 14  1  0  0  0
 13 31  1  0  0  0
 14 15  2  0  0  0
 14 96  1  0  0  0
 15 97  1  0  0  0
 16 17  2  0  0  0
 16 21  1  0  0  0
 16 31  1  0  0  0
 17 18  1  0  0  0
 17 98  1  0  0  0
 18 19  2  0  0  0
 18 99  1  0  0  0
 19 20  1  0  0  0
 19 24  1  0  0  0
 20 21  2  0  0  0
 20100  1  0  0  0
 21 23  1  0  0  0
 22 28  1  0  0  0
 22 32  2  0  0  0
 26 27  1  0  0  0
 28101  1  0  0  0
 28102  1  0  0  0
 29103  1  0  0  0
 29104  1  0  0  0
 33 34  1  0  0  0
 33 66  1  0  0  0
 33 70  2  0  0  0
 34 36  1  0  0  0
 34 59  1  0  0  0
 34105  1  0  0  0
 35 44  2  0  0  0
 35 45  1  0  0  0
 35 68  1  0  0  0
 36 56  1  0  0  0
 36106  1  0  0  0
 37 39  1  0  0  0
 37 47  1  0  0  0
 37 66  1  0  0  0
 37107  1  0  0  0
 38 43  2  0  0  0
 38 46  1  0  0  0
 38 47  1  0  0  0
 39 64  1  0  0  0
 39 67  2  0  0  0
 40 52  1  0  0  0
 40 53  2  0  0  0
 40 58  1  0  0  0
 41108  1  0  0  0
 41109  1  0  0  0
 41110  1  0  0  0
 41 48  1  0  0  0
 42 43  1  0  0  0
 42 66  1  0  0  0
 42111  1  0  0  0
 42112  1  0  0  0
 43 44  1  0  0  0
 44113  1  0  0  0
 45 46  2  0  0  0
 45114  1  0  0  0
 46115  1  0  0  0
 47116  1  0  0  0
 47117  1  0  0  0
 48 56  1  0  0  0
 48 65  1  0  0  0
 48118  1  0  0  0
 49 50  1  0  0  0
 49 53  1  0  0  0
 49 64  1  0  0  0
 49119  1  0  0  0
 50 51  1  0  0  0
 50120  1  0  0  0
 50121  1  0  0  0
 51 52  1  0  0  0
 51122  1  0  0  0
 51123  1  0  0  0
 52124  1  0  0  0
 52125  1  0  0  0
 53 54  1  0  0  0
 54 55  2  0  0  0
 54126  1  0  0  0
 55 57  1  0  0  0
 55127  1  0  0  0
 56 69  2  0  0  0
 57 58  2  0  0  0
 57128  1  0  0  0
 58129  1  0  0  0
 59 60  1  0  0  0
 59 61  1  0  0  0
 59 62  1  0  0  0
 60130  1  0  0  0
 60131  1  0  0  0
 60132  1  0  0  0
 61133  1  0  0  0
 61134  1  0  0  0
 61135  1  0  0  0
 62136  1  0  0  0
 62137  1  0  0  0
 62138  1  0  0  0
 63 65  1  0  0  0
 63139  1  0  0  0
 63140  1  0  0  0
 63141  1  0  0  0
 64142  1  0  0  0
 65143  1  0  0  0
 68 80  1  0  0  0
 71 73  2  0  0  0
 71 74  1  0  0  0
 71144  1  0  0  0
 72 73  1  0  0  0
 72 75  2  0  0  0
 72145  1  0  0  0
 73 78  1  0  0  0
 74 76  2  0  0  0
 74 79  1  0  0  0
 75 76  1  0  0  0
 75 81  1  0  0  0
 76 84  1  0  0  0
 77 80  1  0  0  0
 77 82  1  0  0  0
 77 83  2  0  0  0
 78146  1  0  0  0
 78147  1  0  0  0
 78148  1  0  0  0
 79 82  1  0  0  0
 79149  1  0  0  0
 79150  1  0  0  0
 80151  1  0  0  0
 80152  1  0  0  0
 81153  1  0  0  0
 82154  1  0  0  0
M  ISO  4   1 100  68 101  80 101  81 100
M  END
> <chiral flag>
0

> <version>
0

> <s_m_source_file>
/data/baiqing/PycharmProjects/Reinvent-master-3.2/result/LINK_invent/BTK/process_docking_weight1_custom_sum_contain_oxygen_bond_distance_aromatic_linkinvent_7_9_3/rearranged_h_0015.sdf

> <i_m_source_file_index>
85

> <r_mmod_Potential_Energy-OPLS-2005>
269.389251708984

> <r_mmod_Stretch_Energy-OPLS-2005>
123.952949523926

> <r_mmod_Bend_Energy-OPLS-2005>
366.957061767578

> <r_mmod_Torsional_Energy-OPLS-2005>
209.532150268555

> <r_mmod_Improper_Torsional_Energy-OPLS-2005>
5.37855768203735

> <r_mmod_Van_der_Waal_Energy-OPLS-2005>
149.191925048828

> <r_mmod_Electrostatic_Energy-OPLS-2005>
-429.201843261719

> <r_mmod_Solvation_Energy-OPLS-2005>
-234.897262573242

> <b_mmod_Minimization_Converged-OPLS-2005>
0

> <r_mmod_RMS_Derivative-OPLS-2005>
4.02419424057007

$$$$
86
                    3D
 Structure written by MMmdl.
177186  0  0  1  0            999 V2000
  -30.6205  -14.7929   20.4563 C   0  0  0  0  0  0
  -30.4236  -12.4890   19.4815 C   0  0  0  0  0  0
  -29.5098  -12.5140   18.2390 C   0  0  0  0  0  0
  -28.0361  -12.3371   18.6506 C   0  0  0  0  0  0
  -27.6348  -13.2430   19.8466 C   0  0  2  0  0  0
  -28.6790  -13.2148   20.9831 C   0  0  0  0  0  0
  -25.2479  -13.8217   20.5709 C   0  0  0  0  0  0
  -24.1790  -13.0434   20.9230 C   0  0  0  0  0  0
  -24.6402  -11.6926   20.8747 C   0  0  0  0  0  0
  -23.9084  -10.4297   21.0414 C   0  0  0  0  0  0
  -24.3631   -9.4202   21.9183 C   0  0  0  0  0  0
  -23.6312   -8.2235   22.0753 C   0  0  0  0  0  0
  -22.4295   -8.0281   21.3545 C   0  0  0  0  0  0
  -21.9930   -9.0250   20.4644 C   0  0  0  0  0  0
  -22.7259  -10.2133   20.3061 C   0  0  0  0  0  0
  -21.6861   -6.0740   22.5281 C   0  0  0  0  0  0
  -21.4012   -6.5639   23.8211 C   0  0  0  0  0  0
  -21.3661   -5.6793   24.9173 C   0  0  0  0  0  0
  -21.6051   -4.3058   24.7222 C   0  0  0  0  0  0
  -21.8818   -3.8151   23.4342 C   0  0  0  0  0  0
  -21.9192   -4.6968   22.3399 C   0  0  0  0  0  0
  -22.7804  -13.5196   21.1893 C   0  0  0  0  0  0
  -22.1664   -4.2147   21.0980 F   0  0  0  0  0  0
  -21.5632   -3.4547   25.7736 F   0  0  0  0  0  0
  -29.9707  -13.5747   20.3891 N   0  0  0  0  0  0
  -26.2906  -12.9443   20.3271 N   0  0  0  0  0  0
  -25.9330  -11.6573   20.5749 N   0  0  0  0  0  0
  -22.0461  -12.8166   22.0448 N   0  0  0  0  0  0
  -25.4126  -15.1942   20.4108 N   0  0  0  0  0  0
  -31.8125  -14.8264   20.1402 O   0  0  0  0  0  0
  -21.6656   -6.8888   21.4252 O   0  0  0  0  0  0
  -22.3470  -14.5492   20.6745 O   0  0  0  0  0  0
  -24.6329  -31.8540   23.1979 C   0  0  0  0  0  0
  -25.9148  -32.4736   23.8337 C   0  0  1  0  0  0
  -27.2030  -27.2338   20.1504 C   0  0  0  0  0  0
  -25.5944  -33.8543   24.2244 N   0  0  0  0  0  0
  -23.4295  -30.4765   21.5421 C   0  0  2  0  0  0
  -24.8765  -28.9206   20.1112 C   0  0  0  0  0  0
  -22.7503  -29.4590   22.4906 C   0  0  0  0  0  0
  -18.0280  -28.1395   22.8492 C   0  0  0  0  0  0
  -24.1493  -36.7281   23.2640 C   0  0  0  0  0  0
  -25.9771  -30.7600   21.3810 C   0  0  0  0  0  0
  -26.0481  -29.3793   20.7261 C   0  0  0  0  0  0
  -27.2178  -28.5499   20.7313 C   0  0  0  0  0  0
  -26.0156  -26.8537   19.4905 C   0  0  0  0  0  0
  -24.8661  -27.6676   19.4796 C   0  0  0  0  0  0
  -23.6501  -29.8126   20.1573 C   0  0  0  0  0  0
  -25.4117  -36.3052   24.0315 C   0  0  1  0  0  0
  -20.5897  -28.3709   23.1278 C   0  0  2  0  0  0
  -20.6780  -26.9427   22.5415 C   0  0  0  0  0  0
  -19.5756  -26.6398   21.5224 C   0  0  0  0  0  0
  -18.1929  -26.7940   22.1629 C   0  0  0  0  0  0
  -19.1539  -28.8870   23.2883 C   0  0  0  0  0  0
  -18.9457  -30.1477   23.8894 C   0  0  0  0  0  0
  -17.6453  -30.6601   24.0568 C   0  0  0  0  0  0
  -25.9065  -34.9424   23.5077 C   0  0  0  0  0  0
  -16.5343  -29.9095   23.6340 C   0  0  0  0  0  0
  -16.7265  -28.6516   23.0356 C   0  0  0  0  0  0
  -26.4515  -31.6574   25.0732 C   0  0  0  0  0  0
  -25.3729  -31.3720   26.1445 C   0  0  0  0  0  0
  -27.0367  -30.2980   24.6242 C   0  0  0  0  0  0
  -27.6054  -32.4337   25.7502 C   0  0  0  0  0  0
  -27.5573  -37.1794   24.8459 C   0  0  0  0  0  0
  -21.4212  -29.3046   22.3660 N   0  0  0  0  0  0
  -26.4283  -37.3757   23.9405 N   0  0  0  0  0  0
  -24.6988  -31.0491   22.0964 N   0  0  0  0  0  0
  -23.4203  -28.8120   23.2998 O   0  0  0  0  0  0
  -28.2768  -26.3119   20.1901 O   0  0  0  0  0  0
  -26.5644  -34.8897   22.4647 O   0  0  0  0  0  0
  -23.5482  -32.1383   23.7260 O   0  0  0  0  0  0
  -32.2626  -18.8509   21.4650 C   0  0  0  0  0  0
  -31.6843  -17.5837   21.2643 C   0  0  0  0  0  0
  -31.6044  -20.0312   21.0719 C   0  0  0  0  0  0
  -30.3192  -19.9534   20.4790 C   0  0  0  0  0  0
  -29.6605  -18.6635   20.4499 C   0  0  0  0  0  0
  -30.3757  -17.4032   20.7498 C   0  0  0  0  0  0
  -32.2221  -21.3496   21.3911 C   0  0  0  0  0  0
  -28.1567  -18.7854   20.1857 C   0  0  0  0  0  0
  -29.7472  -21.2414   19.7471 C   0  0  0  0  0  0
  -27.4818  -19.9605   21.0085 C   0  0  0  0  0  0
  -27.4643  -21.4509   20.4681 C   0  0  0  0  0  0
  -33.6568  -21.6052   20.9251 C   0  0  0  0  0  0
  -33.7506  -22.5613   19.7123 C   0  0  0  0  0  0
  -33.4297  -24.0397   20.0212 C   0  0  0  0  0  0
  -28.7744  -23.6246   19.8769 C   0  0  0  0  0  0
  -33.6210  -24.9657   18.8034 C   0  0  0  0  0  0
  -28.0160  -24.8715   20.5994 C   0  0  0  0  0  0
  -29.8927  -15.9829   20.6342 N   0  0  0  0  0  0
  -28.7812  -22.1689   20.4530 N   0  3  2  0  0  0
  -33.3377  -26.3742   19.1265 N   0  3  0  0  0  0
  -31.5842  -22.2563   21.9327 O   0  0  0  0  0  0
  -31.4644  -12.6036   19.1733 H   0  0  0  0  0  0
  -30.3669  -11.5216   19.9837 H   0  0  0  0  0  0
  -29.7982  -11.7299   17.5388 H   0  0  0  0  0  0
  -29.6369  -13.4598   17.7100 H   0  0  0  0  0  0
  -27.8939  -11.2899   18.9177 H   0  0  0  0  0  0
  -27.3813  -12.5236   17.7986 H   0  0  0  0  0  0
  -27.6176  -14.2601   19.4541 H   0  0  0  0  0  0
  -28.7277  -12.2291   21.4488 H   0  0  0  0  0  0
  -28.4057  -13.9165   21.7726 H   0  0  0  0  0  0
  -25.2774   -9.5673   22.4756 H   0  0  0  0  0  0
  -24.0023   -7.4625   22.7463 H   0  0  0  0  0  0
  -21.0865   -8.8760   19.8944 H   0  0  0  0  0  0
  -22.3712  -10.9667   19.6169 H   0  0  0  0  0  0
  -21.2000   -7.6148   23.9707 H   0  0  0  0  0  0
  -21.1492   -6.0530   25.9073 H   0  0  0  0  0  0
  -22.0597   -2.7612   23.2844 H   0  0  0  0  0  0
  -22.4113  -11.9834   22.4824 H   0  0  0  0  0  0
  -21.1065  -13.1152   22.2643 H   0  0  0  0  0  0
  -24.6385  -15.8410   20.5153 H   0  0  0  0  0  0
  -26.2445  -15.6334   20.0400 H   0  0  0  0  0  0
  -26.7189  -32.5373   23.1063 H   0  0  0  0  0  0
  -25.0070  -33.9690   25.0374 H   0  0  0  0  0  0
  -22.7255  -31.2988   21.3950 H   0  0  0  0  0  0
  -23.3753  -35.9614   23.3284 H   0  0  0  0  0  0
  -24.3593  -36.8938   22.2060 H   0  0  0  0  0  0
  -23.7254  -37.6473   23.6697 H   0  0  0  0  0  0
  -26.1168  -31.5182   20.6099 H   0  0  0  0  0  0
  -26.8556  -30.8122   22.0126 H   0  0  0  0  0  0
  -28.1156  -28.8950   21.2259 H   0  0  0  0  0  0
  -25.9586  -25.8997   18.9868 H   0  0  0  0  0  0
  -23.9696  -27.3194   18.9843 H   0  0  0  0  0  0
  -23.7766  -30.5914   19.4039 H   0  0  0  0  0  0
  -22.7668  -29.2504   19.8504 H   0  0  0  0  0  0
  -25.1297  -36.1889   25.0805 H   0  0  0  0  0  0
  -20.9978  -28.3296   24.1409 H   0  0  0  0  0  0
  -20.5724  -26.2308   23.3620 H   0  0  0  0  0  0
  -21.6644  -26.7474   22.1186 H   0  0  0  0  0  0
  -19.6928  -25.6312   21.1264 H   0  0  0  0  0  0
  -19.6701  -27.3204   20.6755 H   0  0  0  0  0  0
  -17.4203  -26.6696   21.4023 H   0  0  0  0  0  0
  -18.0313  -26.0086   22.9024 H   0  0  0  0  0  0
  -19.7926  -30.7307   24.2261 H   0  0  0  0  0  0
  -17.4997  -31.6283   24.5168 H   0  0  0  0  0  0
  -15.5344  -30.2987   23.7691 H   0  0  0  0  0  0
  -15.8661  -28.0846   22.7062 H   0  0  0  0  0  0
  -24.5911  -30.7063   25.7775 H   0  0  0  0  0  0
  -24.8917  -32.2888   26.4866 H   0  0  0  0  0  0
  -25.8058  -30.8907   27.0223 H   0  0  0  0  0  0
  -26.2963  -29.6711   24.1270 H   0  0  0  0  0  0
  -27.4026  -29.7262   25.4784 H   0  0  0  0  0  0
  -27.8843  -30.4232   23.9499 H   0  0  0  0  0  0
  -27.2649  -33.3654   26.2032 H   0  0  0  0  0  0
  -28.3886  -32.6885   25.0345 H   0  0  0  0  0  0
  -28.0693  -31.8499   26.5467 H   0  0  0  0  0  0
  -28.2565  -38.0113   24.7515 H   0  0  0  0  0  0
  -28.1094  -36.2647   24.6265 H   0  0  0  0  0  0
  -27.2293  -37.1395   25.8860 H   0  0  0  0  0  0
  -20.9401  -29.8755   21.6856 H   0  0  0  0  0  0
  -26.0155  -38.2817   24.1433 H   0  0  0  0  0  0
  -33.2396  -18.9052   21.9268 H   0  0  0  0  0  0
  -32.2776  -16.7373   21.5758 H   0  0  0  0  0  0
  -27.6945  -17.8423   20.4778 H   0  0  0  0  0  0
  -27.9661  -18.8959   19.1187 H   0  0  0  0  0  0
  -29.2834  -20.9144   18.8156 H   0  0  0  0  0  0
  -30.5854  -21.8321   19.3770 H   0  0  0  0  0  0
  -27.8534  -19.9423   22.0351 H   0  0  0  0  0  0
  -26.4294  -19.6863   21.0981 H   0  0  0  0  0  0
  -26.7779  -22.0340   21.0831 H   0  0  0  0  0  0
  -27.0381  -21.4594   19.4638 H   0  0  0  0  0  0
  -34.1107  -20.6508   20.6632 H   0  0  0  0  0  0
  -34.2292  -22.0038   21.7618 H   0  0  0  0  0  0
  -33.1031  -22.2013   18.9109 H   0  0  0  0  0  0
  -34.7649  -22.5029   19.3161 H   0  0  0  0  0  0
  -34.0667  -24.3795   20.8396 H   0  0  0  0  0  0
  -32.4020  -24.1333   20.3723 H   0  0  0  0  0  0
  -29.8190  -23.9272   19.8167 H   0  0  0  0  0  0
  -28.4321  -23.5758   18.8429 H   0  0  0  0  0  0
  -32.9631  -24.6536   17.9906 H   0  0  0  0  0  0
  -34.6416  -24.8897   18.4267 H   0  0  0  0  0  0
  -28.2654  -24.8282   21.6597 H   0  0  0  0  0  0
  -26.9482  -24.6621   20.5723 H   0  0  0  0  0  0
  -28.8931  -15.8569   20.6806 H   0  0  0  0  0  0
  -29.1108  -22.2382   21.4055 H   0  0  0  0  0  0
  -32.3943  -26.4921   19.4491 H   0  0  0  0  0  0
  -33.4593  -26.9433   18.3079 H   0  0  0  0  0  0
  -33.9661  -26.7127   19.8326 H   0  0  0  0  0  0
  1 25  1  0  0  0
  1 30  2  0  0  0
  1 88  1  0  0  0
  2  3  1  0  0  0
  2 25  1  0  0  0
  2 92  1  0  0  0
  2 93  1  0  0  0
  3  4  1  0  0  0
  3 94  1  0  0  0
  3 95  1  0  0  0
  4  5  1  0  0  0
  4 96  1  0  0  0
  4 97  1  0  0  0
  5  6  1  0  0  0
  5 26  1  0  0  0
  5 98  1  0  0  0
  6 25  1  0  0  0
  6 99  1  0  0  0
  6100  1  0  0  0
  7  8  2  0  0  0
  7 26  1  0  0  0
  7 29  1  0  0  0
  8  9  1  0  0  0
  8 22  1  0  0  0
  9 10  1  0  0  0
  9 27  2  0  0  0
 10 11  2  0  0  0
 10 15  1  0  0  0
 11 12  1  0  0  0
 11101  1  0  0  0
 12 13  2  0  0  0
 12102  1  0  0  0
 13 14  1  0  0  0
 13 31  1  0  0  0
 14 15  2  0  0  0
 14103  1  0  0  0
 15104  1  0  0  0
 16 17  2  0  0  0
 16 21  1  0  0  0
 16 31  1  0  0  0
 17 18  1  0  0  0
 17105  1  0  0  0
 18 19  2  0  0  0
 18106  1  0  0  0
 19 20  1  0  0  0
 19 24  1  0  0  0
 20 21  2  0  0  0
 20107  1  0  0  0
 21 23  1  0  0  0
 22 28  1  0  0  0
 22 32  2  0  0  0
 26 27  1  0  0  0
 28108  1  0  0  0
 28109  1  0  0  0
 29110  1  0  0  0
 29111  1  0  0  0
 33 34  1  0  0  0
 33 66  1  0  0  0
 33 70  2  0  0  0
 34 36  1  0  0  0
 34 59  1  0  0  0
 34112  1  0  0  0
 35 44  2  0  0  0
 35 45  1  0  0  0
 35 68  1  0  0  0
 36 56  1  0  0  0
 36113  1  0  0  0
 37 39  1  0  0  0
 37 47  1  0  0  0
 37 66  1  0  0  0
 37114  1  0  0  0
 38 43  2  0  0  0
 38 46  1  0  0  0
 38 47  1  0  0  0
 39 64  1  0  0  0
 39 67  2  0  0  0
 40 52  1  0  0  0
 40 53  2  0  0  0
 40 58  1  0  0  0
 41115  1  0  0  0
 41116  1  0  0  0
 41117  1  0  0  0
 41 48  1  0  0  0
 42 43  1  0  0  0
 42 66  1  0  0  0
 42118  1  0  0  0
 42119  1  0  0  0
 43 44  1  0  0  0
 44120  1  0  0  0
 45 46  2  0  0  0
 45121  1  0  0  0
 46122  1  0  0  0
 47123  1  0  0  0
 47124  1  0  0  0
 48 56  1  0  0  0
 48 65  1  0  0  0
 48125  1  0  0  0
 49 50  1  0  0  0
 49 53  1  0  0  0
 49 64  1  0  0  0
 49126  1  0  0  0
 50 51  1  0  0  0
 50127  1  0  0  0
 50128  1  0  0  0
 51 52  1  0  0  0
 51129  1  0  0  0
 51130  1  0  0  0
 52131  1  0  0  0
 52132  1  0  0  0
 53 54  1  0  0  0
 54 55  2  0  0  0
 54133  1  0  0  0
 55 57  1  0  0  0
 55134  1  0  0  0
 56 69  2  0  0  0
 57 58  2  0  0  0
 57135  1  0  0  0
 58136  1  0  0  0
 59 60  1  0  0  0
 59 61  1  0  0  0
 59 62  1  0  0  0
 60137  1  0  0  0
 60138  1  0  0  0
 60139  1  0  0  0
 61140  1  0  0  0
 61141  1  0  0  0
 61142  1  0  0  0
 62143  1  0  0  0
 62144  1  0  0  0
 62145  1  0  0  0
 63 65  1  0  0  0
 63146  1  0  0  0
 63147  1  0  0  0
 63148  1  0  0  0
 64149  1  0  0  0
 65150  1  0  0  0
 68 87  1  0  0  0
 71 72  2  0  0  0
 71 73  1  0  0  0
 71151  1  0  0  0
 72 76  1  0  0  0
 72152  1  0  0  0
 73 74  2  0  0  0
 73 77  1  0  0  0
 74 75  1  0  0  0
 74 79  1  0  0  0
 75 76  2  0  0  0
 75 78  1  0  0  0
 76 88  1  0  0  0
 77 82  1  0  0  0
 77 91  2  0  0  0
 78 80  1  0  0  0
 78153  1  0  0  0
 78154  1  0  0  0
 79 89  1  0  0  0
 79155  1  0  0  0
 79156  1  0  0  0
 80 81  1  0  0  0
 80157  1  0  0  0
 80158  1  0  0  0
 81 89  1  0  0  0
 81159  1  0  0  0
 81160  1  0  0  0
 82 83  1  0  0  0
 82161  1  0  0  0
 82162  1  0  0  0
 83 84  1  0  0  0
 83163  1  0  0  0
 83164  1  0  0  0
 84 86  1  0  0  0
 84165  1  0  0  0
 84166  1  0  0  0
 85 87  1  0  0  0
 85167  1  0  0  0
 85168  1  0  0  0
 85 89  1  0  0  0
 86 90  1  0  0  0
 86169  1  0  0  0
 86170  1  0  0  0
 87171  1  0  0  0
 87172  1  0  0  0
 88173  1  0  0  0
 89174  1  0  0  0
 90175  1  0  0  0
 90176  1  0  0  0
 90177  1  0  0  0
M  CHG  2  89   1  90   1
M  ISO  4   1 100  68 101  87 101  88 100
M  END
> <chiral flag>
0

> <version>
0

> <s_m_source_file>
/data/baiqing/PycharmProjects/Reinvent-master-3.2/result/LINK_invent/BTK/process_docking_weight1_custom_sum_contain_oxygen_bond_distance_aromatic_linkinvent_7_9_3/rearranged_h_0015.sdf

> <i_m_source_file_index>
86

> <r_mmod_Potential_Energy-OPLS-2005>
-20.5706787109375

> <r_mmod_Stretch_Energy-OPLS-2005>
151.551422119141

> <r_mmod_Bend_Energy-OPLS-2005>
199.741577148438

> <r_mmod_Torsional_Energy-OPLS-2005>
302.597473144531

> <r_mmod_Improper_Torsional_Energy-OPLS-2005>
7.10246658325195

> <r_mmod_Van_der_Waal_Energy-OPLS-2005>
145.954772949219

> <r_mmod_Electrostatic_Energy-OPLS-2005>
-19.8368701934814

> <r_mmod_Solvation_Energy-OPLS-2005>
-913.839172363281

> <b_mmod_Minimization_Converged-OPLS-2005>
0

> <r_mmod_RMS_Derivative-OPLS-2005>
2.12646412849426

$$$$
87
                    3D
 Structure written by MMmdl.
154162  0  0  1  0            999 V2000
  -30.6308  -14.6462   20.4947 C   0  0  0  0  0  0
  -30.4380  -12.3950   19.4564 C   0  0  0  0  0  0
  -29.5077  -12.5024   18.2274 C   0  0  0  0  0  0
  -28.0305  -12.3443   18.6392 C   0  0  0  0  0  0
  -27.6532  -13.2194   19.8638 C   0  0  2  0  0  0
  -28.6990  -13.0827   20.9944 C   0  0  0  0  0  0
  -25.2537  -13.8164   20.5642 C   0  0  0  0  0  0
  -24.1828  -13.0431   20.9202 C   0  0  0  0  0  0
  -24.6407  -11.6907   20.8765 C   0  0  0  0  0  0
  -23.9074  -10.4290   21.0422 C   0  0  0  0  0  0
  -24.3623   -9.4201   21.9194 C   0  0  0  0  0  0
  -23.6298   -8.2237   22.0754 C   0  0  0  0  0  0
  -22.4279   -8.0280   21.3544 C   0  0  0  0  0  0
  -21.9919   -9.0257   20.4646 C   0  0  0  0  0  0
  -22.7249  -10.2136   20.3064 C   0  0  0  0  0  0
  -21.6853   -6.0739   22.5278 C   0  0  0  0  0  0
  -21.4013   -6.5642   23.8212 C   0  0  0  0  0  0
  -21.3658   -5.6794   24.9174 C   0  0  0  0  0  0
  -21.6045   -4.3057   24.7224 C   0  0  0  0  0  0
  -21.8820   -3.8150   23.4345 C   0  0  0  0  0  0
  -21.9195   -4.6966   22.3401 C   0  0  0  0  0  0
  -22.7849  -13.5219   21.1860 C   0  0  0  0  0  0
  -22.1663   -4.2153   21.0979 F   0  0  0  0  0  0
  -21.5630   -3.4538   25.7737 F   0  0  0  0  0  0
  -30.0153  -13.4218   20.4301 N   0  0  0  0  0  0
  -26.2987  -12.9360   20.3321 N   0  0  0  0  0  0
  -25.9339  -11.6516   20.5791 N   0  0  0  0  0  0
  -22.0497  -12.8211   22.0422 N   0  0  0  0  0  0
  -25.4185  -15.1868   20.3908 N   0  0  0  0  0  0
  -31.7925  -14.7944   20.1063 O   0  0  0  0  0  0
  -21.6640   -6.8881   21.4239 O   0  0  0  0  0  0
  -22.3533  -14.5529   20.6713 O   0  0  0  0  0  0
  -24.6272  -31.8596   23.2037 C   0  0  0  0  0  0
  -25.9112  -32.4782   23.8367 C   0  0  1  0  0  0
  -27.2253  -27.3197   20.1045 C   0  0  0  0  0  0
  -25.5925  -33.8582   24.2294 N   0  0  0  0  0  0
  -23.4205  -30.4855   21.5470 C   0  0  2  0  0  0
  -24.8657  -28.9442   20.1099 C   0  0  0  0  0  0
  -22.7483  -29.4629   22.4939 C   0  0  0  0  0  0
  -18.0288  -28.1388   22.8499 C   0  0  0  0  0  0
  -24.1485  -36.7289   23.2638 C   0  0  0  0  0  0
  -25.9624  -30.7915   21.3738 C   0  0  0  0  0  0
  -26.0366  -29.4195   20.7134 C   0  0  0  0  0  0
  -27.2194  -28.6201   20.7011 C   0  0  0  0  0  0
  -26.0257  -26.9002   19.4801 C   0  0  0  0  0  0
  -24.8628  -27.6898   19.4848 C   0  0  0  0  0  0
  -23.6336  -29.8240   20.1610 C   0  0  0  0  0  0
  -25.4111  -36.3084   24.0334 C   0  0  1  0  0  0
  -20.5895  -28.3685   23.1290 C   0  0  2  0  0  0
  -20.6779  -26.9410   22.5409 C   0  0  0  0  0  0
  -19.5749  -26.6391   21.5215 C   0  0  0  0  0  0
  -18.1930  -26.7939   22.1627 C   0  0  0  0  0  0
  -19.1547  -28.8855   23.2890 C   0  0  0  0  0  0
  -18.9464  -30.1461   23.8899 C   0  0  0  0  0  0
  -17.6465  -30.6592   24.0571 C   0  0  0  0  0  0
  -25.9045  -34.9453   23.5113 C   0  0  0  0  0  0
  -16.5353  -29.9093   23.6336 C   0  0  0  0  0  0
  -16.7277  -28.6510   23.0357 C   0  0  0  0  0  0
  -26.4495  -31.6586   25.0729 C   0  0  0  0  0  0
  -25.3739  -31.3733   26.1461 C   0  0  0  0  0  0
  -27.0319  -30.3011   24.6169 C   0  0  0  0  0  0
  -27.6063  -32.4312   25.7497 C   0  0  0  0  0  0
  -27.5578  -37.1803   24.8470 C   0  0  0  0  0  0
  -21.4193  -29.3043   22.3684 N   0  0  0  0  0  0
  -26.4289  -37.3779   23.9414 N   0  0  0  0  0  0
  -24.6891  -31.0620   22.0983 N   0  0  0  0  0  0
  -23.4215  -28.8158   23.3007 O   0  0  0  0  0  0
  -28.3423  -26.4660   20.1441 O   0  0  0  0  0  0
  -26.5605  -34.8922   22.4677 O   0  0  0  0  0  0
  -23.5437  -32.1377   23.7374 O   0  0  0  0  0  0
  -30.9977  -17.8152   20.0053 C   0  0  0  0  0  0
  -28.9136  -18.0290   21.1912 C   0  0  0  0  0  0
  -30.0389  -20.0982   20.3634 C   0  0  0  0  0  0
  -29.9358  -17.1621   20.6846 C   0  0  0  0  0  0
  -31.0494  -19.2319   19.8577 C   0  0  0  0  0  0
  -28.9662  -19.4552   21.0313 C   0  0  0  0  0  0
  -29.3093  -24.0414   20.2367 C   0  0  0  0  0  0
  -27.7374  -17.4522   21.9647 C   0  0  0  0  0  0
  -30.2477  -21.6621   20.2770 C   0  0  0  0  0  0
  -28.0989  -25.0114   19.9580 C   0  0  0  0  0  0
  -29.8363  -15.7028   20.8653 N   0  0  0  0  0  0
  -29.1381  -22.6767   20.1968 N   0  0  0  0  0  0
  -30.4209  -24.5290   20.4576 O   0  0  0  0  0  0
  -32.1230  -19.7672   19.2265 F   0  0  0  0  0  0
  -27.9777  -20.2164   21.5617 F   0  0  0  0  0  0
  -31.4787  -12.5178   19.1523 H   0  0  0  0  0  0
  -30.3738  -11.4022   19.9040 H   0  0  0  0  0  0
  -29.7703  -11.7440   17.4887 H   0  0  0  0  0  0
  -29.6511  -13.4675   17.7383 H   0  0  0  0  0  0
  -27.8668  -11.2923   18.8758 H   0  0  0  0  0  0
  -27.3759  -12.5701   17.7964 H   0  0  0  0  0  0
  -27.6692  -14.2534   19.5192 H   0  0  0  0  0  0
  -28.7108  -12.0636   21.3841 H   0  0  0  0  0  0
  -28.4439  -13.7209   21.8417 H   0  0  0  0  0  0
  -25.2768   -9.5674   22.4771 H   0  0  0  0  0  0
  -24.0007   -7.4624   22.7469 H   0  0  0  0  0  0
  -21.0852   -8.8780   19.8948 H   0  0  0  0  0  0
  -22.3713  -10.9679   19.6176 H   0  0  0  0  0  0
  -21.2002   -7.6150   23.9716 H   0  0  0  0  0  0
  -21.1477   -6.0523   25.9077 H   0  0  0  0  0  0
  -22.0601   -2.7613   23.2843 H   0  0  0  0  0  0
  -22.4113  -11.9868   22.4802 H   0  0  0  0  0  0
  -21.1117  -13.1239   22.2638 H   0  0  0  0  0  0
  -24.6358  -15.8270   20.4628 H   0  0  0  0  0  0
  -26.2351  -15.6084   19.9684 H   0  0  0  0  0  0
  -26.7182  -32.5450   23.1119 H   0  0  0  0  0  0
  -25.0100  -33.9734   25.0458 H   0  0  0  0  0  0
  -22.7143  -31.3069   21.4083 H   0  0  0  0  0  0
  -23.3750  -35.9618   23.3300 H   0  0  0  0  0  0
  -24.3581  -36.8901   22.2052 H   0  0  0  0  0  0
  -23.7234  -37.6495   23.6654 H   0  0  0  0  0  0
  -26.0940  -31.5563   20.6074 H   0  0  0  0  0  0
  -26.8435  -30.8393   22.0016 H   0  0  0  0  0  0
  -28.1188  -28.9825   21.1797 H   0  0  0  0  0  0
  -25.9500  -25.9458   18.9825 H   0  0  0  0  0  0
  -23.9666  -27.3213   19.0038 H   0  0  0  0  0  0
  -23.7501  -30.6029   19.4060 H   0  0  0  0  0  0
  -22.7525  -29.2539   19.8602 H   0  0  0  0  0  0
  -25.1291  -36.1932   25.0827 H   0  0  0  0  0  0
  -20.9996  -28.3247   24.1404 H   0  0  0  0  0  0
  -20.5684  -26.2288   23.3603 H   0  0  0  0  0  0
  -21.6644  -26.7439   22.1193 H   0  0  0  0  0  0
  -19.6901  -25.6304   21.1235 H   0  0  0  0  0  0
  -19.6687  -27.3212   20.6757 H   0  0  0  0  0  0
  -17.4202  -26.6696   21.4026 H   0  0  0  0  0  0
  -18.0318  -26.0083   22.9023 H   0  0  0  0  0  0
  -19.7936  -30.7287   24.2259 H   0  0  0  0  0  0
  -17.5013  -31.6271   24.5171 H   0  0  0  0  0  0
  -15.5354  -30.2992   23.7662 H   0  0  0  0  0  0
  -15.8676  -28.0832   22.7064 H   0  0  0  0  0  0
  -24.5931  -30.7048   25.7812 H   0  0  0  0  0  0
  -24.8905  -32.2897   26.4858 H   0  0  0  0  0  0
  -25.8073  -30.8954   27.0252 H   0  0  0  0  0  0
  -26.2877  -29.6780   24.1192 H   0  0  0  0  0  0
  -27.4018  -29.7250   25.4659 H   0  0  0  0  0  0
  -27.8753  -30.4302   23.9384 H   0  0  0  0  0  0
  -27.2695  -33.3637   26.2040 H   0  0  0  0  0  0
  -28.3894  -32.6817   25.0327 H   0  0  0  0  0  0
  -28.0696  -31.8443   26.5437 H   0  0  0  0  0  0
  -28.2601  -38.0095   24.7507 H   0  0  0  0  0  0
  -28.1066  -36.2625   24.6303 H   0  0  0  0  0  0
  -27.2298  -37.1460   25.8875 H   0  0  0  0  0  0
  -20.9356  -29.8782   21.6916 H   0  0  0  0  0  0
  -26.0166  -38.2851   24.1419 H   0  0  0  0  0  0
  -31.8107  -17.2409   19.5884 H   0  0  0  0  0  0
  -27.5185  -16.4207   21.6964 H   0  0  0  0  0  0
  -26.8311  -18.0285   21.7778 H   0  0  0  0  0  0
  -27.9439  -17.4867   23.0343 H   0  0  0  0  0  0
  -30.8848  -21.8522   19.4123 H   0  0  0  0  0  0
  -30.8602  -21.9227   21.1410 H   0  0  0  0  0  0
  -27.2732  -24.6959   20.5970 H   0  0  0  0  0  0
  -27.8021  -24.8292   18.9249 H   0  0  0  0  0  0
  -28.9529  -15.3932   21.2398 H   0  0  0  0  0  0
  -28.2054  -22.3259   20.0250 H   0  0  0  0  0  0
  1 25  1  0  0  0
  1 30  2  0  0  0
  1 81  1  0  0  0
  2  3  1  0  0  0
  2 25  1  0  0  0
  2 86  1  0  0  0
  2 87  1  0  0  0
  3  4  1  0  0  0
  3 88  1  0  0  0
  3 89  1  0  0  0
  4  5  1  0  0  0
  4 90  1  0  0  0
  4 91  1  0  0  0
  5  6  1  0  0  0
  5 26  1  0  0  0
  5 92  1  0  0  0
  6 25  1  0  0  0
  6 93  1  0  0  0
  6 94  1  0  0  0
  7  8  2  0  0  0
  7 26  1  0  0  0
  7 29  1  0  0  0
  8  9  1  0  0  0
  8 22  1  0  0  0
  9 10  1  0  0  0
  9 27  2  0  0  0
 10 11  2  0  0  0
 10 15  1  0  0  0
 11 12  1  0  0  0
 11 95  1  0  0  0
 12 13  2  0  0  0
 12 96  1  0  0  0
 13 14  1  0  0  0
 13 31  1  0  0  0
 14 15  2  0  0  0
 14 97  1  0  0  0
 15 98  1  0  0  0
 16 17  2  0  0  0
 16 21  1  0  0  0
 16 31  1  0  0  0
 17 18  1  0  0  0
 17 99  1  0  0  0
 18 19  2  0  0  0
 18100  1  0  0  0
 19 20  1  0  0  0
 19 24  1  0  0  0
 20 21  2  0  0  0
 20101  1  0  0  0
 21 23  1  0  0  0
 22 28  1  0  0  0
 22 32  2  0  0  0
 26 27  1  0  0  0
 28102  1  0  0  0
 28103  1  0  0  0
 29104  1  0  0  0
 29105  1  0  0  0
 33 34  1  0  0  0
 33 66  1  0  0  0
 33 70  2  0  0  0
 34 36  1  0  0  0
 34 59  1  0  0  0
 34106  1  0  0  0
 35 44  2  0  0  0
 35 45  1  0  0  0
 35 68  1  0  0  0
 36 56  1  0  0  0
 36107  1  0  0  0
 37 39  1  0  0  0
 37 47  1  0  0  0
 37 66  1  0  0  0
 37108  1  0  0  0
 38 43  2  0  0  0
 38 46  1  0  0  0
 38 47  1  0  0  0
 39 64  1  0  0  0
 39 67  2  0  0  0
 40 52  1  0  0  0
 40 53  2  0  0  0
 40 58  1  0  0  0
 41109  1  0  0  0
 41110  1  0  0  0
 41111  1  0  0  0
 41 48  1  0  0  0
 42 43  1  0  0  0
 42 66  1  0  0  0
 42112  1  0  0  0
 42113  1  0  0  0
 43 44  1  0  0  0
 44114  1  0  0  0
 45 46  2  0  0  0
 45115  1  0  0  0
 46116  1  0  0  0
 47117  1  0  0  0
 47118  1  0  0  0
 48 56  1  0  0  0
 48 65  1  0  0  0
 48119  1  0  0  0
 49 50  1  0  0  0
 49 53  1  0  0  0
 49 64  1  0  0  0
 49120  1  0  0  0
 50 51  1  0  0  0
 50121  1  0  0  0
 50122  1  0  0  0
 51 52  1  0  0  0
 51123  1  0  0  0
 51124  1  0  0  0
 52125  1  0  0  0
 52126  1  0  0  0
 53 54  1  0  0  0
 54 55  2  0  0  0
 54127  1  0  0  0
 55 57  1  0  0  0
 55128  1  0  0  0
 56 69  2  0  0  0
 57 58  2  0  0  0
 57129  1  0  0  0
 58130  1  0  0  0
 59 60  1  0  0  0
 59 61  1  0  0  0
 59 62  1  0  0  0
 60131  1  0  0  0
 60132  1  0  0  0
 60133  1  0  0  0
 61134  1  0  0  0
 61135  1  0  0  0
 61136  1  0  0  0
 62137  1  0  0  0
 62138  1  0  0  0
 62139  1  0  0  0
 63 65  1  0  0  0
 63140  1  0  0  0
 63141  1  0  0  0
 63142  1  0  0  0
 64143  1  0  0  0
 65144  1  0  0  0
 68 80  1  0  0  0
 71 74  2  0  0  0
 71 75  1  0  0  0
 71145  1  0  0  0
 72 74  1  0  0  0
 72 76  2  0  0  0
 72 78  1  0  0  0
 73 75  2  0  0  0
 73 76  1  0  0  0
 73 79  1  0  0  0
 74 81  1  0  0  0
 75 84  1  0  0  0
 76 85  1  0  0  0
 77 80  1  0  0  0
 77 82  1  0  0  0
 77 83  2  0  0  0
 78146  1  0  0  0
 78147  1  0  0  0
 78148  1  0  0  0
 79 82  1  0  0  0
 79149  1  0  0  0
 79150  1  0  0  0
 80151  1  0  0  0
 80152  1  0  0  0
 81153  1  0  0  0
 82154  1  0  0  0
M  ISO  4   1 100  68 101  80 101  81 100
M  END
> <chiral flag>
0

> <version>
0

> <s_m_source_file>
/data/baiqing/PycharmProjects/Reinvent-master-3.2/result/LINK_invent/BTK/process_docking_weight1_custom_sum_contain_oxygen_bond_distance_aromatic_linkinvent_7_9_3/rearranged_h_0015.sdf

> <i_m_source_file_index>
87

> <r_mmod_Potential_Energy-OPLS-2005>
16.1908702850342

> <r_mmod_Stretch_Energy-OPLS-2005>
83.3317031860352

> <r_mmod_Bend_Energy-OPLS-2005>
141.741470336914

> <r_mmod_Torsional_Energy-OPLS-2005>
208.479598999023

> <r_mmod_Improper_Torsional_Energy-OPLS-2005>
4.81633949279785

> <r_mmod_Van_der_Waal_Energy-OPLS-2005>
148.865936279297

> <r_mmod_Electrostatic_Energy-OPLS-2005>
-383.618682861328

> <r_mmod_Solvation_Energy-OPLS-2005>
-236.566543579102

> <b_mmod_Minimization_Converged-OPLS-2005>
0

> <r_mmod_RMS_Derivative-OPLS-2005>
1.11724841594696

$$$$
88
                    3D
 Structure written by MMmdl.
169177  0  0  1  0            999 V2000
  -30.6916  -14.4804   20.5580 C   0  0  0  0  0  0
  -30.4332  -12.3103   19.4141 C   0  0  0  0  0  0
  -29.4979  -12.5003   18.2021 C   0  0  0  0  0  0
  -28.0203  -12.3537   18.6177 C   0  0  0  0  0  0
  -27.6623  -13.1994   19.8698 C   0  0  2  0  0  0
  -28.7082  -12.9828   20.9871 C   0  0  0  0  0  0
  -25.2601  -13.8118   20.5707 C   0  0  0  0  0  0
  -24.1828  -13.0402   20.9133 C   0  0  0  0  0  0
  -24.6376  -11.6878   20.8682 C   0  0  0  0  0  0
  -23.9044  -10.4281   21.0365 C   0  0  0  0  0  0
  -24.3601   -9.4206   21.9152 C   0  0  0  0  0  0
  -23.6274   -8.2245   22.0740 C   0  0  0  0  0  0
  -22.4252   -8.0281   21.3544 C   0  0  0  0  0  0
  -21.9882   -9.0252   20.4642 C   0  0  0  0  0  0
  -22.7210  -10.2123   20.3031 C   0  0  0  0  0  0
  -21.6858   -6.0716   22.5270 C   0  0  0  0  0  0
  -21.4021   -6.5622   23.8201 C   0  0  0  0  0  0
  -21.3657   -5.6779   24.9166 C   0  0  0  0  0  0
  -21.6035   -4.3042   24.7226 C   0  0  0  0  0  0
  -21.8823   -3.8134   23.4346 C   0  0  0  0  0  0
  -21.9200   -4.6946   22.3398 C   0  0  0  0  0  0
  -22.7862  -13.5230   21.1815 C   0  0  0  0  0  0
  -22.1665   -4.2132   21.0980 F   0  0  0  0  0  0
  -21.5625   -3.4528   25.7740 F   0  0  0  0  0  0
  -30.0393  -13.2927   20.4321 N   0  0  0  0  0  0
  -26.3036  -12.9281   20.3353 N   0  0  0  0  0  0
  -25.9307  -11.6444   20.5708 N   0  0  0  0  0  0
  -22.0491  -12.8262   22.0390 N   0  0  0  0  0  0
  -25.4309  -15.1849   20.4284 N   0  0  0  0  0  0
  -31.8310  -14.6756   20.1276 O   0  0  0  0  0  0
  -21.6634   -6.8864   21.4237 O   0  0  0  0  0  0
  -22.3563  -14.5556   20.6686 O   0  0  0  0  0  0
  -24.6129  -31.8692   23.2113 C   0  0  0  0  0  0
  -25.9027  -32.4830   23.8404 C   0  0  1  0  0  0
  -27.2476  -27.4527   20.1007 C   0  0  0  0  0  0
  -25.5880  -33.8625   24.2337 N   0  0  0  0  0  0
  -23.4013  -30.4895   21.5529 C   0  0  2  0  0  0
  -24.8535  -28.9523   20.1235 C   0  0  0  0  0  0
  -22.7406  -29.4649   22.5029 C   0  0  0  0  0  0
  -18.0273  -28.1379   22.8499 C   0  0  0  0  0  0
  -24.1480  -36.7306   23.2640 C   0  0  0  0  0  0
  -25.9283  -30.8392   21.3637 C   0  0  0  0  0  0
  -26.0113  -29.4709   20.7195 C   0  0  0  0  0  0
  -27.2130  -28.7272   20.7084 C   0  0  0  0  0  0
  -26.0771  -26.9403   19.5062 C   0  0  0  0  0  0
  -24.8796  -27.6829   19.5170 C   0  0  0  0  0  0
  -23.6118  -29.8162   20.1699 C   0  0  0  0  0  0
  -25.4095  -36.3110   24.0348 C   0  0  1  0  0  0
  -20.5860  -28.3649   23.1344 C   0  0  2  0  0  0
  -20.6759  -26.9386   22.5437 C   0  0  0  0  0  0
  -19.5737  -26.6390   21.5221 C   0  0  0  0  0  0
  -18.1913  -26.7933   22.1624 C   0  0  0  0  0  0
  -19.1521  -28.8835   23.2919 C   0  0  0  0  0  0
  -18.9450  -30.1446   23.8921 C   0  0  0  0  0  0
  -17.6449  -30.6582   24.0573 C   0  0  0  0  0  0
  -25.9023  -34.9473   23.5137 C   0  0  0  0  0  0
  -16.5343  -29.9084   23.6325 C   0  0  0  0  0  0
  -16.7262  -28.6505   23.0345 C   0  0  0  0  0  0
  -26.4461  -31.6606   25.0726 C   0  0  0  0  0  0
  -25.3743  -31.3743   26.1498 C   0  0  0  0  0  0
  -27.0255  -30.3036   24.6089 C   0  0  0  0  0  0
  -27.6073  -32.4307   25.7447 C   0  0  0  0  0  0
  -27.5580  -37.1792   24.8461 C   0  0  0  0  0  0
  -21.4138  -29.3013   22.3751 N   0  0  0  0  0  0
  -26.4282  -37.3794   23.9423 N   0  0  0  0  0  0
  -24.6655  -31.0798   22.1014 N   0  0  0  0  0  0
  -23.4181  -28.8197   23.3072 O   0  0  0  0  0  0
  -28.4129  -26.7290   20.0122 O   0  0  0  0  0  0
  -26.5591  -34.8927   22.4703 O   0  0  0  0  0  0
  -23.5325  -32.1439   23.7515 O   0  0  0  0  0  0
  -31.3827  -17.4571   21.4504 C   0  0  0  0  0  0
  -31.4841  -18.8482   21.7025 C   0  0  0  0  0  0
  -30.3247  -19.6800   21.6674 C   0  0  0  0  0  0
  -29.0878  -19.0955   21.2696 C   0  0  0  0  0  0
  -30.1426  -16.8759   21.1176 C   0  0  0  0  0  0
  -29.0199  -17.7129   20.9597 C   0  0  0  0  0  0
  -32.8556  -19.3933   22.0749 C   0  0  0  0  0  0
  -27.8060  -19.9208   21.1994 C   0  0  0  0  0  0
  -31.0127  -24.0988   22.5129 C   0  0  0  0  0  0
  -27.6755  -17.3214   19.1009 C   0  0  0  0  0  0
  -30.3757  -21.1443   22.1655 C   0  0  0  0  0  0
  -29.3619  -24.5616   20.6073 C   0  0  0  0  0  0
  -28.7052  -25.8725   21.1185 C   0  0  0  0  0  0
  -29.8064  -23.5555   21.7096 C   0  0  1  0  0  0
  -29.9146  -15.4724   21.0244 N   0  0  0  0  0  0
  -30.0854  -22.1922   21.1505 N   0  3  0  0  0  0
  -27.8506  -17.1571   20.5058 O   0  0  0  0  0  0
  -31.4758  -12.4194   19.1092 H   0  0  0  0  0  0
  -30.3440  -11.2995   19.8147 H   0  0  0  0  0  0
  -29.7399  -11.7758   17.4232 H   0  0  0  0  0  0
  -29.6622  -13.4860   17.7629 H   0  0  0  0  0  0
  -27.8421  -11.2977   18.8260 H   0  0  0  0  0  0
  -27.3665  -12.6139   17.7848 H   0  0  0  0  0  0
  -27.7030  -14.2443   19.5625 H   0  0  0  0  0  0
  -28.6892  -11.9463   21.3284 H   0  0  0  0  0  0
  -28.4660  -13.5793   21.8689 H   0  0  0  0  0  0
  -25.2741   -9.5682   22.4726 H   0  0  0  0  0  0
  -23.9984   -7.4635   22.7459 H   0  0  0  0  0  0
  -21.0806   -8.8760   19.8963 H   0  0  0  0  0  0
  -22.3652  -10.9655   19.6142 H   0  0  0  0  0  0
  -21.2018   -7.6124   23.9702 H   0  0  0  0  0  0
  -21.1466   -6.0506   25.9071 H   0  0  0  0  0  0
  -22.0607   -2.7596   23.2855 H   0  0  0  0  0  0
  -22.4094  -11.9934   22.4823 H   0  0  0  0  0  0
  -21.1124  -13.1319   22.2583 H   0  0  0  0  0  0
  -24.6684  -15.8333   20.5855 H   0  0  0  0  0  0
  -26.3159  -15.6512   20.2736 H   0  0  0  0  0  0
  -26.7108  -32.5560   23.1183 H   0  0  0  0  0  0
  -25.0012  -33.9789   25.0467 H   0  0  0  0  0  0
  -22.6872  -31.3035   21.4124 H   0  0  0  0  0  0
  -23.3745  -35.9635   23.3304 H   0  0  0  0  0  0
  -24.3582  -36.8913   22.2053 H   0  0  0  0  0  0
  -23.7229  -37.6511   23.6650 H   0  0  0  0  0  0
  -26.0363  -31.6029   20.5925 H   0  0  0  0  0  0
  -26.8168  -30.8990   21.9799 H   0  0  0  0  0  0
  -28.1132  -29.1322   21.1497 H   0  0  0  0  0  0
  -26.0984  -25.9707   19.0288 H   0  0  0  0  0  0
  -23.9907  -27.2756   19.0549 H   0  0  0  0  0  0
  -23.7153  -30.5878   19.4062 H   0  0  0  0  0  0
  -22.7370  -29.2317   19.8791 H   0  0  0  0  0  0
  -25.1270  -36.1968   25.0842 H   0  0  0  0  0  0
  -20.9950  -28.3215   24.1465 H   0  0  0  0  0  0
  -20.5647  -26.2250   23.3619 H   0  0  0  0  0  0
  -21.6634  -26.7423   22.1242 H   0  0  0  0  0  0
  -19.6885  -25.6308   21.1232 H   0  0  0  0  0  0
  -19.6676  -27.3215   20.6764 H   0  0  0  0  0  0
  -17.4187  -26.6705   21.4021 H   0  0  0  0  0  0
  -18.0284  -26.0071   22.9008 H   0  0  0  0  0  0
  -19.7925  -30.7264   24.2296 H   0  0  0  0  0  0
  -17.5000  -31.6260   24.5177 H   0  0  0  0  0  0
  -15.5341  -30.2982   23.7643 H   0  0  0  0  0  0
  -15.8668  -28.0825   22.7042 H   0  0  0  0  0  0
  -24.5876  -30.7125   25.7858 H   0  0  0  0  0  0
  -24.8979  -32.2918   26.4969 H   0  0  0  0  0  0
  -25.8102  -30.8893   27.0243 H   0  0  0  0  0  0
  -26.2767  -29.6812   24.1178 H   0  0  0  0  0  0
  -27.4048  -29.7268   25.4536 H   0  0  0  0  0  0
  -27.8604  -30.4332   23.9200 H   0  0  0  0  0  0
  -27.2736  -33.3614   26.2048 H   0  0  0  0  0  0
  -28.3847  -32.6856   25.0231 H   0  0  0  0  0  0
  -28.0779  -31.8413   26.5328 H   0  0  0  0  0  0
  -28.2614  -38.0075   24.7517 H   0  0  0  0  0  0
  -28.1060  -36.2618   24.6259 H   0  0  0  0  0  0
  -27.2320  -37.1428   25.8870 H   0  0  0  0  0  0
  -20.9295  -29.8706   21.6953 H   0  0  0  0  0  0
  -26.0173  -38.2870   24.1444 H   0  0  0  0  0  0
  -32.2573  -16.8292   21.5566 H   0  0  0  0  0  0
  -33.6405  -18.6605   21.8815 H   0  0  0  0  0  0
  -32.8944  -19.6419   23.1358 H   0  0  0  0  0  0
  -33.0996  -20.2842   21.4955 H   0  0  0  0  0  0
  -27.7118  -20.6096   22.0370 H   0  0  0  0  0  0
  -26.9177  -19.2903   21.2378 H   0  0  0  0  0  0
  -27.7643  -20.4845   20.2682 H   0  0  0  0  0  0
  -30.8373  -25.1104   22.8758 H   0  0  0  0  0  0
  -31.9198  -24.1271   21.9089 H   0  0  0  0  0  0
  -31.2183  -23.4978   23.3985 H   0  0  0  0  0  0
  -26.6125  -17.3777   18.8667 H   0  0  0  0  0  0
  -28.0946  -16.4719   18.5602 H   0  0  0  0  0  0
  -28.1423  -18.2292   18.7130 H   0  0  0  0  0  0
  -31.3432  -21.3626   22.6123 H   0  0  0  0  0  0
  -29.6701  -21.2355   22.9922 H   0  0  0  0  0  0
  -30.2187  -24.8109   19.9796 H   0  0  0  0  0  0
  -28.6405  -24.0776   19.9487 H   0  0  0  0  0  0
  -29.3751  -26.4150   21.7852 H   0  0  0  0  0  0
  -27.8067  -25.6413   21.6937 H   0  0  0  0  0  0
  -28.9657  -23.4465   22.3982 H   0  0  0  0  0  0
  -28.9622  -15.1943   21.2006 H   0  0  0  0  0  0
  -29.2717  -21.8925   20.6394 H   0  0  0  0  0  0
  -30.8484  -22.2286   20.4936 H   0  0  0  0  0  0
  1 25  1  0  0  0
  1 30  2  0  0  0
  1 85  1  0  0  0
  2  3  1  0  0  0
  2 25  1  0  0  0
  2 88  1  0  0  0
  2 89  1  0  0  0
  3  4  1  0  0  0
  3 90  1  0  0  0
  3 91  1  0  0  0
  4  5  1  0  0  0
  4 92  1  0  0  0
  4 93  1  0  0  0
  5  6  1  0  0  0
  5 26  1  0  0  0
  5 94  1  0  0  0
  6 25  1  0  0  0
  6 95  1  0  0  0
  6 96  1  0  0  0
  7  8  2  0  0  0
  7 26  1  0  0  0
  7 29  1  0  0  0
  8  9  1  0  0  0
  8 22  1  0  0  0
  9 10  1  0  0  0
  9 27  2  0  0  0
 10 11  2  0  0  0
 10 15  1  0  0  0
 11 12  1  0  0  0
 11 97  1  0  0  0
 12 13  2  0  0  0
 12 98  1  0  0  0
 13 14  1  0  0  0
 13 31  1  0  0  0
 14 15  2  0  0  0
 14 99  1  0  0  0
 15100  1  0  0  0
 16 17  2  0  0  0
 16 21  1  0  0  0
 16 31  1  0  0  0
 17 18  1  0  0  0
 17101  1  0  0  0
 18 19  2  0  0  0
 18102  1  0  0  0
 19 20  1  0  0  0
 19 24  1  0  0  0
 20 21  2  0  0  0
 20103  1  0  0  0
 21 23  1  0  0  0
 22 28  1  0  0  0
 22 32  2  0  0  0
 26 27  1  0  0  0
 28104  1  0  0  0
 28105  1  0  0  0
 29106  1  0  0  0
 29107  1  0  0  0
 33 34  1  0  0  0
 33 66  1  0  0  0
 33 70  2  0  0  0
 34 36  1  0  0  0
 34 59  1  0  0  0
 34108  1  0  0  0
 35 44  2  0  0  0
 35 45  1  0  0  0
 35 68  1  0  0  0
 36 56  1  0  0  0
 36109  1  0  0  0
 37 39  1  0  0  0
 37 47  1  0  0  0
 37 66  1  0  0  0
 37110  1  0  0  0
 38 43  2  0  0  0
 38 46  1  0  0  0
 38 47  1  0  0  0
 39 64  1  0  0  0
 39 67  2  0  0  0
 40 52  1  0  0  0
 40 53  2  0  0  0
 40 58  1  0  0  0
 41111  1  0  0  0
 41112  1  0  0  0
 41113  1  0  0  0
 41 48  1  0  0  0
 42 43  1  0  0  0
 42 66  1  0  0  0
 42114  1  0  0  0
 42115  1  0  0  0
 43 44  1  0  0  0
 44116  1  0  0  0
 45 46  2  0  0  0
 45117  1  0  0  0
 46118  1  0  0  0
 47119  1  0  0  0
 47120  1  0  0  0
 48 56  1  0  0  0
 48 65  1  0  0  0
 48121  1  0  0  0
 49 50  1  0  0  0
 49 53  1  0  0  0
 49 64  1  0  0  0
 49122  1  0  0  0
 50 51  1  0  0  0
 50123  1  0  0  0
 50124  1  0  0  0
 51 52  1  0  0  0
 51125  1  0  0  0
 51126  1  0  0  0
 52127  1  0  0  0
 52128  1  0  0  0
 53 54  1  0  0  0
 54 55  2  0  0  0
 54129  1  0  0  0
 55 57  1  0  0  0
 55130  1  0  0  0
 56 69  2  0  0  0
 57 58  2  0  0  0
 57131  1  0  0  0
 58132  1  0  0  0
 59 60  1  0  0  0
 59 61  1  0  0  0
 59 62  1  0  0  0
 60133  1  0  0  0
 60134  1  0  0  0
 60135  1  0  0  0
 61136  1  0  0  0
 61137  1  0  0  0
 61138  1  0  0  0
 62139  1  0  0  0
 62140  1  0  0  0
 62141  1  0  0  0
 63 65  1  0  0  0
 63142  1  0  0  0
 63143  1  0  0  0
 63144  1  0  0  0
 64145  1  0  0  0
 65146  1  0  0  0
 68 83  1  0  0  0
 71 72  2  0  0  0
 71 75  1  0  0  0
 71147  1  0  0  0
 72 73  1  0  0  0
 72 77  1  0  0  0
 73 74  2  0  0  0
 73 81  1  0  0  0
 74 76  1  0  0  0
 74 78  1  0  0  0
 75 76  2  0  0  0
 75 85  1  0  0  0
 76 87  1  0  0  0
 77148  1  0  0  0
 77149  1  0  0  0
 77150  1  0  0  0
 78151  1  0  0  0
 78152  1  0  0  0
 78153  1  0  0  0
 79154  1  0  0  0
 79155  1  0  0  0
 79156  1  0  0  0
 79 84  1  0  0  0
 80 87  1  0  0  0
 80157  1  0  0  0
 80158  1  0  0  0
 80159  1  0  0  0
 81 86  1  0  0  0
 81160  1  0  0  0
 81161  1  0  0  0
 82 83  1  0  0  0
 82 84  1  0  0  0
 82162  1  0  0  0
 82163  1  0  0  0
 83164  1  0  0  0
 83165  1  0  0  0
 84 86  1  0  0  0
 84166  1  0  0  0
 85167  1  0  0  0
 86168  1  0  0  0
 86169  1  0  0  0
M  CHG  1  86   1
M  ISO  4   1 100  68 101  83 101  85 100
M  END
> <chiral flag>
0

> <version>
0

> <s_m_source_file>
/data/baiqing/PycharmProjects/Reinvent-master-3.2/result/LINK_invent/BTK/process_docking_weight1_custom_sum_contain_oxygen_bond_distance_aromatic_linkinvent_7_9_3/rearranged_h_0015.sdf

> <i_m_source_file_index>
88

> <r_mmod_Potential_Energy-OPLS-2005>
-206.684539794922

> <r_mmod_Stretch_Energy-OPLS-2005>
41.1304016113281

> <r_mmod_Bend_Energy-OPLS-2005>
102.958526611328

> <r_mmod_Torsional_Energy-OPLS-2005>
280.455169677734

> <r_mmod_Improper_Torsional_Energy-OPLS-2005>
5.09120655059814

> <r_mmod_Van_der_Waal_Energy-OPLS-2005>
149.357391357422

> <r_mmod_Electrostatic_Energy-OPLS-2005>
-346.489196777344

> <r_mmod_Solvation_Energy-OPLS-2005>
-451.210205078125

> <b_mmod_Minimization_Converged-OPLS-2005>
0

> <r_mmod_RMS_Derivative-OPLS-2005>
1.97298979759216

$$$$
89
                    3D
 Structure written by MMmdl.
155163  0  0  1  0            999 V2000
  -30.5115  -14.9037   20.4400 C   0  0  0  0  0  0
  -30.4544  -12.5564   19.4902 C   0  0  0  0  0  0
  -29.5271  -12.5326   18.2510 C   0  0  0  0  0  0
  -28.0558  -12.3245   18.6627 C   0  0  0  0  0  0
  -27.6389  -13.2356   19.8463 C   0  0  2  0  0  0
  -28.6825  -13.2074   20.9842 C   0  0  0  0  0  0
  -25.2502  -13.8187   20.5688 C   0  0  0  0  0  0
  -24.1805  -13.0433   20.9225 C   0  0  0  0  0  0
  -24.6400  -11.6912   20.8748 C   0  0  0  0  0  0
  -23.9073  -10.4291   21.0407 C   0  0  0  0  0  0
  -24.3621   -9.4206   21.9185 C   0  0  0  0  0  0
  -23.6293   -8.2243   22.0754 C   0  0  0  0  0  0
  -22.4276   -8.0282   21.3544 C   0  0  0  0  0  0
  -21.9913   -9.0256   20.4648 C   0  0  0  0  0  0
  -22.7243  -10.2134   20.3058 C   0  0  0  0  0  0
  -21.6853   -6.0734   22.5279 C   0  0  0  0  0  0
  -21.4014   -6.5638   23.8212 C   0  0  0  0  0  0
  -21.3660   -5.6791   24.9174 C   0  0  0  0  0  0
  -21.6045   -4.3053   24.7224 C   0  0  0  0  0  0
  -21.8819   -3.8145   23.4345 C   0  0  0  0  0  0
  -21.9192   -4.6961   22.3401 C   0  0  0  0  0  0
  -22.7826  -13.5217   21.1880 C   0  0  0  0  0  0
  -22.1662   -4.2147   21.0977 F   0  0  0  0  0  0
  -21.5629   -3.4538   25.7736 F   0  0  0  0  0  0
  -29.9682  -13.6240   20.4041 N   0  0  0  0  0  0
  -26.2924  -12.9396   20.3241 N   0  0  0  0  0  0
  -25.9329  -11.6539   20.5724 N   0  0  0  0  0  0
  -22.0464  -12.8210   22.0432 N   0  0  0  0  0  0
  -25.4167  -15.1910   20.4067 N   0  0  0  0  0  0
  -31.7000  -15.0477   20.1304 O   0  0  0  0  0  0
  -21.6639   -6.8880   21.4243 O   0  0  0  0  0  0
  -22.3513  -14.5518   20.6715 O   0  0  0  0  0  0
  -24.6412  -31.8462   23.1905 C   0  0  0  0  0  0
  -25.9194  -32.4709   23.8285 C   0  0  1  0  0  0
  -27.2200  -27.1584   20.1514 C   0  0  0  0  0  0
  -25.5951  -33.8514   24.2203 N   0  0  0  0  0  0
  -23.4440  -30.4659   21.5359 C   0  0  2  0  0  0
  -24.8937  -28.8946   20.1145 C   0  0  0  0  0  0
  -22.7559  -29.4555   22.4876 C   0  0  0  0  0  0
  -18.0303  -28.1397   22.8474 C   0  0  0  0  0  0
  -24.1491  -36.7262   23.2641 C   0  0  0  0  0  0
  -25.9982  -30.7262   21.3871 C   0  0  0  0  0  0
  -26.0703  -29.3382   20.7316 C   0  0  0  0  0  0
  -27.2358  -28.4867   20.7327 C   0  0  0  0  0  0
  -26.0207  -26.8151   19.4895 C   0  0  0  0  0  0
  -24.8802  -27.6448   19.4784 C   0  0  0  0  0  0
  -23.6699  -29.7950   20.1555 C   0  0  0  0  0  0
  -25.4122  -36.3040   24.0318 C   0  0  1  0  0  0
  -20.5914  -28.3717   23.1242 C   0  0  2  0  0  0
  -20.6788  -26.9424   22.5407 C   0  0  0  0  0  0
  -19.5766  -26.6384   21.5211 C   0  0  0  0  0  0
  -18.1944  -26.7939   22.1615 C   0  0  0  0  0  0
  -19.1559  -28.8876   23.2851 C   0  0  0  0  0  0
  -18.9476  -30.1472   23.8879 C   0  0  0  0  0  0
  -17.6472  -30.6590   24.0566 C   0  0  0  0  0  0
  -25.9070  -34.9415   23.5068 C   0  0  0  0  0  0
  -16.5363  -29.9085   23.6338 C   0  0  0  0  0  0
  -16.7287  -28.6506   23.0354 C   0  0  0  0  0  0
  -26.4523  -31.6569   25.0718 C   0  0  0  0  0  0
  -25.3712  -31.3750   26.1417 C   0  0  0  0  0  0
  -27.0388  -30.2968   24.6285 C   0  0  0  0  0  0
  -27.6057  -32.4331   25.7502 C   0  0  0  0  0  0
  -27.5576  -37.1789   24.8465 C   0  0  0  0  0  0
  -21.4255  -29.3045   22.3623 N   0  0  0  0  0  0
  -26.4288  -37.3751   23.9406 N   0  0  0  0  0  0
  -24.7141  -31.0336   22.0930 N   0  0  0  0  0  0
  -23.4212  -28.8104   23.3020 O   0  0  0  0  0  0
  -28.2858  -26.1932   20.1808 O   0  0  0  0  0  0
  -26.5654  -34.8908   22.4644 O   0  0  0  0  0  0
  -23.5536  -32.1330   23.7136 O   0  0  0  0  0  0
  -30.5498  -18.5112   20.3962 C   0  0  0  0  0  0
  -30.2839  -19.9529   20.4115 C   0  0  0  0  0  0
  -28.2497  -18.1130   20.7044 C   0  0  0  0  0  0
  -27.9753  -19.5333   20.7111 C   0  0  0  0  0  0
  -29.5362  -17.5034   20.5677 C   0  0  0  0  0  0
  -28.9841  -20.5532   20.5926 C   0  0  0  0  0  0
  -26.5196  -19.9417   20.8868 C   0  0  0  0  0  0
  -28.3875  -22.1380   22.2940 C   0  0  0  0  0  0
  -28.9775  -23.3489   20.1876 C   0  0  0  0  0  0
  -28.0060  -24.6961   20.4734 C   0  0  0  0  0  0
  -29.6211  -15.9789   20.6550 N   0  0  0  0  0  0
  -28.6621  -21.9843   20.8649 N   0  0  0  0  0  0
  -31.4867  -12.7300   19.1819 H   0  0  0  0  0  0
  -30.4514  -11.5895   19.9956 H   0  0  0  0  0  0
  -29.8385  -11.7477   17.5605 H   0  0  0  0  0  0
  -29.6233  -13.4733   17.7066 H   0  0  0  0  0  0
  -27.9382  -11.2778   18.9452 H   0  0  0  0  0  0
  -27.3964  -12.4849   17.8088 H   0  0  0  0  0  0
  -27.6176  -14.2485   19.4439 H   0  0  0  0  0  0
  -28.7568  -12.2102   21.4207 H   0  0  0  0  0  0
  -28.3862  -13.8721   21.7971 H   0  0  0  0  0  0
  -25.2766   -9.5680   22.4759 H   0  0  0  0  0  0
  -24.0000   -7.4632   22.7473 H   0  0  0  0  0  0
  -21.0843   -8.8774   19.8954 H   0  0  0  0  0  0
  -22.3701  -10.9672   19.6167 H   0  0  0  0  0  0
  -21.2008   -7.6146   23.9713 H   0  0  0  0  0  0
  -21.1484   -6.0522   25.9076 H   0  0  0  0  0  0
  -22.0597   -2.7608   23.2844 H   0  0  0  0  0  0
  -22.4079  -11.9878   22.4832 H   0  0  0  0  0  0
  -21.1079  -13.1234   22.2628 H   0  0  0  0  0  0
  -24.6341  -15.8300   20.4945 H   0  0  0  0  0  0
  -26.2274  -15.6165   19.9788 H   0  0  0  0  0  0
  -26.7260  -32.5325   23.1016 H   0  0  0  0  0  0
  -25.0084  -33.9631   25.0342 H   0  0  0  0  0  0
  -22.7450  -31.2908   21.3827 H   0  0  0  0  0  0
  -23.3758  -35.9589   23.3293 H   0  0  0  0  0  0
  -24.3575  -36.8902   22.2056 H   0  0  0  0  0  0
  -23.7242  -37.6455   23.6681 H   0  0  0  0  0  0
  -26.1499  -31.4800   20.6135 H   0  0  0  0  0  0
  -26.8703  -30.7778   22.0275 H   0  0  0  0  0  0
  -28.1342  -28.8234   21.2307 H   0  0  0  0  0  0
  -25.9405  -25.8720   18.9704 H   0  0  0  0  0  0
  -23.9853  -27.3040   18.9760 H   0  0  0  0  0  0
  -23.8069  -30.5692   19.3997 H   0  0  0  0  0  0
  -22.7852  -29.2363   19.8445 H   0  0  0  0  0  0
  -25.1310  -36.1872   25.0811 H   0  0  0  0  0  0
  -21.0002  -28.3306   24.1367 H   0  0  0  0  0  0
  -20.5683  -26.2329   23.3623 H   0  0  0  0  0  0
  -21.6655  -26.7442   22.1205 H   0  0  0  0  0  0
  -19.6930  -25.6292   21.1246 H   0  0  0  0  0  0
  -19.6708  -27.3186   20.6736 H   0  0  0  0  0  0
  -17.4220  -26.6692   21.4013 H   0  0  0  0  0  0
  -18.0341  -26.0083   22.9014 H   0  0  0  0  0  0
  -19.7951  -30.7293   24.2237 H   0  0  0  0  0  0
  -17.5028  -31.6270   24.5174 H   0  0  0  0  0  0
  -15.5363  -30.2982   23.7674 H   0  0  0  0  0  0
  -15.8689  -28.0821   22.7073 H   0  0  0  0  0  0
  -24.5898  -30.7091   25.7737 H   0  0  0  0  0  0
  -24.8894  -32.2929   26.4792 H   0  0  0  0  0  0
  -25.8000  -30.8957   27.0226 H   0  0  0  0  0  0
  -26.3001  -29.6694   24.1285 H   0  0  0  0  0  0
  -27.4001  -29.7264   25.4851 H   0  0  0  0  0  0
  -27.8908  -30.4212   23.9598 H   0  0  0  0  0  0
  -27.2652  -33.3646   26.2034 H   0  0  0  0  0  0
  -28.3891  -32.6868   25.0349 H   0  0  0  0  0  0
  -28.0699  -31.8487   26.5456 H   0  0  0  0  0  0
  -28.2591  -38.0089   24.7511 H   0  0  0  0  0  0
  -28.1076  -36.2619   24.6296 H   0  0  0  0  0  0
  -27.2292  -37.1440   25.8868 H   0  0  0  0  0  0
  -20.9464  -29.8763   21.6806 H   0  0  0  0  0  0
  -26.0157  -38.2820   24.1409 H   0  0  0  0  0  0
  -31.5749  -18.1883   20.2824 H   0  0  0  0  0  0
  -31.1343  -20.6148   20.3350 H   0  0  0  0  0  0
  -27.4050  -17.4525   20.8354 H   0  0  0  0  0  0
  -25.8428  -19.1585   20.5445 H   0  0  0  0  0  0
  -26.2891  -20.8411   20.3149 H   0  0  0  0  0  0
  -26.3041  -20.1373   21.9369 H   0  0  0  0  0  0
  -28.5695  -21.2270   22.8676 H   0  0  0  0  0  0
  -27.3461  -22.4225   22.4506 H   0  0  0  0  0  0
  -29.0147  -22.9169   22.7301 H   0  0  0  0  0  0
  -29.9947  -23.6110   20.4809 H   0  0  0  0  0  0
  -29.0261  -23.1836   19.1107 H   0  0  0  0  0  0
  -27.8156  -24.7059   21.5461 H   0  0  0  0  0  0
  -27.0423  -24.4310   20.0456 H   0  0  0  0  0  0
  -28.7232  -15.5810   20.8819 H   0  0  0  0  0  0
  1 25  1  0  0  0
  1 30  2  0  0  0
  1 81  1  0  0  0
  2  3  1  0  0  0
  2 25  1  0  0  0
  2 83  1  0  0  0
  2 84  1  0  0  0
  3  4  1  0  0  0
  3 85  1  0  0  0
  3 86  1  0  0  0
  4  5  1  0  0  0
  4 87  1  0  0  0
  4 88  1  0  0  0
  5  6  1  0  0  0
  5 26  1  0  0  0
  5 89  1  0  0  0
  6 25  1  0  0  0
  6 90  1  0  0  0
  6 91  1  0  0  0
  7  8  2  0  0  0
  7 26  1  0  0  0
  7 29  1  0  0  0
  8  9  1  0  0  0
  8 22  1  0  0  0
  9 10  1  0  0  0
  9 27  2  0  0  0
 10 11  2  0  0  0
 10 15  1  0  0  0
 11 12  1  0  0  0
 11 92  1  0  0  0
 12 13  2  0  0  0
 12 93  1  0  0  0
 13 14  1  0  0  0
 13 31  1  0  0  0
 14 15  2  0  0  0
 14 94  1  0  0  0
 15 95  1  0  0  0
 16 17  2  0  0  0
 16 21  1  0  0  0
 16 31  1  0  0  0
 17 18  1  0  0  0
 17 96  1  0  0  0
 18 19  2  0  0  0
 18 97  1  0  0  0
 19 20  1  0  0  0
 19 24  1  0  0  0
 20 21  2  0  0  0
 20 98  1  0  0  0
 21 23  1  0  0  0
 22 28  1  0  0  0
 22 32  2  0  0  0
 26 27  1  0  0  0
 28 99  1  0  0  0
 28100  1  0  0  0
 29101  1  0  0  0
 29102  1  0  0  0
 33 34  1  0  0  0
 33 66  1  0  0  0
 33 70  2  0  0  0
 34 36  1  0  0  0
 34 59  1  0  0  0
 34103  1  0  0  0
 35 44  2  0  0  0
 35 45  1  0  0  0
 35 68  1  0  0  0
 36 56  1  0  0  0
 36104  1  0  0  0
 37 39  1  0  0  0
 37 47  1  0  0  0
 37 66  1  0  0  0
 37105  1  0  0  0
 38 43  2  0  0  0
 38 46  1  0  0  0
 38 47  1  0  0  0
 39 64  1  0  0  0
 39 67  2  0  0  0
 40 52  1  0  0  0
 40 53  2  0  0  0
 40 58  1  0  0  0
 41106  1  0  0  0
 41107  1  0  0  0
 41108  1  0  0  0
 41 48  1  0  0  0
 42 43  1  0  0  0
 42 66  1  0  0  0
 42109  1  0  0  0
 42110  1  0  0  0
 43 44  1  0  0  0
 44111  1  0  0  0
 45 46  2  0  0  0
 45112  1  0  0  0
 46113  1  0  0  0
 47114  1  0  0  0
 47115  1  0  0  0
 48 56  1  0  0  0
 48 65  1  0  0  0
 48116  1  0  0  0
 49 50  1  0  0  0
 49 53  1  0  0  0
 49 64  1  0  0  0
 49117  1  0  0  0
 50 51  1  0  0  0
 50118  1  0  0  0
 50119  1  0  0  0
 51 52  1  0  0  0
 51120  1  0  0  0
 51121  1  0  0  0
 52122  1  0  0  0
 52123  1  0  0  0
 53 54  1  0  0  0
 54 55  2  0  0  0
 54124  1  0  0  0
 55 57  1  0  0  0
 55125  1  0  0  0
 56 69  2  0  0  0
 57 58  2  0  0  0
 57126  1  0  0  0
 58127  1  0  0  0
 59 60  1  0  0  0
 59 61  1  0  0  0
 59 62  1  0  0  0
 60128  1  0  0  0
 60129  1  0  0  0
 60130  1  0  0  0
 61131  1  0  0  0
 61132  1  0  0  0
 61133  1  0  0  0
 62134  1  0  0  0
 62135  1  0  0  0
 62136  1  0  0  0
 63 65  1  0  0  0
 63137  1  0  0  0
 63138  1  0  0  0
 63139  1  0  0  0
 64140  1  0  0  0
 65141  1  0  0  0
 68 80  1  0  0  0
 71 72  2  0  0  0
 71 75  1  0  0  0
 71142  1  0  0  0
 72 76  1  0  0  0
 72143  1  0  0  0
 73 74  1  0  0  0
 73 75  2  0  0  0
 73144  1  0  0  0
 74 76  2  0  0  0
 74 77  1  0  0  0
 75 81  1  0  0  0
 76 82  1  0  0  0
 77145  1  0  0  0
 77146  1  0  0  0
 77147  1  0  0  0
 78 82  1  0  0  0
 78148  1  0  0  0
 78149  1  0  0  0
 78150  1  0  0  0
 79 80  1  0  0  0
 79 82  1  0  0  0
 79151  1  0  0  0
 79152  1  0  0  0
 80153  1  0  0  0
 80154  1  0  0  0
 81155  1  0  0  0
M  ISO  4   1 100  68 101  80 101  81 100
M  END
> <chiral flag>
0

> <version>
0

> <s_m_source_file>
/data/baiqing/PycharmProjects/Reinvent-master-3.2/result/LINK_invent/BTK/process_docking_weight1_custom_sum_contain_oxygen_bond_distance_aromatic_linkinvent_7_9_3/rearranged_h_0015.sdf

> <i_m_source_file_index>
89

> <r_mmod_Potential_Energy-OPLS-2005>
439.221496582031

> <r_mmod_Stretch_Energy-OPLS-2005>
210.651062011719

> <r_mmod_Bend_Energy-OPLS-2005>
276.668182373047

> <r_mmod_Torsional_Energy-OPLS-2005>
245.005493164062

> <r_mmod_Improper_Torsional_Energy-OPLS-2005>
7.2226448059082

> <r_mmod_Van_der_Waal_Energy-OPLS-2005>
136.267471313477

> <r_mmod_Electrostatic_Energy-OPLS-2005>
-385.012603759766

> <r_mmod_Solvation_Energy-OPLS-2005>
-218.010757446289

> <b_mmod_Minimization_Converged-OPLS-2005>
0

> <r_mmod_RMS_Derivative-OPLS-2005>
0.500055015087128

$$$$
90
                    3D
 Structure written by MMmdl.
163171  0  0  1  0            999 V2000
  -30.5824  -14.7987   20.4168 C   0  0  0  0  0  0
  -30.4346  -12.4804   19.4871 C   0  0  0  0  0  0
  -29.5165  -12.5048   18.2448 C   0  0  0  0  0  0
  -28.0399  -12.3339   18.6513 C   0  0  0  0  0  0
  -27.6386  -13.2387   19.8475 C   0  0  2  0  0  0
  -28.6816  -13.1925   20.9847 C   0  0  0  0  0  0
  -25.2494  -13.8212   20.5696 C   0  0  0  0  0  0
  -24.1794  -13.0446   20.9210 C   0  0  0  0  0  0
  -24.6394  -11.6927   20.8744 C   0  0  0  0  0  0
  -23.9074  -10.4296   21.0399 C   0  0  0  0  0  0
  -24.3624   -9.4213   21.9178 C   0  0  0  0  0  0
  -23.6302   -8.2247   22.0752 C   0  0  0  0  0  0
  -22.4283   -8.0281   21.3545 C   0  0  0  0  0  0
  -21.9917   -9.0253   20.4647 C   0  0  0  0  0  0
  -22.7242  -10.2133   20.3057 C   0  0  0  0  0  0
  -21.6856   -6.0737   22.5279 C   0  0  0  0  0  0
  -21.4016   -6.5642   23.8213 C   0  0  0  0  0  0
  -21.3664   -5.6796   24.9177 C   0  0  0  0  0  0
  -21.6043   -4.3057   24.7227 C   0  0  0  0  0  0
  -21.8815   -3.8149   23.4348 C   0  0  0  0  0  0
  -21.9193   -4.6967   22.3403 C   0  0  0  0  0  0
  -22.7814  -13.5221   21.1872 C   0  0  0  0  0  0
  -22.1656   -4.2153   21.0980 F   0  0  0  0  0  0
  -21.5634   -3.4538   25.7738 F   0  0  0  0  0  0
  -29.9780  -13.5560   20.4018 N   0  0  0  0  0  0
  -26.2920  -12.9431   20.3265 N   0  0  0  0  0  0
  -25.9327  -11.6563   20.5752 N   0  0  0  0  0  0
  -22.0460  -12.8213   22.0429 N   0  0  0  0  0  0
  -25.4173  -15.1940   20.4115 N   0  0  0  0  0  0
  -31.7848  -14.8741   20.1432 O   0  0  0  0  0  0
  -21.6644   -6.8879   21.4241 O   0  0  0  0  0  0
  -22.3492  -14.5521   20.6713 O   0  0  0  0  0  0
  -24.6348  -31.8517   23.1949 C   0  0  0  0  0  0
  -25.9158  -32.4734   23.8311 C   0  0  1  0  0  0
  -27.2180  -27.2240   20.1381 C   0  0  0  0  0  0
  -25.5938  -33.8539   24.2231 N   0  0  0  0  0  0
  -23.4334  -30.4732   21.5395 C   0  0  2  0  0  0
  -24.8802  -28.9121   20.1122 C   0  0  0  0  0  0
  -22.7522  -29.4586   22.4902 C   0  0  0  0  0  0
  -18.0295  -28.1390   22.8481 C   0  0  0  0  0  0
  -24.1490  -36.7272   23.2642 C   0  0  0  0  0  0
  -25.9825  -30.7532   21.3800 C   0  0  0  0  0  0
  -26.0543  -29.3726   20.7211 C   0  0  0  0  0  0
  -27.2266  -28.5438   20.7165 C   0  0  0  0  0  0
  -26.0172  -26.8371   19.5030 C   0  0  0  0  0  0
  -24.8694  -27.6547   19.4901 C   0  0  0  0  0  0
  -23.6534  -29.8043   20.1571 C   0  0  0  0  0  0
  -25.4121  -36.3060   24.0321 C   0  0  1  0  0  0
  -20.5899  -28.3706   23.1261 C   0  0  2  0  0  0
  -20.6782  -26.9418   22.5410 C   0  0  0  0  0  0
  -19.5758  -26.6379   21.5215 C   0  0  0  0  0  0
  -18.1936  -26.7933   22.1618 C   0  0  0  0  0  0
  -19.1548  -28.8866   23.2864 C   0  0  0  0  0  0
  -18.9469  -30.1466   23.8887 C   0  0  0  0  0  0
  -17.6468  -30.6591   24.0559 C   0  0  0  0  0  0
  -25.9064  -34.9431   23.5083 C   0  0  0  0  0  0
  -16.5359  -29.9084   23.6335 C   0  0  0  0  0  0
  -16.7280  -28.6500   23.0360 C   0  0  0  0  0  0
  -26.4507  -31.6575   25.0721 C   0  0  0  0  0  0
  -25.3712  -31.3743   26.1427 C   0  0  0  0  0  0
  -27.0356  -30.2980   24.6244 C   0  0  0  0  0  0
  -27.6052  -32.4325   25.7500 C   0  0  0  0  0  0
  -27.5582  -37.1791   24.8461 C   0  0  0  0  0  0
  -21.4225  -29.3044   22.3645 N   0  0  0  0  0  0
  -26.4290  -37.3764   23.9411 N   0  0  0  0  0  0
  -24.7028  -31.0450   22.0940 N   0  0  0  0  0  0
  -23.4205  -28.8133   23.3019 O   0  0  0  0  0  0
  -28.3106  -26.3162   20.1907 O   0  0  0  0  0  0
  -26.5642  -34.8912   22.4656 O   0  0  0  0  0  0
  -23.5487  -32.1357   23.7222 O   0  0  0  0  0  0
  -29.3966  -18.5754   20.5441 C   0  0  0  0  0  0
  -30.4037  -18.6686   17.9712 C   0  0  0  0  0  0
  -29.3999  -19.8809   19.8654 C   0  0  0  0  0  0
  -29.9378  -19.8667   18.5522 C   0  0  0  0  0  0
  -29.8871  -17.3157   19.9613 C   0  0  0  0  0  0
  -30.3435  -17.4127   18.6199 C   0  0  0  0  0  0
  -29.3682  -23.8353   20.2977 C   0  0  0  0  0  0
  -29.9903  -21.1204   17.6903 C   0  0  0  0  0  0
  -30.6207  -24.6884   20.3233 C   0  0  0  0  0  0
  -28.7294  -16.0873   16.4762 C   0  0  0  0  0  0
  -28.7519  -21.2615   20.4157 C   0  0  0  0  0  0
  -28.0888  -24.8064   20.1498 C   0  0  0  0  0  0
  -30.2618  -16.1204   16.5854 C   0  0  0  0  0  0
  -29.6017  -22.5230   20.3867 N   0  0  0  0  0  0
  -29.7993  -15.9489   20.5907 N   0  0  0  0  0  0
  -30.6820  -16.2607   17.9417 O   0  0  0  0  0  0
  -31.4745  -12.6109   19.1828 H   0  0  0  0  0  0
  -30.3895  -11.5103   19.9842 H   0  0  0  0  0  0
  -29.8059  -11.7198   17.5451 H   0  0  0  0  0  0
  -29.6464  -13.4480   17.7147 H   0  0  0  0  0  0
  -27.8932  -11.2861   18.9155 H   0  0  0  0  0  0
  -27.3881  -12.5249   17.7974 H   0  0  0  0  0  0
  -27.6261  -14.2573   19.4591 H   0  0  0  0  0  0
  -28.7260  -12.1991   21.4336 H   0  0  0  0  0  0
  -28.4105  -13.8805   21.7869 H   0  0  0  0  0  0
  -25.2765   -9.5697   22.4758 H   0  0  0  0  0  0
  -24.0017   -7.4639   22.7469 H   0  0  0  0  0  0
  -21.0850   -8.8763   19.8952 H   0  0  0  0  0  0
  -22.3689  -10.9670   19.6172 H   0  0  0  0  0  0
  -21.2006   -7.6149   23.9720 H   0  0  0  0  0  0
  -21.1492   -6.0523   25.9079 H   0  0  0  0  0  0
  -22.0593   -2.7611   23.2846 H   0  0  0  0  0  0
  -22.4082  -11.9882   22.4831 H   0  0  0  0  0  0
  -21.1073  -13.1231   22.2625 H   0  0  0  0  0  0
  -24.6470  -15.8453   20.5192 H   0  0  0  0  0  0
  -26.2626  -15.6349   20.0723 H   0  0  0  0  0  0
  -26.7224  -32.5368   23.1049 H   0  0  0  0  0  0
  -25.0070  -33.9671   25.0366 H   0  0  0  0  0  0
  -22.7316  -31.2964   21.3907 H   0  0  0  0  0  0
  -23.3760  -35.9593   23.3290 H   0  0  0  0  0  0
  -24.3579  -36.8914   22.2058 H   0  0  0  0  0  0
  -23.7230  -37.6460   23.6683 H   0  0  0  0  0  0
  -26.1284  -31.5126   20.6106 H   0  0  0  0  0  0
  -26.8574  -30.8005   22.0173 H   0  0  0  0  0  0
  -28.1261  -28.8930   21.2039 H   0  0  0  0  0  0
  -25.9341  -25.8762   19.0190 H   0  0  0  0  0  0
  -23.9706  -27.2968   19.0072 H   0  0  0  0  0  0
  -23.7824  -30.5797   19.4009 H   0  0  0  0  0  0
  -22.7700  -29.2408   19.8506 H   0  0  0  0  0  0
  -25.1306  -36.1900   25.0812 H   0  0  0  0  0  0
  -20.9988  -28.3289   24.1383 H   0  0  0  0  0  0
  -20.5681  -26.2319   23.3621 H   0  0  0  0  0  0
  -21.6652  -26.7440   22.1206 H   0  0  0  0  0  0
  -19.6922  -25.6286   21.1256 H   0  0  0  0  0  0
  -19.6700  -27.3183   20.6740 H   0  0  0  0  0  0
  -17.4210  -26.6688   21.4014 H   0  0  0  0  0  0
  -18.0325  -26.0074   22.9011 H   0  0  0  0  0  0
  -19.7944  -30.7284   24.2251 H   0  0  0  0  0  0
  -17.5020  -31.6274   24.5153 H   0  0  0  0  0  0
  -15.5357  -30.2984   23.7665 H   0  0  0  0  0  0
  -15.8677  -28.0814   22.7088 H   0  0  0  0  0  0
  -24.5907  -30.7066   25.7758 H   0  0  0  0  0  0
  -24.8877  -32.2913   26.4802 H   0  0  0  0  0  0
  -25.8011  -30.8961   27.0237 H   0  0  0  0  0  0
  -26.2951  -29.6720   24.1249 H   0  0  0  0  0  0
  -27.3993  -29.7256   25.4789 H   0  0  0  0  0  0
  -27.8851  -30.4234   23.9526 H   0  0  0  0  0  0
  -27.2656  -33.3638   26.2045 H   0  0  0  0  0  0
  -28.3880  -32.6862   25.0340 H   0  0  0  0  0  0
  -28.0699  -31.8469   26.5442 H   0  0  0  0  0  0
  -28.2588  -38.0098   24.7522 H   0  0  0  0  0  0
  -28.1090  -36.2630   24.6272 H   0  0  0  0  0  0
  -27.2302  -37.1416   25.8863 H   0  0  0  0  0  0
  -20.9421  -29.8755   21.6832 H   0  0  0  0  0  0
  -26.0165  -38.2834   24.1419 H   0  0  0  0  0  0
  -28.9740  -18.5364   21.5379 H   0  0  0  0  0  0
  -30.7934  -18.7235   16.9666 H   0  0  0  0  0  0
  -30.1908  -20.8831   16.6450 H   0  0  0  0  0  0
  -30.7827  -21.7860   18.0325 H   0  0  0  0  0  0
  -29.0449  -21.6620   17.7148 H   0  0  0  0  0  0
  -30.6097  -25.3481   21.1909 H   0  0  0  0  0  0
  -30.6774  -25.3013   19.4239 H   0  0  0  0  0  0
  -31.5234  -24.0780   20.3730 H   0  0  0  0  0  0
  -28.4202  -15.8668   15.4548 H   0  0  0  0  0  0
  -28.2851  -17.0433   16.7535 H   0  0  0  0  0  0
  -28.3026  -15.3218   17.1238 H   0  0  0  0  0  0
  -28.4460  -21.0763   21.4460 H   0  0  0  0  0  0
  -27.8222  -21.4350   19.8715 H   0  0  0  0  0  0
  -27.3763  -24.5447   20.9320 H   0  0  0  0  0  0
  -27.6189  -24.5458   19.2026 H   0  0  0  0  0  0
  -30.6900  -16.8796   15.9320 H   0  0  0  0  0  0
  -30.6614  -15.1728   16.2239 H   0  0  0  0  0  0
  -28.9189  -15.7651   21.0464 H   0  0  0  0  0  0
  1 25  1  0  0  0
  1 30  2  0  0  0
  1 85  1  0  0  0
  2  3  1  0  0  0
  2 25  1  0  0  0
  2 87  1  0  0  0
  2 88  1  0  0  0
  3  4  1  0  0  0
  3 89  1  0  0  0
  3 90  1  0  0  0
  4  5  1  0  0  0
  4 91  1  0  0  0
  4 92  1  0  0  0
  5  6  1  0  0  0
  5 26  1  0  0  0
  5 93  1  0  0  0
  6 25  1  0  0  0
  6 94  1  0  0  0
  6 95  1  0  0  0
  7  8  2  0  0  0
  7 26  1  0  0  0
  7 29  1  0  0  0
  8  9  1  0  0  0
  8 22  1  0  0  0
  9 10  1  0  0  0
  9 27  2  0  0  0
 10 11  2  0  0  0
 10 15  1  0  0  0
 11 12  1  0  0  0
 11 96  1  0  0  0
 12 13  2  0  0  0
 12 97  1  0  0  0
 13 14  1  0  0  0
 13 31  1  0  0  0
 14 15  2  0  0  0
 14 98  1  0  0  0
 15 99  1  0  0  0
 16 17  2  0  0  0
 16 21  1  0  0  0
 16 31  1  0  0  0
 17 18  1  0  0  0
 17100  1  0  0  0
 18 19  2  0  0  0
 18101  1  0  0  0
 19 20  1  0  0  0
 19 24  1  0  0  0
 20 21  2  0  0  0
 20102  1  0  0  0
 21 23  1  0  0  0
 22 28  1  0  0  0
 22 32  2  0  0  0
 26 27  1  0  0  0
 28103  1  0  0  0
 28104  1  0  0  0
 29105  1  0  0  0
 29106  1  0  0  0
 33 34  1  0  0  0
 33 66  1  0  0  0
 33 70  2  0  0  0
 34 36  1  0  0  0
 34 59  1  0  0  0
 34107  1  0  0  0
 35 44  2  0  0  0
 35 45  1  0  0  0
 35 68  1  0  0  0
 36 56  1  0  0  0
 36108  1  0  0  0
 37 39  1  0  0  0
 37 47  1  0  0  0
 37 66  1  0  0  0
 37109  1  0  0  0
 38 43  2  0  0  0
 38 46  1  0  0  0
 38 47  1  0  0  0
 39 64  1  0  0  0
 39 67  2  0  0  0
 40 52  1  0  0  0
 40 53  2  0  0  0
 40 58  1  0  0  0
 41110  1  0  0  0
 41111  1  0  0  0
 41112  1  0  0  0
 41 48  1  0  0  0
 42 43  1  0  0  0
 42 66  1  0  0  0
 42113  1  0  0  0
 42114  1  0  0  0
 43 44  1  0  0  0
 44115  1  0  0  0
 45 46  2  0  0  0
 45116  1  0  0  0
 46117  1  0  0  0
 47118  1  0  0  0
 47119  1  0  0  0
 48 56  1  0  0  0
 48 65  1  0  0  0
 48120  1  0  0  0
 49 50  1  0  0  0
 49 53  1  0  0  0
 49 64  1  0  0  0
 49121  1  0  0  0
 50 51  1  0  0  0
 50122  1  0  0  0
 50123  1  0  0  0
 51 52  1  0  0  0
 51124  1  0  0  0
 51125  1  0  0  0
 52126  1  0  0  0
 52127  1  0  0  0
 53 54  1  0  0  0
 54 55  2  0  0  0
 54128  1  0  0  0
 55 57  1  0  0  0
 55129  1  0  0  0
 56 69  2  0  0  0
 57 58  2  0  0  0
 57130  1  0  0  0
 58131  1  0  0  0
 59 60  1  0  0  0
 59 61  1  0  0  0
 59 62  1  0  0  0
 60132  1  0  0  0
 60133  1  0  0  0
 60134  1  0  0  0
 61135  1  0  0  0
 61136  1  0  0  0
 61137  1  0  0  0
 62138  1  0  0  0
 62139  1  0  0  0
 62140  1  0  0  0
 63 65  1  0  0  0
 63141  1  0  0  0
 63142  1  0  0  0
 63143  1  0  0  0
 64144  1  0  0  0
 65145  1  0  0  0
 68 82  1  0  0  0
 71 73  2  0  0  0
 71 75  1  0  0  0
 71146  1  0  0  0
 72 74  2  0  0  0
 72 76  1  0  0  0
 72147  1  0  0  0
 73 74  1  0  0  0
 73 81  1  0  0  0
 74 78  1  0  0  0
 75 76  2  0  0  0
 75 85  1  0  0  0
 76 86  1  0  0  0
 77 79  1  0  0  0
 77 82  1  0  0  0
 77 84  2  0  0  0
 78148  1  0  0  0
 78149  1  0  0  0
 78150  1  0  0  0
 79151  1  0  0  0
 79152  1  0  0  0
 79153  1  0  0  0
 80 83  1  0  0  0
 80154  1  0  0  0
 80155  1  0  0  0
 80156  1  0  0  0
 81 84  1  0  0  0
 81157  1  0  0  0
 81158  1  0  0  0
 82159  1  0  0  0
 82160  1  0  0  0
 83 86  1  0  0  0
 83161  1  0  0  0
 83162  1  0  0  0
 85163  1  0  0  0
M  ISO  4   1 100  68 101  82 101  85 100
M  END
> <chiral flag>
0

> <version>
0

> <s_m_source_file>
/data/baiqing/PycharmProjects/Reinvent-master-3.2/result/LINK_invent/BTK/process_docking_weight1_custom_sum_contain_oxygen_bond_distance_aromatic_linkinvent_7_9_3/rearranged_h_0015.sdf

> <i_m_source_file_index>
90

> <r_mmod_Potential_Energy-OPLS-2005>
248.636138916016

> <r_mmod_Stretch_Energy-OPLS-2005>
164.498229980469

> <r_mmod_Bend_Energy-OPLS-2005>
224.970474243164

> <r_mmod_Torsional_Energy-OPLS-2005>
244.844024658203

> <r_mmod_Improper_Torsional_Energy-OPLS-2005>
4.959876537323

> <r_mmod_Van_der_Waal_Energy-OPLS-2005>
140.59651184082

> <r_mmod_Electrostatic_Energy-OPLS-2005>
-413.723846435547

> <r_mmod_Solvation_Energy-OPLS-2005>
-226.860458374023

> <b_mmod_Minimization_Converged-OPLS-2005>
0

> <r_mmod_RMS_Derivative-OPLS-2005>
0.764596462249756

$$$$
91
                    3D
 Structure written by MMmdl.
160168  0  0  1  0            999 V2000
  -30.5338  -14.9671   20.4098 C   0  0  0  0  0  0
  -30.4422  -12.6042   19.4874 C   0  0  0  0  0  0
  -29.5174  -12.5280   18.2502 C   0  0  0  0  0  0
  -28.0540  -12.3049   18.6769 C   0  0  0  0  0  0
  -27.6261  -13.2457   19.8341 C   0  0  2  0  0  0
  -28.6743  -13.2911   20.9671 C   0  0  0  0  0  0
  -25.2435  -13.8200   20.5712 C   0  0  0  0  0  0
  -24.1765  -13.0427   20.9245 C   0  0  0  0  0  0
  -24.6388  -11.6902   20.8761 C   0  0  0  0  0  0
  -23.9079  -10.4265   21.0394 C   0  0  0  0  0  0
  -24.3625   -9.4181   21.9176 C   0  0  0  0  0  0
  -23.6297   -8.2212   22.0746 C   0  0  0  0  0  0
  -22.4271   -8.0263   21.3536 C   0  0  0  0  0  0
  -21.9914   -9.0233   20.4630 C   0  0  0  0  0  0
  -22.7244  -10.2112   20.3045 C   0  0  0  0  0  0
  -21.6845   -6.0718   22.5262 C   0  0  0  0  0  0
  -21.4011   -6.5630   23.8195 C   0  0  0  0  0  0
  -21.3668   -5.6783   24.9158 C   0  0  0  0  0  0
  -21.6064   -4.3050   24.7212 C   0  0  0  0  0  0
  -21.8829   -3.8135   23.4327 C   0  0  0  0  0  0
  -21.9187   -4.6947   22.3382 C   0  0  0  0  0  0
  -22.7777  -13.5179   21.1882 C   0  0  0  0  0  0
  -22.1654   -4.2130   21.0958 F   0  0  0  0  0  0
  -21.5644   -3.4541   25.7726 F   0  0  0  0  0  0
  -29.9409  -13.7080   20.3537 N   0  0  0  0  0  0
  -26.2872  -12.9425   20.3254 N   0  0  0  0  0  0
  -25.9323  -11.6563   20.5771 N   0  0  0  0  0  0
  -22.0439  -12.8171   22.0446 N   0  0  0  0  0  0
  -25.4078  -15.1932   20.4097 N   0  0  0  0  0  0
  -31.7482  -15.0224   20.1857 O   0  0  0  0  0  0
  -21.6643   -6.8860   21.4220 O   0  0  0  0  0  0
  -22.3430  -14.5450   20.6688 O   0  0  0  0  0  0
  -24.6460  -31.8417   23.1865 C   0  0  0  0  0  0
  -25.9230  -32.4685   23.8262 C   0  0  1  0  0  0
  -27.2219  -27.1196   20.1405 C   0  0  0  0  0  0
  -25.5974  -33.8488   24.2184 N   0  0  0  0  0  0
  -23.4514  -30.4596   21.5331 C   0  0  2  0  0  0
  -24.9015  -28.8840   20.1093 C   0  0  0  0  0  0
  -22.7592  -29.4535   22.4870 C   0  0  0  0  0  0
  -18.0308  -28.1395   22.8479 C   0  0  0  0  0  0
  -24.1489  -36.7238   23.2645 C   0  0  0  0  0  0
  -26.0096  -30.7092   21.3887 C   0  0  0  0  0  0
  -26.0806  -29.3197   20.7267 C   0  0  0  0  0  0
  -27.2415  -28.4544   20.7229 C   0  0  0  0  0  0
  -26.0142  -26.7920   19.4844 C   0  0  0  0  0  0
  -24.8823  -27.6348   19.4722 C   0  0  0  0  0  0
  -23.6778  -29.7871   20.1531 C   0  0  0  0  0  0
  -25.4127  -36.3033   24.0315 C   0  0  1  0  0  0
  -20.5920  -28.3728   23.1232 C   0  0  2  0  0  0
  -20.6787  -26.9424   22.5408 C   0  0  0  0  0  0
  -19.5760  -26.6376   21.5218 C   0  0  0  0  0  0
  -18.1941  -26.7936   22.1621 C   0  0  0  0  0  0
  -19.1563  -28.8879   23.2849 C   0  0  0  0  0  0
  -18.9476  -30.1477   23.8875 C   0  0  0  0  0  0
  -17.6475  -30.6593   24.0562 C   0  0  0  0  0  0
  -25.9075  -34.9406   23.5058 C   0  0  0  0  0  0
  -16.5369  -29.9081   23.6341 C   0  0  0  0  0  0
  -16.7293  -28.6497   23.0361 C   0  0  0  0  0  0
  -26.4532  -31.6566   25.0719 C   0  0  0  0  0  0
  -25.3686  -31.3754   26.1391 C   0  0  0  0  0  0
  -27.0416  -30.2964   24.6328 C   0  0  0  0  0  0
  -27.6063  -32.4336   25.7511 C   0  0  0  0  0  0
  -27.5574  -37.1781   24.8464 C   0  0  0  0  0  0
  -21.4281  -29.3047   22.3607 N   0  0  0  0  0  0
  -26.4285  -37.3751   23.9410 N   0  0  0  0  0  0
  -24.7229  -31.0249   22.0915 N   0  0  0  0  0  0
  -23.4213  -28.8086   23.3040 O   0  0  0  0  0  0
  -28.2688  -26.1204   20.2112 O   0  0  0  0  0  0
  -26.5668  -34.8906   22.4636 O   0  0  0  0  0  0
  -23.5575  -32.1309   23.7072 O   0  0  0  0  0  0
  -29.1504  -18.8155   20.2051 C   0  0  0  0  0  0
  -30.6316  -20.4219   21.1840 C   0  0  0  0  0  0
  -29.4286  -20.2574   20.4720 C   0  0  0  0  0  0
  -30.0101  -17.6680   20.6119 C   0  0  0  0  0  0
  -31.1414  -18.1171   21.3311 C   0  0  0  0  0  0
  -30.3414  -23.4396   19.6379 C   0  0  0  0  0  0
  -27.2403  -21.4321   21.0122 C   0  0  0  0  0  0
  -28.0360  -21.4342   18.6568 C   0  0  0  0  0  0
  -27.9973  -24.5926   19.9763 C   0  0  0  0  0  0
  -28.9711  -23.2276   20.3130 C   0  0  1  0  0  0
  -28.4882  -21.5900   20.1231 C   0  0  0  0  0  0
  -31.4338  -19.4066   21.5969 N   0  0  0  0  0  0
  -32.0228  -17.2309   21.9206 N   0  0  0  0  0  0
  -29.7371  -16.1538   20.4513 N   0  0  0  0  0  0
  -31.4715  -12.7728   19.1689 H   0  0  0  0  0  0
  -30.4507  -11.6598   20.0348 H   0  0  0  0  0  0
  -29.8395  -11.7284   17.5824 H   0  0  0  0  0  0
  -29.5941  -13.4515   17.6727 H   0  0  0  0  0  0
  -27.9615  -11.2661   18.9964 H   0  0  0  0  0  0
  -27.3855  -12.4188   17.8219 H   0  0  0  0  0  0
  -27.5784  -14.2423   19.3955 H   0  0  0  0  0  0
  -28.7728  -12.3214   21.4567 H   0  0  0  0  0  0
  -28.3774  -13.9996   21.7418 H   0  0  0  0  0  0
  -25.2766   -9.5646   22.4763 H   0  0  0  0  0  0
  -24.0000   -7.4604   22.7472 H   0  0  0  0  0  0
  -21.0842   -8.8749   19.8930 H   0  0  0  0  0  0
  -22.3705  -10.9655   19.6152 H   0  0  0  0  0  0
  -21.1997   -7.6139   23.9697 H   0  0  0  0  0  0
  -21.1497   -6.0509   25.9062 H   0  0  0  0  0  0
  -22.0602   -2.7595   23.2831 H   0  0  0  0  0  0
  -22.4079  -11.9865   22.4888 H   0  0  0  0  0  0
  -21.1023  -13.1145   22.2596 H   0  0  0  0  0  0
  -24.6360  -15.8426   20.5208 H   0  0  0  0  0  0
  -26.2474  -15.6355   20.0599 H   0  0  0  0  0  0
  -26.7307  -32.5280   23.0994 H   0  0  0  0  0  0
  -25.0105  -33.9598   25.0325 H   0  0  0  0  0  0
  -22.7555  -31.2865   21.3768 H   0  0  0  0  0  0
  -23.3770  -35.9544   23.3285 H   0  0  0  0  0  0
  -24.3574  -36.8894   22.2063 H   0  0  0  0  0  0
  -23.7208  -37.6410   23.6694 H   0  0  0  0  0  0
  -26.1681  -31.4662   20.6199 H   0  0  0  0  0  0
  -26.8774  -30.7578   22.0348 H   0  0  0  0  0  0
  -28.1412  -28.7840   21.2229 H   0  0  0  0  0  0
  -25.9070  -25.8388   18.9905 H   0  0  0  0  0  0
  -23.9842  -27.2984   18.9749 H   0  0  0  0  0  0
  -23.8162  -30.5602   19.3964 H   0  0  0  0  0  0
  -22.7923  -29.2294   19.8435 H   0  0  0  0  0  0
  -25.1316  -36.1857   25.0804 H   0  0  0  0  0  0
  -21.0009  -28.3314   24.1362 H   0  0  0  0  0  0
  -20.5686  -26.2339   23.3634 H   0  0  0  0  0  0
  -21.6653  -26.7429   22.1198 H   0  0  0  0  0  0
  -19.6914  -25.6277   21.1275 H   0  0  0  0  0  0
  -19.6696  -27.3170   20.6737 H   0  0  0  0  0  0
  -17.4215  -26.6710   21.4016 H   0  0  0  0  0  0
  -18.0318  -26.0074   22.9008 H   0  0  0  0  0  0
  -19.7946  -30.7311   24.2227 H   0  0  0  0  0  0
  -17.5013  -31.6272   24.5160 H   0  0  0  0  0  0
  -15.5360  -30.2971   23.7670 H   0  0  0  0  0  0
  -15.8690  -28.0805   22.7091 H   0  0  0  0  0  0
  -24.5855  -30.7141   25.7664 H   0  0  0  0  0  0
  -24.8890  -32.2939   26.4785 H   0  0  0  0  0  0
  -25.7920  -30.8903   27.0194 H   0  0  0  0  0  0
  -26.3054  -29.6671   24.1315 H   0  0  0  0  0  0
  -27.4007  -29.7288   25.4924 H   0  0  0  0  0  0
  -27.8967  -30.4216   23.9681 H   0  0  0  0  0  0
  -27.2658  -33.3643   26.2064 H   0  0  0  0  0  0
  -28.3880  -32.6886   25.0341 H   0  0  0  0  0  0
  -28.0728  -31.8478   26.5444 H   0  0  0  0  0  0
  -28.2581  -38.0094   24.7536 H   0  0  0  0  0  0
  -28.1089  -36.2624   24.6263 H   0  0  0  0  0  0
  -27.2298  -37.1388   25.8871 H   0  0  0  0  0  0
  -20.9504  -29.8748   21.6769 H   0  0  0  0  0  0
  -26.0151  -38.2813   24.1428 H   0  0  0  0  0  0
  -28.2296  -18.5805   19.6917 H   0  0  0  0  0  0
  -30.9610  -21.4094   21.4704 H   0  0  0  0  0  0
  -30.2970  -24.2181   18.8756 H   0  0  0  0  0  0
  -30.7079  -22.5361   19.1509 H   0  0  0  0  0  0
  -31.0953  -23.7425   20.3649 H   0  0  0  0  0  0
  -26.7774  -20.4511   20.8974 H   0  0  0  0  0  0
  -26.4744  -22.1714   20.7772 H   0  0  0  0  0  0
  -27.4947  -21.5499   22.0653 H   0  0  0  0  0  0
  -27.5282  -20.4850   18.4841 H   0  0  0  0  0  0
  -28.8782  -21.4776   17.9677 H   0  0  0  0  0  0
  -27.3382  -22.2178   18.3610 H   0  0  0  0  0  0
  -27.0452  -24.3995   20.4689 H   0  0  0  0  0  0
  -27.7764  -24.5234   18.9103 H   0  0  0  0  0  0
  -29.1619  -23.3133   21.3832 H   0  0  0  0  0  0
  -32.8973  -17.6177   22.2464 H   0  0  0  0  0  0
  -32.1374  -16.3560   21.4094 H   0  0  0  0  0  0
  -28.7567  -15.9368   20.3801 H   0  0  0  0  0  0
  1 25  1  0  0  0
  1 30  2  0  0  0
  1 84  1  0  0  0
  2  3  1  0  0  0
  2 25  1  0  0  0
  2 85  1  0  0  0
  2 86  1  0  0  0
  3  4  1  0  0  0
  3 87  1  0  0  0
  3 88  1  0  0  0
  4  5  1  0  0  0
  4 89  1  0  0  0
  4 90  1  0  0  0
  5  6  1  0  0  0
  5 26  1  0  0  0
  5 91  1  0  0  0
  6 25  1  0  0  0
  6 92  1  0  0  0
  6 93  1  0  0  0
  7  8  2  0  0  0
  7 26  1  0  0  0
  7 29  1  0  0  0
  8  9  1  0  0  0
  8 22  1  0  0  0
  9 10  1  0  0  0
  9 27  2  0  0  0
 10 11  2  0  0  0
 10 15  1  0  0  0
 11 12  1  0  0  0
 11 94  1  0  0  0
 12 13  2  0  0  0
 12 95  1  0  0  0
 13 14  1  0  0  0
 13 31  1  0  0  0
 14 15  2  0  0  0
 14 96  1  0  0  0
 15 97  1  0  0  0
 16 17  2  0  0  0
 16 21  1  0  0  0
 16 31  1  0  0  0
 17 18  1  0  0  0
 17 98  1  0  0  0
 18 19  2  0  0  0
 18 99  1  0  0  0
 19 20  1  0  0  0
 19 24  1  0  0  0
 20 21  2  0  0  0
 20100  1  0  0  0
 21 23  1  0  0  0
 22 28  1  0  0  0
 22 32  2  0  0  0
 26 27  1  0  0  0
 28101  1  0  0  0
 28102  1  0  0  0
 29103  1  0  0  0
 29104  1  0  0  0
 33 34  1  0  0  0
 33 66  1  0  0  0
 33 70  2  0  0  0
 34 36  1  0  0  0
 34 59  1  0  0  0
 34105  1  0  0  0
 35 44  2  0  0  0
 35 45  1  0  0  0
 35 68  1  0  0  0
 36 56  1  0  0  0
 36106  1  0  0  0
 37 39  1  0  0  0
 37 47  1  0  0  0
 37 66  1  0  0  0
 37107  1  0  0  0
 38 43  2  0  0  0
 38 46  1  0  0  0
 38 47  1  0  0  0
 39 64  1  0  0  0
 39 67  2  0  0  0
 40 52  1  0  0  0
 40 53  2  0  0  0
 40 58  1  0  0  0
 41108  1  0  0  0
 41109  1  0  0  0
 41110  1  0  0  0
 41 48  1  0  0  0
 42 43  1  0  0  0
 42 66  1  0  0  0
 42111  1  0  0  0
 42112  1  0  0  0
 43 44  1  0  0  0
 44113  1  0  0  0
 45 46  2  0  0  0
 45114  1  0  0  0
 46115  1  0  0  0
 47116  1  0  0  0
 47117  1  0  0  0
 48 56  1  0  0  0
 48 65  1  0  0  0
 48118  1  0  0  0
 49 50  1  0  0  0
 49 53  1  0  0  0
 49 64  1  0  0  0
 49119  1  0  0  0
 50 51  1  0  0  0
 50120  1  0  0  0
 50121  1  0  0  0
 51 52  1  0  0  0
 51122  1  0  0  0
 51123  1  0  0  0
 52124  1  0  0  0
 52125  1  0  0  0
 53 54  1  0  0  0
 54 55  2  0  0  0
 54126  1  0  0  0
 55 57  1  0  0  0
 55127  1  0  0  0
 56 69  2  0  0  0
 57 58  2  0  0  0
 57128  1  0  0  0
 58129  1  0  0  0
 59 60  1  0  0  0
 59 61  1  0  0  0
 59 62  1  0  0  0
 60130  1  0  0  0
 60131  1  0  0  0
 60132  1  0  0  0
 61133  1  0  0  0
 61134  1  0  0  0
 61135  1  0  0  0
 62136  1  0  0  0
 62137  1  0  0  0
 62138  1  0  0  0
 63 65  1  0  0  0
 63139  1  0  0  0
 63140  1  0  0  0
 63141  1  0  0  0
 64142  1  0  0  0
 65143  1  0  0  0
 68 79  1  0  0  0
 71 73  2  0  0  0
 71 74  1  0  0  0
 71144  1  0  0  0
 72 73  1  0  0  0
 72 82  2  0  0  0
 72145  1  0  0  0
 73 81  1  0  0  0
 74 75  2  0  0  0
 74 84  1  0  0  0
 75 82  1  0  0  0
 75 83  1  0  0  0
 76146  1  0  0  0
 76147  1  0  0  0
 76148  1  0  0  0
 76 80  1  0  0  0
 77149  1  0  0  0
 77150  1  0  0  0
 77151  1  0  0  0
 77 81  1  0  0  0
 78 81  1  0  0  0
 78152  1  0  0  0
 78153  1  0  0  0
 78154  1  0  0  0
 79 80  1  0  0  0
 79155  1  0  0  0
 79156  1  0  0  0
 80 81  1  0  0  0
 80157  1  0  0  0
 83158  1  0  0  0
 83159  1  0  0  0
 84160  1  0  0  0
M  ISO  4   1 100  68 101  79 101  84 100
M  END
> <chiral flag>
0

> <version>
0

> <s_m_source_file>
/data/baiqing/PycharmProjects/Reinvent-master-3.2/result/LINK_invent/BTK/process_docking_weight1_custom_sum_contain_oxygen_bond_distance_aromatic_linkinvent_7_9_3/rearranged_h_0015.sdf

> <i_m_source_file_index>
91

> <r_mmod_Potential_Energy-OPLS-2005>
214.727127075195

> <r_mmod_Stretch_Energy-OPLS-2005>
293.1962890625

> <r_mmod_Bend_Energy-OPLS-2005>
263.309692382812

> <r_mmod_Torsional_Energy-OPLS-2005>
249.656814575195

> <r_mmod_Improper_Torsional_Energy-OPLS-2005>
10.9758911132812

> <r_mmod_Van_der_Waal_Energy-OPLS-2005>
140.62419128418

> <r_mmod_Electrostatic_Energy-OPLS-2005>
-736.783569335938

> <r_mmod_Solvation_Energy-OPLS-2005>
-215.432922363281

> <b_mmod_Minimization_Converged-OPLS-2005>
0

> <r_mmod_RMS_Derivative-OPLS-2005>
2.45367026329041

$$$$
92
                    3D
 Structure written by MMmdl.
164172  0  0  1  0            999 V2000
  -30.6207  -14.6299   20.5056 C   0  0  0  0  0  0
  -30.4406  -12.3874   19.4494 C   0  0  0  0  0  0
  -29.5093  -12.5125   18.2227 C   0  0  0  0  0  0
  -28.0314  -12.3502   18.6336 C   0  0  0  0  0  0
  -27.6558  -13.2155   19.8661 C   0  0  2  0  0  0
  -28.7005  -13.0572   20.9943 C   0  0  0  0  0  0
  -25.2571  -13.8170   20.5685 C   0  0  0  0  0  0
  -24.1832  -13.0438   20.9183 C   0  0  0  0  0  0
  -24.6395  -11.6908   20.8730 C   0  0  0  0  0  0
  -23.9059  -10.4294   21.0399 C   0  0  0  0  0  0
  -24.3611   -9.4211   21.9179 C   0  0  0  0  0  0
  -23.6289   -8.2245   22.0752 C   0  0  0  0  0  0
  -22.4272   -8.0281   21.3543 C   0  0  0  0  0  0
  -21.9904   -9.0253   20.4645 C   0  0  0  0  0  0
  -22.7230  -10.2133   20.3049 C   0  0  0  0  0  0
  -21.6852   -6.0732   22.5279 C   0  0  0  0  0  0
  -21.4013   -6.5636   23.8213 C   0  0  0  0  0  0
  -21.3661   -5.6789   24.9175 C   0  0  0  0  0  0
  -21.6046   -4.3051   24.7225 C   0  0  0  0  0  0
  -21.8820   -3.8143   23.4345 C   0  0  0  0  0  0
  -21.9193   -4.6960   22.3401 C   0  0  0  0  0  0
  -22.7854  -13.5233   21.1848 C   0  0  0  0  0  0
  -22.1662   -4.2147   21.0978 F   0  0  0  0  0  0
  -21.5630   -3.4534   25.7736 F   0  0  0  0  0  0
  -30.0178  -13.4015   20.4348 N   0  0  0  0  0  0
  -26.3001  -12.9348   20.3327 N   0  0  0  0  0  0
  -25.9324  -11.6503   20.5747 N   0  0  0  0  0  0
  -22.0490  -12.8231   22.0403 N   0  0  0  0  0  0
  -25.4283  -15.1892   20.4113 N   0  0  0  0  0  0
  -31.7797  -14.8012   20.1167 O   0  0  0  0  0  0
  -21.6640   -6.8876   21.4242 O   0  0  0  0  0  0
  -22.3541  -14.5537   20.6694 O   0  0  0  0  0  0
  -24.6255  -31.8608   23.2039 C   0  0  0  0  0  0
  -25.9107  -32.4783   23.8360 C   0  0  1  0  0  0
  -27.2239  -27.3287   20.1101 C   0  0  0  0  0  0
  -25.5929  -33.8584   24.2287 N   0  0  0  0  0  0
  -23.4182  -30.4857   21.5468 C   0  0  2  0  0  0
  -24.8638  -28.9448   20.1108 C   0  0  0  0  0  0
  -22.7469  -29.4628   22.4944 C   0  0  0  0  0  0
  -18.0286  -28.1380   22.8490 C   0  0  0  0  0  0
  -24.1490  -36.7294   23.2639 C   0  0  0  0  0  0
  -25.9594  -30.7950   21.3732 C   0  0  0  0  0  0
  -26.0337  -29.4242   20.7133 C   0  0  0  0  0  0
  -27.2169  -28.6284   20.7024 C   0  0  0  0  0  0
  -26.0280  -26.9022   19.4845 C   0  0  0  0  0  0
  -24.8624  -27.6889   19.4877 C   0  0  0  0  0  0
  -23.6313  -29.8229   20.1613 C   0  0  0  0  0  0
  -25.4114  -36.3086   24.0332 C   0  0  1  0  0  0
  -20.5885  -28.3682   23.1291 C   0  0  2  0  0  0
  -20.6773  -26.9408   22.5411 C   0  0  0  0  0  0
  -19.5749  -26.6383   21.5213 C   0  0  0  0  0  0
  -18.1929  -26.7926   22.1625 C   0  0  0  0  0  0
  -19.1538  -28.8848   23.2885 C   0  0  0  0  0  0
  -18.9462  -30.1452   23.8897 C   0  0  0  0  0  0
  -17.6461  -30.6584   24.0562 C   0  0  0  0  0  0
  -25.9051  -34.9456   23.5108 C   0  0  0  0  0  0
  -16.5351  -29.9082   23.6330 C   0  0  0  0  0  0
  -16.7272  -28.6499   23.0352 C   0  0  0  0  0  0
  -26.4494  -31.6588   25.0724 C   0  0  0  0  0  0
  -25.3733  -31.3721   26.1454 C   0  0  0  0  0  0
  -27.0333  -30.3015   24.6163 C   0  0  0  0  0  0
  -27.6056  -32.4318   25.7495 C   0  0  0  0  0  0
  -27.5580  -37.1803   24.8464 C   0  0  0  0  0  0
  -21.4184  -29.3039   22.3687 N   0  0  0  0  0  0
  -26.4293  -37.3780   23.9409 N   0  0  0  0  0  0
  -24.6867  -31.0631   22.0984 N   0  0  0  0  0  0
  -23.4201  -28.8162   23.3012 O   0  0  0  0  0  0
  -28.3443  -26.4833   20.1591 O   0  0  0  0  0  0
  -26.5610  -34.8922   22.4669 O   0  0  0  0  0  0
  -23.5421  -32.1400   23.7376 O   0  0  0  0  0  0
  -30.1405  -19.2623   19.5722 C   0  0  0  0  0  0
  -30.1564  -17.8351   19.6023 C   0  0  0  0  0  0
  -29.5602  -19.3452   21.9136 C   0  0  0  0  0  0
  -29.6127  -17.9082   21.9651 C   0  0  0  0  0  0
  -29.8567  -20.0576   20.7102 C   0  0  0  0  0  0
  -29.9220  -17.1202   20.8138 C   0  0  0  0  0  0
  -30.3994  -17.0990   18.2952 C   0  0  0  0  0  0
  -29.1908  -20.1197   23.1781 C   0  0  0  0  0  0
  -29.3335  -17.1959   23.2894 C   0  0  0  0  0  0
  -31.1622  -21.9399   21.4494 C   0  0  0  0  0  0
  -29.2695  -24.0058   20.3903 C   0  0  0  0  0  0
  -28.9036  -22.4473   20.4114 C   0  0  0  0  0  0
  -28.1085  -25.0270   20.0409 C   0  0  0  0  0  0
  -29.8065  -15.6618   20.8886 N   0  0  0  0  0  0
  -30.0293  -21.4856   20.6438 N   0  0  0  0  0  0
  -31.4820  -12.5146   19.1483 H   0  0  0  0  0  0
  -30.3746  -11.3885   19.8837 H   0  0  0  0  0  0
  -29.7726  -11.7668   17.4716 H   0  0  0  0  0  0
  -29.6529  -13.4854   17.7498 H   0  0  0  0  0  0
  -27.8656  -11.2961   18.8596 H   0  0  0  0  0  0
  -27.3776  -12.5865   17.7934 H   0  0  0  0  0  0
  -27.6772  -14.2530   19.5319 H   0  0  0  0  0  0
  -28.7100  -12.0311   21.3654 H   0  0  0  0  0  0
  -28.4464  -13.6788   21.8543 H   0  0  0  0  0  0
  -25.2757   -9.5692   22.4751 H   0  0  0  0  0  0
  -24.0002   -7.4636   22.7469 H   0  0  0  0  0  0
  -21.0833   -8.8766   19.8952 H   0  0  0  0  0  0
  -22.3684  -10.9668   19.6155 H   0  0  0  0  0  0
  -21.2004   -7.6144   23.9715 H   0  0  0  0  0  0
  -21.1484   -6.0518   25.9079 H   0  0  0  0  0  0
  -22.0597   -2.7605   23.2842 H   0  0  0  0  0  0
  -22.4099  -11.9897   22.4804 H   0  0  0  0  0  0
  -21.1106  -13.1265   22.2597 H   0  0  0  0  0  0
  -24.6604  -15.8424   20.5204 H   0  0  0  0  0  0
  -26.2794  -15.6314   20.0881 H   0  0  0  0  0  0
  -26.7174  -32.5454   23.1108 H   0  0  0  0  0  0
  -25.0085  -33.9731   25.0438 H   0  0  0  0  0  0
  -22.7116  -31.3063   21.4060 H   0  0  0  0  0  0
  -23.3754  -35.9625   23.3299 H   0  0  0  0  0  0
  -24.3584  -36.8914   22.2053 H   0  0  0  0  0  0
  -23.7241  -37.6498   23.6657 H   0  0  0  0  0  0
  -26.0900  -31.5603   20.6068 H   0  0  0  0  0  0
  -26.8406  -30.8424   22.0015 H   0  0  0  0  0  0
  -28.1149  -28.9928   21.1815 H   0  0  0  0  0  0
  -25.9592  -25.9449   18.9909 H   0  0  0  0  0  0
  -23.9658  -27.3170   19.0109 H   0  0  0  0  0  0
  -23.7487  -30.6001   19.4052 H   0  0  0  0  0  0
  -22.7517  -29.2512   19.8599 H   0  0  0  0  0  0
  -25.1294  -36.1940   25.0824 H   0  0  0  0  0  0
  -20.9980  -28.3249   24.1410 H   0  0  0  0  0  0
  -20.5679  -26.2287   23.3604 H   0  0  0  0  0  0
  -21.6642  -26.7440   22.1200 H   0  0  0  0  0  0
  -19.6909  -25.6295   21.1240 H   0  0  0  0  0  0
  -19.6689  -27.3194   20.6744 H   0  0  0  0  0  0
  -17.4201  -26.6680   21.4024 H   0  0  0  0  0  0
  -18.0327  -26.0064   22.9018 H   0  0  0  0  0  0
  -19.7936  -30.7270   24.2264 H   0  0  0  0  0  0
  -17.5015  -31.6267   24.5158 H   0  0  0  0  0  0
  -15.5352  -30.2983   23.7654 H   0  0  0  0  0  0
  -15.8674  -28.0818   22.7066 H   0  0  0  0  0  0
  -24.5910  -30.7065   25.7786 H   0  0  0  0  0  0
  -24.8919  -32.2885   26.4878 H   0  0  0  0  0  0
  -25.8064  -30.8904   27.0228 H   0  0  0  0  0  0
  -26.2899  -29.6770   24.1194 H   0  0  0  0  0  0
  -27.4048  -29.7264   25.4654 H   0  0  0  0  0  0
  -27.8763  -30.4307   23.9370 H   0  0  0  0  0  0
  -27.2669  -33.3621   26.2067 H   0  0  0  0  0  0
  -28.3871  -32.6872   25.0326 H   0  0  0  0  0  0
  -28.0717  -31.8443   26.5415 H   0  0  0  0  0  0
  -28.2597  -38.0101   24.7514 H   0  0  0  0  0  0
  -28.1077  -36.2632   24.6287 H   0  0  0  0  0  0
  -27.2299  -37.1448   25.8868 H   0  0  0  0  0  0
  -20.9355  -29.8773   21.6913 H   0  0  0  0  0  0
  -26.0175  -38.2856   24.1406 H   0  0  0  0  0  0
  -30.3682  -19.7655   18.6430 H   0  0  0  0  0  0
  -30.2674  -17.7587   17.4372 H   0  0  0  0  0  0
  -29.7017  -16.2696   18.1772 H   0  0  0  0  0  0
  -31.4161  -16.7082   18.2611 H   0  0  0  0  0  0
  -28.3736  -19.6382   23.7143 H   0  0  0  0  0  0
  -28.8508  -21.1310   22.9661 H   0  0  0  0  0  0
  -30.0504  -20.1887   23.8446 H   0  0  0  0  0  0
  -29.7377  -17.7480   24.1372 H   0  0  0  0  0  0
  -29.7937  -16.2102   23.3442 H   0  0  0  0  0  0
  -28.2600  -17.0775   23.4367 H   0  0  0  0  0  0
  -31.8534  -21.1274   21.6822 H   0  0  0  0  0  0
  -30.8278  -22.3737   22.3926 H   0  0  0  0  0  0
  -31.7302  -22.7013   20.9136 H   0  0  0  0  0  0
  -30.0832  -24.1689   19.6831 H   0  0  0  0  0  0
  -29.6626  -24.2832   21.3684 H   0  0  0  0  0  0
  -28.4453  -22.1877   19.4560 H   0  0  0  0  0  0
  -28.1308  -22.2753   21.1611 H   0  0  0  0  0  0
  -27.2582  -24.7710   20.6753 H   0  0  0  0  0  0
  -27.8068  -24.8130   19.0150 H   0  0  0  0  0  0
  -28.9443  -15.3381   21.2984 H   0  0  0  0  0  0
  1 25  1  0  0  0
  1 30  2  0  0  0
  1 84  1  0  0  0
  2  3  1  0  0  0
  2 25  1  0  0  0
  2 86  1  0  0  0
  2 87  1  0  0  0
  3  4  1  0  0  0
  3 88  1  0  0  0
  3 89  1  0  0  0
  4  5  1  0  0  0
  4 90  1  0  0  0
  4 91  1  0  0  0
  5  6  1  0  0  0
  5 26  1  0  0  0
  5 92  1  0  0  0
  6 25  1  0  0  0
  6 93  1  0  0  0
  6 94  1  0  0  0
  7  8  2  0  0  0
  7 26  1  0  0  0
  7 29  1  0  0  0
  8  9  1  0  0  0
  8 22  1  0  0  0
  9 10  1  0  0  0
  9 27  2  0  0  0
 10 11  2  0  0  0
 10 15  1  0  0  0
 11 12  1  0  0  0
 11 95  1  0  0  0
 12 13  2  0  0  0
 12 96  1  0  0  0
 13 14  1  0  0  0
 13 31  1  0  0  0
 14 15  2  0  0  0
 14 97  1  0  0  0
 15 98  1  0  0  0
 16 17  2  0  0  0
 16 21  1  0  0  0
 16 31  1  0  0  0
 17 18  1  0  0  0
 17 99  1  0  0  0
 18 19  2  0  0  0
 18100  1  0  0  0
 19 20  1  0  0  0
 19 24  1  0  0  0
 20 21  2  0  0  0
 20101  1  0  0  0
 21 23  1  0  0  0
 22 28  1  0  0  0
 22 32  2  0  0  0
 26 27  1  0  0  0
 28102  1  0  0  0
 28103  1  0  0  0
 29104  1  0  0  0
 29105  1  0  0  0
 33 34  1  0  0  0
 33 66  1  0  0  0
 33 70  2  0  0  0
 34 36  1  0  0  0
 34 59  1  0  0  0
 34106  1  0  0  0
 35 44  2  0  0  0
 35 45  1  0  0  0
 35 68  1  0  0  0
 36 56  1  0  0  0
 36107  1  0  0  0
 37 39  1  0  0  0
 37 47  1  0  0  0
 37 66  1  0  0  0
 37108  1  0  0  0
 38 43  2  0  0  0
 38 46  1  0  0  0
 38 47  1  0  0  0
 39 64  1  0  0  0
 39 67  2  0  0  0
 40 52  1  0  0  0
 40 53  2  0  0  0
 40 58  1  0  0  0
 41109  1  0  0  0
 41110  1  0  0  0
 41111  1  0  0  0
 41 48  1  0  0  0
 42 43  1  0  0  0
 42 66  1  0  0  0
 42112  1  0  0  0
 42113  1  0  0  0
 43 44  1  0  0  0
 44114  1  0  0  0
 45 46  2  0  0  0
 45115  1  0  0  0
 46116  1  0  0  0
 47117  1  0  0  0
 47118  1  0  0  0
 48 56  1  0  0  0
 48 65  1  0  0  0
 48119  1  0  0  0
 49 50  1  0  0  0
 49 53  1  0  0  0
 49 64  1  0  0  0
 49120  1  0  0  0
 50 51  1  0  0  0
 50121  1  0  0  0
 50122  1  0  0  0
 51 52  1  0  0  0
 51123  1  0  0  0
 51124  1  0  0  0
 52125  1  0  0  0
 52126  1  0  0  0
 53 54  1  0  0  0
 54 55  2  0  0  0
 54127  1  0  0  0
 55 57  1  0  0  0
 55128  1  0  0  0
 56 69  2  0  0  0
 57 58  2  0  0  0
 57129  1  0  0  0
 58130  1  0  0  0
 59 60  1  0  0  0
 59 61  1  0  0  0
 59 62  1  0  0  0
 60131  1  0  0  0
 60132  1  0  0  0
 60133  1  0  0  0
 61134  1  0  0  0
 61135  1  0  0  0
 61136  1  0  0  0
 62137  1  0  0  0
 62138  1  0  0  0
 62139  1  0  0  0
 63 65  1  0  0  0
 63140  1  0  0  0
 63141  1  0  0  0
 63142  1  0  0  0
 64143  1  0  0  0
 65144  1  0  0  0
 68 83  1  0  0  0
 71 72  2  0  0  0
 71 75  1  0  0  0
 71145  1  0  0  0
 72 76  1  0  0  0
 72 77  1  0  0  0
 73 74  1  0  0  0
 73 75  2  0  0  0
 73 78  1  0  0  0
 74 76  2  0  0  0
 74 79  1  0  0  0
 75 85  1  0  0  0
 76 84  1  0  0  0
 77146  1  0  0  0
 77147  1  0  0  0
 77148  1  0  0  0
 78149  1  0  0  0
 78150  1  0  0  0
 78151  1  0  0  0
 79152  1  0  0  0
 79153  1  0  0  0
 79154  1  0  0  0
 80 85  1  0  0  0
 80155  1  0  0  0
 80156  1  0  0  0
 80157  1  0  0  0
 81 82  1  0  0  0
 81 83  1  0  0  0
 81158  1  0  0  0
 81159  1  0  0  0
 82 85  1  0  0  0
 82160  1  0  0  0
 82161  1  0  0  0
 83162  1  0  0  0
 83163  1  0  0  0
 84164  1  0  0  0
M  ISO  4   1 100  68 101  83 101  84 100
M  END
> <chiral flag>
0

> <version>
0

> <s_m_source_file>
/data/baiqing/PycharmProjects/Reinvent-master-3.2/result/LINK_invent/BTK/process_docking_weight1_custom_sum_contain_oxygen_bond_distance_aromatic_linkinvent_7_9_3/rearranged_h_0015.sdf

> <i_m_source_file_index>
92

> <r_mmod_Potential_Energy-OPLS-2005>
39.3014259338379

> <r_mmod_Stretch_Energy-OPLS-2005>
80.6938629150391

> <r_mmod_Bend_Energy-OPLS-2005>
136.567810058594

> <r_mmod_Torsional_Energy-OPLS-2005>
259.392852783203

> <r_mmod_Improper_Torsional_Energy-OPLS-2005>
6.76828479766846

> <r_mmod_Van_der_Waal_Energy-OPLS-2005>
156.163421630859

> <r_mmod_Electrostatic_Energy-OPLS-2005>
-428.160552978516

> <r_mmod_Solvation_Energy-OPLS-2005>
-217.086471557617

> <b_mmod_Minimization_Converged-OPLS-2005>
0

> <r_mmod_RMS_Derivative-OPLS-2005>
0.49264931678772

$$$$
93
                    3D
 Structure written by MMmdl.
167174  0  0  1  0            999 V2000
  -30.5510  -14.9357   20.4412 C   0  0  0  0  0  0
  -30.4343  -12.5849   19.5000 C   0  0  0  0  0  0
  -29.5199  -12.5378   18.2543 C   0  0  0  0  0  0
  -28.0477  -12.3288   18.6633 C   0  0  0  0  0  0
  -27.6237  -13.2524   19.8351 C   0  0  2  0  0  0
  -28.6642  -13.2745   20.9731 C   0  0  0  0  0  0
  -25.2436  -13.8215   20.5700 C   0  0  0  0  0  0
  -24.1772  -13.0435   20.9220 C   0  0  0  0  0  0
  -24.6398  -11.6925   20.8756 C   0  0  0  0  0  0
  -23.9078  -10.4295   21.0415 C   0  0  0  0  0  0
  -24.3629   -9.4198   21.9173 C   0  0  0  0  0  0
  -23.6308   -8.2223   22.0733 C   0  0  0  0  0  0
  -22.4284   -8.0276   21.3534 C   0  0  0  0  0  0
  -21.9935   -9.0245   20.4633 C   0  0  0  0  0  0
  -22.7261  -10.2125   20.3051 C   0  0  0  0  0  0
  -21.6841   -6.0750   22.5287 C   0  0  0  0  0  0
  -21.4009   -6.5654   23.8222 C   0  0  0  0  0  0
  -21.3662   -5.6805   24.9175 C   0  0  0  0  0  0
  -21.6046   -4.3060   24.7215 C   0  0  0  0  0  0
  -21.8826   -3.8158   23.4333 C   0  0  0  0  0  0
  -21.9186   -4.6987   22.3396 C   0  0  0  0  0  0
  -22.7794  -13.5195   21.1883 C   0  0  0  0  0  0
  -22.1658   -4.2185   21.0959 F   0  0  0  0  0  0
  -21.5621   -3.4531   25.7709 F   0  0  0  0  0  0
  -29.9434  -13.6837   20.3776 N   0  0  0  0  0  0
  -26.2859  -12.9459   20.3197 N   0  0  0  0  0  0
  -25.9325  -11.6590   20.5719 N   0  0  0  0  0  0
  -22.0432  -12.8185   22.0440 N   0  0  0  0  0  0
  -25.4083  -15.1939   20.4091 N   0  0  0  0  0  0
  -31.7616  -14.9933   20.2042 O   0  0  0  0  0  0
  -21.6635   -6.8894   21.4246 O   0  0  0  0  0  0
  -22.3462  -14.5488   20.6715 O   0  0  0  0  0  0
  -24.6459  -31.8414   23.1870 C   0  0  0  0  0  0
  -25.9225  -32.4696   23.8258 C   0  0  1  0  0  0
  -27.2082  -27.1091   20.1328 C   0  0  0  0  0  0
  -25.5960  -33.8492   24.2189 N   0  0  0  0  0  0
  -23.4500  -30.4630   21.5353 C   0  0  2  0  0  0
  -24.8971  -28.8944   20.1013 C   0  0  0  0  0  0
  -22.7582  -29.4518   22.4840 C   0  0  0  0  0  0
  -18.0310  -28.1369   22.8497 C   0  0  0  0  0  0
  -24.1483  -36.7241   23.2647 C   0  0  0  0  0  0
  -26.0092  -30.7041   21.3934 C   0  0  0  0  0  0
  -26.0751  -29.3147   20.7309 C   0  0  0  0  0  0
  -27.2280  -28.4371   20.7345 C   0  0  0  0  0  0
  -26.0108  -26.8137   19.4420 C   0  0  0  0  0  0
  -24.8799  -27.6573   19.4438 C   0  0  0  0  0  0
  -23.6758  -29.7999   20.1515 C   0  0  0  0  0  0
  -25.4117  -36.3035   24.0330 C   0  0  1  0  0  0
  -20.5928  -28.3695   23.1241 C   0  0  2  0  0  0
  -20.6779  -26.9389   22.5417 C   0  0  0  0  0  0
  -19.5740  -26.6356   21.5229 C   0  0  0  0  0  0
  -18.1928  -26.7910   22.1642 C   0  0  0  0  0  0
  -19.1569  -28.8848   23.2869 C   0  0  0  0  0  0
  -18.9477  -30.1447   23.8886 C   0  0  0  0  0  0
  -17.6472  -30.6576   24.0547 C   0  0  0  0  0  0
  -25.9075  -34.9422   23.5078 C   0  0  0  0  0  0
  -16.5367  -29.9071   23.6326 C   0  0  0  0  0  0
  -16.7293  -28.6480   23.0370 C   0  0  0  0  0  0
  -26.4525  -31.6560   25.0706 C   0  0  0  0  0  0
  -25.3701  -31.3763   26.1400 C   0  0  0  0  0  0
  -27.0380  -30.2949   24.6300 C   0  0  0  0  0  0
  -27.6049  -32.4323   25.7492 C   0  0  0  0  0  0
  -27.5574  -37.1775   24.8464 C   0  0  0  0  0  0
  -21.4265  -29.3038   22.3615 N   0  0  0  0  0  0
  -26.4271  -37.3760   23.9427 N   0  0  0  0  0  0
  -24.7227  -31.0256   22.0935 N   0  0  0  0  0  0
  -23.4225  -28.8056   23.2985 O   0  0  0  0  0  0
  -28.2387  -26.0921   20.2362 O   0  0  0  0  0  0
  -26.5668  -34.8916   22.4654 O   0  0  0  0  0  0
  -23.5590  -32.1306   23.7072 O   0  0  0  0  0  0
  -29.8067  -21.2627   17.7247 C   0  0  0  0  0  0
  -28.7414  -23.2656   20.4728 C   0  0  0  0  0  0
  -30.8931  -22.3146   17.5441 C   0  0  0  0  0  0
  -26.9411  -21.2293   15.7943 C   0  0  0  0  0  0
  -25.5147  -19.5728   17.0368 C   0  0  0  0  0  0
  -28.0672  -24.6114   19.7348 C   0  0  0  0  0  0
  -29.2108  -18.9858   20.2740 C   0  0  0  0  0  0
  -27.2223  -20.8942   18.3479 C   0  0  0  0  0  0
  -30.1535  -17.6607   20.7417 C   0  0  0  0  0  0
  -29.5000  -20.6330   20.6354 C   0  0  0  0  0  0
  -28.5413  -21.7153   18.5026 C   0  0  1  0  0  0
  -26.8933  -20.2478   16.9779 C   0  0  0  0  0  0
  -29.7797  -16.1271   20.5784 N   0  0  0  0  0  0
  -28.8581  -21.9270   19.9358 N   0  0  0  0  0  0
  -29.9951  -20.1353   17.2690 O   0  0  0  0  0  0
  -29.1554  -23.4584   21.6191 O   0  0  0  0  0  0
  -31.4693  -12.7393   19.1916 H   0  0  0  0  0  0
  -30.4166  -11.6302   20.0268 H   0  0  0  0  0  0
  -29.8392  -11.7451   17.5767 H   0  0  0  0  0  0
  -29.6164  -13.4709   17.6952 H   0  0  0  0  0  0
  -27.9323  -11.2834   18.9492 H   0  0  0  0  0  0
  -27.3895  -12.4798   17.8046 H   0  0  0  0  0  0
  -27.5861  -14.2575   19.4132 H   0  0  0  0  0  0
  -28.7467  -12.2991   21.4538 H   0  0  0  0  0  0
  -28.3587  -13.9794   21.7480 H   0  0  0  0  0  0
  -25.2759   -9.5667   22.4766 H   0  0  0  0  0  0
  -24.0025   -7.4608   22.7450 H   0  0  0  0  0  0
  -21.0867   -8.8757   19.8941 H   0  0  0  0  0  0
  -22.3710  -10.9661   19.6170 H   0  0  0  0  0  0
  -21.2020   -7.6158   23.9745 H   0  0  0  0  0  0
  -21.1481   -6.0504   25.9081 H   0  0  0  0  0  0
  -22.0618   -2.7621   23.2794 H   0  0  0  0  0  0
  -22.4051  -11.9855   22.4859 H   0  0  0  0  0  0
  -21.1037  -13.1194   22.2637 H   0  0  0  0  0  0
  -24.6319  -15.8384   20.5114 H   0  0  0  0  0  0
  -26.2416  -15.6328   20.0382 H   0  0  0  0  0  0
  -26.7287  -32.5272   23.0972 H   0  0  0  0  0  0
  -25.0051  -33.9596   25.0302 H   0  0  0  0  0  0
  -22.7564  -31.2924   21.3859 H   0  0  0  0  0  0
  -23.3776  -35.9539   23.3281 H   0  0  0  0  0  0
  -24.3579  -36.8889   22.2067 H   0  0  0  0  0  0
  -23.7189  -37.6412   23.6690 H   0  0  0  0  0  0
  -26.1777  -31.4583   20.6232 H   0  0  0  0  0  0
  -26.8778  -30.7457   22.0390 H   0  0  0  0  0  0
  -28.1205  -28.7533   21.2566 H   0  0  0  0  0  0
  -25.8972  -25.8901   18.8999 H   0  0  0  0  0  0
  -23.9862  -27.3388   18.9247 H   0  0  0  0  0  0
  -23.8164  -30.5814   19.4043 H   0  0  0  0  0  0
  -22.7871  -29.2507   19.8341 H   0  0  0  0  0  0
  -25.1300  -36.1866   25.0825 H   0  0  0  0  0  0
  -21.0036  -28.3279   24.1354 H   0  0  0  0  0  0
  -20.5650  -26.2307   23.3645 H   0  0  0  0  0  0
  -21.6642  -26.7359   22.1223 H   0  0  0  0  0  0
  -19.6891  -25.6268   21.1253 H   0  0  0  0  0  0
  -19.6674  -27.3175   20.6771 H   0  0  0  0  0  0
  -17.4202  -26.6678   21.4047 H   0  0  0  0  0  0
  -18.0304  -26.0049   22.9030 H   0  0  0  0  0  0
  -19.7951  -30.7262   24.2258 H   0  0  0  0  0  0
  -17.5025  -31.6259   24.5133 H   0  0  0  0  0  0
  -15.5364  -30.2963   23.7643 H   0  0  0  0  0  0
  -15.8695  -28.0780   22.7103 H   0  0  0  0  0  0
  -24.5879  -30.7117   25.7723 H   0  0  0  0  0  0
  -24.8890  -32.2948   26.4770 H   0  0  0  0  0  0
  -25.7970  -30.8965   27.0212 H   0  0  0  0  0  0
  -26.2996  -29.6686   24.1285 H   0  0  0  0  0  0
  -27.3962  -29.7246   25.4877 H   0  0  0  0  0  0
  -27.8927  -30.4191   23.9645 H   0  0  0  0  0  0
  -27.2644  -33.3649   26.2007 H   0  0  0  0  0  0
  -28.3888  -32.6836   25.0336 H   0  0  0  0  0  0
  -28.0681  -31.8479   26.5452 H   0  0  0  0  0  0
  -28.2576  -38.0094   24.7557 H   0  0  0  0  0  0
  -28.1087  -36.2626   24.6230 H   0  0  0  0  0  0
  -27.2304  -37.1349   25.8870 H   0  0  0  0  0  0
  -20.9457  -29.8805   21.6845 H   0  0  0  0  0  0
  -26.0143  -38.2820   24.1459 H   0  0  0  0  0  0
  -30.5622  -23.2797   17.9246 H   0  0  0  0  0  0
  -31.1348  -22.4276   16.4880 H   0  0  0  0  0  0
  -31.7972  -22.0269   18.0803 H   0  0  0  0  0  0
  -26.6881  -20.7178   14.8631 H   0  0  0  0  0  0
  -27.9329  -21.6579   15.6538 H   0  0  0  0  0  0
  -26.2359  -22.0496   15.9249 H   0  0  0  0  0  0
  -25.3009  -19.0257   16.1170 H   0  0  0  0  0  0
  -24.7268  -20.3147   17.1743 H   0  0  0  0  0  0
  -25.4506  -18.8619   17.8618 H   0  0  0  0  0  0
  -27.0110  -24.3571   19.7088 H   0  0  0  0  0  0
  -28.3972  -24.6405   18.6973 H   0  0  0  0  0  0
  -28.2088  -18.7744   20.6437 H   0  0  0  0  0  0
  -29.1203  -18.8821   19.1965 H   0  0  0  0  0  0
  -26.3940  -21.5483   18.6265 H   0  0  0  0  0  0
  -27.1837  -20.1010   19.0910 H   0  0  0  0  0  0
  -30.3346  -17.7846   21.8112 H   0  0  0  0  0  0
  -31.1368  -17.7827   20.2847 H   0  0  0  0  0  0
  -30.5765  -20.7785   20.5380 H   0  0  0  0  0  0
  -29.3129  -20.7500   21.7049 H   0  0  0  0  0  0
  -28.2816  -22.6574   18.0290 H   0  0  0  0  0  0
  -27.6148  -19.4525   16.7842 H   0  0  0  0  0  0
  -28.7910  -15.9382   20.6555 H   0  0  0  0  0  0
  1 25  1  0  0  0
  1 30  2  0  0  0
  1 83  1  0  0  0
  2  3  1  0  0  0
  2 25  1  0  0  0
  2 87  1  0  0  0
  2 88  1  0  0  0
  3  4  1  0  0  0
  3 89  1  0  0  0
  3 90  1  0  0  0
  4  5  1  0  0  0
  4 91  1  0  0  0
  4 92  1  0  0  0
  5  6  1  0  0  0
  5 26  1  0  0  0
  5 93  1  0  0  0
  6 25  1  0  0  0
  6 94  1  0  0  0
  6 95  1  0  0  0
  7  8  2  0  0  0
  7 26  1  0  0  0
  7 29  1  0  0  0
  8  9  1  0  0  0
  8 22  1  0  0  0
  9 10  1  0  0  0
  9 27  2  0  0  0
 10 11  2  0  0  0
 10 15  1  0  0  0
 11 12  1  0  0  0
 11 96  1  0  0  0
 12 13  2  0  0  0
 12 97  1  0  0  0
 13 14  1  0  0  0
 13 31  1  0  0  0
 14 15  2  0  0  0
 14 98  1  0  0  0
 15 99  1  0  0  0
 16 17  2  0  0  0
 16 21  1  0  0  0
 16 31  1  0  0  0
 17 18  1  0  0  0
 17100  1  0  0  0
 18 19  2  0  0  0
 18101  1  0  0  0
 19 20  1  0  0  0
 19 24  1  0  0  0
 20 21  2  0  0  0
 20102  1  0  0  0
 21 23  1  0  0  0
 22 28  1  0  0  0
 22 32  2  0  0  0
 26 27  1  0  0  0
 28103  1  0  0  0
 28104  1  0  0  0
 29105  1  0  0  0
 29106  1  0  0  0
 33 34  1  0  0  0
 33 66  1  0  0  0
 33 70  2  0  0  0
 34 36  1  0  0  0
 34 59  1  0  0  0
 34107  1  0  0  0
 35 44  2  0  0  0
 35 45  1  0  0  0
 35 68  1  0  0  0
 36 56  1  0  0  0
 36108  1  0  0  0
 37 39  1  0  0  0
 37 47  1  0  0  0
 37 66  1  0  0  0
 37109  1  0  0  0
 38 43  2  0  0  0
 38 46  1  0  0  0
 38 47  1  0  0  0
 39 64  1  0  0  0
 39 67  2  0  0  0
 40 52  1  0  0  0
 40 53  2  0  0  0
 40 58  1  0  0  0
 41110  1  0  0  0
 41111  1  0  0  0
 41112  1  0  0  0
 41 48  1  0  0  0
 42 43  1  0  0  0
 42 66  1  0  0  0
 42113  1  0  0  0
 42114  1  0  0  0
 43 44  1  0  0  0
 44115  1  0  0  0
 45 46  2  0  0  0
 45116  1  0  0  0
 46117  1  0  0  0
 47118  1  0  0  0
 47119  1  0  0  0
 48 56  1  0  0  0
 48 65  1  0  0  0
 48120  1  0  0  0
 49 50  1  0  0  0
 49 53  1  0  0  0
 49 64  1  0  0  0
 49121  1  0  0  0
 50 51  1  0  0  0
 50122  1  0  0  0
 50123  1  0  0  0
 51 52  1  0  0  0
 51124  1  0  0  0
 51125  1  0  0  0
 52126  1  0  0  0
 52127  1  0  0  0
 53 54  1  0  0  0
 54 55  2  0  0  0
 54128  1  0  0  0
 55 57  1  0  0  0
 55129  1  0  0  0
 56 69  2  0  0  0
 57 58  2  0  0  0
 57130  1  0  0  0
 58131  1  0  0  0
 59 60  1  0  0  0
 59 61  1  0  0  0
 59 62  1  0  0  0
 60132  1  0  0  0
 60133  1  0  0  0
 60134  1  0  0  0
 61135  1  0  0  0
 61136  1  0  0  0
 61137  1  0  0  0
 62138  1  0  0  0
 62139  1  0  0  0
 62140  1  0  0  0
 63 65  1  0  0  0
 63141  1  0  0  0
 63142  1  0  0  0
 63143  1  0  0  0
 64144  1  0  0  0
 65145  1  0  0  0
 68 76  1  0  0  0
 71 73  1  0  0  0
 71 81  1  0  0  0
 71 85  2  0  0  0
 72 76  1  0  0  0
 72 84  1  0  0  0
 72 86  2  0  0  0
 73146  1  0  0  0
 73147  1  0  0  0
 73148  1  0  0  0
 74149  1  0  0  0
 74150  1  0  0  0
 74151  1  0  0  0
 74 82  1  0  0  0
 75 82  1  0  0  0
 75152  1  0  0  0
 75153  1  0  0  0
 75154  1  0  0  0
 76155  1  0  0  0
 76156  1  0  0  0
 77 79  1  0  0  0
 77 80  1  0  0  0
 77157  1  0  0  0
 77158  1  0  0  0
 78 82  1  0  0  0
 78159  1  0  0  0
 78160  1  0  0  0
 78 81  1  0  0  0
 79 83  1  0  0  0
 79161  1  0  0  0
 79162  1  0  0  0
 80 84  1  0  0  0
 80163  1  0  0  0
 80164  1  0  0  0
 81 84  1  0  0  0
 81165  1  0  0  0
 82166  1  0  0  0
 83167  1  0  0  0
M  ISO  4   1 100  68 101  76 101  83 100
M  END
> <chiral flag>
0

> <version>
0

> <s_m_source_file>
/data/baiqing/PycharmProjects/Reinvent-master-3.2/result/LINK_invent/BTK/process_docking_weight1_custom_sum_contain_oxygen_bond_distance_aromatic_linkinvent_7_9_3/rearranged_h_0015.sdf

> <i_m_source_file_index>
93

> <r_mmod_Potential_Energy-OPLS-2005>
576.952087402344

> <r_mmod_Stretch_Energy-OPLS-2005>
307.832733154297

> <r_mmod_Bend_Energy-OPLS-2005>
290.109619140625

> <r_mmod_Torsional_Energy-OPLS-2005>
255.804565429688

> <r_mmod_Improper_Torsional_Energy-OPLS-2005>
4.43702840805054

> <r_mmod_Van_der_Waal_Energy-OPLS-2005>
123.135787963867

> <r_mmod_Electrostatic_Energy-OPLS-2005>
-359.505859375

> <r_mmod_Solvation_Energy-OPLS-2005>
-248.250823974609

> <b_mmod_Minimization_Converged-OPLS-2005>
0

> <r_mmod_RMS_Derivative-OPLS-2005>
3.94701790809631

$$$$
94
                    3D
 Structure written by MMmdl.
161169  0  0  1  0            999 V2000
  -30.6207  -14.6335   20.5200 C   0  0  0  0  0  0
  -30.4430  -12.3930   19.4508 C   0  0  0  0  0  0
  -29.5112  -12.5170   18.2247 C   0  0  0  0  0  0
  -28.0337  -12.3525   18.6358 C   0  0  0  0  0  0
  -27.6578  -13.2163   19.8688 C   0  0  2  0  0  0
  -28.7020  -13.0517   20.9965 C   0  0  0  0  0  0
  -25.2577  -13.8172   20.5693 C   0  0  0  0  0  0
  -24.1833  -13.0439   20.9185 C   0  0  0  0  0  0
  -24.6396  -11.6908   20.8726 C   0  0  0  0  0  0
  -23.9065  -10.4287   21.0390 C   0  0  0  0  0  0
  -24.3608   -9.4206   21.9177 C   0  0  0  0  0  0
  -23.6280   -8.2246   22.0753 C   0  0  0  0  0  0
  -22.4263   -8.0281   21.3550 C   0  0  0  0  0  0
  -21.9899   -9.0258   20.4654 C   0  0  0  0  0  0
  -22.7230  -10.2133   20.3049 C   0  0  0  0  0  0
  -21.6855   -6.0729   22.5277 C   0  0  0  0  0  0
  -21.4018   -6.5629   23.8211 C   0  0  0  0  0  0
  -21.3659   -5.6782   24.9175 C   0  0  0  0  0  0
  -21.6043   -4.3044   24.7224 C   0  0  0  0  0  0
  -21.8819   -3.8139   23.4345 C   0  0  0  0  0  0
  -21.9194   -4.6955   22.3401 C   0  0  0  0  0  0
  -22.7852  -13.5241   21.1843 C   0  0  0  0  0  0
  -22.1658   -4.2139   21.0979 F   0  0  0  0  0  0
  -21.5629   -3.4529   25.7740 F   0  0  0  0  0  0
  -30.0206  -13.4032   20.4411 N   0  0  0  0  0  0
  -26.3012  -12.9352   20.3334 N   0  0  0  0  0  0
  -25.9328  -11.6506   20.5747 N   0  0  0  0  0  0
  -22.0481  -12.8251   22.0400 N   0  0  0  0  0  0
  -25.4287  -15.1895   20.4121 N   0  0  0  0  0  0
  -31.7622  -14.8212   20.0866 O   0  0  0  0  0  0
  -21.6633   -6.8872   21.4242 O   0  0  0  0  0  0
  -22.3536  -14.5544   20.6677 O   0  0  0  0  0  0
  -24.6260  -31.8600   23.2027 C   0  0  0  0  0  0
  -25.9112  -32.4777   23.8354 C   0  0  1  0  0  0
  -27.2274  -27.3263   20.1094 C   0  0  0  0  0  0
  -25.5930  -33.8578   24.2285 N   0  0  0  0  0  0
  -23.4196  -30.4842   21.5452 C   0  0  2  0  0  0
  -24.8660  -28.9416   20.1107 C   0  0  0  0  0  0
  -22.7477  -29.4622   22.4933 C   0  0  0  0  0  0
  -18.0291  -28.1381   22.8487 C   0  0  0  0  0  0
  -24.1493  -36.7288   23.2639 C   0  0  0  0  0  0
  -25.9605  -30.7931   21.3729 C   0  0  0  0  0  0
  -26.0352  -29.4213   20.7142 C   0  0  0  0  0  0
  -27.2184  -28.6253   20.7040 C   0  0  0  0  0  0
  -26.0328  -26.9006   19.4806 C   0  0  0  0  0  0
  -24.8665  -27.6864   19.4858 C   0  0  0  0  0  0
  -23.6340  -29.8202   20.1604 C   0  0  0  0  0  0
  -25.4112  -36.3081   24.0336 C   0  0  1  0  0  0
  -20.5892  -28.3684   23.1283 C   0  0  2  0  0  0
  -20.6774  -26.9405   22.5409 C   0  0  0  0  0  0
  -19.5750  -26.6383   21.5208 C   0  0  0  0  0  0
  -18.1932  -26.7927   22.1620 C   0  0  0  0  0  0
  -19.1544  -28.8848   23.2883 C   0  0  0  0  0  0
  -18.9463  -30.1454   23.8897 C   0  0  0  0  0  0
  -17.6462  -30.6584   24.0562 C   0  0  0  0  0  0
  -25.9046  -34.9450   23.5103 C   0  0  0  0  0  0
  -16.5353  -29.9081   23.6334 C   0  0  0  0  0  0
  -16.7276  -28.6500   23.0350 C   0  0  0  0  0  0
  -26.4502  -31.6582   25.0716 C   0  0  0  0  0  0
  -25.3743  -31.3713   26.1450 C   0  0  0  0  0  0
  -27.0337  -30.3009   24.6155 C   0  0  0  0  0  0
  -27.6067  -32.4311   25.7486 C   0  0  0  0  0  0
  -27.5581  -37.1796   24.8463 C   0  0  0  0  0  0
  -21.4189  -29.3042   22.3678 N   0  0  0  0  0  0
  -26.4289  -37.3774   23.9413 N   0  0  0  0  0  0
  -24.6875  -31.0619   22.0975 N   0  0  0  0  0  0
  -23.4203  -28.8158   23.3006 O   0  0  0  0  0  0
  -28.3491  -26.4825   20.1606 O   0  0  0  0  0  0
  -26.5613  -34.8917   22.4673 O   0  0  0  0  0  0
  -23.5426  -32.1393   23.7360 O   0  0  0  0  0  0
  -30.5825  -17.8271   19.9249 C   0  0  0  0  0  0
  -30.5463  -19.2508   19.8627 C   0  0  0  0  0  0
  -29.1574  -17.8904   21.8761 C   0  0  0  0  0  0
  -29.1309  -19.3297   21.8175 C   0  0  0  0  0  0
  -29.8943  -17.1064   20.9338 C   0  0  0  0  0  0
  -29.8319  -20.0467   20.7962 C   0  0  0  0  0  0
  -28.3828  -17.1732   22.9847 C   0  0  0  0  0  0
  -28.3696  -20.0893   22.9037 C   0  0  0  0  0  0
  -30.9397  -21.9158   21.7967 C   0  0  0  0  0  0
  -29.2655  -24.0033   20.4208 C   0  0  0  0  0  0
  -28.9175  -22.4404   20.3582 C   0  0  0  0  0  0
  -28.1322  -25.0277   19.9913 C   0  0  0  0  0  0
  -29.8331  -15.6442   20.9995 N   0  0  0  0  0  0
  -29.9937  -21.4782   20.7707 N   0  0  0  0  0  0
  -31.4844  -12.5218   19.1500 H   0  0  0  0  0  0
  -30.3801  -11.3926   19.8819 H   0  0  0  0  0  0
  -29.7752  -11.7732   17.4719 H   0  0  0  0  0  0
  -29.6536  -13.4906   17.7531 H   0  0  0  0  0  0
  -27.8688  -11.2984   18.8615 H   0  0  0  0  0  0
  -27.3795  -12.5876   17.7958 H   0  0  0  0  0  0
  -27.6818  -14.2547   19.5378 H   0  0  0  0  0  0
  -28.7129  -12.0217   21.3566 H   0  0  0  0  0  0
  -28.4433  -13.6604   21.8637 H   0  0  0  0  0  0
  -25.2755   -9.5678   22.4747 H   0  0  0  0  0  0
  -23.9989   -7.4637   22.7472 H   0  0  0  0  0  0
  -21.0830   -8.8780   19.8965 H   0  0  0  0  0  0
  -22.3693  -10.9666   19.6147 H   0  0  0  0  0  0
  -21.2011   -7.6135   23.9713 H   0  0  0  0  0  0
  -21.1479   -6.0510   25.9077 H   0  0  0  0  0  0
  -22.0598   -2.7600   23.2849 H   0  0  0  0  0  0
  -22.4080  -11.9919   22.4813 H   0  0  0  0  0  0
  -21.1104  -13.1302   22.2590 H   0  0  0  0  0  0
  -24.6601  -15.8425   20.5188 H   0  0  0  0  0  0
  -26.2779  -15.6300   20.0812 H   0  0  0  0  0  0
  -26.7176  -32.5455   23.1097 H   0  0  0  0  0  0
  -25.0102  -33.9724   25.0447 H   0  0  0  0  0  0
  -22.7132  -31.3047   21.4027 H   0  0  0  0  0  0
  -23.3756  -35.9618   23.3295 H   0  0  0  0  0  0
  -24.3582  -36.8911   22.2053 H   0  0  0  0  0  0
  -23.7244  -37.6490   23.6658 H   0  0  0  0  0  0
  -26.0912  -31.5574   20.6056 H   0  0  0  0  0  0
  -26.8415  -30.8414   22.0013 H   0  0  0  0  0  0
  -28.1151  -28.9880   21.1868 H   0  0  0  0  0  0
  -25.9703  -25.9445   18.9837 H   0  0  0  0  0  0
  -23.9712  -27.3148   19.0059 H   0  0  0  0  0  0
  -23.7519  -30.5960   19.4028 H   0  0  0  0  0  0
  -22.7549  -29.2479   19.8596 H   0  0  0  0  0  0
  -25.1292  -36.1930   25.0827 H   0  0  0  0  0  0
  -20.9990  -28.3254   24.1400 H   0  0  0  0  0  0
  -20.5670  -26.2287   23.3605 H   0  0  0  0  0  0
  -21.6644  -26.7430   22.1207 H   0  0  0  0  0  0
  -19.6904  -25.6295   21.1238 H   0  0  0  0  0  0
  -19.6689  -27.3195   20.6739 H   0  0  0  0  0  0
  -17.4202  -26.6688   21.4021 H   0  0  0  0  0  0
  -18.0320  -26.0069   22.9015 H   0  0  0  0  0  0
  -19.7936  -30.7275   24.2257 H   0  0  0  0  0  0
  -17.5014  -31.6263   24.5164 H   0  0  0  0  0  0
  -15.5352  -30.2976   23.7655 H   0  0  0  0  0  0
  -15.8681  -28.0818   22.7056 H   0  0  0  0  0  0
  -24.5923  -30.7052   25.7786 H   0  0  0  0  0  0
  -24.8926  -32.2874   26.4879 H   0  0  0  0  0  0
  -25.8081  -30.8896   27.0222 H   0  0  0  0  0  0
  -26.2896  -29.6759   24.1200 H   0  0  0  0  0  0
  -27.4068  -29.7263   25.4643 H   0  0  0  0  0  0
  -27.8757  -30.4299   23.9347 H   0  0  0  0  0  0
  -27.2686  -33.3613   26.2065 H   0  0  0  0  0  0
  -28.3878  -32.6867   25.0312 H   0  0  0  0  0  0
  -28.0736  -31.8433   26.5399 H   0  0  0  0  0  0
  -28.2596  -38.0099   24.7519 H   0  0  0  0  0  0
  -28.1082  -36.2628   24.6275 H   0  0  0  0  0  0
  -27.2302  -37.1439   25.8870 H   0  0  0  0  0  0
  -20.9352  -29.8767   21.6902 H   0  0  0  0  0  0
  -26.0171  -38.2850   24.1413 H   0  0  0  0  0  0
  -31.1473  -17.2944   19.1738 H   0  0  0  0  0  0
  -31.1140  -19.7418   19.0856 H   0  0  0  0  0  0
  -28.4362  -17.7069   23.9322 H   0  0  0  0  0  0
  -28.7670  -16.1779   23.2001 H   0  0  0  0  0  0
  -27.3330  -17.0752   22.7078 H   0  0  0  0  0  0
  -27.3475  -19.7205   22.9894 H   0  0  0  0  0  0
  -28.3020  -21.1586   22.7323 H   0  0  0  0  0  0
  -28.8656  -19.9624   23.8661 H   0  0  0  0  0  0
  -31.6311  -21.1209   22.0845 H   0  0  0  0  0  0
  -30.4195  -22.2497   22.6954 H   0  0  0  0  0  0
  -31.5442  -22.7464   21.4302 H   0  0  0  0  0  0
  -30.1468  -24.1931   19.8071 H   0  0  0  0  0  0
  -29.5526  -24.2574   21.4415 H   0  0  0  0  0  0
  -28.6417  -22.1935   19.3318 H   0  0  0  0  0  0
  -28.0168  -22.2595   20.9432 H   0  0  0  0  0  0
  -27.2393  -24.7503   20.5536 H   0  0  0  0  0  0
  -27.9077  -24.8417   18.9400 H   0  0  0  0  0  0
  -28.9992  -15.2922   21.4437 H   0  0  0  0  0  0
  1 25  1  0  0  0
  1 30  2  0  0  0
  1 83  1  0  0  0
  2  3  1  0  0  0
  2 25  1  0  0  0
  2 85  1  0  0  0
  2 86  1  0  0  0
  3  4  1  0  0  0
  3 87  1  0  0  0
  3 88  1  0  0  0
  4  5  1  0  0  0
  4 89  1  0  0  0
  4 90  1  0  0  0
  5  6  1  0  0  0
  5 26  1  0  0  0
  5 91  1  0  0  0
  6 25  1  0  0  0
  6 92  1  0  0  0
  6 93  1  0  0  0
  7  8  2  0  0  0
  7 26  1  0  0  0
  7 29  1  0  0  0
  8  9  1  0  0  0
  8 22  1  0  0  0
  9 10  1  0  0  0
  9 27  2  0  0  0
 10 11  2  0  0  0
 10 15  1  0  0  0
 11 12  1  0  0  0
 11 94  1  0  0  0
 12 13  2  0  0  0
 12 95  1  0  0  0
 13 14  1  0  0  0
 13 31  1  0  0  0
 14 15  2  0  0  0
 14 96  1  0  0  0
 15 97  1  0  0  0
 16 17  2  0  0  0
 16 21  1  0  0  0
 16 31  1  0  0  0
 17 18  1  0  0  0
 17 98  1  0  0  0
 18 19  2  0  0  0
 18 99  1  0  0  0
 19 20  1  0  0  0
 19 24  1  0  0  0
 20 21  2  0  0  0
 20100  1  0  0  0
 21 23  1  0  0  0
 22 28  1  0  0  0
 22 32  2  0  0  0
 26 27  1  0  0  0
 28101  1  0  0  0
 28102  1  0  0  0
 29103  1  0  0  0
 29104  1  0  0  0
 33 34  1  0  0  0
 33 66  1  0  0  0
 33 70  2  0  0  0
 34 36  1  0  0  0
 34 59  1  0  0  0
 34105  1  0  0  0
 35 44  2  0  0  0
 35 45  1  0  0  0
 35 68  1  0  0  0
 36 56  1  0  0  0
 36106  1  0  0  0
 37 39  1  0  0  0
 37 47  1  0  0  0
 37 66  1  0  0  0
 37107  1  0  0  0
 38 43  2  0  0  0
 38 46  1  0  0  0
 38 47  1  0  0  0
 39 64  1  0  0  0
 39 67  2  0  0  0
 40 52  1  0  0  0
 40 53  2  0  0  0
 40 58  1  0  0  0
 41108  1  0  0  0
 41109  1  0  0  0
 41110  1  0  0  0
 41 48  1  0  0  0
 42 43  1  0  0  0
 42 66  1  0  0  0
 42111  1  0  0  0
 42112  1  0  0  0
 43 44  1  0  0  0
 44113  1  0  0  0
 45 46  2  0  0  0
 45114  1  0  0  0
 46115  1  0  0  0
 47116  1  0  0  0
 47117  1  0  0  0
 48 56  1  0  0  0
 48 65  1  0  0  0
 48118  1  0  0  0
 49 50  1  0  0  0
 49 53  1  0  0  0
 49 64  1  0  0  0
 49119  1  0  0  0
 50 51  1  0  0  0
 50120  1  0  0  0
 50121  1  0  0  0
 51 52  1  0  0  0
 51122  1  0  0  0
 51123  1  0  0  0
 52124  1  0  0  0
 52125  1  0  0  0
 53 54  1  0  0  0
 54 55  2  0  0  0
 54126  1  0  0  0
 55 57  1  0  0  0
 55127  1  0  0  0
 56 69  2  0  0  0
 57 58  2  0  0  0
 57128  1  0  0  0
 58129  1  0  0  0
 59 60  1  0  0  0
 59 61  1  0  0  0
 59 62  1  0  0  0
 60130  1  0  0  0
 60131  1  0  0  0
 60132  1  0  0  0
 61133  1  0  0  0
 61134  1  0  0  0
 61135  1  0  0  0
 62136  1  0  0  0
 62137  1  0  0  0
 62138  1  0  0  0
 63 65  1  0  0  0
 63139  1  0  0  0
 63140  1  0  0  0
 63141  1  0  0  0
 64142  1  0  0  0
 65143  1  0  0  0
 68 82  1  0  0  0
 71 72  2  0  0  0
 71 75  1  0  0  0
 71144  1  0  0  0
 72 76  1  0  0  0
 72145  1  0  0  0
 73 74  1  0  0  0
 73 75  2  0  0  0
 73 77  1  0  0  0
 74 76  2  0  0  0
 74 78  1  0  0  0
 75 83  1  0  0  0
 76 84  1  0  0  0
 77146  1  0  0  0
 77147  1  0  0  0
 77148  1  0  0  0
 78149  1  0  0  0
 78150  1  0  0  0
 78151  1  0  0  0
 79 84  1  0  0  0
 79152  1  0  0  0
 79153  1  0  0  0
 79154  1  0  0  0
 80 81  1  0  0  0
 80 82  1  0  0  0
 80155  1  0  0  0
 80156  1  0  0  0
 81 84  1  0  0  0
 81157  1  0  0  0
 81158  1  0  0  0
 82159  1  0  0  0
 82160  1  0  0  0
 83161  1  0  0  0
M  ISO  4   1 100  68 101  82 101  83 100
M  END
> <chiral flag>
0

> <version>
0

> <s_m_source_file>
/data/baiqing/PycharmProjects/Reinvent-master-3.2/result/LINK_invent/BTK/process_docking_weight1_custom_sum_contain_oxygen_bond_distance_aromatic_linkinvent_7_9_3/rearranged_h_0015.sdf

> <i_m_source_file_index>
94

> <r_mmod_Potential_Energy-OPLS-2005>
36.6393280029297

> <r_mmod_Stretch_Energy-OPLS-2005>
82.1698684692383

> <r_mmod_Bend_Energy-OPLS-2005>
141.261108398438

> <r_mmod_Torsional_Energy-OPLS-2005>
241.569747924805

> <r_mmod_Improper_Torsional_Energy-OPLS-2005>
6.10341215133667

> <r_mmod_Van_der_Waal_Energy-OPLS-2005>
156.729064941406

> <r_mmod_Electrostatic_Energy-OPLS-2005>
-418.327789306641

> <r_mmod_Solvation_Energy-OPLS-2005>
-218.387847900391

> <b_mmod_Minimization_Converged-OPLS-2005>
0

> <r_mmod_RMS_Derivative-OPLS-2005>
1.13099050521851

$$$$
95
                    3D
 Structure written by MMmdl.
153161  0  0  1  0            999 V2000
  -30.5002  -15.0085   20.3518 C   0  0  0  0  0  0
  -30.4339  -12.6194   19.5015 C   0  0  0  0  0  0
  -29.5205  -12.5141   18.2575 C   0  0  0  0  0  0
  -28.0525  -12.3081   18.6719 C   0  0  0  0  0  0
  -27.6200  -13.2525   19.8228 C   0  0  2  0  0  0
  -28.6571  -13.3142   20.9600 C   0  0  0  0  0  0
  -25.2441  -13.8233   20.5740 C   0  0  0  0  0  0
  -24.1765  -13.0454   20.9260 C   0  0  0  0  0  0
  -24.6367  -11.6946   20.8760 C   0  0  0  0  0  0
  -23.9067  -10.4307   21.0415 C   0  0  0  0  0  0
  -24.3630   -9.4219   21.9190 C   0  0  0  0  0  0
  -23.6296   -8.2246   22.0751 C   0  0  0  0  0  0
  -22.4261   -8.0297   21.3550 C   0  0  0  0  0  0
  -21.9911   -9.0277   20.4652 C   0  0  0  0  0  0
  -22.7253  -10.2148   20.3072 C   0  0  0  0  0  0
  -21.6840   -6.0742   22.5282 C   0  0  0  0  0  0
  -21.4018   -6.5649   23.8219 C   0  0  0  0  0  0
  -21.3655   -5.6801   24.9177 C   0  0  0  0  0  0
  -21.6040   -4.3058   24.7229 C   0  0  0  0  0  0
  -21.8816   -3.8159   23.4342 C   0  0  0  0  0  0
  -21.9196   -4.6978   22.3407 C   0  0  0  0  0  0
  -22.7781  -13.5221   21.1910 C   0  0  0  0  0  0
  -22.1661   -4.2176   21.0979 F   0  0  0  0  0  0
  -21.5623   -3.4537   25.7730 F   0  0  0  0  0  0
  -29.9247  -13.7350   20.3529 N   0  0  0  0  0  0
  -26.2824  -12.9463   20.3169 N   0  0  0  0  0  0
  -25.9291  -11.6597   20.5699 N   0  0  0  0  0  0
  -22.0408  -12.8205   22.0446 N   0  0  0  0  0  0
  -25.4130  -15.1965   20.4209 N   0  0  0  0  0  0
  -31.7194  -15.0458   20.1463 O   0  0  0  0  0  0
  -21.6648   -6.8887   21.4236 O   0  0  0  0  0  0
  -22.3480  -14.5530   20.6757 O   0  0  0  0  0  0
  -24.6515  -31.8391   23.1825 C   0  0  0  0  0  0
  -25.9282  -32.4653   23.8233 C   0  0  1  0  0  0
  -27.2147  -27.0776   20.1485 C   0  0  0  0  0  0
  -25.6005  -33.8462   24.2158 N   0  0  0  0  0  0
  -23.4571  -30.4575   21.5284 C   0  0  2  0  0  0
  -24.9060  -28.8729   20.1097 C   0  0  0  0  0  0
  -22.7602  -29.4551   22.4826 C   0  0  0  0  0  0
  -18.0325  -28.1407   22.8449 C   0  0  0  0  0  0
  -24.1510  -36.7260   23.2645 C   0  0  0  0  0  0
  -26.0194  -30.6884   21.3953 C   0  0  0  0  0  0
  -26.0857  -29.2953   20.7347 C   0  0  0  0  0  0
  -27.2410  -28.4149   20.7344 C   0  0  0  0  0  0
  -26.0113  -26.7757   19.4775 C   0  0  0  0  0  0
  -24.8854  -27.6287   19.4622 C   0  0  0  0  0  0
  -23.6869  -29.7843   20.1492 C   0  0  0  0  0  0
  -25.4142  -36.3013   24.0301 C   0  0  1  0  0  0
  -20.5936  -28.3768   23.1197 C   0  0  2  0  0  0
  -20.6821  -26.9467   22.5387 C   0  0  0  0  0  0
  -19.5792  -26.6395   21.5199 C   0  0  0  0  0  0
  -18.1968  -26.7945   22.1605 C   0  0  0  0  0  0
  -19.1577  -28.8907   23.2816 C   0  0  0  0  0  0
  -18.9496  -30.1489   23.8853 C   0  0  0  0  0  0
  -17.6487  -30.6593   24.0571 C   0  0  0  0  0  0
  -25.9085  -34.9385   23.5031 C   0  0  0  0  0  0
  -16.5384  -29.9081   23.6342 C   0  0  0  0  0  0
  -16.7303  -28.6518   23.0334 C   0  0  0  0  0  0
  -26.4556  -31.6542   25.0716 C   0  0  0  0  0  0
  -25.3697  -31.3787   26.1383 C   0  0  0  0  0  0
  -27.0447  -30.2914   24.6404 C   0  0  0  0  0  0
  -27.6060  -32.4324   25.7513 C   0  0  0  0  0  0
  -27.5570  -37.1810   24.8469 C   0  0  0  0  0  0
  -21.4295  -29.3082   22.3564 N   0  0  0  0  0  0
  -26.4312  -37.3719   23.9359 N   0  0  0  0  0  0
  -24.7290  -31.0194   22.0891 N   0  0  0  0  0  0
  -23.4214  -28.8107   23.3022 O   0  0  0  0  0  0
  -28.2582  -26.0621   20.1732 O   0  0  0  0  0  0
  -26.5663  -34.8890   22.4608 O   0  0  0  0  0  0
  -23.5626  -32.1318   23.7003 O   0  0  0  0  0  0
  -30.9551  -19.2903   18.3424 C   0  0  0  0  0  0
  -29.2280  -18.9396   20.4292 C   0  0  0  0  0  0
  -30.6599  -17.9590   18.7234 C   0  0  0  0  0  0
  -29.8818  -17.6850   19.8986 C   0  0  0  0  0  0
  -29.4133  -20.3585   19.9513 C   0  0  0  0  0  0
  -30.3843  -20.4388   18.9253 C   0  0  0  0  0  0
  -31.1185  -16.9088   17.7468 C   0  0  0  0  0  0
  -28.9726  -23.1554   19.9560 C   0  0  0  0  0  0
  -27.9835  -24.5073   20.3367 C   0  0  0  0  0  0
  -30.1593  -16.1620   17.2124 N   0  0  0  0  0  0
  -29.7033  -16.2112   20.3942 N   0  0  0  0  0  0
  -28.7317  -21.6383   20.3810 N   0  0  0  0  0  0
  -32.2891  -16.8256   17.3767 O   0  0  0  0  0  0
  -30.7595  -21.6399   18.4252 F   0  0  0  0  0  0
  -31.4639  -12.7903   19.1854 H   0  0  0  0  0  0
  -30.4455  -11.6832   20.0634 H   0  0  0  0  0  0
  -29.8493  -11.6939   17.6188 H   0  0  0  0  0  0
  -29.6062  -13.4204   17.6563 H   0  0  0  0  0  0
  -27.9485  -11.2712   18.9892 H   0  0  0  0  0  0
  -27.3939  -12.4318   17.8116 H   0  0  0  0  0  0
  -27.5731  -14.2460   19.3756 H   0  0  0  0  0  0
  -28.7570  -12.3512   21.4625 H   0  0  0  0  0  0
  -28.3428  -14.0293   21.7210 H   0  0  0  0  0  0
  -25.2776   -9.5688   22.4758 H   0  0  0  0  0  0
  -24.0027   -7.4625   22.7444 H   0  0  0  0  0  0
  -21.0852   -8.8796   19.8941 H   0  0  0  0  0  0
  -22.3723  -10.9690   19.6181 H   0  0  0  0  0  0
  -21.2008   -7.6161   23.9729 H   0  0  0  0  0  0
  -21.1471   -6.0526   25.9083 H   0  0  0  0  0  0
  -22.0596   -2.7623   23.2831 H   0  0  0  0  0  0
  -22.4025  -11.9876   22.4871 H   0  0  0  0  0  0
  -21.1003  -13.1197   22.2608 H   0  0  0  0  0  0
  -24.6527  -15.8520   20.5666 H   0  0  0  0  0  0
  -26.2438  -15.6347   20.0455 H   0  0  0  0  0  0
  -26.7367  -32.5221   23.0964 H   0  0  0  0  0  0
  -25.0146  -33.9550   25.0303 H   0  0  0  0  0  0
  -22.7660  -31.2872   21.3684 H   0  0  0  0  0  0
  -23.3733  -35.9635   23.3356 H   0  0  0  0  0  0
  -24.3594  -36.8845   22.2051 H   0  0  0  0  0  0
  -23.7321  -37.6494   23.6657 H   0  0  0  0  0  0
  -26.1962  -31.4414   20.6261 H   0  0  0  0  0  0
  -26.8821  -30.7315   22.0481 H   0  0  0  0  0  0
  -28.1393  -28.7387   21.2407 H   0  0  0  0  0  0
  -25.9172  -25.8391   18.9518 H   0  0  0  0  0  0
  -23.9930  -27.3044   18.9454 H   0  0  0  0  0  0
  -23.8346  -30.5580   19.3943 H   0  0  0  0  0  0
  -22.7989  -29.2322   19.8350 H   0  0  0  0  0  0
  -25.1340  -36.1845   25.0797 H   0  0  0  0  0  0
  -21.0025  -28.3378   24.1317 H   0  0  0  0  0  0
  -20.5739  -26.2385   23.3613 H   0  0  0  0  0  0
  -21.6682  -26.7483   22.1169 H   0  0  0  0  0  0
  -19.6966  -25.6295   21.1252 H   0  0  0  0  0  0
  -19.6709  -27.3186   20.6710 H   0  0  0  0  0  0
  -17.4233  -26.6675   21.4013 H   0  0  0  0  0  0
  -18.0382  -26.0100   22.9020 H   0  0  0  0  0  0
  -19.7974  -30.7328   24.2187 H   0  0  0  0  0  0
  -17.5041  -31.6257   24.5201 H   0  0  0  0  0  0
  -15.5380  -30.2967   23.7694 H   0  0  0  0  0  0
  -15.8708  -28.0828   22.7039 H   0  0  0  0  0  0
  -24.5840  -30.7192   25.7686 H   0  0  0  0  0  0
  -24.8937  -32.3004   26.4744 H   0  0  0  0  0  0
  -25.7927  -30.8967   27.0205 H   0  0  0  0  0  0
  -26.3118  -29.6576   24.1404 H   0  0  0  0  0  0
  -27.4005  -29.7286   25.5047 H   0  0  0  0  0  0
  -27.9044  -30.4108   23.9802 H   0  0  0  0  0  0
  -27.2626  -33.3627   26.2050 H   0  0  0  0  0  0
  -28.3894  -32.6880   25.0364 H   0  0  0  0  0  0
  -28.0711  -31.8482   26.5465 H   0  0  0  0  0  0
  -28.2629  -38.0061   24.7412 H   0  0  0  0  0  0
  -28.1021  -36.2581   24.6425 H   0  0  0  0  0  0
  -27.2274  -37.1618   25.8874 H   0  0  0  0  0  0
  -20.9533  -29.8775   21.6698 H   0  0  0  0  0  0
  -26.0178  -38.2810   24.1248 H   0  0  0  0  0  0
  -31.6067  -19.4476   17.4953 H   0  0  0  0  0  0
  -28.5289  -18.7992   21.2417 H   0  0  0  0  0  0
  -29.9783  -23.3993   20.2978 H   0  0  0  0  0  0
  -29.0472  -23.1525   18.8681 H   0  0  0  0  0  0
  -27.7548  -24.4073   21.3981 H   0  0  0  0  0  0
  -27.0362  -24.2892   19.8480 H   0  0  0  0  0  0
  -29.1956  -16.3189   17.4661 H   0  0  0  0  0  0
  -30.3808  -15.4876   16.4966 H   0  0  0  0  0  0
  -28.7744  -16.0197   20.7432 H   0  0  0  0  0  0
  -28.0060  -21.5224   21.0830 H   0  0  0  0  0  0
  1 25  1  0  0  0
  1 30  2  0  0  0
  1 81  1  0  0  0
  2  3  1  0  0  0
  2 25  1  0  0  0
  2 85  1  0  0  0
  2 86  1  0  0  0
  3  4  1  0  0  0
  3 87  1  0  0  0
  3 88  1  0  0  0
  4  5  1  0  0  0
  4 89  1  0  0  0
  4 90  1  0  0  0
  5  6  1  0  0  0
  5 26  1  0  0  0
  5 91  1  0  0  0
  6 25  1  0  0  0
  6 92  1  0  0  0
  6 93  1  0  0  0
  7  8  2  0  0  0
  7 26  1  0  0  0
  7 29  1  0  0  0
  8  9  1  0  0  0
  8 22  1  0  0  0
  9 10  1  0  0  0
  9 27  2  0  0  0
 10 11  2  0  0  0
 10 15  1  0  0  0
 11 12  1  0  0  0
 11 94  1  0  0  0
 12 13  2  0  0  0
 12 95  1  0  0  0
 13 14  1  0  0  0
 13 31  1  0  0  0
 14 15  2  0  0  0
 14 96  1  0  0  0
 15 97  1  0  0  0
 16 17  2  0  0  0
 16 21  1  0  0  0
 16 31  1  0  0  0
 17 18  1  0  0  0
 17 98  1  0  0  0
 18 19  2  0  0  0
 18 99  1  0  0  0
 19 20  1  0  0  0
 19 24  1  0  0  0
 20 21  2  0  0  0
 20100  1  0  0  0
 21 23  1  0  0  0
 22 28  1  0  0  0
 22 32  2  0  0  0
 26 27  1  0  0  0
 28101  1  0  0  0
 28102  1  0  0  0
 29103  1  0  0  0
 29104  1  0  0  0
 33 34  1  0  0  0
 33 66  1  0  0  0
 33 70  2  0  0  0
 34 36  1  0  0  0
 34 59  1  0  0  0
 34105  1  0  0  0
 35 44  2  0  0  0
 35 45  1  0  0  0
 35 68  1  0  0  0
 36 56  1  0  0  0
 36106  1  0  0  0
 37 39  1  0  0  0
 37 47  1  0  0  0
 37 66  1  0  0  0
 37107  1  0  0  0
 38 43  2  0  0  0
 38 46  1  0  0  0
 38 47  1  0  0  0
 39 64  1  0  0  0
 39 67  2  0  0  0
 40 52  1  0  0  0
 40 53  2  0  0  0
 40 58  1  0  0  0
 41108  1  0  0  0
 41109  1  0  0  0
 41110  1  0  0  0
 41 48  1  0  0  0
 42 43  1  0  0  0
 42 66  1  0  0  0
 42111  1  0  0  0
 42112  1  0  0  0
 43 44  1  0  0  0
 44113  1  0  0  0
 45 46  2  0  0  0
 45114  1  0  0  0
 46115  1  0  0  0
 47116  1  0  0  0
 47117  1  0  0  0
 48 56  1  0  0  0
 48 65  1  0  0  0
 48118  1  0  0  0
 49 50  1  0  0  0
 49 53  1  0  0  0
 49 64  1  0  0  0
 49119  1  0  0  0
 50 51  1  0  0  0
 50120  1  0  0  0
 50121  1  0  0  0
 51 52  1  0  0  0
 51122  1  0  0  0
 51123  1  0  0  0
 52124  1  0  0  0
 52125  1  0  0  0
 53 54  1  0  0  0
 54 55  2  0  0  0
 54126  1  0  0  0
 55 57  1  0  0  0
 55127  1  0  0  0
 56 69  2  0  0  0
 57 58  2  0  0  0
 57128  1  0  0  0
 58129  1  0  0  0
 59 60  1  0  0  0
 59 61  1  0  0  0
 59 62  1  0  0  0
 60130  1  0  0  0
 60131  1  0  0  0
 60132  1  0  0  0
 61133  1  0  0  0
 61134  1  0  0  0
 61135  1  0  0  0
 62136  1  0  0  0
 62137  1  0  0  0
 62138  1  0  0  0
 63 65  1  0  0  0
 63139  1  0  0  0
 63140  1  0  0  0
 63141  1  0  0  0
 64142  1  0  0  0
 65143  1  0  0  0
 68 79  1  0  0  0
 71 73  2  0  0  0
 71 76  1  0  0  0
 71144  1  0  0  0
 72 74  2  0  0  0
 72 75  1  0  0  0
 72145  1  0  0  0
 73 74  1  0  0  0
 73 77  1  0  0  0
 74 81  1  0  0  0
 75 76  2  0  0  0
 75 82  1  0  0  0
 76 84  1  0  0  0
 77 80  1  0  0  0
 77 83  2  0  0  0
 78 79  1  0  0  0
 78 82  1  0  0  0
 78146  1  0  0  0
 78147  1  0  0  0
 79148  1  0  0  0
 79149  1  0  0  0
 80150  1  0  0  0
 80151  1  0  0  0
 81152  1  0  0  0
 82153  1  0  0  0
M  ISO  4   1 100  68 101  79 101  81 100
M  END
> <chiral flag>
0

> <version>
0

> <s_m_source_file>
/data/baiqing/PycharmProjects/Reinvent-master-3.2/result/LINK_invent/BTK/process_docking_weight1_custom_sum_contain_oxygen_bond_distance_aromatic_linkinvent_7_9_3/rearranged_h_0015.sdf

> <i_m_source_file_index>
95

> <r_mmod_Potential_Energy-OPLS-2005>
603.942321777344

> <r_mmod_Stretch_Energy-OPLS-2005>
330.336730957031

> <r_mmod_Bend_Energy-OPLS-2005>
286.160705566406

> <r_mmod_Torsional_Energy-OPLS-2005>
261.226287841797

> <r_mmod_Improper_Torsional_Energy-OPLS-2005>
5.86032676696777

> <r_mmod_Van_der_Waal_Energy-OPLS-2005>
137.242446899414

> <r_mmod_Electrostatic_Energy-OPLS-2005>
-381.755828857422

> <r_mmod_Solvation_Energy-OPLS-2005>
-278.846618652344

> <b_mmod_Minimization_Converged-OPLS-2005>
0

> <r_mmod_RMS_Derivative-OPLS-2005>
3.6027147769928

$$$$
