0
                    3D
 Structure written by MMmdl.
162170  0  0  1  0            999 V2000
  -30.7261  -14.4349   20.6151 C   0  0  0  0  0  0
  -30.4150  -12.3033   19.4067 C   0  0  0  0  0  0
  -29.4856  -12.5104   18.1956 C   0  0  0  0  0  0
  -28.0088  -12.3683   18.6125 C   0  0  0  0  0  0
  -27.6595  -13.2058   19.8721 C   0  0  2  0  0  0
  -28.7001  -12.9776   20.9894 C   0  0  0  0  0  0
  -25.2579  -13.8161   20.5655 C   0  0  0  0  0  0
  -24.1836  -13.0434   20.9173 C   0  0  0  0  0  0
  -24.6393  -11.6904   20.8742 C   0  0  0  0  0  0
  -23.9064  -10.4285   21.0414 C   0  0  0  0  0  0
  -24.3615   -9.4200   21.9195 C   0  0  0  0  0  0
  -23.6286   -8.2238   22.0761 C   0  0  0  0  0  0
  -22.4272   -8.0282   21.3549 C   0  0  0  0  0  0
  -21.9911   -9.0256   20.4651 C   0  0  0  0  0  0
  -22.7238  -10.2132   20.3061 C   0  0  0  0  0  0
  -21.6852   -6.0735   22.5283 C   0  0  0  0  0  0
  -21.4011   -6.5641   23.8215 C   0  0  0  0  0  0
  -21.3657   -5.6794   24.9177 C   0  0  0  0  0  0
  -21.6046   -4.3058   24.7226 C   0  0  0  0  0  0
  -21.8820   -3.8147   23.4347 C   0  0  0  0  0  0
  -21.9190   -4.6964   22.3403 C   0  0  0  0  0  0
  -22.7862  -13.5243   21.1837 C   0  0  0  0  0  0
  -22.1662   -4.2148   21.0981 F   0  0  0  0  0  0
  -21.5626   -3.4540   25.7741 F   0  0  0  0  0  0
  -30.0293  -13.2815   20.4356 N   0  0  0  0  0  0
  -26.3010  -12.9326   20.3346 N   0  0  0  0  0  0
  -25.9314  -11.6487   20.5756 N   0  0  0  0  0  0
  -22.0499  -12.8233   22.0392 N   0  0  0  0  0  0
  -25.4306  -15.1870   20.4042 N   0  0  0  0  0  0
  -31.8402  -14.6222   20.1203 O   0  0  0  0  0  0
  -21.6641   -6.8878   21.4242 O   0  0  0  0  0  0
  -22.3550  -14.5550   20.6688 O   0  0  0  0  0  0
  -24.6128  -31.8690   23.2102 C   0  0  0  0  0  0
  -25.9029  -32.4827   23.8390 C   0  0  1  0  0  0
  -27.2417  -27.4408   20.0789 C   0  0  0  0  0  0
  -25.5887  -33.8627   24.2320 N   0  0  0  0  0  0
  -23.4002  -30.4915   21.5511 C   0  0  2  0  0  0
  -24.8450  -28.9542   20.1191 C   0  0  0  0  0  0
  -22.7404  -29.4662   22.5009 C   0  0  0  0  0  0
  -18.0275  -28.1374   22.8495 C   0  0  0  0  0  0
  -24.1492  -36.7319   23.2627 C   0  0  0  0  0  0
  -25.9290  -30.8300   21.3672 C   0  0  0  0  0  0
  -26.0040  -29.4634   20.7173 C   0  0  0  0  0  0
  -27.1992  -28.7093   20.7024 C   0  0  0  0  0  0
  -26.0533  -26.9358   19.4976 C   0  0  0  0  0  0
  -24.8620  -27.6859   19.5146 C   0  0  0  0  0  0
  -23.6081  -29.8213   20.1666 C   0  0  0  0  0  0
  -25.4109  -36.3118   24.0331 C   0  0  1  0  0  0
  -20.5856  -28.3652   23.1331 C   0  0  2  0  0  0
  -20.6769  -26.9397   22.5405 C   0  0  0  0  0  0
  -19.5741  -26.6386   21.5208 C   0  0  0  0  0  0
  -18.1920  -26.7920   22.1627 C   0  0  0  0  0  0
  -19.1520  -28.8832   23.2905 C   0  0  0  0  0  0
  -18.9452  -30.1442   23.8904 C   0  0  0  0  0  0
  -17.6460  -30.6588   24.0559 C   0  0  0  0  0  0
  -25.9030  -34.9484   23.5124 C   0  0  0  0  0  0
  -16.5349  -29.9089   23.6328 C   0  0  0  0  0  0
  -16.7266  -28.6503   23.0348 C   0  0  0  0  0  0
  -26.4446  -31.6609   25.0727 C   0  0  0  0  0  0
  -25.3695  -31.3714   26.1469 C   0  0  0  0  0  0
  -27.0231  -30.3034   24.6105 C   0  0  0  0  0  0
  -27.6057  -32.4292   25.7478 C   0  0  0  0  0  0
  -27.5590  -37.1811   24.8464 C   0  0  0  0  0  0
  -21.4135  -29.3028   22.3752 N   0  0  0  0  0  0
  -26.4309  -37.3800   23.9396 N   0  0  0  0  0  0
  -24.6649  -31.0794   22.1004 N   0  0  0  0  0  0
  -23.4192  -28.8215   23.3047 O   0  0  0  0  0  0
  -28.4413  -26.7528   20.0654 O   0  0  0  0  0  0
  -26.5612  -34.8936   22.4698 O   0  0  0  0  0  0
  -23.5324  -32.1440   23.7512 O   0  0  0  0  0  0
  -28.8335  -21.8966   22.1999 C   0  0  0  0  0  0
  -29.4272  -20.9982   20.2918 C   0  0  0  0  0  0
  -29.2761  -22.2263   20.8882 C   0  0  0  0  0  0
  -31.7058  -18.8858   21.5787 C   0  0  0  0  0  0
  -30.9468  -17.6634   19.5410 C   0  0  0  0  0  0
  -29.5534  -23.6160   20.3459 C   0  0  0  0  0  0
  -28.3301  -24.2895   19.6871 C   0  0  0  0  0  0
  -29.1893  -18.5559   21.1310 C   0  0  0  0  0  0
  -30.7459  -16.6057   21.8636 C   0  0  0  0  0  0
  -28.6339  -25.6968   19.1165 C   0  0  0  0  0  0
  -30.6236  -17.9255   21.0266 C   0  0  0  0  0  0
  -28.7458  -20.5897   22.4003 N   0  0  0  0  0  0
  -29.1354  -20.0229   21.2341 N   0  0  0  0  0  0
  -30.1052  -15.3951   21.3251 N   0  0  0  0  0  0
  -31.4583  -12.3992   19.1018 H   0  0  0  0  0  0
  -30.3130  -11.2887   19.7960 H   0  0  0  0  0  0
  -29.7214  -11.7917   17.4096 H   0  0  0  0  0  0
  -29.6536  -13.4994   17.7666 H   0  0  0  0  0  0
  -27.8209  -11.3115   18.8078 H   0  0  0  0  0  0
  -27.3547  -12.6437   17.7845 H   0  0  0  0  0  0
  -27.7084  -14.2546   19.5797 H   0  0  0  0  0  0
  -28.6737  -11.9392   21.3238 H   0  0  0  0  0  0
  -28.4580  -13.5695   21.8725 H   0  0  0  0  0  0
  -25.2758   -9.5679   22.4771 H   0  0  0  0  0  0
  -23.9996   -7.4634   22.7485 H   0  0  0  0  0  0
  -21.0840   -8.8776   19.8956 H   0  0  0  0  0  0
  -22.3701  -10.9676   19.6171 H   0  0  0  0  0  0
  -21.2006   -7.6151   23.9717 H   0  0  0  0  0  0
  -21.1479   -6.0527   25.9082 H   0  0  0  0  0  0
  -22.0601   -2.7610   23.2851 H   0  0  0  0  0  0
  -22.4104  -11.9882   22.4767 H   0  0  0  0  0  0
  -21.1130  -13.1280   22.2610 H   0  0  0  0  0  0
  -24.6632  -15.8430   20.5026 H   0  0  0  0  0  0
  -26.2822  -15.6215   20.0710 H   0  0  0  0  0  0
  -26.7107  -32.5524   23.1157 H   0  0  0  0  0  0
  -25.0008  -33.9779   25.0450 H   0  0  0  0  0  0
  -22.6875  -31.3074   21.4114 H   0  0  0  0  0  0
  -23.3759  -35.9648   23.3297 H   0  0  0  0  0  0
  -24.3578  -36.8925   22.2038 H   0  0  0  0  0  0
  -23.7256  -37.6529   23.6638 H   0  0  0  0  0  0
  -26.0449  -31.5961   20.5992 H   0  0  0  0  0  0
  -26.8164  -30.8795   21.9866 H   0  0  0  0  0  0
  -28.0983  -29.1024   21.1580 H   0  0  0  0  0  0
  -26.0238  -25.9623   19.0323 H   0  0  0  0  0  0
  -23.9661  -27.2824   19.0607 H   0  0  0  0  0  0
  -23.7174  -30.5938   19.4046 H   0  0  0  0  0  0
  -22.7314  -29.2406   19.8741 H   0  0  0  0  0  0
  -25.1291  -36.1981   25.0825 H   0  0  0  0  0  0
  -20.9938  -28.3203   24.1454 H   0  0  0  0  0  0
  -20.5682  -26.2247   23.3572 H   0  0  0  0  0  0
  -21.6638  -26.7445   22.1184 H   0  0  0  0  0  0
  -19.6886  -25.6303   21.1226 H   0  0  0  0  0  0
  -19.6687  -27.3204   20.6747 H   0  0  0  0  0  0
  -17.4182  -26.6666   21.4044 H   0  0  0  0  0  0
  -18.0321  -26.0062   22.9019 H   0  0  0  0  0  0
  -19.7935  -30.7246   24.2284 H   0  0  0  0  0  0
  -17.5027  -31.6278   24.5149 H   0  0  0  0  0  0
  -15.5352  -30.3003   23.7655 H   0  0  0  0  0  0
  -15.8657  -28.0841   22.7053 H   0  0  0  0  0  0
  -24.5957  -30.6945   25.7828 H   0  0  0  0  0  0
  -24.8762  -32.2845   26.4817 H   0  0  0  0  0  0
  -25.8056  -30.9005   27.0288 H   0  0  0  0  0  0
  -26.2750  -29.6853   24.1126 H   0  0  0  0  0  0
  -27.3928  -29.7236   25.4572 H   0  0  0  0  0  0
  -27.8640  -30.4321   23.9282 H   0  0  0  0  0  0
  -27.2736  -33.3621   26.2050 H   0  0  0  0  0  0
  -28.3881  -32.6782   25.0293 H   0  0  0  0  0  0
  -28.0698  -31.8383   26.5389 H   0  0  0  0  0  0
  -28.2620  -38.0104   24.7510 H   0  0  0  0  0  0
  -28.1081  -36.2633   24.6301 H   0  0  0  0  0  0
  -27.2294  -37.1474   25.8868 H   0  0  0  0  0  0
  -20.9287  -29.8753   21.6985 H   0  0  0  0  0  0
  -26.0200  -38.2876   24.1415 H   0  0  0  0  0  0
  -28.5960  -22.5670   23.0137 H   0  0  0  0  0  0
  -29.7569  -20.7389   19.2951 H   0  0  0  0  0  0
  -31.8007  -19.7916   20.9802 H   0  0  0  0  0  0
  -32.6924  -18.4208   21.5840 H   0  0  0  0  0  0
  -31.4824  -19.1873   22.6031 H   0  0  0  0  0  0
  -30.9339  -18.5842   18.9586 H   0  0  0  0  0  0
  -30.2251  -16.9849   19.0840 H   0  0  0  0  0  0
  -31.9348  -17.2176   19.4230 H   0  0  0  0  0  0
  -30.3681  -23.5782   19.6203 H   0  0  0  0  0  0
  -29.9155  -24.2655   21.1447 H   0  0  0  0  0  0
  -27.4953  -24.3433   20.3868 H   0  0  0  0  0  0
  -27.9969  -23.6530   18.8668 H   0  0  0  0  0  0
  -28.6758  -18.1464   22.0033 H   0  0  0  0  0  0
  -28.5726  -18.2537   20.2837 H   0  0  0  0  0  0
  -30.3446  -16.7729   22.8645 H   0  0  0  0  0  0
  -31.7997  -16.3742   22.0318 H   0  0  0  0  0  0
  -28.0642  -25.8789   18.2053 H   0  0  0  0  0  0
  -29.6738  -25.7393   18.7903 H   0  0  0  0  0  0
  -29.1733  -15.1831   21.6492 H   0  0  0  0  0  0
  1 25  1  0  0  0
  1 30  2  0  0  0
  1 84  1  0  0  0
  2  3  1  0  0  0
  2 25  1  0  0  0
  2 85  1  0  0  0
  2 86  1  0  0  0
  3  4  1  0  0  0
  3 87  1  0  0  0
  3 88  1  0  0  0
  4  5  1  0  0  0
  4 89  1  0  0  0
  4 90  1  0  0  0
  5  6  1  0  0  0
  5 26  1  0  0  0
  5 91  1  0  0  0
  6 25  1  0  0  0
  6 92  1  0  0  0
  6 93  1  0  0  0
  7  8  2  0  0  0
  7 26  1  0  0  0
  7 29  1  0  0  0
  8  9  1  0  0  0
  8 22  1  0  0  0
  9 10  1  0  0  0
  9 27  2  0  0  0
 10 11  2  0  0  0
 10 15  1  0  0  0
 11 12  1  0  0  0
 11 94  1  0  0  0
 12 13  2  0  0  0
 12 95  1  0  0  0
 13 14  1  0  0  0
 13 31  1  0  0  0
 14 15  2  0  0  0
 14 96  1  0  0  0
 15 97  1  0  0  0
 16 17  2  0  0  0
 16 21  1  0  0  0
 16 31  1  0  0  0
 17 18  1  0  0  0
 17 98  1  0  0  0
 18 19  2  0  0  0
 18 99  1  0  0  0
 19 20  1  0  0  0
 19 24  1  0  0  0
 20 21  2  0  0  0
 20100  1  0  0  0
 21 23  1  0  0  0
 22 28  1  0  0  0
 22 32  2  0  0  0
 26 27  1  0  0  0
 28101  1  0  0  0
 28102  1  0  0  0
 29103  1  0  0  0
 29104  1  0  0  0
 33 34  1  0  0  0
 33 66  1  0  0  0
 33 70  2  0  0  0
 34 36  1  0  0  0
 34 59  1  0  0  0
 34105  1  0  0  0
 35 44  2  0  0  0
 35 45  1  0  0  0
 35 68  1  0  0  0
 36 56  1  0  0  0
 36106  1  0  0  0
 37 39  1  0  0  0
 37 47  1  0  0  0
 37 66  1  0  0  0
 37107  1  0  0  0
 38 43  2  0  0  0
 38 46  1  0  0  0
 38 47  1  0  0  0
 39 64  1  0  0  0
 39 67  2  0  0  0
 40 52  1  0  0  0
 40 53  2  0  0  0
 40 58  1  0  0  0
 41108  1  0  0  0
 41109  1  0  0  0
 41110  1  0  0  0
 41 48  1  0  0  0
 42 43  1  0  0  0
 42 66  1  0  0  0
 42111  1  0  0  0
 42112  1  0  0  0
 43 44  1  0  0  0
 44113  1  0  0  0
 45 46  2  0  0  0
 45114  1  0  0  0
 46115  1  0  0  0
 47116  1  0  0  0
 47117  1  0  0  0
 48 56  1  0  0  0
 48 65  1  0  0  0
 48118  1  0  0  0
 49 50  1  0  0  0
 49 53  1  0  0  0
 49 64  1  0  0  0
 49119  1  0  0  0
 50 51  1  0  0  0
 50120  1  0  0  0
 50121  1  0  0  0
 51 52  1  0  0  0
 51122  1  0  0  0
 51123  1  0  0  0
 52124  1  0  0  0
 52125  1  0  0  0
 53 54  1  0  0  0
 54 55  2  0  0  0
 54126  1  0  0  0
 55 57  1  0  0  0
 55127  1  0  0  0
 56 69  2  0  0  0
 57 58  2  0  0  0
 57128  1  0  0  0
 58129  1  0  0  0
 59 60  1  0  0  0
 59 61  1  0  0  0
 59 62  1  0  0  0
 60130  1  0  0  0
 60131  1  0  0  0
 60132  1  0  0  0
 61133  1  0  0  0
 61134  1  0  0  0
 61135  1  0  0  0
 62136  1  0  0  0
 62137  1  0  0  0
 62138  1  0  0  0
 63 65  1  0  0  0
 63139  1  0  0  0
 63140  1  0  0  0
 63141  1  0  0  0
 64142  1  0  0  0
 65143  1  0  0  0
 68 80  1  0  0  0
 71 73  1  0  0  0
 71 82  2  0  0  0
 71144  1  0  0  0
 72 73  2  0  0  0
 72 83  1  0  0  0
 72145  1  0  0  0
 73 76  1  0  0  0
 74146  1  0  0  0
 74147  1  0  0  0
 74148  1  0  0  0
 74 81  1  0  0  0
 75 81  1  0  0  0
 75149  1  0  0  0
 75150  1  0  0  0
 75151  1  0  0  0
 76 77  1  0  0  0
 76152  1  0  0  0
 76153  1  0  0  0
 77 80  1  0  0  0
 77154  1  0  0  0
 77155  1  0  0  0
 78 81  1  0  0  0
 78 83  1  0  0  0
 78156  1  0  0  0
 78157  1  0  0  0
 79 81  1  0  0  0
 79 84  1  0  0  0
 79158  1  0  0  0
 79159  1  0  0  0
 80160  1  0  0  0
 80161  1  0  0  0
 82 83  1  0  0  0
 84162  1  0  0  0
M  ISO  4   1 100  68 101  80 101  84 100
M  END
> <chiral flag>
0

> <version>
0

> <s_m_source_file>
/data/baiqing/PycharmProjects/Reinvent-master-3.2/result/LINK_invent/BTK/process_docking_weight1_custom_sum_contain_oxygen_bond_distance_aromatic_linkinvent_7_9_3/rearranged_h_0087.sdf

> <i_m_source_file_index>
1

> <r_mmod_Potential_Energy-OPLS-2005>
-88.3009567260742

> <r_mmod_Stretch_Energy-OPLS-2005>
37.8181495666504

> <r_mmod_Bend_Energy-OPLS-2005>
107.322074890137

> <r_mmod_Torsional_Energy-OPLS-2005>
222.641540527344

> <r_mmod_Improper_Torsional_Energy-OPLS-2005>
2.3373429775238

> <r_mmod_Van_der_Waal_Energy-OPLS-2005>
135.259490966797

> <r_mmod_Electrostatic_Energy-OPLS-2005>
-388.342224121094

> <r_mmod_Solvation_Energy-OPLS-2005>
-215.986129760742

> <b_mmod_Minimization_Converged-OPLS-2005>
0

> <r_mmod_RMS_Derivative-OPLS-2005>
1.55709254741669

$$$$
1
                    3D
 Structure written by MMmdl.
166174  0  0  1  0            999 V2000
  -30.7130  -14.4750   20.4559 C   0  0  0  0  0  0
  -30.4061  -12.2777   19.4349 C   0  0  0  0  0  0
  -29.4901  -12.4543   18.2074 C   0  0  0  0  0  0
  -28.0066  -12.3482   18.6155 C   0  0  0  0  0  0
  -27.6505  -13.2141   19.8568 C   0  0  2  0  0  0
  -28.6984  -13.0575   20.9846 C   0  0  0  0  0  0
  -25.2528  -13.8193   20.5653 C   0  0  0  0  0  0
  -24.1820  -13.0453   20.9208 C   0  0  0  0  0  0
  -24.6400  -11.6926   20.8780 C   0  0  0  0  0  0
  -23.9076  -10.4309   21.0449 C   0  0  0  0  0  0
  -24.3621   -9.4247   21.9225 C   0  0  0  0  0  0
  -23.6322   -8.2262   22.0761 C   0  0  0  0  0  0
  -22.4318   -8.0284   21.3545 C   0  0  0  0  0  0
  -21.9938   -9.0252   20.4647 C   0  0  0  0  0  0
  -22.7250  -10.2131   20.3076 C   0  0  0  0  0  0
  -21.6879   -6.0754   22.5299 C   0  0  0  0  0  0
  -21.4021   -6.5651   23.8238 C   0  0  0  0  0  0
  -21.3653   -5.6798   24.9200 C   0  0  0  0  0  0
  -21.6018   -4.3068   24.7254 C   0  0  0  0  0  0
  -21.8843   -3.8151   23.4389 C   0  0  0  0  0  0
  -21.9209   -4.6963   22.3441 C   0  0  0  0  0  0
  -22.7836  -13.5209   21.1887 C   0  0  0  0  0  0
  -22.1688   -4.2146   21.1012 F   0  0  0  0  0  0
  -21.5594   -3.4564   25.7772 F   0  0  0  0  0  0
  -30.0238  -13.3075   20.4104 N   0  0  0  0  0  0
  -26.2959  -12.9375   20.3295 N   0  0  0  0  0  0
  -25.9312  -11.6529   20.5735 N   0  0  0  0  0  0
  -22.0498  -12.8180   22.0432 N   0  0  0  0  0  0
  -25.4271  -15.1897   20.4055 N   0  0  0  0  0  0
  -31.9106  -14.5483   20.1812 O   0  0  0  0  0  0
  -21.6670   -6.8891   21.4259 O   0  0  0  0  0  0
  -22.3496  -14.5514   20.6737 O   0  0  0  0  0  0
  -24.6146  -31.8691   23.2168 C   0  0  0  0  0  0
  -25.9025  -32.4855   23.8464 C   0  0  1  0  0  0
  -27.2216  -27.4334   20.0766 C   0  0  0  0  0  0
  -25.5870  -33.8651   24.2392 N   0  0  0  0  0  0
  -23.4032  -30.4980   21.5558 C   0  0  2  0  0  0
  -24.8466  -28.9772   20.1160 C   0  0  0  0  0  0
  -22.7428  -29.4646   22.4979 C   0  0  0  0  0  0
  -18.0253  -28.1381   22.8489 C   0  0  0  0  0  0
  -24.1488  -36.7324   23.2643 C   0  0  0  0  0  0
  -25.9385  -30.8305   21.3791 C   0  0  0  0  0  0
  -26.0104  -29.4694   20.7180 C   0  0  0  0  0  0
  -27.1979  -28.6998   20.7050 C   0  0  0  0  0  0
  -26.0303  -26.9689   19.4610 C   0  0  0  0  0  0
  -24.8491  -27.7231   19.4924 C   0  0  0  0  0  0
  -23.6128  -29.8455   20.1664 C   0  0  0  0  0  0
  -25.4105  -36.3160   24.0368 C   0  0  1  0  0  0
  -20.5858  -28.3647   23.1330 C   0  0  2  0  0  0
  -20.6767  -26.9381   22.5430 C   0  0  0  0  0  0
  -19.5758  -26.6384   21.5215 C   0  0  0  0  0  0
  -18.1919  -26.7920   22.1620 C   0  0  0  0  0  0
  -19.1512  -28.8829   23.2907 C   0  0  0  0  0  0
  -18.9433  -30.1433   23.8928 C   0  0  0  0  0  0
  -17.6437  -30.6588   24.0558 C   0  0  0  0  0  0
  -25.9022  -34.9513   23.5184 C   0  0  0  0  0  0
  -16.5323  -29.9103   23.6321 C   0  0  0  0  0  0
  -16.7237  -28.6519   23.0340 C   0  0  0  0  0  0
  -26.4457  -31.6621   25.0772 C   0  0  0  0  0  0
  -25.3747  -31.3697   26.1550 C   0  0  0  0  0  0
  -27.0319  -30.3097   24.6129 C   0  0  0  0  0  0
  -27.6093  -32.4310   25.7475 C   0  0  0  0  0  0
  -27.5600  -37.1835   24.8475 C   0  0  0  0  0  0
  -21.4151  -29.3019   22.3754 N   0  0  0  0  0  0
  -26.4315  -37.3824   23.9410 N   0  0  0  0  0  0
  -24.6700  -31.0819   22.1063 N   0  0  0  0  0  0
  -23.4202  -28.8162   23.2998 O   0  0  0  0  0  0
  -28.3865  -26.6850   20.0838 O   0  0  0  0  0  0
  -26.5593  -34.8942   22.4758 O   0  0  0  0  0  0
  -23.5331  -32.1447   23.7543 O   0  0  0  0  0  0
  -28.5505  -18.4493   19.3071 C   0  0  0  0  0  0
  -29.9737  -20.1817   20.8771 C   0  0  0  0  0  0
  -28.0885  -19.7828   19.4012 C   0  0  0  0  0  0
  -28.8337  -20.6893   20.2160 C   0  0  0  0  0  0
  -29.7304  -18.0747   19.9707 C   0  0  0  0  0  0
  -25.5681  -19.5874   19.1528 C   0  0  0  0  0  0
  -27.0276  -19.8202   17.0890 C   0  0  0  0  0  0
  -27.2257  -22.3868   20.9399 C   0  0  0  0  0  0
  -30.4132  -16.7528   19.6760 C   0  0  0  0  0  0
  -29.4502  -24.4217   20.0708 C   0  0  0  0  0  0
  -29.3106  -22.9721   19.5374 C   0  0  0  0  0  0
  -28.2538  -25.3115   19.6966 C   0  0  0  0  0  0
  -26.8622  -20.1888   18.5756 C   0  0  0  0  0  0
  -30.4173  -18.9134   20.7664 N   0  0  0  0  0  0
  -29.9578  -15.5857   20.4384 N   0  0  0  0  0  0
  -28.5385  -22.0575   20.3924 N   0  0  0  0  0  0
  -31.4588  -12.3365   19.1459 H   0  0  0  0  0  0
  -30.2659  -11.2895   19.8746 H   0  0  0  0  0  0
  -29.7158  -11.6953   17.4580 H   0  0  0  0  0  0
  -29.6751  -13.4198   17.7293 H   0  0  0  0  0  0
  -27.8001  -11.2983   18.8181 H   0  0  0  0  0  0
  -27.3627  -12.6173   17.7769 H   0  0  0  0  0  0
  -27.6700  -14.2491   19.5157 H   0  0  0  0  0  0
  -28.6704  -12.0471   21.3959 H   0  0  0  0  0  0
  -28.4896  -13.7352   21.8148 H   0  0  0  0  0  0
  -25.2763   -9.5730   22.4806 H   0  0  0  0  0  0
  -24.0020   -7.4658   22.7479 H   0  0  0  0  0  0
  -21.0862   -8.8785   19.8953 H   0  0  0  0  0  0
  -22.3738  -10.9687   19.6190 H   0  0  0  0  0  0
  -21.2036   -7.6154   23.9757 H   0  0  0  0  0  0
  -21.1408   -6.0514   25.9090 H   0  0  0  0  0  0
  -22.0606   -2.7602   23.2902 H   0  0  0  0  0  0
  -22.4096  -11.9811   22.4810 H   0  0  0  0  0  0
  -21.1126  -13.1186   22.2639 H   0  0  0  0  0  0
  -24.6768  -15.8554   20.5545 H   0  0  0  0  0  0
  -26.2801  -15.6285   20.0808 H   0  0  0  0  0  0
  -26.7104  -32.5577   23.1240 H   0  0  0  0  0  0
  -24.9987  -33.9816   25.0513 H   0  0  0  0  0  0
  -22.6899  -31.3131   21.4220 H   0  0  0  0  0  0
  -23.3766  -35.9640   23.3323 H   0  0  0  0  0  0
  -24.3613  -36.8908   22.2062 H   0  0  0  0  0  0
  -23.7214  -37.6532   23.6615 H   0  0  0  0  0  0
  -26.0690  -31.5991   20.6156 H   0  0  0  0  0  0
  -26.8202  -30.8735   22.0061 H   0  0  0  0  0  0
  -28.0925  -29.0686   21.1893 H   0  0  0  0  0  0
  -25.9739  -26.0225   18.9440 H   0  0  0  0  0  0
  -23.9511  -27.3390   19.0259 H   0  0  0  0  0  0
  -23.7305  -30.6243   19.4124 H   0  0  0  0  0  0
  -22.7357  -29.2707   19.8630 H   0  0  0  0  0  0
  -25.1281  -36.2059   25.0862 H   0  0  0  0  0  0
  -20.9924  -28.3207   24.1462 H   0  0  0  0  0  0
  -20.5678  -26.2232   23.3605 H   0  0  0  0  0  0
  -21.6634  -26.7449   22.1212 H   0  0  0  0  0  0
  -19.6911  -25.6302   21.1229 H   0  0  0  0  0  0
  -19.6715  -27.3217   20.6766 H   0  0  0  0  0  0
  -17.4189  -26.6632   21.4023 H   0  0  0  0  0  0
  -18.0325  -26.0065   22.9028 H   0  0  0  0  0  0
  -19.7898  -30.7230   24.2333 H   0  0  0  0  0  0
  -17.4990  -31.6268   24.5162 H   0  0  0  0  0  0
  -15.5340  -30.3023   23.7635 H   0  0  0  0  0  0
  -15.8617  -28.0864   22.7050 H   0  0  0  0  0  0
  -24.5911  -30.7041   25.7903 H   0  0  0  0  0  0
  -24.8920  -32.2823   26.5055 H   0  0  0  0  0  0
  -25.8119  -30.8841   27.0287 H   0  0  0  0  0  0
  -26.2884  -29.6839   24.1168 H   0  0  0  0  0  0
  -27.4147  -29.7337   25.4564 H   0  0  0  0  0  0
  -27.8688  -30.4497   23.9280 H   0  0  0  0  0  0
  -27.2792  -33.3618   26.2096 H   0  0  0  0  0  0
  -28.3826  -32.6850   25.0210 H   0  0  0  0  0  0
  -28.0838  -31.8390   26.5316 H   0  0  0  0  0  0
  -28.2652  -38.0100   24.7528 H   0  0  0  0  0  0
  -28.1063  -36.2655   24.6290 H   0  0  0  0  0  0
  -27.2338  -37.1486   25.8882 H   0  0  0  0  0  0
  -20.9296  -29.8744   21.6989 H   0  0  0  0  0  0
  -26.0230  -38.2919   24.1365 H   0  0  0  0  0  0
  -28.0448  -17.7375   18.6681 H   0  0  0  0  0  0
  -30.5729  -20.8298   21.4982 H   0  0  0  0  0  0
  -25.4184  -19.8925   20.1887 H   0  0  0  0  0  0
  -25.5862  -18.4973   19.1271 H   0  0  0  0  0  0
  -24.6937  -19.9156   18.5880 H   0  0  0  0  0  0
  -27.9540  -20.2324   16.6907 H   0  0  0  0  0  0
  -26.2074  -20.2186   16.4903 H   0  0  0  0  0  0
  -27.0508  -18.7432   16.9280 H   0  0  0  0  0  0
  -26.7475  -21.5215   21.4026 H   0  0  0  0  0  0
  -26.5557  -22.7759   20.1727 H   0  0  0  0  0  0
  -27.3239  -23.1510   21.7131 H   0  0  0  0  0  0
  -31.4860  -16.9145   19.7975 H   0  0  0  0  0  0
  -30.2845  -16.5340   18.6144 H   0  0  0  0  0  0
  -30.3423  -24.8633   19.6199 H   0  0  0  0  0  0
  -29.6177  -24.4249   21.1492 H   0  0  0  0  0  0
  -30.3194  -22.5676   19.4315 H   0  0  0  0  0  0
  -28.8939  -22.9787   18.5271 H   0  0  0  0  0  0
  -27.3796  -24.8925   20.1890 H   0  0  0  0  0  0
  -28.0901  -25.2544   18.6188 H   0  0  0  0  0  0
  -26.7631  -21.2709   18.5937 H   0  0  0  0  0  0
  -28.9735  -15.5143   20.6484 H   0  0  0  0  0  0
  1 25  1  0  0  0
  1 30  2  0  0  0
  1 85  1  0  0  0
  2  3  1  0  0  0
  2 25  1  0  0  0
  2 87  1  0  0  0
  2 88  1  0  0  0
  3  4  1  0  0  0
  3 89  1  0  0  0
  3 90  1  0  0  0
  4  5  1  0  0  0
  4 91  1  0  0  0
  4 92  1  0  0  0
  5  6  1  0  0  0
  5 26  1  0  0  0
  5 93  1  0  0  0
  6 25  1  0  0  0
  6 94  1  0  0  0
  6 95  1  0  0  0
  7  8  2  0  0  0
  7 26  1  0  0  0
  7 29  1  0  0  0
  8  9  1  0  0  0
  8 22  1  0  0  0
  9 10  1  0  0  0
  9 27  2  0  0  0
 10 11  2  0  0  0
 10 15  1  0  0  0
 11 12  1  0  0  0
 11 96  1  0  0  0
 12 13  2  0  0  0
 12 97  1  0  0  0
 13 14  1  0  0  0
 13 31  1  0  0  0
 14 15  2  0  0  0
 14 98  1  0  0  0
 15 99  1  0  0  0
 16 17  2  0  0  0
 16 21  1  0  0  0
 16 31  1  0  0  0
 17 18  1  0  0  0
 17100  1  0  0  0
 18 19  2  0  0  0
 18101  1  0  0  0
 19 20  1  0  0  0
 19 24  1  0  0  0
 20 21  2  0  0  0
 20102  1  0  0  0
 21 23  1  0  0  0
 22 28  1  0  0  0
 22 32  2  0  0  0
 26 27  1  0  0  0
 28103  1  0  0  0
 28104  1  0  0  0
 29105  1  0  0  0
 29106  1  0  0  0
 33 34  1  0  0  0
 33 66  1  0  0  0
 33 70  2  0  0  0
 34 36  1  0  0  0
 34 59  1  0  0  0
 34107  1  0  0  0
 35 44  2  0  0  0
 35 45  1  0  0  0
 35 68  1  0  0  0
 36 56  1  0  0  0
 36108  1  0  0  0
 37 39  1  0  0  0
 37 47  1  0  0  0
 37 66  1  0  0  0
 37109  1  0  0  0
 38 43  2  0  0  0
 38 46  1  0  0  0
 38 47  1  0  0  0
 39 64  1  0  0  0
 39 67  2  0  0  0
 40 52  1  0  0  0
 40 53  2  0  0  0
 40 58  1  0  0  0
 41110  1  0  0  0
 41111  1  0  0  0
 41112  1  0  0  0
 41 48  1  0  0  0
 42 43  1  0  0  0
 42 66  1  0  0  0
 42113  1  0  0  0
 42114  1  0  0  0
 43 44  1  0  0  0
 44115  1  0  0  0
 45 46  2  0  0  0
 45116  1  0  0  0
 46117  1  0  0  0
 47118  1  0  0  0
 47119  1  0  0  0
 48 56  1  0  0  0
 48 65  1  0  0  0
 48120  1  0  0  0
 49 50  1  0  0  0
 49 53  1  0  0  0
 49 64  1  0  0  0
 49121  1  0  0  0
 50 51  1  0  0  0
 50122  1  0  0  0
 50123  1  0  0  0
 51 52  1  0  0  0
 51124  1  0  0  0
 51125  1  0  0  0
 52126  1  0  0  0
 52127  1  0  0  0
 53 54  1  0  0  0
 54 55  2  0  0  0
 54128  1  0  0  0
 55 57  1  0  0  0
 55129  1  0  0  0
 56 69  2  0  0  0
 57 58  2  0  0  0
 57130  1  0  0  0
 58131  1  0  0  0
 59 60  1  0  0  0
 59 61  1  0  0  0
 59 62  1  0  0  0
 60132  1  0  0  0
 60133  1  0  0  0
 60134  1  0  0  0
 61135  1  0  0  0
 61136  1  0  0  0
 61137  1  0  0  0
 62138  1  0  0  0
 62139  1  0  0  0
 62140  1  0  0  0
 63 65  1  0  0  0
 63141  1  0  0  0
 63142  1  0  0  0
 63143  1  0  0  0
 64144  1  0  0  0
 65145  1  0  0  0
 68 82  1  0  0  0
 71 73  2  0  0  0
 71 75  1  0  0  0
 71146  1  0  0  0
 72 74  2  0  0  0
 72 84  1  0  0  0
 72147  1  0  0  0
 73 74  1  0  0  0
 73 83  1  0  0  0
 74 86  1  0  0  0
 75 79  1  0  0  0
 75 84  2  0  0  0
 76148  1  0  0  0
 76149  1  0  0  0
 76150  1  0  0  0
 76 83  1  0  0  0
 77 83  1  0  0  0
 77151  1  0  0  0
 77152  1  0  0  0
 77153  1  0  0  0
 78 86  1  0  0  0
 78154  1  0  0  0
 78155  1  0  0  0
 78156  1  0  0  0
 79 85  1  0  0  0
 79157  1  0  0  0
 79158  1  0  0  0
 80 81  1  0  0  0
 80 82  1  0  0  0
 80159  1  0  0  0
 80160  1  0  0  0
 81 86  1  0  0  0
 81161  1  0  0  0
 81162  1  0  0  0
 82163  1  0  0  0
 82164  1  0  0  0
 83165  1  0  0  0
 85166  1  0  0  0
M  ISO  4   1 100  68 101  82 101  85 100
M  END
> <chiral flag>
0

> <version>
0

> <s_m_source_file>
/data/baiqing/PycharmProjects/Reinvent-master-3.2/result/LINK_invent/BTK/process_docking_weight1_custom_sum_contain_oxygen_bond_distance_aromatic_linkinvent_7_9_3/rearranged_h_0087.sdf

> <i_m_source_file_index>
2

> <r_mmod_Potential_Energy-OPLS-2005>
-180.198318481445

> <r_mmod_Stretch_Energy-OPLS-2005>
36.809009552002

> <r_mmod_Bend_Energy-OPLS-2005>
108.066284179688

> <r_mmod_Torsional_Energy-OPLS-2005>
250.089553833008

> <r_mmod_Improper_Torsional_Energy-OPLS-2005>
13.4739675521851

> <r_mmod_Van_der_Waal_Energy-OPLS-2005>
166.55207824707

> <r_mmod_Electrostatic_Energy-OPLS-2005>
-548.5498046875

> <r_mmod_Solvation_Energy-OPLS-2005>
-230.164245605469

> <b_mmod_Minimization_Converged-OPLS-2005>
0

> <r_mmod_RMS_Derivative-OPLS-2005>
4.91036367416382

$$$$
2
                    3D
 Structure written by MMmdl.
178186  0  0  1  0            999 V2000
  -30.6624  -14.6261   20.5475 C   0  0  0  0  0  0
  -30.4349  -12.4049   19.4362 C   0  0  0  0  0  0
  -29.5011  -12.5155   18.2127 C   0  0  0  0  0  0
  -28.0272  -12.3493   18.6320 C   0  0  0  0  0  0
  -27.6501  -13.2191   19.8613 C   0  0  2  0  0  0
  -28.7000  -13.0848   20.9839 C   0  0  0  0  0  0
  -25.2540  -13.8156   20.5688 C   0  0  0  0  0  0
  -24.1822  -13.0426   20.9216 C   0  0  0  0  0  0
  -24.6399  -11.6902   20.8758 C   0  0  0  0  0  0
  -23.9068  -10.4293   21.0427 C   0  0  0  0  0  0
  -24.3615   -9.4203   21.9203 C   0  0  0  0  0  0
  -23.6285   -8.2240   22.0760 C   0  0  0  0  0  0
  -22.4274   -8.0281   21.3537 C   0  0  0  0  0  0
  -21.9903   -9.0258   20.4642 C   0  0  0  0  0  0
  -22.7238  -10.2134   20.3070 C   0  0  0  0  0  0
  -21.6860   -6.0726   22.5266 C   0  0  0  0  0  0
  -21.4020   -6.5631   23.8199 C   0  0  0  0  0  0
  -21.3668   -5.6786   24.9164 C   0  0  0  0  0  0
  -21.6052   -4.3050   24.7226 C   0  0  0  0  0  0
  -21.8821   -3.8138   23.4343 C   0  0  0  0  0  0
  -21.9191   -4.6950   22.3393 C   0  0  0  0  0  0
  -22.7841  -13.5213   21.1858 C   0  0  0  0  0  0
  -22.1655   -4.2134   21.0976 F   0  0  0  0  0  0
  -21.5634   -3.4539   25.7739 F   0  0  0  0  0  0
  -30.0081  -13.4317   20.4039 N   0  0  0  0  0  0
  -26.2980  -12.9342   20.3328 N   0  0  0  0  0  0
  -25.9336  -11.6485   20.5778 N   0  0  0  0  0  0
  -22.0464  -12.8222   22.0422 N   0  0  0  0  0  0
  -25.4214  -15.1881   20.4071 N   0  0  0  0  0  0
  -31.8475  -14.7588   20.2349 O   0  0  0  0  0  0
  -21.6636   -6.8871   21.4228 O   0  0  0  0  0  0
  -22.3523  -14.5515   20.6699 O   0  0  0  0  0  0
  -24.6273  -31.8622   23.2052 C   0  0  0  0  0  0
  -25.9123  -32.4797   23.8370 C   0  0  1  0  0  0
  -27.2173  -27.3251   20.1303 C   0  0  0  0  0  0
  -25.5953  -33.8595   24.2302 N   0  0  0  0  0  0
  -23.4191  -30.4853   21.5493 C   0  0  2  0  0  0
  -24.8677  -28.9382   20.1176 C   0  0  0  0  0  0
  -22.7480  -29.4632   22.4957 C   0  0  0  0  0  0
  -18.0272  -28.1382   22.8479 C   0  0  0  0  0  0
  -24.1482  -36.7294   23.2631 C   0  0  0  0  0  0
  -25.9573  -30.7920   21.3770 C   0  0  0  0  0  0
  -26.0312  -29.4130   20.7377 C   0  0  0  0  0  0
  -27.2110  -28.6110   20.7505 C   0  0  0  0  0  0
  -26.0502  -26.9186   19.4590 C   0  0  0  0  0  0
  -24.8771  -27.6921   19.4728 C   0  0  0  0  0  0
  -23.6355  -29.8184   20.1644 C   0  0  0  0  0  0
  -25.4102  -36.3102   24.0334 C   0  0  1  0  0  0
  -20.5879  -28.3677   23.1284 C   0  0  2  0  0  0
  -20.6768  -26.9409   22.5401 C   0  0  0  0  0  0
  -19.5744  -26.6379   21.5206 C   0  0  0  0  0  0
  -18.1916  -26.7932   22.1609 C   0  0  0  0  0  0
  -19.1528  -28.8844   23.2879 C   0  0  0  0  0  0
  -18.9464  -30.1451   23.8896 C   0  0  0  0  0  0
  -17.6463  -30.6593   24.0556 C   0  0  0  0  0  0
  -25.9045  -34.9477   23.5110 C   0  0  0  0  0  0
  -16.5350  -29.9086   23.6331 C   0  0  0  0  0  0
  -16.7264  -28.6505   23.0345 C   0  0  0  0  0  0
  -26.4509  -31.6593   25.0733 C   0  0  0  0  0  0
  -25.3737  -31.3719   26.1443 C   0  0  0  0  0  0
  -27.0321  -30.3025   24.6135 C   0  0  0  0  0  0
  -27.6084  -32.4303   25.7512 C   0  0  0  0  0  0
  -27.5563  -37.1796   24.8467 C   0  0  0  0  0  0
  -21.4192  -29.3044   22.3707 N   0  0  0  0  0  0
  -26.4268  -37.3794   23.9427 N   0  0  0  0  0  0
  -24.6871  -31.0623   22.1015 N   0  0  0  0  0  0
  -23.4216  -28.8170   23.3032 O   0  0  0  0  0  0
  -28.3202  -26.4701   20.0697 O   0  0  0  0  0  0
  -26.5582  -34.8944   22.4661 O   0  0  0  0  0  0
  -23.5439  -32.1422   23.7386 O   0  0  0  0  0  0
  -29.5684  -22.7823   19.4572 C   0  0  0  0  0  0
  -28.8671  -21.4859   21.0872 C   0  0  0  0  0  0
  -28.8062  -22.8048   20.6535 C   0  0  0  0  0  0
  -29.9438  -21.4930   19.1298 C   0  0  0  0  0  0
  -27.7603  -23.7191   22.7481 C   0  0  0  0  0  0
  -26.5831  -23.9066   20.5922 C   0  0  0  0  0  0
  -29.4979  -20.3792   16.9213 C   0  0  0  0  0  0
  -31.7924  -20.1811   17.9244 C   0  0  0  0  0  0
  -31.0271  -22.3244   16.9997 C   0  0  0  0  0  0
  -30.7327  -19.1954   22.5594 C   0  0  0  0  0  0
  -32.0133  -18.2742   20.6703 C   0  0  0  0  0  0
  -29.5761  -19.1160   20.2921 C   0  0  0  0  0  0
  -30.2093  -16.8774   21.7640 C   0  0  0  0  0  0
  -28.5455  -25.5112   21.1603 C   0  0  0  0  0  0
  -27.9713  -24.0004   21.2428 C   0  0  0  0  0  0
  -30.5565  -21.0814   17.7933 C   0  0  0  0  0  0
  -30.5957  -18.3565   21.2669 C   0  0  0  0  0  0
  -29.5345  -20.6386   20.1821 N   0  0  0  0  0  0
  -29.8933  -15.7049   20.8841 N   0  0  0  0  0  0
  -31.4754  -12.5321   19.1346 H   0  0  0  0  0  0
  -30.3652  -11.4133   19.8857 H   0  0  0  0  0  0
  -29.7653  -11.7633   17.4677 H   0  0  0  0  0  0
  -29.6381  -13.4869   17.7335 H   0  0  0  0  0  0
  -27.8707  -11.2956   18.8642 H   0  0  0  0  0  0
  -27.3708  -12.5794   17.7926 H   0  0  0  0  0  0
  -27.6640  -14.2548   19.5229 H   0  0  0  0  0  0
  -28.7177  -12.0657   21.3739 H   0  0  0  0  0  0
  -28.4481  -13.7252   21.8311 H   0  0  0  0  0  0
  -25.2755   -9.5670   22.4794 H   0  0  0  0  0  0
  -23.9990   -7.4624   22.7476 H   0  0  0  0  0  0
  -21.0832   -8.8779   19.8937 H   0  0  0  0  0  0
  -22.3698  -10.9685   19.6194 H   0  0  0  0  0  0
  -21.2021   -7.6144   23.9685 H   0  0  0  0  0  0
  -21.1493   -6.0529   25.9056 H   0  0  0  0  0  0
  -22.0597   -2.7600   23.2847 H   0  0  0  0  0  0
  -22.4071  -11.9898   22.4839 H   0  0  0  0  0  0
  -21.1078  -13.1237   22.2582 H   0  0  0  0  0  0
  -24.6496  -15.8386   20.5127 H   0  0  0  0  0  0
  -26.2608  -15.6268   20.0529 H   0  0  0  0  0  0
  -26.7194  -32.5495   23.1128 H   0  0  0  0  0  0
  -25.0222  -33.9778   25.0530 H   0  0  0  0  0  0
  -22.7135  -31.3059   21.4044 H   0  0  0  0  0  0
  -23.3764  -35.9607   23.3310 H   0  0  0  0  0  0
  -24.3579  -36.8900   22.2041 H   0  0  0  0  0  0
  -23.7220  -37.6498   23.6634 H   0  0  0  0  0  0
  -26.0714  -31.5421   20.5938 H   0  0  0  0  0  0
  -26.8471  -30.8631   21.9891 H   0  0  0  0  0  0
  -28.1044  -28.9684   21.2434 H   0  0  0  0  0  0
  -26.0417  -25.9877   18.9148 H   0  0  0  0  0  0
  -23.9921  -27.3326   18.9663 H   0  0  0  0  0  0
  -23.7538  -30.5935   19.4062 H   0  0  0  0  0  0
  -22.7571  -29.2426   19.8615 H   0  0  0  0  0  0
  -25.1276  -36.1947   25.0820 H   0  0  0  0  0  0
  -20.9938  -28.3236   24.1418 H   0  0  0  0  0  0
  -20.5654  -26.2303   23.3603 H   0  0  0  0  0  0
  -21.6645  -26.7451   22.1206 H   0  0  0  0  0  0
  -19.6929  -25.6288   21.1246 H   0  0  0  0  0  0
  -19.6684  -27.3178   20.6730 H   0  0  0  0  0  0
  -17.4193  -26.6671   21.4004 H   0  0  0  0  0  0
  -18.0324  -26.0073   22.9003 H   0  0  0  0  0  0
  -19.7940  -30.7249   24.2278 H   0  0  0  0  0  0
  -17.5019  -31.6275   24.5143 H   0  0  0  0  0  0
  -15.5354  -30.2970   23.7673 H   0  0  0  0  0  0
  -15.8668  -28.0818   22.7059 H   0  0  0  0  0  0
  -24.6002  -30.6955   25.7791 H   0  0  0  0  0  0
  -24.8805  -32.2853   26.4763 H   0  0  0  0  0  0
  -25.8062  -30.9020   27.0282 H   0  0  0  0  0  0
  -26.2878  -29.6803   24.1137 H   0  0  0  0  0  0
  -27.4031  -29.7240   25.4604 H   0  0  0  0  0  0
  -27.8748  -30.4344   23.9343 H   0  0  0  0  0  0
  -27.2764  -33.3676   26.1984 H   0  0  0  0  0  0
  -28.3958  -32.6708   25.0363 H   0  0  0  0  0  0
  -28.0645  -31.8454   26.5504 H   0  0  0  0  0  0
  -28.2581  -38.0090   24.7532 H   0  0  0  0  0  0
  -28.1059  -36.2626   24.6276 H   0  0  0  0  0  0
  -27.2289  -37.1442   25.8871 H   0  0  0  0  0  0
  -20.9375  -29.8825   21.6954 H   0  0  0  0  0  0
  -26.0160  -38.2875   24.1441 H   0  0  0  0  0  0
  -29.7184  -23.6480   18.8272 H   0  0  0  0  0  0
  -28.4042  -21.0381   21.9547 H   0  0  0  0  0  0
  -27.2764  -22.7586   22.9283 H   0  0  0  0  0  0
  -27.1184  -24.4690   23.2115 H   0  0  0  0  0  0
  -28.7102  -23.7204   23.2847 H   0  0  0  0  0  0
  -26.1252  -22.9317   20.7711 H   0  0  0  0  0  0
  -26.6569  -24.0170   19.5108 H   0  0  0  0  0  0
  -25.9019  -24.6630   20.9831 H   0  0  0  0  0  0
  -29.1607  -19.4369   17.3467 H   0  0  0  0  0  0
  -29.8828  -20.1586   15.9253 H   0  0  0  0  0  0
  -28.6138  -21.0064   16.7966 H   0  0  0  0  0  0
  -31.5333  -19.1862   18.2652 H   0  0  0  0  0  0
  -32.5298  -20.6151   18.5998 H   0  0  0  0  0  0
  -32.2820  -20.0369   16.9611 H   0  0  0  0  0  0
  -30.1935  -22.9657   16.7118 H   0  0  0  0  0  0
  -31.5374  -22.0504   16.0754 H   0  0  0  0  0  0
  -31.7240  -22.9294   17.5818 H   0  0  0  0  0  0
  -31.1377  -20.1882   22.3586 H   0  0  0  0  0  0
  -31.3985  -18.7227   23.2832 H   0  0  0  0  0  0
  -29.7690  -19.3291   23.0530 H   0  0  0  0  0  0
  -32.4092  -19.2610   20.4352 H   0  0  0  0  0  0
  -32.0419  -17.6556   19.7732 H   0  0  0  0  0  0
  -32.7158  -17.8345   21.3783 H   0  0  0  0  0  0
  -28.5744  -18.8204   20.6045 H   0  0  0  0  0  0
  -29.6661  -18.6823   19.3016 H   0  0  0  0  0  0
  -29.3327  -16.9703   22.4066 H   0  0  0  0  0  0
  -30.9971  -16.5359   22.4388 H   0  0  0  0  0  0
  -29.6239  -25.4593   21.3135 H   0  0  0  0  0  0
  -28.1911  -26.0476   22.0422 H   0  0  0  0  0  0
  -28.9086  -15.4874   20.8606 H   0  0  0  0  0  0
  1 25  1  0  0  0
  1 30  2  0  0  0
  1 89  1  0  0  0
  2  3  1  0  0  0
  2 25  1  0  0  0
  2 90  1  0  0  0
  2 91  1  0  0  0
  3  4  1  0  0  0
  3 92  1  0  0  0
  3 93  1  0  0  0
  4  5  1  0  0  0
  4 94  1  0  0  0
  4 95  1  0  0  0
  5  6  1  0  0  0
  5 26  1  0  0  0
  5 96  1  0  0  0
  6 25  1  0  0  0
  6 97  1  0  0  0
  6 98  1  0  0  0
  7  8  2  0  0  0
  7 26  1  0  0  0
  7 29  1  0  0  0
  8  9  1  0  0  0
  8 22  1  0  0  0
  9 10  1  0  0  0
  9 27  2  0  0  0
 10 11  2  0  0  0
 10 15  1  0  0  0
 11 12  1  0  0  0
 11 99  1  0  0  0
 12 13  2  0  0  0
 12100  1  0  0  0
 13 14  1  0  0  0
 13 31  1  0  0  0
 14 15  2  0  0  0
 14101  1  0  0  0
 15102  1  0  0  0
 16 17  2  0  0  0
 16 21  1  0  0  0
 16 31  1  0  0  0
 17 18  1  0  0  0
 17103  1  0  0  0
 18 19  2  0  0  0
 18104  1  0  0  0
 19 20  1  0  0  0
 19 24  1  0  0  0
 20 21  2  0  0  0
 20105  1  0  0  0
 21 23  1  0  0  0
 22 28  1  0  0  0
 22 32  2  0  0  0
 26 27  1  0  0  0
 28106  1  0  0  0
 28107  1  0  0  0
 29108  1  0  0  0
 29109  1  0  0  0
 33 34  1  0  0  0
 33 66  1  0  0  0
 33 70  2  0  0  0
 34 36  1  0  0  0
 34 59  1  0  0  0
 34110  1  0  0  0
 35 44  2  0  0  0
 35 45  1  0  0  0
 35 68  1  0  0  0
 36 56  1  0  0  0
 36111  1  0  0  0
 37 39  1  0  0  0
 37 47  1  0  0  0
 37 66  1  0  0  0
 37112  1  0  0  0
 38 43  2  0  0  0
 38 46  1  0  0  0
 38 47  1  0  0  0
 39 64  1  0  0  0
 39 67  2  0  0  0
 40 52  1  0  0  0
 40 53  2  0  0  0
 40 58  1  0  0  0
 41113  1  0  0  0
 41114  1  0  0  0
 41115  1  0  0  0
 41 48  1  0  0  0
 42 43  1  0  0  0
 42 66  1  0  0  0
 42116  1  0  0  0
 42117  1  0  0  0
 43 44  1  0  0  0
 44118  1  0  0  0
 45 46  2  0  0  0
 45119  1  0  0  0
 46120  1  0  0  0
 47121  1  0  0  0
 47122  1  0  0  0
 48 56  1  0  0  0
 48 65  1  0  0  0
 48123  1  0  0  0
 49 50  1  0  0  0
 49 53  1  0  0  0
 49 64  1  0  0  0
 49124  1  0  0  0
 50 51  1  0  0  0
 50125  1  0  0  0
 50126  1  0  0  0
 51 52  1  0  0  0
 51127  1  0  0  0
 51128  1  0  0  0
 52129  1  0  0  0
 52130  1  0  0  0
 53 54  1  0  0  0
 54 55  2  0  0  0
 54131  1  0  0  0
 55 57  1  0  0  0
 55132  1  0  0  0
 56 69  2  0  0  0
 57 58  2  0  0  0
 57133  1  0  0  0
 58134  1  0  0  0
 59 60  1  0  0  0
 59 61  1  0  0  0
 59 62  1  0  0  0
 60135  1  0  0  0
 60136  1  0  0  0
 60137  1  0  0  0
 61138  1  0  0  0
 61139  1  0  0  0
 61140  1  0  0  0
 62141  1  0  0  0
 62142  1  0  0  0
 62143  1  0  0  0
 63 65  1  0  0  0
 63144  1  0  0  0
 63145  1  0  0  0
 63146  1  0  0  0
 64147  1  0  0  0
 65148  1  0  0  0
 68 84  1  0  0  0
 71 73  1  0  0  0
 71 74  2  0  0  0
 71149  1  0  0  0
 72 73  2  0  0  0
 72 88  1  0  0  0
 72150  1  0  0  0
 73 85  1  0  0  0
 74 86  1  0  0  0
 74 88  1  0  0  0
 75151  1  0  0  0
 75152  1  0  0  0
 75153  1  0  0  0
 75 85  1  0  0  0
 76 85  1  0  0  0
 76154  1  0  0  0
 76155  1  0  0  0
 76156  1  0  0  0
 77157  1  0  0  0
 77158  1  0  0  0
 77159  1  0  0  0
 77 86  1  0  0  0
 78 86  1  0  0  0
 78160  1  0  0  0
 78161  1  0  0  0
 78162  1  0  0  0
 79 86  1  0  0  0
 79163  1  0  0  0
 79164  1  0  0  0
 79165  1  0  0  0
 80166  1  0  0  0
 80167  1  0  0  0
 80168  1  0  0  0
 80 87  1  0  0  0
 81 87  1  0  0  0
 81169  1  0  0  0
 81170  1  0  0  0
 81171  1  0  0  0
 82 87  1  0  0  0
 82 88  1  0  0  0
 82172  1  0  0  0
 82173  1  0  0  0
 83 87  1  0  0  0
 83 89  1  0  0  0
 83174  1  0  0  0
 83175  1  0  0  0
 84 85  1  0  0  0
 84176  1  0  0  0
 84177  1  0  0  0
 89178  1  0  0  0
M  ISO  4   1 100  68 101  84 101  89 100
M  END
> <chiral flag>
0

> <version>
0

> <s_m_source_file>
/data/baiqing/PycharmProjects/Reinvent-master-3.2/result/LINK_invent/BTK/process_docking_weight1_custom_sum_contain_oxygen_bond_distance_aromatic_linkinvent_7_9_3/rearranged_h_0087.sdf

> <i_m_source_file_index>
3

> <r_mmod_Potential_Energy-OPLS-2005>
138.083419799805

> <r_mmod_Stretch_Energy-OPLS-2005>
91.2889709472656

> <r_mmod_Bend_Energy-OPLS-2005>
219.966293334961

> <r_mmod_Torsional_Energy-OPLS-2005>
287.858428955078

> <r_mmod_Improper_Torsional_Energy-OPLS-2005>
7.76692581176758

> <r_mmod_Van_der_Waal_Energy-OPLS-2005>
124.054702758789

> <r_mmod_Electrostatic_Energy-OPLS-2005>
-449.099151611328

> <r_mmod_Solvation_Energy-OPLS-2005>
-190.974914550781

> <b_mmod_Minimization_Converged-OPLS-2005>
0

> <r_mmod_RMS_Derivative-OPLS-2005>
3.0262610912323

$$$$
3
                    3D
 Structure written by MMmdl.
169177  0  0  1  0            999 V2000
  -30.6611  -14.5709   20.4706 C   0  0  0  0  0  0
  -30.4078  -12.3480   19.4481 C   0  0  0  0  0  0
  -29.4894  -12.5068   18.2161 C   0  0  0  0  0  0
  -28.0102  -12.3573   18.6206 C   0  0  0  0  0  0
  -27.6426  -13.2221   19.8547 C   0  0  2  0  0  0
  -28.6860  -13.0908   20.9882 C   0  0  0  0  0  0
  -25.2509  -13.8211   20.5644 C   0  0  0  0  0  0
  -24.1817  -13.0449   20.9250 C   0  0  0  0  0  0
  -24.6393  -11.6932   20.8792 C   0  0  0  0  0  0
  -23.9070  -10.4295   21.0438 C   0  0  0  0  0  0
  -24.3622   -9.4197   21.9199 C   0  0  0  0  0  0
  -23.6299   -8.2226   22.0745 C   0  0  0  0  0  0
  -22.4280   -8.0283   21.3536 C   0  0  0  0  0  0
  -21.9929   -9.0251   20.4640 C   0  0  0  0  0  0
  -22.7251  -10.2134   20.3073 C   0  0  0  0  0  0
  -21.6850   -6.0750   22.5283 C   0  0  0  0  0  0
  -21.4021   -6.5653   23.8222 C   0  0  0  0  0  0
  -21.3653   -5.6805   24.9177 C   0  0  0  0  0  0
  -21.6038   -4.3065   24.7227 C   0  0  0  0  0  0
  -21.8813   -3.8164   23.4348 C   0  0  0  0  0  0
  -21.9182   -4.6983   22.3413 C   0  0  0  0  0  0
  -22.7838  -13.5240   21.1883 C   0  0  0  0  0  0
  -22.1652   -4.2168   21.0987 F   0  0  0  0  0  0
  -21.5620   -3.4551   25.7740 F   0  0  0  0  0  0
  -30.0073  -13.3783   20.4209 N   0  0  0  0  0  0
  -26.2923  -12.9392   20.3270 N   0  0  0  0  0  0
  -25.9309  -11.6538   20.5769 N   0  0  0  0  0  0
  -22.0465  -12.8211   22.0422 N   0  0  0  0  0  0
  -25.4185  -15.1912   20.3847 N   0  0  0  0  0  0
  -31.8565  -14.6661   20.1827 O   0  0  0  0  0  0
  -21.6631   -6.8887   21.4245 O   0  0  0  0  0  0
  -22.3532  -14.5532   20.6718 O   0  0  0  0  0  0
  -24.6210  -31.8601   23.2046 C   0  0  0  0  0  0
  -25.9081  -32.4771   23.8344 C   0  0  1  0  0  0
  -27.2380  -27.3843   20.0943 C   0  0  0  0  0  0
  -25.5924  -33.8574   24.2261 N   0  0  0  0  0  0
  -23.4092  -30.4856   21.5429 C   0  0  2  0  0  0
  -24.8556  -28.9363   20.1157 C   0  0  0  0  0  0
  -22.7376  -29.4652   22.4902 C   0  0  0  0  0  0
  -18.0249  -28.1343   22.8436 C   0  0  0  0  0  0
  -24.1490  -36.7303   23.2627 C   0  0  0  0  0  0
  -25.9414  -30.8091   21.3639 C   0  0  0  0  0  0
  -26.0170  -29.4392   20.7121 C   0  0  0  0  0  0
  -27.2063  -28.6711   20.6958 C   0  0  0  0  0  0
  -26.0497  -26.8986   19.5076 C   0  0  0  0  0  0
  -24.8683  -27.6654   19.5138 C   0  0  0  0  0  0
  -23.6251  -29.8154   20.1585 C   0  0  0  0  0  0
  -25.4111  -36.3072   24.0313 C   0  0  1  0  0  0
  -20.5837  -28.3682   23.1226 C   0  0  2  0  0  0
  -20.6769  -26.9416   22.5367 C   0  0  0  0  0  0
  -19.5776  -26.6378   21.5135 C   0  0  0  0  0  0
  -18.1934  -26.7879   22.1544 C   0  0  0  0  0  0
  -19.1498  -28.8808   23.2835 C   0  0  0  0  0  0
  -18.9460  -30.1392   23.8884 C   0  0  0  0  0  0
  -17.6493  -30.6574   24.0544 C   0  0  0  0  0  0
  -25.9060  -34.9452   23.5087 C   0  0  0  0  0  0
  -16.5371  -29.9099   23.6319 C   0  0  0  0  0  0
  -16.7245  -28.6500   23.0341 C   0  0  0  0  0  0
  -26.4519  -31.6560   25.0679 C   0  0  0  0  0  0
  -25.3790  -31.3670   26.1429 C   0  0  0  0  0  0
  -27.0392  -30.3013   24.6089 C   0  0  0  0  0  0
  -27.6090  -32.4282   25.7447 C   0  0  0  0  0  0
  -27.5580  -37.1776   24.8445 C   0  0  0  0  0  0
  -21.4089  -29.3067   22.3637 N   0  0  0  0  0  0
  -26.4262  -37.3790   23.9438 N   0  0  0  0  0  0
  -24.6756  -31.0655   22.0970 N   0  0  0  0  0  0
  -23.4092  -28.8167   23.2976 O   0  0  0  0  0  0
  -28.4272  -26.6678   20.1166 O   0  0  0  0  0  0
  -26.5626  -34.8917   22.4651 O   0  0  0  0  0  0
  -23.5394  -32.1382   23.7428 O   0  0  0  0  0  0
  -29.6015  -19.5475   19.8338 C   0  0  0  0  0  0
  -29.3565  -18.2272   20.1699 C   0  0  0  0  0  0
  -27.5118  -19.4651   20.5518 C   0  0  0  0  0  0
  -30.4719  -16.8899   18.4235 C   0  0  0  0  0  0
  -25.5444  -19.1093   22.1377 C   0  0  0  0  0  0
  -25.1526  -19.5304   19.6761 C   0  0  0  0  0  0
  -28.4905  -25.1137   18.1643 C   0  0  0  0  0  0
  -28.5220  -22.7892   20.6696 C   0  0  0  0  0  0
  -27.8348  -24.1960   20.5222 C   0  0  0  0  0  0
  -28.2139  -21.7022   19.5963 C   0  0  0  0  0  0
  -30.2612  -17.0064   19.9530 C   0  0  2  0  0  0
  -26.0765  -19.8117   20.8733 C   0  0  0  0  0  0
  -28.5858  -25.2855   19.6889 C   0  0  2  0  0  0
  -28.4472  -20.2761   20.0143 N   0  0  0  0  0  0
  -28.0578  -18.2340   20.6308 N   0  3  0  0  0  0
  -29.8743  -15.6814   20.5246 N   0  0  0  0  0  0
  -31.4558  -12.4334   19.1551 H   0  0  0  0  0  0
  -30.2959  -11.3575   19.8888 H   0  0  0  0  0  0
  -29.7445  -11.7734   17.4513 H   0  0  0  0  0  0
  -29.6412  -13.4878   17.7624 H   0  0  0  0  0  0
  -27.8240  -11.3031   18.8292 H   0  0  0  0  0  0
  -27.3652  -12.6180   17.7805 H   0  0  0  0  0  0
  -27.6563  -14.2559   19.5082 H   0  0  0  0  0  0
  -28.6731  -12.0855   21.4104 H   0  0  0  0  0  0
  -28.4521  -13.7711   21.8102 H   0  0  0  0  0  0
  -25.2749   -9.5655   22.4789 H   0  0  0  0  0  0
  -24.0006   -7.4597   22.7445 H   0  0  0  0  0  0
  -21.0870   -8.8766   19.8926 H   0  0  0  0  0  0
  -22.3710  -10.9686   19.6197 H   0  0  0  0  0  0
  -21.2035   -7.6159   23.9734 H   0  0  0  0  0  0
  -21.1478   -6.0534   25.9077 H   0  0  0  0  0  0
  -22.0597   -2.7629   23.2851 H   0  0  0  0  0  0
  -22.4104  -11.9897   22.4841 H   0  0  0  0  0  0
  -21.1062  -13.1193   22.2593 H   0  0  0  0  0  0
  -24.5606  -15.7337   20.3522 H   0  0  0  0  0  0
  -26.0704  -15.4793   19.6672 H   0  0  0  0  0  0
  -26.7124  -32.5482   23.1080 H   0  0  0  0  0  0
  -25.0082  -33.9751   25.0404 H   0  0  0  0  0  0
  -22.7056  -31.3068   21.3924 H   0  0  0  0  0  0
  -23.3759  -35.9621   23.3248 H   0  0  0  0  0  0
  -24.3599  -36.9018   22.2061 H   0  0  0  0  0  0
  -23.7245  -37.6489   23.6696 H   0  0  0  0  0  0
  -26.0528  -31.5694   20.5902 H   0  0  0  0  0  0
  -26.8297  -30.8684   21.9806 H   0  0  0  0  0  0
  -28.1054  -29.0568   21.1571 H   0  0  0  0  0  0
  -26.0144  -25.9255   19.0484 H   0  0  0  0  0  0
  -23.9754  -27.2651   19.0565 H   0  0  0  0  0  0
  -23.7527  -30.5931   19.4037 H   0  0  0  0  0  0
  -22.7468  -29.2474   19.8494 H   0  0  0  0  0  0
  -25.1277  -36.1917   25.0801 H   0  0  0  0  0  0
  -20.9896  -28.3312   24.1358 H   0  0  0  0  0  0
  -20.5627  -26.2317   23.3577 H   0  0  0  0  0  0
  -21.6661  -26.7450   22.1206 H   0  0  0  0  0  0
  -19.7010  -25.6283   21.1206 H   0  0  0  0  0  0
  -19.6747  -27.3151   20.6632 H   0  0  0  0  0  0
  -17.4205  -26.6539   21.3969 H   0  0  0  0  0  0
  -18.0416  -25.9970   22.8906 H   0  0  0  0  0  0
  -19.7975  -30.7144   24.2279 H   0  0  0  0  0  0
  -17.5111  -31.6264   24.5132 H   0  0  0  0  0  0
  -15.5403  -30.3068   23.7634 H   0  0  0  0  0  0
  -15.8602  -28.0871   22.7069 H   0  0  0  0  0  0
  -24.5953  -30.7025   25.7782 H   0  0  0  0  0  0
  -24.8975  -32.2820   26.4882 H   0  0  0  0  0  0
  -25.8146  -30.8841   27.0179 H   0  0  0  0  0  0
  -26.2948  -29.6697   24.1226 H   0  0  0  0  0  0
  -27.4290  -29.7334   25.4553 H   0  0  0  0  0  0
  -27.8705  -30.4362   23.9159 H   0  0  0  0  0  0
  -27.2701  -33.3561   26.2055 H   0  0  0  0  0  0
  -28.3873  -32.6879   25.0256 H   0  0  0  0  0  0
  -28.0751  -31.8365   26.5341 H   0  0  0  0  0  0
  -28.2512  -38.0152   24.7597 H   0  0  0  0  0  0
  -28.1155  -36.2696   24.6113 H   0  0  0  0  0  0
  -27.2307  -37.1243   25.8840 H   0  0  0  0  0  0
  -20.9240  -29.8857   21.6912 H   0  0  0  0  0  0
  -26.0140  -38.2837   24.1557 H   0  0  0  0  0  0
  -30.4876  -19.9983   19.4084 H   0  0  0  0  0  0
  -30.9155  -17.7996   18.0166 H   0  0  0  0  0  0
  -29.5296  -16.7254   17.9001 H   0  0  0  0  0  0
  -31.1435  -16.0784   18.1478 H   0  0  0  0  0  0
  -26.1665  -19.3191   23.0079 H   0  0  0  0  0  0
  -25.4843  -18.0279   22.0145 H   0  0  0  0  0  0
  -24.5384  -19.4576   22.3734 H   0  0  0  0  0  0
  -25.4861  -20.0479   18.7753 H   0  0  0  0  0  0
  -24.1342  -19.8606   19.8812 H   0  0  0  0  0  0
  -25.1105  -18.4640   19.4520 H   0  0  0  0  0  0
  -29.0331  -24.2196   17.8562 H   0  0  0  0  0  0
  -28.9496  -25.9588   17.6510 H   0  0  0  0  0  0
  -27.4699  -25.0111   17.7977 H   0  0  0  0  0  0
  -28.2092  -22.3872   21.6338 H   0  0  0  0  0  0
  -29.6036  -22.9165   20.7470 H   0  0  0  0  0  0
  -27.7490  -24.5967   21.5345 H   0  0  0  0  0  0
  -26.8038  -24.0796   20.1872 H   0  0  0  0  0  0
  -28.8243  -21.8877   18.7119 H   0  0  0  0  0  0
  -27.1852  -21.7859   19.2487 H   0  0  0  0  0  0
  -31.2257  -17.2672   20.3929 H   0  0  0  0  0  0
  -26.0656  -20.8831   21.0789 H   0  0  0  0  0  0
  -29.6416  -25.1240   19.9115 H   0  0  0  0  0  0
  -27.5469  -17.4222   20.9554 H   0  0  0  0  0  0
  -28.9173  -15.5409   20.7989 H   0  0  0  0  0  0
  1 25  1  0  0  0
  1 30  2  0  0  0
  1 86  1  0  0  0
  2  3  1  0  0  0
  2 25  1  0  0  0
  2 87  1  0  0  0
  2 88  1  0  0  0
  3  4  1  0  0  0
  3 89  1  0  0  0
  3 90  1  0  0  0
  4  5  1  0  0  0
  4 91  1  0  0  0
  4 92  1  0  0  0
  5  6  1  0  0  0
  5 26  1  0  0  0
  5 93  1  0  0  0
  6 25  1  0  0  0
  6 94  1  0  0  0
  6 95  1  0  0  0
  7  8  2  0  0  0
  7 26  1  0  0  0
  7 29  1  0  0  0
  8  9  1  0  0  0
  8 22  1  0  0  0
  9 10  1  0  0  0
  9 27  2  0  0  0
 10 11  2  0  0  0
 10 15  1  0  0  0
 11 12  1  0  0  0
 11 96  1  0  0  0
 12 13  2  0  0  0
 12 97  1  0  0  0
 13 14  1  0  0  0
 13 31  1  0  0  0
 14 15  2  0  0  0
 14 98  1  0  0  0
 15 99  1  0  0  0
 16 17  2  0  0  0
 16 21  1  0  0  0
 16 31  1  0  0  0
 17 18  1  0  0  0
 17100  1  0  0  0
 18 19  2  0  0  0
 18101  1  0  0  0
 19 20  1  0  0  0
 19 24  1  0  0  0
 20 21  2  0  0  0
 20102  1  0  0  0
 21 23  1  0  0  0
 22 28  1  0  0  0
 22 32  2  0  0  0
 26 27  1  0  0  0
 28103  1  0  0  0
 28104  1  0  0  0
 29105  1  0  0  0
 29106  1  0  0  0
 33 34  1  0  0  0
 33 66  1  0  0  0
 33 70  2  0  0  0
 34 36  1  0  0  0
 34 59  1  0  0  0
 34107  1  0  0  0
 35 44  2  0  0  0
 35 45  1  0  0  0
 35 68  1  0  0  0
 36 56  1  0  0  0
 36108  1  0  0  0
 37 39  1  0  0  0
 37 47  1  0  0  0
 37 66  1  0  0  0
 37109  1  0  0  0
 38 43  2  0  0  0
 38 46  1  0  0  0
 38 47  1  0  0  0
 39 64  1  0  0  0
 39 67  2  0  0  0
 40 52  1  0  0  0
 40 53  2  0  0  0
 40 58  1  0  0  0
 41110  1  0  0  0
 41111  1  0  0  0
 41112  1  0  0  0
 41 48  1  0  0  0
 42 43  1  0  0  0
 42 66  1  0  0  0
 42113  1  0  0  0
 42114  1  0  0  0
 43 44  1  0  0  0
 44115  1  0  0  0
 45 46  2  0  0  0
 45116  1  0  0  0
 46117  1  0  0  0
 47118  1  0  0  0
 47119  1  0  0  0
 48 56  1  0  0  0
 48 65  1  0  0  0
 48120  1  0  0  0
 49 50  1  0  0  0
 49 53  1  0  0  0
 49 64  1  0  0  0
 49121  1  0  0  0
 50 51  1  0  0  0
 50122  1  0  0  0
 50123  1  0  0  0
 51 52  1  0  0  0
 51124  1  0  0  0
 51125  1  0  0  0
 52126  1  0  0  0
 52127  1  0  0  0
 53 54  1  0  0  0
 54 55  2  0  0  0
 54128  1  0  0  0
 55 57  1  0  0  0
 55129  1  0  0  0
 56 69  2  0  0  0
 57 58  2  0  0  0
 57130  1  0  0  0
 58131  1  0  0  0
 59 60  1  0  0  0
 59 61  1  0  0  0
 59 62  1  0  0  0
 60132  1  0  0  0
 60133  1  0  0  0
 60134  1  0  0  0
 61135  1  0  0  0
 61136  1  0  0  0
 61137  1  0  0  0
 62138  1  0  0  0
 62139  1  0  0  0
 62140  1  0  0  0
 63 65  1  0  0  0
 63141  1  0  0  0
 63142  1  0  0  0
 63143  1  0  0  0
 64144  1  0  0  0
 65145  1  0  0  0
 68 83  1  0  0  0
 71 72  2  0  0  0
 71 84  1  0  0  0
 71146  1  0  0  0
 72 81  1  0  0  0
 72 85  1  0  0  0
 73 82  1  0  0  0
 73 84  1  0  0  0
 73 85  2  0  0  0
 74147  1  0  0  0
 74148  1  0  0  0
 74149  1  0  0  0
 74 81  1  0  0  0
 75150  1  0  0  0
 75151  1  0  0  0
 75152  1  0  0  0
 75 82  1  0  0  0
 76 82  1  0  0  0
 76153  1  0  0  0
 76154  1  0  0  0
 76155  1  0  0  0
 77156  1  0  0  0
 77157  1  0  0  0
 77158  1  0  0  0
 77 83  1  0  0  0
 78 79  1  0  0  0
 78 80  1  0  0  0
 78159  1  0  0  0
 78160  1  0  0  0
 79 83  1  0  0  0
 79161  1  0  0  0
 79162  1  0  0  0
 80 84  1  0  0  0
 80163  1  0  0  0
 80164  1  0  0  0
 81 86  1  0  0  0
 81165  1  0  0  0
 82166  1  0  0  0
 83167  1  0  0  0
 85168  1  0  0  0
 86169  1  0  0  0
M  CHG  1  85   1
M  ISO  4   1 100  68 101  83 101  86 100
M  END
> <chiral flag>
0

> <version>
0

> <s_m_source_file>
/data/baiqing/PycharmProjects/Reinvent-master-3.2/result/LINK_invent/BTK/process_docking_weight1_custom_sum_contain_oxygen_bond_distance_aromatic_linkinvent_7_9_3/rearranged_h_0087.sdf

> <i_m_source_file_index>
4

> <r_mmod_Potential_Energy-OPLS-2005>
-120.250770568848

> <r_mmod_Stretch_Energy-OPLS-2005>
50.8077201843262

> <r_mmod_Bend_Energy-OPLS-2005>
136.693237304688

> <r_mmod_Torsional_Energy-OPLS-2005>
249.685531616211

> <r_mmod_Improper_Torsional_Energy-OPLS-2005>
14.007248878479

> <r_mmod_Van_der_Waal_Energy-OPLS-2005>
111.466758728027

> <r_mmod_Electrostatic_Energy-OPLS-2005>
-303.562194824219

> <r_mmod_Solvation_Energy-OPLS-2005>
-409.501129150391

> <b_mmod_Minimization_Converged-OPLS-2005>
0

> <r_mmod_RMS_Derivative-OPLS-2005>
3.84560060501099

$$$$
4
                    3D
 Structure written by MMmdl.
173181  0  0  1  0            999 V2000
  -30.6088  -14.7603   20.4408 C   0  0  0  0  0  0
  -30.4452  -12.4735   19.4597 C   0  0  0  0  0  0
  -29.5136  -12.4777   18.2274 C   0  0  0  0  0  0
  -28.0409  -12.2940   18.6549 C   0  0  0  0  0  0
  -27.6356  -13.2307   19.8211 C   0  0  2  0  0  0
  -28.6796  -13.2131   20.9570 C   0  0  0  0  0  0
  -25.2524  -13.8211   20.5701 C   0  0  0  0  0  0
  -24.1823  -13.0511   20.9222 C   0  0  0  0  0  0
  -24.6394  -11.6952   20.8755 C   0  0  0  0  0  0
  -23.9084  -10.4337   21.0438 C   0  0  0  0  0  0
  -24.3614   -9.4231   21.9208 C   0  0  0  0  0  0
  -23.6275   -8.2277   22.0769 C   0  0  0  0  0  0
  -22.4234   -8.0327   21.3583 C   0  0  0  0  0  0
  -21.9893   -9.0307   20.4670 C   0  0  0  0  0  0
  -22.7250  -10.2154   20.3115 C   0  0  0  0  0  0
  -21.6847   -6.0732   22.5281 C   0  0  0  0  0  0
  -21.4011   -6.5629   23.8218 C   0  0  0  0  0  0
  -21.3653   -5.6777   24.9191 C   0  0  0  0  0  0
  -21.6064   -4.3066   24.7219 C   0  0  0  0  0  0
  -21.8833   -3.8163   23.4355 C   0  0  0  0  0  0
  -21.9188   -4.6966   22.3396 C   0  0  0  0  0  0
  -22.7854  -13.5306   21.1931 C   0  0  0  0  0  0
  -22.1684   -4.2199   21.0959 F   0  0  0  0  0  0
  -21.5639   -3.4519   25.7723 F   0  0  0  0  0  0
  -29.9763  -13.5434   20.3621 N   0  0  0  0  0  0
  -26.2890  -12.9426   20.3095 N   0  0  0  0  0  0
  -25.9289  -11.6563   20.5558 N   0  0  0  0  0  0
  -22.0444  -12.8275   22.0383 N   0  0  0  0  0  0
  -25.4277  -15.1942   20.4303 N   0  0  0  0  0  0
  -31.8100  -14.8427   20.1888 O   0  0  0  0  0  0
  -21.6622   -6.8889   21.4269 O   0  0  0  0  0  0
  -22.3525  -14.5577   20.6714 O   0  0  0  0  0  0
  -24.6333  -31.8607   23.2025 C   0  0  0  0  0  0
  -25.9219  -32.4751   23.8337 C   0  0  1  0  0  0
  -27.1824  -27.2763   20.1213 C   0  0  0  0  0  0
  -25.6050  -33.8564   24.2279 N   0  0  0  0  0  0
  -23.4202  -30.4953   21.5460 C   0  0  2  0  0  0
  -24.8547  -28.9416   20.1045 C   0  0  0  0  0  0
  -22.7467  -29.4750   22.4928 C   0  0  0  0  0  0
  -18.0396  -28.1298   22.8458 C   0  0  0  0  0  0
  -24.1501  -36.7283   23.2621 C   0  0  0  0  0  0
  -25.9674  -30.7740   21.3796 C   0  0  0  0  0  0
  -26.0310  -29.4028   20.7133 C   0  0  0  0  0  0
  -27.2043  -28.5830   20.7097 C   0  0  0  0  0  0
  -25.9978  -26.8910   19.4599 C   0  0  0  0  0  0
  -24.8432  -27.6909   19.4729 C   0  0  0  0  0  0
  -23.6305  -29.8329   20.1602 C   0  0  0  0  0  0
  -25.4127  -36.3064   24.0339 C   0  0  1  0  0  0
  -20.5954  -28.3776   23.1270 C   0  0  2  0  0  0
  -20.6903  -26.9488   22.5450 C   0  0  0  0  0  0
  -19.5950  -26.6449   21.5171 C   0  0  0  0  0  0
  -18.2120  -26.7860   22.1561 C   0  0  0  0  0  0
  -19.1586  -28.8839   23.2869 C   0  0  0  0  0  0
  -18.9440  -30.1439   23.8870 C   0  0  0  0  0  0
  -17.6406  -30.6522   24.0470 C   0  0  0  0  0  0
  -25.9089  -34.9461   23.5085 C   0  0  0  0  0  0
  -16.5371  -29.8938   23.6221 C   0  0  0  0  0  0
  -16.7359  -28.6356   23.0271 C   0  0  0  0  0  0
  -26.4563  -31.6575   25.0724 C   0  0  0  0  0  0
  -25.3781  -31.3795   26.1438 C   0  0  0  0  0  0
  -27.0413  -30.2990   24.6253 C   0  0  0  0  0  0
  -27.6145  -32.4293   25.7427 C   0  0  0  0  0  0
  -27.5604  -37.1768   24.8468 C   0  0  0  0  0  0
  -21.4186  -29.3206   22.3706 N   0  0  0  0  0  0
  -26.4286  -37.3787   23.9407 N   0  0  0  0  0  0
  -24.6947  -31.0628   22.0986 N   0  0  0  0  0  0
  -23.4189  -28.8302   23.3009 O   0  0  0  0  0  0
  -28.2430  -26.3564   20.1656 O   0  0  0  0  0  0
  -26.5632  -34.8922   22.4619 O   0  0  0  0  0  0
  -23.5531  -32.1503   23.7352 O   0  0  0  0  0  0
  -30.7236  -22.2191   21.4062 C   0  0  0  0  0  0
  -29.8081  -21.4006   20.7155 C   0  0  0  0  0  0
  -32.0964  -21.9420   21.3425 C   0  0  0  0  0  0
  -30.2958  -20.0489   20.4003 C   0  0  0  0  0  0
  -32.4636  -20.9199   20.4425 C   0  0  0  0  0  0
  -32.6362  -22.9916   23.6298 C   0  0  0  0  0  0
  -34.6960  -19.8750   19.9235 C   0  0  0  0  0  0
  -34.3684  -22.3274   19.4231 C   0  0  0  0  0  0
  -33.2250  -20.6746   18.0280 C   0  0  0  0  0  0
  -33.1021  -22.7174   22.1918 C   0  0  0  0  0  0
  -28.4779  -22.1613   20.3633 C   0  0  0  0  0  0
  -29.6211  -18.6430   20.0973 C   0  0  0  0  0  0
  -28.6168  -23.6994   19.8229 C   0  0  0  0  0  0
  -30.2850  -17.3431   20.8410 C   0  0  0  0  0  0
  -27.9317  -24.9463   20.5709 C   0  0  0  0  0  0
  -33.6866  -20.9434   19.4935 C   0  0  0  0  0  0
  -31.6168  -19.9039   20.2066 N   0  0  0  0  0  0
  -29.8355  -15.8989   20.5988 N   0  0  0  0  0  0
  -31.4890  -12.6161   19.1633 H   0  0  0  0  0  0
  -30.4093  -11.5118   19.9681 H   0  0  0  0  0  0
  -29.8017  -11.6927   17.5247 H   0  0  0  0  0  0
  -29.6230  -13.4246   17.6963 H   0  0  0  0  0  0
  -27.9246  -11.2492   18.9582 H   0  0  0  0  0  0
  -27.3823  -12.4421   17.7971 H   0  0  0  0  0  0
  -27.6185  -14.2300   19.3873 H   0  0  0  0  0  0
  -28.7163  -12.2383   21.4331 H   0  0  0  0  0  0
  -28.4107  -13.9327   21.7361 H   0  0  0  0  0  0
  -25.2781   -9.5675   22.4726 H   0  0  0  0  0  0
  -24.0006   -7.4643   22.7458 H   0  0  0  0  0  0
  -21.0848   -8.8789   19.8931 H   0  0  0  0  0  0
  -22.3746  -10.9651   19.6177 H   0  0  0  0  0  0
  -21.1990   -7.6115   23.9740 H   0  0  0  0  0  0
  -21.1449   -6.0497   25.9078 H   0  0  0  0  0  0
  -22.0590   -2.7634   23.2812 H   0  0  0  0  0  0
  -22.4056  -11.9903   22.4755 H   0  0  0  0  0  0
  -21.1063  -13.1278   22.2611 H   0  0  0  0  0  0
  -24.6820  -15.8514   20.6198 H   0  0  0  0  0  0
  -26.2522  -15.6241   20.0359 H   0  0  0  0  0  0
  -26.7232  -32.5358   23.1021 H   0  0  0  0  0  0
  -25.0190  -33.9645   25.0427 H   0  0  0  0  0  0
  -22.7283  -31.3280   21.4044 H   0  0  0  0  0  0
  -23.3759  -35.9614   23.3269 H   0  0  0  0  0  0
  -24.3609  -36.8907   22.2040 H   0  0  0  0  0  0
  -23.7251  -37.6477   23.6655 H   0  0  0  0  0  0
  -26.1192  -31.5486   20.6234 H   0  0  0  0  0  0
  -26.8414  -30.8092   22.0209 H   0  0  0  0  0  0
  -28.0987  -28.9328   21.2055 H   0  0  0  0  0  0
  -25.9388  -25.9357   18.9597 H   0  0  0  0  0  0
  -23.9383  -27.3295   19.0012 H   0  0  0  0  0  0
  -23.7780  -30.6179   19.4179 H   0  0  0  0  0  0
  -22.7403  -29.2885   19.8329 H   0  0  0  0  0  0
  -25.1278  -36.1892   25.0846 H   0  0  0  0  0  0
  -21.0085  -28.3351   24.1366 H   0  0  0  0  0  0
  -20.5773  -26.2412   23.3681 H   0  0  0  0  0  0
  -21.6821  -26.7598   22.1339 H   0  0  0  0  0  0
  -19.7279  -25.6433   21.1069 H   0  0  0  0  0  0
  -19.6841  -27.3327   20.6782 H   0  0  0  0  0  0
  -17.4429  -26.6606   21.3917 H   0  0  0  0  0  0
  -18.0635  -25.9943   22.8922 H   0  0  0  0  0  0
  -19.7890  -30.7306   24.2208 H   0  0  0  0  0  0
  -17.4896  -31.6179   24.5045 H   0  0  0  0  0  0
  -15.5333  -30.2780   23.7454 H   0  0  0  0  0  0
  -15.8816  -28.0628   22.6981 H   0  0  0  0  0  0
  -24.5927  -30.7166   25.7771 H   0  0  0  0  0  0
  -24.9012  -32.3017   26.4796 H   0  0  0  0  0  0
  -25.8101  -30.9004   27.0232 H   0  0  0  0  0  0
  -26.3046  -29.6634   24.1338 H   0  0  0  0  0  0
  -27.4135  -29.7339   25.4789 H   0  0  0  0  0  0
  -27.8891  -30.4179   23.9502 H   0  0  0  0  0  0
  -27.2802  -33.3566   26.2061 H   0  0  0  0  0  0
  -28.3915  -32.6879   25.0227 H   0  0  0  0  0  0
  -28.0883  -31.8397   26.5261 H   0  0  0  0  0  0
  -28.2614  -38.0059   24.7521 H   0  0  0  0  0  0
  -28.1095  -36.2611   24.6272 H   0  0  0  0  0  0
  -27.2348  -37.1426   25.8868 H   0  0  0  0  0  0
  -20.9364  -29.8991   21.6969 H   0  0  0  0  0  0
  -26.0180  -38.2852   24.1405 H   0  0  0  0  0  0
  -30.3790  -23.1213   21.8960 H   0  0  0  0  0  0
  -33.4467  -23.3967   24.2373 H   0  0  0  0  0  0
  -32.2842  -22.0886   24.1300 H   0  0  0  0  0  0
  -31.8354  -23.7272   23.6770 H   0  0  0  0  0  0
  -35.6024  -19.9041   19.3167 H   0  0  0  0  0  0
  -34.2582  -18.8831   19.8272 H   0  0  0  0  0  0
  -34.9795  -20.0181   20.9678 H   0  0  0  0  0  0
  -34.9802  -22.5268   20.2995 H   0  0  0  0  0  0
  -33.6175  -23.1136   19.3253 H   0  0  0  0  0  0
  -35.0243  -22.4182   18.5552 H   0  0  0  0  0  0
  -34.0758  -20.5432   17.3559 H   0  0  0  0  0  0
  -32.6164  -21.4982   17.6487 H   0  0  0  0  0  0
  -32.6118  -19.7820   17.9124 H   0  0  0  0  0  0
  -33.3826  -23.6522   21.7118 H   0  0  0  0  0  0
  -34.0003  -22.1050   22.2620 H   0  0  0  0  0  0
  -27.8421  -22.1460   21.2498 H   0  0  0  0  0  0
  -27.9555  -21.5786   19.6048 H   0  0  0  0  0  0
  -29.7276  -18.4967   19.0198 H   0  0  0  0  0  0
  -28.5569  -18.7166   20.3061 H   0  0  0  0  0  0
  -28.1665  -23.6953   18.8283 H   0  0  0  0  0  0
  -29.6625  -23.9342   19.6328 H   0  0  0  0  0  0
  -30.1267  -17.5008   21.9059 H   0  0  0  0  0  0
  -31.3761  -17.3600   20.7071 H   0  0  0  0  0  0
  -28.1668  -24.8933   21.6299 H   0  0  0  0  0  0
  -26.8586  -24.7535   20.5479 H   0  0  0  0  0  0
  -28.8405  -15.7344   20.6596 H   0  0  0  0  0  0
  1 25  1  0  0  0
  1 30  2  0  0  0
  1 88  1  0  0  0
  2  3  1  0  0  0
  2 25  1  0  0  0
  2 89  1  0  0  0
  2 90  1  0  0  0
  3  4  1  0  0  0
  3 91  1  0  0  0
  3 92  1  0  0  0
  4  5  1  0  0  0
  4 93  1  0  0  0
  4 94  1  0  0  0
  5  6  1  0  0  0
  5 26  1  0  0  0
  5 95  1  0  0  0
  6 25  1  0  0  0
  6 96  1  0  0  0
  6 97  1  0  0  0
  7  8  2  0  0  0
  7 26  1  0  0  0
  7 29  1  0  0  0
  8  9  1  0  0  0
  8 22  1  0  0  0
  9 10  1  0  0  0
  9 27  2  0  0  0
 10 11  2  0  0  0
 10 15  1  0  0  0
 11 12  1  0  0  0
 11 98  1  0  0  0
 12 13  2  0  0  0
 12 99  1  0  0  0
 13 14  1  0  0  0
 13 31  1  0  0  0
 14 15  2  0  0  0
 14100  1  0  0  0
 15101  1  0  0  0
 16 17  2  0  0  0
 16 21  1  0  0  0
 16 31  1  0  0  0
 17 18  1  0  0  0
 17102  1  0  0  0
 18 19  2  0  0  0
 18103  1  0  0  0
 19 20  1  0  0  0
 19 24  1  0  0  0
 20 21  2  0  0  0
 20104  1  0  0  0
 21 23  1  0  0  0
 22 28  1  0  0  0
 22 32  2  0  0  0
 26 27  1  0  0  0
 28105  1  0  0  0
 28106  1  0  0  0
 29107  1  0  0  0
 29108  1  0  0  0
 33 34  1  0  0  0
 33 66  1  0  0  0
 33 70  2  0  0  0
 34 36  1  0  0  0
 34 59  1  0  0  0
 34109  1  0  0  0
 35 44  2  0  0  0
 35 45  1  0  0  0
 35 68  1  0  0  0
 36 56  1  0  0  0
 36110  1  0  0  0
 37 39  1  0  0  0
 37 47  1  0  0  0
 37 66  1  0  0  0
 37111  1  0  0  0
 38 43  2  0  0  0
 38 46  1  0  0  0
 38 47  1  0  0  0
 39 64  1  0  0  0
 39 67  2  0  0  0
 40 52  1  0  0  0
 40 53  2  0  0  0
 40 58  1  0  0  0
 41112  1  0  0  0
 41113  1  0  0  0
 41114  1  0  0  0
 41 48  1  0  0  0
 42 43  1  0  0  0
 42 66  1  0  0  0
 42115  1  0  0  0
 42116  1  0  0  0
 43 44  1  0  0  0
 44117  1  0  0  0
 45 46  2  0  0  0
 45118  1  0  0  0
 46119  1  0  0  0
 47120  1  0  0  0
 47121  1  0  0  0
 48 56  1  0  0  0
 48 65  1  0  0  0
 48122  1  0  0  0
 49 50  1  0  0  0
 49 53  1  0  0  0
 49 64  1  0  0  0
 49123  1  0  0  0
 50 51  1  0  0  0
 50124  1  0  0  0
 50125  1  0  0  0
 51 52  1  0  0  0
 51126  1  0  0  0
 51127  1  0  0  0
 52128  1  0  0  0
 52129  1  0  0  0
 53 54  1  0  0  0
 54 55  2  0  0  0
 54130  1  0  0  0
 55 57  1  0  0  0
 55131  1  0  0  0
 56 69  2  0  0  0
 57 58  2  0  0  0
 57132  1  0  0  0
 58133  1  0  0  0
 59 60  1  0  0  0
 59 61  1  0  0  0
 59 62  1  0  0  0
 60134  1  0  0  0
 60135  1  0  0  0
 60136  1  0  0  0
 61137  1  0  0  0
 61138  1  0  0  0
 61139  1  0  0  0
 62140  1  0  0  0
 62141  1  0  0  0
 62142  1  0  0  0
 63 65  1  0  0  0
 63143  1  0  0  0
 63144  1  0  0  0
 63145  1  0  0  0
 64146  1  0  0  0
 65147  1  0  0  0
 68 85  1  0  0  0
 71 72  2  0  0  0
 71 73  1  0  0  0
 71148  1  0  0  0
 72 74  1  0  0  0
 72 81  1  0  0  0
 73 75  2  0  0  0
 73 80  1  0  0  0
 74 82  1  0  0  0
 74 87  2  0  0  0
 75 86  1  0  0  0
 75 87  1  0  0  0
 76 80  1  0  0  0
 76149  1  0  0  0
 76150  1  0  0  0
 76151  1  0  0  0
 77152  1  0  0  0
 77153  1  0  0  0
 77154  1  0  0  0
 77 86  1  0  0  0
 78 86  1  0  0  0
 78155  1  0  0  0
 78156  1  0  0  0
 78157  1  0  0  0
 79 86  1  0  0  0
 79158  1  0  0  0
 79159  1  0  0  0
 79160  1  0  0  0
 80161  1  0  0  0
 80162  1  0  0  0
 81 83  1  0  0  0
 81163  1  0  0  0
 81164  1  0  0  0
 82 84  1  0  0  0
 82165  1  0  0  0
 82166  1  0  0  0
 83 85  1  0  0  0
 83167  1  0  0  0
 83168  1  0  0  0
 84 88  1  0  0  0
 84169  1  0  0  0
 84170  1  0  0  0
 85171  1  0  0  0
 85172  1  0  0  0
 88173  1  0  0  0
M  ISO  4   1 100  68 101  85 101  88 100
M  END
> <chiral flag>
0

> <version>
0

> <s_m_source_file>
/data/baiqing/PycharmProjects/Reinvent-master-3.2/result/LINK_invent/BTK/process_docking_weight1_custom_sum_contain_oxygen_bond_distance_aromatic_linkinvent_7_9_3/rearranged_h_0087.sdf

> <i_m_source_file_index>
5

> <r_mmod_Potential_Energy-OPLS-2005>
172.618041992188

> <r_mmod_Stretch_Energy-OPLS-2005>
124.866477966309

> <r_mmod_Bend_Energy-OPLS-2005>
216.499237060547

> <r_mmod_Torsional_Energy-OPLS-2005>
328.335906982422

> <r_mmod_Improper_Torsional_Energy-OPLS-2005>
5.67236757278442

> <r_mmod_Van_der_Waal_Energy-OPLS-2005>
161.441345214844

> <r_mmod_Electrostatic_Energy-OPLS-2005>
-545.15234375

> <r_mmod_Solvation_Energy-OPLS-2005>
-215.72900390625

> <b_mmod_Minimization_Converged-OPLS-2005>
0

> <r_mmod_RMS_Derivative-OPLS-2005>
10.2636613845825

$$$$
5
                    3D
 Structure written by MMmdl.
157165  0  0  1  0            999 V2000
  -30.7343  -14.4889   20.5602 C   0  0  0  0  0  0
  -30.4118  -12.3158   19.4427 C   0  0  0  0  0  0
  -29.4975  -12.5006   18.2155 C   0  0  0  0  0  0
  -28.0178  -12.3703   18.6212 C   0  0  0  0  0  0
  -27.6566  -13.2219   19.8685 C   0  0  2  0  0  0
  -28.6983  -13.0475   20.9985 C   0  0  0  0  0  0
  -25.2551  -13.8203   20.5680 C   0  0  0  0  0  0
  -24.1815  -13.0461   20.9168 C   0  0  0  0  0  0
  -24.6390  -11.6940   20.8736 C   0  0  0  0  0  0
  -23.9080  -10.4316   21.0408 C   0  0  0  0  0  0
  -24.3626   -9.4224   21.9182 C   0  0  0  0  0  0
  -23.6304   -8.2257   22.0755 C   0  0  0  0  0  0
  -22.4284   -8.0291   21.3544 C   0  0  0  0  0  0
  -21.9925   -9.0272   20.4648 C   0  0  0  0  0  0
  -22.7252  -10.2153   20.3058 C   0  0  0  0  0  0
  -21.6859   -6.0750   22.5278 C   0  0  0  0  0  0
  -21.4017   -6.5658   23.8207 C   0  0  0  0  0  0
  -21.3657   -5.6800   24.9169 C   0  0  0  0  0  0
  -21.6042   -4.3063   24.7215 C   0  0  0  0  0  0
  -21.8823   -3.8156   23.4337 C   0  0  0  0  0  0
  -21.9195   -4.6982   22.3393 C   0  0  0  0  0  0
  -22.7829  -13.5248   21.1829 C   0  0  0  0  0  0
  -22.1665   -4.2171   21.0976 F   0  0  0  0  0  0
  -21.5631   -3.4540   25.7728 F   0  0  0  0  0  0
  -30.0298  -13.3302   20.4392 N   0  0  0  0  0  0
  -26.2998  -12.9395   20.3347 N   0  0  0  0  0  0
  -25.9321  -11.6544   20.5753 N   0  0  0  0  0  0
  -22.0483  -12.8241   22.0398 N   0  0  0  0  0  0
  -25.4273  -15.1928   20.4145 N   0  0  0  0  0  0
  -31.8656  -14.6198   20.0892 O   0  0  0  0  0  0
  -21.6638   -6.8892   21.4239 O   0  0  0  0  0  0
  -22.3516  -14.5555   20.6694 O   0  0  0  0  0  0
  -24.6171  -31.8676   23.2067 C   0  0  0  0  0  0
  -25.9066  -32.4824   23.8343 C   0  0  1  0  0  0
  -27.2158  -27.3982   20.0994 C   0  0  0  0  0  0
  -25.5933  -33.8621   24.2292 N   0  0  0  0  0  0
  -23.4022  -30.4921   21.5523 C   0  0  2  0  0  0
  -24.8409  -28.9559   20.1112 C   0  0  0  0  0  0
  -22.7377  -29.4672   22.4999 C   0  0  0  0  0  0
  -18.0250  -28.1350   22.8522 C   0  0  0  0  0  0
  -24.1490  -36.7290   23.2637 C   0  0  0  0  0  0
  -25.9336  -30.8209   21.3617 C   0  0  0  0  0  0
  -26.0060  -29.4544   20.7062 C   0  0  0  0  0  0
  -27.1965  -28.6853   20.6938 C   0  0  0  0  0  0
  -26.0302  -26.9321   19.4824 C   0  0  0  0  0  0
  -24.8495  -27.6950   19.4953 C   0  0  0  0  0  0
  -23.6064  -29.8282   20.1657 C   0  0  0  0  0  0
  -25.4117  -36.3104   24.0340 C   0  0  1  0  0  0
  -20.5836  -28.3662   23.1301 C   0  0  2  0  0  0
  -20.6742  -26.9397   22.5409 C   0  0  0  0  0  0
  -19.5689  -26.6320   21.5250 C   0  0  0  0  0  0
  -18.1887  -26.7875   22.1689 C   0  0  0  0  0  0
  -19.1496  -28.8825   23.2899 C   0  0  0  0  0  0
  -18.9426  -30.1422   23.8893 C   0  0  0  0  0  0
  -17.6437  -30.6558   24.0556 C   0  0  0  0  0  0
  -25.9067  -34.9489   23.5119 C   0  0  0  0  0  0
  -16.5329  -29.9061   23.6345 C   0  0  0  0  0  0
  -16.7233  -28.6470   23.0383 C   0  0  0  0  0  0
  -26.4500  -31.6602   25.0668 C   0  0  0  0  0  0
  -25.3786  -31.3733   26.1446 C   0  0  0  0  0  0
  -27.0320  -30.3056   24.6000 C   0  0  0  0  0  0
  -27.6079  -32.4306   25.7422 C   0  0  0  0  0  0
  -27.5587  -37.1796   24.8482 C   0  0  0  0  0  0
  -21.4103  -29.3043   22.3724 N   0  0  0  0  0  0
  -26.4297  -37.3797   23.9424 N   0  0  0  0  0  0
  -24.6700  -31.0738   22.0993 N   0  0  0  0  0  0
  -23.4146  -28.8241   23.3077 O   0  0  0  0  0  0
  -28.3645  -26.6215   20.1481 O   0  0  0  0  0  0
  -26.5626  -34.8953   22.4682 O   0  0  0  0  0  0
  -23.5378  -32.1474   23.7464 O   0  0  0  0  0  0
  -28.3467  -20.9525   21.7227 C   0  0  0  0  0  0
  -30.0564  -22.0103   20.7723 C   0  0  0  0  0  0
  -29.6447  -20.7590   21.1673 C   0  0  0  0  0  0
  -28.0486  -22.2917   21.7174 C   0  0  0  0  0  0
  -26.8577  -22.9877   22.2961 C   0  0  0  0  0  0
  -30.4664  -19.4682   21.0979 C   0  0  0  0  0  0
  -29.7094  -18.1040   21.0684 C   0  0  0  0  0  0
  -29.2745  -24.4320   20.9414 C   0  0  0  0  0  0
  -30.6933  -16.9046   21.2059 C   0  0  0  0  0  0
  -28.1976  -25.1791   20.1051 C   0  0  0  0  0  0
  -29.1011  -22.9667   21.1029 N   0  0  0  0  0  0
  -30.0970  -15.5527   21.0973 N   0  0  0  0  0  0
  -31.4606  -12.3856   19.1471 H   0  0  0  0  0  0
  -30.2878  -11.3184   19.8665 H   0  0  0  0  0  0
  -29.7384  -11.7598   17.4530 H   0  0  0  0  0  0
  -29.6760  -13.4776   17.7638 H   0  0  0  0  0  0
  -27.8213  -11.3165   18.8251 H   0  0  0  0  0  0
  -27.3734  -12.6416   17.7825 H   0  0  0  0  0  0
  -27.6869  -14.2644   19.5504 H   0  0  0  0  0  0
  -28.6737  -12.0304   21.3912 H   0  0  0  0  0  0
  -28.4585  -13.6977   21.8401 H   0  0  0  0  0  0
  -25.2781   -9.5699   22.4735 H   0  0  0  0  0  0
  -24.0018   -7.4654   22.7481 H   0  0  0  0  0  0
  -21.0850   -8.8800   19.8950 H   0  0  0  0  0  0
  -22.3716  -10.9694   19.6156 H   0  0  0  0  0  0
  -21.1996   -7.6159   23.9722 H   0  0  0  0  0  0
  -21.1476   -6.0522   25.9070 H   0  0  0  0  0  0
  -22.0594   -2.7620   23.2827 H   0  0  0  0  0  0
  -22.4128  -11.9924   22.4801 H   0  0  0  0  0  0
  -21.1098  -13.1266   22.2604 H   0  0  0  0  0  0
  -24.6662  -15.8533   20.5308 H   0  0  0  0  0  0
  -26.2874  -15.6324   20.1126 H   0  0  0  0  0  0
  -26.7133  -32.5507   23.1099 H   0  0  0  0  0  0
  -25.0093  -33.9759   25.0451 H   0  0  0  0  0  0
  -22.6933  -31.3113   21.4173 H   0  0  0  0  0  0
  -23.3768  -35.9601   23.3313 H   0  0  0  0  0  0
  -24.3590  -36.8887   22.2045 H   0  0  0  0  0  0
  -23.7237  -37.6504   23.6640 H   0  0  0  0  0  0
  -26.0473  -31.5848   20.5905 H   0  0  0  0  0  0
  -26.8219  -30.8741   21.9797 H   0  0  0  0  0  0
  -28.0920  -29.0627   21.1657 H   0  0  0  0  0  0
  -25.9937  -25.9716   18.9900 H   0  0  0  0  0  0
  -23.9546  -27.3028   19.0308 H   0  0  0  0  0  0
  -23.7139  -30.6046   19.4071 H   0  0  0  0  0  0
  -22.7252  -29.2531   19.8732 H   0  0  0  0  0  0
  -25.1296  -36.1949   25.0828 H   0  0  0  0  0  0
  -20.9911  -28.3196   24.1426 H   0  0  0  0  0  0
  -20.5644  -26.2278   23.3599 H   0  0  0  0  0  0
  -21.6609  -26.7434   22.1188 H   0  0  0  0  0  0
  -19.6831  -25.6216   21.1331 H   0  0  0  0  0  0
  -19.6584  -27.3086   20.6731 H   0  0  0  0  0  0
  -17.4136  -26.6586   21.4119 H   0  0  0  0  0  0
  -18.0310  -26.0020   22.9090 H   0  0  0  0  0  0
  -19.7906  -30.7218   24.2273 H   0  0  0  0  0  0
  -17.4992  -31.6247   24.5131 H   0  0  0  0  0  0
  -15.5347  -30.2974   23.7676 H   0  0  0  0  0  0
  -15.8645  -28.0757   22.7137 H   0  0  0  0  0  0
  -24.5977  -30.7038   25.7824 H   0  0  0  0  0  0
  -24.8966  -32.2900   26.4846 H   0  0  0  0  0  0
  -25.8195  -30.8970   27.0216 H   0  0  0  0  0  0
  -26.2891  -29.6891   24.0922 H   0  0  0  0  0  0
  -27.4013  -29.7185   25.4415 H   0  0  0  0  0  0
  -27.8757  -30.4439   23.9227 H   0  0  0  0  0  0
  -27.2737  -33.3645   26.1938 H   0  0  0  0  0  0
  -28.3922  -32.6785   25.0259 H   0  0  0  0  0  0
  -28.0703  -31.8442   26.5371 H   0  0  0  0  0  0
  -28.2613  -38.0084   24.7541 H   0  0  0  0  0  0
  -28.1077  -36.2625   24.6301 H   0  0  0  0  0  0
  -27.2307  -37.1441   25.8885 H   0  0  0  0  0  0
  -20.9252  -29.8762   21.6945 H   0  0  0  0  0  0
  -26.0190  -38.2880   24.1422 H   0  0  0  0  0  0
  -27.7142  -20.1849   22.1501 H   0  0  0  0  0  0
  -30.9904  -22.3167   20.3184 H   0  0  0  0  0  0
  -26.1047  -23.1862   21.5327 H   0  0  0  0  0  0
  -27.1338  -23.9332   22.7636 H   0  0  0  0  0  0
  -26.3887  -22.3772   23.0678 H   0  0  0  0  0  0
  -31.1239  -19.4801   21.9680 H   0  0  0  0  0  0
  -31.1284  -19.5353   20.2317 H   0  0  0  0  0  0
  -29.1475  -18.0196   20.1366 H   0  0  0  0  0  0
  -28.9797  -18.0596   21.8778 H   0  0  0  0  0  0
  -29.3057  -24.8696   21.9393 H   0  0  0  0  0  0
  -30.2524  -24.6194   20.5012 H   0  0  0  0  0  0
  -31.2102  -16.9670   22.1660 H   0  0  0  0  0  0
  -31.4670  -17.0315   20.4460 H   0  0  0  0  0  0
  -27.2238  -24.9022   20.5011 H   0  0  0  0  0  0
  -28.2231  -24.8421   19.0670 H   0  0  0  0  0  0
  -29.1688  -15.4063   21.4654 H   0  0  0  0  0  0
  1 25  1  0  0  0
  1 30  2  0  0  0
  1 82  1  0  0  0
  2  3  1  0  0  0
  2 25  1  0  0  0
  2 83  1  0  0  0
  2 84  1  0  0  0
  3  4  1  0  0  0
  3 85  1  0  0  0
  3 86  1  0  0  0
  4  5  1  0  0  0
  4 87  1  0  0  0
  4 88  1  0  0  0
  5  6  1  0  0  0
  5 26  1  0  0  0
  5 89  1  0  0  0
  6 25  1  0  0  0
  6 90  1  0  0  0
  6 91  1  0  0  0
  7  8  2  0  0  0
  7 26  1  0  0  0
  7 29  1  0  0  0
  8  9  1  0  0  0
  8 22  1  0  0  0
  9 10  1  0  0  0
  9 27  2  0  0  0
 10 11  2  0  0  0
 10 15  1  0  0  0
 11 12  1  0  0  0
 11 92  1  0  0  0
 12 13  2  0  0  0
 12 93  1  0  0  0
 13 14  1  0  0  0
 13 31  1  0  0  0
 14 15  2  0  0  0
 14 94  1  0  0  0
 15 95  1  0  0  0
 16 17  2  0  0  0
 16 21  1  0  0  0
 16 31  1  0  0  0
 17 18  1  0  0  0
 17 96  1  0  0  0
 18 19  2  0  0  0
 18 97  1  0  0  0
 19 20  1  0  0  0
 19 24  1  0  0  0
 20 21  2  0  0  0
 20 98  1  0  0  0
 21 23  1  0  0  0
 22 28  1  0  0  0
 22 32  2  0  0  0
 26 27  1  0  0  0
 28 99  1  0  0  0
 28100  1  0  0  0
 29101  1  0  0  0
 29102  1  0  0  0
 33 34  1  0  0  0
 33 66  1  0  0  0
 33 70  2  0  0  0
 34 36  1  0  0  0
 34 59  1  0  0  0
 34103  1  0  0  0
 35 44  2  0  0  0
 35 45  1  0  0  0
 35 68  1  0  0  0
 36 56  1  0  0  0
 36104  1  0  0  0
 37 39  1  0  0  0
 37 47  1  0  0  0
 37 66  1  0  0  0
 37105  1  0  0  0
 38 43  2  0  0  0
 38 46  1  0  0  0
 38 47  1  0  0  0
 39 64  1  0  0  0
 39 67  2  0  0  0
 40 52  1  0  0  0
 40 53  2  0  0  0
 40 58  1  0  0  0
 41106  1  0  0  0
 41107  1  0  0  0
 41108  1  0  0  0
 41 48  1  0  0  0
 42 43  1  0  0  0
 42 66  1  0  0  0
 42109  1  0  0  0
 42110  1  0  0  0
 43 44  1  0  0  0
 44111  1  0  0  0
 45 46  2  0  0  0
 45112  1  0  0  0
 46113  1  0  0  0
 47114  1  0  0  0
 47115  1  0  0  0
 48 56  1  0  0  0
 48 65  1  0  0  0
 48116  1  0  0  0
 49 50  1  0  0  0
 49 53  1  0  0  0
 49 64  1  0  0  0
 49117  1  0  0  0
 50 51  1  0  0  0
 50118  1  0  0  0
 50119  1  0  0  0
 51 52  1  0  0  0
 51120  1  0  0  0
 51121  1  0  0  0
 52122  1  0  0  0
 52123  1  0  0  0
 53 54  1  0  0  0
 54 55  2  0  0  0
 54124  1  0  0  0
 55 57  1  0  0  0
 55125  1  0  0  0
 56 69  2  0  0  0
 57 58  2  0  0  0
 57126  1  0  0  0
 58127  1  0  0  0
 59 60  1  0  0  0
 59 61  1  0  0  0
 59 62  1  0  0  0
 60128  1  0  0  0
 60129  1  0  0  0
 60130  1  0  0  0
 61131  1  0  0  0
 61132  1  0  0  0
 61133  1  0  0  0
 62134  1  0  0  0
 62135  1  0  0  0
 62136  1  0  0  0
 63 65  1  0  0  0
 63137  1  0  0  0
 63138  1  0  0  0
 63139  1  0  0  0
 64140  1  0  0  0
 65141  1  0  0  0
 68 80  1  0  0  0
 71 73  1  0  0  0
 71 74  2  0  0  0
 71142  1  0  0  0
 72 73  2  0  0  0
 72 81  1  0  0  0
 72143  1  0  0  0
 73 76  1  0  0  0
 74 75  1  0  0  0
 74 81  1  0  0  0
 75144  1  0  0  0
 75145  1  0  0  0
 75146  1  0  0  0
 76 77  1  0  0  0
 76147  1  0  0  0
 76148  1  0  0  0
 77 79  1  0  0  0
 77149  1  0  0  0
 77150  1  0  0  0
 78 80  1  0  0  0
 78 81  1  0  0  0
 78151  1  0  0  0
 78152  1  0  0  0
 79 82  1  0  0  0
 79153  1  0  0  0
 79154  1  0  0  0
 80155  1  0  0  0
 80156  1  0  0  0
 82157  1  0  0  0
M  ISO  4   1 100  68 101  80 101  82 100
M  END
> <chiral flag>
0

> <version>
0

> <s_m_source_file>
/data/baiqing/PycharmProjects/Reinvent-master-3.2/result/LINK_invent/BTK/process_docking_weight1_custom_sum_contain_oxygen_bond_distance_aromatic_linkinvent_7_9_3/rearranged_h_0087.sdf

> <i_m_source_file_index>
6

> <r_mmod_Potential_Energy-OPLS-2005>
-76.5422973632812

> <r_mmod_Stretch_Energy-OPLS-2005>
42.1051025390625

> <r_mmod_Bend_Energy-OPLS-2005>
104.080947875977

> <r_mmod_Torsional_Energy-OPLS-2005>
208.200958251953

> <r_mmod_Improper_Torsional_Energy-OPLS-2005>
3.73429584503174

> <r_mmod_Van_der_Waal_Energy-OPLS-2005>
132.594573974609

> <r_mmod_Electrostatic_Energy-OPLS-2005>
-376.853668212891

> <r_mmod_Solvation_Energy-OPLS-2005>
-210.132995605469

> <b_mmod_Minimization_Converged-OPLS-2005>
0

> <r_mmod_RMS_Derivative-OPLS-2005>
2.89815068244934

$$$$
6
                    3D
 Structure written by MMmdl.
168176  0  0  1  0            999 V2000
  -30.6570  -14.5429   20.4920 C   0  0  0  0  0  0
  -30.4263  -12.3377   19.4279 C   0  0  0  0  0  0
  -29.4959  -12.4925   18.2080 C   0  0  0  0  0  0
  -28.0160  -12.3476   18.6171 C   0  0  0  0  0  0
  -27.6482  -13.2093   19.8558 C   0  0  2  0  0  0
  -28.6957  -13.0343   20.9794 C   0  0  0  0  0  0
  -25.2538  -13.8157   20.5703 C   0  0  0  0  0  0
  -24.1811  -13.0419   20.9222 C   0  0  0  0  0  0
  -24.6354  -11.6891   20.8742 C   0  0  0  0  0  0
  -23.9034  -10.4280   21.0370 C   0  0  0  0  0  0
  -24.3600   -9.4219   21.9148 C   0  0  0  0  0  0
  -23.6308   -8.2248   22.0719 C   0  0  0  0  0  0
  -22.4293   -8.0258   21.3531 C   0  0  0  0  0  0
  -21.9908   -9.0204   20.4627 C   0  0  0  0  0  0
  -22.7191  -10.2110   20.3033 C   0  0  0  0  0  0
  -21.6857   -6.0726   22.5289 C   0  0  0  0  0  0
  -21.3981   -6.5634   23.8217 C   0  0  0  0  0  0
  -21.3683   -5.6796   24.9198 C   0  0  0  0  0  0
  -21.6070   -4.3056   24.7243 C   0  0  0  0  0  0
  -21.8823   -3.8142   23.4361 C   0  0  0  0  0  0
  -21.9194   -4.6957   22.3415 C   0  0  0  0  0  0
  -22.7843  -13.5208   21.1910 C   0  0  0  0  0  0
  -22.1661   -4.2150   21.0996 F   0  0  0  0  0  0
  -21.5649   -3.4530   25.7738 F   0  0  0  0  0  0
  -30.0181  -13.3446   20.4169 N   0  0  0  0  0  0
  -26.2933  -12.9319   20.3252 N   0  0  0  0  0  0
  -25.9259  -11.6484   20.5697 N   0  0  0  0  0  0
  -22.0490  -12.8184   22.0459 N   0  0  0  0  0  0
  -25.4227  -15.1891   20.4176 N   0  0  0  0  0  0
  -31.8285  -14.6989   20.1397 O   0  0  0  0  0  0
  -21.6668   -6.8847   21.4237 O   0  0  0  0  0  0
  -22.3548  -14.5528   20.6774 O   0  0  0  0  0  0
  -24.6177  -31.8637   23.2045 C   0  0  0  0  0  0
  -25.9064  -32.4799   23.8368 C   0  0  1  0  0  0
  -27.2418  -27.4154   20.0838 C   0  0  0  0  0  0
  -25.5916  -33.8603   24.2300 N   0  0  0  0  0  0
  -23.4060  -30.4857   21.5498 C   0  0  2  0  0  0
  -24.8526  -28.9372   20.1269 C   0  0  0  0  0  0
  -22.7414  -29.4635   22.5004 C   0  0  0  0  0  0
  -18.0267  -28.1357   22.8509 C   0  0  0  0  0  0
  -24.1494  -36.7305   23.2632 C   0  0  0  0  0  0
  -25.9376  -30.8219   21.3593 C   0  0  0  0  0  0
  -26.0159  -29.4508   20.7140 C   0  0  0  0  0  0
  -27.2170  -28.6977   20.6877 C   0  0  0  0  0  0
  -26.0573  -26.9102   19.5119 C   0  0  0  0  0  0
  -24.8661  -27.6643   19.5297 C   0  0  0  0  0  0
  -23.6160  -29.8098   20.1695 C   0  0  0  0  0  0
  -25.4108  -36.3083   24.0322 C   0  0  1  0  0  0
  -20.5863  -28.3638   23.1318 C   0  0  2  0  0  0
  -20.6745  -26.9369   22.5422 C   0  0  0  0  0  0
  -19.5729  -26.6368   21.5216 C   0  0  0  0  0  0
  -18.1909  -26.7903   22.1632 C   0  0  0  0  0  0
  -19.1518  -28.8812   23.2915 C   0  0  0  0  0  0
  -18.9448  -30.1425   23.8920 C   0  0  0  0  0  0
  -17.6448  -30.6567   24.0564 C   0  0  0  0  0  0
  -25.9048  -34.9458   23.5096 C   0  0  0  0  0  0
  -16.5337  -29.9070   23.6325 C   0  0  0  0  0  0
  -16.7256  -28.6483   23.0350 C   0  0  0  0  0  0
  -26.4478  -31.6587   25.0703 C   0  0  0  0  0  0
  -25.3766  -31.3736   26.1474 C   0  0  0  0  0  0
  -27.0265  -30.3009   24.6084 C   0  0  0  0  0  0
  -27.6070  -32.4285   25.7483 C   0  0  0  0  0  0
  -27.5572  -37.1797   24.8456 C   0  0  0  0  0  0
  -21.4130  -29.3023   22.3737 N   0  0  0  0  0  0
  -26.4281  -37.3776   23.9406 N   0  0  0  0  0  0
  -24.6730  -31.0726   22.0970 N   0  0  0  0  0  0
  -23.4181  -28.8169   23.3044 O   0  0  0  0  0  0
  -28.4116  -26.6853   19.9863 O   0  0  0  0  0  0
  -26.5621  -34.8921   22.4667 O   0  0  0  0  0  0
  -23.5366  -32.1398   23.7448 O   0  0  0  0  0  0
  -28.7778  -20.4474   20.2640 C   0  0  0  0  0  0
  -29.5416  -21.5981   20.2411 C   0  0  0  0  0  0
  -30.7716  -21.1313   19.6379 C   0  0  0  0  0  0
  -28.2046  -22.7120   22.0844 C   0  0  0  0  0  0
  -33.2063  -21.1887   20.2171 C   0  0  0  0  0  0
  -32.1190  -23.3253   19.5764 C   0  0  0  0  0  0
  -32.5011  -21.5844   17.8375 C   0  0  0  0  0  0
  -28.6062  -24.1061   19.9884 C   0  0  0  0  0  0
  -29.2402  -17.9256   19.8657 C   0  0  0  0  0  0
  -30.2192  -17.0386   20.7037 C   0  0  0  0  0  0
  -28.4966  -25.4703   20.7560 C   0  0  0  0  0  0
  -29.1664  -22.9523   20.9006 C   0  0  2  0  0  0
  -32.1162  -21.8075   19.3204 C   0  0  0  0  0  0
  -30.7351  -19.8142   19.4145 N   0  0  0  0  0  0
  -29.5514  -19.3694   19.8692 N   0  0  0  0  0  0
  -29.8590  -15.6009   20.7669 N   0  0  0  0  0  0
  -31.4687  -12.4512   19.1259 H   0  0  0  0  0  0
  -30.3351  -11.3369   19.8533 H   0  0  0  0  0  0
  -29.7445  -11.7502   17.4482 H   0  0  0  0  0  0
  -29.6520  -13.4684   17.7459 H   0  0  0  0  0  0
  -27.8387  -11.2944   18.8290 H   0  0  0  0  0  0
  -27.3670  -12.5970   17.7754 H   0  0  0  0  0  0
  -27.6651  -14.2482   19.5294 H   0  0  0  0  0  0
  -28.6914  -12.0071   21.3457 H   0  0  0  0  0  0
  -28.4598  -13.6599   21.8405 H   0  0  0  0  0  0
  -25.2708   -9.5772   22.4746 H   0  0  0  0  0  0
  -24.0054   -7.4674   22.7419 H   0  0  0  0  0  0
  -21.0841   -8.8672   19.8949 H   0  0  0  0  0  0
  -22.3559  -10.9647   19.6176 H   0  0  0  0  0  0
  -21.1916   -7.6129   23.9709 H   0  0  0  0  0  0
  -21.1522   -6.0529   25.9107 H   0  0  0  0  0  0
  -22.0579   -2.7598   23.2856 H   0  0  0  0  0  0
  -22.4101  -11.9847   22.4875 H   0  0  0  0  0  0
  -21.1091  -13.1176   22.2616 H   0  0  0  0  0  0
  -24.6401  -15.8262   20.5183 H   0  0  0  0  0  0
  -26.2589  -15.6457   20.0754 H   0  0  0  0  0  0
  -26.7138  -32.5478   23.1131 H   0  0  0  0  0  0
  -25.0046  -33.9796   25.0432 H   0  0  0  0  0  0
  -22.6974  -31.3035   21.4062 H   0  0  0  0  0  0
  -23.3754  -35.9644   23.3286 H   0  0  0  0  0  0
  -24.3583  -36.8943   22.2049 H   0  0  0  0  0  0
  -23.7261  -37.6506   23.6668 H   0  0  0  0  0  0
  -26.0475  -31.5851   20.5865 H   0  0  0  0  0  0
  -26.8249  -30.8814   21.9782 H   0  0  0  0  0  0
  -28.1185  -29.1014   21.1284 H   0  0  0  0  0  0
  -26.0627  -25.9395   19.0369 H   0  0  0  0  0  0
  -23.9684  -27.2588   19.0824 H   0  0  0  0  0  0
  -23.7292  -30.5811   19.4081 H   0  0  0  0  0  0
  -22.7371  -29.2351   19.8714 H   0  0  0  0  0  0
  -25.1301  -36.1929   25.0818 H   0  0  0  0  0  0
  -20.9964  -28.3176   24.1430 H   0  0  0  0  0  0
  -20.5627  -26.2235   23.3604 H   0  0  0  0  0  0
  -21.6602  -26.7388   22.1211 H   0  0  0  0  0  0
  -19.6877  -25.6287   21.1217 H   0  0  0  0  0  0
  -19.6657  -27.3204   20.6770 H   0  0  0  0  0  0
  -17.4169  -26.6663   21.4038 H   0  0  0  0  0  0
  -18.0300  -26.0037   22.9024 H   0  0  0  0  0  0
  -19.7934  -30.7232   24.2279 H   0  0  0  0  0  0
  -17.5011  -31.6257   24.5143 H   0  0  0  0  0  0
  -15.5338  -30.2977   23.7628 H   0  0  0  0  0  0
  -15.8661  -28.0809   22.7047 H   0  0  0  0  0  0
  -24.5875  -30.7148   25.7822 H   0  0  0  0  0  0
  -24.9044  -32.2924   26.4962 H   0  0  0  0  0  0
  -25.8118  -30.8853   27.0201 H   0  0  0  0  0  0
  -26.2770  -29.6802   24.1140 H   0  0  0  0  0  0
  -27.4009  -29.7208   25.4526 H   0  0  0  0  0  0
  -27.8637  -30.4292   23.9220 H   0  0  0  0  0  0
  -27.2713  -33.3606   26.2036 H   0  0  0  0  0  0
  -28.3912  -32.6787   25.0333 H   0  0  0  0  0  0
  -28.0684  -31.8402   26.5423 H   0  0  0  0  0  0
  -28.2583  -38.0096   24.7481 H   0  0  0  0  0  0
  -28.1071  -36.2622   24.6307 H   0  0  0  0  0  0
  -27.2286  -37.1468   25.8857 H   0  0  0  0  0  0
  -20.9253  -29.8796   21.7026 H   0  0  0  0  0  0
  -26.0164  -38.2850   24.1413 H   0  0  0  0  0  0
  -27.7737  -20.2895   20.6293 H   0  0  0  0  0  0
  -28.5686  -21.9208   22.7424 H   0  0  0  0  0  0
  -27.2069  -22.4382   21.7408 H   0  0  0  0  0  0
  -28.1008  -23.5940   22.7162 H   0  0  0  0  0  0
  -32.9458  -21.2896   21.2707 H   0  0  0  0  0  0
  -34.1758  -21.6633   20.0609 H   0  0  0  0  0  0
  -33.3357  -20.1222   20.0214 H   0  0  0  0  0  0
  -31.3289  -23.8311   19.0276 H   0  0  0  0  0  0
  -33.0543  -23.7792   19.2517 H   0  0  0  0  0  0
  -32.0300  -23.5544   20.6373 H   0  0  0  0  0  0
  -32.5725  -20.5247   17.5864 H   0  0  0  0  0  0
  -33.4746  -22.0195   17.6052 H   0  0  0  0  0  0
  -31.7768  -22.0313   17.1575 H   0  0  0  0  0  0
  -29.2401  -24.2455   19.1163 H   0  0  0  0  0  0
  -27.6304  -23.8284   19.5908 H   0  0  0  0  0  0
  -28.2294  -17.8059   20.2534 H   0  0  0  0  0  0
  -29.2196  -17.5860   18.8298 H   0  0  0  0  0  0
  -30.2253  -17.4097   21.7281 H   0  0  0  0  0  0
  -31.2343  -17.1680   20.3306 H   0  0  0  0  0  0
  -29.4016  -25.5843   21.3510 H   0  0  0  0  0  0
  -27.6820  -25.4263   21.4801 H   0  0  0  0  0  0
  -30.0594  -23.3533   21.3705 H   0  0  0  0  0  0
  -28.9084  -15.3782   21.0204 H   0  0  0  0  0  0
  1 25  1  0  0  0
  1 30  2  0  0  0
  1 86  1  0  0  0
  2  3  1  0  0  0
  2 25  1  0  0  0
  2 87  1  0  0  0
  2 88  1  0  0  0
  3  4  1  0  0  0
  3 89  1  0  0  0
  3 90  1  0  0  0
  4  5  1  0  0  0
  4 91  1  0  0  0
  4 92  1  0  0  0
  5  6  1  0  0  0
  5 26  1  0  0  0
  5 93  1  0  0  0
  6 25  1  0  0  0
  6 94  1  0  0  0
  6 95  1  0  0  0
  7  8  2  0  0  0
  7 26  1  0  0  0
  7 29  1  0  0  0
  8  9  1  0  0  0
  8 22  1  0  0  0
  9 10  1  0  0  0
  9 27  2  0  0  0
 10 11  2  0  0  0
 10 15  1  0  0  0
 11 12  1  0  0  0
 11 96  1  0  0  0
 12 13  2  0  0  0
 12 97  1  0  0  0
 13 14  1  0  0  0
 13 31  1  0  0  0
 14 15  2  0  0  0
 14 98  1  0  0  0
 15 99  1  0  0  0
 16 17  2  0  0  0
 16 21  1  0  0  0
 16 31  1  0  0  0
 17 18  1  0  0  0
 17100  1  0  0  0
 18 19  2  0  0  0
 18101  1  0  0  0
 19 20  1  0  0  0
 19 24  1  0  0  0
 20 21  2  0  0  0
 20102  1  0  0  0
 21 23  1  0  0  0
 22 28  1  0  0  0
 22 32  2  0  0  0
 26 27  1  0  0  0
 28103  1  0  0  0
 28104  1  0  0  0
 29105  1  0  0  0
 29106  1  0  0  0
 33 34  1  0  0  0
 33 66  1  0  0  0
 33 70  2  0  0  0
 34 36  1  0  0  0
 34 59  1  0  0  0
 34107  1  0  0  0
 35 44  2  0  0  0
 35 45  1  0  0  0
 35 68  1  0  0  0
 36 56  1  0  0  0
 36108  1  0  0  0
 37 39  1  0  0  0
 37 47  1  0  0  0
 37 66  1  0  0  0
 37109  1  0  0  0
 38 43  2  0  0  0
 38 46  1  0  0  0
 38 47  1  0  0  0
 39 64  1  0  0  0
 39 67  2  0  0  0
 40 52  1  0  0  0
 40 53  2  0  0  0
 40 58  1  0  0  0
 41110  1  0  0  0
 41111  1  0  0  0
 41112  1  0  0  0
 41 48  1  0  0  0
 42 43  1  0  0  0
 42 66  1  0  0  0
 42113  1  0  0  0
 42114  1  0  0  0
 43 44  1  0  0  0
 44115  1  0  0  0
 45 46  2  0  0  0
 45116  1  0  0  0
 46117  1  0  0  0
 47118  1  0  0  0
 47119  1  0  0  0
 48 56  1  0  0  0
 48 65  1  0  0  0
 48120  1  0  0  0
 49 50  1  0  0  0
 49 53  1  0  0  0
 49 64  1  0  0  0
 49121  1  0  0  0
 50 51  1  0  0  0
 50122  1  0  0  0
 50123  1  0  0  0
 51 52  1  0  0  0
 51124  1  0  0  0
 51125  1  0  0  0
 52126  1  0  0  0
 52127  1  0  0  0
 53 54  1  0  0  0
 54 55  2  0  0  0
 54128  1  0  0  0
 55 57  1  0  0  0
 55129  1  0  0  0
 56 69  2  0  0  0
 57 58  2  0  0  0
 57130  1  0  0  0
 58131  1  0  0  0
 59 60  1  0  0  0
 59 61  1  0  0  0
 59 62  1  0  0  0
 60132  1  0  0  0
 60133  1  0  0  0
 60134  1  0  0  0
 61135  1  0  0  0
 61136  1  0  0  0
 61137  1  0  0  0
 62138  1  0  0  0
 62139  1  0  0  0
 62140  1  0  0  0
 63 65  1  0  0  0
 63141  1  0  0  0
 63142  1  0  0  0
 63143  1  0  0  0
 64144  1  0  0  0
 65145  1  0  0  0
 68 81  1  0  0  0
 71 72  2  0  0  0
 71 85  1  0  0  0
 71146  1  0  0  0
 72 73  1  0  0  0
 72 82  1  0  0  0
 73 83  1  0  0  0
 73 84  2  0  0  0
 74147  1  0  0  0
 74148  1  0  0  0
 74149  1  0  0  0
 74 82  1  0  0  0
 75150  1  0  0  0
 75151  1  0  0  0
 75152  1  0  0  0
 75 83  1  0  0  0
 76 83  1  0  0  0
 76153  1  0  0  0
 76154  1  0  0  0
 76155  1  0  0  0
 77 83  1  0  0  0
 77156  1  0  0  0
 77157  1  0  0  0
 77158  1  0  0  0
 78 81  1  0  0  0
 78 82  1  0  0  0
 78159  1  0  0  0
 78160  1  0  0  0
 79 80  1  0  0  0
 79 85  1  0  0  0
 79161  1  0  0  0
 79162  1  0  0  0
 80 86  1  0  0  0
 80163  1  0  0  0
 80164  1  0  0  0
 81165  1  0  0  0
 81166  1  0  0  0
 82167  1  0  0  0
 84 85  1  0  0  0
 86168  1  0  0  0
M  ISO  4   1 100  68 101  81 101  86 100
M  END
> <chiral flag>
0

> <version>
0

> <s_m_source_file>
/data/baiqing/PycharmProjects/Reinvent-master-3.2/result/LINK_invent/BTK/process_docking_weight1_custom_sum_contain_oxygen_bond_distance_aromatic_linkinvent_7_9_3/rearranged_h_0087.sdf

> <i_m_source_file_index>
7

> <r_mmod_Potential_Energy-OPLS-2005>
-69.6237564086914

> <r_mmod_Stretch_Energy-OPLS-2005>
49.3575477600098

> <r_mmod_Bend_Energy-OPLS-2005>
119.664215087891

> <r_mmod_Torsional_Energy-OPLS-2005>
233.730697631836

> <r_mmod_Improper_Torsional_Energy-OPLS-2005>
6.52435064315796

> <r_mmod_Van_der_Waal_Energy-OPLS-2005>
128.182434082031

> <r_mmod_Electrostatic_Energy-OPLS-2005>
-413.202087402344

> <r_mmod_Solvation_Energy-OPLS-2005>
-215.505432128906

> <b_mmod_Minimization_Converged-OPLS-2005>
0

> <r_mmod_RMS_Derivative-OPLS-2005>
4.70259046554565

$$$$
7
                    3D
 Structure written by MMmdl.
170178  0  0  1  0            999 V2000
  -30.5435  -15.0105   20.3887 C   0  0  0  0  0  0
  -30.4338  -12.6305   19.4925 C   0  0  0  0  0  0
  -29.5224  -12.5388   18.2463 C   0  0  0  0  0  0
  -28.0559  -12.3133   18.6629 C   0  0  0  0  0  0
  -27.6205  -13.2585   19.8148 C   0  0  2  0  0  0
  -28.6610  -13.3387   20.9528 C   0  0  0  0  0  0
  -25.2403  -13.8233   20.5639 C   0  0  0  0  0  0
  -24.1749  -13.0429   20.9185 C   0  0  0  0  0  0
  -24.6376  -11.6927   20.8701 C   0  0  0  0  0  0
  -23.9071  -10.4288   21.0356 C   0  0  0  0  0  0
  -24.3621   -9.4216   21.9151 C   0  0  0  0  0  0
  -23.6286   -8.2260   22.0769 C   0  0  0  0  0  0
  -22.4262   -8.0302   21.3553 C   0  0  0  0  0  0
  -21.9887   -9.0266   20.4642 C   0  0  0  0  0  0
  -22.7224  -10.2135   20.3015 C   0  0  0  0  0  0
  -21.6867   -6.0727   22.5264 C   0  0  0  0  0  0
  -21.4032   -6.5632   23.8198 C   0  0  0  0  0  0
  -21.3662   -5.6781   24.9166 C   0  0  0  0  0  0
  -21.6039   -4.3035   24.7219 C   0  0  0  0  0  0
  -21.8828   -3.8130   23.4334 C   0  0  0  0  0  0
  -21.9191   -4.6951   22.3386 C   0  0  0  0  0  0
  -22.7757  -13.5200   21.1821 C   0  0  0  0  0  0
  -22.1663   -4.2133   21.0962 F   0  0  0  0  0  0
  -21.5629   -3.4518   25.7733 F   0  0  0  0  0  0
  -29.9334  -13.7500   20.3452 N   0  0  0  0  0  0
  -26.2838  -12.9491   20.3100 N   0  0  0  0  0  0
  -25.9303  -11.6610   20.5619 N   0  0  0  0  0  0
  -22.0388  -12.8263   22.0415 N   0  0  0  0  0  0
  -25.4045  -15.1976   20.4087 N   0  0  0  0  0  0
  -31.7552  -15.0375   20.1570 O   0  0  0  0  0  0
  -21.6647   -6.8879   21.4232 O   0  0  0  0  0  0
  -22.3459  -14.5483   20.6629 O   0  0  0  0  0  0
  -24.6487  -31.8409   23.1857 C   0  0  0  0  0  0
  -25.9255  -32.4689   23.8247 C   0  0  1  0  0  0
  -27.2189  -27.1073   20.1632 C   0  0  0  0  0  0
  -25.6001  -33.8491   24.2194 N   0  0  0  0  0  0
  -23.4526  -30.4611   21.5299 C   0  0  2  0  0  0
  -24.9045  -28.8806   20.1131 C   0  0  0  0  0  0
  -22.7589  -29.4537   22.4805 C   0  0  0  0  0  0
  -18.0324  -28.1410   22.8443 C   0  0  0  0  0  0
  -24.1478  -36.7241   23.2626 C   0  0  0  0  0  0
  -26.0095  -30.7079   21.3868 C   0  0  0  0  0  0
  -26.0816  -29.3122   20.7379 C   0  0  0  0  0  0
  -27.2416  -28.4422   20.7438 C   0  0  0  0  0  0
  -26.0196  -26.7877   19.4914 C   0  0  0  0  0  0
  -24.8896  -27.6346   19.4697 C   0  0  0  0  0  0
  -23.6852  -29.7912   20.1494 C   0  0  0  0  0  0
  -25.4109  -36.3015   24.0311 C   0  0  1  0  0  0
  -20.5930  -28.3753   23.1217 C   0  0  2  0  0  0
  -20.6811  -26.9452   22.5391 C   0  0  0  0  0  0
  -19.5784  -26.6384   21.5195 C   0  0  0  0  0  0
  -18.1963  -26.7948   22.1595 C   0  0  0  0  0  0
  -19.1581  -28.8898   23.2817 C   0  0  0  0  0  0
  -18.9490  -30.1489   23.8848 C   0  0  0  0  0  0
  -17.6492  -30.6591   24.0556 C   0  0  0  0  0  0
  -25.9066  -34.9399   23.5033 C   0  0  0  0  0  0
  -16.5381  -29.9077   23.6343 C   0  0  0  0  0  0
  -16.7310  -28.6505   23.0333 C   0  0  0  0  0  0
  -26.4561  -31.6570   25.0701 C   0  0  0  0  0  0
  -25.3735  -31.3814   26.1401 C   0  0  0  0  0  0
  -27.0422  -30.2959   24.6296 C   0  0  0  0  0  0
  -27.6088  -32.4324   25.7507 C   0  0  0  0  0  0
  -27.5575  -37.1783   24.8459 C   0  0  0  0  0  0
  -21.4273  -29.3055   22.3565 N   0  0  0  0  0  0
  -26.4266  -37.3749   23.9426 N   0  0  0  0  0  0
  -24.7226  -31.0266   22.0895 N   0  0  0  0  0  0
  -23.4225  -28.8067   23.2956 O   0  0  0  0  0  0
  -28.2666  -26.1056   20.1878 O   0  0  0  0  0  0
  -26.5602  -34.8911   22.4592 O   0  0  0  0  0  0
  -23.5602  -32.1262   23.7110 O   0  0  0  0  0  0
  -30.0752  -23.6200   19.2982 C   0  0  0  0  0  0
  -30.9993  -22.6308   18.9108 C   0  0  0  0  0  0
  -30.8649  -21.2701   19.3647 C   0  0  0  0  0  0
  -28.9688  -23.3181   20.0874 C   0  0  0  0  0  0
  -29.6719  -20.8559   20.0613 C   0  0  0  0  0  0
  -32.7266  -23.7987   15.5845 C   0  0  0  0  0  0
  -33.3761  -20.6912   19.7336 C   0  0  0  0  0  0
  -32.0525  -19.7184   17.6968 C   0  0  0  0  0  0
  -27.8279  -24.5856   22.0442 C   0  0  0  0  0  0
  -32.1164  -23.1211   17.9811 C   0  0  0  0  0  0
  -29.3014  -19.2314   20.4095 C   0  0  0  0  0  0
  -31.6025  -23.6336   16.6240 C   0  0  0  0  0  0
  -30.2304  -17.7701   20.2757 C   0  0  0  0  0  0
  -32.0147  -20.2809   19.1323 C   0  0  0  0  0  0
  -27.9835  -24.5899   20.5151 C   0  0  1  0  0  0
  -28.7754  -21.9277   20.3966 N   0  0  0  0  0  0
  -29.7978  -16.2355   20.4662 N   0  0  0  0  0  0
  -31.4662  -12.7864   19.1801 H   0  0  0  0  0  0
  -30.4328  -11.6935   20.0529 H   0  0  0  0  0  0
  -29.8589  -11.7376   17.5856 H   0  0  0  0  0  0
  -29.6007  -13.4634   17.6718 H   0  0  0  0  0  0
  -27.9546  -11.2749   18.9790 H   0  0  0  0  0  0
  -27.3955  -12.4327   17.8024 H   0  0  0  0  0  0
  -27.5691  -14.2496   19.3632 H   0  0  0  0  0  0
  -28.7520  -12.3851   21.4746 H   0  0  0  0  0  0
  -28.3511  -14.0768   21.6950 H   0  0  0  0  0  0
  -25.2780   -9.5709   22.4708 H   0  0  0  0  0  0
  -23.9991   -7.4662   22.7499 H   0  0  0  0  0  0
  -21.0821   -8.8780   19.8949 H   0  0  0  0  0  0
  -22.3684  -10.9673   19.6113 H   0  0  0  0  0  0
  -21.2060   -7.6144   23.9709 H   0  0  0  0  0  0
  -21.1460   -6.0500   25.9064 H   0  0  0  0  0  0
  -22.0600   -2.7590   23.2824 H   0  0  0  0  0  0
  -22.3991  -12.0001   22.4956 H   0  0  0  0  0  0
  -21.0961  -13.1296   22.2456 H   0  0  0  0  0  0
  -24.6319  -15.8444   20.5278 H   0  0  0  0  0  0
  -26.2464  -15.6437   20.0703 H   0  0  0  0  0  0
  -26.7329  -32.5323   23.0981 H   0  0  0  0  0  0
  -25.0309  -33.9585   25.0454 H   0  0  0  0  0  0
  -22.7547  -31.2863   21.3735 H   0  0  0  0  0  0
  -23.3748  -35.9564   23.3236 H   0  0  0  0  0  0
  -24.3557  -36.8907   22.2044 H   0  0  0  0  0  0
  -23.7227  -37.6427   23.6683 H   0  0  0  0  0  0
  -26.1610  -31.4558   20.6062 H   0  0  0  0  0  0
  -26.8811  -30.7677   22.0268 H   0  0  0  0  0  0
  -28.1400  -28.7705   21.2485 H   0  0  0  0  0  0
  -25.9350  -25.8440   18.9743 H   0  0  0  0  0  0
  -24.0019  -27.3084   18.9454 H   0  0  0  0  0  0
  -23.8365  -30.5627   19.3924 H   0  0  0  0  0  0
  -22.7983  -29.2429   19.8321 H   0  0  0  0  0  0
  -25.1295  -36.1798   25.0801 H   0  0  0  0  0  0
  -21.0032  -28.3362   24.1337 H   0  0  0  0  0  0
  -20.5708  -26.2366   23.3606 H   0  0  0  0  0  0
  -21.6688  -26.7458   22.1193 H   0  0  0  0  0  0
  -19.6945  -25.6278   21.1259 H   0  0  0  0  0  0
  -19.6734  -27.3147   20.6683 H   0  0  0  0  0  0
  -17.4238  -26.6669   21.3995 H   0  0  0  0  0  0
  -18.0377  -26.0117   22.9016 H   0  0  0  0  0  0
  -19.7963  -30.7316   24.2197 H   0  0  0  0  0  0
  -17.5036  -31.6267   24.5174 H   0  0  0  0  0  0
  -15.5375  -30.2958   23.7714 H   0  0  0  0  0  0
  -15.8692  -28.0816   22.7070 H   0  0  0  0  0  0
  -24.5889  -30.7175   25.7751 H   0  0  0  0  0  0
  -24.8966  -32.3034   26.4748 H   0  0  0  0  0  0
  -25.8006  -30.9046   27.0229 H   0  0  0  0  0  0
  -26.3050  -29.6669   24.1297 H   0  0  0  0  0  0
  -27.4020  -29.7270   25.4879 H   0  0  0  0  0  0
  -27.8948  -30.4167   23.9607 H   0  0  0  0  0  0
  -27.2681  -33.3640   26.2031 H   0  0  0  0  0  0
  -28.3960  -32.6853   25.0393 H   0  0  0  0  0  0
  -28.0679  -31.8476   26.5483 H   0  0  0  0  0  0
  -28.2568  -38.0109   24.7540 H   0  0  0  0  0  0
  -28.1090  -36.2641   24.6216 H   0  0  0  0  0  0
  -27.2295  -37.1358   25.8862 H   0  0  0  0  0  0
  -20.9492  -29.8782   21.6744 H   0  0  0  0  0  0
  -26.0094  -38.2791   24.1490 H   0  0  0  0  0  0
  -30.2219  -24.6457   18.9832 H   0  0  0  0  0  0
  -32.3300  -24.1596   14.6341 H   0  0  0  0  0  0
  -33.2286  -22.8496   15.3886 H   0  0  0  0  0  0
  -33.4872  -24.5076   15.9150 H   0  0  0  0  0  0
  -33.2547  -21.0264   20.7640 H   0  0  0  0  0  0
  -33.9266  -21.4639   19.2073 H   0  0  0  0  0  0
  -34.0360  -19.8243   19.7728 H   0  0  0  0  0  0
  -31.1383  -19.1650   17.4812 H   0  0  0  0  0  0
  -32.8858  -19.0272   17.5601 H   0  0  0  0  0  0
  -32.1341  -20.4872   16.9303 H   0  0  0  0  0  0
  -27.4663  -23.6206   22.4023 H   0  0  0  0  0  0
  -27.1173  -25.3417   22.3748 H   0  0  0  0  0  0
  -28.7796  -24.7861   22.5369 H   0  0  0  0  0  0
  -32.8447  -22.3588   17.7509 H   0  0  0  0  0  0
  -32.6646  -23.9138   18.4899 H   0  0  0  0  0  0
  -28.3967  -19.0526   19.8285 H   0  0  0  0  0  0
  -28.9596  -19.2617   21.4425 H   0  0  0  0  0  0
  -30.8736  -22.9194   16.2369 H   0  0  0  0  0  0
  -31.0723  -24.5771   16.7562 H   0  0  0  0  0  0
  -31.0731  -17.8744   20.9593 H   0  0  0  0  0  0
  -30.6504  -17.7632   19.2719 H   0  0  0  0  0  0
  -31.8316  -19.4573   19.7862 H   0  0  0  0  0  0
  -27.0120  -24.3352   20.0982 H   0  0  0  0  0  0
  -28.8040  -16.0991   20.5714 H   0  0  0  0  0  0
  1 25  1  0  0  0
  1 30  2  0  0  0
  1 87  1  0  0  0
  2  3  1  0  0  0
  2 25  1  0  0  0
  2 88  1  0  0  0
  2 89  1  0  0  0
  3  4  1  0  0  0
  3 90  1  0  0  0
  3 91  1  0  0  0
  4  5  1  0  0  0
  4 92  1  0  0  0
  4 93  1  0  0  0
  5  6  1  0  0  0
  5 26  1  0  0  0
  5 94  1  0  0  0
  6 25  1  0  0  0
  6 95  1  0  0  0
  6 96  1  0  0  0
  7  8  2  0  0  0
  7 26  1  0  0  0
  7 29  1  0  0  0
  8  9  1  0  0  0
  8 22  1  0  0  0
  9 10  1  0  0  0
  9 27  2  0  0  0
 10 11  2  0  0  0
 10 15  1  0  0  0
 11 12  1  0  0  0
 11 97  1  0  0  0
 12 13  2  0  0  0
 12 98  1  0  0  0
 13 14  1  0  0  0
 13 31  1  0  0  0
 14 15  2  0  0  0
 14 99  1  0  0  0
 15100  1  0  0  0
 16 17  2  0  0  0
 16 21  1  0  0  0
 16 31  1  0  0  0
 17 18  1  0  0  0
 17101  1  0  0  0
 18 19  2  0  0  0
 18102  1  0  0  0
 19 20  1  0  0  0
 19 24  1  0  0  0
 20 21  2  0  0  0
 20103  1  0  0  0
 21 23  1  0  0  0
 22 28  1  0  0  0
 22 32  2  0  0  0
 26 27  1  0  0  0
 28104  1  0  0  0
 28105  1  0  0  0
 29106  1  0  0  0
 29107  1  0  0  0
 33 34  1  0  0  0
 33 66  1  0  0  0
 33 70  2  0  0  0
 34 36  1  0  0  0
 34 59  1  0  0  0
 34108  1  0  0  0
 35 44  2  0  0  0
 35 45  1  0  0  0
 35 68  1  0  0  0
 36 56  1  0  0  0
 36109  1  0  0  0
 37 39  1  0  0  0
 37 47  1  0  0  0
 37 66  1  0  0  0
 37110  1  0  0  0
 38 43  2  0  0  0
 38 46  1  0  0  0
 38 47  1  0  0  0
 39 64  1  0  0  0
 39 67  2  0  0  0
 40 52  1  0  0  0
 40 53  2  0  0  0
 40 58  1  0  0  0
 41111  1  0  0  0
 41112  1  0  0  0
 41113  1  0  0  0
 41 48  1  0  0  0
 42 43  1  0  0  0
 42 66  1  0  0  0
 42114  1  0  0  0
 42115  1  0  0  0
 43 44  1  0  0  0
 44116  1  0  0  0
 45 46  2  0  0  0
 45117  1  0  0  0
 46118  1  0  0  0
 47119  1  0  0  0
 47120  1  0  0  0
 48 56  1  0  0  0
 48 65  1  0  0  0
 48121  1  0  0  0
 49 50  1  0  0  0
 49 53  1  0  0  0
 49 64  1  0  0  0
 49122  1  0  0  0
 50 51  1  0  0  0
 50123  1  0  0  0
 50124  1  0  0  0
 51 52  1  0  0  0
 51125  1  0  0  0
 51126  1  0  0  0
 52127  1  0  0  0
 52128  1  0  0  0
 53 54  1  0  0  0
 54 55  2  0  0  0
 54129  1  0  0  0
 55 57  1  0  0  0
 55130  1  0  0  0
 56 69  2  0  0  0
 57 58  2  0  0  0
 57131  1  0  0  0
 58132  1  0  0  0
 59 60  1  0  0  0
 59 61  1  0  0  0
 59 62  1  0  0  0
 60133  1  0  0  0
 60134  1  0  0  0
 60135  1  0  0  0
 61136  1  0  0  0
 61137  1  0  0  0
 61138  1  0  0  0
 62139  1  0  0  0
 62140  1  0  0  0
 62141  1  0  0  0
 63 65  1  0  0  0
 63142  1  0  0  0
 63143  1  0  0  0
 63144  1  0  0  0
 64145  1  0  0  0
 65146  1  0  0  0
 68 85  1  0  0  0
 71 72  2  0  0  0
 71 74  1  0  0  0
 71147  1  0  0  0
 72 73  1  0  0  0
 72 80  1  0  0  0
 73 75  2  0  0  0
 73 84  1  0  0  0
 74 85  1  0  0  0
 74 86  2  0  0  0
 75 81  1  0  0  0
 75 86  1  0  0  0
 76 82  1  0  0  0
 76148  1  0  0  0
 76149  1  0  0  0
 76150  1  0  0  0
 77151  1  0  0  0
 77152  1  0  0  0
 77153  1  0  0  0
 77 84  1  0  0  0
 78 84  1  0  0  0
 78154  1  0  0  0
 78155  1  0  0  0
 78156  1  0  0  0
 79157  1  0  0  0
 79158  1  0  0  0
 79159  1  0  0  0
 79 85  1  0  0  0
 80 82  1  0  0  0
 80160  1  0  0  0
 80161  1  0  0  0
 81 83  1  0  0  0
 81162  1  0  0  0
 81163  1  0  0  0
 82164  1  0  0  0
 82165  1  0  0  0
 83 87  1  0  0  0
 83166  1  0  0  0
 83167  1  0  0  0
 84168  1  0  0  0
 85169  1  0  0  0
 87170  1  0  0  0
M  ISO  4   1 100  68 101  85 101  87 100
M  END
> <chiral flag>
0

> <version>
0

> <s_m_source_file>
/data/baiqing/PycharmProjects/Reinvent-master-3.2/result/LINK_invent/BTK/process_docking_weight1_custom_sum_contain_oxygen_bond_distance_aromatic_linkinvent_7_9_3/rearranged_h_0087.sdf

> <i_m_source_file_index>
8

> <r_mmod_Potential_Energy-OPLS-2005>
542.249450683594

> <r_mmod_Stretch_Energy-OPLS-2005>
339.081787109375

> <r_mmod_Bend_Energy-OPLS-2005>
303.834625244141

> <r_mmod_Torsional_Energy-OPLS-2005>
227.180145263672

> <r_mmod_Improper_Torsional_Energy-OPLS-2005>
4.88248872756958

> <r_mmod_Van_der_Waal_Energy-OPLS-2005>
142.850128173828

> <r_mmod_Electrostatic_Energy-OPLS-2005>
-486.356781005859

> <r_mmod_Solvation_Energy-OPLS-2005>
-219.421752929688

> <b_mmod_Minimization_Converged-OPLS-2005>
0

> <r_mmod_RMS_Derivative-OPLS-2005>
4.6600866317749

$$$$
8
                    3D
 Structure written by MMmdl.
164172  0  0  1  0            999 V2000
  -30.6198  -14.6911   20.4736 C   0  0  0  0  0  0
  -30.4294  -12.4260   19.4571 C   0  0  0  0  0  0
  -29.5051  -12.5108   18.2237 C   0  0  0  0  0  0
  -28.0296  -12.3428   18.6383 C   0  0  0  0  0  0
  -27.6445  -13.2273   19.8542 C   0  0  2  0  0  0
  -28.6890  -13.1269   20.9865 C   0  0  0  0  0  0
  -25.2524  -13.8184   20.5707 C   0  0  0  0  0  0
  -24.1804  -13.0438   20.9224 C   0  0  0  0  0  0
  -24.6385  -11.6911   20.8747 C   0  0  0  0  0  0
  -23.9058  -10.4290   21.0410 C   0  0  0  0  0  0
  -24.3618   -9.4207   21.9184 C   0  0  0  0  0  0
  -23.6305   -8.2237   22.0743 C   0  0  0  0  0  0
  -22.4287   -8.0281   21.3538 C   0  0  0  0  0  0
  -21.9914   -9.0248   20.4639 C   0  0  0  0  0  0
  -22.7233  -10.2131   20.3057 C   0  0  0  0  0  0
  -21.6853   -6.0748   22.5280 C   0  0  0  0  0  0
  -21.4009   -6.5644   23.8217 C   0  0  0  0  0  0
  -21.3662   -5.6791   24.9174 C   0  0  0  0  0  0
  -21.6049   -4.3055   24.7219 C   0  0  0  0  0  0
  -21.8817   -3.8155   23.4335 C   0  0  0  0  0  0
  -21.9192   -4.6976   22.3397 C   0  0  0  0  0  0
  -22.7829  -13.5226   21.1887 C   0  0  0  0  0  0
  -22.1665   -4.2165   21.0975 F   0  0  0  0  0  0
  -21.5630   -3.4534   25.7726 F   0  0  0  0  0  0
  -29.9943  -13.4711   20.4089 N   0  0  0  0  0  0
  -26.2946  -12.9383   20.3292 N   0  0  0  0  0  0
  -25.9313  -11.6529   20.5738 N   0  0  0  0  0  0
  -22.0466  -12.8216   22.0436 N   0  0  0  0  0  0
  -25.4231  -15.1907   20.4118 N   0  0  0  0  0  0
  -31.8034  -14.8051   20.1429 O   0  0  0  0  0  0
  -21.6643   -6.8890   21.4245 O   0  0  0  0  0  0
  -22.3517  -14.5539   20.6741 O   0  0  0  0  0  0
  -24.6272  -31.8565   23.1989 C   0  0  0  0  0  0
  -25.9108  -32.4759   23.8329 C   0  0  1  0  0  0
  -27.2249  -27.2868   20.1211 C   0  0  0  0  0  0
  -25.5915  -33.8564   24.2254 N   0  0  0  0  0  0
  -23.4228  -30.4789   21.5409 C   0  0  2  0  0  0
  -24.8688  -28.9274   20.1089 C   0  0  0  0  0  0
  -22.7480  -29.4603   22.4906 C   0  0  0  0  0  0
  -18.0286  -28.1378   22.8481 C   0  0  0  0  0  0
  -24.1492  -36.7297   23.2642 C   0  0  0  0  0  0
  -25.9654  -30.7778   21.3742 C   0  0  0  0  0  0
  -26.0368  -29.4017   20.7169 C   0  0  0  0  0  0
  -27.2130  -28.5926   20.7123 C   0  0  0  0  0  0
  -26.0287  -26.8672   19.4959 C   0  0  0  0  0  0
  -24.8689  -27.6675   19.4896 C   0  0  0  0  0  0
  -23.6386  -29.8109   20.1568 C   0  0  0  0  0  0
  -25.4117  -36.3076   24.0327 C   0  0  1  0  0  0
  -20.5888  -28.3689   23.1268 C   0  0  2  0  0  0
  -20.6769  -26.9407   22.5406 C   0  0  0  0  0  0
  -19.5746  -26.6378   21.5206 C   0  0  0  0  0  0
  -18.1930  -26.7919   22.1622 C   0  0  0  0  0  0
  -19.1540  -28.8851   23.2873 C   0  0  0  0  0  0
  -18.9463  -30.1449   23.8893 C   0  0  0  0  0  0
  -17.6466  -30.6582   24.0558 C   0  0  0  0  0  0
  -25.9051  -34.9444   23.5099 C   0  0  0  0  0  0
  -16.5355  -29.9080   23.6325 C   0  0  0  0  0  0
  -16.7278  -28.6497   23.0352 C   0  0  0  0  0  0
  -26.4484  -31.6582   25.0715 C   0  0  0  0  0  0
  -25.3712  -31.3737   26.1441 C   0  0  0  0  0  0
  -27.0326  -30.2997   24.6197 C   0  0  0  0  0  0
  -27.6032  -32.4327   25.7490 C   0  0  0  0  0  0
  -27.5582  -37.1804   24.8461 C   0  0  0  0  0  0
  -21.4192  -29.3038   22.3656 N   0  0  0  0  0  0
  -26.4293  -37.3772   23.9403 N   0  0  0  0  0  0
  -24.6907  -31.0556   22.0946 N   0  0  0  0  0  0
  -23.4193  -28.8144   23.2997 O   0  0  0  0  0  0
  -28.3650  -26.4614   20.1911 O   0  0  0  0  0  0
  -26.5632  -34.8915   22.4670 O   0  0  0  0  0  0
  -23.5430  -32.1378   23.7302 O   0  0  0  0  0  0
  -28.8757  -21.1623   20.5370 C   0  0  0  0  0  0
  -29.4248  -22.4964   20.4009 C   0  0  0  0  0  0
  -30.8248  -22.5422   20.1159 C   0  0  0  0  0  0
  -29.6808  -19.9716   20.3863 C   0  0  0  0  0  0
  -31.5411  -21.3190   19.9546 C   0  0  0  0  0  0
  -31.9794  -24.3016   18.6423 C   0  0  0  0  0  0
  -33.3350  -20.7635   18.2334 C   0  0  0  0  0  0
  -28.6030  -23.8257   20.7388 C   0  0  0  0  0  0
  -31.5774  -23.8777   20.0648 C   0  0  0  0  0  0
  -29.1856  -18.4681   20.5251 C   0  0  0  0  0  0
  -33.0392  -21.2346   19.6658 C   0  0  0  0  0  0
  -30.2776  -17.2728   20.5842 C   0  0  0  0  0  0
  -28.4365  -25.0484   19.7006 C   0  0  0  0  0  0
  -30.9807  -20.0985   20.0768 N   0  0  0  0  0  0
  -29.8477  -15.8128   20.6994 N   0  0  0  0  0  0
  -31.4709  -12.5465   19.1540 H   0  0  0  0  0  0
  -30.3637  -11.4400   19.9188 H   0  0  0  0  0  0
  -29.7782  -11.7462   17.4946 H   0  0  0  0  0  0
  -29.6402  -13.4730   17.7261 H   0  0  0  0  0  0
  -27.8786  -11.2918   18.8865 H   0  0  0  0  0  0
  -27.3712  -12.5521   17.7944 H   0  0  0  0  0  0
  -27.6491  -14.2563   19.4934 H   0  0  0  0  0  0
  -28.7100  -12.1185   21.4028 H   0  0  0  0  0  0
  -28.4327  -13.7927   21.8116 H   0  0  0  0  0  0
  -25.2763   -9.5690   22.4757 H   0  0  0  0  0  0
  -24.0024   -7.4622   22.7450 H   0  0  0  0  0  0
  -21.0850   -8.8760   19.8936 H   0  0  0  0  0  0
  -22.3694  -10.9673   19.6163 H   0  0  0  0  0  0
  -21.1997   -7.6151   23.9733 H   0  0  0  0  0  0
  -21.1491   -6.0511   25.9080 H   0  0  0  0  0  0
  -22.0600   -2.7623   23.2824 H   0  0  0  0  0  0
  -22.4077  -11.9881   22.4835 H   0  0  0  0  0  0
  -21.1075  -13.1230   22.2620 H   0  0  0  0  0  0
  -24.6556  -15.8445   20.5219 H   0  0  0  0  0  0
  -26.2648  -15.6259   20.0560 H   0  0  0  0  0  0
  -26.7172  -32.5414   23.1067 H   0  0  0  0  0  0
  -25.0031  -33.9697   25.0379 H   0  0  0  0  0  0
  -22.7181  -31.3001   21.3952 H   0  0  0  0  0  0
  -23.3748  -35.9633   23.3295 H   0  0  0  0  0  0
  -24.3587  -36.8932   22.2060 H   0  0  0  0  0  0
  -23.7249  -37.6498   23.6674 H   0  0  0  0  0  0
  -26.1020  -31.5400   20.6057 H   0  0  0  0  0  0
  -26.8443  -30.8251   22.0058 H   0  0  0  0  0  0
  -28.1105  -28.9550   21.1943 H   0  0  0  0  0  0
  -25.9444  -25.9050   19.0193 H   0  0  0  0  0  0
  -23.9722  -27.2964   19.0114 H   0  0  0  0  0  0
  -23.7589  -30.5863   19.3990 H   0  0  0  0  0  0
  -22.7587  -29.2400   19.8545 H   0  0  0  0  0  0
  -25.1296  -36.1927   25.0820 H   0  0  0  0  0  0
  -20.9989  -28.3271   24.1384 H   0  0  0  0  0  0
  -20.5655  -26.2306   23.3612 H   0  0  0  0  0  0
  -21.6640  -26.7418   22.1209 H   0  0  0  0  0  0
  -19.6907  -25.6287   21.1241 H   0  0  0  0  0  0
  -19.6683  -27.3182   20.6730 H   0  0  0  0  0  0
  -17.4196  -26.6663   21.4028 H   0  0  0  0  0  0
  -18.0334  -26.0062   22.9022 H   0  0  0  0  0  0
  -19.7948  -30.7259   24.2266 H   0  0  0  0  0  0
  -17.5026  -31.6264   24.5160 H   0  0  0  0  0  0
  -15.5357  -30.2985   23.7650 H   0  0  0  0  0  0
  -15.8676  -28.0815   22.7067 H   0  0  0  0  0  0
  -24.5870  -30.7104   25.7771 H   0  0  0  0  0  0
  -24.8919  -32.2915   26.4864 H   0  0  0  0  0  0
  -25.8027  -30.8911   27.0220 H   0  0  0  0  0  0
  -26.2908  -29.6748   24.1214 H   0  0  0  0  0  0
  -27.3996  -29.7254   25.4715 H   0  0  0  0  0  0
  -27.8789  -30.4260   23.9439 H   0  0  0  0  0  0
  -27.2625  -33.3624   26.2058 H   0  0  0  0  0  0
  -28.3847  -32.6902   25.0327 H   0  0  0  0  0  0
  -28.0696  -31.8466   26.5418 H   0  0  0  0  0  0
  -28.2591  -38.0107   24.7504 H   0  0  0  0  0  0
  -28.1083  -36.2638   24.6284 H   0  0  0  0  0  0
  -27.2301  -37.1450   25.8864 H   0  0  0  0  0  0
  -20.9370  -29.8774   21.6876 H   0  0  0  0  0  0
  -26.0173  -38.2848   24.1395 H   0  0  0  0  0  0
  -27.8305  -21.0497   20.7947 H   0  0  0  0  0  0
  -32.4450  -25.2876   18.6522 H   0  0  0  0  0  0
  -31.1224  -24.3465   17.9708 H   0  0  0  0  0  0
  -32.7008  -23.6192   18.1989 H   0  0  0  0  0  0
  -34.4083  -20.6889   18.0609 H   0  0  0  0  0  0
  -32.9205  -21.4460   17.4922 H   0  0  0  0  0  0
  -32.9016  -19.7798   18.0504 H   0  0  0  0  0  0
  -29.0647  -24.2301   21.6397 H   0  0  0  0  0  0
  -27.6057  -23.5294   21.0633 H   0  0  0  0  0  0
  -32.4607  -23.8156   20.6996 H   0  0  0  0  0  0
  -31.0088  -24.6797   20.5282 H   0  0  0  0  0  0
  -28.5055  -18.2819   19.6939 H   0  0  0  0  0  0
  -28.5680  -18.4222   21.4227 H   0  0  0  0  0  0
  -33.4798  -20.5239   20.3665 H   0  0  0  0  0  0
  -33.5602  -22.1685   19.8624 H   0  0  0  0  0  0
  -30.9521  -17.4749   21.4171 H   0  0  0  0  0  0
  -30.8943  -17.3504   19.6872 H   0  0  0  0  0  0
  -27.6593  -24.7976   18.9845 H   0  0  0  0  0  0
  -29.3225  -25.0644   19.0750 H   0  0  0  0  0  0
  -28.8795  -15.6393   20.9239 H   0  0  0  0  0  0
  1 25  1  0  0  0
  1 30  2  0  0  0
  1 85  1  0  0  0
  2  3  1  0  0  0
  2 25  1  0  0  0
  2 86  1  0  0  0
  2 87  1  0  0  0
  3  4  1  0  0  0
  3 88  1  0  0  0
  3 89  1  0  0  0
  4  5  1  0  0  0
  4 90  1  0  0  0
  4 91  1  0  0  0
  5  6  1  0  0  0
  5 26  1  0  0  0
  5 92  1  0  0  0
  6 25  1  0  0  0
  6 93  1  0  0  0
  6 94  1  0  0  0
  7  8  2  0  0  0
  7 26  1  0  0  0
  7 29  1  0  0  0
  8  9  1  0  0  0
  8 22  1  0  0  0
  9 10  1  0  0  0
  9 27  2  0  0  0
 10 11  2  0  0  0
 10 15  1  0  0  0
 11 12  1  0  0  0
 11 95  1  0  0  0
 12 13  2  0  0  0
 12 96  1  0  0  0
 13 14  1  0  0  0
 13 31  1  0  0  0
 14 15  2  0  0  0
 14 97  1  0  0  0
 15 98  1  0  0  0
 16 17  2  0  0  0
 16 21  1  0  0  0
 16 31  1  0  0  0
 17 18  1  0  0  0
 17 99  1  0  0  0
 18 19  2  0  0  0
 18100  1  0  0  0
 19 20  1  0  0  0
 19 24  1  0  0  0
 20 21  2  0  0  0
 20101  1  0  0  0
 21 23  1  0  0  0
 22 28  1  0  0  0
 22 32  2  0  0  0
 26 27  1  0  0  0
 28102  1  0  0  0
 28103  1  0  0  0
 29104  1  0  0  0
 29105  1  0  0  0
 33 34  1  0  0  0
 33 66  1  0  0  0
 33 70  2  0  0  0
 34 36  1  0  0  0
 34 59  1  0  0  0
 34106  1  0  0  0
 35 44  2  0  0  0
 35 45  1  0  0  0
 35 68  1  0  0  0
 36 56  1  0  0  0
 36107  1  0  0  0
 37 39  1  0  0  0
 37 47  1  0  0  0
 37 66  1  0  0  0
 37108  1  0  0  0
 38 43  2  0  0  0
 38 46  1  0  0  0
 38 47  1  0  0  0
 39 64  1  0  0  0
 39 67  2  0  0  0
 40 52  1  0  0  0
 40 53  2  0  0  0
 40 58  1  0  0  0
 41109  1  0  0  0
 41110  1  0  0  0
 41111  1  0  0  0
 41 48  1  0  0  0
 42 43  1  0  0  0
 42 66  1  0  0  0
 42112  1  0  0  0
 42113  1  0  0  0
 43 44  1  0  0  0
 44114  1  0  0  0
 45 46  2  0  0  0
 45115  1  0  0  0
 46116  1  0  0  0
 47117  1  0  0  0
 47118  1  0  0  0
 48 56  1  0  0  0
 48 65  1  0  0  0
 48119  1  0  0  0
 49 50  1  0  0  0
 49 53  1  0  0  0
 49 64  1  0  0  0
 49120  1  0  0  0
 50 51  1  0  0  0
 50121  1  0  0  0
 50122  1  0  0  0
 51 52  1  0  0  0
 51123  1  0  0  0
 51124  1  0  0  0
 52125  1  0  0  0
 52126  1  0  0  0
 53 54  1  0  0  0
 54 55  2  0  0  0
 54127  1  0  0  0
 55 57  1  0  0  0
 55128  1  0  0  0
 56 69  2  0  0  0
 57 58  2  0  0  0
 57129  1  0  0  0
 58130  1  0  0  0
 59 60  1  0  0  0
 59 61  1  0  0  0
 59 62  1  0  0  0
 60131  1  0  0  0
 60132  1  0  0  0
 60133  1  0  0  0
 61134  1  0  0  0
 61135  1  0  0  0
 61136  1  0  0  0
 62137  1  0  0  0
 62138  1  0  0  0
 62139  1  0  0  0
 63 65  1  0  0  0
 63140  1  0  0  0
 63141  1  0  0  0
 63142  1  0  0  0
 64143  1  0  0  0
 65144  1  0  0  0
 68 83  1  0  0  0
 71 72  2  0  0  0
 71 74  1  0  0  0
 71145  1  0  0  0
 72 73  1  0  0  0
 72 78  1  0  0  0
 73 75  2  0  0  0
 73 79  1  0  0  0
 74 80  1  0  0  0
 74 84  2  0  0  0
 75 81  1  0  0  0
 75 84  1  0  0  0
 76 79  1  0  0  0
 76146  1  0  0  0
 76147  1  0  0  0
 76148  1  0  0  0
 77 81  1  0  0  0
 77149  1  0  0  0
 77150  1  0  0  0
 77151  1  0  0  0
 78 83  1  0  0  0
 78152  1  0  0  0
 78153  1  0  0  0
 79154  1  0  0  0
 79155  1  0  0  0
 80 82  1  0  0  0
 80156  1  0  0  0
 80157  1  0  0  0
 81158  1  0  0  0
 81159  1  0  0  0
 82 85  1  0  0  0
 82160  1  0  0  0
 82161  1  0  0  0
 83162  1  0  0  0
 83163  1  0  0  0
 85164  1  0  0  0
M  ISO  4   1 100  68 101  83 101  85 100
M  END
> <chiral flag>
0

> <version>
0

> <s_m_source_file>
/data/baiqing/PycharmProjects/Reinvent-master-3.2/result/LINK_invent/BTK/process_docking_weight1_custom_sum_contain_oxygen_bond_distance_aromatic_linkinvent_7_9_3/rearranged_h_0087.sdf

> <i_m_source_file_index>
9

> <r_mmod_Potential_Energy-OPLS-2005>
-22.2520408630371

> <r_mmod_Stretch_Energy-OPLS-2005>
111.711486816406

> <r_mmod_Bend_Energy-OPLS-2005>
168.231552124023

> <r_mmod_Torsional_Energy-OPLS-2005>
202.412551879883

> <r_mmod_Improper_Torsional_Energy-OPLS-2005>
5.84141111373901

> <r_mmod_Van_der_Waal_Energy-OPLS-2005>
147.83757019043

> <r_mmod_Electrostatic_Energy-OPLS-2005>
-497.389526367188

> <r_mmod_Solvation_Energy-OPLS-2005>
-224.772827148438

> <b_mmod_Minimization_Converged-OPLS-2005>
0

> <r_mmod_RMS_Derivative-OPLS-2005>
1.39139401912689

$$$$
9
                    3D
 Structure written by MMmdl.
170178  0  0  1  0            999 V2000
  -30.6120  -14.7249   20.4712 C   0  0  0  0  0  0
  -30.4307  -12.4445   19.4703 C   0  0  0  0  0  0
  -29.5054  -12.5045   18.2351 C   0  0  0  0  0  0
  -28.0317  -12.3379   18.6484 C   0  0  0  0  0  0
  -27.6446  -13.2292   19.8593 C   0  0  2  0  0  0
  -28.6895  -13.1472   20.9940 C   0  0  0  0  0  0
  -25.2522  -13.8185   20.5692 C   0  0  0  0  0  0
  -24.1800  -13.0449   20.9189 C   0  0  0  0  0  0
  -24.6394  -11.6921   20.8756 C   0  0  0  0  0  0
  -23.9066  -10.4295   21.0410 C   0  0  0  0  0  0
  -24.3623   -9.4213   21.9184 C   0  0  0  0  0  0
  -23.6306   -8.2240   22.0745 C   0  0  0  0  0  0
  -22.4285   -8.0277   21.3538 C   0  0  0  0  0  0
  -21.9926   -9.0247   20.4637 C   0  0  0  0  0  0
  -22.7241  -10.2137   20.3057 C   0  0  0  0  0  0
  -21.6857   -6.0751   22.5280 C   0  0  0  0  0  0
  -21.4020   -6.5657   23.8217 C   0  0  0  0  0  0
  -21.3660   -5.6807   24.9172 C   0  0  0  0  0  0
  -21.6035   -4.3062   24.7225 C   0  0  0  0  0  0
  -21.8820   -3.8163   23.4347 C   0  0  0  0  0  0
  -21.9202   -4.6977   22.3408 C   0  0  0  0  0  0
  -22.7822  -13.5233   21.1834 C   0  0  0  0  0  0
  -22.1661   -4.2166   21.0982 F   0  0  0  0  0  0
  -21.5628   -3.4543   25.7734 F   0  0  0  0  0  0
  -29.9897  -13.4997   20.4117 N   0  0  0  0  0  0
  -26.2953  -12.9398   20.3335 N   0  0  0  0  0  0
  -25.9330  -11.6542   20.5791 N   0  0  0  0  0  0
  -22.0490  -12.8215   22.0395 N   0  0  0  0  0  0
  -25.4224  -15.1898   20.4101 N   0  0  0  0  0  0
  -31.7961  -14.8302   20.1363 O   0  0  0  0  0  0
  -21.6644   -6.8880   21.4234 O   0  0  0  0  0  0
  -22.3509  -14.5550   20.6704 O   0  0  0  0  0  0
  -24.6288  -31.8555   23.1973 C   0  0  0  0  0  0
  -25.9122  -32.4754   23.8318 C   0  0  1  0  0  0
  -27.2245  -27.2747   20.1507 C   0  0  0  0  0  0
  -25.5921  -33.8555   24.2241 N   0  0  0  0  0  0
  -23.4253  -30.4743   21.5408 C   0  0  2  0  0  0
  -24.8737  -28.9142   20.1176 C   0  0  0  0  0  0
  -22.7480  -29.4603   22.4928 C   0  0  0  0  0  0
  -18.0290  -28.1378   22.8483 C   0  0  0  0  0  0
  -24.1497  -36.7285   23.2640 C   0  0  0  0  0  0
  -25.9664  -30.7763   21.3696 C   0  0  0  0  0  0
  -26.0425  -29.3957   20.7215 C   0  0  0  0  0  0
  -27.2229  -28.5905   20.7189 C   0  0  0  0  0  0
  -26.0359  -26.8473   19.5258 C   0  0  0  0  0  0
  -24.8736  -27.6471   19.5083 C   0  0  0  0  0  0
  -23.6429  -29.7995   20.1598 C   0  0  0  0  0  0
  -25.4121  -36.3063   24.0317 C   0  0  1  0  0  0
  -20.5889  -28.3688   23.1281 C   0  0  2  0  0  0
  -20.6783  -26.9405   22.5417 C   0  0  0  0  0  0
  -19.5758  -26.6381   21.5217 C   0  0  0  0  0  0
  -18.1935  -26.7922   22.1621 C   0  0  0  0  0  0
  -19.1540  -28.8849   23.2883 C   0  0  0  0  0  0
  -18.9460  -30.1455   23.8887 C   0  0  0  0  0  0
  -17.6458  -30.6584   24.0558 C   0  0  0  0  0  0
  -25.9055  -34.9435   23.5087 C   0  0  0  0  0  0
  -16.5352  -29.9077   23.6330 C   0  0  0  0  0  0
  -16.7276  -28.6502   23.0346 C   0  0  0  0  0  0
  -26.4495  -31.6568   25.0698 C   0  0  0  0  0  0
  -25.3728  -31.3709   26.1426 C   0  0  0  0  0  0
  -27.0339  -30.2994   24.6154 C   0  0  0  0  0  0
  -27.6043  -32.4312   25.7479 C   0  0  0  0  0  0
  -27.5576  -37.1791   24.8459 C   0  0  0  0  0  0
  -21.4189  -29.3043   22.3671 N   0  0  0  0  0  0
  -26.4289  -37.3767   23.9405 N   0  0  0  0  0  0
  -24.6925  -31.0540   22.0924 N   0  0  0  0  0  0
  -23.4182  -28.8155   23.3033 O   0  0  0  0  0  0
  -28.3372  -26.4136   20.1614 O   0  0  0  0  0  0
  -26.5633  -34.8911   22.4661 O   0  0  0  0  0  0
  -23.5449  -32.1372   23.7283 O   0  0  0  0  0  0
  -29.0197  -21.5030   17.8973 C   0  0  0  0  0  0
  -29.0004  -21.0369   19.2363 C   0  0  0  0  0  0
  -29.0197  -20.6705   16.7557 C   0  0  0  0  0  0
  -29.1326  -19.5750   19.3728 C   0  0  0  0  0  0
  -29.0169  -19.2815   17.0255 C   0  0  0  0  0  0
  -28.9431  -18.1764   15.9830 C   0  0  0  0  0  0
  -28.7732  -22.8327   15.3376 C   0  0  0  0  0  0
  -27.8954  -20.7274   14.4334 C   0  0  0  0  0  0
  -30.3953  -21.1021   14.6641 C   0  0  0  0  0  0
  -28.7816  -22.2011   20.3147 C   0  0  0  0  0  0
  -29.2442  -18.5868   20.6047 C   0  0  0  0  0  0
  -28.6149  -23.7482   19.7743 C   0  0  0  0  0  0
  -30.2720  -17.3159   20.4762 C   0  0  0  0  0  0
  -28.2061  -25.0123   20.6853 C   0  0  0  0  0  0
  -29.0180  -21.3010   15.3283 C   0  0  0  0  0  0
  -29.0730  -18.7953   18.2740 N   0  0  0  0  0  0
  -29.8471  -15.8587   20.6953 N   0  0  0  0  0  0
  -31.4696  -12.5719   19.1625 H   0  0  0  0  0  0
  -30.3761  -11.4637   19.9443 H   0  0  0  0  0  0
  -29.7804  -11.7312   17.5186 H   0  0  0  0  0  0
  -29.6317  -13.4565   17.7182 H   0  0  0  0  0  0
  -27.8731  -11.2874   18.8905 H   0  0  0  0  0  0
  -27.3774  -12.5523   17.8026 H   0  0  0  0  0  0
  -27.6431  -14.2538   19.4889 H   0  0  0  0  0  0
  -28.7217  -12.1444   21.4214 H   0  0  0  0  0  0
  -28.4285  -13.8175   21.8146 H   0  0  0  0  0  0
  -25.2772   -9.5699   22.4755 H   0  0  0  0  0  0
  -24.0022   -7.4639   22.7485 H   0  0  0  0  0  0
  -21.0856   -8.8782   19.8951 H   0  0  0  0  0  0
  -22.3700  -10.9685   19.6172 H   0  0  0  0  0  0
  -21.2009   -7.6165   23.9723 H   0  0  0  0  0  0
  -21.1473   -6.0534   25.9077 H   0  0  0  0  0  0
  -22.0599   -2.7622   23.2841 H   0  0  0  0  0  0
  -22.4151  -11.9895   22.4770 H   0  0  0  0  0  0
  -21.1112  -13.1216   22.2632 H   0  0  0  0  0  0
  -24.6531  -15.8406   20.5194 H   0  0  0  0  0  0
  -26.2645  -15.6285   20.0588 H   0  0  0  0  0  0
  -26.7183  -32.5425   23.1061 H   0  0  0  0  0  0
  -25.0061  -33.9696   25.0375 H   0  0  0  0  0  0
  -22.7213  -31.2951   21.3912 H   0  0  0  0  0  0
  -23.3751  -35.9626   23.3299 H   0  0  0  0  0  0
  -24.3584  -36.8927   22.2057 H   0  0  0  0  0  0
  -23.7255  -37.6486   23.6676 H   0  0  0  0  0  0
  -26.0967  -31.5320   20.5935 H   0  0  0  0  0  0
  -26.8473  -30.8337   21.9964 H   0  0  0  0  0  0
  -28.1242  -28.9579   21.1888 H   0  0  0  0  0  0
  -26.0039  -25.8737   19.0576 H   0  0  0  0  0  0
  -23.9766  -27.2694   19.0362 H   0  0  0  0  0  0
  -23.7632  -30.5708   19.3991 H   0  0  0  0  0  0
  -22.7617  -29.2289   19.8605 H   0  0  0  0  0  0
  -25.1302  -36.1908   25.0805 H   0  0  0  0  0  0
  -20.9979  -28.3276   24.1404 H   0  0  0  0  0  0
  -20.5686  -26.2288   23.3622 H   0  0  0  0  0  0
  -21.6649  -26.7429   22.1203 H   0  0  0  0  0  0
  -19.6918  -25.6291   21.1253 H   0  0  0  0  0  0
  -19.6705  -27.3186   20.6744 H   0  0  0  0  0  0
  -17.4205  -26.6666   21.4033 H   0  0  0  0  0  0
  -18.0326  -26.0070   22.9016 H   0  0  0  0  0  0
  -19.7942  -30.7282   24.2234 H   0  0  0  0  0  0
  -17.5018  -31.6257   24.5168 H   0  0  0  0  0  0
  -15.5353  -30.2972   23.7674 H   0  0  0  0  0  0
  -15.8677  -28.0828   22.7046 H   0  0  0  0  0  0
  -24.5890  -30.7072   25.7755 H   0  0  0  0  0  0
  -24.8935  -32.2883   26.4861 H   0  0  0  0  0  0
  -25.8065  -30.8875   27.0194 H   0  0  0  0  0  0
  -26.2911  -29.6734   24.1195 H   0  0  0  0  0  0
  -27.4066  -29.7255   25.4652 H   0  0  0  0  0  0
  -27.8770  -30.4288   23.9359 H   0  0  0  0  0  0
  -27.2634  -33.3614   26.2048 H   0  0  0  0  0  0
  -28.3863  -32.6875   25.0308 H   0  0  0  0  0  0
  -28.0698  -31.8434   26.5410 H   0  0  0  0  0  0
  -28.2574  -38.0102   24.7502 H   0  0  0  0  0  0
  -28.1086  -36.2629   24.6286 H   0  0  0  0  0  0
  -27.2290  -37.1437   25.8860 H   0  0  0  0  0  0
  -20.9360  -29.8763   21.6882 H   0  0  0  0  0  0
  -26.0164  -38.2840   24.1413 H   0  0  0  0  0  0
  -29.0188  -22.5566   17.7241 H   0  0  0  0  0  0
  -29.5754  -18.3532   15.1191 H   0  0  0  0  0  0
  -27.9144  -18.0474   15.6489 H   0  0  0  0  0  0
  -29.2572  -17.2201   16.4007 H   0  0  0  0  0  0
  -27.8294  -23.0932   15.8196 H   0  0  0  0  0  0
  -28.7302  -23.2349   14.3237 H   0  0  0  0  0  0
  -29.5768  -23.3799   15.8337 H   0  0  0  0  0  0
  -26.9240  -20.7876   14.9257 H   0  0  0  0  0  0
  -28.0531  -19.6979   14.1284 H   0  0  0  0  0  0
  -27.8134  -21.2867   13.5004 H   0  0  0  0  0  0
  -31.1861  -21.5767   15.2473 H   0  0  0  0  0  0
  -30.4204  -21.5450   13.6668 H   0  0  0  0  0  0
  -30.6713  -20.0582   14.5452 H   0  0  0  0  0  0
  -29.6003  -22.1578   21.0344 H   0  0  0  0  0  0
  -27.8821  -21.9446   20.8753 H   0  0  0  0  0  0
  -28.2418  -18.2177   20.8280 H   0  0  0  0  0  0
  -29.5307  -19.1809   21.4733 H   0  0  0  0  0  0
  -27.8564  -23.7451   18.9919 H   0  0  0  0  0  0
  -29.5518  -24.0191   19.2873 H   0  0  0  0  0  0
  -31.0909  -17.5016   21.1718 H   0  0  0  0  0  0
  -30.7602  -17.3515   19.5020 H   0  0  0  0  0  0
  -28.8463  -24.9782   21.5666 H   0  0  0  0  0  0
  -27.1961  -24.8588   21.0693 H   0  0  0  0  0  0
  -28.8791  -15.6989   20.9293 H   0  0  0  0  0  0
  1 25  1  0  0  0
  1 30  2  0  0  0
  1 87  1  0  0  0
  2  3  1  0  0  0
  2 25  1  0  0  0
  2 88  1  0  0  0
  2 89  1  0  0  0
  3  4  1  0  0  0
  3 90  1  0  0  0
  3 91  1  0  0  0
  4  5  1  0  0  0
  4 92  1  0  0  0
  4 93  1  0  0  0
  5  6  1  0  0  0
  5 26  1  0  0  0
  5 94  1  0  0  0
  6 25  1  0  0  0
  6 95  1  0  0  0
  6 96  1  0  0  0
  7  8  2  0  0  0
  7 26  1  0  0  0
  7 29  1  0  0  0
  8  9  1  0  0  0
  8 22  1  0  0  0
  9 10  1  0  0  0
  9 27  2  0  0  0
 10 11  2  0  0  0
 10 15  1  0  0  0
 11 12  1  0  0  0
 11 97  1  0  0  0
 12 13  2  0  0  0
 12 98  1  0  0  0
 13 14  1  0  0  0
 13 31  1  0  0  0
 14 15  2  0  0  0
 14 99  1  0  0  0
 15100  1  0  0  0
 16 17  2  0  0  0
 16 21  1  0  0  0
 16 31  1  0  0  0
 17 18  1  0  0  0
 17101  1  0  0  0
 18 19  2  0  0  0
 18102  1  0  0  0
 19 20  1  0  0  0
 19 24  1  0  0  0
 20 21  2  0  0  0
 20103  1  0  0  0
 21 23  1  0  0  0
 22 28  1  0  0  0
 22 32  2  0  0  0
 26 27  1  0  0  0
 28104  1  0  0  0
 28105  1  0  0  0
 29106  1  0  0  0
 29107  1  0  0  0
 33 34  1  0  0  0
 33 66  1  0  0  0
 33 70  2  0  0  0
 34 36  1  0  0  0
 34 59  1  0  0  0
 34108  1  0  0  0
 35 44  2  0  0  0
 35 45  1  0  0  0
 35 68  1  0  0  0
 36 56  1  0  0  0
 36109  1  0  0  0
 37 39  1  0  0  0
 37 47  1  0  0  0
 37 66  1  0  0  0
 37110  1  0  0  0
 38 43  2  0  0  0
 38 46  1  0  0  0
 38 47  1  0  0  0
 39 64  1  0  0  0
 39 67  2  0  0  0
 40 52  1  0  0  0
 40 53  2  0  0  0
 40 58  1  0  0  0
 41111  1  0  0  0
 41112  1  0  0  0
 41113  1  0  0  0
 41 48  1  0  0  0
 42 43  1  0  0  0
 42 66  1  0  0  0
 42114  1  0  0  0
 42115  1  0  0  0
 43 44  1  0  0  0
 44116  1  0  0  0
 45 46  2  0  0  0
 45117  1  0  0  0
 46118  1  0  0  0
 47119  1  0  0  0
 47120  1  0  0  0
 48 56  1  0  0  0
 48 65  1  0  0  0
 48121  1  0  0  0
 49 50  1  0  0  0
 49 53  1  0  0  0
 49 64  1  0  0  0
 49122  1  0  0  0
 50 51  1  0  0  0
 50123  1  0  0  0
 50124  1  0  0  0
 51 52  1  0  0  0
 51125  1  0  0  0
 51126  1  0  0  0
 52127  1  0  0  0
 52128  1  0  0  0
 53 54  1  0  0  0
 54 55  2  0  0  0
 54129  1  0  0  0
 55 57  1  0  0  0
 55130  1  0  0  0
 56 69  2  0  0  0
 57 58  2  0  0  0
 57131  1  0  0  0
 58132  1  0  0  0
 59 60  1  0  0  0
 59 61  1  0  0  0
 59 62  1  0  0  0
 60133  1  0  0  0
 60134  1  0  0  0
 60135  1  0  0  0
 61136  1  0  0  0
 61137  1  0  0  0
 61138  1  0  0  0
 62139  1  0  0  0
 62140  1  0  0  0
 62141  1  0  0  0
 63 65  1  0  0  0
 63142  1  0  0  0
 63143  1  0  0  0
 63144  1  0  0  0
 64145  1  0  0  0
 65146  1  0  0  0
 68 84  1  0  0  0
 71 72  2  0  0  0
 71 73  1  0  0  0
 71147  1  0  0  0
 72 74  1  0  0  0
 72 80  1  0  0  0
 73 75  2  0  0  0
 73 85  1  0  0  0
 74 81  1  0  0  0
 74 86  2  0  0  0
 75 76  1  0  0  0
 75 86  1  0  0  0
 76148  1  0  0  0
 76149  1  0  0  0
 76150  1  0  0  0
 77151  1  0  0  0
 77152  1  0  0  0
 77153  1  0  0  0
 77 85  1  0  0  0
 78 85  1  0  0  0
 78154  1  0  0  0
 78155  1  0  0  0
 78156  1  0  0  0
 79 85  1  0  0  0
 79157  1  0  0  0
 79158  1  0  0  0
 79159  1  0  0  0
 80 82  1  0  0  0
 80160  1  0  0  0
 80161  1  0  0  0
 81 83  1  0  0  0
 81162  1  0  0  0
 81163  1  0  0  0
 82 84  1  0  0  0
 82164  1  0  0  0
 82165  1  0  0  0
 83 87  1  0  0  0
 83166  1  0  0  0
 83167  1  0  0  0
 84168  1  0  0  0
 84169  1  0  0  0
 87170  1  0  0  0
M  ISO  4   1 100  68 101  84 101  87 100
M  END
> <chiral flag>
0

> <version>
0

> <s_m_source_file>
/data/baiqing/PycharmProjects/Reinvent-master-3.2/result/LINK_invent/BTK/process_docking_weight1_custom_sum_contain_oxygen_bond_distance_aromatic_linkinvent_7_9_3/rearranged_h_0087.sdf

> <i_m_source_file_index>
10

> <r_mmod_Potential_Energy-OPLS-2005>
122.655838012695

> <r_mmod_Stretch_Energy-OPLS-2005>
139.183258056641

> <r_mmod_Bend_Energy-OPLS-2005>
224.543869018555

> <r_mmod_Torsional_Energy-OPLS-2005>
241.108489990234

> <r_mmod_Improper_Torsional_Energy-OPLS-2005>
5.14282274246216

> <r_mmod_Van_der_Waal_Energy-OPLS-2005>
163.063491821289

> <r_mmod_Electrostatic_Energy-OPLS-2005>
-508.433654785156

> <r_mmod_Solvation_Energy-OPLS-2005>
-216.151062011719

> <b_mmod_Minimization_Converged-OPLS-2005>
0

> <r_mmod_RMS_Derivative-OPLS-2005>
2.38142800331116

$$$$
10
                    3D
 Structure written by MMmdl.
167175  0  0  1  0            999 V2000
  -30.6278  -14.6959   20.4796 C   0  0  0  0  0  0
  -30.4302  -12.4296   19.4642 C   0  0  0  0  0  0
  -29.5070  -12.5150   18.2293 C   0  0  0  0  0  0
  -28.0328  -12.3401   18.6419 C   0  0  0  0  0  0
  -27.6443  -13.2287   19.8549 C   0  0  2  0  0  0
  -28.6889  -13.1378   20.9892 C   0  0  0  0  0  0
  -25.2514  -13.8196   20.5685 C   0  0  0  0  0  0
  -24.1803  -13.0439   20.9197 C   0  0  0  0  0  0
  -24.6400  -11.6920   20.8750 C   0  0  0  0  0  0
  -23.9078  -10.4296   21.0417 C   0  0  0  0  0  0
  -24.3634   -9.4211   21.9190 C   0  0  0  0  0  0
  -23.6304   -8.2248   22.0755 C   0  0  0  0  0  0
  -22.4283   -8.0289   21.3548 C   0  0  0  0  0  0
  -21.9923   -9.0259   20.4647 C   0  0  0  0  0  0
  -22.7254  -10.2138   20.3062 C   0  0  0  0  0  0
  -21.6855   -6.0747   22.5287 C   0  0  0  0  0  0
  -21.4012   -6.5645   23.8220 C   0  0  0  0  0  0
  -21.3657   -5.6795   24.9179 C   0  0  0  0  0  0
  -21.6051   -4.3060   24.7229 C   0  0  0  0  0  0
  -21.8818   -3.8156   23.4346 C   0  0  0  0  0  0
  -21.9189   -4.6976   22.3404 C   0  0  0  0  0  0
  -22.7825  -13.5218   21.1861 C   0  0  0  0  0  0
  -22.1658   -4.2166   21.0980 F   0  0  0  0  0  0
  -21.5628   -3.4537   25.7739 F   0  0  0  0  0  0
  -29.9950  -13.4795   20.4121 N   0  0  0  0  0  0
  -26.2948  -12.9397   20.3300 N   0  0  0  0  0  0
  -25.9328  -11.6541   20.5759 N   0  0  0  0  0  0
  -22.0471  -12.8210   22.0422 N   0  0  0  0  0  0
  -25.4192  -15.1919   20.4082 N   0  0  0  0  0  0
  -31.8101  -14.8036   20.1435 O   0  0  0  0  0  0
  -21.6639   -6.8892   21.4248 O   0  0  0  0  0  0
  -22.3509  -14.5526   20.6712 O   0  0  0  0  0  0
  -24.6289  -31.8566   23.2003 C   0  0  0  0  0  0
  -25.9128  -32.4756   23.8334 C   0  0  1  0  0  0
  -27.2194  -27.2799   20.1174 C   0  0  0  0  0  0
  -25.5935  -33.8562   24.2256 N   0  0  0  0  0  0
  -23.4232  -30.4799   21.5444 C   0  0  2  0  0  0
  -24.8676  -28.9306   20.1092 C   0  0  0  0  0  0
  -22.7483  -29.4605   22.4935 C   0  0  0  0  0  0
  -18.0281  -28.1389   22.8479 C   0  0  0  0  0  0
  -24.1492  -36.7289   23.2638 C   0  0  0  0  0  0
  -25.9670  -30.7743   21.3768 C   0  0  0  0  0  0
  -26.0372  -29.3989   20.7187 C   0  0  0  0  0  0
  -27.2114  -28.5841   20.7147 C   0  0  0  0  0  0
  -26.0243  -26.8780   19.4762 C   0  0  0  0  0  0
  -24.8653  -27.6781   19.4797 C   0  0  0  0  0  0
  -23.6382  -29.8156   20.1592 C   0  0  0  0  0  0
  -25.4119  -36.3070   24.0320 C   0  0  1  0  0  0
  -20.5881  -28.3690   23.1284 C   0  0  2  0  0  0
  -20.6774  -26.9412   22.5412 C   0  0  0  0  0  0
  -19.5753  -26.6384   21.5213 C   0  0  0  0  0  0
  -18.1931  -26.7930   22.1620 C   0  0  0  0  0  0
  -19.1533  -28.8859   23.2873 C   0  0  0  0  0  0
  -18.9458  -30.1464   23.8888 C   0  0  0  0  0  0
  -17.6458  -30.6592   24.0562 C   0  0  0  0  0  0
  -25.9057  -34.9440   23.5089 C   0  0  0  0  0  0
  -16.5347  -29.9089   23.6331 C   0  0  0  0  0  0
  -16.7269  -28.6507   23.0347 C   0  0  0  0  0  0
  -26.4498  -31.6580   25.0722 C   0  0  0  0  0  0
  -25.3726  -31.3722   26.1444 C   0  0  0  0  0  0
  -27.0345  -30.3000   24.6202 C   0  0  0  0  0  0
  -27.6052  -32.4315   25.7499 C   0  0  0  0  0  0
  -27.5578  -37.1801   24.8460 C   0  0  0  0  0  0
  -21.4194  -29.3038   22.3682 N   0  0  0  0  0  0
  -26.4292  -37.3771   23.9402 N   0  0  0  0  0  0
  -24.6922  -31.0547   22.0970 N   0  0  0  0  0  0
  -23.4196  -28.8151   23.3030 O   0  0  0  0  0  0
  -28.3484  -26.4359   20.1972 O   0  0  0  0  0  0
  -26.5634  -34.8913   22.4660 O   0  0  0  0  0  0
  -23.5448  -32.1381   23.7318 O   0  0  0  0  0  0
  -29.0117  -21.1639   20.5736 C   0  0  0  0  0  0
  -29.5187  -22.4816   20.2449 C   0  0  0  0  0  0
  -30.7759  -22.4902   19.5672 C   0  0  0  0  0  0
  -29.7177  -19.9509   20.2268 C   0  0  0  0  0  0
  -31.3901  -21.2482   19.2302 C   0  0  0  0  0  0
  -31.4691  -24.1943   17.7724 C   0  0  0  0  0  0
  -32.5959  -20.6085   17.0795 C   0  0  0  0  0  0
  -28.2497  -18.0882   19.2829 C   0  0  0  0  0  0
  -28.8415  -23.8393   20.7462 C   0  0  0  0  0  0
  -31.4987  -23.8084   19.2607 C   0  0  0  0  0  0
  -32.7360  -21.1286   18.5178 C   0  0  0  0  0  0
  -30.2971  -17.2827   20.6307 C   0  0  0  0  0  0
  -28.3727  -25.0076   19.7393 C   0  0  0  0  0  0
  -29.2000  -18.4584   20.4325 C   0  0  1  0  0  0
  -30.8630  -20.0434   19.5320 N   0  0  0  0  0  0
  -29.8656  -15.8201   20.7234 N   0  0  0  0  0  0
  -31.4728  -12.5477   19.1634 H   0  0  0  0  0  0
  -30.3641  -11.4466   19.9319 H   0  0  0  0  0  0
  -29.7837  -11.7580   17.4938 H   0  0  0  0  0  0
  -29.6387  -13.4817   17.7400 H   0  0  0  0  0  0
  -27.8832  -11.2879   18.8884 H   0  0  0  0  0  0
  -27.3765  -12.5486   17.7965 H   0  0  0  0  0  0
  -27.6467  -14.2560   19.4898 H   0  0  0  0  0  0
  -28.7146  -12.1335   21.4143 H   0  0  0  0  0  0
  -28.4318  -13.8082   21.8108 H   0  0  0  0  0  0
  -25.2786   -9.5680   22.4756 H   0  0  0  0  0  0
  -24.0017   -7.4638   22.7471 H   0  0  0  0  0  0
  -21.0856   -8.8781   19.8950 H   0  0  0  0  0  0
  -22.3723  -10.9673   19.6168 H   0  0  0  0  0  0
  -21.2006   -7.6153   23.9730 H   0  0  0  0  0  0
  -21.1475   -6.0523   25.9084 H   0  0  0  0  0  0
  -22.0599   -2.7620   23.2840 H   0  0  0  0  0  0
  -22.4077  -11.9864   22.4806 H   0  0  0  0  0  0
  -21.1092  -13.1240   22.2635 H   0  0  0  0  0  0
  -24.6473  -15.8417   20.5080 H   0  0  0  0  0  0
  -26.2613  -15.6307   20.0614 H   0  0  0  0  0  0
  -26.7198  -32.5401   23.1078 H   0  0  0  0  0  0
  -25.0057  -33.9700   25.0384 H   0  0  0  0  0  0
  -22.7185  -31.3015   21.4014 H   0  0  0  0  0  0
  -23.3751  -35.9624   23.3291 H   0  0  0  0  0  0
  -24.3581  -36.8926   22.2053 H   0  0  0  0  0  0
  -23.7252  -37.6490   23.6673 H   0  0  0  0  0  0
  -26.1037  -31.5363   20.6080 H   0  0  0  0  0  0
  -26.8457  -30.8216   22.0082 H   0  0  0  0  0  0
  -28.1062  -28.9392   21.2063 H   0  0  0  0  0  0
  -25.9298  -25.9339   18.9679 H   0  0  0  0  0  0
  -23.9698  -27.3155   18.9941 H   0  0  0  0  0  0
  -23.7610  -30.5927   19.4040 H   0  0  0  0  0  0
  -22.7564  -29.2488   19.8545 H   0  0  0  0  0  0
  -25.1306  -36.1910   25.0815 H   0  0  0  0  0  0
  -20.9961  -28.3259   24.1408 H   0  0  0  0  0  0
  -20.5679  -26.2294   23.3609 H   0  0  0  0  0  0
  -21.6644  -26.7447   22.1204 H   0  0  0  0  0  0
  -19.6916  -25.6292   21.1250 H   0  0  0  0  0  0
  -19.6699  -27.3189   20.6741 H   0  0  0  0  0  0
  -17.4200  -26.6667   21.4023 H   0  0  0  0  0  0
  -18.0335  -26.0079   22.9025 H   0  0  0  0  0  0
  -19.7935  -30.7286   24.2246 H   0  0  0  0  0  0
  -17.5011  -31.6268   24.5170 H   0  0  0  0  0  0
  -15.5350  -30.2990   23.7666 H   0  0  0  0  0  0
  -15.8664  -28.0835   22.7060 H   0  0  0  0  0  0
  -24.5904  -30.7070   25.7766 H   0  0  0  0  0  0
  -24.8915  -32.2888   26.4868 H   0  0  0  0  0  0
  -25.8048  -30.8897   27.0219 H   0  0  0  0  0  0
  -26.2926  -29.6747   24.1223 H   0  0  0  0  0  0
  -27.4021  -29.7265   25.4720 H   0  0  0  0  0  0
  -27.8804  -30.4275   23.9445 H   0  0  0  0  0  0
  -27.2663  -33.3615   26.2076 H   0  0  0  0  0  0
  -28.3871  -32.6873   25.0337 H   0  0  0  0  0  0
  -28.0711  -31.8438   26.5420 H   0  0  0  0  0  0
  -28.2589  -38.0105   24.7511 H   0  0  0  0  0  0
  -28.1084  -36.2634   24.6283 H   0  0  0  0  0  0
  -27.2294  -37.1445   25.8863 H   0  0  0  0  0  0
  -20.9377  -29.8760   21.6889 H   0  0  0  0  0  0
  -26.0164  -38.2840   24.1413 H   0  0  0  0  0  0
  -28.0749  -21.0810   21.1076 H   0  0  0  0  0  0
  -31.8982  -25.1855   17.6244 H   0  0  0  0  0  0
  -30.4547  -24.2113   17.3754 H   0  0  0  0  0  0
  -32.0441  -23.5057   17.1569 H   0  0  0  0  0  0
  -33.5675  -20.5502   16.5889 H   0  0  0  0  0  0
  -31.9570  -21.2597   16.4840 H   0  0  0  0  0  0
  -32.1552  -19.6112   17.0682 H   0  0  0  0  0  0
  -27.4398  -18.8136   19.2023 H   0  0  0  0  0  0
  -27.7976  -17.1081   19.4276 H   0  0  0  0  0  0
  -28.7773  -18.0750   18.3296 H   0  0  0  0  0  0
  -29.5439  -24.2795   21.4537 H   0  0  0  0  0  0
  -27.9836  -23.5723   21.3631 H   0  0  0  0  0  0
  -32.5300  -23.7414   19.6062 H   0  0  0  0  0  0
  -31.1031  -24.6324   19.8494 H   0  0  0  0  0  0
  -33.3635  -20.4419   19.0879 H   0  0  0  0  0  0
  -33.2915  -22.0621   18.5091 H   0  0  0  0  0  0
  -30.8850  -17.5084   21.5210 H   0  0  0  0  0  0
  -31.0009  -17.3489   19.7997 H   0  0  0  0  0  0
  -27.4422  -24.6679   19.2984 H   0  0  0  0  0  0
  -29.0553  -25.0268   18.8963 H   0  0  0  0  0  0
  -28.6034  -18.4850   21.3452 H   0  0  0  0  0  0
  -28.8997  -15.6509   20.9588 H   0  0  0  0  0  0
  1 25  1  0  0  0
  1 30  2  0  0  0
  1 86  1  0  0  0
  2  3  1  0  0  0
  2 25  1  0  0  0
  2 87  1  0  0  0
  2 88  1  0  0  0
  3  4  1  0  0  0
  3 89  1  0  0  0
  3 90  1  0  0  0
  4  5  1  0  0  0
  4 91  1  0  0  0
  4 92  1  0  0  0
  5  6  1  0  0  0
  5 26  1  0  0  0
  5 93  1  0  0  0
  6 25  1  0  0  0
  6 94  1  0  0  0
  6 95  1  0  0  0
  7  8  2  0  0  0
  7 26  1  0  0  0
  7 29  1  0  0  0
  8  9  1  0  0  0
  8 22  1  0  0  0
  9 10  1  0  0  0
  9 27  2  0  0  0
 10 11  2  0  0  0
 10 15  1  0  0  0
 11 12  1  0  0  0
 11 96  1  0  0  0
 12 13  2  0  0  0
 12 97  1  0  0  0
 13 14  1  0  0  0
 13 31  1  0  0  0
 14 15  2  0  0  0
 14 98  1  0  0  0
 15 99  1  0  0  0
 16 17  2  0  0  0
 16 21  1  0  0  0
 16 31  1  0  0  0
 17 18  1  0  0  0
 17100  1  0  0  0
 18 19  2  0  0  0
 18101  1  0  0  0
 19 20  1  0  0  0
 19 24  1  0  0  0
 20 21  2  0  0  0
 20102  1  0  0  0
 21 23  1  0  0  0
 22 28  1  0  0  0
 22 32  2  0  0  0
 26 27  1  0  0  0
 28103  1  0  0  0
 28104  1  0  0  0
 29105  1  0  0  0
 29106  1  0  0  0
 33 34  1  0  0  0
 33 66  1  0  0  0
 33 70  2  0  0  0
 34 36  1  0  0  0
 34 59  1  0  0  0
 34107  1  0  0  0
 35 44  2  0  0  0
 35 45  1  0  0  0
 35 68  1  0  0  0
 36 56  1  0  0  0
 36108  1  0  0  0
 37 39  1  0  0  0
 37 47  1  0  0  0
 37 66  1  0  0  0
 37109  1  0  0  0
 38 43  2  0  0  0
 38 46  1  0  0  0
 38 47  1  0  0  0
 39 64  1  0  0  0
 39 67  2  0  0  0
 40 52  1  0  0  0
 40 53  2  0  0  0
 40 58  1  0  0  0
 41110  1  0  0  0
 41111  1  0  0  0
 41112  1  0  0  0
 41 48  1  0  0  0
 42 43  1  0  0  0
 42 66  1  0  0  0
 42113  1  0  0  0
 42114  1  0  0  0
 43 44  1  0  0  0
 44115  1  0  0  0
 45 46  2  0  0  0
 45116  1  0  0  0
 46117  1  0  0  0
 47118  1  0  0  0
 47119  1  0  0  0
 48 56  1  0  0  0
 48 65  1  0  0  0
 48120  1  0  0  0
 49 50  1  0  0  0
 49 53  1  0  0  0
 49 64  1  0  0  0
 49121  1  0  0  0
 50 51  1  0  0  0
 50122  1  0  0  0
 50123  1  0  0  0
 51 52  1  0  0  0
 51124  1  0  0  0
 51125  1  0  0  0
 52126  1  0  0  0
 52127  1  0  0  0
 53 54  1  0  0  0
 54 55  2  0  0  0
 54128  1  0  0  0
 55 57  1  0  0  0
 55129  1  0  0  0
 56 69  2  0  0  0
 57 58  2  0  0  0
 57130  1  0  0  0
 58131  1  0  0  0
 59 60  1  0  0  0
 59 61  1  0  0  0
 59 62  1  0  0  0
 60132  1  0  0  0
 60133  1  0  0  0
 60134  1  0  0  0
 61135  1  0  0  0
 61136  1  0  0  0
 61137  1  0  0  0
 62138  1  0  0  0
 62139  1  0  0  0
 62140  1  0  0  0
 63 65  1  0  0  0
 63141  1  0  0  0
 63142  1  0  0  0
 63143  1  0  0  0
 64144  1  0  0  0
 65145  1  0  0  0
 68 83  1  0  0  0
 71 72  2  0  0  0
 71 74  1  0  0  0
 71146  1  0  0  0
 72 73  1  0  0  0
 72 79  1  0  0  0
 73 75  2  0  0  0
 73 80  1  0  0  0
 74 84  1  0  0  0
 74 85  2  0  0  0
 75 81  1  0  0  0
 75 85  1  0  0  0
 76 80  1  0  0  0
 76147  1  0  0  0
 76148  1  0  0  0
 76149  1  0  0  0
 77 81  1  0  0  0
 77150  1  0  0  0
 77151  1  0  0  0
 77152  1  0  0  0
 78153  1  0  0  0
 78154  1  0  0  0
 78155  1  0  0  0
 78 84  1  0  0  0
 79 83  1  0  0  0
 79156  1  0  0  0
 79157  1  0  0  0
 80158  1  0  0  0
 80159  1  0  0  0
 81160  1  0  0  0
 81161  1  0  0  0
 82 84  1  0  0  0
 82 86  1  0  0  0
 82162  1  0  0  0
 82163  1  0  0  0
 83164  1  0  0  0
 83165  1  0  0  0
 84166  1  0  0  0
 86167  1  0  0  0
M  ISO  4   1 100  68 101  83 101  86 100
M  END
> <chiral flag>
0

> <version>
0

> <s_m_source_file>
/data/baiqing/PycharmProjects/Reinvent-master-3.2/result/LINK_invent/BTK/process_docking_weight1_custom_sum_contain_oxygen_bond_distance_aromatic_linkinvent_7_9_3/rearranged_h_0087.sdf

> <i_m_source_file_index>
11

> <r_mmod_Potential_Energy-OPLS-2005>
-49.8772583007812

> <r_mmod_Stretch_Energy-OPLS-2005>
114.135223388672

> <r_mmod_Bend_Energy-OPLS-2005>
166.210983276367

> <r_mmod_Torsional_Energy-OPLS-2005>
197.789443969727

> <r_mmod_Improper_Torsional_Energy-OPLS-2005>
5.79202842712402

> <r_mmod_Van_der_Waal_Energy-OPLS-2005>
145.59391784668

> <r_mmod_Electrostatic_Energy-OPLS-2005>
-527.43115234375

> <r_mmod_Solvation_Energy-OPLS-2005>
-219.452362060547

> <b_mmod_Minimization_Converged-OPLS-2005>
0

> <r_mmod_RMS_Derivative-OPLS-2005>
1.02335250377655

$$$$
11
                    3D
 Structure written by MMmdl.
172180  0  0  1  0            999 V2000
  -30.8132  -14.3278   20.7339 C   0  0  0  0  0  0
  -30.4153  -12.3069   19.3707 C   0  0  0  0  0  0
  -29.4704  -12.5632   18.1834 C   0  0  0  0  0  0
  -27.9989  -12.4103   18.6059 C   0  0  0  0  0  0
  -27.6710  -13.2089   19.8922 C   0  0  2  0  0  0
  -28.7179  -12.9168   20.9914 C   0  0  0  0  0  0
  -25.2608  -13.8186   20.5710 C   0  0  0  0  0  0
  -24.1848  -13.0447   20.9168 C   0  0  0  0  0  0
  -24.6408  -11.6928   20.8728 C   0  0  0  0  0  0
  -23.9068  -10.4308   21.0389 C   0  0  0  0  0  0
  -24.3622   -9.4229   21.9169 C   0  0  0  0  0  0
  -23.6297   -8.2263   22.0748 C   0  0  0  0  0  0
  -22.4282   -8.0292   21.3538 C   0  0  0  0  0  0
  -21.9910   -9.0263   20.4639 C   0  0  0  0  0  0
  -22.7239  -10.2147   20.3040 C   0  0  0  0  0  0
  -21.6859   -6.0747   22.5281 C   0  0  0  0  0  0
  -21.4013   -6.5643   23.8215 C   0  0  0  0  0  0
  -21.3652   -5.6788   24.9168 C   0  0  0  0  0  0
  -21.6045   -4.3053   24.7220 C   0  0  0  0  0  0
  -21.8824   -3.8155   23.4340 C   0  0  0  0  0  0
  -21.9194   -4.6973   22.3400 C   0  0  0  0  0  0
  -22.7866  -13.5252   21.1809 C   0  0  0  0  0  0
  -22.1666   -4.2167   21.0975 F   0  0  0  0  0  0
  -21.5624   -3.4534   25.7727 F   0  0  0  0  0  0
  -30.0625  -13.2230   20.4687 N   0  0  0  0  0  0
  -26.3081  -12.9370   20.3488 N   0  0  0  0  0  0
  -25.9349  -11.6522   20.5811 N   0  0  0  0  0  0
  -22.0497  -12.8243   22.0360 N   0  0  0  0  0  0
  -25.4278  -15.1900   20.4119 N   0  0  0  0  0  0
  -31.7392  -14.6860   19.9926 O   0  0  0  0  0  0
  -21.6638   -6.8893   21.4246 O   0  0  0  0  0  0
  -22.3547  -14.5546   20.6655 O   0  0  0  0  0  0
  -24.6104  -31.8676   23.2043 C   0  0  0  0  0  0
  -25.9003  -32.4824   23.8323 C   0  0  1  0  0  0
  -27.2448  -27.4407   20.1187 C   0  0  0  0  0  0
  -25.5841  -33.8620   24.2253 N   0  0  0  0  0  0
  -23.3996  -30.4918   21.5408 C   0  0  2  0  0  0
  -24.8532  -28.9421   20.1228 C   0  0  0  0  0  0
  -22.7385  -29.4701   22.4922 C   0  0  0  0  0  0
  -18.0264  -28.1402   22.8474 C   0  0  0  0  0  0
  -24.1508  -36.7309   23.2640 C   0  0  0  0  0  0
  -25.9291  -30.8281   21.3655 C   0  0  0  0  0  0
  -26.0072  -29.4550   20.7313 C   0  0  0  0  0  0
  -27.2046  -28.7066   20.7414 C   0  0  0  0  0  0
  -26.0823  -26.9360   19.5061 C   0  0  0  0  0  0
  -24.8810  -27.6725   19.5120 C   0  0  0  0  0  0
  -23.6159  -29.8119   20.1610 C   0  0  0  0  0  0
  -25.4132  -36.3106   24.0317 C   0  0  1  0  0  0
  -20.5872  -28.3695   23.1284 C   0  0  2  0  0  0
  -20.6774  -26.9432   22.5390 C   0  0  0  0  0  0
  -19.5761  -26.6394   21.5200 C   0  0  0  0  0  0
  -18.1927  -26.7944   22.1594 C   0  0  0  0  0  0
  -19.1520  -28.8856   23.2890 C   0  0  0  0  0  0
  -18.9461  -30.1472   23.8905 C   0  0  0  0  0  0
  -17.6476  -30.6607   24.0600 C   0  0  0  0  0  0
  -25.9044  -34.9483   23.5101 C   0  0  0  0  0  0
  -16.5364  -29.9126   23.6329 C   0  0  0  0  0  0
  -16.7262  -28.6553   23.0319 C   0  0  0  0  0  0
  -26.4431  -31.6615   25.0663 C   0  0  0  0  0  0
  -25.3699  -31.3775   26.1429 C   0  0  0  0  0  0
  -27.0287  -30.3048   24.6080 C   0  0  0  0  0  0
  -27.5971  -32.4359   25.7433 C   0  0  0  0  0  0
  -27.5600  -37.1813   24.8463 C   0  0  0  0  0  0
  -21.4109  -29.3088   22.3685 N   0  0  0  0  0  0
  -26.4322  -37.3786   23.9393 N   0  0  0  0  0  0
  -24.6628  -31.0802   22.0927 N   0  0  0  0  0  0
  -23.4157  -28.8252   23.2986 O   0  0  0  0  0  0
  -28.4045  -26.7140   20.0229 O   0  0  0  0  0  0
  -26.5656  -34.8944   22.4697 O   0  0  0  0  0  0
  -23.5292  -32.1408   23.7455 O   0  0  0  0  0  0
  -28.8415  -17.2047   20.6842 C   0  0  0  0  0  0
  -30.2676  -18.2148   22.0709 C   0  0  0  0  0  0
  -29.6893  -17.0008   21.8067 C   0  0  0  0  0  0
  -28.8833  -18.5243   20.3315 C   0  0  0  0  0  0
  -28.1348  -19.2461   19.2602 C   0  0  0  0  0  0
  -27.7325  -23.2291   23.0390 C   0  0  0  0  0  0
  -30.4077  -24.7681   19.6196 C   0  0  0  0  0  0
  -32.0797  -14.6856   22.7636 C   0  0  0  0  0  0
  -29.8580  -15.7080   22.5800 C   0  0  0  0  0  0
  -28.8263  -21.4431   21.6102 C   0  0  0  0  0  0
  -29.9631  -23.7750   21.9072 C   0  0  0  0  0  0
  -30.0663  -20.5967   21.2330 C   0  0  0  0  0  0
  -28.7992  -25.9732   21.1783 C   0  0  0  0  0  0
  -29.0686  -22.6708   22.5219 C   0  0  1  0  0  0
  -29.3571  -24.5925   20.7327 C   0  0  1  0  0  0
  -29.7526  -19.1664   21.2019 N   0  0  0  0  0  0
  -30.8109  -14.7268   22.0255 N   0  0  0  0  0  0
  -31.4540  -12.4173   19.0507 H   0  0  0  0  0  0
  -30.3219  -11.2754   19.7129 H   0  0  0  0  0  0
  -29.6954  -11.8819   17.3617 H   0  0  0  0  0  0
  -29.6329  -13.5722   17.7996 H   0  0  0  0  0  0
  -27.7977  -11.3506   18.7624 H   0  0  0  0  0  0
  -27.3420  -12.7279   17.7957 H   0  0  0  0  0  0
  -27.7335  -14.2674   19.6420 H   0  0  0  0  0  0
  -28.6832  -11.8615   21.2660 H   0  0  0  0  0  0
  -28.4710  -13.4384   21.9077 H   0  0  0  0  0  0
  -25.2776   -9.5709   22.4725 H   0  0  0  0  0  0
  -24.0006   -7.4663   22.7474 H   0  0  0  0  0  0
  -21.0834   -8.8791   19.8951 H   0  0  0  0  0  0
  -22.3699  -10.9680   19.6138 H   0  0  0  0  0  0
  -21.2009   -7.6152   23.9725 H   0  0  0  0  0  0
  -21.1455   -6.0511   25.9068 H   0  0  0  0  0  0
  -22.0607   -2.7620   23.2830 H   0  0  0  0  0  0
  -22.4107  -11.9917   22.4775 H   0  0  0  0  0  0
  -21.1136  -13.1315   22.2590 H   0  0  0  0  0  0
  -24.6574  -15.8427   20.5112 H   0  0  0  0  0  0
  -26.2944  -15.6403   20.1501 H   0  0  0  0  0  0
  -26.7073  -32.5557   23.1091 H   0  0  0  0  0  0
  -24.9999  -33.9788   25.0394 H   0  0  0  0  0  0
  -22.6893  -31.3052   21.3887 H   0  0  0  0  0  0
  -23.3762  -35.9650   23.3329 H   0  0  0  0  0  0
  -24.3615  -36.8915   22.2055 H   0  0  0  0  0  0
  -23.7270  -37.6518   23.6664 H   0  0  0  0  0  0
  -26.0494  -31.5782   20.5830 H   0  0  0  0  0  0
  -26.8156  -30.8884   21.9835 H   0  0  0  0  0  0
  -28.0952  -29.1020   21.2088 H   0  0  0  0  0  0
  -26.1161  -25.9707   19.0195 H   0  0  0  0  0  0
  -23.9998  -27.2632   19.0371 H   0  0  0  0  0  0
  -23.7309  -30.5768   19.3928 H   0  0  0  0  0  0
  -22.7391  -29.2302   19.8642 H   0  0  0  0  0  0
  -25.1325  -36.1951   25.0802 H   0  0  0  0  0  0
  -20.9974  -28.3284   24.1401 H   0  0  0  0  0  0
  -20.5660  -26.2328   23.3598 H   0  0  0  0  0  0
  -21.6655  -26.7489   22.1209 H   0  0  0  0  0  0
  -19.6950  -25.6305   21.1228 H   0  0  0  0  0  0
  -19.6697  -27.3220   20.6756 H   0  0  0  0  0  0
  -17.4197  -26.6671   21.3995 H   0  0  0  0  0  0
  -18.0345  -26.0106   22.9012 H   0  0  0  0  0  0
  -19.7968  -30.7276   24.2232 H   0  0  0  0  0  0
  -17.5066  -31.6271   24.5235 H   0  0  0  0  0  0
  -15.5382  -30.3062   23.7669 H   0  0  0  0  0  0
  -15.8648  -28.0928   22.6974 H   0  0  0  0  0  0
  -24.5796  -30.7206   25.7775 H   0  0  0  0  0  0
  -24.8981  -32.2996   26.4855 H   0  0  0  0  0  0
  -25.8017  -30.8926   27.0195 H   0  0  0  0  0  0
  -26.2869  -29.6780   24.1126 H   0  0  0  0  0  0
  -27.4073  -29.7302   25.4538 H   0  0  0  0  0  0
  -27.8678  -30.4341   23.9234 H   0  0  0  0  0  0
  -27.2536  -33.3640   26.2004 H   0  0  0  0  0  0
  -28.3783  -32.6971   25.0282 H   0  0  0  0  0  0
  -28.0643  -31.8507   26.5373 H   0  0  0  0  0  0
  -28.2615  -38.0116   24.7548 H   0  0  0  0  0  0
  -28.1110  -36.2660   24.6261 H   0  0  0  0  0  0
  -27.2337  -37.1434   25.8872 H   0  0  0  0  0  0
  -20.9208  -29.8844   21.6969 H   0  0  0  0  0  0
  -26.0207  -38.2862   24.1384 H   0  0  0  0  0  0
  -28.2240  -16.4620   20.2021 H   0  0  0  0  0  0
  -30.9779  -18.4998   22.8357 H   0  0  0  0  0  0
  -27.6359  -18.5447   18.5920 H   0  0  0  0  0  0
  -28.8014  -19.8633   18.6576 H   0  0  0  0  0  0
  -27.3607  -19.8803   19.6920 H   0  0  0  0  0  0
  -27.1516  -22.4617   23.5534 H   0  0  0  0  0  0
  -27.1100  -23.6122   22.2312 H   0  0  0  0  0  0
  -27.9017  -24.0415   23.7475 H   0  0  0  0  0  0
  -31.1695  -25.4928   19.9031 H   0  0  0  0  0  0
  -29.9503  -25.1205   18.6929 H   0  0  0  0  0  0
  -30.9139  -23.8305   19.3837 H   0  0  0  0  0  0
  -31.9065  -14.3964   23.8004 H   0  0  0  0  0  0
  -32.5684  -15.6600   22.7532 H   0  0  0  0  0  0
  -32.7799  -13.9574   22.3453 H   0  0  0  0  0  0
  -28.8699  -15.2752   22.7030 H   0  0  0  0  0  0
  -30.1564  -15.9711   23.5959 H   0  0  0  0  0  0
  -28.1296  -20.7864   22.1305 H   0  0  0  0  0  0
  -28.3076  -21.7530   20.7030 H   0  0  0  0  0  0
  -30.8897  -23.3028   21.5840 H   0  0  0  0  0  0
  -30.2761  -24.4556   22.7000 H   0  0  0  0  0  0
  -30.8783  -20.7577   21.9428 H   0  0  0  0  0  0
  -30.4489  -20.8984   20.2564 H   0  0  0  0  0  0
  -27.9781  -25.8547   21.8887 H   0  0  0  0  0  0
  -29.5735  -26.5393   21.6994 H   0  0  0  0  0  0
  -29.6000  -22.2933   23.3966 H   0  0  0  0  0  0
  -28.5417  -24.0217   20.2874 H   0  0  0  0  0  0
  1 25  1  0  0  0
  1 30  2  0  0  0
  1 87  1  0  0  0
  2  3  1  0  0  0
  2 25  1  0  0  0
  2 88  1  0  0  0
  2 89  1  0  0  0
  3  4  1  0  0  0
  3 90  1  0  0  0
  3 91  1  0  0  0
  4  5  1  0  0  0
  4 92  1  0  0  0
  4 93  1  0  0  0
  5  6  1  0  0  0
  5 26  1  0  0  0
  5 94  1  0  0  0
  6 25  1  0  0  0
  6 95  1  0  0  0
  6 96  1  0  0  0
  7  8  2  0  0  0
  7 26  1  0  0  0
  7 29  1  0  0  0
  8  9  1  0  0  0
  8 22  1  0  0  0
  9 10  1  0  0  0
  9 27  2  0  0  0
 10 11  2  0  0  0
 10 15  1  0  0  0
 11 12  1  0  0  0
 11 97  1  0  0  0
 12 13  2  0  0  0
 12 98  1  0  0  0
 13 14  1  0  0  0
 13 31  1  0  0  0
 14 15  2  0  0  0
 14 99  1  0  0  0
 15100  1  0  0  0
 16 17  2  0  0  0
 16 21  1  0  0  0
 16 31  1  0  0  0
 17 18  1  0  0  0
 17101  1  0  0  0
 18 19  2  0  0  0
 18102  1  0  0  0
 19 20  1  0  0  0
 19 24  1  0  0  0
 20 21  2  0  0  0
 20103  1  0  0  0
 21 23  1  0  0  0
 22 28  1  0  0  0
 22 32  2  0  0  0
 26 27  1  0  0  0
 28104  1  0  0  0
 28105  1  0  0  0
 29106  1  0  0  0
 29107  1  0  0  0
 33 34  1  0  0  0
 33 66  1  0  0  0
 33 70  2  0  0  0
 34 36  1  0  0  0
 34 59  1  0  0  0
 34108  1  0  0  0
 35 44  2  0  0  0
 35 45  1  0  0  0
 35 68  1  0  0  0
 36 56  1  0  0  0
 36109  1  0  0  0
 37 39  1  0  0  0
 37 47  1  0  0  0
 37 66  1  0  0  0
 37110  1  0  0  0
 38 43  2  0  0  0
 38 46  1  0  0  0
 38 47  1  0  0  0
 39 64  1  0  0  0
 39 67  2  0  0  0
 40 52  1  0  0  0
 40 53  2  0  0  0
 40 58  1  0  0  0
 41111  1  0  0  0
 41112  1  0  0  0
 41113  1  0  0  0
 41 48  1  0  0  0
 42 43  1  0  0  0
 42 66  1  0  0  0
 42114  1  0  0  0
 42115  1  0  0  0
 43 44  1  0  0  0
 44116  1  0  0  0
 45 46  2  0  0  0
 45117  1  0  0  0
 46118  1  0  0  0
 47119  1  0  0  0
 47120  1  0  0  0
 48 56  1  0  0  0
 48 65  1  0  0  0
 48121  1  0  0  0
 49 50  1  0  0  0
 49 53  1  0  0  0
 49 64  1  0  0  0
 49122  1  0  0  0
 50 51  1  0  0  0
 50123  1  0  0  0
 50124  1  0  0  0
 51 52  1  0  0  0
 51125  1  0  0  0
 51126  1  0  0  0
 52127  1  0  0  0
 52128  1  0  0  0
 53 54  1  0  0  0
 54 55  2  0  0  0
 54129  1  0  0  0
 55 57  1  0  0  0
 55130  1  0  0  0
 56 69  2  0  0  0
 57 58  2  0  0  0
 57131  1  0  0  0
 58132  1  0  0  0
 59 60  1  0  0  0
 59 61  1  0  0  0
 59 62  1  0  0  0
 60133  1  0  0  0
 60134  1  0  0  0
 60135  1  0  0  0
 61136  1  0  0  0
 61137  1  0  0  0
 61138  1  0  0  0
 62139  1  0  0  0
 62140  1  0  0  0
 62141  1  0  0  0
 63 65  1  0  0  0
 63142  1  0  0  0
 63143  1  0  0  0
 63144  1  0  0  0
 64145  1  0  0  0
 65146  1  0  0  0
 68 83  1  0  0  0
 71 73  1  0  0  0
 71 74  2  0  0  0
 71147  1  0  0  0
 72 73  2  0  0  0
 72 86  1  0  0  0
 72148  1  0  0  0
 73 79  1  0  0  0
 74 75  1  0  0  0
 74 86  1  0  0  0
 75149  1  0  0  0
 75150  1  0  0  0
 75151  1  0  0  0
 76152  1  0  0  0
 76153  1  0  0  0
 76154  1  0  0  0
 76 84  1  0  0  0
 77155  1  0  0  0
 77156  1  0  0  0
 77157  1  0  0  0
 77 85  1  0  0  0
 78 87  1  0  0  0
 78158  1  0  0  0
 78159  1  0  0  0
 78160  1  0  0  0
 79 87  1  0  0  0
 79161  1  0  0  0
 79162  1  0  0  0
 80 82  1  0  0  0
 80 84  1  0  0  0
 80163  1  0  0  0
 80164  1  0  0  0
 81 84  1  0  0  0
 81 85  1  0  0  0
 81165  1  0  0  0
 81166  1  0  0  0
 82 86  1  0  0  0
 82167  1  0  0  0
 82168  1  0  0  0
 83 85  1  0  0  0
 83169  1  0  0  0
 83170  1  0  0  0
 84171  1  0  0  0
 85172  1  0  0  0
M  ISO  4   1 100  68 101  83 101  87 100
M  END
> <chiral flag>
0

> <version>
0

> <s_m_source_file>
/data/baiqing/PycharmProjects/Reinvent-master-3.2/result/LINK_invent/BTK/process_docking_weight1_custom_sum_contain_oxygen_bond_distance_aromatic_linkinvent_7_9_3/rearranged_h_0087.sdf

> <i_m_source_file_index>
12

> <r_mmod_Potential_Energy-OPLS-2005>
116.206733703613

> <r_mmod_Stretch_Energy-OPLS-2005>
35.9750938415527

> <r_mmod_Bend_Energy-OPLS-2005>
105.073417663574

> <r_mmod_Torsional_Energy-OPLS-2005>
333.813446044922

> <r_mmod_Improper_Torsional_Energy-OPLS-2005>
15.1127777099609

> <r_mmod_Van_der_Waal_Energy-OPLS-2005>
120.995895385742

> <r_mmod_Electrostatic_Energy-OPLS-2005>
-317.206176757812

> <r_mmod_Solvation_Energy-OPLS-2005>
-186.580490112305

> <b_mmod_Minimization_Converged-OPLS-2005>
0

> <r_mmod_RMS_Derivative-OPLS-2005>
4.07159614562988

$$$$
12
                    3D
 Structure written by MMmdl.
164172  0  0  1  0            999 V2000
  -30.5355  -14.7475   20.5127 C   0  0  0  0  0  0
  -30.4297  -12.4740   19.4377 C   0  0  0  0  0  0
  -29.5104  -12.5404   18.1965 C   0  0  0  0  0  0
  -28.0276  -12.3576   18.5883 C   0  0  0  0  0  0
  -27.6273  -13.2236   19.8136 C   0  0  2  0  0  0
  -28.6584  -13.1028   20.9427 C   0  0  0  0  0  0
  -25.2516  -13.8169   20.5710 C   0  0  0  0  0  0
  -24.1803  -13.0447   20.9183 C   0  0  0  0  0  0
  -24.6332  -11.6884   20.8621 C   0  0  0  0  0  0
  -23.9022  -10.4276   21.0323 C   0  0  0  0  0  0
  -24.3577   -9.4226   21.9143 C   0  0  0  0  0  0
  -23.6282   -8.2249   22.0722 C   0  0  0  0  0  0
  -22.4259   -8.0256   21.3535 C   0  0  0  0  0  0
  -21.9871   -9.0214   20.4630 C   0  0  0  0  0  0
  -22.7176  -10.2094   20.3017 C   0  0  0  0  0  0
  -21.6843   -6.0720   22.5287 C   0  0  0  0  0  0
  -21.4006   -6.5626   23.8216 C   0  0  0  0  0  0
  -21.3659   -5.6777   24.9174 C   0  0  0  0  0  0
  -21.6047   -4.3045   24.7215 C   0  0  0  0  0  0
  -21.8837   -3.8133   23.4339 C   0  0  0  0  0  0
  -21.9194   -4.6959   22.3386 C   0  0  0  0  0  0
  -22.7829  -13.5232   21.1890 C   0  0  0  0  0  0
  -22.1668   -4.2154   21.0968 F   0  0  0  0  0  0
  -21.5646   -3.4518   25.7714 F   0  0  0  0  0  0
  -29.9514  -13.5091   20.3786 N   0  0  0  0  0  0
  -26.2836  -12.9351   20.2968 N   0  0  0  0  0  0
  -25.9232  -11.6507   20.5434 N   0  0  0  0  0  0
  -22.0465  -12.8208   22.0389 N   0  0  0  0  0  0
  -25.4352  -15.1910   20.4436 N   0  0  0  0  0  0
  -31.7490  -14.8783   20.3266 O   0  0  0  0  0  0
  -21.6646   -6.8839   21.4225 O   0  0  0  0  0  0
  -22.3521  -14.5576   20.6721 O   0  0  0  0  0  0
  -24.6372  -31.8535   23.1857 C   0  0  0  0  0  0
  -25.9158  -32.4752   23.8282 C   0  0  1  0  0  0
  -27.2276  -27.2055   20.1487 C   0  0  0  0  0  0
  -25.5948  -33.8545   24.2289 N   0  0  0  0  0  0
  -23.4403  -30.4663   21.5321 C   0  0  2  0  0  0
  -24.8850  -28.8804   20.1282 C   0  0  0  0  0  0
  -22.7533  -29.4588   22.4877 C   0  0  0  0  0  0
  -18.0310  -28.1425   22.8514 C   0  0  0  0  0  0
  -24.1480  -36.7190   23.2657 C   0  0  0  0  0  0
  -25.9874  -30.7461   21.3706 C   0  0  0  0  0  0
  -26.0592  -29.3536   20.7331 C   0  0  0  0  0  0
  -27.2335  -28.5265   20.7283 C   0  0  0  0  0  0
  -26.0320  -26.8008   19.5255 C   0  0  0  0  0  0
  -24.8770  -27.6125   19.5173 C   0  0  0  0  0  0
  -23.6649  -29.7819   20.1566 C   0  0  0  0  0  0
  -25.4103  -36.3066   24.0399 C   0  0  1  0  0  0
  -20.5916  -28.3740   23.1295 C   0  0  2  0  0  0
  -20.6760  -26.9446   22.5425 C   0  0  0  0  0  0
  -19.5728  -26.6421   21.5212 C   0  0  0  0  0  0
  -18.1915  -26.7995   22.1627 C   0  0  0  0  0  0
  -19.1561  -28.8878   23.2913 C   0  0  0  0  0  0
  -18.9479  -30.1459   23.8995 C   0  0  0  0  0  0
  -17.6472  -30.6616   24.0574 C   0  0  0  0  0  0
  -25.9035  -34.9442   23.5124 C   0  0  0  0  0  0
  -16.5367  -29.9131   23.6304 C   0  0  0  0  0  0
  -16.7284  -28.6512   23.0388 C   0  0  0  0  0  0
  -26.4522  -31.6598   25.0676 C   0  0  0  0  0  0
  -25.3738  -31.3741   26.1392 C   0  0  0  0  0  0
  -27.0364  -30.3075   24.6062 C   0  0  0  0  0  0
  -27.6166  -32.4304   25.7372 C   0  0  0  0  0  0
  -27.5601  -37.1723   24.8495 C   0  0  0  0  0  0
  -21.4220  -29.3096   22.3671 N   0  0  0  0  0  0
  -26.4287  -37.3773   23.9479 N   0  0  0  0  0  0
  -24.7088  -31.0436   22.0862 N   0  0  0  0  0  0
  -23.4210  -28.8167   23.3014 O   0  0  0  0  0  0
  -28.3607  -26.3610   20.0710 O   0  0  0  0  0  0
  -26.5566  -34.8947   22.4673 O   0  0  0  0  0  0
  -23.5501  -32.1378   23.7097 O   0  0  0  0  0  0
  -28.6813  -21.2619   22.0791 C   0  0  0  0  0  0
  -29.1921  -19.5171   20.4465 C   0  0  0  0  0  0
  -28.9186  -20.9422   20.7333 C   0  0  0  0  0  0
  -28.7666  -20.2641   23.0604 C   0  0  0  0  0  0
  -29.2691  -18.5257   21.5171 C   0  0  0  0  0  0
  -27.8392  -22.8921   25.1246 C   0  0  0  0  0  0
  -28.7235  -16.2838   22.7449 C   0  0  0  0  0  0
  -29.0058  -22.1950   19.7400 C   0  0  0  0  0  0
  -28.4434  -20.4643   24.5376 C   0  0  0  0  0  0
  -28.8934  -21.7763   25.1969 C   0  0  0  0  0  0
  -28.0560  -23.5442   19.7937 C   0  0  0  0  0  0
  -28.4598  -24.9240   20.5637 C   0  0  0  0  0  0
  -29.6571  -16.9400   21.6624 C   0  0  2  0  0  0
  -29.0992  -19.0013   22.7679 N   0  0  0  0  0  0
  -29.6881  -15.8506   20.6013 N   0  0  0  0  0  0
  -31.4736  -12.6259   19.1529 H   0  0  0  0  0  0
  -30.3853  -11.4837   19.8937 H   0  0  0  0  0  0
  -29.8030  -11.7920   17.4615 H   0  0  0  0  0  0
  -29.6368  -13.5087   17.7091 H   0  0  0  0  0  0
  -27.8547  -11.3006   18.7966 H   0  0  0  0  0  0
  -27.3931  -12.6067   17.7346 H   0  0  0  0  0  0
  -27.6318  -14.2557   19.4645 H   0  0  0  0  0  0
  -28.6902  -12.0769   21.3134 H   0  0  0  0  0  0
  -28.3477  -13.7160   21.7848 H   0  0  0  0  0  0
  -25.2734   -9.5750   22.4692 H   0  0  0  0  0  0
  -24.0031   -7.4640   22.7425 H   0  0  0  0  0  0
  -21.0816   -8.8707   19.8936 H   0  0  0  0  0  0
  -22.3641  -10.9606   19.6106 H   0  0  0  0  0  0
  -21.1999   -7.6132   23.9716 H   0  0  0  0  0  0
  -21.1452   -6.0498   25.9076 H   0  0  0  0  0  0
  -22.0607   -2.7603   23.2822 H   0  0  0  0  0  0
  -22.4074  -11.9851   22.4766 H   0  0  0  0  0  0
  -21.1080  -13.1209   22.2583 H   0  0  0  0  0  0
  -24.6966  -15.8556   20.6477 H   0  0  0  0  0  0
  -26.2978  -15.6325   20.1598 H   0  0  0  0  0  0
  -26.7246  -32.5451   23.1048 H   0  0  0  0  0  0
  -25.0306  -33.9647   25.0583 H   0  0  0  0  0  0
  -22.7423  -31.2884   21.3674 H   0  0  0  0  0  0
  -23.3812  -35.9439   23.3280 H   0  0  0  0  0  0
  -24.3594  -36.8770   22.2069 H   0  0  0  0  0  0
  -23.7113  -37.6366   23.6607 H   0  0  0  0  0  0
  -26.1183  -31.4889   20.5829 H   0  0  0  0  0  0
  -26.8752  -30.8261   21.9860 H   0  0  0  0  0  0
  -28.1446  -28.8723   21.2000 H   0  0  0  0  0  0
  -26.0034  -25.8391   19.0335 H   0  0  0  0  0  0
  -23.9831  -27.2417   19.0369 H   0  0  0  0  0  0
  -23.8057  -30.5473   19.3933 H   0  0  0  0  0  0
  -22.7839  -29.2172   19.8478 H   0  0  0  0  0  0
  -25.1250  -36.1935   25.0896 H   0  0  0  0  0  0
  -21.0021  -28.3330   24.1412 H   0  0  0  0  0  0
  -20.5594  -26.2354   23.3650 H   0  0  0  0  0  0
  -21.6639  -26.7427   22.1268 H   0  0  0  0  0  0
  -19.6837  -25.6317   21.1261 H   0  0  0  0  0  0
  -19.6675  -27.3220   20.6741 H   0  0  0  0  0  0
  -17.4179  -26.6805   21.4025 H   0  0  0  0  0  0
  -18.0280  -26.0149   22.9033 H   0  0  0  0  0  0
  -19.7940  -30.7202   24.2516 H   0  0  0  0  0  0
  -17.5026  -31.6322   24.5114 H   0  0  0  0  0  0
  -15.5366  -30.3035   23.7550 H   0  0  0  0  0  0
  -15.8718  -28.0773   22.7169 H   0  0  0  0  0  0
  -24.5910  -30.7100   25.7688 H   0  0  0  0  0  0
  -24.8903  -32.2895   26.4841 H   0  0  0  0  0  0
  -25.8055  -30.8902   27.0161 H   0  0  0  0  0  0
  -26.2896  -29.6804   24.1185 H   0  0  0  0  0  0
  -27.4270  -29.7368   25.4484 H   0  0  0  0  0  0
  -27.8671  -30.4463   23.9142 H   0  0  0  0  0  0
  -27.2922  -33.3655   26.1956 H   0  0  0  0  0  0
  -28.3937  -32.6786   25.0121 H   0  0  0  0  0  0
  -28.0884  -31.8399   26.5229 H   0  0  0  0  0  0
  -28.2638  -38.0017   24.7630 H   0  0  0  0  0  0
  -28.1091  -36.2561   24.6213 H   0  0  0  0  0  0
  -27.2349  -37.1289   25.8913 H   0  0  0  0  0  0
  -20.9370  -29.8865   21.6959 H   0  0  0  0  0  0
  -26.0172  -38.2844   24.1549 H   0  0  0  0  0  0
  -28.4691  -22.2834   22.3437 H   0  0  0  0  0  0
  -29.3841  -19.2033   19.4311 H   0  0  0  0  0  0
  -28.2044  -23.8048   25.5940 H   0  0  0  0  0  0
  -26.9237  -22.6050   25.6408 H   0  0  0  0  0  0
  -27.5647  -23.1361   24.1015 H   0  0  0  0  0  0
  -27.7064  -16.1418   22.3699 H   0  0  0  0  0  0
  -28.6224  -16.8507   23.6695 H   0  0  0  0  0  0
  -29.0920  -15.3155   23.0857 H   0  0  0  0  0  0
  -28.9494  -21.7877   18.7278 H   0  0  0  0  0  0
  -30.0348  -22.5460   19.8101 H   0  0  0  0  0  0
  -27.3737  -20.3024   24.6801 H   0  0  0  0  0  0
  -28.9282  -19.6544   25.0873 H   0  0  0  0  0  0
  -29.0588  -21.5595   26.2557 H   0  0  0  0  0  0
  -29.8624  -22.1026   24.8164 H   0  0  0  0  0  0
  -27.0356  -23.2499   20.0488 H   0  0  0  0  0  0
  -27.9877  -23.8528   18.7500 H   0  0  0  0  0  0
  -29.5396  -24.8242   20.6759 H   0  0  0  0  0  0
  -28.0875  -24.8745   21.5875 H   0  0  0  0  0  0
  -30.6617  -16.9600   22.0946 H   0  0  0  0  0  0
  -28.7622  -15.6370   20.2717 H   0  0  0  0  0  0
  1 25  1  0  0  0
  1 30  2  0  0  0
  1 85  1  0  0  0
  2  3  1  0  0  0
  2 25  1  0  0  0
  2 86  1  0  0  0
  2 87  1  0  0  0
  3  4  1  0  0  0
  3 88  1  0  0  0
  3 89  1  0  0  0
  4  5  1  0  0  0
  4 90  1  0  0  0
  4 91  1  0  0  0
  5  6  1  0  0  0
  5 26  1  0  0  0
  5 92  1  0  0  0
  6 25  1  0  0  0
  6 93  1  0  0  0
  6 94  1  0  0  0
  7  8  2  0  0  0
  7 26  1  0  0  0
  7 29  1  0  0  0
  8  9  1  0  0  0
  8 22  1  0  0  0
  9 10  1  0  0  0
  9 27  2  0  0  0
 10 11  2  0  0  0
 10 15  1  0  0  0
 11 12  1  0  0  0
 11 95  1  0  0  0
 12 13  2  0  0  0
 12 96  1  0  0  0
 13 14  1  0  0  0
 13 31  1  0  0  0
 14 15  2  0  0  0
 14 97  1  0  0  0
 15 98  1  0  0  0
 16 17  2  0  0  0
 16 21  1  0  0  0
 16 31  1  0  0  0
 17 18  1  0  0  0
 17 99  1  0  0  0
 18 19  2  0  0  0
 18100  1  0  0  0
 19 20  1  0  0  0
 19 24  1  0  0  0
 20 21  2  0  0  0
 20101  1  0  0  0
 21 23  1  0  0  0
 22 28  1  0  0  0
 22 32  2  0  0  0
 26 27  1  0  0  0
 28102  1  0  0  0
 28103  1  0  0  0
 29104  1  0  0  0
 29105  1  0  0  0
 33 34  1  0  0  0
 33 66  1  0  0  0
 33 70  2  0  0  0
 34 36  1  0  0  0
 34 59  1  0  0  0
 34106  1  0  0  0
 35 44  2  0  0  0
 35 45  1  0  0  0
 35 68  1  0  0  0
 36 56  1  0  0  0
 36107  1  0  0  0
 37 39  1  0  0  0
 37 47  1  0  0  0
 37 66  1  0  0  0
 37108  1  0  0  0
 38 43  2  0  0  0
 38 46  1  0  0  0
 38 47  1  0  0  0
 39 64  1  0  0  0
 39 67  2  0  0  0
 40 52  1  0  0  0
 40 53  2  0  0  0
 40 58  1  0  0  0
 41109  1  0  0  0
 41110  1  0  0  0
 41111  1  0  0  0
 41 48  1  0  0  0
 42 43  1  0  0  0
 42 66  1  0  0  0
 42112  1  0  0  0
 42113  1  0  0  0
 43 44  1  0  0  0
 44114  1  0  0  0
 45 46  2  0  0  0
 45115  1  0  0  0
 46116  1  0  0  0
 47117  1  0  0  0
 47118  1  0  0  0
 48 56  1  0  0  0
 48 65  1  0  0  0
 48119  1  0  0  0
 49 50  1  0  0  0
 49 53  1  0  0  0
 49 64  1  0  0  0
 49120  1  0  0  0
 50 51  1  0  0  0
 50121  1  0  0  0
 50122  1  0  0  0
 51 52  1  0  0  0
 51123  1  0  0  0
 51124  1  0  0  0
 52125  1  0  0  0
 52126  1  0  0  0
 53 54  1  0  0  0
 54 55  2  0  0  0
 54127  1  0  0  0
 55 57  1  0  0  0
 55128  1  0  0  0
 56 69  2  0  0  0
 57 58  2  0  0  0
 57129  1  0  0  0
 58130  1  0  0  0
 59 60  1  0  0  0
 59 61  1  0  0  0
 59 62  1  0  0  0
 60131  1  0  0  0
 60132  1  0  0  0
 60133  1  0  0  0
 61134  1  0  0  0
 61135  1  0  0  0
 61136  1  0  0  0
 62137  1  0  0  0
 62138  1  0  0  0
 62139  1  0  0  0
 63 65  1  0  0  0
 63140  1  0  0  0
 63141  1  0  0  0
 63142  1  0  0  0
 64143  1  0  0  0
 65144  1  0  0  0
 68 82  1  0  0  0
 71 73  2  0  0  0
 71 74  1  0  0  0
 71145  1  0  0  0
 72 73  1  0  0  0
 72 75  2  0  0  0
 72146  1  0  0  0
 73 78  1  0  0  0
 74 79  1  0  0  0
 74 84  2  0  0  0
 75 83  1  0  0  0
 75 84  1  0  0  0
 76 80  1  0  0  0
 76147  1  0  0  0
 76148  1  0  0  0
 76149  1  0  0  0
 77150  1  0  0  0
 77151  1  0  0  0
 77152  1  0  0  0
 77 83  1  0  0  0
 78 81  1  0  0  0
 78153  1  0  0  0
 78154  1  0  0  0
 79 80  1  0  0  0
 79155  1  0  0  0
 79156  1  0  0  0
 80157  1  0  0  0
 80158  1  0  0  0
 81 82  1  0  0  0
 81159  1  0  0  0
 81160  1  0  0  0
 82161  1  0  0  0
 82162  1  0  0  0
 83 85  1  0  0  0
 83163  1  0  0  0
 85164  1  0  0  0
M  ISO  4   1 100  68 101  82 101  85 100
M  END
> <chiral flag>
0

> <version>
0

> <s_m_source_file>
/data/baiqing/PycharmProjects/Reinvent-master-3.2/result/LINK_invent/BTK/process_docking_weight1_custom_sum_contain_oxygen_bond_distance_aromatic_linkinvent_7_9_3/rearranged_h_0087.sdf

> <i_m_source_file_index>
13

> <r_mmod_Potential_Energy-OPLS-2005>
150.884689331055

> <r_mmod_Stretch_Energy-OPLS-2005>
160.526702880859

> <r_mmod_Bend_Energy-OPLS-2005>
296.932403564453

> <r_mmod_Torsional_Energy-OPLS-2005>
274.526947021484

> <r_mmod_Improper_Torsional_Energy-OPLS-2005>
9.31307315826416

> <r_mmod_Van_der_Waal_Energy-OPLS-2005>
136.041870117188

> <r_mmod_Electrostatic_Energy-OPLS-2005>
-613.987854003906

> <r_mmod_Solvation_Energy-OPLS-2005>
-214.345245361328

> <b_mmod_Minimization_Converged-OPLS-2005>
0

> <r_mmod_RMS_Derivative-OPLS-2005>
6.85182285308838

$$$$
13
                    3D
 Structure written by MMmdl.
160168  0  0  1  0            999 V2000
  -30.5803  -14.7393   20.4770 C   0  0  0  0  0  0
  -30.4458  -12.4539   19.4756 C   0  0  0  0  0  0
  -29.5222  -12.5149   18.2372 C   0  0  0  0  0  0
  -28.0433  -12.3424   18.6407 C   0  0  0  0  0  0
  -27.6493  -13.2257   19.8558 C   0  0  2  0  0  0
  -28.6893  -13.1309   20.9941 C   0  0  0  0  0  0
  -25.2544  -13.8177   20.5658 C   0  0  0  0  0  0
  -24.1830  -13.0436   20.9183 C   0  0  0  0  0  0
  -24.6434  -11.6921   20.8759 C   0  0  0  0  0  0
  -23.9113  -10.4302   21.0414 C   0  0  0  0  0  0
  -24.3659   -9.4212   21.9193 C   0  0  0  0  0  0
  -23.6319   -8.2248   22.0766 C   0  0  0  0  0  0
  -22.4295   -8.0303   21.3549 C   0  0  0  0  0  0
  -21.9952   -9.0279   20.4645 C   0  0  0  0  0  0
  -22.7292  -10.2145   20.3057 C   0  0  0  0  0  0
  -21.6850   -6.0765   22.5295 C   0  0  0  0  0  0
  -21.4010   -6.5662   23.8227 C   0  0  0  0  0  0
  -21.3653   -5.6809   24.9186 C   0  0  0  0  0  0
  -21.6044   -4.3068   24.7223 C   0  0  0  0  0  0
  -21.8821   -3.8174   23.4334 C   0  0  0  0  0  0
  -21.9190   -4.6997   22.3401 C   0  0  0  0  0  0
  -22.7857  -13.5238   21.1841 C   0  0  0  0  0  0
  -22.1658   -4.2184   21.0969 F   0  0  0  0  0  0
  -21.5632   -3.4547   25.7725 F   0  0  0  0  0  0
  -29.9954  -13.4948   20.4290 N   0  0  0  0  0  0
  -26.2971  -12.9387   20.3260 N   0  0  0  0  0  0
  -25.9346  -11.6533   20.5733 N   0  0  0  0  0  0
  -22.0483  -12.8222   22.0381 N   0  0  0  0  0  0
  -25.4221  -15.1907   20.4053 N   0  0  0  0  0  0
  -31.7487  -14.8920   20.1038 O   0  0  0  0  0  0
  -21.6647   -6.8902   21.4253 O   0  0  0  0  0  0
  -22.3563  -14.5551   20.6696 O   0  0  0  0  0  0
  -24.6238  -31.8504   23.1972 C   0  0  0  0  0  0
  -25.9048  -32.4758   23.8328 C   0  0  1  0  0  0
  -27.2032  -27.2501   20.1356 C   0  0  0  0  0  0
  -25.5862  -33.8565   24.2252 N   0  0  0  0  0  0
  -23.4279  -30.4763   21.5342 C   0  0  2  0  0  0
  -24.8759  -28.9301   20.0976 C   0  0  0  0  0  0
  -22.7492  -29.4555   22.4808 C   0  0  0  0  0  0
  -18.0267  -28.1421   22.8509 C   0  0  0  0  0  0
  -24.1471  -36.7288   23.2647 C   0  0  0  0  0  0
  -25.9749  -30.7619   21.3797 C   0  0  0  0  0  0
  -26.0438  -29.3824   20.7297 C   0  0  0  0  0  0
  -27.2072  -28.5506   20.7478 C   0  0  0  0  0  0
  -26.0301  -26.8840   19.4523 C   0  0  0  0  0  0
  -24.8774  -27.6927   19.4376 C   0  0  0  0  0  0
  -23.6478  -29.8178   20.1461 C   0  0  0  0  0  0
  -25.4108  -36.3102   24.0342 C   0  0  1  0  0  0
  -20.5892  -28.3670   23.1260 C   0  0  2  0  0  0
  -20.6758  -26.9372   22.5430 C   0  0  0  0  0  0
  -19.5735  -26.6385   21.5233 C   0  0  0  0  0  0
  -18.1898  -26.7972   22.1617 C   0  0  0  0  0  0
  -19.1543  -28.8866   23.2899 C   0  0  0  0  0  0
  -18.9460  -30.1463   23.8911 C   0  0  0  0  0  0
  -17.6470  -30.6623   24.0574 C   0  0  0  0  0  0
  -25.9034  -34.9460   23.5122 C   0  0  0  0  0  0
  -16.5345  -29.9137   23.6346 C   0  0  0  0  0  0
  -16.7260  -28.6558   23.0365 C   0  0  0  0  0  0
  -26.4456  -31.6588   25.0707 C   0  0  0  0  0  0
  -25.3640  -31.3763   26.1395 C   0  0  0  0  0  0
  -27.0234  -30.2990   24.6133 C   0  0  0  0  0  0
  -27.6033  -32.4292   25.7472 C   0  0  0  0  0  0
  -27.5589  -37.1812   24.8454 C   0  0  0  0  0  0
  -21.4194  -29.3012   22.3630 N   0  0  0  0  0  0
  -26.4274  -37.3803   23.9431 N   0  0  0  0  0  0
  -24.6952  -31.0487   22.0928 N   0  0  0  0  0  0
  -23.4201  -28.8064   23.2873 O   0  0  0  0  0  0
  -28.2940  -26.3558   20.1302 O   0  0  0  0  0  0
  -26.5627  -34.8938   22.4691 O   0  0  0  0  0  0
  -23.5387  -32.1308   23.7254 O   0  0  0  0  0  0
  -28.8910  -18.2550   20.7204 C   0  0  0  0  0  0
  -29.8662  -17.2728   20.5125 C   0  0  0  0  0  0
  -30.5815  -19.2390   19.6878 C   0  0  0  0  0  0
  -31.3946  -20.2274   18.9165 C   0  0  0  0  0  0
  -29.0466  -23.8673   18.5438 C   0  0  0  0  0  0
  -26.7751  -23.1720   19.4266 C   0  0  0  0  0  0
  -28.8613  -22.2380   20.5168 C   0  0  0  0  0  0
  -28.5585  -20.7736   19.8791 C   0  0  0  0  0  0
  -28.1569  -24.9567   20.6841 C   0  0  0  0  0  0
  -28.2204  -23.5705   19.8141 C   0  0  0  0  0  0
  -29.3447  -19.4713   20.1780 N   0  0  0  0  0  0
  -30.9042  -17.9400   19.9151 N   0  3  0  0  0  0
  -29.7656  -15.8160   20.7907 N   0  0  0  0  0  0
  -31.4828  -12.5982   19.1724 H   0  0  0  0  0  0
  -30.4048  -11.4667   19.9396 H   0  0  0  0  0  0
  -29.8036  -11.7449   17.5168 H   0  0  0  0  0  0
  -29.6555  -13.4702   17.7263 H   0  0  0  0  0  0
  -27.8873  -11.2898   18.8797 H   0  0  0  0  0  0
  -27.3955  -12.5571   17.7891 H   0  0  0  0  0  0
  -27.6495  -14.2527   19.4899 H   0  0  0  0  0  0
  -28.7217  -12.1227   21.4106 H   0  0  0  0  0  0
  -28.4170  -13.7897   21.8177 H   0  0  0  0  0  0
  -25.2807   -9.5680   22.4761 H   0  0  0  0  0  0
  -24.0034   -7.4638   22.7485 H   0  0  0  0  0  0
  -21.0884   -8.8805   19.8934 H   0  0  0  0  0  0
  -22.3778  -10.9691   19.6155 H   0  0  0  0  0  0
  -21.1994   -7.6171   23.9743 H   0  0  0  0  0  0
  -21.1471   -6.0531   25.9089 H   0  0  0  0  0  0
  -22.0592   -2.7639   23.2821 H   0  0  0  0  0  0
  -22.4093  -11.9866   22.4759 H   0  0  0  0  0  0
  -21.1094  -13.1264   22.2559 H   0  0  0  0  0  0
  -24.6364  -15.8274   20.4751 H   0  0  0  0  0  0
  -26.2548  -15.6303   20.0368 H   0  0  0  0  0  0
  -26.7090  -32.5413   23.1060 H   0  0  0  0  0  0
  -24.9966  -33.9689   25.0371 H   0  0  0  0  0  0
  -22.7280  -31.3019   21.3919 H   0  0  0  0  0  0
  -23.3761  -35.9578   23.3263 H   0  0  0  0  0  0
  -24.3546  -36.8924   22.2062 H   0  0  0  0  0  0
  -23.7198  -37.6480   23.6656 H   0  0  0  0  0  0
  -26.0986  -31.5159   20.6024 H   0  0  0  0  0  0
  -26.8638  -30.8247   21.9984 H   0  0  0  0  0  0
  -28.0985  -28.8831   21.2600 H   0  0  0  0  0  0
  -26.0032  -25.9672   18.8928 H   0  0  0  0  0  0
  -24.0009  -27.3711   18.8918 H   0  0  0  0  0  0
  -23.7660  -30.5991   19.3942 H   0  0  0  0  0  0
  -22.7724  -29.2426   19.8418 H   0  0  0  0  0  0
  -25.1296  -36.1939   25.0837 H   0  0  0  0  0  0
  -21.0008  -28.3237   24.1365 H   0  0  0  0  0  0
  -20.5630  -26.2262   23.3631 H   0  0  0  0  0  0
  -21.6618  -26.7368   22.1216 H   0  0  0  0  0  0
  -19.6869  -25.6298   21.1245 H   0  0  0  0  0  0
  -19.6718  -27.3230   20.6793 H   0  0  0  0  0  0
  -17.4188  -26.6710   21.4002 H   0  0  0  0  0  0
  -18.0253  -26.0168   22.9050 H   0  0  0  0  0  0
  -19.7924  -30.7300   24.2276 H   0  0  0  0  0  0
  -17.5018  -31.6313   24.5163 H   0  0  0  0  0  0
  -15.5355  -30.3065   23.7708 H   0  0  0  0  0  0
  -15.8624  -28.0935   22.7042 H   0  0  0  0  0  0
  -24.5888  -30.7022   25.7754 H   0  0  0  0  0  0
  -24.8726  -32.2926   26.4660 H   0  0  0  0  0  0
  -25.7928  -30.9102   27.0260 H   0  0  0  0  0  0
  -26.2758  -29.6797   24.1167 H   0  0  0  0  0  0
  -27.3946  -29.7210   25.4602 H   0  0  0  0  0  0
  -27.8640  -30.4308   23.9316 H   0  0  0  0  0  0
  -27.2688  -33.3617   26.2032 H   0  0  0  0  0  0
  -28.3870  -32.6774   25.0303 H   0  0  0  0  0  0
  -28.0641  -31.8385   26.5404 H   0  0  0  0  0  0
  -28.2605  -38.0129   24.7538 H   0  0  0  0  0  0
  -28.1108  -36.2661   24.6215 H   0  0  0  0  0  0
  -27.2302  -37.1371   25.8860 H   0  0  0  0  0  0
  -20.9298  -29.8816   21.6955 H   0  0  0  0  0  0
  -26.0150  -38.2854   24.1489 H   0  0  0  0  0  0
  -27.8992  -18.1713   21.1380 H   0  0  0  0  0  0
  -31.6970  -21.0367   19.5801 H   0  0  0  0  0  0
  -30.7756  -20.6154   18.1084 H   0  0  0  0  0  0
  -32.2653  -19.7253   18.4970 H   0  0  0  0  0  0
  -29.1136  -23.0035   17.8828 H   0  0  0  0  0  0
  -30.0690  -24.1558   18.7973 H   0  0  0  0  0  0
  -28.6084  -24.6760   17.9562 H   0  0  0  0  0  0
  -26.7380  -22.3569   18.7068 H   0  0  0  0  0  0
  -26.2248  -23.9752   18.9573 H   0  0  0  0  0  0
  -26.2006  -22.8483   20.2980 H   0  0  0  0  0  0
  -29.9399  -22.3783   20.5953 H   0  0  0  0  0  0
  -28.5162  -22.2046   21.5506 H   0  0  0  0  0  0
  -28.6143  -20.8846   18.7936 H   0  0  0  0  0  0
  -27.5152  -20.5333   20.0791 H   0  0  0  0  0  0
  -28.9553  -24.8838   21.4230 H   0  0  0  0  0  0
  -27.2507  -24.9291   21.2914 H   0  0  0  0  0  0
  -31.7721  -17.5039   19.6176 H   0  0  0  0  0  0
  -28.8734  -15.5229   21.1545 H   0  0  0  0  0  0
  1 25  1  0  0  0
  1 30  2  0  0  0
  1 83  1  0  0  0
  2  3  1  0  0  0
  2 25  1  0  0  0
  2 84  1  0  0  0
  2 85  1  0  0  0
  3  4  1  0  0  0
  3 86  1  0  0  0
  3 87  1  0  0  0
  4  5  1  0  0  0
  4 88  1  0  0  0
  4 89  1  0  0  0
  5  6  1  0  0  0
  5 26  1  0  0  0
  5 90  1  0  0  0
  6 25  1  0  0  0
  6 91  1  0  0  0
  6 92  1  0  0  0
  7  8  2  0  0  0
  7 26  1  0  0  0
  7 29  1  0  0  0
  8  9  1  0  0  0
  8 22  1  0  0  0
  9 10  1  0  0  0
  9 27  2  0  0  0
 10 11  2  0  0  0
 10 15  1  0  0  0
 11 12  1  0  0  0
 11 93  1  0  0  0
 12 13  2  0  0  0
 12 94  1  0  0  0
 13 14  1  0  0  0
 13 31  1  0  0  0
 14 15  2  0  0  0
 14 95  1  0  0  0
 15 96  1  0  0  0
 16 17  2  0  0  0
 16 21  1  0  0  0
 16 31  1  0  0  0
 17 18  1  0  0  0
 17 97  1  0  0  0
 18 19  2  0  0  0
 18 98  1  0  0  0
 19 20  1  0  0  0
 19 24  1  0  0  0
 20 21  2  0  0  0
 20 99  1  0  0  0
 21 23  1  0  0  0
 22 28  1  0  0  0
 22 32  2  0  0  0
 26 27  1  0  0  0
 28100  1  0  0  0
 28101  1  0  0  0
 29102  1  0  0  0
 29103  1  0  0  0
 33 34  1  0  0  0
 33 66  1  0  0  0
 33 70  2  0  0  0
 34 36  1  0  0  0
 34 59  1  0  0  0
 34104  1  0  0  0
 35 44  2  0  0  0
 35 45  1  0  0  0
 35 68  1  0  0  0
 36 56  1  0  0  0
 36105  1  0  0  0
 37 39  1  0  0  0
 37 47  1  0  0  0
 37 66  1  0  0  0
 37106  1  0  0  0
 38 43  2  0  0  0
 38 46  1  0  0  0
 38 47  1  0  0  0
 39 64  1  0  0  0
 39 67  2  0  0  0
 40 52  1  0  0  0
 40 53  2  0  0  0
 40 58  1  0  0  0
 41107  1  0  0  0
 41108  1  0  0  0
 41109  1  0  0  0
 41 48  1  0  0  0
 42 43  1  0  0  0
 42 66  1  0  0  0
 42110  1  0  0  0
 42111  1  0  0  0
 43 44  1  0  0  0
 44112  1  0  0  0
 45 46  2  0  0  0
 45113  1  0  0  0
 46114  1  0  0  0
 47115  1  0  0  0
 47116  1  0  0  0
 48 56  1  0  0  0
 48 65  1  0  0  0
 48117  1  0  0  0
 49 50  1  0  0  0
 49 53  1  0  0  0
 49 64  1  0  0  0
 49118  1  0  0  0
 50 51  1  0  0  0
 50119  1  0  0  0
 50120  1  0  0  0
 51 52  1  0  0  0
 51121  1  0  0  0
 51122  1  0  0  0
 52123  1  0  0  0
 52124  1  0  0  0
 53 54  1  0  0  0
 54 55  2  0  0  0
 54125  1  0  0  0
 55 57  1  0  0  0
 55126  1  0  0  0
 56 69  2  0  0  0
 57 58  2  0  0  0
 57127  1  0  0  0
 58128  1  0  0  0
 59 60  1  0  0  0
 59 61  1  0  0  0
 59 62  1  0  0  0
 60129  1  0  0  0
 60130  1  0  0  0
 60131  1  0  0  0
 61132  1  0  0  0
 61133  1  0  0  0
 61134  1  0  0  0
 62135  1  0  0  0
 62136  1  0  0  0
 62137  1  0  0  0
 63 65  1  0  0  0
 63138  1  0  0  0
 63139  1  0  0  0
 63140  1  0  0  0
 64141  1  0  0  0
 65142  1  0  0  0
 68 79  1  0  0  0
 71 72  2  0  0  0
 71 81  1  0  0  0
 71143  1  0  0  0
 72 82  1  0  0  0
 72 83  1  0  0  0
 73 74  1  0  0  0
 73 81  1  0  0  0
 73 82  2  0  0  0
 74144  1  0  0  0
 74145  1  0  0  0
 74146  1  0  0  0
 75147  1  0  0  0
 75148  1  0  0  0
 75149  1  0  0  0
 75 80  1  0  0  0
 76 80  1  0  0  0
 76150  1  0  0  0
 76151  1  0  0  0
 76152  1  0  0  0
 77 78  1  0  0  0
 77 80  1  0  0  0
 77153  1  0  0  0
 77154  1  0  0  0
 78 81  1  0  0  0
 78155  1  0  0  0
 78156  1  0  0  0
 79 80  1  0  0  0
 79157  1  0  0  0
 79158  1  0  0  0
 82159  1  0  0  0
 83160  1  0  0  0
M  CHG  1  82   1
M  ISO  4   1 100  68 101  79 101  83 100
M  END
> <chiral flag>
0

> <version>
0

> <s_m_source_file>
/data/baiqing/PycharmProjects/Reinvent-master-3.2/result/LINK_invent/BTK/process_docking_weight1_custom_sum_contain_oxygen_bond_distance_aromatic_linkinvent_7_9_3/rearranged_h_0087.sdf

> <i_m_source_file_index>
14

> <r_mmod_Potential_Energy-OPLS-2005>
116.144218444824

> <r_mmod_Stretch_Energy-OPLS-2005>
126.210716247559

> <r_mmod_Bend_Energy-OPLS-2005>
191.460510253906

> <r_mmod_Torsional_Energy-OPLS-2005>
260.675689697266

> <r_mmod_Improper_Torsional_Energy-OPLS-2005>
6.95904874801636

> <r_mmod_Van_der_Waal_Energy-OPLS-2005>
113.756080627441

> <r_mmod_Electrostatic_Energy-OPLS-2005>
-256.195129394531

> <r_mmod_Solvation_Energy-OPLS-2005>
-412.296234130859

> <b_mmod_Minimization_Converged-OPLS-2005>
0

> <r_mmod_RMS_Derivative-OPLS-2005>
5.46192502975464

$$$$
14
                    3D
 Structure written by MMmdl.
176184  0  0  1  0            999 V2000
  -30.6407  -14.7818   20.3035 C   0  0  0  0  0  0
  -30.4391  -12.4525   19.4300 C   0  0  0  0  0  0
  -29.4866  -12.3611   18.2185 C   0  0  0  0  0  0
  -28.0125  -12.2827   18.6543 C   0  0  0  0  0  0
  -27.6318  -13.2341   19.8169 C   0  0  2  0  0  0
  -28.6992  -13.2567   20.9267 C   0  0  0  0  0  0
  -25.2509  -13.8228   20.5725 C   0  0  0  0  0  0
  -24.1808  -13.0457   20.9260 C   0  0  0  0  0  0
  -24.6397  -11.6945   20.8787 C   0  0  0  0  0  0
  -23.9073  -10.4317   21.0438 C   0  0  0  0  0  0
  -24.3622   -9.4234   21.9212 C   0  0  0  0  0  0
  -23.6315   -8.2250   22.0747 C   0  0  0  0  0  0
  -22.4292   -8.0290   21.3533 C   0  0  0  0  0  0
  -21.9938   -9.0271   20.4634 C   0  0  0  0  0  0
  -22.7248  -10.2166   20.3088 C   0  0  0  0  0  0
  -21.6858   -6.0751   22.5281 C   0  0  0  0  0  0
  -21.4024   -6.5653   23.8215 C   0  0  0  0  0  0
  -21.3661   -5.6799   24.9171 C   0  0  0  0  0  0
  -21.6030   -4.3060   24.7214 C   0  0  0  0  0  0
  -21.8828   -3.8160   23.4336 C   0  0  0  0  0  0
  -21.9200   -4.6981   22.3395 C   0  0  0  0  0  0
  -22.7825  -13.5227   21.1877 C   0  0  0  0  0  0
  -22.1674   -4.2167   21.0967 F   0  0  0  0  0  0
  -21.5615   -3.4540   25.7722 F   0  0  0  0  0  0
  -29.9794  -13.5716   20.2801 N   0  0  0  0  0  0
  -26.2937  -12.9444   20.3308 N   0  0  0  0  0  0
  -25.9337  -11.6597   20.5870 N   0  0  0  0  0  0
  -22.0457  -12.8217   22.0424 N   0  0  0  0  0  0
  -25.4217  -15.1940   20.4157 N   0  0  0  0  0  0
  -31.8734  -14.7973   20.2559 O   0  0  0  0  0  0
  -21.6643   -6.8888   21.4241 O   0  0  0  0  0  0
  -22.3525  -14.5527   20.6713 O   0  0  0  0  0  0
  -24.6388  -31.8544   23.2044 C   0  0  0  0  0  0
  -25.9202  -32.4733   23.8386 C   0  0  1  0  0  0
  -27.2403  -27.2932   20.1242 C   0  0  0  0  0  0
  -25.5894  -33.8522   24.2280 N   0  0  0  0  0  0
  -23.4260  -30.4884   21.5507 C   0  0  2  0  0  0
  -24.8689  -28.9353   20.1150 C   0  0  0  0  0  0
  -22.7516  -29.4645   22.4910 C   0  0  0  0  0  0
  -18.0275  -28.1451   22.8484 C   0  0  0  0  0  0
  -24.1439  -36.7312   23.2667 C   0  0  0  0  0  0
  -25.9739  -30.7858   21.3765 C   0  0  0  0  0  0
  -26.0434  -29.4070   20.7152 C   0  0  0  0  0  0
  -27.2268  -28.6062   20.6958 C   0  0  0  0  0  0
  -26.0368  -26.8753   19.5026 C   0  0  0  0  0  0
  -24.8795  -27.6799   19.4866 C   0  0  0  0  0  0
  -23.6397  -29.8253   20.1646 C   0  0  0  0  0  0
  -25.4025  -36.3057   24.0406 C   0  0  1  0  0  0
  -20.5907  -28.3734   23.1268 C   0  0  2  0  0  0
  -20.6769  -26.9471   22.5376 C   0  0  0  0  0  0
  -19.5746  -26.6432   21.5180 C   0  0  0  0  0  0
  -18.1920  -26.7997   22.1626 C   0  0  0  0  0  0
  -19.1556  -28.8899   23.2863 C   0  0  0  0  0  0
  -18.9480  -30.1482   23.8893 C   0  0  0  0  0  0
  -17.6491  -30.6655   24.0596 C   0  0  0  0  0  0
  -25.8954  -34.9432   23.5136 C   0  0  0  0  0  0
  -16.5365  -29.9134   23.6397 C   0  0  0  0  0  0
  -16.7268  -28.6574   23.0366 C   0  0  0  0  0  0
  -26.4570  -31.6575   25.0768 C   0  0  0  0  0  0
  -25.3845  -31.3736   26.1549 C   0  0  0  0  0  0
  -27.0448  -30.2976   24.6228 C   0  0  0  0  0  0
  -27.6076  -32.4401   25.7546 C   0  0  0  0  0  0
  -27.5542  -37.1803   24.8478 C   0  0  0  0  0  0
  -21.4202  -29.3085   22.3654 N   0  0  0  0  0  0
  -26.4195  -37.3750   23.9466 N   0  0  0  0  0  0
  -24.6982  -31.0580   22.1000 N   0  0  0  0  0  0
  -23.4207  -28.8124   23.2952 O   0  0  0  0  0  0
  -28.3790  -26.4562   20.1253 O   0  0  0  0  0  0
  -26.5605  -34.8956   22.4727 O   0  0  0  0  0  0
  -23.5560  -32.1323   23.7433 O   0  0  0  0  0  0
  -29.6997  -21.2937   19.9356 C   0  0  0  0  0  0
  -30.0096  -20.0193   20.5898 C   0  0  0  0  0  0
  -29.6152  -22.5419   20.6913 C   0  0  0  0  0  0
  -30.3387  -20.1223   21.9550 C   0  0  0  0  0  0
  -29.8507  -22.4090   22.0757 C   0  0  0  0  0  0
  -31.0832  -19.0311   22.7085 C   0  0  0  0  0  0
  -31.3947  -23.9991   23.3155 C   0  0  0  0  0  0
  -31.0039  -22.2542   16.4789 C   0  0  0  0  0  0
  -32.2342  -21.3842   18.5268 C   0  0  0  0  0  0
  -30.1646  -16.1531   18.3521 C   0  0  0  0  0  0
  -29.6087  -21.3443   18.4137 C   0  0  0  0  0  0
  -30.2370  -18.6194   19.8653 C   0  0  0  0  0  0
  -29.5267  -24.0261   20.0859 C   0  0  0  0  0  0
  -29.9430  -23.5889   23.0337 C   0  0  0  0  0  0
  -29.6114  -17.2254   20.4444 C   0  0  0  0  0  0
  -28.2367  -24.9733   20.2833 C   0  0  0  0  0  0
  -30.9635  -21.2619   17.6509 C   0  0  0  0  0  0
  -30.1863  -21.2472   22.6685 N   0  0  0  0  0  0
  -29.9672  -15.8907   19.7854 N   0  0  0  0  0  0
  -31.4554  -12.6078   19.0646 H   0  0  0  0  0  0
  -30.4582  -11.5170   19.9924 H   0  0  0  0  0  0
  -29.7248  -11.4606   17.6505 H   0  0  0  0  0  0
  -29.6488  -13.1920   17.5337 H   0  0  0  0  0  0
  -27.8394  -11.2523   18.9660 H   0  0  0  0  0  0
  -27.3521  -12.4430   17.8038 H   0  0  0  0  0  0
  -27.5979  -14.2330   19.3798 H   0  0  0  0  0  0
  -28.7487  -12.3080   21.4640 H   0  0  0  0  0  0
  -28.4532  -14.0269   21.6602 H   0  0  0  0  0  0
  -25.2776   -9.5694   22.4781 H   0  0  0  0  0  0
  -24.0024   -7.4633   22.7474 H   0  0  0  0  0  0
  -21.0868   -8.8785   19.8937 H   0  0  0  0  0  0
  -22.3715  -10.9696   19.6191 H   0  0  0  0  0  0
  -21.2037   -7.6165   23.9720 H   0  0  0  0  0  0
  -21.1462   -6.0526   25.9068 H   0  0  0  0  0  0
  -22.0604   -2.7620   23.2818 H   0  0  0  0  0  0
  -22.4119  -11.9900   22.4814 H   0  0  0  0  0  0
  -21.1057  -13.1227   22.2598 H   0  0  0  0  0  0
  -24.6538  -15.8469   20.5339 H   0  0  0  0  0  0
  -26.2818  -15.6357   20.1150 H   0  0  0  0  0  0
  -26.7276  -32.5382   23.1179 H   0  0  0  0  0  0
  -25.0018  -33.9605   25.0417 H   0  0  0  0  0  0
  -22.7226  -31.3113   21.4164 H   0  0  0  0  0  0
  -23.3684  -35.9649   23.3275 H   0  0  0  0  0  0
  -24.3583  -36.8928   22.2076 H   0  0  0  0  0  0
  -23.7221  -37.6513   23.6701 H   0  0  0  0  0  0
  -26.0954  -31.5486   20.6089 H   0  0  0  0  0  0
  -26.8572  -30.8379   22.0009 H   0  0  0  0  0  0
  -28.1304  -28.9832   21.1551 H   0  0  0  0  0  0
  -25.9817  -25.9255   19.0013 H   0  0  0  0  0  0
  -23.9837  -27.3289   18.9950 H   0  0  0  0  0  0
  -23.7677  -30.6075   19.4153 H   0  0  0  0  0  0
  -22.7537  -29.2683   19.8556 H   0  0  0  0  0  0
  -25.1194  -36.1898   25.0911 H   0  0  0  0  0  0
  -20.9994  -28.3285   24.1391 H   0  0  0  0  0  0
  -20.5631  -26.2344   23.3558 H   0  0  0  0  0  0
  -21.6630  -26.7484   22.1188 H   0  0  0  0  0  0
  -19.6898  -25.6286   21.1292 H   0  0  0  0  0  0
  -19.6735  -27.3157   20.6635 H   0  0  0  0  0  0
  -17.4180  -26.6719   21.4063 H   0  0  0  0  0  0
  -18.0413  -26.0130   22.9025 H   0  0  0  0  0  0
  -19.7930  -30.7334   24.2287 H   0  0  0  0  0  0
  -17.5030  -31.6355   24.5176 H   0  0  0  0  0  0
  -15.5369  -30.3060   23.7722 H   0  0  0  0  0  0
  -15.8653  -28.0897   22.7121 H   0  0  0  0  0  0
  -24.6014  -30.7013   25.8041 H   0  0  0  0  0  0
  -24.9059  -32.2894   26.4979 H   0  0  0  0  0  0
  -25.8268  -30.9016   27.0320 H   0  0  0  0  0  0
  -26.3042  -29.6734   24.1226 H   0  0  0  0  0  0
  -27.4079  -29.7240   25.4790 H   0  0  0  0  0  0
  -27.8926  -30.4245   23.9499 H   0  0  0  0  0  0
  -27.2560  -33.3653   26.2150 H   0  0  0  0  0  0
  -28.3867  -32.7052   25.0376 H   0  0  0  0  0  0
  -28.0802  -31.8532   26.5412 H   0  0  0  0  0  0
  -28.2577  -38.0097   24.7476 H   0  0  0  0  0  0
  -28.1018  -36.2628   24.6288 H   0  0  0  0  0  0
  -27.2318  -37.1455   25.8901 H   0  0  0  0  0  0
  -20.9361  -29.8744   21.6833 H   0  0  0  0  0  0
  -26.0106  -38.2834   24.1424 H   0  0  0  0  0  0
  -31.5779  -18.3169   22.0527 H   0  0  0  0  0  0
  -30.4188  -18.4954   23.3805 H   0  0  0  0  0  0
  -31.8727  -19.4885   23.3024 H   0  0  0  0  0  0
  -31.8979  -24.3216   22.4043 H   0  0  0  0  0  0
  -31.4386  -24.8233   24.0301 H   0  0  0  0  0  0
  -31.9673  -23.1635   23.7237 H   0  0  0  0  0  0
  -31.8900  -22.0985   15.8626 H   0  0  0  0  0  0
  -31.0167  -23.2904   16.8197 H   0  0  0  0  0  0
  -30.1391  -22.1252   15.8283 H   0  0  0  0  0  0
  -33.1366  -21.4285   17.9123 H   0  0  0  0  0  0
  -32.3467  -20.5172   19.1770 H   0  0  0  0  0  0
  -32.2216  -22.2716   19.1632 H   0  0  0  0  0  0
  -29.3175  -16.7189   17.9486 H   0  0  0  0  0  0
  -30.2572  -15.2423   17.7645 H   0  0  0  0  0  0
  -31.0836  -16.7228   18.1921 H   0  0  0  0  0  0
  -29.0721  -22.2407   18.1156 H   0  0  0  0  0  0
  -28.9482  -20.5510   18.0669 H   0  0  0  0  0  0
  -31.3175  -18.4948   19.8382 H   0  0  0  0  0  0
  -29.9719  -18.7427   18.8197 H   0  0  0  0  0  0
  -29.7723  -23.9993   19.0259 H   0  0  0  0  0  0
  -30.3911  -24.5510   20.4969 H   0  0  0  0  0  0
  -29.4601  -23.3153   23.9722 H   0  0  0  0  0  0
  -29.3849  -24.4424   22.6732 H   0  0  0  0  0  0
  -28.5270  -17.3082   20.3506 H   0  0  0  0  0  0
  -29.7613  -17.1344   21.5156 H   0  0  0  0  0  0
  -27.8229  -24.8184   21.2776 H   0  0  0  0  0  0
  -27.4833  -24.5854   19.5973 H   0  0  0  0  0  0
  -31.0088  -20.2670   17.2067 H   0  0  0  0  0  0
  1 25  1  0  0  0
  1 30  2  0  0  0
  1 89  1  0  0  0
  2  3  1  0  0  0
  2 25  1  0  0  0
  2 90  1  0  0  0
  2 91  1  0  0  0
  3  4  1  0  0  0
  3 92  1  0  0  0
  3 93  1  0  0  0
  4  5  1  0  0  0
  4 94  1  0  0  0
  4 95  1  0  0  0
  5  6  1  0  0  0
  5 26  1  0  0  0
  5 96  1  0  0  0
  6 25  1  0  0  0
  6 97  1  0  0  0
  6 98  1  0  0  0
  7  8  2  0  0  0
  7 26  1  0  0  0
  7 29  1  0  0  0
  8  9  1  0  0  0
  8 22  1  0  0  0
  9 10  1  0  0  0
  9 27  2  0  0  0
 10 11  2  0  0  0
 10 15  1  0  0  0
 11 12  1  0  0  0
 11 99  1  0  0  0
 12 13  2  0  0  0
 12100  1  0  0  0
 13 14  1  0  0  0
 13 31  1  0  0  0
 14 15  2  0  0  0
 14101  1  0  0  0
 15102  1  0  0  0
 16 17  2  0  0  0
 16 21  1  0  0  0
 16 31  1  0  0  0
 17 18  1  0  0  0
 17103  1  0  0  0
 18 19  2  0  0  0
 18104  1  0  0  0
 19 20  1  0  0  0
 19 24  1  0  0  0
 20 21  2  0  0  0
 20105  1  0  0  0
 21 23  1  0  0  0
 22 28  1  0  0  0
 22 32  2  0  0  0
 26 27  1  0  0  0
 28106  1  0  0  0
 28107  1  0  0  0
 29108  1  0  0  0
 29109  1  0  0  0
 33 34  1  0  0  0
 33 66  1  0  0  0
 33 70  2  0  0  0
 34 36  1  0  0  0
 34 59  1  0  0  0
 34110  1  0  0  0
 35 44  2  0  0  0
 35 45  1  0  0  0
 35 68  1  0  0  0
 36 56  1  0  0  0
 36111  1  0  0  0
 37 39  1  0  0  0
 37 47  1  0  0  0
 37 66  1  0  0  0
 37112  1  0  0  0
 38 43  2  0  0  0
 38 46  1  0  0  0
 38 47  1  0  0  0
 39 64  1  0  0  0
 39 67  2  0  0  0
 40 52  1  0  0  0
 40 53  2  0  0  0
 40 58  1  0  0  0
 41113  1  0  0  0
 41114  1  0  0  0
 41115  1  0  0  0
 41 48  1  0  0  0
 42 43  1  0  0  0
 42 66  1  0  0  0
 42116  1  0  0  0
 42117  1  0  0  0
 43 44  1  0  0  0
 44118  1  0  0  0
 45 46  2  0  0  0
 45119  1  0  0  0
 46120  1  0  0  0
 47121  1  0  0  0
 47122  1  0  0  0
 48 56  1  0  0  0
 48 65  1  0  0  0
 48123  1  0  0  0
 49 50  1  0  0  0
 49 53  1  0  0  0
 49 64  1  0  0  0
 49124  1  0  0  0
 50 51  1  0  0  0
 50125  1  0  0  0
 50126  1  0  0  0
 51 52  1  0  0  0
 51127  1  0  0  0
 51128  1  0  0  0
 52129  1  0  0  0
 52130  1  0  0  0
 53 54  1  0  0  0
 54 55  2  0  0  0
 54131  1  0  0  0
 55 57  1  0  0  0
 55132  1  0  0  0
 56 69  2  0  0  0
 57 58  2  0  0  0
 57133  1  0  0  0
 58134  1  0  0  0
 59 60  1  0  0  0
 59 61  1  0  0  0
 59 62  1  0  0  0
 60135  1  0  0  0
 60136  1  0  0  0
 60137  1  0  0  0
 61138  1  0  0  0
 61139  1  0  0  0
 61140  1  0  0  0
 62141  1  0  0  0
 62142  1  0  0  0
 62143  1  0  0  0
 63 65  1  0  0  0
 63144  1  0  0  0
 63145  1  0  0  0
 63146  1  0  0  0
 64147  1  0  0  0
 65148  1  0  0  0
 68 86  1  0  0  0
 71 72  2  0  0  0
 71 73  1  0  0  0
 71 81  1  0  0  0
 72 74  1  0  0  0
 72 82  1  0  0  0
 73 75  2  0  0  0
 73 83  1  0  0  0
 74 76  1  0  0  0
 74 88  2  0  0  0
 75 84  1  0  0  0
 75 88  1  0  0  0
 76149  1  0  0  0
 76150  1  0  0  0
 76151  1  0  0  0
 77 84  1  0  0  0
 77152  1  0  0  0
 77153  1  0  0  0
 77154  1  0  0  0
 78155  1  0  0  0
 78156  1  0  0  0
 78157  1  0  0  0
 78 87  1  0  0  0
 79 87  1  0  0  0
 79158  1  0  0  0
 79159  1  0  0  0
 79160  1  0  0  0
 80 89  1  0  0  0
 80161  1  0  0  0
 80162  1  0  0  0
 80163  1  0  0  0
 81 87  1  0  0  0
 81164  1  0  0  0
 81165  1  0  0  0
 82 85  1  0  0  0
 82166  1  0  0  0
 82167  1  0  0  0
 83 86  1  0  0  0
 83168  1  0  0  0
 83169  1  0  0  0
 84170  1  0  0  0
 84171  1  0  0  0
 85 89  1  0  0  0
 85172  1  0  0  0
 85173  1  0  0  0
 86174  1  0  0  0
 86175  1  0  0  0
 87176  1  0  0  0
M  ISO  4   1 100  68 101  86 101  89 100
M  END
> <chiral flag>
0

> <version>
0

> <s_m_source_file>
/data/baiqing/PycharmProjects/Reinvent-master-3.2/result/LINK_invent/BTK/process_docking_weight1_custom_sum_contain_oxygen_bond_distance_aromatic_linkinvent_7_9_3/rearranged_h_0087.sdf

> <i_m_source_file_index>
15

> <r_mmod_Potential_Energy-OPLS-2005>
251.152221679688

> <r_mmod_Stretch_Energy-OPLS-2005>
129.725708007812

> <r_mmod_Bend_Energy-OPLS-2005>
185.06217956543

> <r_mmod_Torsional_Energy-OPLS-2005>
332.068603515625

> <r_mmod_Improper_Torsional_Energy-OPLS-2005>
27.0359764099121

> <r_mmod_Van_der_Waal_Energy-OPLS-2005>
153.00178527832

> <r_mmod_Electrostatic_Energy-OPLS-2005>
-476.647918701172

> <r_mmod_Solvation_Energy-OPLS-2005>
-201.249389648438

> <b_mmod_Minimization_Converged-OPLS-2005>
0

> <r_mmod_RMS_Derivative-OPLS-2005>
8.88104820251465

$$$$
15
                    3D
 Structure written by MMmdl.
161169  0  0  1  0            999 V2000
  -30.5706  -14.7743   20.2954 C   0  0  0  0  0  0
  -30.4297  -12.4476   19.4426 C   0  0  0  0  0  0
  -29.4930  -12.4619   18.2130 C   0  0  0  0  0  0
  -28.0216  -12.2922   18.6460 C   0  0  0  0  0  0
  -27.6289  -13.2233   19.8251 C   0  0  2  0  0  0
  -28.6876  -13.1945   20.9478 C   0  0  0  0  0  0
  -25.2489  -13.8181   20.5719 C   0  0  0  0  0  0
  -24.1751  -13.0404   20.9238 C   0  0  0  0  0  0
  -24.6340  -11.6909   20.8723 C   0  0  0  0  0  0
  -23.9009  -10.4282   21.0395 C   0  0  0  0  0  0
  -24.3581   -9.4217   21.9175 C   0  0  0  0  0  0
  -23.6277   -8.2232   22.0743 C   0  0  0  0  0  0
  -22.4261   -8.0253   21.3533 C   0  0  0  0  0  0
  -21.9883   -9.0211   20.4625 C   0  0  0  0  0  0
  -22.7184  -10.2118   20.3041 C   0  0  0  0  0  0
  -21.6854   -6.0712   22.5272 C   0  0  0  0  0  0
  -21.4012   -6.5625   23.8205 C   0  0  0  0  0  0
  -21.3657   -5.6781   24.9163 C   0  0  0  0  0  0
  -21.6049   -4.3048   24.7232 C   0  0  0  0  0  0
  -21.8812   -3.8134   23.4359 C   0  0  0  0  0  0
  -21.9193   -4.6936   22.3407 C   0  0  0  0  0  0
  -22.7790  -13.5213   21.1906 C   0  0  0  0  0  0
  -22.1659   -4.2125   21.0987 F   0  0  0  0  0  0
  -21.5637   -3.4540   25.7753 F   0  0  0  0  0  0
  -29.9757  -13.5356   20.3276 N   0  0  0  0  0  0
  -26.2875  -12.9346   20.3224 N   0  0  0  0  0  0
  -25.9269  -11.6507   20.5729 N   0  0  0  0  0  0
  -22.0449  -12.8146   22.0464 N   0  0  0  0  0  0
  -25.4175  -15.1887   20.4204 N   0  0  0  0  0  0
  -31.7937  -14.8740   20.1736 O   0  0  0  0  0  0
  -21.6639   -6.8849   21.4229 O   0  0  0  0  0  0
  -22.3466  -14.5499   20.6777 O   0  0  0  0  0  0
  -24.6389  -31.8462   23.1891 C   0  0  0  0  0  0
  -25.9177  -32.4667   23.8249 C   0  0  1  0  0  0
  -27.1943  -27.2252   20.0478 C   0  0  0  0  0  0
  -25.5942  -33.8477   24.2130 N   0  0  0  0  0  0
  -23.4332  -30.4700   21.5384 C   0  0  2  0  0  0
  -24.8652  -28.9042   20.1131 C   0  0  0  0  0  0
  -22.7505  -29.4549   22.4847 C   0  0  0  0  0  0
  -18.0290  -28.1399   22.8457 C   0  0  0  0  0  0
  -24.1515  -36.7228   23.2643 C   0  0  0  0  0  0
  -25.9911  -30.7331   21.3812 C   0  0  0  0  0  0
  -26.0538  -29.3624   20.6968 C   0  0  0  0  0  0
  -27.2253  -28.5328   20.6487 C   0  0  0  0  0  0
  -25.9780  -26.8486   19.4429 C   0  0  0  0  0  0
  -24.8249  -27.6462   19.5008 C   0  0  0  0  0  0
  -23.6482  -29.8057   20.1581 C   0  0  0  0  0  0
  -25.4156  -36.2982   24.0293 C   0  0  1  0  0  0
  -20.5899  -28.3679   23.1258 C   0  0  2  0  0  0
  -20.6772  -26.9385   22.5423 C   0  0  0  0  0  0
  -19.5749  -26.6354   21.5229 C   0  0  0  0  0  0
  -18.1905  -26.7928   22.1624 C   0  0  0  0  0  0
  -19.1543  -28.8861   23.2841 C   0  0  0  0  0  0
  -18.9472  -30.1442   23.8868 C   0  0  0  0  0  0
  -17.6493  -30.6590   24.0548 C   0  0  0  0  0  0
  -25.9129  -34.9374   23.5034 C   0  0  0  0  0  0
  -16.5368  -29.9076   23.6381 C   0  0  0  0  0  0
  -16.7285  -28.6510   23.0361 C   0  0  0  0  0  0
  -26.4495  -31.6563   25.0709 C   0  0  0  0  0  0
  -25.3672  -31.3726   26.1398 C   0  0  0  0  0  0
  -27.0373  -30.2985   24.6275 C   0  0  0  0  0  0
  -27.6026  -32.4349   25.7443 C   0  0  0  0  0  0
  -27.5579  -37.1740   24.8451 C   0  0  0  0  0  0
  -21.4193  -29.3019   22.3614 N   0  0  0  0  0  0
  -26.4296  -37.3703   23.9397 N   0  0  0  0  0  0
  -24.7066  -31.0347   22.0907 N   0  0  0  0  0  0
  -23.4201  -28.8054   23.2895 O   0  0  0  0  0  0
  -28.2820  -26.3199   20.0179 O   0  0  0  0  0  0
  -26.5713  -34.8859   22.4617 O   0  0  0  0  0  0
  -23.5530  -32.1360   23.7147 O   0  0  0  0  0  0
  -26.9514  -21.8366   19.0775 C   0  0  0  0  0  0
  -29.2224  -21.0658   18.9679 C   0  0  0  0  0  0
  -28.3104  -22.1972   19.0481 C   0  0  0  0  0  0
  -26.5571  -20.4885   19.1676 C   0  0  0  0  0  0
  -28.7665  -19.6862   19.0523 C   0  0  0  0  0  0
  -25.0752  -20.1610   19.2898 C   0  0  0  0  0  0
  -30.9501  -18.6634   18.0813 C   0  0  0  0  0  0
  -26.8451  -24.3410   20.8943 C   0  0  0  0  0  0
  -28.6710  -23.7568   19.0074 C   0  0  0  0  0  0
  -30.0033  -17.3918   20.1257 C   0  0  0  0  0  0
  -29.6469  -18.3509   18.8587 C   0  0  1  0  0  0
  -28.1278  -24.8069   20.1419 C   0  0  1  0  0  0
  -27.4315  -19.4518   19.1639 N   0  0  0  0  0  0
  -29.7430  -15.8759   20.1287 N   0  0  0  0  0  0
  -31.4693  -12.5736   19.1353 H   0  0  0  0  0  0
  -30.3765  -11.4887   19.9591 H   0  0  0  0  0  0
  -29.7668  -11.6612   17.5234 H   0  0  0  0  0  0
  -29.6086  -13.3976   17.6616 H   0  0  0  0  0  0
  -27.8892  -11.2501   18.9425 H   0  0  0  0  0  0
  -27.3538  -12.4498   17.7990 H   0  0  0  0  0  0
  -27.6009  -14.2309   19.4105 H   0  0  0  0  0  0
  -28.7314  -12.2081   21.4118 H   0  0  0  0  0  0
  -28.4325  -13.9010   21.7403 H   0  0  0  0  0  0
  -25.2724   -9.5710   22.4760 H   0  0  0  0  0  0
  -23.9991   -7.4628   22.7468 H   0  0  0  0  0  0
  -21.0826   -8.8699   19.8940 H   0  0  0  0  0  0
  -22.3607  -10.9637   19.6160 H   0  0  0  0  0  0
  -21.1996   -7.6129   23.9689 H   0  0  0  0  0  0
  -21.1490   -6.0525   25.9065 H   0  0  0  0  0  0
  -22.0594   -2.7591   23.2865 H   0  0  0  0  0  0
  -22.4083  -11.9812   22.4813 H   0  0  0  0  0  0
  -21.1067  -13.1137   22.2707 H   0  0  0  0  0  0
  -24.6565  -15.8441   20.5587 H   0  0  0  0  0  0
  -26.2708  -15.6398   20.1161 H   0  0  0  0  0  0
  -26.7186  -32.5271   23.0912 H   0  0  0  0  0  0
  -25.0017  -33.9591   25.0217 H   0  0  0  0  0  0
  -22.7418  -31.2992   21.3868 H   0  0  0  0  0  0
  -23.3768  -35.9568   23.3312 H   0  0  0  0  0  0
  -24.3582  -36.8924   22.2057 H   0  0  0  0  0  0
  -23.7298  -37.6428   23.6727 H   0  0  0  0  0  0
  -26.1806  -31.5030   20.6359 H   0  0  0  0  0  0
  -26.8479  -30.7400   22.0416 H   0  0  0  0  0  0
  -28.1482  -28.8693   21.0968 H   0  0  0  0  0  0
  -25.8999  -25.9066   18.9229 H   0  0  0  0  0  0
  -23.9014  -27.2874   19.0619 H   0  0  0  0  0  0
  -23.7786  -30.5808   19.4007 H   0  0  0  0  0  0
  -22.7604  -29.2499   19.8538 H   0  0  0  0  0  0
  -25.1339  -36.1784   25.0779 H   0  0  0  0  0  0
  -21.0024  -28.3278   24.1370 H   0  0  0  0  0  0
  -20.5748  -26.2253   23.3613 H   0  0  0  0  0  0
  -21.6611  -26.7428   22.1160 H   0  0  0  0  0  0
  -19.6953  -25.6262   21.1261 H   0  0  0  0  0  0
  -19.6750  -27.3155   20.6746 H   0  0  0  0  0  0
  -17.4203  -26.6685   21.3997 H   0  0  0  0  0  0
  -18.0272  -26.0088   22.9035 H   0  0  0  0  0  0
  -19.7969  -30.7220   24.2242 H   0  0  0  0  0  0
  -17.5064  -31.6291   24.5086 H   0  0  0  0  0  0
  -15.5378  -30.2949   23.7739 H   0  0  0  0  0  0
  -15.8681  -28.0825   22.7097 H   0  0  0  0  0  0
  -24.5899  -30.7031   25.7678 H   0  0  0  0  0  0
  -24.8790  -32.2889   26.4746 H   0  0  0  0  0  0
  -25.7945  -30.8952   27.0231 H   0  0  0  0  0  0
  -26.2975  -29.6650   24.1374 H   0  0  0  0  0  0
  -27.4116  -29.7332   25.4819 H   0  0  0  0  0  0
  -27.8816  -30.4242   23.9491 H   0  0  0  0  0  0
  -27.2674  -33.3729   26.1861 H   0  0  0  0  0  0
  -28.3866  -32.6807   25.0266 H   0  0  0  0  0  0
  -28.0631  -31.8597   26.5487 H   0  0  0  0  0  0
  -28.2516  -38.0091   24.7552 H   0  0  0  0  0  0
  -28.1139  -36.2629   24.6227 H   0  0  0  0  0  0
  -27.2282  -37.1325   25.8837 H   0  0  0  0  0  0
  -20.9371  -29.8760   21.6848 H   0  0  0  0  0  0
  -26.0159  -38.2757   24.1461 H   0  0  0  0  0  0
  -26.2035  -22.6137   19.0547 H   0  0  0  0  0  0
  -30.2710  -21.2569   18.7889 H   0  0  0  0  0  0
  -24.5800  -20.8951   19.9249 H   0  0  0  0  0  0
  -24.9002  -19.1820   19.7402 H   0  0  0  0  0  0
  -24.5701  -20.1854   18.3244 H   0  0  0  0  0  0
  -30.7511  -19.0915   17.0969 H   0  0  0  0  0  0
  -31.5501  -17.7666   17.9227 H   0  0  0  0  0  0
  -31.5819  -19.3672   18.6246 H   0  0  0  0  0  0
  -26.9054  -23.2926   21.1858 H   0  0  0  0  0  0
  -25.9400  -24.4083   20.2944 H   0  0  0  0  0  0
  -26.6612  -24.8946   21.8139 H   0  0  0  0  0  0
  -28.3575  -24.1249   18.0285 H   0  0  0  0  0  0
  -29.7575  -23.8280   18.9763 H   0  0  0  0  0  0
  -29.4835  -17.8080   20.9875 H   0  0  0  0  0  0
  -31.0576  -17.5346   20.3626 H   0  0  0  0  0  0
  -29.0552  -17.7395   18.1748 H   0  0  0  0  0  0
  -28.8726  -24.6226   20.9171 H   0  0  0  0  0  0
  -28.7640  -15.6361   20.1187 H   0  0  0  0  0  0
  1 25  1  0  0  0
  1 30  2  0  0  0
  1 84  1  0  0  0
  2  3  1  0  0  0
  2 25  1  0  0  0
  2 85  1  0  0  0
  2 86  1  0  0  0
  3  4  1  0  0  0
  3 87  1  0  0  0
  3 88  1  0  0  0
  4  5  1  0  0  0
  4 89  1  0  0  0
  4 90  1  0  0  0
  5  6  1  0  0  0
  5 26  1  0  0  0
  5 91  1  0  0  0
  6 25  1  0  0  0
  6 92  1  0  0  0
  6 93  1  0  0  0
  7  8  2  0  0  0
  7 26  1  0  0  0
  7 29  1  0  0  0
  8  9  1  0  0  0
  8 22  1  0  0  0
  9 10  1  0  0  0
  9 27  2  0  0  0
 10 11  2  0  0  0
 10 15  1  0  0  0
 11 12  1  0  0  0
 11 94  1  0  0  0
 12 13  2  0  0  0
 12 95  1  0  0  0
 13 14  1  0  0  0
 13 31  1  0  0  0
 14 15  2  0  0  0
 14 96  1  0  0  0
 15 97  1  0  0  0
 16 17  2  0  0  0
 16 21  1  0  0  0
 16 31  1  0  0  0
 17 18  1  0  0  0
 17 98  1  0  0  0
 18 19  2  0  0  0
 18 99  1  0  0  0
 19 20  1  0  0  0
 19 24  1  0  0  0
 20 21  2  0  0  0
 20100  1  0  0  0
 21 23  1  0  0  0
 22 28  1  0  0  0
 22 32  2  0  0  0
 26 27  1  0  0  0
 28101  1  0  0  0
 28102  1  0  0  0
 29103  1  0  0  0
 29104  1  0  0  0
 33 34  1  0  0  0
 33 66  1  0  0  0
 33 70  2  0  0  0
 34 36  1  0  0  0
 34 59  1  0  0  0
 34105  1  0  0  0
 35 44  2  0  0  0
 35 45  1  0  0  0
 35 68  1  0  0  0
 36 56  1  0  0  0
 36106  1  0  0  0
 37 39  1  0  0  0
 37 47  1  0  0  0
 37 66  1  0  0  0
 37107  1  0  0  0
 38 43  2  0  0  0
 38 46  1  0  0  0
 38 47  1  0  0  0
 39 64  1  0  0  0
 39 67  2  0  0  0
 40 52  1  0  0  0
 40 53  2  0  0  0
 40 58  1  0  0  0
 41108  1  0  0  0
 41109  1  0  0  0
 41110  1  0  0  0
 41 48  1  0  0  0
 42 43  1  0  0  0
 42 66  1  0  0  0
 42111  1  0  0  0
 42112  1  0  0  0
 43 44  1  0  0  0
 44113  1  0  0  0
 45 46  2  0  0  0
 45114  1  0  0  0
 46115  1  0  0  0
 47116  1  0  0  0
 47117  1  0  0  0
 48 56  1  0  0  0
 48 65  1  0  0  0
 48118  1  0  0  0
 49 50  1  0  0  0
 49 53  1  0  0  0
 49 64  1  0  0  0
 49119  1  0  0  0
 50 51  1  0  0  0
 50120  1  0  0  0
 50121  1  0  0  0
 51 52  1  0  0  0
 51122  1  0  0  0
 51123  1  0  0  0
 52124  1  0  0  0
 52125  1  0  0  0
 53 54  1  0  0  0
 54 55  2  0  0  0
 54126  1  0  0  0
 55 57  1  0  0  0
 55127  1  0  0  0
 56 69  2  0  0  0
 57 58  2  0  0  0
 57128  1  0  0  0
 58129  1  0  0  0
 59 60  1  0  0  0
 59 61  1  0  0  0
 59 62  1  0  0  0
 60130  1  0  0  0
 60131  1  0  0  0
 60132  1  0  0  0
 61133  1  0  0  0
 61134  1  0  0  0
 61135  1  0  0  0
 62136  1  0  0  0
 62137  1  0  0  0
 62138  1  0  0  0
 63 65  1  0  0  0
 63139  1  0  0  0
 63140  1  0  0  0
 63141  1  0  0  0
 64142  1  0  0  0
 65143  1  0  0  0
 68 82  1  0  0  0
 71 73  2  0  0  0
 71 74  1  0  0  0
 71144  1  0  0  0
 72 73  1  0  0  0
 72 75  2  0  0  0
 72145  1  0  0  0
 73 79  1  0  0  0
 74 76  1  0  0  0
 74 83  2  0  0  0
 75 81  1  0  0  0
 75 83  1  0  0  0
 76146  1  0  0  0
 76147  1  0  0  0
 76148  1  0  0  0
 77149  1  0  0  0
 77150  1  0  0  0
 77151  1  0  0  0
 77 81  1  0  0  0
 78152  1  0  0  0
 78153  1  0  0  0
 78154  1  0  0  0
 78 82  1  0  0  0
 79 82  1  0  0  0
 79155  1  0  0  0
 79156  1  0  0  0
 80 81  1  0  0  0
 80 84  1  0  0  0
 80157  1  0  0  0
 80158  1  0  0  0
 81159  1  0  0  0
 82160  1  0  0  0
 84161  1  0  0  0
M  ISO  4   1 100  68 101  82 101  84 100
M  END
> <chiral flag>
0

> <version>
0

> <s_m_source_file>
/data/baiqing/PycharmProjects/Reinvent-master-3.2/result/LINK_invent/BTK/process_docking_weight1_custom_sum_contain_oxygen_bond_distance_aromatic_linkinvent_7_9_3/rearranged_h_0087.sdf

> <i_m_source_file_index>
16

> <r_mmod_Potential_Energy-OPLS-2005>
136.746139526367

> <r_mmod_Stretch_Energy-OPLS-2005>
142.570953369141

> <r_mmod_Bend_Energy-OPLS-2005>
204.354537963867

> <r_mmod_Torsional_Energy-OPLS-2005>
239.612197875977

> <r_mmod_Improper_Torsional_Energy-OPLS-2005>
7.01817178726196

> <r_mmod_Van_der_Waal_Energy-OPLS-2005>
147.532943725586

> <r_mmod_Electrostatic_Energy-OPLS-2005>
-508.839935302734

> <r_mmod_Solvation_Energy-OPLS-2005>
-212.497009277344

> <b_mmod_Minimization_Converged-OPLS-2005>
0

> <r_mmod_RMS_Derivative-OPLS-2005>
9.0720043182373

$$$$
16
                    3D
 Structure written by MMmdl.
182190  0  0  1  0            999 V2000
  -30.5709  -14.7511   20.4659 C   0  0  0  0  0  0
  -30.4422  -12.4645   19.4546 C   0  0  0  0  0  0
  -29.5069  -12.5045   18.2242 C   0  0  0  0  0  0
  -28.0343  -12.3228   18.6445 C   0  0  0  0  0  0
  -27.6404  -13.2219   19.8465 C   0  0  2  0  0  0
  -28.6867  -13.1357   20.9774 C   0  0  0  0  0  0
  -25.2501  -13.8171   20.5673 C   0  0  0  0  0  0
  -24.1791  -13.0428   20.9213 C   0  0  0  0  0  0
  -24.6368  -11.6901   20.8750 C   0  0  0  0  0  0
  -23.9040  -10.4286   21.0403 C   0  0  0  0  0  0
  -24.3599   -9.4206   21.9181 C   0  0  0  0  0  0
  -23.6288   -8.2238   22.0749 C   0  0  0  0  0  0
  -22.4265   -8.0267   21.3545 C   0  0  0  0  0  0
  -21.9893   -9.0232   20.4645 C   0  0  0  0  0  0
  -22.7210  -10.2121   20.3053 C   0  0  0  0  0  0
  -21.6847   -6.0720   22.5280 C   0  0  0  0  0  0
  -21.4004   -6.5631   23.8206 C   0  0  0  0  0  0
  -21.3659   -5.6790   24.9177 C   0  0  0  0  0  0
  -21.6046   -4.3055   24.7232 C   0  0  0  0  0  0
  -21.8820   -3.8138   23.4351 C   0  0  0  0  0  0
  -21.9194   -4.6947   22.3404 C   0  0  0  0  0  0
  -22.7818  -13.5220   21.1883 C   0  0  0  0  0  0
  -22.1661   -4.2131   21.0986 F   0  0  0  0  0  0
  -21.5636   -3.4543   25.7748 F   0  0  0  0  0  0
  -29.9811  -13.5091   20.3948 N   0  0  0  0  0  0
  -26.2923  -12.9360   20.3255 N   0  0  0  0  0  0
  -25.9295  -11.6517   20.5734 N   0  0  0  0  0  0
  -22.0462  -12.8202   22.0444 N   0  0  0  0  0  0
  -25.4226  -15.1888   20.4064 N   0  0  0  0  0  0
  -31.7631  -14.8883   20.1775 O   0  0  0  0  0  0
  -21.6639   -6.8853   21.4239 O   0  0  0  0  0  0
  -22.3509  -14.5532   20.6731 O   0  0  0  0  0  0
  -24.6304  -31.8562   23.1947 C   0  0  0  0  0  0
  -25.9144  -32.4758   23.8283 C   0  0  1  0  0  0
  -27.2116  -27.2614   20.1069 C   0  0  0  0  0  0
  -25.5973  -33.8558   24.2224 N   0  0  0  0  0  0
  -23.4253  -30.4796   21.5384 C   0  0  2  0  0  0
  -24.8707  -28.9325   20.0947 C   0  0  0  0  0  0
  -22.7495  -29.4616   22.4898 C   0  0  0  0  0  0
  -18.0298  -28.1368   22.8493 C   0  0  0  0  0  0
  -24.1493  -36.7269   23.2638 C   0  0  0  0  0  0
  -25.9703  -30.7660   21.3780 C   0  0  0  0  0  0
  -26.0393  -29.3894   20.7139 C   0  0  0  0  0  0
  -27.2037  -28.5591   20.7248 C   0  0  0  0  0  0
  -26.0303  -26.8843   19.4450 C   0  0  0  0  0  0
  -24.8714  -27.6862   19.4488 C   0  0  0  0  0  0
  -23.6402  -29.8178   20.1506 C   0  0  0  0  0  0
  -25.4114  -36.3066   24.0321 C   0  0  1  0  0  0
  -20.5904  -28.3687   23.1260 C   0  0  2  0  0  0
  -20.6778  -26.9409   22.5396 C   0  0  0  0  0  0
  -19.5749  -26.6355   21.5218 C   0  0  0  0  0  0
  -18.1929  -26.7910   22.1622 C   0  0  0  0  0  0
  -19.1555  -28.8838   23.2878 C   0  0  0  0  0  0
  -18.9481  -30.1438   23.8906 C   0  0  0  0  0  0
  -17.6482  -30.6580   24.0552 C   0  0  0  0  0  0
  -25.9062  -34.9445   23.5057 C   0  0  0  0  0  0
  -16.5369  -29.9073   23.6333 C   0  0  0  0  0  0
  -16.7280  -28.6473   23.0377 C   0  0  0  0  0  0
  -26.4494  -31.6600   25.0691 C   0  0  0  0  0  0
  -25.3698  -31.3762   26.1411 C   0  0  0  0  0  0
  -27.0349  -30.3011   24.6203 C   0  0  0  0  0  0
  -27.6044  -32.4369   25.7460 C   0  0  0  0  0  0
  -27.5568  -37.1783   24.8466 C   0  0  0  0  0  0
  -21.4213  -29.3043   22.3632 N   0  0  0  0  0  0
  -26.4282  -37.3780   23.9419 N   0  0  0  0  0  0
  -24.6939  -31.0523   22.0922 N   0  0  0  0  0  0
  -23.4198  -28.8165   23.3006 O   0  0  0  0  0  0
  -28.2784  -26.3489   20.2584 O   0  0  0  0  0  0
  -26.5606  -34.8944   22.4611 O   0  0  0  0  0  0
  -23.5458  -32.1394   23.7234 O   0  0  0  0  0  0
  -27.9404  -22.4941   21.3838 C   0  0  0  0  0  0
  -29.0618  -21.1411   19.7431 C   0  0  0  0  0  0
  -28.5479  -22.4562   20.1176 C   0  0  0  0  0  0
  -27.7681  -21.3040   22.1245 C   0  0  0  0  0  0
  -28.9084  -19.9577   20.5680 C   0  0  0  0  0  0
  -29.3528  -18.3459   18.5705 C   0  0  0  0  0  0
  -26.7570  -23.5399   18.7718 C   0  0  0  0  0  0
  -28.9866  -23.3075   17.7689 C   0  0  0  0  0  0
  -29.0895  -23.5793   26.5206 C   0  0  0  0  0  0
  -27.2297  -22.3085   27.6401 C   0  0  0  0  0  0
  -29.5261  -21.3343   27.5291 C   0  0  0  0  0  0
  -26.7898  -21.2983   23.2900 C   0  0  0  0  0  0
  -27.1935  -22.1636   24.4947 C   0  0  0  0  0  0
  -28.1895  -21.4588   25.4319 C   0  0  0  0  0  0
  -30.0077  -17.3464   20.8520 C   0  0  0  0  0  0
  -28.6491  -25.2548   19.3102 C   0  0  0  0  0  0
  -29.0715  -18.4281   20.0797 C   0  0  1  0  0  0
  -28.2589  -23.6596   19.0941 C   0  0  0  0  0  0
  -28.4939  -22.1812   26.7668 C   0  0  0  0  0  0
  -28.2613  -20.0953   21.7500 N   0  0  0  0  0  0
  -29.7400  -15.8418   20.6728 N   0  0  0  0  0  0
  -31.4768  -12.6226   19.1422 H   0  0  0  0  0  0
  -30.4173  -11.4832   19.9316 H   0  0  0  0  0  0
  -29.7891  -11.7269   17.5130 H   0  0  0  0  0  0
  -29.6250  -13.4553   17.7018 H   0  0  0  0  0  0
  -27.8989  -11.2741   18.9138 H   0  0  0  0  0  0
  -27.3716  -12.5080   17.7981 H   0  0  0  0  0  0
  -27.6376  -14.2446   19.4699 H   0  0  0  0  0  0
  -28.7299  -12.1258   21.3875 H   0  0  0  0  0  0
  -28.4198  -13.7910   21.8082 H   0  0  0  0  0  0
  -25.2740   -9.5689   22.4760 H   0  0  0  0  0  0
  -23.9998   -7.4622   22.7466 H   0  0  0  0  0  0
  -21.0826   -8.8737   19.8949 H   0  0  0  0  0  0
  -22.3658  -10.9650   19.6168 H   0  0  0  0  0  0
  -21.1980   -7.6136   23.9701 H   0  0  0  0  0  0
  -21.1485   -6.0527   25.9079 H   0  0  0  0  0  0
  -22.0597   -2.7597   23.2866 H   0  0  0  0  0  0
  -22.4083  -11.9866   22.4834 H   0  0  0  0  0  0
  -21.1076  -13.1210   22.2630 H   0  0  0  0  0  0
  -24.6542  -15.8425   20.5079 H   0  0  0  0  0  0
  -26.2596  -15.6216   20.0394 H   0  0  0  0  0  0
  -26.7190  -32.5407   23.0999 H   0  0  0  0  0  0
  -25.0246  -33.9651   25.0461 H   0  0  0  0  0  0
  -22.7211  -31.3019   21.3955 H   0  0  0  0  0  0
  -23.3770  -35.9588   23.3321 H   0  0  0  0  0  0
  -24.3587  -36.8857   22.2048 H   0  0  0  0  0  0
  -23.7221  -37.6460   23.6651 H   0  0  0  0  0  0
  -26.1175  -31.5330   20.6158 H   0  0  0  0  0  0
  -26.8415  -30.8017   22.0206 H   0  0  0  0  0  0
  -28.0889  -28.8888   21.2473 H   0  0  0  0  0  0
  -25.9586  -25.9347   18.9556 H   0  0  0  0  0  0
  -23.9805  -27.3292   18.9522 H   0  0  0  0  0  0
  -23.7568  -30.5988   19.3995 H   0  0  0  0  0  0
  -22.7575  -29.2524   19.8446 H   0  0  0  0  0  0
  -25.1306  -36.1877   25.0810 H   0  0  0  0  0  0
  -21.0029  -28.3251   24.1362 H   0  0  0  0  0  0
  -20.5707  -26.2311   23.3598 H   0  0  0  0  0  0
  -21.6644  -26.7420   22.1184 H   0  0  0  0  0  0
  -19.6943  -25.6261   21.1245 H   0  0  0  0  0  0
  -19.6689  -27.3176   20.6753 H   0  0  0  0  0  0
  -17.4214  -26.6689   21.4005 H   0  0  0  0  0  0
  -18.0308  -26.0034   22.8989 H   0  0  0  0  0  0
  -19.7960  -30.7240   24.2290 H   0  0  0  0  0  0
  -17.5038  -31.6280   24.5116 H   0  0  0  0  0  0
  -15.5365  -30.2987   23.7644 H   0  0  0  0  0  0
  -15.8675  -28.0774   22.7135 H   0  0  0  0  0  0
  -24.5921  -30.7069   25.7724 H   0  0  0  0  0  0
  -24.8849  -32.2936   26.4765 H   0  0  0  0  0  0
  -25.7990  -30.8987   27.0228 H   0  0  0  0  0  0
  -26.2922  -29.6763   24.1233 H   0  0  0  0  0  0
  -27.4044  -29.7279   25.4712 H   0  0  0  0  0  0
  -27.8803  -30.4292   23.9440 H   0  0  0  0  0  0
  -27.2653  -33.3705   26.1961 H   0  0  0  0  0  0
  -28.3859  -32.6874   25.0276 H   0  0  0  0  0  0
  -28.0726  -31.8569   26.5415 H   0  0  0  0  0  0
  -28.2580  -38.0092   24.7522 H   0  0  0  0  0  0
  -28.1057  -36.2611   24.6271 H   0  0  0  0  0  0
  -27.2284  -37.1388   25.8871 H   0  0  0  0  0  0
  -20.9392  -29.8793   21.6867 H   0  0  0  0  0  0
  -26.0157  -38.2845   24.1446 H   0  0  0  0  0  0
  -27.4583  -23.4036   21.7153 H   0  0  0  0  0  0
  -29.4781  -20.9962   18.7594 H   0  0  0  0  0  0
  -28.6171  -18.9120   17.9972 H   0  0  0  0  0  0
  -29.3137  -17.3159   18.2169 H   0  0  0  0  0  0
  -30.3401  -18.7428   18.3358 H   0  0  0  0  0  0
  -26.4945  -22.5138   18.5098 H   0  0  0  0  0  0
  -26.4679  -24.1564   17.9215 H   0  0  0  0  0  0
  -26.1421  -23.8156   19.6294 H   0  0  0  0  0  0
  -28.6279  -22.3761   17.3303 H   0  0  0  0  0  0
  -30.0619  -23.2135   17.9233 H   0  0  0  0  0  0
  -28.8448  -24.0658   16.9998 H   0  0  0  0  0  0
  -29.4259  -24.0334   27.4537 H   0  0  0  0  0  0
  -28.3608  -24.2602   26.0795 H   0  0  0  0  0  0
  -29.9484  -23.5320   25.8492 H   0  0  0  0  0  0
  -27.4653  -22.7292   28.6187 H   0  0  0  0  0  0
  -26.7618  -21.3370   27.8069 H   0  0  0  0  0  0
  -26.4816  -22.9620   27.1914 H   0  0  0  0  0  0
  -29.8072  -21.7970   28.4762 H   0  0  0  0  0  0
  -30.4383  -21.2006   26.9452 H   0  0  0  0  0  0
  -29.1342  -20.3408   27.7546 H   0  0  0  0  0  0
  -26.5795  -20.2771   23.6104 H   0  0  0  0  0  0
  -25.8431  -21.6711   22.8973 H   0  0  0  0  0  0
  -26.2798  -22.3849   25.0451 H   0  0  0  0  0  0
  -27.5797  -23.1250   24.1572 H   0  0  0  0  0  0
  -29.1204  -21.3046   24.8835 H   0  0  0  0  0  0
  -27.8131  -20.4590   25.6565 H   0  0  0  0  0  0
  -29.8994  -17.5325   21.9214 H   0  0  0  0  0  0
  -31.0549  -17.5554   20.6304 H   0  0  0  0  0  0
  -28.4622  -25.7367   18.3494 H   0  0  0  0  0  0
  -29.7360  -25.2582   19.3960 H   0  0  0  0  0  0
  -28.0578  -18.0414   20.1980 H   0  0  0  0  0  0
  -28.7751  -15.5802   20.8073 H   0  0  0  0  0  0
  1 25  1  0  0  0
  1 30  2  0  0  0
  1 91  1  0  0  0
  2  3  1  0  0  0
  2 25  1  0  0  0
  2 92  1  0  0  0
  2 93  1  0  0  0
  3  4  1  0  0  0
  3 94  1  0  0  0
  3 95  1  0  0  0
  4  5  1  0  0  0
  4 96  1  0  0  0
  4 97  1  0  0  0
  5  6  1  0  0  0
  5 26  1  0  0  0
  5 98  1  0  0  0
  6 25  1  0  0  0
  6 99  1  0  0  0
  6100  1  0  0  0
  7  8  2  0  0  0
  7 26  1  0  0  0
  7 29  1  0  0  0
  8  9  1  0  0  0
  8 22  1  0  0  0
  9 10  1  0  0  0
  9 27  2  0  0  0
 10 11  2  0  0  0
 10 15  1  0  0  0
 11 12  1  0  0  0
 11101  1  0  0  0
 12 13  2  0  0  0
 12102  1  0  0  0
 13 14  1  0  0  0
 13 31  1  0  0  0
 14 15  2  0  0  0
 14103  1  0  0  0
 15104  1  0  0  0
 16 17  2  0  0  0
 16 21  1  0  0  0
 16 31  1  0  0  0
 17 18  1  0  0  0
 17105  1  0  0  0
 18 19  2  0  0  0
 18106  1  0  0  0
 19 20  1  0  0  0
 19 24  1  0  0  0
 20 21  2  0  0  0
 20107  1  0  0  0
 21 23  1  0  0  0
 22 28  1  0  0  0
 22 32  2  0  0  0
 26 27  1  0  0  0
 28108  1  0  0  0
 28109  1  0  0  0
 29110  1  0  0  0
 29111  1  0  0  0
 33 34  1  0  0  0
 33 66  1  0  0  0
 33 70  2  0  0  0
 34 36  1  0  0  0
 34 59  1  0  0  0
 34112  1  0  0  0
 35 44  2  0  0  0
 35 45  1  0  0  0
 35 68  1  0  0  0
 36 56  1  0  0  0
 36113  1  0  0  0
 37 39  1  0  0  0
 37 47  1  0  0  0
 37 66  1  0  0  0
 37114  1  0  0  0
 38 43  2  0  0  0
 38 46  1  0  0  0
 38 47  1  0  0  0
 39 64  1  0  0  0
 39 67  2  0  0  0
 40 52  1  0  0  0
 40 53  2  0  0  0
 40 58  1  0  0  0
 41115  1  0  0  0
 41116  1  0  0  0
 41117  1  0  0  0
 41 48  1  0  0  0
 42 43  1  0  0  0
 42 66  1  0  0  0
 42118  1  0  0  0
 42119  1  0  0  0
 43 44  1  0  0  0
 44120  1  0  0  0
 45 46  2  0  0  0
 45121  1  0  0  0
 46122  1  0  0  0
 47123  1  0  0  0
 47124  1  0  0  0
 48 56  1  0  0  0
 48 65  1  0  0  0
 48125  1  0  0  0
 49 50  1  0  0  0
 49 53  1  0  0  0
 49 64  1  0  0  0
 49126  1  0  0  0
 50 51  1  0  0  0
 50127  1  0  0  0
 50128  1  0  0  0
 51 52  1  0  0  0
 51129  1  0  0  0
 51130  1  0  0  0
 52131  1  0  0  0
 52132  1  0  0  0
 53 54  1  0  0  0
 54 55  2  0  0  0
 54133  1  0  0  0
 55 57  1  0  0  0
 55134  1  0  0  0
 56 69  2  0  0  0
 57 58  2  0  0  0
 57135  1  0  0  0
 58136  1  0  0  0
 59 60  1  0  0  0
 59 61  1  0  0  0
 59 62  1  0  0  0
 60137  1  0  0  0
 60138  1  0  0  0
 60139  1  0  0  0
 61140  1  0  0  0
 61141  1  0  0  0
 61142  1  0  0  0
 62143  1  0  0  0
 62144  1  0  0  0
 62145  1  0  0  0
 63 65  1  0  0  0
 63146  1  0  0  0
 63147  1  0  0  0
 63148  1  0  0  0
 64149  1  0  0  0
 65150  1  0  0  0
 68 86  1  0  0  0
 71 73  2  0  0  0
 71 74  1  0  0  0
 71151  1  0  0  0
 72 73  1  0  0  0
 72 75  2  0  0  0
 72152  1  0  0  0
 73 88  1  0  0  0
 74 82  1  0  0  0
 74 90  2  0  0  0
 75 87  1  0  0  0
 75 90  1  0  0  0
 76153  1  0  0  0
 76154  1  0  0  0
 76155  1  0  0  0
 76 87  1  0  0  0
 77156  1  0  0  0
 77157  1  0  0  0
 77158  1  0  0  0
 77 88  1  0  0  0
 78 88  1  0  0  0
 78159  1  0  0  0
 78160  1  0  0  0
 78161  1  0  0  0
 79162  1  0  0  0
 79163  1  0  0  0
 79164  1  0  0  0
 79 89  1  0  0  0
 80 89  1  0  0  0
 80165  1  0  0  0
 80166  1  0  0  0
 80167  1  0  0  0
 81 89  1  0  0  0
 81168  1  0  0  0
 81169  1  0  0  0
 81170  1  0  0  0
 82 83  1  0  0  0
 82171  1  0  0  0
 82172  1  0  0  0
 83 84  1  0  0  0
 83173  1  0  0  0
 83174  1  0  0  0
 84 89  1  0  0  0
 84175  1  0  0  0
 84176  1  0  0  0
 85 87  1  0  0  0
 85 91  1  0  0  0
 85177  1  0  0  0
 85178  1  0  0  0
 86 88  1  0  0  0
 86179  1  0  0  0
 86180  1  0  0  0
 87181  1  0  0  0
 91182  1  0  0  0
M  ISO  4   1 100  68 101  86 101  91 100
M  END
> <chiral flag>
0

> <version>
0

> <s_m_source_file>
/data/baiqing/PycharmProjects/Reinvent-master-3.2/result/LINK_invent/BTK/process_docking_weight1_custom_sum_contain_oxygen_bond_distance_aromatic_linkinvent_7_9_3/rearranged_h_0087.sdf

> <i_m_source_file_index>
17

> <r_mmod_Potential_Energy-OPLS-2005>
131.017471313477

> <r_mmod_Stretch_Energy-OPLS-2005>
139.147094726562

> <r_mmod_Bend_Energy-OPLS-2005>
266.458801269531

> <r_mmod_Torsional_Energy-OPLS-2005>
239.009460449219

> <r_mmod_Improper_Torsional_Energy-OPLS-2005>
12.1483030319214

> <r_mmod_Van_der_Waal_Energy-OPLS-2005>
146.089218139648

> <r_mmod_Electrostatic_Energy-OPLS-2005>
-562.930786132812

> <r_mmod_Solvation_Energy-OPLS-2005>
-203.221862792969

> <b_mmod_Minimization_Converged-OPLS-2005>
0

> <r_mmod_RMS_Derivative-OPLS-2005>
2.79662704467773

$$$$
17
                    3D
 Structure written by MMmdl.
167174  0  0  1  0            999 V2000
  -30.6465  -14.6533   20.4987 C   0  0  0  0  0  0
  -30.4276  -12.4007   19.4802 C   0  0  0  0  0  0
  -29.5291  -12.5542   18.2391 C   0  0  0  0  0  0
  -28.0575  -12.3412   18.6451 C   0  0  0  0  0  0
  -27.6535  -13.2206   19.8628 C   0  0  2  0  0  0
  -28.6922  -13.1175   21.0044 C   0  0  0  0  0  0
  -25.2549  -13.8120   20.5661 C   0  0  0  0  0  0
  -24.1844  -13.0383   20.9136 C   0  0  0  0  0  0
  -24.6386  -11.6844   20.8628 C   0  0  0  0  0  0
  -23.9007  -10.4240   21.0315 C   0  0  0  0  0  0
  -24.3554   -9.4218   21.9162 C   0  0  0  0  0  0
  -23.6235   -8.2256   22.0779 C   0  0  0  0  0  0
  -22.4250   -8.0227   21.3551 C   0  0  0  0  0  0
  -21.9834   -9.0178   20.4662 C   0  0  0  0  0  0
  -22.7127  -10.2073   20.3032 C   0  0  0  0  0  0
  -21.6864   -6.0677   22.5280 C   0  0  0  0  0  0
  -21.4000   -6.5596   23.8198 C   0  0  0  0  0  0
  -21.3682   -5.6782   24.9180 C   0  0  0  0  0  0
  -21.6063   -4.3043   24.7250 C   0  0  0  0  0  0
  -21.8817   -3.8100   23.4383 C   0  0  0  0  0  0
  -21.9201   -4.6901   22.3427 C   0  0  0  0  0  0
  -22.7860  -13.5194   21.1799 C   0  0  0  0  0  0
  -22.1659   -4.2090   21.0998 F   0  0  0  0  0  0
  -21.5653   -3.4542   25.7767 F   0  0  0  0  0  0
  -30.0047  -13.4425   20.4369 N   0  0  0  0  0  0
  -26.3002  -12.9338   20.3292 N   0  0  0  0  0  0
  -25.9331  -11.6472   20.5652 N   0  0  0  0  0  0
  -22.0468  -12.8254   22.0356 N   0  0  0  0  0  0
  -25.4172  -15.1848   20.4076 N   0  0  0  0  0  0
  -31.8150  -14.7701   20.1241 O   0  0  0  0  0  0
  -21.6662   -6.8791   21.4241 O   0  0  0  0  0  0
  -22.3569  -14.5505   20.6609 O   0  0  0  0  0  0
  -24.6332  -31.8637   23.2069 C   0  0  0  0  0  0
  -25.9165  -32.4810   23.8401 C   0  0  1  0  0  0
  -27.1918  -27.2977   20.0791 C   0  0  0  0  0  0
  -25.5989  -33.8619   24.2335 N   0  0  0  0  0  0
  -23.4279  -30.4935   21.5551 C   0  0  2  0  0  0
  -24.8611  -28.9592   20.1142 C   0  0  0  0  0  0
  -22.7551  -29.4636   22.4943 C   0  0  0  0  0  0
  -18.0324  -28.1409   22.8469 C   0  0  0  0  0  0
  -24.1510  -36.7263   23.2641 C   0  0  0  0  0  0
  -25.9792  -30.7797   21.3919 C   0  0  0  0  0  0
  -26.0430  -29.4162   20.7122 C   0  0  0  0  0  0
  -27.2172  -28.6003   20.6775 C   0  0  0  0  0  0
  -25.9765  -26.9074   19.4657 C   0  0  0  0  0  0
  -24.8308  -27.7114   19.4871 C   0  0  0  0  0  0
  -23.6439  -29.8529   20.1649 C   0  0  0  0  0  0
  -25.4152  -36.3123   24.0339 C   0  0  1  0  0  0
  -20.5941  -28.3711   23.1263 C   0  0  2  0  0  0
  -20.6849  -26.9441   22.5385 C   0  0  0  0  0  0
  -19.5813  -26.6396   21.5216 C   0  0  0  0  0  0
  -18.1979  -26.7954   22.1595 C   0  0  0  0  0  0
  -19.1581  -28.8881   23.2857 C   0  0  0  0  0  0
  -18.9483  -30.1491   23.8855 C   0  0  0  0  0  0
  -17.6472  -30.6595   24.0558 C   0  0  0  0  0  0
  -25.9083  -34.9478   23.5128 C   0  0  0  0  0  0
  -16.5373  -29.9068   23.6356 C   0  0  0  0  0  0
  -16.7297  -28.6511   23.0337 C   0  0  0  0  0  0
  -26.4527  -31.6611   25.0771 C   0  0  0  0  0  0
  -25.3722  -31.3677   26.1441 C   0  0  0  0  0  0
  -27.0382  -30.3055   24.6209 C   0  0  0  0  0  0
  -27.6110  -32.4323   25.7521 C   0  0  0  0  0  0
  -27.5616  -37.1810   24.8481 C   0  0  0  0  0  0
  -21.4271  -29.3047   22.3662 N   0  0  0  0  0  0
  -26.4342  -37.3807   23.9404 N   0  0  0  0  0  0
  -24.6984  -31.0627   22.1054 N   0  0  0  0  0  0
  -23.4262  -28.8159   23.3036 O   0  0  0  0  0  0
  -28.2808  -26.4072   20.0869 O   0  0  0  0  0  0
  -26.5625  -34.8930   22.4682 O   0  0  0  0  0  0
  -23.5482  -32.1439   23.7372 O   0  0  0  0  0  0
  -27.9289  -21.2528   18.7634 C   0  0  0  0  0  0
  -28.2213  -17.7754   19.3432 C   0  0  0  0  0  0
  -32.1117  -20.2608   19.5373 C   0  0  0  0  0  0
  -30.6155  -19.2618   17.8432 C   0  0  0  0  0  0
  -29.1268  -23.8604   20.0498 C   0  0  0  0  0  0
  -28.9370  -22.4698   20.8267 C   0  0  0  0  0  0
  -30.3368  -17.2083   20.6827 C   0  0  0  0  0  0
  -27.9660  -24.9493   20.0506 C   0  0  0  0  0  0
  -28.6132  -21.0498   20.1367 C   0  0  2  0  0  0
  -29.2294  -18.3226   20.3762 C   0  0  1  0  0  0
  -29.7143  -19.8690   20.1620 C   0  0  1  0  0  0
  -29.8978  -15.7636   20.7886 N   0  0  0  0  0  0
  -30.7143  -20.1023   19.0643 N   0  3  0  0  0  0
  -31.4848  -12.4692   19.2177 H   0  0  0  0  0  0
  -30.2918  -11.4121   19.9197 H   0  0  0  0  0  0
  -29.8248  -11.8519   17.4598 H   0  0  0  0  0  0
  -29.6672  -13.5516   17.8149 H   0  0  0  0  0  0
  -27.9476  -11.2855   18.8980 H   0  0  0  0  0  0
  -27.3974  -12.5238   17.7982 H   0  0  0  0  0  0
  -27.6543  -14.2505   19.5040 H   0  0  0  0  0  0
  -28.7155  -12.1092   21.4226 H   0  0  0  0  0  0
  -28.4317  -13.7773   21.8328 H   0  0  0  0  0  0
  -25.2677   -9.5757   22.4742 H   0  0  0  0  0  0
  -23.9970   -7.4674   22.7521 H   0  0  0  0  0  0
  -21.0786   -8.8591   19.8962 H   0  0  0  0  0  0
  -22.3513  -10.9553   19.6120 H   0  0  0  0  0  0
  -21.1963   -7.6099   23.9672 H   0  0  0  0  0  0
  -21.1523   -6.0530   25.9079 H   0  0  0  0  0  0
  -22.0583   -2.7559   23.2925 H   0  0  0  0  0  0
  -22.4020  -11.9925   22.4831 H   0  0  0  0  0  0
  -21.1075  -13.1330   22.2440 H   0  0  0  0  0  0
  -24.6228  -15.8109   20.4588 H   0  0  0  0  0  0
  -26.2624  -15.6406   20.0892 H   0  0  0  0  0  0
  -26.7225  -32.5445   23.1134 H   0  0  0  0  0  0
  -25.0226  -33.9782   25.0543 H   0  0  0  0  0  0
  -22.7234  -31.3170   21.4224 H   0  0  0  0  0  0
  -23.3837  -35.9529   23.3317 H   0  0  0  0  0  0
  -24.3598  -36.8862   22.2051 H   0  0  0  0  0  0
  -23.7177  -37.6434   23.6640 H   0  0  0  0  0  0
  -26.1481  -31.5584   20.6478 H   0  0  0  0  0  0
  -26.8462  -30.7969   22.0396 H   0  0  0  0  0  0
  -28.1318  -28.9481   21.1355 H   0  0  0  0  0  0
  -25.8551  -25.9701   18.9520 H   0  0  0  0  0  0
  -23.9221  -27.3614   19.0165 H   0  0  0  0  0  0
  -23.7945  -30.6450   19.4291 H   0  0  0  0  0  0
  -22.7559  -29.3096   19.8370 H   0  0  0  0  0  0
  -25.1342  -36.2007   25.0834 H   0  0  0  0  0  0
  -21.0006  -28.3282   24.1396 H   0  0  0  0  0  0
  -20.5867  -26.2295   23.3573 H   0  0  0  0  0  0
  -21.6698  -26.7551   22.1104 H   0  0  0  0  0  0
  -19.6986  -25.6303   21.1261 H   0  0  0  0  0  0
  -19.6773  -27.3200   20.6748 H   0  0  0  0  0  0
  -17.4280  -26.6746   21.3964 H   0  0  0  0  0  0
  -18.0336  -26.0089   22.8975 H   0  0  0  0  0  0
  -19.7944  -30.7355   24.2177 H   0  0  0  0  0  0
  -17.5003  -31.6264   24.5170 H   0  0  0  0  0  0
  -15.5367  -30.2930   23.7715 H   0  0  0  0  0  0
  -15.8711  -28.0818   22.7031 H   0  0  0  0  0  0
  -24.5930  -30.7034   25.7683 H   0  0  0  0  0  0
  -24.8857  -32.2789   26.4923 H   0  0  0  0  0  0
  -25.7999  -30.8767   27.0186 H   0  0  0  0  0  0
  -26.2930  -29.6778   24.1293 H   0  0  0  0  0  0
  -27.4184  -29.7346   25.4690 H   0  0  0  0  0  0
  -27.8786  -30.4403   23.9391 H   0  0  0  0  0  0
  -27.2785  -33.3635   26.2117 H   0  0  0  0  0  0
  -28.3893  -32.6850   25.0309 H   0  0  0  0  0  0
  -28.0804  -31.8414   26.5392 H   0  0  0  0  0  0
  -28.2648  -38.0107   24.7593 H   0  0  0  0  0  0
  -28.1124  -36.2646   24.6288 H   0  0  0  0  0  0
  -27.2312  -37.1412   25.8878 H   0  0  0  0  0  0
  -20.9495  -29.8713   21.6797 H   0  0  0  0  0  0
  -26.0253  -38.2900   24.1388 H   0  0  0  0  0  0
  -27.0625  -21.9082   18.8483 H   0  0  0  0  0  0
  -27.5684  -20.3328   18.3090 H   0  0  0  0  0  0
  -28.6043  -21.7066   18.0420 H   0  0  0  0  0  0
  -27.7995  -16.8258   19.6693 H   0  0  0  0  0  0
  -28.6739  -17.5651   18.3771 H   0  0  0  0  0  0
  -27.3753  -18.4466   19.2055 H   0  0  0  0  0  0
  -32.7899  -20.4557   18.7053 H   0  0  0  0  0  0
  -32.4662  -19.3697   20.0596 H   0  0  0  0  0  0
  -32.1933  -21.1150   20.2142 H   0  0  0  0  0  0
  -31.2707  -19.6316   17.0544 H   0  0  0  0  0  0
  -29.6049  -19.2815   17.4365 H   0  0  0  0  0  0
  -30.9035  -18.2265   18.0116 H   0  0  0  0  0  0
  -29.4490  -23.6711   19.0251 H   0  0  0  0  0  0
  -29.9810  -24.3535   20.5146 H   0  0  0  0  0  0
  -28.1680  -22.6482   21.5816 H   0  0  0  0  0  0
  -29.8322  -22.3379   21.4350 H   0  0  0  0  0  0
  -30.8522  -17.4692   21.6098 H   0  0  0  0  0  0
  -31.1027  -17.2564   19.9113 H   0  0  0  0  0  0
  -27.2885  -24.7484   20.8824 H   0  0  0  0  0  0
  -27.4052  -24.7103   19.1489 H   0  0  0  0  0  0
  -27.8471  -20.6429   20.7992 H   0  0  0  0  0  0
  -28.6375  -18.3721   21.2940 H   0  0  0  0  0  0
  -30.2495  -20.0622   21.0945 H   0  0  0  0  0  0
  -28.9390  -15.5961   21.0601 H   0  0  0  0  0  0
  -30.4737  -21.0214   18.7244 H   0  0  0  0  0  0
  1 25  1  0  0  0
  1 30  2  0  0  0
  1 82  1  0  0  0
  2  3  1  0  0  0
  2 25  1  0  0  0
  2 84  1  0  0  0
  2 85  1  0  0  0
  3  4  1  0  0  0
  3 86  1  0  0  0
  3 87  1  0  0  0
  4  5  1  0  0  0
  4 88  1  0  0  0
  4 89  1  0  0  0
  5  6  1  0  0  0
  5 26  1  0  0  0
  5 90  1  0  0  0
  6 25  1  0  0  0
  6 91  1  0  0  0
  6 92  1  0  0  0
  7  8  2  0  0  0
  7 26  1  0  0  0
  7 29  1  0  0  0
  8  9  1  0  0  0
  8 22  1  0  0  0
  9 10  1  0  0  0
  9 27  2  0  0  0
 10 11  2  0  0  0
 10 15  1  0  0  0
 11 12  1  0  0  0
 11 93  1  0  0  0
 12 13  2  0  0  0
 12 94  1  0  0  0
 13 14  1  0  0  0
 13 31  1  0  0  0
 14 15  2  0  0  0
 14 95  1  0  0  0
 15 96  1  0  0  0
 16 17  2  0  0  0
 16 21  1  0  0  0
 16 31  1  0  0  0
 17 18  1  0  0  0
 17 97  1  0  0  0
 18 19  2  0  0  0
 18 98  1  0  0  0
 19 20  1  0  0  0
 19 24  1  0  0  0
 20 21  2  0  0  0
 20 99  1  0  0  0
 21 23  1  0  0  0
 22 28  1  0  0  0
 22 32  2  0  0  0
 26 27  1  0  0  0
 28100  1  0  0  0
 28101  1  0  0  0
 29102  1  0  0  0
 29103  1  0  0  0
 33 34  1  0  0  0
 33 66  1  0  0  0
 33 70  2  0  0  0
 34 36  1  0  0  0
 34 59  1  0  0  0
 34104  1  0  0  0
 35 44  2  0  0  0
 35 45  1  0  0  0
 35 68  1  0  0  0
 36 56  1  0  0  0
 36105  1  0  0  0
 37 39  1  0  0  0
 37 47  1  0  0  0
 37 66  1  0  0  0
 37106  1  0  0  0
 38 43  2  0  0  0
 38 46  1  0  0  0
 38 47  1  0  0  0
 39 64  1  0  0  0
 39 67  2  0  0  0
 40 52  1  0  0  0
 40 53  2  0  0  0
 40 58  1  0  0  0
 41107  1  0  0  0
 41108  1  0  0  0
 41109  1  0  0  0
 41 48  1  0  0  0
 42 43  1  0  0  0
 42 66  1  0  0  0
 42110  1  0  0  0
 42111  1  0  0  0
 43 44  1  0  0  0
 44112  1  0  0  0
 45 46  2  0  0  0
 45113  1  0  0  0
 46114  1  0  0  0
 47115  1  0  0  0
 47116  1  0  0  0
 48 56  1  0  0  0
 48 65  1  0  0  0
 48117  1  0  0  0
 49 50  1  0  0  0
 49 53  1  0  0  0
 49 64  1  0  0  0
 49118  1  0  0  0
 50 51  1  0  0  0
 50119  1  0  0  0
 50120  1  0  0  0
 51 52  1  0  0  0
 51121  1  0  0  0
 51122  1  0  0  0
 52123  1  0  0  0
 52124  1  0  0  0
 53 54  1  0  0  0
 54 55  2  0  0  0
 54125  1  0  0  0
 55 57  1  0  0  0
 55126  1  0  0  0
 56 69  2  0  0  0
 57 58  2  0  0  0
 57127  1  0  0  0
 58128  1  0  0  0
 59 60  1  0  0  0
 59 61  1  0  0  0
 59 62  1  0  0  0
 60129  1  0  0  0
 60130  1  0  0  0
 60131  1  0  0  0
 61132  1  0  0  0
 61133  1  0  0  0
 61134  1  0  0  0
 62135  1  0  0  0
 62136  1  0  0  0
 62137  1  0  0  0
 63 65  1  0  0  0
 63138  1  0  0  0
 63139  1  0  0  0
 63140  1  0  0  0
 64141  1  0  0  0
 65142  1  0  0  0
 68 78  1  0  0  0
 71143  1  0  0  0
 71144  1  0  0  0
 71145  1  0  0  0
 71 79  1  0  0  0
 72146  1  0  0  0
 72147  1  0  0  0
 72148  1  0  0  0
 72 80  1  0  0  0
 73149  1  0  0  0
 73150  1  0  0  0
 73151  1  0  0  0
 73 83  1  0  0  0
 74 83  1  0  0  0
 74152  1  0  0  0
 74153  1  0  0  0
 74154  1  0  0  0
 75 76  1  0  0  0
 75 78  1  0  0  0
 75155  1  0  0  0
 75156  1  0  0  0
 76 79  1  0  0  0
 76157  1  0  0  0
 76158  1  0  0  0
 77 80  1  0  0  0
 77 82  1  0  0  0
 77159  1  0  0  0
 77160  1  0  0  0
 78161  1  0  0  0
 78162  1  0  0  0
 79163  1  0  0  0
 79 81  1  0  0  0
 80 81  1  0  0  0
 80164  1  0  0  0
 81 83  1  0  0  0
 81165  1  0  0  0
 82166  1  0  0  0
 83167  1  0  0  0
M  CHG  1  83   1
M  ISO  4   1 100  68 101  78 101  82 100
M  END
> <chiral flag>
0

> <version>
0

> <s_m_source_file>
/data/baiqing/PycharmProjects/Reinvent-master-3.2/result/LINK_invent/BTK/process_docking_weight1_custom_sum_contain_oxygen_bond_distance_aromatic_linkinvent_7_9_3/rearranged_h_0087.sdf

> <i_m_source_file_index>
18

> <r_mmod_Potential_Energy-OPLS-2005>
87.0544509887695

> <r_mmod_Stretch_Energy-OPLS-2005>
103.894393920898

> <r_mmod_Bend_Energy-OPLS-2005>
185.312408447266

> <r_mmod_Torsional_Energy-OPLS-2005>
288.392639160156

> <r_mmod_Improper_Torsional_Energy-OPLS-2005>
4.57610893249512

> <r_mmod_Van_der_Waal_Energy-OPLS-2005>
133.949279785156

> <r_mmod_Electrostatic_Energy-OPLS-2005>
-255.863616943359

> <r_mmod_Solvation_Energy-OPLS-2005>
-433.335754394531

> <b_mmod_Minimization_Converged-OPLS-2005>
0

> <r_mmod_RMS_Derivative-OPLS-2005>
6.06122922897339

$$$$
19
                    3D
 Structure written by MMmdl.
161169  0  0  1  0            999 V2000
  -30.5476  -14.9748   20.4690 C   0  0  0  0  0  0
  -30.4427  -12.6195   19.4951 C   0  0  0  0  0  0
  -29.5194  -12.5479   18.2547 C   0  0  0  0  0  0
  -28.0475  -12.3369   18.6601 C   0  0  0  0  0  0
  -27.6300  -13.2445   19.8451 C   0  0  2  0  0  0
  -28.6758  -13.2027   20.9738 C   0  0  0  0  0  0
  -25.2442  -13.8208   20.5699 C   0  0  0  0  0  0
  -24.1764  -13.0431   20.9227 C   0  0  0  0  0  0
  -24.6385  -11.6918   20.8752 C   0  0  0  0  0  0
  -23.9073  -10.4287   21.0408 C   0  0  0  0  0  0
  -24.3623   -9.4201   21.9187 C   0  0  0  0  0  0
  -23.6295   -8.2234   22.0756 C   0  0  0  0  0  0
  -22.4277   -8.0280   21.3547 C   0  0  0  0  0  0
  -21.9909   -9.0255   20.4649 C   0  0  0  0  0  0
  -22.7241  -10.2132   20.3060 C   0  0  0  0  0  0
  -21.6848   -6.0738   22.5282 C   0  0  0  0  0  0
  -21.4022   -6.5645   23.8219 C   0  0  0  0  0  0
  -21.3669   -5.6798   24.9183 C   0  0  0  0  0  0
  -21.6042   -4.3061   24.7228 C   0  0  0  0  0  0
  -21.8812   -3.8148   23.4348 C   0  0  0  0  0  0
  -21.9186   -4.6965   22.3404 C   0  0  0  0  0  0
  -22.7782  -13.5205   21.1885 C   0  0  0  0  0  0
  -22.1650   -4.2151   21.0980 F   0  0  0  0  0  0
  -21.5624   -3.4539   25.7739 F   0  0  0  0  0  0
  -29.9389  -13.7052   20.3977 N   0  0  0  0  0  0
  -26.2874  -12.9434   20.3258 N   0  0  0  0  0  0
  -25.9314  -11.6564   20.5733 N   0  0  0  0  0  0
  -22.0439  -12.8206   22.0456 N   0  0  0  0  0  0
  -25.4077  -15.1937   20.4102 N   0  0  0  0  0  0
  -31.7408  -14.9835   20.1314 O   0  0  0  0  0  0
  -21.6637   -6.8880   21.4245 O   0  0  0  0  0  0
  -22.3463  -14.5508   20.6726 O   0  0  0  0  0  0
  -24.6444  -31.8429   23.1865 C   0  0  0  0  0  0
  -25.9207  -32.4693   23.8262 C   0  0  1  0  0  0
  -27.2185  -27.1248   20.1545 C   0  0  0  0  0  0
  -25.5948  -33.8499   24.2183 N   0  0  0  0  0  0
  -23.4484  -30.4618   21.5329 C   0  0  2  0  0  0
  -24.8974  -28.8824   20.1151 C   0  0  0  0  0  0
  -22.7569  -29.4547   22.4857 C   0  0  0  0  0  0
  -18.0305  -28.1393   22.8476 C   0  0  0  0  0  0
  -24.1490  -36.7255   23.2644 C   0  0  0  0  0  0
  -26.0054  -30.7133   21.3867 C   0  0  0  0  0  0
  -26.0765  -29.3216   20.7313 C   0  0  0  0  0  0
  -27.2394  -28.4606   20.7303 C   0  0  0  0  0  0
  -26.0145  -26.7906   19.4982 C   0  0  0  0  0  0
  -24.8796  -27.6299   19.4836 C   0  0  0  0  0  0
  -23.6752  -29.7872   20.1541 C   0  0  0  0  0  0
  -25.4122  -36.3031   24.0317 C   0  0  1  0  0  0
  -20.5921  -28.3720   23.1231 C   0  0  2  0  0  0
  -20.6787  -26.9421   22.5403 C   0  0  0  0  0  0
  -19.5760  -26.6375   21.5211 C   0  0  0  0  0  0
  -18.1943  -26.7931   22.1624 C   0  0  0  0  0  0
  -19.1563  -28.8871   23.2851 C   0  0  0  0  0  0
  -18.9483  -30.1465   23.8880 C   0  0  0  0  0  0
  -17.6480  -30.6588   24.0558 C   0  0  0  0  0  0
  -25.9070  -34.9406   23.5064 C   0  0  0  0  0  0
  -16.5371  -29.9083   23.6331 C   0  0  0  0  0  0
  -16.7292  -28.6502   23.0354 C   0  0  0  0  0  0
  -26.4519  -31.6565   25.0709 C   0  0  0  0  0  0
  -25.3699  -31.3757   26.1400 C   0  0  0  0  0  0
  -27.0391  -30.2960   24.6302 C   0  0  0  0  0  0
  -27.6040  -32.4337   25.7503 C   0  0  0  0  0  0
  -27.5576  -37.1785   24.8465 C   0  0  0  0  0  0
  -21.4258  -29.3050   22.3600 N   0  0  0  0  0  0
  -26.4285  -37.3743   23.9408 N   0  0  0  0  0  0
  -24.7194  -31.0274   22.0908 N   0  0  0  0  0  0
  -23.4208  -28.8090   23.3006 O   0  0  0  0  0  0
  -28.2818  -26.1464   20.1750 O   0  0  0  0  0  0
  -26.5659  -34.8908   22.4643 O   0  0  0  0  0  0
  -23.5557  -32.1308   23.7079 O   0  0  0  0  0  0
  -29.3294  -18.8981   20.5057 C   0  0  0  0  0  0
  -31.5608  -19.0894   19.0583 C   0  0  0  0  0  0
  -29.6594  -20.2867   20.0643 C   0  0  0  0  0  0
  -30.8642  -20.3029   19.2932 C   0  0  0  0  0  0
  -30.1116  -17.6516   20.2271 C   0  0  0  0  0  0
  -32.1865  -21.3996   17.3586 C   0  0  0  0  0  0
  -32.4348  -22.2329   19.7334 C   0  0  0  0  0  0
  -28.9197  -16.1924   21.8778 C   0  0  0  0  0  0
  -28.7782  -21.6623   20.4388 C   0  0  0  0  0  0
  -28.9860  -23.2980   19.9869 C   0  0  0  0  0  0
  -28.0328  -24.6220   20.4361 C   0  0  0  0  0  0
  -31.4824  -21.5822   18.7190 C   0  0  0  0  0  0
  -31.2076  -17.8576   19.4764 N   0  0  0  0  0  0
  -29.8357  -16.2131   20.7322 N   0  0  0  0  0  0
  -31.4679  -12.7927   19.1661 H   0  0  0  0  0  0
  -30.4745  -11.6609   20.0155 H   0  0  0  0  0  0
  -29.8412  -11.7456   17.5897 H   0  0  0  0  0  0
  -29.6105  -13.4731   17.6840 H   0  0  0  0  0  0
  -27.9283  -11.2882   18.9368 H   0  0  0  0  0  0
  -27.3898  -12.5020   17.8061 H   0  0  0  0  0  0
  -27.6087  -14.2630   19.4570 H   0  0  0  0  0  0
  -28.7908  -12.1814   21.3399 H   0  0  0  0  0  0
  -28.3305  -13.7506   21.8420 H   0  0  0  0  0  0
  -25.2762   -9.5670   22.4773 H   0  0  0  0  0  0
  -23.9989   -7.4624   22.7481 H   0  0  0  0  0  0
  -21.0832   -8.8791   19.8959 H   0  0  0  0  0  0
  -22.3700  -10.9679   19.6176 H   0  0  0  0  0  0
  -21.2032   -7.6156   23.9726 H   0  0  0  0  0  0
  -21.1496   -6.0530   25.9086 H   0  0  0  0  0  0
  -22.0581   -2.7608   23.2850 H   0  0  0  0  0  0
  -22.4057  -11.9868   22.4836 H   0  0  0  0  0  0
  -21.1068  -13.1241   22.2697 H   0  0  0  0  0  0
  -24.6352  -15.8410   20.5233 H   0  0  0  0  0  0
  -26.2500  -15.6375   20.0667 H   0  0  0  0  0  0
  -26.7273  -32.5298   23.0990 H   0  0  0  0  0  0
  -25.0062  -33.9606   25.0310 H   0  0  0  0  0  0
  -22.7529  -31.2888   21.3761 H   0  0  0  0  0  0
  -23.3757  -35.9582   23.3291 H   0  0  0  0  0  0
  -24.3574  -36.8900   22.2062 H   0  0  0  0  0  0
  -23.7242  -37.6446   23.6689 H   0  0  0  0  0  0
  -26.1624  -31.4657   20.6124 H   0  0  0  0  0  0
  -26.8757  -30.7651   22.0293 H   0  0  0  0  0  0
  -28.1416  -28.7957   21.2223 H   0  0  0  0  0  0
  -25.9280  -25.8420   18.9896 H   0  0  0  0  0  0
  -23.9811  -27.2904   18.9864 H   0  0  0  0  0  0
  -23.8150  -30.5597   19.3969 H   0  0  0  0  0  0
  -22.7893  -29.2307   19.8420 H   0  0  0  0  0  0
  -25.1312  -36.1857   25.0809 H   0  0  0  0  0  0
  -21.0025  -28.3318   24.1349 H   0  0  0  0  0  0
  -20.5667  -26.2342   23.3629 H   0  0  0  0  0  0
  -21.6655  -26.7411   22.1214 H   0  0  0  0  0  0
  -19.6920  -25.6278   21.1259 H   0  0  0  0  0  0
  -19.6695  -27.3169   20.6728 H   0  0  0  0  0  0
  -17.4211  -26.6672   21.4031 H   0  0  0  0  0  0
  -18.0345  -26.0080   22.9028 H   0  0  0  0  0  0
  -19.7957  -30.7278   24.2256 H   0  0  0  0  0  0
  -17.5032  -31.6266   24.5160 H   0  0  0  0  0  0
  -15.5371  -30.2979   23.7657 H   0  0  0  0  0  0
  -15.8695  -28.0805   22.7088 H   0  0  0  0  0  0
  -24.5883  -30.7102   25.7717 H   0  0  0  0  0  0
  -24.8882  -32.2940   26.4765 H   0  0  0  0  0  0
  -25.7973  -30.8965   27.0217 H   0  0  0  0  0  0
  -26.3011  -29.6676   24.1303 H   0  0  0  0  0  0
  -27.3992  -29.7265   25.4879 H   0  0  0  0  0  0
  -27.8922  -30.4190   23.9629 H   0  0  0  0  0  0
  -27.2622  -33.3659   26.2012 H   0  0  0  0  0  0
  -28.3888  -32.6864   25.0363 H   0  0  0  0  0  0
  -28.0666  -31.8510   26.5478 H   0  0  0  0  0  0
  -28.2584  -38.0090   24.7508 H   0  0  0  0  0  0
  -28.1080  -36.2617   24.6294 H   0  0  0  0  0  0
  -27.2292  -37.1437   25.8868 H   0  0  0  0  0  0
  -20.9471  -29.8771   21.6783 H   0  0  0  0  0  0
  -26.0153  -38.2812   24.1404 H   0  0  0  0  0  0
  -28.4278  -18.7990   21.0922 H   0  0  0  0  0  0
  -32.4877  -19.0828   18.5073 H   0  0  0  0  0  0
  -31.5373  -20.8993   16.6388 H   0  0  0  0  0  0
  -33.1150  -20.8337   17.4317 H   0  0  0  0  0  0
  -32.4534  -22.3675   16.9323 H   0  0  0  0  0  0
  -31.9450  -22.4180   20.6894 H   0  0  0  0  0  0
  -32.8102  -23.1883   19.3648 H   0  0  0  0  0  0
  -33.2982  -21.5951   19.9270 H   0  0  0  0  0  0
  -28.8992  -17.1405   22.4106 H   0  0  0  0  0  0
  -29.2350  -15.4777   22.6386 H   0  0  0  0  0  0
  -27.9022  -15.9721   21.5581 H   0  0  0  0  0  0
  -28.7550  -21.6654   21.5281 H   0  0  0  0  0  0
  -27.7568  -21.4094   20.1549 H   0  0  0  0  0  0
  -28.9476  -23.3245   18.8990 H   0  0  0  0  0  0
  -30.0011  -23.5750   20.2633 H   0  0  0  0  0  0
  -27.9545  -24.5623   21.5220 H   0  0  0  0  0  0
  -27.0295  -24.3791   20.0940 H   0  0  0  0  0  0
  -30.6814  -22.2645   18.4839 H   0  0  0  0  0  0
  1 25  1  0  0  0
  1 30  2  0  0  0
  1 84  1  0  0  0
  2  3  1  0  0  0
  2 25  1  0  0  0
  2 85  1  0  0  0
  2 86  1  0  0  0
  3  4  1  0  0  0
  3 87  1  0  0  0
  3 88  1  0  0  0
  4  5  1  0  0  0
  4 89  1  0  0  0
  4 90  1  0  0  0
  5  6  1  0  0  0
  5 26  1  0  0  0
  5 91  1  0  0  0
  6 25  1  0  0  0
  6 92  1  0  0  0
  6 93  1  0  0  0
  7  8  2  0  0  0
  7 26  1  0  0  0
  7 29  1  0  0  0
  8  9  1  0  0  0
  8 22  1  0  0  0
  9 10  1  0  0  0
  9 27  2  0  0  0
 10 11  2  0  0  0
 10 15  1  0  0  0
 11 12  1  0  0  0
 11 94  1  0  0  0
 12 13  2  0  0  0
 12 95  1  0  0  0
 13 14  1  0  0  0
 13 31  1  0  0  0
 14 15  2  0  0  0
 14 96  1  0  0  0
 15 97  1  0  0  0
 16 17  2  0  0  0
 16 21  1  0  0  0
 16 31  1  0  0  0
 17 18  1  0  0  0
 17 98  1  0  0  0
 18 19  2  0  0  0
 18 99  1  0  0  0
 19 20  1  0  0  0
 19 24  1  0  0  0
 20 21  2  0  0  0
 20100  1  0  0  0
 21 23  1  0  0  0
 22 28  1  0  0  0
 22 32  2  0  0  0
 26 27  1  0  0  0
 28101  1  0  0  0
 28102  1  0  0  0
 29103  1  0  0  0
 29104  1  0  0  0
 33 34  1  0  0  0
 33 66  1  0  0  0
 33 70  2  0  0  0
 34 36  1  0  0  0
 34 59  1  0  0  0
 34105  1  0  0  0
 35 44  2  0  0  0
 35 45  1  0  0  0
 35 68  1  0  0  0
 36 56  1  0  0  0
 36106  1  0  0  0
 37 39  1  0  0  0
 37 47  1  0  0  0
 37 66  1  0  0  0
 37107  1  0  0  0
 38 43  2  0  0  0
 38 46  1  0  0  0
 38 47  1  0  0  0
 39 64  1  0  0  0
 39 67  2  0  0  0
 40 52  1  0  0  0
 40 53  2  0  0  0
 40 58  1  0  0  0
 41108  1  0  0  0
 41109  1  0  0  0
 41110  1  0  0  0
 41 48  1  0  0  0
 42 43  1  0  0  0
 42 66  1  0  0  0
 42111  1  0  0  0
 42112  1  0  0  0
 43 44  1  0  0  0
 44113  1  0  0  0
 45 46  2  0  0  0
 45114  1  0  0  0
 46115  1  0  0  0
 47116  1  0  0  0
 47117  1  0  0  0
 48 56  1  0  0  0
 48 65  1  0  0  0
 48118  1  0  0  0
 49 50  1  0  0  0
 49 53  1  0  0  0
 49 64  1  0  0  0
 49119  1  0  0  0
 50 51  1  0  0  0
 50120  1  0  0  0
 50121  1  0  0  0
 51 52  1  0  0  0
 51122  1  0  0  0
 51123  1  0  0  0
 52124  1  0  0  0
 52125  1  0  0  0
 53 54  1  0  0  0
 54 55  2  0  0  0
 54126  1  0  0  0
 55 57  1  0  0  0
 55127  1  0  0  0
 56 69  2  0  0  0
 57 58  2  0  0  0
 57128  1  0  0  0
 58129  1  0  0  0
 59 60  1  0  0  0
 59 61  1  0  0  0
 59 62  1  0  0  0
 60130  1  0  0  0
 60131  1  0  0  0
 60132  1  0  0  0
 61133  1  0  0  0
 61134  1  0  0  0
 61135  1  0  0  0
 62136  1  0  0  0
 62137  1  0  0  0
 62138  1  0  0  0
 63 65  1  0  0  0
 63139  1  0  0  0
 63140  1  0  0  0
 63141  1  0  0  0
 64142  1  0  0  0
 65143  1  0  0  0
 68 81  1  0  0  0
 71 73  2  0  0  0
 71 75  1  0  0  0
 71144  1  0  0  0
 72 74  2  0  0  0
 72 83  1  0  0  0
 72145  1  0  0  0
 73 74  1  0  0  0
 73 79  1  0  0  0
 74 82  1  0  0  0
 75 83  2  0  0  0
 75 84  1  0  0  0
 76146  1  0  0  0
 76147  1  0  0  0
 76148  1  0  0  0
 76 82  1  0  0  0
 77 82  1  0  0  0
 77149  1  0  0  0
 77150  1  0  0  0
 77151  1  0  0  0
 78 84  1  0  0  0
 78152  1  0  0  0
 78153  1  0  0  0
 78154  1  0  0  0
 79 80  1  0  0  0
 79155  1  0  0  0
 79156  1  0  0  0
 80 81  1  0  0  0
 80157  1  0  0  0
 80158  1  0  0  0
 81159  1  0  0  0
 81160  1  0  0  0
 82161  1  0  0  0
M  ISO  4   1 100  68 101  81 101  84 100
M  END
> <chiral flag>
0

> <version>
0

> <s_m_source_file>
/data/baiqing/PycharmProjects/Reinvent-master-3.2/result/LINK_invent/BTK/process_docking_weight1_custom_sum_contain_oxygen_bond_distance_aromatic_linkinvent_7_9_3/rearranged_h_0087.sdf

> <i_m_source_file_index>
19

> <r_mmod_Potential_Energy-OPLS-2005>
603.433349609375

> <r_mmod_Stretch_Energy-OPLS-2005>
305.159057617188

> <r_mmod_Bend_Energy-OPLS-2005>
291.729766845703

> <r_mmod_Torsional_Energy-OPLS-2005>
266.373626708984

> <r_mmod_Improper_Torsional_Energy-OPLS-2005>
4.23384284973145

> <r_mmod_Van_der_Waal_Energy-OPLS-2005>
158.989334106445

> <r_mmod_Electrostatic_Energy-OPLS-2005>
-402.440155029297

> <r_mmod_Solvation_Energy-OPLS-2005>
-211.918594360352

> <b_mmod_Minimization_Converged-OPLS-2005>
0

> <r_mmod_RMS_Derivative-OPLS-2005>
1.22833502292633

$$$$
20
                    3D
 Structure written by MMmdl.
164172  0  0  1  0            999 V2000
  -30.6937  -14.4492   20.5617 C   0  0  0  0  0  0
  -30.4248  -12.2896   19.4147 C   0  0  0  0  0  0
  -29.4927  -12.5043   18.2037 C   0  0  0  0  0  0
  -28.0119  -12.3709   18.6163 C   0  0  0  0  0  0
  -27.6636  -13.2029   19.8799 C   0  0  2  0  0  0
  -28.7059  -12.9629   20.9964 C   0  0  0  0  0  0
  -25.2580  -13.8160   20.5668 C   0  0  0  0  0  0
  -24.1837  -13.0447   20.9193 C   0  0  0  0  0  0
  -24.6375  -11.6904   20.8746 C   0  0  0  0  0  0
  -23.9044  -10.4288   21.0417 C   0  0  0  0  0  0
  -24.3591   -9.4207   21.9190 C   0  0  0  0  0  0
  -23.6279   -8.2239   22.0771 C   0  0  0  0  0  0
  -22.4265   -8.0270   21.3574 C   0  0  0  0  0  0
  -21.9893   -9.0237   20.4691 C   0  0  0  0  0  0
  -22.7208  -10.2121   20.3087 C   0  0  0  0  0  0
  -21.6844   -6.0737   22.5280 C   0  0  0  0  0  0
  -21.3992   -6.5638   23.8216 C   0  0  0  0  0  0
  -21.3658   -5.6782   24.9166 C   0  0  0  0  0  0
  -21.6033   -4.3044   24.7209 C   0  0  0  0  0  0
  -21.8819   -3.8154   23.4326 C   0  0  0  0  0  0
  -21.9194   -4.6972   22.3397 C   0  0  0  0  0  0
  -22.7849  -13.5242   21.1843 C   0  0  0  0  0  0
  -22.1698   -4.2172   21.0970 F   0  0  0  0  0  0
  -21.5617   -3.4523   25.7716 F   0  0  0  0  0  0
  -30.0426  -13.2614   20.4497 N   0  0  0  0  0  0
  -26.3029  -12.9331   20.3408 N   0  0  0  0  0  0
  -25.9305  -11.6492   20.5798 N   0  0  0  0  0  0
  -22.0489  -12.8250   22.0417 N   0  0  0  0  0  0
  -25.4290  -15.1870   20.3959 N   0  0  0  0  0  0
  -31.8100  -14.6669   20.0816 O   0  0  0  0  0  0
  -21.6630   -6.8871   21.4256 O   0  0  0  0  0  0
  -22.3539  -14.5534   20.6664 O   0  0  0  0  0  0
  -24.6132  -31.8684   23.2099 C   0  0  0  0  0  0
  -25.9034  -32.4823   23.8390 C   0  0  1  0  0  0
  -27.2396  -27.4431   20.0970 C   0  0  0  0  0  0
  -25.5900  -33.8619   24.2321 N   0  0  0  0  0  0
  -23.4018  -30.4898   21.5513 C   0  0  2  0  0  0
  -24.8495  -28.9561   20.1161 C   0  0  0  0  0  0
  -22.7414  -29.4642   22.5003 C   0  0  0  0  0  0
  -18.0265  -28.1376   22.8487 C   0  0  0  0  0  0
  -24.1486  -36.7303   23.2634 C   0  0  0  0  0  0
  -25.9296  -30.8381   21.3606 C   0  0  0  0  0  0
  -26.0104  -29.4732   20.7063 C   0  0  0  0  0  0
  -27.2110  -28.7271   20.6858 C   0  0  0  0  0  0
  -26.0593  -26.9348   19.5111 C   0  0  0  0  0  0
  -24.8681  -27.6853   19.5152 C   0  0  0  0  0  0
  -23.6110  -29.8216   20.1666 C   0  0  0  0  0  0
  -25.4106  -36.3098   24.0333 C   0  0  1  0  0  0
  -20.5857  -28.3656   23.1329 C   0  0  2  0  0  0
  -20.6756  -26.9397   22.5424 C   0  0  0  0  0  0
  -19.5734  -26.6388   21.5218 C   0  0  0  0  0  0
  -18.1913  -26.7924   22.1625 C   0  0  0  0  0  0
  -19.1516  -28.8832   23.2903 C   0  0  0  0  0  0
  -18.9448  -30.1445   23.8908 C   0  0  0  0  0  0
  -17.6451  -30.6591   24.0558 C   0  0  0  0  0  0
  -25.9031  -34.9472   23.5119 C   0  0  0  0  0  0
  -16.5341  -29.9094   23.6317 C   0  0  0  0  0  0
  -16.7255  -28.6507   23.0336 C   0  0  0  0  0  0
  -26.4474  -31.6598   25.0714 C   0  0  0  0  0  0
  -25.3748  -31.3724   26.1476 C   0  0  0  0  0  0
  -27.0309  -30.3039   24.6083 C   0  0  0  0  0  0
  -27.6052  -32.4322   25.7472 C   0  0  0  0  0  0
  -27.5576  -37.1802   24.8465 C   0  0  0  0  0  0
  -21.4146  -29.3022   22.3745 N   0  0  0  0  0  0
  -26.4290  -37.3786   23.9411 N   0  0  0  0  0  0
  -24.6662  -31.0790   22.0996 N   0  0  0  0  0  0
  -23.4185  -28.8192   23.3048 O   0  0  0  0  0  0
  -28.4098  -26.7128   20.0986 O   0  0  0  0  0  0
  -26.5598  -34.8919   22.4683 O   0  0  0  0  0  0
  -23.5327  -32.1432   23.7500 O   0  0  0  0  0  0
  -28.6835  -21.5124   21.3189 C   0  0  0  0  0  0
  -29.0530  -20.2103   21.7034 C   0  0  0  0  0  0
  -28.1161  -21.7232   20.0451 C   0  0  0  0  0  0
  -28.8377  -19.1500   20.8069 C   0  0  0  0  0  0
  -28.0630  -20.6158   19.1552 C   0  0  0  0  0  0
  -26.0606  -20.2420   17.6434 C   0  0  0  0  0  0
  -28.4142  -19.9787   16.7059 C   0  0  0  0  0  0
  -27.4335  -23.0686   19.7576 C   0  0  0  0  0  0
  -28.9183  -17.6922   21.2649 C   0  0  0  0  0  0
  -28.3484  -24.2893   19.4811 C   0  0  0  0  0  0
  -30.1347  -16.8764   20.7757 C   0  0  0  0  0  0
  -28.3068  -25.3680   20.5925 C   0  0  0  0  0  0
  -27.5212  -20.7132   17.7246 C   0  0  0  0  0  0
  -28.3896  -19.3619   19.5519 N   0  0  0  0  0  0
  -29.9469  -15.4455   21.0583 N   0  0  0  0  0  0
  -31.4689  -12.3912   19.1119 H   0  0  0  0  0  0
  -30.3252  -11.2740   19.8004 H   0  0  0  0  0  0
  -29.7284  -11.7865   17.4166 H   0  0  0  0  0  0
  -29.6642  -13.4922   17.7721 H   0  0  0  0  0  0
  -27.8148  -11.3154   18.8051 H   0  0  0  0  0  0
  -27.3624  -12.6548   17.7884 H   0  0  0  0  0  0
  -27.7147  -14.2545   19.5953 H   0  0  0  0  0  0
  -28.6712  -11.9230   21.3241 H   0  0  0  0  0  0
  -28.4698  -13.5522   21.8836 H   0  0  0  0  0  0
  -25.2735   -9.5675   22.4764 H   0  0  0  0  0  0
  -23.9999   -7.4632   22.7485 H   0  0  0  0  0  0
  -21.0828   -8.8732   19.9015 H   0  0  0  0  0  0
  -22.3645  -10.9650   19.6199 H   0  0  0  0  0  0
  -21.1985   -7.6142   23.9730 H   0  0  0  0  0  0
  -21.1495   -6.0504   25.9071 H   0  0  0  0  0  0
  -22.0606   -2.7625   23.2803 H   0  0  0  0  0  0
  -22.4132  -11.9974   22.4902 H   0  0  0  0  0  0
  -21.1076  -13.1234   22.2555 H   0  0  0  0  0  0
  -24.6529  -15.8370   20.4609 H   0  0  0  0  0  0
  -26.2682  -15.6167   20.0281 H   0  0  0  0  0  0
  -26.7103  -32.5540   23.1157 H   0  0  0  0  0  0
  -25.0057  -33.9789   25.0467 H   0  0  0  0  0  0
  -22.6890  -31.3052   21.4120 H   0  0  0  0  0  0
  -23.3743  -35.9643   23.3312 H   0  0  0  0  0  0
  -24.3568  -36.8902   22.2044 H   0  0  0  0  0  0
  -23.7261  -37.6518   23.6646 H   0  0  0  0  0  0
  -26.0410  -31.6069   20.5948 H   0  0  0  0  0  0
  -26.8177  -30.8903   21.9794 H   0  0  0  0  0  0
  -28.1102  -29.1242   21.1370 H   0  0  0  0  0  0
  -26.0532  -25.9589   19.0475 H   0  0  0  0  0  0
  -23.9740  -27.2812   19.0595 H   0  0  0  0  0  0
  -23.7158  -30.5968   19.4064 H   0  0  0  0  0  0
  -22.7376  -29.2387   19.8698 H   0  0  0  0  0  0
  -25.1281  -36.1955   25.0826 H   0  0  0  0  0  0
  -20.9927  -28.3217   24.1456 H   0  0  0  0  0  0
  -20.5661  -26.2265   23.3608 H   0  0  0  0  0  0
  -21.6629  -26.7446   22.1216 H   0  0  0  0  0  0
  -19.6906  -25.6305   21.1234 H   0  0  0  0  0  0
  -19.6682  -27.3213   20.6759 H   0  0  0  0  0  0
  -17.4187  -26.6664   21.4026 H   0  0  0  0  0  0
  -18.0313  -26.0072   22.9021 H   0  0  0  0  0  0
  -19.7926  -30.7257   24.2288 H   0  0  0  0  0  0
  -17.5005  -31.6267   24.5170 H   0  0  0  0  0  0
  -15.5339  -30.2998   23.7649 H   0  0  0  0  0  0
  -15.8649  -28.0842   22.7038 H   0  0  0  0  0  0
  -24.5899  -30.7095   25.7818 H   0  0  0  0  0  0
  -24.8972  -32.2896   26.4927 H   0  0  0  0  0  0
  -25.8097  -30.8887   27.0233 H   0  0  0  0  0  0
  -26.2859  -29.6814   24.1117 H   0  0  0  0  0  0
  -27.4071  -29.7258   25.4533 H   0  0  0  0  0  0
  -27.8690  -30.4359   23.9240 H   0  0  0  0  0  0
  -27.2662  -33.3597   26.2098 H   0  0  0  0  0  0
  -28.3837  -32.6925   25.0286 H   0  0  0  0  0  0
  -28.0758  -31.8429   26.5358 H   0  0  0  0  0  0
  -28.2595  -38.0091   24.7484 H   0  0  0  0  0  0
  -28.1068  -36.2623   24.6315 H   0  0  0  0  0  0
  -27.2294  -37.1476   25.8866 H   0  0  0  0  0  0
  -20.9325  -29.8736   21.6956 H   0  0  0  0  0  0
  -26.0173  -38.2861   24.1418 H   0  0  0  0  0  0
  -28.7539  -22.3260   22.0271 H   0  0  0  0  0  0
  -29.4115  -20.0224   22.7069 H   0  0  0  0  0  0
  -25.4298  -20.8200   18.3194 H   0  0  0  0  0  0
  -25.9655  -19.1893   17.9140 H   0  0  0  0  0  0
  -25.6612  -20.3678   16.6378 H   0  0  0  0  0  0
  -29.4405  -20.3447   16.7513 H   0  0  0  0  0  0
  -28.0501  -20.1268   15.6892 H   0  0  0  0  0  0
  -28.4353  -18.9041   16.8899 H   0  0  0  0  0  0
  -26.7854  -23.2753   20.6102 H   0  0  0  0  0  0
  -26.7163  -22.9690   18.9449 H   0  0  0  0  0  0
  -28.0030  -17.2063   20.9245 H   0  0  0  0  0  0
  -28.8769  -17.6651   22.3538 H   0  0  0  0  0  0
  -28.0097  -24.7505   18.5531 H   0  0  0  0  0  0
  -29.3746  -23.9792   19.2813 H   0  0  0  0  0  0
  -31.0531  -17.2399   21.2384 H   0  0  0  0  0  0
  -30.2461  -17.0091   19.6973 H   0  0  0  0  0  0
  -29.1411  -25.1953   21.2736 H   0  0  0  0  0  0
  -27.4140  -25.2676   21.2129 H   0  0  0  0  0  0
  -27.5549  -21.7562   17.4134 H   0  0  0  0  0  0
  -29.0580  -15.1682   21.4470 H   0  0  0  0  0  0
  1 25  1  0  0  0
  1 30  2  0  0  0
  1 85  1  0  0  0
  2  3  1  0  0  0
  2 25  1  0  0  0
  2 86  1  0  0  0
  2 87  1  0  0  0
  3  4  1  0  0  0
  3 88  1  0  0  0
  3 89  1  0  0  0
  4  5  1  0  0  0
  4 90  1  0  0  0
  4 91  1  0  0  0
  5  6  1  0  0  0
  5 26  1  0  0  0
  5 92  1  0  0  0
  6 25  1  0  0  0
  6 93  1  0  0  0
  6 94  1  0  0  0
  7  8  2  0  0  0
  7 26  1  0  0  0
  7 29  1  0  0  0
  8  9  1  0  0  0
  8 22  1  0  0  0
  9 10  1  0  0  0
  9 27  2  0  0  0
 10 11  2  0  0  0
 10 15  1  0  0  0
 11 12  1  0  0  0
 11 95  1  0  0  0
 12 13  2  0  0  0
 12 96  1  0  0  0
 13 14  1  0  0  0
 13 31  1  0  0  0
 14 15  2  0  0  0
 14 97  1  0  0  0
 15 98  1  0  0  0
 16 17  2  0  0  0
 16 21  1  0  0  0
 16 31  1  0  0  0
 17 18  1  0  0  0
 17 99  1  0  0  0
 18 19  2  0  0  0
 18100  1  0  0  0
 19 20  1  0  0  0
 19 24  1  0  0  0
 20 21  2  0  0  0
 20101  1  0  0  0
 21 23  1  0  0  0
 22 28  1  0  0  0
 22 32  2  0  0  0
 26 27  1  0  0  0
 28102  1  0  0  0
 28103  1  0  0  0
 29104  1  0  0  0
 29105  1  0  0  0
 33 34  1  0  0  0
 33 66  1  0  0  0
 33 70  2  0  0  0
 34 36  1  0  0  0
 34 59  1  0  0  0
 34106  1  0  0  0
 35 44  2  0  0  0
 35 45  1  0  0  0
 35 68  1  0  0  0
 36 56  1  0  0  0
 36107  1  0  0  0
 37 39  1  0  0  0
 37 47  1  0  0  0
 37 66  1  0  0  0
 37108  1  0  0  0
 38 43  2  0  0  0
 38 46  1  0  0  0
 38 47  1  0  0  0
 39 64  1  0  0  0
 39 67  2  0  0  0
 40 52  1  0  0  0
 40 53  2  0  0  0
 40 58  1  0  0  0
 41109  1  0  0  0
 41110  1  0  0  0
 41111  1  0  0  0
 41 48  1  0  0  0
 42 43  1  0  0  0
 42 66  1  0  0  0
 42112  1  0  0  0
 42113  1  0  0  0
 43 44  1  0  0  0
 44114  1  0  0  0
 45 46  2  0  0  0
 45115  1  0  0  0
 46116  1  0  0  0
 47117  1  0  0  0
 47118  1  0  0  0
 48 56  1  0  0  0
 48 65  1  0  0  0
 48119  1  0  0  0
 49 50  1  0  0  0
 49 53  1  0  0  0
 49 64  1  0  0  0
 49120  1  0  0  0
 50 51  1  0  0  0
 50121  1  0  0  0
 50122  1  0  0  0
 51 52  1  0  0  0
 51123  1  0  0  0
 51124  1  0  0  0
 52125  1  0  0  0
 52126  1  0  0  0
 53 54  1  0  0  0
 54 55  2  0  0  0
 54127  1  0  0  0
 55 57  1  0  0  0
 55128  1  0  0  0
 56 69  2  0  0  0
 57 58  2  0  0  0
 57129  1  0  0  0
 58130  1  0  0  0
 59 60  1  0  0  0
 59 61  1  0  0  0
 59 62  1  0  0  0
 60131  1  0  0  0
 60132  1  0  0  0
 60133  1  0  0  0
 61134  1  0  0  0
 61135  1  0  0  0
 61136  1  0  0  0
 62137  1  0  0  0
 62138  1  0  0  0
 62139  1  0  0  0
 63 65  1  0  0  0
 63140  1  0  0  0
 63141  1  0  0  0
 63142  1  0  0  0
 64143  1  0  0  0
 65144  1  0  0  0
 68 82  1  0  0  0
 71 72  2  0  0  0
 71 73  1  0  0  0
 71145  1  0  0  0
 72 74  1  0  0  0
 72146  1  0  0  0
 73 75  2  0  0  0
 73 78  1  0  0  0
 74 79  1  0  0  0
 74 84  2  0  0  0
 75 83  1  0  0  0
 75 84  1  0  0  0
 76147  1  0  0  0
 76148  1  0  0  0
 76149  1  0  0  0
 76 83  1  0  0  0
 77 83  1  0  0  0
 77150  1  0  0  0
 77151  1  0  0  0
 77152  1  0  0  0
 78 80  1  0  0  0
 78153  1  0  0  0
 78154  1  0  0  0
 79 81  1  0  0  0
 79155  1  0  0  0
 79156  1  0  0  0
 80 82  1  0  0  0
 80157  1  0  0  0
 80158  1  0  0  0
 81 85  1  0  0  0
 81159  1  0  0  0
 81160  1  0  0  0
 82161  1  0  0  0
 82162  1  0  0  0
 83163  1  0  0  0
 85164  1  0  0  0
M  ISO  4   1 100  68 101  82 101  85 100
M  END
> <chiral flag>
0

> <version>
0

> <s_m_source_file>
/data/baiqing/PycharmProjects/Reinvent-master-3.2/result/LINK_invent/BTK/process_docking_weight1_custom_sum_contain_oxygen_bond_distance_aromatic_linkinvent_7_9_3/rearranged_h_0087.sdf

> <i_m_source_file_index>
20

> <r_mmod_Potential_Energy-OPLS-2005>
-208.236297607422

> <r_mmod_Stretch_Energy-OPLS-2005>
36.6539764404297

> <r_mmod_Bend_Energy-OPLS-2005>
96.5634002685547

> <r_mmod_Torsional_Energy-OPLS-2005>
228.313583374023

> <r_mmod_Improper_Torsional_Energy-OPLS-2005>
7.32373380661011

> <r_mmod_Van_der_Waal_Energy-OPLS-2005>
151.736434936523

> <r_mmod_Electrostatic_Energy-OPLS-2005>
-525.715881347656

> <r_mmod_Solvation_Energy-OPLS-2005>
-213.855133056641

> <b_mmod_Minimization_Converged-OPLS-2005>
0

> <r_mmod_RMS_Derivative-OPLS-2005>
2.27572107315063

$$$$
21
                    3D
 Structure written by MMmdl.
175183  0  0  1  0            999 V2000
  -31.3505  -14.7274   20.7577 C   0  0  0  0  0  0
  -30.8327  -13.1731   19.0063 C   0  0  0  0  0  0
  -29.5092  -12.9705   17.7157 C   0  0  0  0  0  0
  -27.6675  -13.1212   18.1661 C   0  0  0  0  0  0
  -27.2494  -13.7856   19.8988 C   0  0  2  0  0  0
  -28.7326  -14.0725   21.1968 C   0  0  0  0  0  0
  -24.9661  -13.8899   20.6814 C   0  0  0  0  0  0
  -24.0010  -13.0159   20.9838 C   0  0  0  0  0  0
  -24.5666  -11.7123   20.8882 C   0  0  0  0  0  0
  -23.8989  -10.4159   21.0285 C   0  0  0  0  0  0
  -24.3665   -9.4128   21.9058 C   0  0  0  0  0  0
  -23.6348   -8.2150   22.0665 C   0  0  0  0  0  0
  -22.4293   -8.0168   21.3512 C   0  0  0  0  0  0
  -21.9865   -9.0072   20.4602 C   0  0  0  0  0  0
  -22.7164  -10.1935   20.2965 C   0  0  0  0  0  0
  -21.6856   -6.0681   22.5287 C   0  0  0  0  0  0
  -21.4028   -6.5599   23.8207 C   0  0  0  0  0  0
  -21.3680   -5.6762   24.9182 C   0  0  0  0  0  0
  -21.6057   -4.3016   24.7231 C   0  0  0  0  0  0
  -21.8818   -3.8098   23.4360 C   0  0  0  0  0  0
  -21.9199   -4.6910   22.3419 C   0  0  0  0  0  0
  -22.6032  -13.4398   21.2329 C   0  0  0  0  0  0
  -22.1681   -4.2094   21.0995 F   0  0  0  0  0  0
  -21.5618   -3.4500   25.7745 F   0  0  0  0  0  0
  -30.4058  -13.8488   20.5819 N   0  0  0  0  0  0
  -26.0720  -13.1555   20.4174 N   0  0  0  0  0  0
  -25.8507  -11.8063   20.5558 N   0  0  0  0  0  0
  -21.9085  -12.7283   22.1027 N   0  0  0  0  0  0
  -24.9222  -15.2628   20.5818 N   0  0  0  0  0  0
  -32.5224  -14.4649   20.6504 O   0  0  0  0  0  0
  -21.6639   -6.8800   21.4241 O   0  0  0  0  0  0
  -22.1553  -14.4634   20.7124 O   0  0  0  0  0  0
  -24.6879  -31.7992   23.1524 C   0  0  0  0  0  0
  -25.9457  -32.4453   23.8067 C   0  0  1  0  0  0
  -27.1430  -26.6899   20.1367 C   0  0  0  0  0  0
  -25.6031  -33.8280   24.1953 N   0  0  0  0  0  0
  -23.5058  -30.4102   21.5109 C   0  0  2  0  0  0
  -24.9371  -28.7578   20.1040 C   0  0  0  0  0  0
  -22.7765  -29.4335   22.4727 C   0  0  0  0  0  0
  -18.0341  -28.1426   22.8457 C   0  0  0  0  0  0
  -24.1493  -36.7127   23.2653 C   0  0  0  0  0  0
  -26.0886  -30.5193   21.4149 C   0  0  0  0  0  0
  -26.1355  -29.0903   20.7467 C   0  0  0  0  0  0
  -27.2324  -28.0789   20.7352 C   0  0  0  0  0  0
  -25.9191  -26.5722   19.4465 C   0  0  0  0  0  0
  -24.8674  -27.5264   19.4354 C   0  0  0  0  0  0
  -23.7468  -29.7229   20.1404 C   0  0  0  0  0  0
  -25.4151  -36.2882   24.0284 C   0  0  1  0  0  0
  -20.5978  -28.3784   23.1151 C   0  0  2  0  0  0
  -20.6805  -26.9444   22.5403 C   0  0  0  0  0  0
  -19.5773  -26.6379   21.5215 C   0  0  0  0  0  0
  -18.1964  -26.7957   22.1621 C   0  0  0  0  0  0
  -19.1608  -28.8928   23.2782 C   0  0  0  0  0  0
  -18.9513  -30.1516   23.8821 C   0  0  0  0  0  0
  -17.6501  -30.6608   24.0553 C   0  0  0  0  0  0
  -25.9137  -34.9275   23.4954 C   0  0  0  0  0  0
  -16.5392  -29.9091   23.6351 C   0  0  0  0  0  0
  -16.7320  -28.6515   23.0365 C   0  0  0  0  0  0
  -26.4611  -31.6498   25.0703 C   0  0  0  0  0  0
  -25.3660  -31.3817   26.1304 C   0  0  0  0  0  0
  -27.0549  -30.2838   24.6620 C   0  0  0  0  0  0
  -27.6064  -32.4354   25.7516 C   0  0  0  0  0  0
  -27.5558  -37.1726   24.8475 C   0  0  0  0  0  0
  -21.4415  -29.3034   22.3470 N   0  0  0  0  0  0
  -26.4267  -37.3654   23.9413 N   0  0  0  0  0  0
  -24.7863  -30.9431   22.0779 N   0  0  0  0  0  0
  -23.4220  -28.7918   23.3044 O   0  0  0  0  0  0
  -28.0400  -25.4327   20.1557 O   0  0  0  0  0  0
  -26.5772  -34.8855   22.4565 O   0  0  0  0  0  0
  -23.5905  -32.1086   23.6484 O   0  0  0  0  0  0
  -26.6812  -20.2056   19.2596 C   0  0  0  0  0  0
  -28.0311  -20.1951   19.6765 C   0  0  0  0  0  0
  -26.3254  -19.3908   18.1603 C   0  0  0  0  0  0
  -28.6809  -18.7292   19.2965 C   0  0  0  0  0  0
  -27.1669  -17.0022   20.4726 C   0  0  0  0  0  0
  -24.7478  -20.2145   16.3690 C   0  0  0  0  0  0
  -23.8392  -19.7172   18.6427 C   0  0  0  0  0  0
  -24.5788  -17.8377   17.2038 C   0  0  0  0  0  0
  -28.9232  -12.2115   19.8701 C   0  0  0  0  0  0
  -28.4200  -15.5756   17.6201 C   0  0  0  0  0  0
  -28.5012  -21.9595   19.9814 C   0  0  0  0  0  0
  -30.4513  -15.8136   18.8911 C   0  0  0  0  0  0
  -27.7123  -23.7275   19.8669 C   0  0  0  0  0  0
  -28.5138  -16.9125   19.7838 C   0  0  1  0  0  0
  -24.8943  -19.2996   17.5960 C   0  0  0  0  0  0
  -29.0418  -15.0600   19.0286 C   0  0  0  0  0  0
  -27.2968  -18.7690   17.4445 N   0  0  0  0  0  0
  -28.5233  -18.6283   17.9611 N   0  0  0  0  0  0
  -31.0706  -15.8788   20.2022 N   0  0  0  0  0  0
  -31.7190  -13.5878   18.5279 H   0  0  0  0  0  0
  -31.2738  -12.1914   19.2009 H   0  0  0  0  0  0
  -29.6449  -11.9766   17.2847 H   0  0  0  0  0  0
  -29.8068  -13.5353   16.8357 H   0  0  0  0  0  0
  -27.2398  -12.1176   18.0832 H   0  0  0  0  0  0
  -27.0396  -13.5772   17.4037 H   0  0  0  0  0  0
  -26.8835  -14.7374   19.5761 H   0  0  0  0  0  0
  -28.6074  -13.3920   22.0423 H   0  0  0  0  0  0
  -28.6749  -15.0319   21.7017 H   0  0  0  0  0  0
  -25.2779   -9.5693   22.4650 H   0  0  0  0  0  0
  -24.0071   -7.4550   22.7391 H   0  0  0  0  0  0
  -21.0724   -8.8575   19.9019 H   0  0  0  0  0  0
  -22.3464  -10.9512   19.6208 H   0  0  0  0  0  0
  -21.2015   -7.6107   23.9695 H   0  0  0  0  0  0
  -21.1523   -6.0488   25.9081 H   0  0  0  0  0  0
  -22.0578   -2.7561   23.2855 H   0  0  0  0  0  0
  -22.3067  -11.9129   22.5438 H   0  0  0  0  0  0
  -20.9622  -12.9979   22.3317 H   0  0  0  0  0  0
  -24.0643  -15.7827   20.7279 H   0  0  0  0  0  0
  -25.7193  -15.8501   20.3766 H   0  0  0  0  0  0
  -26.7539  -32.4889   23.0768 H   0  0  0  0  0  0
  -25.0108  -33.9312   25.0062 H   0  0  0  0  0  0
  -22.8317  -31.2516   21.3326 H   0  0  0  0  0  0
  -23.3784  -35.9424   23.3277 H   0  0  0  0  0  0
  -24.3552  -36.8826   22.2073 H   0  0  0  0  0  0
  -23.7215  -37.6281   23.6759 H   0  0  0  0  0  0
  -26.3060  -31.2515   20.6356 H   0  0  0  0  0  0
  -26.9365  -30.5692   22.0870 H   0  0  0  0  0  0
  -28.1364  -28.3246   21.2753 H   0  0  0  0  0  0
  -25.7290  -25.6423   18.9318 H   0  0  0  0  0  0
  -23.9591  -27.2710   18.9076 H   0  0  0  0  0  0
  -23.9275  -30.4880   19.3839 H   0  0  0  0  0  0
  -22.8455  -29.2025   19.8150 H   0  0  0  0  0  0
  -25.1354  -36.1643   25.0776 H   0  0  0  0  0  0
  -21.0061  -28.3402   24.1273 H   0  0  0  0  0  0
  -20.5681  -26.2402   23.3657 H   0  0  0  0  0  0
  -21.6667  -26.7393   22.1204 H   0  0  0  0  0  0
  -19.6930  -25.6271   21.1286 H   0  0  0  0  0  0
  -19.6714  -27.3152   20.6714 H   0  0  0  0  0  0
  -17.4232  -26.6705   21.4027 H   0  0  0  0  0  0
  -18.0348  -26.0114   22.9032 H   0  0  0  0  0  0
  -19.7991  -30.7359   24.2151 H   0  0  0  0  0  0
  -17.5053  -31.6274   24.5179 H   0  0  0  0  0  0
  -15.5392  -30.2967   23.7722 H   0  0  0  0  0  0
  -15.8723  -28.0812   22.7118 H   0  0  0  0  0  0
  -24.5889  -30.7119   25.7596 H   0  0  0  0  0  0
  -24.8791  -32.3033   26.4506 H   0  0  0  0  0  0
  -25.7818  -30.9126   27.0230 H   0  0  0  0  0  0
  -26.3266  -29.6428   24.1643 H   0  0  0  0  0  0
  -27.4004  -29.7312   25.5366 H   0  0  0  0  0  0
  -27.9235  -30.3965   24.0129 H   0  0  0  0  0  0
  -27.2626  -33.3740   26.1870 H   0  0  0  0  0  0
  -28.3983  -32.6774   25.0417 H   0  0  0  0  0  0
  -28.0614  -31.8631   26.5608 H   0  0  0  0  0  0
  -28.2561  -38.0037   24.7521 H   0  0  0  0  0  0
  -28.1072  -36.2561   24.6314 H   0  0  0  0  0  0
  -27.2269  -37.1367   25.8876 H   0  0  0  0  0  0
  -20.9729  -29.8684   21.6525 H   0  0  0  0  0  0
  -26.0092  -38.2699   24.1434 H   0  0  0  0  0  0
  -26.0094  -20.9841   19.5881 H   0  0  0  0  0  0
  -26.3794  -17.0484   19.7252 H   0  0  0  0  0  0
  -27.0834  -17.9254   21.0470 H   0  0  0  0  0  0
  -27.0292  -16.2287   21.2197 H   0  0  0  0  0  0
  -24.9542  -21.2522   16.6279 H   0  0  0  0  0  0
  -23.7357  -20.1787   15.9655 H   0  0  0  0  0  0
  -25.4356  -19.9325   15.5706 H   0  0  0  0  0  0
  -23.9080  -20.7724   18.9047 H   0  0  0  0  0  0
  -23.9400  -19.1290   19.5568 H   0  0  0  0  0  0
  -22.8287  -19.5585   18.2676 H   0  0  0  0  0  0
  -25.2590  -17.4657   16.4356 H   0  0  0  0  0  0
  -23.5683  -17.7282   16.8125 H   0  0  0  0  0  0
  -24.6692  -17.1710   18.0626 H   0  0  0  0  0  0
  -28.1520  -11.8019   20.5102 H   0  0  0  0  0  0
  -28.9445  -11.3591   19.1763 H   0  0  0  0  0  0
  -29.6605  -11.7629   20.5575 H   0  0  0  0  0  0
  -28.4271  -14.9588   16.7296 H   0  0  0  0  0  0
  -28.9332  -16.4250   17.1875 H   0  0  0  0  0  0
  -27.3790  -15.8824   17.7332 H   0  0  0  0  0  0
  -29.4356  -22.0558   19.4267 H   0  0  0  0  0  0
  -28.8303  -21.9162   21.0199 H   0  0  0  0  0  0
  -31.1052  -15.4396   18.1081 H   0  0  0  0  0  0
  -30.4261  -16.8520   18.5582 H   0  0  0  0  0  0
  -26.7803  -23.6025   20.4168 H   0  0  0  0  0  0
  -27.3933  -23.7600   18.8260 H   0  0  0  0  0  0
  -29.0970  -17.0001   20.6973 H   0  0  0  0  0  0
  -31.7905  -16.5780   20.3069 H   0  0  0  0  0  0
  1 25  1  0  0  0
  1 30  2  0  0  0
  1 89  1  0  0  0
  2  3  1  0  0  0
  2 25  1  0  0  0
  2 90  1  0  0  0
  2 91  1  0  0  0
  3  4  1  0  0  0
  3 92  1  0  0  0
  3 93  1  0  0  0
  4  5  1  0  0  0
  4 94  1  0  0  0
  4 95  1  0  0  0
  5  6  1  0  0  0
  5 26  1  0  0  0
  5 96  1  0  0  0
  6 25  1  0  0  0
  6 97  1  0  0  0
  6 98  1  0  0  0
  7  8  2  0  0  0
  7 26  1  0  0  0
  7 29  1  0  0  0
  8  9  1  0  0  0
  8 22  1  0  0  0
  9 10  1  0  0  0
  9 27  2  0  0  0
 10 11  2  0  0  0
 10 15  1  0  0  0
 11 12  1  0  0  0
 11 99  1  0  0  0
 12 13  2  0  0  0
 12100  1  0  0  0
 13 14  1  0  0  0
 13 31  1  0  0  0
 14 15  2  0  0  0
 14101  1  0  0  0
 15102  1  0  0  0
 16 17  2  0  0  0
 16 21  1  0  0  0
 16 31  1  0  0  0
 17 18  1  0  0  0
 17103  1  0  0  0
 18 19  2  0  0  0
 18104  1  0  0  0
 19 20  1  0  0  0
 19 24  1  0  0  0
 20 21  2  0  0  0
 20105  1  0  0  0
 21 23  1  0  0  0
 22 28  1  0  0  0
 22 32  2  0  0  0
 26 27  1  0  0  0
 28106  1  0  0  0
 28107  1  0  0  0
 29108  1  0  0  0
 29109  1  0  0  0
 33 34  1  0  0  0
 33 66  1  0  0  0
 33 70  2  0  0  0
 34 36  1  0  0  0
 34 59  1  0  0  0
 34110  1  0  0  0
 35 44  2  0  0  0
 35 45  1  0  0  0
 35 68  1  0  0  0
 36 56  1  0  0  0
 36111  1  0  0  0
 37 39  1  0  0  0
 37 47  1  0  0  0
 37 66  1  0  0  0
 37112  1  0  0  0
 38 43  2  0  0  0
 38 46  1  0  0  0
 38 47  1  0  0  0
 39 64  1  0  0  0
 39 67  2  0  0  0
 40 52  1  0  0  0
 40 53  2  0  0  0
 40 58  1  0  0  0
 41113  1  0  0  0
 41114  1  0  0  0
 41115  1  0  0  0
 41 48  1  0  0  0
 42 43  1  0  0  0
 42 66  1  0  0  0
 42116  1  0  0  0
 42117  1  0  0  0
 43 44  1  0  0  0
 44118  1  0  0  0
 45 46  2  0  0  0
 45119  1  0  0  0
 46120  1  0  0  0
 47121  1  0  0  0
 47122  1  0  0  0
 48 56  1  0  0  0
 48 65  1  0  0  0
 48123  1  0  0  0
 49 50  1  0  0  0
 49 53  1  0  0  0
 49 64  1  0  0  0
 49124  1  0  0  0
 50 51  1  0  0  0
 50125  1  0  0  0
 50126  1  0  0  0
 51 52  1  0  0  0
 51127  1  0  0  0
 51128  1  0  0  0
 52129  1  0  0  0
 52130  1  0  0  0
 53 54  1  0  0  0
 54 55  2  0  0  0
 54131  1  0  0  0
 55 57  1  0  0  0
 55132  1  0  0  0
 56 69  2  0  0  0
 57 58  2  0  0  0
 57133  1  0  0  0
 58134  1  0  0  0
 59 60  1  0  0  0
 59 61  1  0  0  0
 59 62  1  0  0  0
 60135  1  0  0  0
 60136  1  0  0  0
 60137  1  0  0  0
 61138  1  0  0  0
 61139  1  0  0  0
 61140  1  0  0  0
 62141  1  0  0  0
 62142  1  0  0  0
 62143  1  0  0  0
 63 65  1  0  0  0
 63144  1  0  0  0
 63145  1  0  0  0
 63146  1  0  0  0
 64147  1  0  0  0
 65148  1  0  0  0
 68 83  1  0  0  0
 71 72  2  0  0  0
 71 73  1  0  0  0
 71149  1  0  0  0
 72 74  1  0  0  0
 72 81  1  0  0  0
 73 85  1  0  0  0
 73 87  2  0  0  0
 74 84  1  0  0  0
 74 88  2  0  0  0
 75150  1  0  0  0
 75151  1  0  0  0
 75152  1  0  0  0
 75 84  1  0  0  0
 76153  1  0  0  0
 76154  1  0  0  0
 76155  1  0  0  0
 76 85  1  0  0  0
 77 85  1  0  0  0
 77156  1  0  0  0
 77157  1  0  0  0
 77158  1  0  0  0
 78 85  1  0  0  0
 78159  1  0  0  0
 78160  1  0  0  0
 78161  1  0  0  0
 79162  1  0  0  0
 79163  1  0  0  0
 79164  1  0  0  0
 79 86  1  0  0  0
 80 86  1  0  0  0
 80165  1  0  0  0
 80166  1  0  0  0
 80167  1  0  0  0
 81 83  1  0  0  0
 81168  1  0  0  0
 81169  1  0  0  0
 82 86  1  0  0  0
 82 89  1  0  0  0
 82170  1  0  0  0
 82171  1  0  0  0
 83172  1  0  0  0
 83173  1  0  0  0
 84 86  1  0  0  0
 84174  1  0  0  0
 87 88  1  0  0  0
 89175  1  0  0  0
M  ISO  4   1 100  68 101  83 101  89 100
M  END
> <chiral flag>
0

> <version>
0

> <s_m_source_file>
/data/baiqing/PycharmProjects/Reinvent-master-3.2/result/LINK_invent/BTK/process_docking_weight1_custom_sum_contain_oxygen_bond_distance_aromatic_linkinvent_7_9_3/rearranged_h_0087.sdf

> <i_m_source_file_index>
21

> <r_mmod_Potential_Energy-OPLS-2005>
8501.41796875

> <r_mmod_Stretch_Energy-OPLS-2005>
4645.6962890625

> <r_mmod_Bend_Energy-OPLS-2005>
1015.49822998047

> <r_mmod_Torsional_Energy-OPLS-2005>
545.270690917969

> <r_mmod_Improper_Torsional_Energy-OPLS-2005>
58.0205879211426

> <r_mmod_Van_der_Waal_Energy-OPLS-2005>
1766.16638183594

> <r_mmod_Electrostatic_Energy-OPLS-2005>
-389.523498535156

> <r_mmod_Solvation_Energy-OPLS-2005>
-209.122619628906

> <b_mmod_Minimization_Converged-OPLS-2005>
0

> <r_mmod_RMS_Derivative-OPLS-2005>
4.41039848327637

$$$$
22
                    3D
 Structure written by MMmdl.
157165  0  0  1  0            999 V2000
  -30.6152  -14.6968   20.4773 C   0  0  0  0  0  0
  -30.4320  -12.4248   19.4645 C   0  0  0  0  0  0
  -29.5115  -12.5025   18.2294 C   0  0  0  0  0  0
  -28.0300  -12.3488   18.6306 C   0  0  0  0  0  0
  -27.6431  -13.2312   19.8483 C   0  0  2  0  0  0
  -28.6867  -13.1277   20.9810 C   0  0  0  0  0  0
  -25.2506  -13.8232   20.5654 C   0  0  0  0  0  0
  -24.1800  -13.0479   20.9181 C   0  0  0  0  0  0
  -24.6393  -11.6962   20.8718 C   0  0  0  0  0  0
  -23.9058  -10.4335   21.0376 C   0  0  0  0  0  0
  -24.3627   -9.4255   21.9147 C   0  0  0  0  0  0
  -23.6322   -8.2280   22.0726 C   0  0  0  0  0  0
  -22.4299   -8.0305   21.3526 C   0  0  0  0  0  0
  -21.9917   -9.0264   20.4620 C   0  0  0  0  0  0
  -22.7226  -10.2155   20.3024 C   0  0  0  0  0  0
  -21.6874   -6.0740   22.5269 C   0  0  0  0  0  0
  -21.4039   -6.5641   23.8200 C   0  0  0  0  0  0
  -21.3657   -5.6787   24.9156 C   0  0  0  0  0  0
  -21.6058   -4.3048   24.7204 C   0  0  0  0  0  0
  -21.8826   -3.8140   23.4319 C   0  0  0  0  0  0
  -21.9206   -4.6966   22.3382 C   0  0  0  0  0  0
  -22.7811  -13.5240   21.1851 C   0  0  0  0  0  0
  -22.1664   -4.2156   21.0959 F   0  0  0  0  0  0
  -21.5632   -3.4535   25.7710 F   0  0  0  0  0  0
  -29.9920  -13.4751   20.4054 N   0  0  0  0  0  0
  -26.2931  -12.9432   20.3234 N   0  0  0  0  0  0
  -25.9310  -11.6575   20.5685 N   0  0  0  0  0  0
  -22.0465  -12.8220   22.0414 N   0  0  0  0  0  0
  -25.4206  -15.1956   20.4070 N   0  0  0  0  0  0
  -31.8031  -14.8115   20.1636 O   0  0  0  0  0  0
  -21.6677   -6.8890   21.4226 O   0  0  0  0  0  0
  -22.3493  -14.5537   20.6693 O   0  0  0  0  0  0
  -24.6280  -31.8572   23.1981 C   0  0  0  0  0  0
  -25.9114  -32.4766   23.8325 C   0  0  1  0  0  0
  -27.2293  -27.2951   20.1248 C   0  0  0  0  0  0
  -25.5916  -33.8573   24.2259 N   0  0  0  0  0  0
  -23.4229  -30.4781   21.5423 C   0  0  2  0  0  0
  -24.8697  -28.9195   20.1181 C   0  0  0  0  0  0
  -22.7485  -29.4620   22.4937 C   0  0  0  0  0  0
  -18.0288  -28.1387   22.8493 C   0  0  0  0  0  0
  -24.1481  -36.7295   23.2637 C   0  0  0  0  0  0
  -25.9647  -30.7814   21.3704 C   0  0  0  0  0  0
  -26.0411  -29.4043   20.7165 C   0  0  0  0  0  0
  -27.2255  -28.6054   20.7034 C   0  0  0  0  0  0
  -26.0360  -26.8604   19.5114 C   0  0  0  0  0  0
  -24.8700  -27.6529   19.5088 C   0  0  0  0  0  0
  -23.6399  -29.8057   20.1615 C   0  0  0  0  0  0
  -25.4106  -36.3084   24.0330 C   0  0  1  0  0  0
  -20.5886  -28.3701   23.1285 C   0  0  2  0  0  0
  -20.6784  -26.9424   22.5415 C   0  0  0  0  0  0
  -19.5755  -26.6388   21.5222 C   0  0  0  0  0  0
  -18.1934  -26.7932   22.1629 C   0  0  0  0  0  0
  -19.1537  -28.8856   23.2884 C   0  0  0  0  0  0
  -18.9467  -30.1454   23.8905 C   0  0  0  0  0  0
  -17.6469  -30.6593   24.0565 C   0  0  0  0  0  0
  -25.9052  -34.9452   23.5103 C   0  0  0  0  0  0
  -16.5356  -29.9101   23.6321 C   0  0  0  0  0  0
  -16.7277  -28.6509   23.0359 C   0  0  0  0  0  0
  -26.4486  -31.6586   25.0710 C   0  0  0  0  0  0
  -25.3694  -31.3752   26.1421 C   0  0  0  0  0  0
  -27.0329  -30.3002   24.6183 C   0  0  0  0  0  0
  -27.6035  -32.4322   25.7490 C   0  0  0  0  0  0
  -27.5584  -37.1801   24.8464 C   0  0  0  0  0  0
  -21.4195  -29.3045   22.3674 N   0  0  0  0  0  0
  -26.4290  -37.3776   23.9415 N   0  0  0  0  0  0
  -24.6911  -31.0562   22.0938 N   0  0  0  0  0  0
  -23.4190  -28.8170   23.3039 O   0  0  0  0  0  0
  -28.3557  -26.4537   20.1078 O   0  0  0  0  0  0
  -26.5636  -34.8925   22.4678 O   0  0  0  0  0  0
  -23.5445  -32.1387   23.7294 O   0  0  0  0  0  0
  -28.9555  -21.1320   20.0237 C   0  0  0  0  0  0
  -29.3729  -22.4748   20.3763 C   0  0  0  0  0  0
  -29.6255  -19.9647   20.5696 C   0  0  0  0  0  0
  -30.4693  -22.5009   21.2776 C   0  0  0  0  0  0
  -31.1525  -23.7874   21.7033 C   0  0  0  0  0  0
  -29.1888  -18.2419   18.7095 C   0  0  0  0  0  0
  -28.8268  -23.8192   19.7124 C   0  0  0  0  0  0
  -30.2355  -17.2772   20.8405 C   0  0  0  0  0  0
  -28.2388  -25.0419   20.5835 C   0  0  0  0  0  0
  -29.2863  -18.4418   20.2322 C   0  0  1  0  0  0
  -30.6347  -20.1493   21.4528 N   0  0  0  0  0  0
  -31.0377  -21.3784   21.7938 N   0  0  0  0  0  0
  -29.8348  -15.8090   20.7140 N   0  0  0  0  0  0
  -31.4742  -12.5483   19.1647 H   0  0  0  0  0  0
  -30.3720  -11.4420   19.9354 H   0  0  0  0  0  0
  -29.7849  -11.7311   17.5068 H   0  0  0  0  0  0
  -29.6605  -13.4602   17.7274 H   0  0  0  0  0  0
  -27.8564  -11.2971   18.8613 H   0  0  0  0  0  0
  -27.3884  -12.5805   17.7814 H   0  0  0  0  0  0
  -27.6477  -14.2595   19.4893 H   0  0  0  0  0  0
  -28.7084  -12.1188   21.3977 H   0  0  0  0  0  0
  -28.4290  -13.7940   21.8044 H   0  0  0  0  0  0
  -25.2767   -9.5777   22.4718 H   0  0  0  0  0  0
  -24.0048   -7.4699   22.7456 H   0  0  0  0  0  0
  -21.0843   -8.8764   19.8946 H   0  0  0  0  0  0
  -22.3644  -10.9687   19.6145 H   0  0  0  0  0  0
  -21.2029   -7.6151   23.9696 H   0  0  0  0  0  0
  -21.1471   -6.0514   25.9064 H   0  0  0  0  0  0
  -22.0601   -2.7601   23.2806 H   0  0  0  0  0  0
  -22.4116  -11.9923   22.4837 H   0  0  0  0  0  0
  -21.1066  -13.1208   22.2593 H   0  0  0  0  0  0
  -24.6506  -15.8473   20.5175 H   0  0  0  0  0  0
  -26.2589  -15.6328   20.0480 H   0  0  0  0  0  0
  -26.7189  -32.5432   23.1079 H   0  0  0  0  0  0
  -25.0023  -33.9700   25.0380 H   0  0  0  0  0  0
  -22.7167  -31.2987   21.3960 H   0  0  0  0  0  0
  -23.3747  -35.9628   23.3295 H   0  0  0  0  0  0
  -24.3571  -36.8921   22.2054 H   0  0  0  0  0  0
  -23.7235  -37.6492   23.6666 H   0  0  0  0  0  0
  -26.0935  -31.5411   20.5982 H   0  0  0  0  0  0
  -26.8451  -30.8347   21.9993 H   0  0  0  0  0  0
  -28.1288  -28.9777   21.1650 H   0  0  0  0  0  0
  -26.0018  -25.8911   19.0324 H   0  0  0  0  0  0
  -23.9700  -27.2750   19.0419 H   0  0  0  0  0  0
  -23.7667  -30.5781   19.4025 H   0  0  0  0  0  0
  -22.7575  -29.2406   19.8582 H   0  0  0  0  0  0
  -25.1283  -36.1927   25.0824 H   0  0  0  0  0  0
  -20.9977  -28.3282   24.1405 H   0  0  0  0  0  0
  -20.5698  -26.2314   23.3621 H   0  0  0  0  0  0
  -21.6655  -26.7474   22.1199 H   0  0  0  0  0  0
  -19.6926  -25.6299   21.1255 H   0  0  0  0  0  0
  -19.6684  -27.3195   20.6745 H   0  0  0  0  0  0
  -17.4209  -26.6682   21.4025 H   0  0  0  0  0  0
  -18.0327  -26.0072   22.9018 H   0  0  0  0  0  0
  -19.7939  -30.7265   24.2288 H   0  0  0  0  0  0
  -17.5022  -31.6272   24.5167 H   0  0  0  0  0  0
  -15.5354  -30.3014   23.7629 H   0  0  0  0  0  0
  -15.8672  -28.0823   22.7091 H   0  0  0  0  0  0
  -24.5851  -30.7128   25.7737 H   0  0  0  0  0  0
  -24.8906  -32.2940   26.4824 H   0  0  0  0  0  0
  -25.7979  -30.8926   27.0212 H   0  0  0  0  0  0
  -26.2926  -29.6751   24.1174 H   0  0  0  0  0  0
  -27.3981  -29.7252   25.4703 H   0  0  0  0  0  0
  -27.8809  -30.4277   23.9447 H   0  0  0  0  0  0
  -27.2639  -33.3615   26.2075 H   0  0  0  0  0  0
  -28.3848  -32.6891   25.0325 H   0  0  0  0  0  0
  -28.0705  -31.8443   26.5402 H   0  0  0  0  0  0
  -28.2590  -38.0105   24.7514 H   0  0  0  0  0  0
  -28.1087  -36.2638   24.6277 H   0  0  0  0  0  0
  -27.2311  -37.1437   25.8867 H   0  0  0  0  0  0
  -20.9384  -29.8744   21.6856 H   0  0  0  0  0  0
  -26.0168  -38.2851   24.1404 H   0  0  0  0  0  0
  -28.1542  -20.9950   19.3119 H   0  0  0  0  0  0
  -31.1248  -24.5414   20.9181 H   0  0  0  0  0  0
  -32.2035  -23.6134   21.9340 H   0  0  0  0  0  0
  -30.6755  -24.1882   22.5980 H   0  0  0  0  0  0
  -28.4757  -18.9283   18.2542 H   0  0  0  0  0  0
  -28.8650  -17.2319   18.4561 H   0  0  0  0  0  0
  -30.1558  -18.4086   18.2339 H   0  0  0  0  0  0
  -28.0781  -23.5471   18.9683 H   0  0  0  0  0  0
  -29.6578  -24.2121   19.1252 H   0  0  0  0  0  0
  -30.3427  -17.4619   21.9109 H   0  0  0  0  0  0
  -31.2375  -17.3960   20.4277 H   0  0  0  0  0  0
  -28.7498  -25.0485   21.5439 H   0  0  0  0  0  0
  -27.2066  -24.8073   20.8429 H   0  0  0  0  0  0
  -28.2894  -18.2880   20.6465 H   0  0  0  0  0  0
  -28.8635  -15.6084   20.8988 H   0  0  0  0  0  0
  1 25  1  0  0  0
  1 30  2  0  0  0
  1 83  1  0  0  0
  2  3  1  0  0  0
  2 25  1  0  0  0
  2 84  1  0  0  0
  2 85  1  0  0  0
  3  4  1  0  0  0
  3 86  1  0  0  0
  3 87  1  0  0  0
  4  5  1  0  0  0
  4 88  1  0  0  0
  4 89  1  0  0  0
  5  6  1  0  0  0
  5 26  1  0  0  0
  5 90  1  0  0  0
  6 25  1  0  0  0
  6 91  1  0  0  0
  6 92  1  0  0  0
  7  8  2  0  0  0
  7 26  1  0  0  0
  7 29  1  0  0  0
  8  9  1  0  0  0
  8 22  1  0  0  0
  9 10  1  0  0  0
  9 27  2  0  0  0
 10 11  2  0  0  0
 10 15  1  0  0  0
 11 12  1  0  0  0
 11 93  1  0  0  0
 12 13  2  0  0  0
 12 94  1  0  0  0
 13 14  1  0  0  0
 13 31  1  0  0  0
 14 15  2  0  0  0
 14 95  1  0  0  0
 15 96  1  0  0  0
 16 17  2  0  0  0
 16 21  1  0  0  0
 16 31  1  0  0  0
 17 18  1  0  0  0
 17 97  1  0  0  0
 18 19  2  0  0  0
 18 98  1  0  0  0
 19 20  1  0  0  0
 19 24  1  0  0  0
 20 21  2  0  0  0
 20 99  1  0  0  0
 21 23  1  0  0  0
 22 28  1  0  0  0
 22 32  2  0  0  0
 26 27  1  0  0  0
 28100  1  0  0  0
 28101  1  0  0  0
 29102  1  0  0  0
 29103  1  0  0  0
 33 34  1  0  0  0
 33 66  1  0  0  0
 33 70  2  0  0  0
 34 36  1  0  0  0
 34 59  1  0  0  0
 34104  1  0  0  0
 35 44  2  0  0  0
 35 45  1  0  0  0
 35 68  1  0  0  0
 36 56  1  0  0  0
 36105  1  0  0  0
 37 39  1  0  0  0
 37 47  1  0  0  0
 37 66  1  0  0  0
 37106  1  0  0  0
 38 43  2  0  0  0
 38 46  1  0  0  0
 38 47  1  0  0  0
 39 64  1  0  0  0
 39 67  2  0  0  0
 40 52  1  0  0  0
 40 53  2  0  0  0
 40 58  1  0  0  0
 41107  1  0  0  0
 41108  1  0  0  0
 41109  1  0  0  0
 41 48  1  0  0  0
 42 43  1  0  0  0
 42 66  1  0  0  0
 42110  1  0  0  0
 42111  1  0  0  0
 43 44  1  0  0  0
 44112  1  0  0  0
 45 46  2  0  0  0
 45113  1  0  0  0
 46114  1  0  0  0
 47115  1  0  0  0
 47116  1  0  0  0
 48 56  1  0  0  0
 48 65  1  0  0  0
 48117  1  0  0  0
 49 50  1  0  0  0
 49 53  1  0  0  0
 49 64  1  0  0  0
 49118  1  0  0  0
 50 51  1  0  0  0
 50119  1  0  0  0
 50120  1  0  0  0
 51 52  1  0  0  0
 51121  1  0  0  0
 51122  1  0  0  0
 52123  1  0  0  0
 52124  1  0  0  0
 53 54  1  0  0  0
 54 55  2  0  0  0
 54125  1  0  0  0
 55 57  1  0  0  0
 55126  1  0  0  0
 56 69  2  0  0  0
 57 58  2  0  0  0
 57127  1  0  0  0
 58128  1  0  0  0
 59 60  1  0  0  0
 59 61  1  0  0  0
 59 62  1  0  0  0
 60129  1  0  0  0
 60130  1  0  0  0
 60131  1  0  0  0
 61132  1  0  0  0
 61133  1  0  0  0
 61134  1  0  0  0
 62135  1  0  0  0
 62136  1  0  0  0
 62137  1  0  0  0
 63 65  1  0  0  0
 63138  1  0  0  0
 63139  1  0  0  0
 63140  1  0  0  0
 64141  1  0  0  0
 65142  1  0  0  0
 68 79  1  0  0  0
 71 72  2  0  0  0
 71 73  1  0  0  0
 71143  1  0  0  0
 72 74  1  0  0  0
 72 77  1  0  0  0
 73 80  1  0  0  0
 73 81  2  0  0  0
 74 75  1  0  0  0
 74 82  2  0  0  0
 75144  1  0  0  0
 75145  1  0  0  0
 75146  1  0  0  0
 76147  1  0  0  0
 76148  1  0  0  0
 76149  1  0  0  0
 76 80  1  0  0  0
 77 79  1  0  0  0
 77150  1  0  0  0
 77151  1  0  0  0
 78 80  1  0  0  0
 78 83  1  0  0  0
 78152  1  0  0  0
 78153  1  0  0  0
 79154  1  0  0  0
 79155  1  0  0  0
 80156  1  0  0  0
 81 82  1  0  0  0
 83157  1  0  0  0
M  ISO  4   1 100  68 101  79 101  83 100
M  END
> <chiral flag>
0

> <version>
0

> <s_m_source_file>
/data/baiqing/PycharmProjects/Reinvent-master-3.2/result/LINK_invent/BTK/process_docking_weight1_custom_sum_contain_oxygen_bond_distance_aromatic_linkinvent_7_9_3/rearranged_h_0087.sdf

> <i_m_source_file_index>
22

> <r_mmod_Potential_Energy-OPLS-2005>
93.6705017089844

> <r_mmod_Stretch_Energy-OPLS-2005>
111.02481842041

> <r_mmod_Bend_Energy-OPLS-2005>
156.681747436523

> <r_mmod_Torsional_Energy-OPLS-2005>
234.96809387207

> <r_mmod_Improper_Torsional_Energy-OPLS-2005>
5.0937933921814

> <r_mmod_Van_der_Waal_Energy-OPLS-2005>
138.284652709961

> <r_mmod_Electrostatic_Energy-OPLS-2005>
-378.177734375

> <r_mmod_Solvation_Energy-OPLS-2005>
-237.112182617188

> <b_mmod_Minimization_Converged-OPLS-2005>
0

> <r_mmod_RMS_Derivative-OPLS-2005>
2.61551690101624

$$$$
23
                    3D
 Structure written by MMmdl.
165173  0  0  1  0            999 V2000
  -30.5894  -14.7836   20.5764 C   0  0  0  0  0  0
  -30.4555  -12.5124   19.4786 C   0  0  0  0  0  0
  -29.5275  -12.5613   18.2396 C   0  0  0  0  0  0
  -28.0475  -12.3653   18.6323 C   0  0  0  0  0  0
  -27.6514  -13.2205   19.8626 C   0  0  2  0  0  0
  -28.6898  -13.0419   20.9819 C   0  0  0  0  0  0
  -25.2557  -13.8162   20.5662 C   0  0  0  0  0  0
  -24.1826  -13.0429   20.9161 C   0  0  0  0  0  0
  -24.6395  -11.6894   20.8700 C   0  0  0  0  0  0
  -23.9069  -10.4277   21.0385 C   0  0  0  0  0  0
  -24.3620   -9.4199   21.9170 C   0  0  0  0  0  0
  -23.6291   -8.2240   22.0752 C   0  0  0  0  0  0
  -22.4267   -8.0287   21.3544 C   0  0  0  0  0  0
  -21.9900   -9.0259   20.4644 C   0  0  0  0  0  0
  -22.7237  -10.2130   20.3047 C   0  0  0  0  0  0
  -21.6846   -6.0737   22.5277 C   0  0  0  0  0  0
  -21.4022   -6.5644   23.8213 C   0  0  0  0  0  0
  -21.3652   -5.6794   24.9173 C   0  0  0  0  0  0
  -21.6043   -4.3055   24.7217 C   0  0  0  0  0  0
  -21.8819   -3.8145   23.4339 C   0  0  0  0  0  0
  -21.9196   -4.6965   22.3396 C   0  0  0  0  0  0
  -22.7846  -13.5222   21.1857 C   0  0  0  0  0  0
  -22.1657   -4.2151   21.0969 F   0  0  0  0  0  0
  -21.5619   -3.4539   25.7726 F   0  0  0  0  0  0
  -29.9840  -13.5300   20.4621 N   0  0  0  0  0  0
  -26.2969  -12.9337   20.3259 N   0  0  0  0  0  0
  -25.9314  -11.6487   20.5681 N   0  0  0  0  0  0
  -22.0506  -12.8206   22.0418 N   0  0  0  0  0  0
  -25.4308  -15.1892   20.4118 N   0  0  0  0  0  0
  -31.7121  -14.9221   20.0729 O   0  0  0  0  0  0
  -21.6637   -6.8880   21.4236 O   0  0  0  0  0  0
  -22.3515  -14.5538   20.6734 O   0  0  0  0  0  0
  -24.6331  -31.8537   23.1972 C   0  0  0  0  0  0
  -25.9154  -32.4735   23.8324 C   0  0  1  0  0  0
  -27.2208  -27.2367   20.1437 C   0  0  0  0  0  0
  -25.5942  -33.8544   24.2242 N   0  0  0  0  0  0
  -23.4315  -30.4737   21.5420 C   0  0  2  0  0  0
  -24.8822  -28.9176   20.1140 C   0  0  0  0  0  0
  -22.7521  -29.4578   22.4927 C   0  0  0  0  0  0
  -18.0292  -28.1379   22.8483 C   0  0  0  0  0  0
  -24.1494  -36.7271   23.2640 C   0  0  0  0  0  0
  -25.9803  -30.7572   21.3842 C   0  0  0  0  0  0
  -26.0539  -29.3777   20.7278 C   0  0  0  0  0  0
  -27.2282  -28.5514   20.7294 C   0  0  0  0  0  0
  -26.0306  -26.8610   19.4827 C   0  0  0  0  0  0
  -24.8762  -27.6676   19.4787 C   0  0  0  0  0  0
  -23.6531  -29.8062   20.1597 C   0  0  0  0  0  0
  -25.4120  -36.3060   24.0324 C   0  0  1  0  0  0
  -20.5895  -28.3688   23.1276 C   0  0  2  0  0  0
  -20.6780  -26.9408   22.5417 C   0  0  0  0  0  0
  -19.5751  -26.6378   21.5221 C   0  0  0  0  0  0
  -18.1930  -26.7919   22.1628 C   0  0  0  0  0  0
  -19.1548  -28.8854   23.2862 C   0  0  0  0  0  0
  -18.9467  -30.1458   23.8873 C   0  0  0  0  0  0
  -17.6461  -30.6581   24.0557 C   0  0  0  0  0  0
  -25.9064  -34.9429   23.5085 C   0  0  0  0  0  0
  -16.5352  -29.9073   23.6334 C   0  0  0  0  0  0
  -16.7278  -28.6492   23.0353 C   0  0  0  0  0  0
  -26.4509  -31.6564   25.0724 C   0  0  0  0  0  0
  -25.3729  -31.3733   26.1443 C   0  0  0  0  0  0
  -27.0355  -30.2967   24.6236 C   0  0  0  0  0  0
  -27.6044  -32.4323   25.7500 C   0  0  0  0  0  0
  -27.5575  -37.1797   24.8466 C   0  0  0  0  0  0
  -21.4227  -29.3027   22.3666 N   0  0  0  0  0  0
  -26.4292  -37.3759   23.9410 N   0  0  0  0  0  0
  -24.7002  -31.0471   22.0968 N   0  0  0  0  0  0
  -23.4210  -28.8128   23.3042 O   0  0  0  0  0  0
  -28.2959  -26.3078   20.1875 O   0  0  0  0  0  0
  -26.5643  -34.8904   22.4657 O   0  0  0  0  0  0
  -23.5471  -32.1372   23.7250 O   0  0  0  0  0  0
  -29.9453  -23.0035   21.1362 C   0  0  0  0  0  0
  -27.9565  -22.2308   19.8729 C   0  0  0  0  0  0
  -29.8438  -21.5161   21.6909 C   0  0  0  0  0  0
  -28.7095  -20.8472   19.5881 C   0  0  0  0  0  0
  -28.8265  -23.5218   20.1607 C   0  0  1  0  0  0
  -29.7391  -20.3050   20.6621 C   0  0  1  0  0  0
  -30.4888  -18.8159   22.5684 C   0  0  0  0  0  0
  -28.0755  -18.6773   21.7079 C   0  0  0  0  0  0
  -29.1480  -15.7589   22.3101 C   0  0  0  0  0  0
  -27.9964  -24.8738   20.5907 C   0  0  0  0  0  0
  -30.0355  -17.3887   20.5110 C   0  0  0  0  0  0
  -29.5738  -18.7744   21.3153 C   0  0  0  0  0  0
  -29.8806  -15.9173   21.0435 N   0  0  0  0  0  0
  -31.4891  -12.6799   19.1728 H   0  0  0  0  0  0
  -30.4521  -11.5153   19.9208 H   0  0  0  0  0  0
  -29.8273  -11.8069   17.5108 H   0  0  0  0  0  0
  -29.6471  -13.5254   17.7438 H   0  0  0  0  0  0
  -27.8998  -11.3079   18.8579 H   0  0  0  0  0  0
  -27.3986  -12.5950   17.7870 H   0  0  0  0  0  0
  -27.6743  -14.2644   19.5483 H   0  0  0  0  0  0
  -28.7670  -11.9855   21.2444 H   0  0  0  0  0  0
  -28.3425  -13.4896   21.9013 H   0  0  0  0  0  0
  -25.2769   -9.5664   22.4745 H   0  0  0  0  0  0
  -23.9991   -7.4624   22.7473 H   0  0  0  0  0  0
  -21.0830   -8.8779   19.8959 H   0  0  0  0  0  0
  -22.3694  -10.9672   19.6157 H   0  0  0  0  0  0
  -21.2027   -7.6149   23.9713 H   0  0  0  0  0  0
  -21.1472   -6.0521   25.9073 H   0  0  0  0  0  0
  -22.0607   -2.7611   23.2835 H   0  0  0  0  0  0
  -22.4120  -11.9855   22.4779 H   0  0  0  0  0  0
  -21.1148  -13.1261   22.2675 H   0  0  0  0  0  0
  -24.6768  -15.8546   20.5449 H   0  0  0  0  0  0
  -26.2947  -15.6244   20.1139 H   0  0  0  0  0  0
  -26.7214  -32.5378   23.1054 H   0  0  0  0  0  0
  -25.0090  -33.9673   25.0386 H   0  0  0  0  0  0
  -22.7270  -31.2958   21.3948 H   0  0  0  0  0  0
  -23.3758  -35.9602   23.3302 H   0  0  0  0  0  0
  -24.3573  -36.8897   22.2054 H   0  0  0  0  0  0
  -23.7251  -37.6470   23.6667 H   0  0  0  0  0  0
  -26.1267  -31.5169   20.6150 H   0  0  0  0  0  0
  -26.8541  -30.8037   22.0226 H   0  0  0  0  0  0
  -28.1227  -28.8990   21.2270 H   0  0  0  0  0  0
  -25.9711  -25.9139   18.9665 H   0  0  0  0  0  0
  -23.9847  -27.3104   18.9824 H   0  0  0  0  0  0
  -23.7797  -30.5823   19.4045 H   0  0  0  0  0  0
  -22.7711  -29.2421   19.8524 H   0  0  0  0  0  0
  -25.1305  -36.1893   25.0818 H   0  0  0  0  0  0
  -20.9970  -28.3266   24.1400 H   0  0  0  0  0  0
  -20.5685  -26.2299   23.3620 H   0  0  0  0  0  0
  -21.6645  -26.7433   22.1203 H   0  0  0  0  0  0
  -19.6914  -25.6291   21.1244 H   0  0  0  0  0  0
  -19.6681  -27.3194   20.6755 H   0  0  0  0  0  0
  -17.4204  -26.6669   21.4027 H   0  0  0  0  0  0
  -18.0319  -26.0060   22.9024 H   0  0  0  0  0  0
  -19.7947  -30.7289   24.2219 H   0  0  0  0  0  0
  -17.5018  -31.6259   24.5170 H   0  0  0  0  0  0
  -15.5351  -30.2968   23.7676 H   0  0  0  0  0  0
  -15.8678  -28.0811   22.7073 H   0  0  0  0  0  0
  -24.5899  -30.7075   25.7788 H   0  0  0  0  0  0
  -24.8925  -32.2914   26.4844 H   0  0  0  0  0  0
  -25.8050  -30.8935   27.0235 H   0  0  0  0  0  0
  -26.2949  -29.6712   24.1236 H   0  0  0  0  0  0
  -27.3991  -29.7225   25.4767 H   0  0  0  0  0  0
  -27.8848  -30.4214   23.9513 H   0  0  0  0  0  0
  -27.2625  -33.3625   26.2047 H   0  0  0  0  0  0
  -28.3870  -32.6887   25.0349 H   0  0  0  0  0  0
  -28.0695  -31.8479   26.5446 H   0  0  0  0  0  0
  -28.2600  -38.0086   24.7501 H   0  0  0  0  0  0
  -28.1065  -36.2618   24.6310 H   0  0  0  0  0  0
  -27.2288  -37.1465   25.8867 H   0  0  0  0  0  0
  -20.9427  -29.8738   21.6849 H   0  0  0  0  0  0
  -26.0161  -38.2831   24.1404 H   0  0  0  0  0  0
  -30.9073  -23.1023   20.6338 H   0  0  0  0  0  0
  -30.0112  -23.6805   21.9891 H   0  0  0  0  0  0
  -27.2824  -22.0720   20.7156 H   0  0  0  0  0  0
  -27.2989  -22.4456   19.0298 H   0  0  0  0  0  0
  -28.9926  -21.4720   22.3701 H   0  0  0  0  0  0
  -30.7169  -21.3831   22.3293 H   0  0  0  0  0  0
  -29.2476  -20.9585   18.6458 H   0  0  0  0  0  0
  -27.9642  -20.0805   19.3804 H   0  0  0  0  0  0
  -29.3127  -23.7675   19.2157 H   0  0  0  0  0  0
  -30.7056  -20.2853   20.1565 H   0  0  0  0  0  0
  -31.4407  -19.2930   22.3303 H   0  0  0  0  0  0
  -30.7921  -17.8481   22.9543 H   0  0  0  0  0  0
  -30.0334  -19.3653   23.3943 H   0  0  0  0  0  0
  -27.8621  -18.0286   22.5511 H   0  0  0  0  0  0
  -27.4744  -18.3252   20.8685 H   0  0  0  0  0  0
  -27.6698  -19.6460   21.9998 H   0  0  0  0  0  0
  -28.0812  -15.6418   22.1188 H   0  0  0  0  0  0
  -29.2491  -16.5633   23.0199 H   0  0  0  0  0  0
  -29.5128  -14.9076   22.8879 H   0  0  0  0  0  0
  -27.9689  -24.8923   21.6802 H   0  0  0  0  0  0
  -26.9649  -24.6465   20.3343 H   0  0  0  0  0  0
  -31.0936  -17.5068   20.2739 H   0  0  0  0  0  0
  -29.5423  -17.3991   19.5385 H   0  0  0  0  0  0
  1 25  1  0  0  0
  1 30  2  0  0  0
  1 83  1  0  0  0
  2  3  1  0  0  0
  2 25  1  0  0  0
  2 84  1  0  0  0
  2 85  1  0  0  0
  3  4  1  0  0  0
  3 86  1  0  0  0
  3 87  1  0  0  0
  4  5  1  0  0  0
  4 88  1  0  0  0
  4 89  1  0  0  0
  5  6  1  0  0  0
  5 26  1  0  0  0
  5 90  1  0  0  0
  6 25  1  0  0  0
  6 91  1  0  0  0
  6 92  1  0  0  0
  7  8  2  0  0  0
  7 26  1  0  0  0
  7 29  1  0  0  0
  8  9  1  0  0  0
  8 22  1  0  0  0
  9 10  1  0  0  0
  9 27  2  0  0  0
 10 11  2  0  0  0
 10 15  1  0  0  0
 11 12  1  0  0  0
 11 93  1  0  0  0
 12 13  2  0  0  0
 12 94  1  0  0  0
 13 14  1  0  0  0
 13 31  1  0  0  0
 14 15  2  0  0  0
 14 95  1  0  0  0
 15 96  1  0  0  0
 16 17  2  0  0  0
 16 21  1  0  0  0
 16 31  1  0  0  0
 17 18  1  0  0  0
 17 97  1  0  0  0
 18 19  2  0  0  0
 18 98  1  0  0  0
 19 20  1  0  0  0
 19 24  1  0  0  0
 20 21  2  0  0  0
 20 99  1  0  0  0
 21 23  1  0  0  0
 22 28  1  0  0  0
 22 32  2  0  0  0
 26 27  1  0  0  0
 28100  1  0  0  0
 28101  1  0  0  0
 29102  1  0  0  0
 29103  1  0  0  0
 33 34  1  0  0  0
 33 66  1  0  0  0
 33 70  2  0  0  0
 34 36  1  0  0  0
 34 59  1  0  0  0
 34104  1  0  0  0
 35 44  2  0  0  0
 35 45  1  0  0  0
 35 68  1  0  0  0
 36 56  1  0  0  0
 36105  1  0  0  0
 37 39  1  0  0  0
 37 47  1  0  0  0
 37 66  1  0  0  0
 37106  1  0  0  0
 38 43  2  0  0  0
 38 46  1  0  0  0
 38 47  1  0  0  0
 39 64  1  0  0  0
 39 67  2  0  0  0
 40 52  1  0  0  0
 40 53  2  0  0  0
 40 58  1  0  0  0
 41107  1  0  0  0
 41108  1  0  0  0
 41109  1  0  0  0
 41 48  1  0  0  0
 42 43  1  0  0  0
 42 66  1  0  0  0
 42110  1  0  0  0
 42111  1  0  0  0
 43 44  1  0  0  0
 44112  1  0  0  0
 45 46  2  0  0  0
 45113  1  0  0  0
 46114  1  0  0  0
 47115  1  0  0  0
 47116  1  0  0  0
 48 56  1  0  0  0
 48 65  1  0  0  0
 48117  1  0  0  0
 49 50  1  0  0  0
 49 53  1  0  0  0
 49 64  1  0  0  0
 49118  1  0  0  0
 50 51  1  0  0  0
 50119  1  0  0  0
 50120  1  0  0  0
 51 52  1  0  0  0
 51121  1  0  0  0
 51122  1  0  0  0
 52123  1  0  0  0
 52124  1  0  0  0
 53 54  1  0  0  0
 54 55  2  0  0  0
 54125  1  0  0  0
 55 57  1  0  0  0
 55126  1  0  0  0
 56 69  2  0  0  0
 57 58  2  0  0  0
 57127  1  0  0  0
 58128  1  0  0  0
 59 60  1  0  0  0
 59 61  1  0  0  0
 59 62  1  0  0  0
 60129  1  0  0  0
 60130  1  0  0  0
 60131  1  0  0  0
 61132  1  0  0  0
 61133  1  0  0  0
 61134  1  0  0  0
 62135  1  0  0  0
 62136  1  0  0  0
 62137  1  0  0  0
 63 65  1  0  0  0
 63138  1  0  0  0
 63139  1  0  0  0
 63140  1  0  0  0
 64141  1  0  0  0
 65142  1  0  0  0
 68 80  1  0  0  0
 71 73  1  0  0  0
 71 75  1  0  0  0
 71143  1  0  0  0
 71144  1  0  0  0
 72 74  1  0  0  0
 72 75  1  0  0  0
 72145  1  0  0  0
 72146  1  0  0  0
 73147  1  0  0  0
 73148  1  0  0  0
 73 76  1  0  0  0
 74 76  1  0  0  0
 74149  1  0  0  0
 74150  1  0  0  0
 75 80  1  0  0  0
 75151  1  0  0  0
 76 82  1  0  0  0
 76152  1  0  0  0
 77153  1  0  0  0
 77154  1  0  0  0
 77155  1  0  0  0
 77 82  1  0  0  0
 78 82  1  0  0  0
 78156  1  0  0  0
 78157  1  0  0  0
 78158  1  0  0  0
 79 83  1  0  0  0
 79159  1  0  0  0
 79160  1  0  0  0
 79161  1  0  0  0
 80162  1  0  0  0
 80163  1  0  0  0
 81 82  1  0  0  0
 81 83  1  0  0  0
 81164  1  0  0  0
 81165  1  0  0  0
M  ISO  4   1 100  68 101  80 101  83 100
M  END
> <chiral flag>
0

> <version>
0

> <s_m_source_file>
/data/baiqing/PycharmProjects/Reinvent-master-3.2/result/LINK_invent/BTK/process_docking_weight1_custom_sum_contain_oxygen_bond_distance_aromatic_linkinvent_7_9_3/rearranged_h_0087.sdf

> <i_m_source_file_index>
23

> <r_mmod_Potential_Energy-OPLS-2005>
569.674682617188

> <r_mmod_Stretch_Energy-OPLS-2005>
187.324691772461

> <r_mmod_Bend_Energy-OPLS-2005>
247.504165649414

> <r_mmod_Torsional_Energy-OPLS-2005>
368.457153320312

> <r_mmod_Improper_Torsional_Energy-OPLS-2005>
5.02967405319214

> <r_mmod_Van_der_Waal_Energy-OPLS-2005>
163.091812133789

> <r_mmod_Electrostatic_Energy-OPLS-2005>
-318.244781494141

> <r_mmod_Solvation_Energy-OPLS-2005>
-180.608093261719

> <b_mmod_Minimization_Converged-OPLS-2005>
0

> <r_mmod_RMS_Derivative-OPLS-2005>
1.86729562282562

$$$$
24
                    3D
 Structure written by MMmdl.
180188  0  0  1  0            999 V2000
  -30.7154  -14.4261   20.6056 C   0  0  0  0  0  0
  -30.4235  -12.2880   19.4188 C   0  0  0  0  0  0
  -29.4964  -12.5153   18.2070 C   0  0  0  0  0  0
  -28.0166  -12.3794   18.6158 C   0  0  0  0  0  0
  -27.6686  -13.2027   19.8846 C   0  0  2  0  0  0
  -28.7068  -12.9525   21.0036 C   0  0  0  0  0  0
  -25.2619  -13.8152   20.5674 C   0  0  0  0  0  0
  -24.1860  -13.0438   20.9149 C   0  0  0  0  0  0
  -24.6403  -11.6902   20.8716 C   0  0  0  0  0  0
  -23.9064  -10.4297   21.0401 C   0  0  0  0  0  0
  -24.3617   -9.4213   21.9180 C   0  0  0  0  0  0
  -23.6294   -8.2252   22.0758 C   0  0  0  0  0  0
  -22.4279   -8.0284   21.3542 C   0  0  0  0  0  0
  -21.9908   -9.0258   20.4646 C   0  0  0  0  0  0
  -22.7234  -10.2138   20.3053 C   0  0  0  0  0  0
  -21.6858   -6.0738   22.5276 C   0  0  0  0  0  0
  -21.4018   -6.5640   23.8207 C   0  0  0  0  0  0
  -21.3657   -5.6793   24.9169 C   0  0  0  0  0  0
  -21.6045   -4.3058   24.7221 C   0  0  0  0  0  0
  -21.8820   -3.8146   23.4343 C   0  0  0  0  0  0
  -21.9199   -4.6965   22.3401 C   0  0  0  0  0  0
  -22.7884  -13.5242   21.1810 C   0  0  0  0  0  0
  -22.1666   -4.2153   21.0980 F   0  0  0  0  0  0
  -21.5625   -3.4540   25.7734 F   0  0  0  0  0  0
  -30.0457  -13.2525   20.4634 N   0  0  0  0  0  0
  -26.3062  -12.9317   20.3395 N   0  0  0  0  0  0
  -25.9333  -11.6480   20.5764 N   0  0  0  0  0  0
  -22.0529  -12.8240   22.0368 N   0  0  0  0  0  0
  -25.4358  -15.1870   20.4080 N   0  0  0  0  0  0
  -31.7950  -14.6540   20.0541 O   0  0  0  0  0  0
  -21.6642   -6.8880   21.4240 O   0  0  0  0  0  0
  -22.3567  -14.5558   20.6676 O   0  0  0  0  0  0
  -24.6119  -31.8692   23.2109 C   0  0  0  0  0  0
  -25.9021  -32.4820   23.8393 C   0  0  1  0  0  0
  -27.2350  -27.4505   20.1080 C   0  0  0  0  0  0
  -25.5874  -33.8622   24.2318 N   0  0  0  0  0  0
  -23.3990  -30.4923   21.5499 C   0  0  2  0  0  0
  -24.8480  -28.9573   20.1166 C   0  0  0  0  0  0
  -22.7390  -29.4669   22.4995 C   0  0  0  0  0  0
  -18.0262  -28.1390   22.8478 C   0  0  0  0  0  0
  -24.1490  -36.7328   23.2640 C   0  0  0  0  0  0
  -25.9236  -30.8397   21.3615 C   0  0  0  0  0  0
  -26.0029  -29.4727   20.7180 C   0  0  0  0  0  0
  -27.2003  -28.7250   20.7138 C   0  0  0  0  0  0
  -26.0718  -26.9506   19.4865 C   0  0  0  0  0  0
  -24.8747  -27.6934   19.4992 C   0  0  0  0  0  0
  -23.6078  -29.8209   20.1653 C   0  0  0  0  0  0
  -25.4105  -36.3108   24.0333 C   0  0  1  0  0  0
  -20.5845  -28.3675   23.1318 C   0  0  2  0  0  0
  -20.6753  -26.9413   22.5421 C   0  0  0  0  0  0
  -19.5740  -26.6394   21.5208 C   0  0  0  0  0  0
  -18.1915  -26.7934   22.1616 C   0  0  0  0  0  0
  -19.1507  -28.8848   23.2895 C   0  0  0  0  0  0
  -18.9447  -30.1453   23.8913 C   0  0  0  0  0  0
  -17.6452  -30.6593   24.0572 C   0  0  0  0  0  0
  -25.9020  -34.9474   23.5125 C   0  0  0  0  0  0
  -16.5340  -29.9097   23.6332 C   0  0  0  0  0  0
  -16.7252  -28.6517   23.0340 C   0  0  0  0  0  0
  -26.4464  -31.6588   25.0711 C   0  0  0  0  0  0
  -25.3745  -31.3679   26.1467 C   0  0  0  0  0  0
  -27.0294  -30.3027   24.6077 C   0  0  0  0  0  0
  -27.6039  -32.4310   25.7468 C   0  0  0  0  0  0
  -27.5578  -37.1812   24.8463 C   0  0  0  0  0  0
  -21.4116  -29.3043   22.3728 N   0  0  0  0  0  0
  -26.4292  -37.3787   23.9403 N   0  0  0  0  0  0
  -24.6627  -31.0809   22.1000 N   0  0  0  0  0  0
  -23.4167  -28.8218   23.3036 O   0  0  0  0  0  0
  -28.4152  -26.7366   20.0587 O   0  0  0  0  0  0
  -26.5599  -34.8925   22.4696 O   0  0  0  0  0  0
  -23.5315  -32.1442   23.7515 O   0  0  0  0  0  0
  -29.9949  -21.4418   18.6422 C   0  0  0  0  0  0
  -30.9189  -20.4684   18.2086 C   0  0  0  0  0  0
  -29.0694  -21.0241   19.6307 C   0  0  0  0  0  0
  -29.9279  -18.8903   19.5421 C   0  0  0  0  0  0
  -31.9879  -20.7484   17.1690 C   0  0  0  0  0  0
  -29.8764  -24.9965   15.6246 C   0  0  0  0  0  0
  -27.3724  -24.7295   15.8341 C   0  0  0  0  0  0
  -31.6545  -17.2996   21.6095 C   0  0  0  0  0  0
  -28.1260  -26.0725   22.3622 C   0  0  0  0  0  0
  -29.9947  -22.8516   18.0420 C   0  0  0  0  0  0
  -27.9795  -21.9307   20.2115 C   0  0  0  0  0  0
  -29.7413  -17.3969   19.8304 C   0  0  0  0  0  0
  -28.9047  -23.0533   16.9704 C   0  0  0  0  0  0
  -28.4756  -23.1484   21.0285 C   0  0  0  0  0  0
  -27.8508  -24.4707   20.5270 C   0  0  0  0  0  0
  -28.7277  -24.5218   16.5278 C   0  0  0  0  0  0
  -30.2364  -16.8493   21.1996 C   0  0  1  0  0  0
  -30.8746  -19.2063   18.6671 N   0  0  0  0  0  0
  -29.0536  -19.7454   20.0670 N   0  0  0  0  0  0
  -30.0478  -15.3839   21.2734 N   0  0  0  0  0  0
  -28.5652  -25.6419   21.0341 N   0  0  0  0  0  0
  -31.4688  -12.3817   19.1191 H   0  0  0  0  0  0
  -30.3162  -11.2699   19.7964 H   0  0  0  0  0  0
  -29.7309  -11.8057   17.4126 H   0  0  0  0  0  0
  -29.6720  -13.5075   17.7895 H   0  0  0  0  0  0
  -27.8144  -11.3221   18.7931 H   0  0  0  0  0  0
  -27.3713  -12.6768   17.7889 H   0  0  0  0  0  0
  -27.7238  -14.2553   19.6061 H   0  0  0  0  0  0
  -28.6734  -11.9100   21.3244 H   0  0  0  0  0  0
  -28.4669  -13.5316   21.8955 H   0  0  0  0  0  0
  -25.2770   -9.5696   22.4741 H   0  0  0  0  0  0
  -24.0008   -7.4650   22.7479 H   0  0  0  0  0  0
  -21.0838   -8.8774   19.8953 H   0  0  0  0  0  0
  -22.3694  -10.9675   19.6156 H   0  0  0  0  0  0
  -21.2012   -7.6149   23.9712 H   0  0  0  0  0  0
  -21.1474   -6.0521   25.9071 H   0  0  0  0  0  0
  -22.0604   -2.7612   23.2838 H   0  0  0  0  0  0
  -22.4149  -11.9900   22.4752 H   0  0  0  0  0  0
  -21.1153  -13.1268   22.2578 H   0  0  0  0  0  0
  -24.6714  -15.8442   20.5169 H   0  0  0  0  0  0
  -26.2906  -15.6249   20.0902 H   0  0  0  0  0  0
  -26.7097  -32.5559   23.1165 H   0  0  0  0  0  0
  -25.0023  -33.9790   25.0460 H   0  0  0  0  0  0
  -22.6869  -31.3082   21.4091 H   0  0  0  0  0  0
  -23.3735  -35.9681   23.3317 H   0  0  0  0  0  0
  -24.3587  -36.8934   22.2050 H   0  0  0  0  0  0
  -23.7262  -37.6545   23.6655 H   0  0  0  0  0  0
  -26.0300  -31.6024   20.5882 H   0  0  0  0  0  0
  -26.8135  -30.8998   21.9758 H   0  0  0  0  0  0
  -28.0970  -29.1204   21.1695 H   0  0  0  0  0  0
  -26.0937  -25.9941   18.9849 H   0  0  0  0  0  0
  -23.9893  -27.2945   19.0231 H   0  0  0  0  0  0
  -23.7095  -30.5930   19.4018 H   0  0  0  0  0  0
  -22.7336  -29.2363   19.8740 H   0  0  0  0  0  0
  -25.1276  -36.1973   25.0825 H   0  0  0  0  0  0
  -20.9927  -28.3248   24.1440 H   0  0  0  0  0  0
  -20.5661  -26.2283   23.3609 H   0  0  0  0  0  0
  -21.6628  -26.7470   22.1214 H   0  0  0  0  0  0
  -19.6910  -25.6306   21.1231 H   0  0  0  0  0  0
  -19.6680  -27.3214   20.6744 H   0  0  0  0  0  0
  -17.4179  -26.6670   21.4022 H   0  0  0  0  0  0
  -18.0327  -26.0080   22.9020 H   0  0  0  0  0  0
  -19.7929  -30.7258   24.2286 H   0  0  0  0  0  0
  -17.5014  -31.6273   24.5182 H   0  0  0  0  0  0
  -15.5343  -30.3012   23.7663 H   0  0  0  0  0  0
  -15.8643  -28.0860   22.7039 H   0  0  0  0  0  0
  -24.5919  -30.7018   25.7811 H   0  0  0  0  0  0
  -24.8937  -32.2826   26.4942 H   0  0  0  0  0  0
  -25.8112  -30.8833   27.0208 H   0  0  0  0  0  0
  -26.2827  -29.6772   24.1156 H   0  0  0  0  0  0
  -27.4088  -29.7265   25.4530 H   0  0  0  0  0  0
  -27.8657  -30.4340   23.9203 H   0  0  0  0  0  0
  -27.2654  -33.3598   26.2075 H   0  0  0  0  0  0
  -28.3828  -32.6885   25.0279 H   0  0  0  0  0  0
  -28.0734  -31.8420   26.5358 H   0  0  0  0  0  0
  -28.2591  -38.0110   24.7498 H   0  0  0  0  0  0
  -28.1067  -36.2633   24.6292 H   0  0  0  0  0  0
  -27.2300  -37.1476   25.8869 H   0  0  0  0  0  0
  -20.9281  -29.8754   21.6942 H   0  0  0  0  0  0
  -26.0181  -38.2867   24.1399 H   0  0  0  0  0  0
  -32.7129  -21.4638   17.5554 H   0  0  0  0  0  0
  -31.5444  -21.1559   16.2605 H   0  0  0  0  0  0
  -32.5296  -19.8431   16.8945 H   0  0  0  0  0  0
  -29.7390  -26.0384   15.3316 H   0  0  0  0  0  0
  -29.9398  -24.4021   14.7125 H   0  0  0  0  0  0
  -30.8393  -24.9282   16.1301 H   0  0  0  0  0  0
  -27.2324  -25.7719   15.5448 H   0  0  0  0  0  0
  -26.5453  -24.4653   16.4949 H   0  0  0  0  0  0
  -27.2852  -24.1208   14.9331 H   0  0  0  0  0  0
  -31.6955  -18.3804   21.7476 H   0  0  0  0  0  0
  -32.3977  -17.0444   20.8542 H   0  0  0  0  0  0
  -31.9598  -16.8418   22.5514 H   0  0  0  0  0  0
  -28.3569  -25.3041   23.1009 H   0  0  0  0  0  0
  -27.0518  -26.2551   22.4077 H   0  0  0  0  0  0
  -28.6468  -26.9824   22.6635 H   0  0  0  0  0  0
  -30.9669  -23.0816   17.6103 H   0  0  0  0  0  0
  -29.8888  -23.5891   18.8309 H   0  0  0  0  0  0
  -27.3302  -21.3338   20.8523 H   0  0  0  0  0  0
  -27.3272  -22.2492   19.4016 H   0  0  0  0  0  0
  -30.2351  -16.8462   19.0282 H   0  0  0  0  0  0
  -28.6805  -17.1687   19.7173 H   0  0  0  0  0  0
  -27.9532  -22.7044   17.3646 H   0  0  0  0  0  0
  -29.1056  -22.4201   16.1046 H   0  0  0  0  0  0
  -29.5628  -23.2051   20.9786 H   0  0  0  0  0  0
  -28.2479  -22.9973   22.0837 H   0  0  0  0  0  0
  -26.7901  -24.5182   20.7800 H   0  0  0  0  0  0
  -27.9084  -24.4847   19.4395 H   0  0  0  0  0  0
  -28.7245  -25.1536   17.4168 H   0  0  0  0  0  0
  -29.5665  -17.2680   21.9518 H   0  0  0  0  0  0
  -29.1973  -15.0719   21.7202 H   0  0  0  0  0  0
  1 25  1  0  0  0
  1 30  2  0  0  0
  1 90  1  0  0  0
  2  3  1  0  0  0
  2 25  1  0  0  0
  2 92  1  0  0  0
  2 93  1  0  0  0
  3  4  1  0  0  0
  3 94  1  0  0  0
  3 95  1  0  0  0
  4  5  1  0  0  0
  4 96  1  0  0  0
  4 97  1  0  0  0
  5  6  1  0  0  0
  5 26  1  0  0  0
  5 98  1  0  0  0
  6 25  1  0  0  0
  6 99  1  0  0  0
  6100  1  0  0  0
  7  8  2  0  0  0
  7 26  1  0  0  0
  7 29  1  0  0  0
  8  9  1  0  0  0
  8 22  1  0  0  0
  9 10  1  0  0  0
  9 27  2  0  0  0
 10 11  2  0  0  0
 10 15  1  0  0  0
 11 12  1  0  0  0
 11101  1  0  0  0
 12 13  2  0  0  0
 12102  1  0  0  0
 13 14  1  0  0  0
 13 31  1  0  0  0
 14 15  2  0  0  0
 14103  1  0  0  0
 15104  1  0  0  0
 16 17  2  0  0  0
 16 21  1  0  0  0
 16 31  1  0  0  0
 17 18  1  0  0  0
 17105  1  0  0  0
 18 19  2  0  0  0
 18106  1  0  0  0
 19 20  1  0  0  0
 19 24  1  0  0  0
 20 21  2  0  0  0
 20107  1  0  0  0
 21 23  1  0  0  0
 22 28  1  0  0  0
 22 32  2  0  0  0
 26 27  1  0  0  0
 28108  1  0  0  0
 28109  1  0  0  0
 29110  1  0  0  0
 29111  1  0  0  0
 33 34  1  0  0  0
 33 66  1  0  0  0
 33 70  2  0  0  0
 34 36  1  0  0  0
 34 59  1  0  0  0
 34112  1  0  0  0
 35 44  2  0  0  0
 35 45  1  0  0  0
 35 68  1  0  0  0
 36 56  1  0  0  0
 36113  1  0  0  0
 37 39  1  0  0  0
 37 47  1  0  0  0
 37 66  1  0  0  0
 37114  1  0  0  0
 38 43  2  0  0  0
 38 46  1  0  0  0
 38 47  1  0  0  0
 39 64  1  0  0  0
 39 67  2  0  0  0
 40 52  1  0  0  0
 40 53  2  0  0  0
 40 58  1  0  0  0
 41115  1  0  0  0
 41116  1  0  0  0
 41117  1  0  0  0
 41 48  1  0  0  0
 42 43  1  0  0  0
 42 66  1  0  0  0
 42118  1  0  0  0
 42119  1  0  0  0
 43 44  1  0  0  0
 44120  1  0  0  0
 45 46  2  0  0  0
 45121  1  0  0  0
 46122  1  0  0  0
 47123  1  0  0  0
 47124  1  0  0  0
 48 56  1  0  0  0
 48 65  1  0  0  0
 48125  1  0  0  0
 49 50  1  0  0  0
 49 53  1  0  0  0
 49 64  1  0  0  0
 49126  1  0  0  0
 50 51  1  0  0  0
 50127  1  0  0  0
 50128  1  0  0  0
 51 52  1  0  0  0
 51129  1  0  0  0
 51130  1  0  0  0
 52131  1  0  0  0
 52132  1  0  0  0
 53 54  1  0  0  0
 54 55  2  0  0  0
 54133  1  0  0  0
 55 57  1  0  0  0
 55134  1  0  0  0
 56 69  2  0  0  0
 57 58  2  0  0  0
 57135  1  0  0  0
 58136  1  0  0  0
 59 60  1  0  0  0
 59 61  1  0  0  0
 59 62  1  0  0  0
 60137  1  0  0  0
 60138  1  0  0  0
 60139  1  0  0  0
 61140  1  0  0  0
 61141  1  0  0  0
 61142  1  0  0  0
 62143  1  0  0  0
 62144  1  0  0  0
 62145  1  0  0  0
 63 65  1  0  0  0
 63146  1  0  0  0
 63147  1  0  0  0
 63148  1  0  0  0
 64149  1  0  0  0
 65150  1  0  0  0
 68 91  1  0  0  0
 71 72  2  0  0  0
 71 73  1  0  0  0
 71 80  1  0  0  0
 72 75  1  0  0  0
 72 88  1  0  0  0
 73 81  1  0  0  0
 73 89  2  0  0  0
 74 82  1  0  0  0
 74 88  2  0  0  0
 74 89  1  0  0  0
 75151  1  0  0  0
 75152  1  0  0  0
 75153  1  0  0  0
 76154  1  0  0  0
 76155  1  0  0  0
 76156  1  0  0  0
 76 86  1  0  0  0
 77 86  1  0  0  0
 77157  1  0  0  0
 77158  1  0  0  0
 77159  1  0  0  0
 78160  1  0  0  0
 78161  1  0  0  0
 78162  1  0  0  0
 78 87  1  0  0  0
 79 91  1  0  0  0
 79163  1  0  0  0
 79164  1  0  0  0
 79165  1  0  0  0
 80 83  1  0  0  0
 80166  1  0  0  0
 80167  1  0  0  0
 81 84  1  0  0  0
 81168  1  0  0  0
 81169  1  0  0  0
 82 87  1  0  0  0
 82170  1  0  0  0
 82171  1  0  0  0
 83 86  1  0  0  0
 83172  1  0  0  0
 83173  1  0  0  0
 84 85  1  0  0  0
 84174  1  0  0  0
 84175  1  0  0  0
 85 91  1  0  0  0
 85176  1  0  0  0
 85177  1  0  0  0
 86178  1  0  0  0
 87 90  1  0  0  0
 87179  1  0  0  0
 90180  1  0  0  0
M  ISO  4   1 100  68 101  90 100  91 101
M  END
> <chiral flag>
0

> <version>
0

> <s_m_source_file>
/data/baiqing/PycharmProjects/Reinvent-master-3.2/result/LINK_invent/BTK/process_docking_weight1_custom_sum_contain_oxygen_bond_distance_aromatic_linkinvent_7_9_3/rearranged_h_0087.sdf

> <i_m_source_file_index>
24

> <r_mmod_Potential_Energy-OPLS-2005>
-380.589294433594

> <r_mmod_Stretch_Energy-OPLS-2005>
39.1011657714844

> <r_mmod_Bend_Energy-OPLS-2005>
123.296432495117

> <r_mmod_Torsional_Energy-OPLS-2005>
206.617599487305

> <r_mmod_Improper_Torsional_Energy-OPLS-2005>
4.69412755966187

> <r_mmod_Van_der_Waal_Energy-OPLS-2005>
157.346206665039

> <r_mmod_Electrostatic_Energy-OPLS-2005>
-688.526550292969

> <r_mmod_Solvation_Energy-OPLS-2005>
-231.078384399414

> <b_mmod_Minimization_Converged-OPLS-2005>
0

> <r_mmod_RMS_Derivative-OPLS-2005>
1.43041110038757

$$$$
25
                    3D
 Structure written by MMmdl.
173181  0  0  1  0            999 V2000
  -30.5170  -14.9821   20.4334 C   0  0  0  0  0  0
  -30.4486  -12.6171   19.4786 C   0  0  0  0  0  0
  -29.5139  -12.5263   18.2482 C   0  0  0  0  0  0
  -28.0523  -12.2989   18.6791 C   0  0  0  0  0  0
  -27.6254  -13.2412   19.8316 C   0  0  2  0  0  0
  -28.6769  -13.2826   20.9590 C   0  0  0  0  0  0
  -25.2440  -13.8201   20.5729 C   0  0  0  0  0  0
  -24.1763  -13.0437   20.9266 C   0  0  0  0  0  0
  -24.6374  -11.6914   20.8799 C   0  0  0  0  0  0
  -23.9062  -10.4283   21.0416 C   0  0  0  0  0  0
  -24.3607   -9.4206   21.9204 C   0  0  0  0  0  0
  -23.6288   -8.2234   22.0755 C   0  0  0  0  0  0
  -22.4272   -8.0266   21.3535 C   0  0  0  0  0  0
  -21.9916   -9.0253   20.4644 C   0  0  0  0  0  0
  -22.7234  -10.2141   20.3062 C   0  0  0  0  0  0
  -21.6840   -6.0733   22.5267 C   0  0  0  0  0  0
  -21.4012   -6.5639   23.8207 C   0  0  0  0  0  0
  -21.3665   -5.6799   24.9176 C   0  0  0  0  0  0
  -21.6039   -4.3062   24.7229 C   0  0  0  0  0  0
  -21.8816   -3.8146   23.4355 C   0  0  0  0  0  0
  -21.9194   -4.6959   22.3409 C   0  0  0  0  0  0
  -22.7786  -13.5203   21.1928 C   0  0  0  0  0  0
  -22.1654   -4.2143   21.0986 F   0  0  0  0  0  0
  -21.5640   -3.4552   25.7754 F   0  0  0  0  0  0
  -29.9417  -13.7146   20.3478 N   0  0  0  0  0  0
  -26.2855  -12.9423   20.3245 N   0  0  0  0  0  0
  -25.9306  -11.6563   20.5760 N   0  0  0  0  0  0
  -22.0445  -12.8175   22.0477 N   0  0  0  0  0  0
  -25.4134  -15.1924   20.4117 N   0  0  0  0  0  0
  -31.7416  -15.0537   20.2782 O   0  0  0  0  0  0
  -21.6623   -6.8864   21.4228 O   0  0  0  0  0  0
  -22.3467  -14.5523   20.6774 O   0  0  0  0  0  0
  -24.6446  -31.8424   23.1845 C   0  0  0  0  0  0
  -25.9214  -32.4686   23.8238 C   0  0  1  0  0  0
  -27.2193  -27.1016   20.1750 C   0  0  0  0  0  0
  -25.5943  -33.8483   24.2161 N   0  0  0  0  0  0
  -23.4511  -30.4545   21.5335 C   0  0  2  0  0  0
  -24.9066  -28.8745   20.1169 C   0  0  0  0  0  0
  -22.7572  -29.4496   22.4881 C   0  0  0  0  0  0
  -18.0298  -28.1373   22.8447 C   0  0  0  0  0  0
  -24.1507  -36.7246   23.2627 C   0  0  0  0  0  0
  -26.0056  -30.7050   21.3902 C   0  0  0  0  0  0
  -26.0823  -29.3118   20.7363 C   0  0  0  0  0  0
  -27.2410  -28.4421   20.7465 C   0  0  0  0  0  0
  -26.0157  -26.7745   19.5116 C   0  0  0  0  0  0
  -24.8860  -27.6201   19.4884 C   0  0  0  0  0  0
  -23.6834  -29.7788   20.1555 C   0  0  0  0  0  0
  -25.4139  -36.3022   24.0296 C   0  0  1  0  0  0
  -20.5914  -28.3707   23.1224 C   0  0  2  0  0  0
  -20.6810  -26.9429   22.5399 C   0  0  0  0  0  0
  -19.5793  -26.6376   21.5188 C   0  0  0  0  0  0
  -18.1954  -26.7906   22.1589 C   0  0  0  0  0  0
  -19.1551  -28.8852   23.2810 C   0  0  0  0  0  0
  -18.9478  -30.1446   23.8850 C   0  0  0  0  0  0
  -17.6487  -30.6579   24.0533 C   0  0  0  0  0  0
  -25.9078  -34.9397   23.5037 C   0  0  0  0  0  0
  -16.5378  -29.9075   23.6337 C   0  0  0  0  0  0
  -16.7291  -28.6498   23.0346 C   0  0  0  0  0  0
  -26.4542  -31.6546   25.0682 C   0  0  0  0  0  0
  -25.3704  -31.3740   26.1359 C   0  0  0  0  0  0
  -27.0402  -30.2926   24.6270 C   0  0  0  0  0  0
  -27.6063  -32.4326   25.7475 C   0  0  0  0  0  0
  -27.5595  -37.1772   24.8460 C   0  0  0  0  0  0
  -21.4277  -29.3021   22.3604 N   0  0  0  0  0  0
  -26.4317  -37.3745   23.9399 N   0  0  0  0  0  0
  -24.7197  -31.0221   22.0902 N   0  0  0  0  0  0
  -23.4186  -28.8071   23.3077 O   0  0  0  0  0  0
  -28.2758  -26.1097   20.2460 O   0  0  0  0  0  0
  -26.5670  -34.8908   22.4631 O   0  0  0  0  0  0
  -23.5562  -32.1333   23.7024 O   0  0  0  0  0  0
  -31.3039  -21.1486   19.9192 C   0  0  0  0  0  0
  -30.1018  -20.4637   20.2245 C   0  0  0  0  0  0
  -32.4880  -20.5351   19.4648 C   0  0  0  0  0  0
  -30.2539  -18.9466   20.1766 C   0  0  0  0  0  0
  -32.3679  -19.1661   19.1408 C   0  0  0  0  0  0
  -33.3602  -18.3945   18.2889 C   0  0  0  0  0  0
  -29.5332  -18.7917   23.2966 C   0  0  0  0  0  0
  -33.8974  -22.4145   20.4852 C   0  0  0  0  0  0
  -33.6745  -22.2050   17.9962 C   0  0  0  0  0  0
  -35.0920  -20.6124   19.3288 C   0  0  0  0  0  0
  -28.9063  -21.5771   20.5323 C   0  0  0  0  0  0
  -30.0359  -17.6266   22.4313 C   0  0  0  0  0  0
  -29.1240  -23.2807   20.3402 C   0  0  0  0  0  0
  -28.0004  -24.5594   20.2996 C   0  0  0  0  0  0
  -29.5992  -17.6527   20.9434 C   0  0  2  0  0  0
  -33.7657  -21.4092   19.3089 C   0  0  0  0  0  0
  -31.3183  -18.4258   19.5309 N   0  0  0  0  0  0
  -29.6659  -16.1228   20.4817 N   0  0  0  0  0  0
  -31.4714  -12.8059   19.1499 H   0  0  0  0  0  0
  -30.4780  -11.6711   20.0233 H   0  0  0  0  0  0
  -29.8366  -11.7264   17.5806 H   0  0  0  0  0  0
  -29.5785  -13.4493   17.6698 H   0  0  0  0  0  0
  -27.9619  -11.2621   19.0075 H   0  0  0  0  0  0
  -27.3800  -12.4128   17.8275 H   0  0  0  0  0  0
  -27.5817  -14.2362   19.3875 H   0  0  0  0  0  0
  -28.7817  -12.3060   21.4339 H   0  0  0  0  0  0
  -28.3774  -13.9787   21.7451 H   0  0  0  0  0  0
  -25.2741   -9.5699   22.4794 H   0  0  0  0  0  0
  -24.0012   -7.4614   22.7463 H   0  0  0  0  0  0
  -21.0854   -8.8743   19.8941 H   0  0  0  0  0  0
  -22.3657  -10.9685   19.6178 H   0  0  0  0  0  0
  -21.1977   -7.6140   23.9707 H   0  0  0  0  0  0
  -21.1500   -6.0534   25.9080 H   0  0  0  0  0  0
  -22.0591   -2.7605   23.2854 H   0  0  0  0  0  0
  -22.4064  -11.9818   22.4815 H   0  0  0  0  0  0
  -21.1057  -13.1188   22.2712 H   0  0  0  0  0  0
  -24.6475  -15.8484   20.5132 H   0  0  0  0  0  0
  -26.2444  -15.6209   20.0307 H   0  0  0  0  0  0
  -26.7263  -32.5320   23.0946 H   0  0  0  0  0  0
  -25.0058  -33.9580   25.0290 H   0  0  0  0  0  0
  -22.7558  -31.2799   21.3759 H   0  0  0  0  0  0
  -23.3785  -35.9563   23.3289 H   0  0  0  0  0  0
  -24.3567  -36.8910   22.2047 H   0  0  0  0  0  0
  -23.7274  -37.6426   23.6701 H   0  0  0  0  0  0
  -26.1559  -31.4582   20.6163 H   0  0  0  0  0  0
  -26.8726  -30.7643   22.0351 H   0  0  0  0  0  0
  -28.1368  -28.7666   21.2573 H   0  0  0  0  0  0
  -25.9149  -25.8210   19.0144 H   0  0  0  0  0  0
  -23.9844  -27.2840   18.9967 H   0  0  0  0  0  0
  -23.8271  -30.5498   19.3984 H   0  0  0  0  0  0
  -22.7987  -29.2195   19.8497 H   0  0  0  0  0  0
  -25.1343  -36.1842   25.0789 H   0  0  0  0  0  0
  -20.9933  -28.3340   24.1369 H   0  0  0  0  0  0
  -20.5719  -26.2332   23.3634 H   0  0  0  0  0  0
  -21.6677  -26.7481   22.1188 H   0  0  0  0  0  0
  -19.6973  -25.6272   21.1246 H   0  0  0  0  0  0
  -19.6718  -27.3156   20.6690 H   0  0  0  0  0  0
  -17.4234  -26.6621   21.3992 H   0  0  0  0  0  0
  -18.0376  -26.0039   22.8982 H   0  0  0  0  0  0
  -19.7972  -30.7226   24.2232 H   0  0  0  0  0  0
  -17.5072  -31.6266   24.5126 H   0  0  0  0  0  0
  -15.5366  -30.2954   23.7711 H   0  0  0  0  0  0
  -15.8697  -28.0806   22.7085 H   0  0  0  0  0  0
  -24.5903  -30.7077   25.7683 H   0  0  0  0  0  0
  -24.8851  -32.2909   26.4680 H   0  0  0  0  0  0
  -25.7936  -30.8978   27.0205 H   0  0  0  0  0  0
  -26.3007  -29.6619   24.1302 H   0  0  0  0  0  0
  -27.4035  -29.7258   25.4857 H   0  0  0  0  0  0
  -27.8932  -30.4159   23.9600 H   0  0  0  0  0  0
  -27.2667  -33.3670   26.1946 H   0  0  0  0  0  0
  -28.3918  -32.6780   25.0329 H   0  0  0  0  0  0
  -28.0673  -31.8500   26.5463 H   0  0  0  0  0  0
  -28.2576  -38.0106   24.7524 H   0  0  0  0  0  0
  -28.1130  -36.2611   24.6287 H   0  0  0  0  0  0
  -27.2275  -37.1418   25.8854 H   0  0  0  0  0  0
  -20.9526  -29.8719   21.6758 H   0  0  0  0  0  0
  -26.0167  -38.2804   24.1429 H   0  0  0  0  0  0
  -31.3390  -22.2157   20.0345 H   0  0  0  0  0  0
  -33.6568  -18.9869   17.4227 H   0  0  0  0  0  0
  -32.9114  -17.4829   17.8948 H   0  0  0  0  0  0
  -34.2447  -18.0951   18.8503 H   0  0  0  0  0  0
  -29.9117  -18.7080   24.3161 H   0  0  0  0  0  0
  -28.4443  -18.7924   23.3552 H   0  0  0  0  0  0
  -29.8559  -19.7586   22.9145 H   0  0  0  0  0  0
  -33.1336  -23.1916   20.4910 H   0  0  0  0  0  0
  -34.8516  -22.9439   20.4504 H   0  0  0  0  0  0
  -33.8521  -21.9023   21.4478 H   0  0  0  0  0  0
  -32.7947  -22.8487   17.9738 H   0  0  0  0  0  0
  -33.6189  -21.5456   17.1291 H   0  0  0  0  0  0
  -34.5445  -22.8489   17.8626 H   0  0  0  0  0  0
  -35.1109  -19.8759   20.1351 H   0  0  0  0  0  0
  -35.9566  -21.2611   19.4817 H   0  0  0  0  0  0
  -35.2972  -20.1093   18.3864 H   0  0  0  0  0  0
  -28.5727  -21.3979   21.5545 H   0  0  0  0  0  0
  -28.0629  -21.2877   19.9036 H   0  0  0  0  0  0
  -29.6709  -16.7099   22.8985 H   0  0  0  0  0  0
  -31.1243  -17.5733   22.4805 H   0  0  0  0  0  0
  -29.6530  -23.4089   19.3975 H   0  0  0  0  0  0
  -29.8479  -23.5667   21.1029 H   0  0  0  0  0  0
  -27.3488  -24.4244   21.1627 H   0  0  0  0  0  0
  -27.3718  -24.3298   19.4411 H   0  0  0  0  0  0
  -28.5309  -17.8714   20.9416 H   0  0  0  0  0  0
  -28.7246  -15.8007   20.3381 H   0  0  0  0  0  0
  1 25  1  0  0  0
  1 30  2  0  0  0
  1 88  1  0  0  0
  2  3  1  0  0  0
  2 25  1  0  0  0
  2 89  1  0  0  0
  2 90  1  0  0  0
  3  4  1  0  0  0
  3 91  1  0  0  0
  3 92  1  0  0  0
  4  5  1  0  0  0
  4 93  1  0  0  0
  4 94  1  0  0  0
  5  6  1  0  0  0
  5 26  1  0  0  0
  5 95  1  0  0  0
  6 25  1  0  0  0
  6 96  1  0  0  0
  6 97  1  0  0  0
  7  8  2  0  0  0
  7 26  1  0  0  0
  7 29  1  0  0  0
  8  9  1  0  0  0
  8 22  1  0  0  0
  9 10  1  0  0  0
  9 27  2  0  0  0
 10 11  2  0  0  0
 10 15  1  0  0  0
 11 12  1  0  0  0
 11 98  1  0  0  0
 12 13  2  0  0  0
 12 99  1  0  0  0
 13 14  1  0  0  0
 13 31  1  0  0  0
 14 15  2  0  0  0
 14100  1  0  0  0
 15101  1  0  0  0
 16 17  2  0  0  0
 16 21  1  0  0  0
 16 31  1  0  0  0
 17 18  1  0  0  0
 17102  1  0  0  0
 18 19  2  0  0  0
 18103  1  0  0  0
 19 20  1  0  0  0
 19 24  1  0  0  0
 20 21  2  0  0  0
 20104  1  0  0  0
 21 23  1  0  0  0
 22 28  1  0  0  0
 22 32  2  0  0  0
 26 27  1  0  0  0
 28105  1  0  0  0
 28106  1  0  0  0
 29107  1  0  0  0
 29108  1  0  0  0
 33 34  1  0  0  0
 33 66  1  0  0  0
 33 70  2  0  0  0
 34 36  1  0  0  0
 34 59  1  0  0  0
 34109  1  0  0  0
 35 44  2  0  0  0
 35 45  1  0  0  0
 35 68  1  0  0  0
 36 56  1  0  0  0
 36110  1  0  0  0
 37 39  1  0  0  0
 37 47  1  0  0  0
 37 66  1  0  0  0
 37111  1  0  0  0
 38 43  2  0  0  0
 38 46  1  0  0  0
 38 47  1  0  0  0
 39 64  1  0  0  0
 39 67  2  0  0  0
 40 52  1  0  0  0
 40 53  2  0  0  0
 40 58  1  0  0  0
 41112  1  0  0  0
 41113  1  0  0  0
 41114  1  0  0  0
 41 48  1  0  0  0
 42 43  1  0  0  0
 42 66  1  0  0  0
 42115  1  0  0  0
 42116  1  0  0  0
 43 44  1  0  0  0
 44117  1  0  0  0
 45 46  2  0  0  0
 45118  1  0  0  0
 46119  1  0  0  0
 47120  1  0  0  0
 47121  1  0  0  0
 48 56  1  0  0  0
 48 65  1  0  0  0
 48122  1  0  0  0
 49 50  1  0  0  0
 49 53  1  0  0  0
 49 64  1  0  0  0
 49123  1  0  0  0
 50 51  1  0  0  0
 50124  1  0  0  0
 50125  1  0  0  0
 51 52  1  0  0  0
 51126  1  0  0  0
 51127  1  0  0  0
 52128  1  0  0  0
 52129  1  0  0  0
 53 54  1  0  0  0
 54 55  2  0  0  0
 54130  1  0  0  0
 55 57  1  0  0  0
 55131  1  0  0  0
 56 69  2  0  0  0
 57 58  2  0  0  0
 57132  1  0  0  0
 58133  1  0  0  0
 59 60  1  0  0  0
 59 61  1  0  0  0
 59 62  1  0  0  0
 60134  1  0  0  0
 60135  1  0  0  0
 60136  1  0  0  0
 61137  1  0  0  0
 61138  1  0  0  0
 61139  1  0  0  0
 62140  1  0  0  0
 62141  1  0  0  0
 62142  1  0  0  0
 63 65  1  0  0  0
 63143  1  0  0  0
 63144  1  0  0  0
 63145  1  0  0  0
 64146  1  0  0  0
 65147  1  0  0  0
 68 84  1  0  0  0
 71 72  2  0  0  0
 71 73  1  0  0  0
 71148  1  0  0  0
 72 74  1  0  0  0
 72 81  1  0  0  0
 73 75  2  0  0  0
 73 86  1  0  0  0
 74 85  1  0  0  0
 74 87  2  0  0  0
 75 76  1  0  0  0
 75 87  1  0  0  0
 76149  1  0  0  0
 76150  1  0  0  0
 76151  1  0  0  0
 77 82  1  0  0  0
 77152  1  0  0  0
 77153  1  0  0  0
 77154  1  0  0  0
 78155  1  0  0  0
 78156  1  0  0  0
 78157  1  0  0  0
 78 86  1  0  0  0
 79 86  1  0  0  0
 79158  1  0  0  0
 79159  1  0  0  0
 79160  1  0  0  0
 80 86  1  0  0  0
 80161  1  0  0  0
 80162  1  0  0  0
 80163  1  0  0  0
 81 83  1  0  0  0
 81164  1  0  0  0
 81165  1  0  0  0
 82166  1  0  0  0
 82167  1  0  0  0
 82 85  1  0  0  0
 83 84  1  0  0  0
 83168  1  0  0  0
 83169  1  0  0  0
 84170  1  0  0  0
 84171  1  0  0  0
 85 88  1  0  0  0
 85172  1  0  0  0
 88173  1  0  0  0
M  ISO  4   1 100  68 101  84 101  88 100
M  END
> <chiral flag>
0

> <version>
0

> <s_m_source_file>
/data/baiqing/PycharmProjects/Reinvent-master-3.2/result/LINK_invent/BTK/process_docking_weight1_custom_sum_contain_oxygen_bond_distance_aromatic_linkinvent_7_9_3/rearranged_h_0087.sdf

> <i_m_source_file_index>
25

> <r_mmod_Potential_Energy-OPLS-2005>
511.202545166016

> <r_mmod_Stretch_Energy-OPLS-2005>
318.948455810547

> <r_mmod_Bend_Energy-OPLS-2005>
373.051391601562

> <r_mmod_Torsional_Energy-OPLS-2005>
257.96875

> <r_mmod_Improper_Torsional_Energy-OPLS-2005>
6.23956298828125

> <r_mmod_Van_der_Waal_Energy-OPLS-2005>
144.200622558594

> <r_mmod_Electrostatic_Energy-OPLS-2005>
-585.170043945312

> <r_mmod_Solvation_Energy-OPLS-2005>
-228.089874267578

> <b_mmod_Minimization_Converged-OPLS-2005>
0

> <r_mmod_RMS_Derivative-OPLS-2005>
3.99938035011292

$$$$
26
                    3D
 Structure written by MMmdl.
176184  0  0  1  0            999 V2000
  -30.6184  -14.5424   20.5805 C   0  0  0  0  0  0
  -30.4479  -12.3543   19.4259 C   0  0  0  0  0  0
  -29.5070  -12.5156   18.2108 C   0  0  0  0  0  0
  -28.0309  -12.3370   18.6267 C   0  0  0  0  0  0
  -27.6574  -13.1899   19.8647 C   0  0  2  0  0  0
  -28.6949  -12.9768   20.9850 C   0  0  0  0  0  0
  -25.2633  -13.8104   20.5695 C   0  0  0  0  0  0
  -24.1837  -13.0422   20.9143 C   0  0  0  0  0  0
  -24.6330  -11.6860   20.8668 C   0  0  0  0  0  0
  -23.9015  -10.4252   21.0357 C   0  0  0  0  0  0
  -24.3591   -9.4186   21.9159 C   0  0  0  0  0  0
  -23.6273   -8.2221   22.0757 C   0  0  0  0  0  0
  -22.4271   -8.0255   21.3520 C   0  0  0  0  0  0
  -21.9871   -9.0217   20.4643 C   0  0  0  0  0  0
  -22.7184  -10.2095   20.3027 C   0  0  0  0  0  0
  -21.6858   -6.0730   22.5256 C   0  0  0  0  0  0
  -21.4008   -6.5629   23.8195 C   0  0  0  0  0  0
  -21.3659   -5.6780   24.9159 C   0  0  0  0  0  0
  -21.6058   -4.3036   24.7207 C   0  0  0  0  0  0
  -21.8836   -3.8133   23.4319 C   0  0  0  0  0  0
  -21.9188   -4.6955   22.3383 C   0  0  0  0  0  0
  -22.7902  -13.5278   21.1852 C   0  0  0  0  0  0
  -22.1681   -4.2139   21.0959 F   0  0  0  0  0  0
  -21.5623   -3.4530   25.7714 F   0  0  0  0  0  0
  -30.0188  -13.3309   20.4403 N   0  0  0  0  0  0
  -26.2982  -12.9206   20.3239 N   0  0  0  0  0  0
  -25.9204  -11.6368   20.5595 N   0  0  0  0  0  0
  -22.0528  -12.8269   22.0402 N   0  0  0  0  0  0
  -25.4435  -15.1830   20.4261 N   0  0  0  0  0  0
  -31.7622  -14.7772   20.1746 O   0  0  0  0  0  0
  -21.6648   -6.8846   21.4206 O   0  0  0  0  0  0
  -22.3583  -14.5567   20.6669 O   0  0  0  0  0  0
  -24.6171  -31.8599   23.2025 C   0  0  0  0  0  0
  -25.9078  -32.4776   23.8323 C   0  0  1  0  0  0
  -27.2611  -27.4135   20.1035 C   0  0  0  0  0  0
  -25.5921  -33.8578   24.2262 N   0  0  0  0  0  0
  -23.4075  -30.4733   21.5397 C   0  0  2  0  0  0
  -24.8582  -28.9232   20.1149 C   0  0  0  0  0  0
  -22.7443  -29.4603   22.5001 C   0  0  0  0  0  0
  -18.0269  -28.1416   22.8521 C   0  0  0  0  0  0
  -24.1489  -36.7337   23.2625 C   0  0  0  0  0  0
  -25.9307  -30.8208   21.3488 C   0  0  0  0  0  0
  -26.0130  -29.4477   20.7070 C   0  0  0  0  0  0
  -27.2092  -28.6985   20.6975 C   0  0  0  0  0  0
  -26.0865  -26.9010   19.5048 C   0  0  0  0  0  0
  -24.8903  -27.6503   19.5091 C   0  0  0  0  0  0
  -23.6187  -29.7890   20.1596 C   0  0  0  0  0  0
  -25.4109  -36.3084   24.0310 C   0  0  1  0  0  0
  -20.5850  -28.3663   23.1356 C   0  0  2  0  0  0
  -20.6708  -26.9391   22.5512 C   0  0  0  0  0  0
  -19.5755  -26.6504   21.5178 C   0  0  0  0  0  0
  -18.1929  -26.7979   22.1592 C   0  0  0  0  0  0
  -19.1534  -28.8848   23.2988 C   0  0  0  0  0  0
  -18.9506  -30.1439   23.9049 C   0  0  0  0  0  0
  -17.6522  -30.6610   24.0688 C   0  0  0  0  0  0
  -25.9039  -34.9446   23.5089 C   0  0  0  0  0  0
  -16.5421  -29.9141   23.6404 C   0  0  0  0  0  0
  -16.7287  -28.6568   23.0361 C   0  0  0  0  0  0
  -26.4482  -31.6559   25.0658 C   0  0  0  0  0  0
  -25.3755  -31.3670   26.1415 C   0  0  0  0  0  0
  -27.0301  -30.2998   24.6029 C   0  0  0  0  0  0
  -27.6045  -32.4279   25.7451 C   0  0  0  0  0  0
  -27.5581  -37.1807   24.8461 C   0  0  0  0  0  0
  -21.4158  -29.2999   22.3738 N   0  0  0  0  0  0
  -26.4305  -37.3771   23.9383 N   0  0  0  0  0  0
  -24.6709  -31.0699   22.0902 N   0  0  0  0  0  0
  -23.4169  -28.8215   23.3121 O   0  0  0  0  0  0
  -28.4722  -26.7394   20.1436 O   0  0  0  0  0  0
  -26.5619  -34.8932   22.4643 O   0  0  0  0  0  0
  -23.5364  -32.1416   23.7380 O   0  0  0  0  0  0
  -29.3609  -20.5674   20.5919 C   0  0  0  0  0  0
  -28.7115  -21.7042   21.1474 C   0  0  0  0  0  0
  -27.5774  -21.4753   21.9753 C   0  0  0  0  0  0
  -28.8341  -19.2721   20.8029 C   0  0  0  0  0  0
  -26.9833  -20.1807   21.9282 C   0  0  0  0  0  0
  -26.7399  -22.1995   24.3483 C   0  0  0  0  0  0
  -23.5948  -18.1146   22.3506 C   0  0  0  0  0  0
  -28.5519  -17.3217   19.1876 C   0  0  0  0  0  0
  -24.6065  -20.8189   21.2795 C   0  0  0  0  0  0
  -29.2497  -23.1184   20.8099 C   0  0  0  0  0  0
  -27.0515  -22.5955   22.8938 C   0  0  0  0  0  0
  -25.0639  -18.4498   22.0433 C   0  0  0  0  0  0
  -28.1926  -24.2552   20.5529 C   0  0  0  0  0  0
  -30.0056  -16.9530   21.3225 C   0  0  0  0  0  0
  -28.6553  -25.4068   19.6206 C   0  0  0  0  0  0
  -29.4755  -17.9704   20.2386 C   0  0  1  0  0  0
  -25.4796  -19.9393   22.2095 C   0  0  1  0  0  0
  -27.6398  -19.1205   21.4033 N   0  0  0  0  0  0
  -29.7995  -15.5068   21.0576 N   0  0  0  0  0  0
  -31.4858  -12.5073   19.1239 H   0  0  0  0  0  0
  -30.3936  -11.3442   19.8296 H   0  0  0  0  0  0
  -29.7600  -11.7908   17.4375 H   0  0  0  0  0  0
  -29.6484  -13.5017   17.7631 H   0  0  0  0  0  0
  -27.8940  -11.2830   18.8636 H   0  0  0  0  0  0
  -27.3639  -12.5567   17.7925 H   0  0  0  0  0  0
  -27.6966  -14.2315   19.5453 H   0  0  0  0  0  0
  -28.6947  -11.9378   21.3185 H   0  0  0  0  0  0
  -28.4357  -13.5554   21.8697 H   0  0  0  0  0  0
  -25.2724   -9.5696   22.4748 H   0  0  0  0  0  0
  -24.0006   -7.4626   22.7474 H   0  0  0  0  0  0
  -21.0820   -8.8709   19.8933 H   0  0  0  0  0  0
  -22.3636  -10.9639   19.6147 H   0  0  0  0  0  0
  -21.2000   -7.6141   23.9689 H   0  0  0  0  0  0
  -21.1495   -6.0517   25.9068 H   0  0  0  0  0  0
  -22.0617   -2.7590   23.2809 H   0  0  0  0  0  0
  -22.4139  -11.9907   22.4746 H   0  0  0  0  0  0
  -21.1115  -13.1248   22.2513 H   0  0  0  0  0  0
  -24.6883  -15.8428   20.5749 H   0  0  0  0  0  0
  -26.3084  -15.6214   20.1401 H   0  0  0  0  0  0
  -26.7163  -32.5491   23.1089 H   0  0  0  0  0  0
  -25.0041  -33.9697   25.0394 H   0  0  0  0  0  0
  -22.6906  -31.2836   21.3900 H   0  0  0  0  0  0
  -23.3709  -35.9713   23.3292 H   0  0  0  0  0  0
  -24.3589  -36.8964   22.2045 H   0  0  0  0  0  0
  -23.7314  -37.6564   23.6661 H   0  0  0  0  0  0
  -26.0278  -31.5698   20.5652 H   0  0  0  0  0  0
  -26.8224  -30.8883   21.9589 H   0  0  0  0  0  0
  -28.1033  -29.1017   21.1508 H   0  0  0  0  0  0
  -26.0800  -25.9242   19.0360 H   0  0  0  0  0  0
  -24.0051  -27.2357   19.0476 H   0  0  0  0  0  0
  -23.7298  -30.5496   19.3862 H   0  0  0  0  0  0
  -22.7389  -29.2076   19.8825 H   0  0  0  0  0  0
  -25.1281  -36.1893   25.0809 H   0  0  0  0  0  0
  -20.9951  -28.3240   24.1490 H   0  0  0  0  0  0
  -20.5435  -26.2298   23.3719 H   0  0  0  0  0  0
  -21.6653  -26.7306   22.1528 H   0  0  0  0  0  0
  -19.6968  -25.6512   21.0951 H   0  0  0  0  0  0
  -19.6668  -27.3478   20.6843 H   0  0  0  0  0  0
  -17.4107  -26.6801   21.4068 H   0  0  0  0  0  0
  -18.0480  -26.0063   22.8948 H   0  0  0  0  0  0
  -19.7980  -30.7245   24.2449 H   0  0  0  0  0  0
  -17.5102  -31.6245   24.5394 H   0  0  0  0  0  0
  -15.5452  -30.3082   23.7783 H   0  0  0  0  0  0
  -15.8642  -28.0951   22.7048 H   0  0  0  0  0  0
  -24.5939  -30.6992   25.7781 H   0  0  0  0  0  0
  -24.8937  -32.2820   26.4865 H   0  0  0  0  0  0
  -25.8131  -30.8865   27.0172 H   0  0  0  0  0  0
  -26.2831  -29.6749   24.1136 H   0  0  0  0  0  0
  -27.4110  -29.7246   25.4476 H   0  0  0  0  0  0
  -27.8641  -30.4296   23.9134 H   0  0  0  0  0  0
  -27.2637  -33.3549   26.2070 H   0  0  0  0  0  0
  -28.3857  -32.6877   25.0299 H   0  0  0  0  0  0
  -28.0717  -31.8385   26.5342 H   0  0  0  0  0  0
  -28.2581  -38.0120   24.7475 H   0  0  0  0  0  0
  -28.1079  -36.2631   24.6291 H   0  0  0  0  0  0
  -27.2300  -37.1492   25.8873 H   0  0  0  0  0  0
  -20.9419  -29.8586   21.6805 H   0  0  0  0  0  0
  -26.0160  -38.2838   24.1366 H   0  0  0  0  0  0
  -30.2595  -20.6914   20.0026 H   0  0  0  0  0  0
  -26.7754  -23.0836   24.9845 H   0  0  0  0  0  0
  -27.4708  -21.4955   24.7460 H   0  0  0  0  0  0
  -25.7393  -21.7954   24.4744 H   0  0  0  0  0  0
  -22.9162  -18.4762   21.5770 H   0  0  0  0  0  0
  -23.2795  -18.5305   23.3061 H   0  0  0  0  0  0
  -23.4711  -17.0349   22.4026 H   0  0  0  0  0  0
  -27.6455  -16.9461   19.6540 H   0  0  0  0  0  0
  -29.0296  -16.4888   18.6716 H   0  0  0  0  0  0
  -28.2540  -18.0463   18.4275 H   0  0  0  0  0  0
  -24.7640  -20.5513   20.2362 H   0  0  0  0  0  0
  -24.8423  -21.8768   21.3656 H   0  0  0  0  0  0
  -23.5440  -20.7263   21.5017 H   0  0  0  0  0  0
  -29.8519  -23.0101   19.9090 H   0  0  0  0  0  0
  -29.9532  -23.4278   21.5833 H   0  0  0  0  0  0
  -26.2134  -23.1380   22.4507 H   0  0  0  0  0  0
  -27.8567  -23.3156   23.0207 H   0  0  0  0  0  0
  -25.2776  -18.1249   21.0231 H   0  0  0  0  0  0
  -25.6922  -17.8426   22.6977 H   0  0  0  0  0  0
  -27.9124  -24.7164   21.4958 H   0  0  0  0  0  0
  -27.2771  -23.8158   20.1469 H   0  0  0  0  0  0
  -29.4750  -17.1446   22.2559 H   0  0  0  0  0  0
  -31.0547  -17.1468   21.5500 H   0  0  0  0  0  0
  -28.2458  -25.3003   18.6163 H   0  0  0  0  0  0
  -29.7360  -25.3182   19.4917 H   0  0  0  0  0  0
  -30.3603  -18.2890   19.6902 H   0  0  0  0  0  0
  -25.2688  -20.2032   23.2420 H   0  0  0  0  0  0
  -28.8812  -15.1619   21.2927 H   0  0  0  0  0  0
  1 25  1  0  0  0
  1 30  2  0  0  0
  1 89  1  0  0  0
  2  3  1  0  0  0
  2 25  1  0  0  0
  2 90  1  0  0  0
  2 91  1  0  0  0
  3  4  1  0  0  0
  3 92  1  0  0  0
  3 93  1  0  0  0
  4  5  1  0  0  0
  4 94  1  0  0  0
  4 95  1  0  0  0
  5  6  1  0  0  0
  5 26  1  0  0  0
  5 96  1  0  0  0
  6 25  1  0  0  0
  6 97  1  0  0  0
  6 98  1  0  0  0
  7  8  2  0  0  0
  7 26  1  0  0  0
  7 29  1  0  0  0
  8  9  1  0  0  0
  8 22  1  0  0  0
  9 10  1  0  0  0
  9 27  2  0  0  0
 10 11  2  0  0  0
 10 15  1  0  0  0
 11 12  1  0  0  0
 11 99  1  0  0  0
 12 13  2  0  0  0
 12100  1  0  0  0
 13 14  1  0  0  0
 13 31  1  0  0  0
 14 15  2  0  0  0
 14101  1  0  0  0
 15102  1  0  0  0
 16 17  2  0  0  0
 16 21  1  0  0  0
 16 31  1  0  0  0
 17 18  1  0  0  0
 17103  1  0  0  0
 18 19  2  0  0  0
 18104  1  0  0  0
 19 20  1  0  0  0
 19 24  1  0  0  0
 20 21  2  0  0  0
 20105  1  0  0  0
 21 23  1  0  0  0
 22 28  1  0  0  0
 22 32  2  0  0  0
 26 27  1  0  0  0
 28106  1  0  0  0
 28107  1  0  0  0
 29108  1  0  0  0
 29109  1  0  0  0
 33 34  1  0  0  0
 33 66  1  0  0  0
 33 70  2  0  0  0
 34 36  1  0  0  0
 34 59  1  0  0  0
 34110  1  0  0  0
 35 44  2  0  0  0
 35 45  1  0  0  0
 35 68  1  0  0  0
 36 56  1  0  0  0
 36111  1  0  0  0
 37 39  1  0  0  0
 37 47  1  0  0  0
 37 66  1  0  0  0
 37112  1  0  0  0
 38 43  2  0  0  0
 38 46  1  0  0  0
 38 47  1  0  0  0
 39 64  1  0  0  0
 39 67  2  0  0  0
 40 52  1  0  0  0
 40 53  2  0  0  0
 40 58  1  0  0  0
 41113  1  0  0  0
 41114  1  0  0  0
 41115  1  0  0  0
 41 48  1  0  0  0
 42 43  1  0  0  0
 42 66  1  0  0  0
 42116  1  0  0  0
 42117  1  0  0  0
 43 44  1  0  0  0
 44118  1  0  0  0
 45 46  2  0  0  0
 45119  1  0  0  0
 46120  1  0  0  0
 47121  1  0  0  0
 47122  1  0  0  0
 48 56  1  0  0  0
 48 65  1  0  0  0
 48123  1  0  0  0
 49 50  1  0  0  0
 49 53  1  0  0  0
 49 64  1  0  0  0
 49124  1  0  0  0
 50 51  1  0  0  0
 50125  1  0  0  0
 50126  1  0  0  0
 51 52  1  0  0  0
 51127  1  0  0  0
 51128  1  0  0  0
 52129  1  0  0  0
 52130  1  0  0  0
 53 54  1  0  0  0
 54 55  2  0  0  0
 54131  1  0  0  0
 55 57  1  0  0  0
 55132  1  0  0  0
 56 69  2  0  0  0
 57 58  2  0  0  0
 57133  1  0  0  0
 58134  1  0  0  0
 59 60  1  0  0  0
 59 61  1  0  0  0
 59 62  1  0  0  0
 60135  1  0  0  0
 60136  1  0  0  0
 60137  1  0  0  0
 61138  1  0  0  0
 61139  1  0  0  0
 61140  1  0  0  0
 62141  1  0  0  0
 62142  1  0  0  0
 62143  1  0  0  0
 63 65  1  0  0  0
 63144  1  0  0  0
 63145  1  0  0  0
 63146  1  0  0  0
 64147  1  0  0  0
 65148  1  0  0  0
 68 85  1  0  0  0
 71 72  2  0  0  0
 71 74  1  0  0  0
 71149  1  0  0  0
 72 73  1  0  0  0
 72 80  1  0  0  0
 73 75  2  0  0  0
 73 81  1  0  0  0
 74 86  1  0  0  0
 74 88  2  0  0  0
 75 87  1  0  0  0
 75 88  1  0  0  0
 76 81  1  0  0  0
 76150  1  0  0  0
 76151  1  0  0  0
 76152  1  0  0  0
 77 82  1  0  0  0
 77153  1  0  0  0
 77154  1  0  0  0
 77155  1  0  0  0
 78156  1  0  0  0
 78157  1  0  0  0
 78158  1  0  0  0
 78 86  1  0  0  0
 79159  1  0  0  0
 79160  1  0  0  0
 79161  1  0  0  0
 79 87  1  0  0  0
 80 83  1  0  0  0
 80162  1  0  0  0
 80163  1  0  0  0
 81164  1  0  0  0
 81165  1  0  0  0
 82 87  1  0  0  0
 82166  1  0  0  0
 82167  1  0  0  0
 83 85  1  0  0  0
 83168  1  0  0  0
 83169  1  0  0  0
 84 86  1  0  0  0
 84 89  1  0  0  0
 84170  1  0  0  0
 84171  1  0  0  0
 85172  1  0  0  0
 85173  1  0  0  0
 86174  1  0  0  0
 87175  1  0  0  0
 89176  1  0  0  0
M  ISO  4   1 100  68 101  85 101  89 100
M  END
> <chiral flag>
0

> <version>
0

> <s_m_source_file>
/data/baiqing/PycharmProjects/Reinvent-master-3.2/result/LINK_invent/BTK/process_docking_weight1_custom_sum_contain_oxygen_bond_distance_aromatic_linkinvent_7_9_3/rearranged_h_0087.sdf

> <i_m_source_file_index>
26

> <r_mmod_Potential_Energy-OPLS-2005>
-130.85856628418

> <r_mmod_Stretch_Energy-OPLS-2005>
55.3247718811035

> <r_mmod_Bend_Energy-OPLS-2005>
143.485244750977

> <r_mmod_Torsional_Energy-OPLS-2005>
250.98616027832

> <r_mmod_Improper_Torsional_Energy-OPLS-2005>
4.94071578979492

> <r_mmod_Van_der_Waal_Energy-OPLS-2005>
154.714538574219

> <r_mmod_Electrostatic_Energy-OPLS-2005>
-566.70654296875

> <r_mmod_Solvation_Energy-OPLS-2005>
-197.309967041016

> <b_mmod_Minimization_Converged-OPLS-2005>
0

> <r_mmod_RMS_Derivative-OPLS-2005>
6.45907831192017

$$$$
27
                    3D
 Structure written by MMmdl.
179187  0  0  1  0            999 V2000
  -30.5992  -14.7383   20.4418 C   0  0  0  0  0  0
  -30.4313  -12.4499   19.4626 C   0  0  0  0  0  0
  -29.5019  -12.4935   18.2289 C   0  0  0  0  0  0
  -28.0291  -12.3218   18.6500 C   0  0  0  0  0  0
  -27.6376  -13.2291   19.8463 C   0  0  2  0  0  0
  -28.6853  -13.1639   20.9776 C   0  0  0  0  0  0
  -25.2481  -13.8192   20.5681 C   0  0  0  0  0  0
  -24.1783  -13.0443   20.9244 C   0  0  0  0  0  0
  -24.6378  -11.6933   20.8772 C   0  0  0  0  0  0
  -23.9055  -10.4307   21.0425 C   0  0  0  0  0  0
  -24.3610   -9.4221   21.9197 C   0  0  0  0  0  0
  -23.6298   -8.2244   22.0755 C   0  0  0  0  0  0
  -22.4277   -8.0272   21.3551 C   0  0  0  0  0  0
  -21.9914   -9.0245   20.4650 C   0  0  0  0  0  0
  -22.7231  -10.2137   20.3071 C   0  0  0  0  0  0
  -21.6849   -6.0730   22.5291 C   0  0  0  0  0  0
  -21.4001   -6.5641   23.8218 C   0  0  0  0  0  0
  -21.3658   -5.6801   24.9186 C   0  0  0  0  0  0
  -21.6050   -4.3061   24.7245 C   0  0  0  0  0  0
  -21.8814   -3.8152   23.4365 C   0  0  0  0  0  0
  -21.9193   -4.6962   22.3419 C   0  0  0  0  0  0
  -22.7815  -13.5227   21.1934 C   0  0  0  0  0  0
  -22.1667   -4.2147   21.0993 F   0  0  0  0  0  0
  -21.5632   -3.4546   25.7757 F   0  0  0  0  0  0
  -29.9827  -13.5122   20.3880 N   0  0  0  0  0  0
  -26.2909  -12.9404   20.3288 N   0  0  0  0  0  0
  -25.9305  -11.6551   20.5765 N   0  0  0  0  0  0
  -22.0475  -12.8190   22.0478 N   0  0  0  0  0  0
  -25.4160  -15.1911   20.4055 N   0  0  0  0  0  0
  -31.7976  -14.8414   20.1720 O   0  0  0  0  0  0
  -21.6645   -6.8867   21.4245 O   0  0  0  0  0  0
  -22.3497  -14.5535   20.6792 O   0  0  0  0  0  0
  -24.6330  -31.8546   23.2003 C   0  0  0  0  0  0
  -25.9150  -32.4749   23.8357 C   0  0  1  0  0  0
  -27.2066  -27.2606   20.1059 C   0  0  0  0  0  0
  -25.5942  -33.8548   24.2277 N   0  0  0  0  0  0
  -23.4289  -30.4796   21.5481 C   0  0  2  0  0  0
  -24.8713  -28.9353   20.1048 C   0  0  0  0  0  0
  -22.7523  -29.4582   22.4936 C   0  0  0  0  0  0
  -18.0298  -28.1361   22.8458 C   0  0  0  0  0  0
  -24.1494  -36.7297   23.2632 C   0  0  0  0  0  0
  -25.9773  -30.7640   21.3828 C   0  0  0  0  0  0
  -26.0448  -29.3897   20.7183 C   0  0  0  0  0  0
  -27.2186  -28.5643   20.7088 C   0  0  0  0  0  0
  -26.0093  -26.8830   19.4572 C   0  0  0  0  0  0
  -24.8583  -27.6906   19.4626 C   0  0  0  0  0  0
  -23.6433  -29.8222   20.1602 C   0  0  0  0  0  0
  -25.4116  -36.3068   24.0313 C   0  0  1  0  0  0
  -20.5911  -28.3668   23.1261 C   0  0  2  0  0  0
  -20.6786  -26.9382   22.5400 C   0  0  0  0  0  0
  -19.5763  -26.6364   21.5196 C   0  0  0  0  0  0
  -18.1943  -26.7909   22.1596 C   0  0  0  0  0  0
  -19.1555  -28.8831   23.2846 C   0  0  0  0  0  0
  -18.9467  -30.1442   23.8845 C   0  0  0  0  0  0
  -17.6460  -30.6559   24.0548 C   0  0  0  0  0  0
  -25.9054  -34.9427   23.5104 C   0  0  0  0  0  0
  -16.5355  -29.9051   23.6313 C   0  0  0  0  0  0
  -16.7283  -28.6481   23.0310 C   0  0  0  0  0  0
  -26.4510  -31.6563   25.0738 C   0  0  0  0  0  0
  -25.3714  -31.3686   26.1444 C   0  0  0  0  0  0
  -27.0357  -30.2959   24.6234 C   0  0  0  0  0  0
  -27.6101  -32.4292   25.7465 C   0  0  0  0  0  0
  -27.5592  -37.1783   24.8450 C   0  0  0  0  0  0
  -21.4234  -29.3009   22.3654 N   0  0  0  0  0  0
  -26.4296  -37.3757   23.9396 N   0  0  0  0  0  0
  -24.6986  -31.0506   22.0994 N   0  0  0  0  0  0
  -23.4215  -28.8089   23.3022 O   0  0  0  0  0  0
  -28.2862  -26.3471   20.1655 O   0  0  0  0  0  0
  -26.5625  -34.8886   22.4675 O   0  0  0  0  0  0
  -23.5475  -32.1409   23.7270 O   0  0  0  0  0  0
  -27.8201  -21.6653   22.2344 C   0  0  0  0  0  0
  -27.4806  -20.9099   23.3612 C   0  0  0  0  0  0
  -28.5034  -21.0918   21.1357 C   0  0  0  0  0  0
  -27.8380  -19.5616   23.3960 C   0  0  0  0  0  0
  -28.7763  -19.6378   21.2298 C   0  0  0  0  0  0
  -29.6740  -19.1379   18.8346 C   0  0  0  0  0  0
  -26.5071  -14.9180   26.4884 C   0  0  0  0  0  0
  -26.0506  -14.4301   24.0548 C   0  0  0  0  0  0
  -28.2053  -13.7257   25.1176 C   0  0  0  0  0  0
  -28.7764  -22.1460   19.9842 C   0  0  0  0  0  0
  -27.6426  -18.7371   24.6632 C   0  0  0  0  0  0
  -29.0427  -23.7211   20.3416 C   0  0  0  0  0  0
  -26.8928  -17.3916   24.4964 C   0  0  0  0  0  0
  -27.8120  -16.1604   24.6812 C   0  0  0  0  0  0
  -30.2133  -17.3407   20.6437 C   0  0  0  0  0  0
  -28.0107  -24.8867   19.9233 C   0  0  0  0  0  0
  -29.2028  -18.5325   20.1647 C   0  0  1  0  0  0
  -27.1280  -14.8262   25.0793 C   0  0  0  0  0  0
  -28.4531  -18.9663   22.3618 N   0  0  0  0  0  0
  -29.8068  -15.8652   20.5877 N   0  0  0  0  0  0
  -31.4698  -12.5854   19.1540 H   0  0  0  0  0  0
  -30.3850  -11.4766   19.9534 H   0  0  0  0  0  0
  -29.7787  -11.7088   17.5229 H   0  0  0  0  0  0
  -29.6267  -13.4405   17.7020 H   0  0  0  0  0  0
  -27.8887  -11.2753   18.9250 H   0  0  0  0  0  0
  -27.3666  -12.5058   17.8031 H   0  0  0  0  0  0
  -27.6290  -14.2486   19.4601 H   0  0  0  0  0  0
  -28.7212  -12.1698   21.4242 H   0  0  0  0  0  0
  -28.4282  -13.8548   21.7815 H   0  0  0  0  0  0
  -25.2740   -9.5712   22.4789 H   0  0  0  0  0  0
  -24.0014   -7.4632   22.7470 H   0  0  0  0  0  0
  -21.0849   -8.8759   19.8953 H   0  0  0  0  0  0
  -22.3670  -10.9682   19.6197 H   0  0  0  0  0  0
  -21.1970   -7.6147   23.9723 H   0  0  0  0  0  0
  -21.1490   -6.0531   25.9090 H   0  0  0  0  0  0
  -22.0586   -2.7613   23.2876 H   0  0  0  0  0  0
  -22.4098  -11.9834   22.4827 H   0  0  0  0  0  0
  -21.1100  -13.1209   22.2711 H   0  0  0  0  0  0
  -24.6531  -15.8445   20.5391 H   0  0  0  0  0  0
  -26.2632  -15.6382   20.0843 H   0  0  0  0  0  0
  -26.7208  -32.5385   23.1090 H   0  0  0  0  0  0
  -25.0051  -33.9685   25.0400 H   0  0  0  0  0  0
  -22.7242  -31.3015   21.4057 H   0  0  0  0  0  0
  -23.3741  -35.9639   23.3287 H   0  0  0  0  0  0
  -24.3601  -36.8965   22.2058 H   0  0  0  0  0  0
  -23.7276  -37.6499   23.6678 H   0  0  0  0  0  0
  -26.1215  -31.5246   20.6149 H   0  0  0  0  0  0
  -26.8550  -30.8127   22.0161 H   0  0  0  0  0  0
  -28.1198  -28.9019   21.1991 H   0  0  0  0  0  0
  -25.9226  -25.9359   18.9459 H   0  0  0  0  0  0
  -23.9618  -27.3428   18.9687 H   0  0  0  0  0  0
  -23.7637  -30.6052   19.4107 H   0  0  0  0  0  0
  -22.7592  -29.2595   19.8560 H   0  0  0  0  0  0
  -25.1296  -36.1929   25.0804 H   0  0  0  0  0  0
  -20.9986  -28.3249   24.1390 H   0  0  0  0  0  0
  -20.5687  -26.2266   23.3601 H   0  0  0  0  0  0
  -21.6656  -26.7409   22.1190 H   0  0  0  0  0  0
  -19.6933  -25.6276   21.1222 H   0  0  0  0  0  0
  -19.6720  -27.3161   20.6717 H   0  0  0  0  0  0
  -17.4220  -26.6639   21.3989 H   0  0  0  0  0  0
  -18.0338  -26.0050   22.8987 H   0  0  0  0  0  0
  -19.7938  -30.7273   24.2196 H   0  0  0  0  0  0
  -17.5007  -31.6224   24.5167 H   0  0  0  0  0  0
  -15.5349  -30.2919   23.7685 H   0  0  0  0  0  0
  -15.8689  -28.0814   22.7001 H   0  0  0  0  0  0
  -24.5936  -30.6983   25.7777 H   0  0  0  0  0  0
  -24.8783  -32.2811   26.4809 H   0  0  0  0  0  0
  -25.8003  -30.8927   27.0270 H   0  0  0  0  0  0
  -26.2933  -29.6671   24.1297 H   0  0  0  0  0  0
  -27.4086  -29.7272   25.4765 H   0  0  0  0  0  0
  -27.8794  -30.4244   23.9454 H   0  0  0  0  0  0
  -27.2793  -33.3657   26.1981 H   0  0  0  0  0  0
  -28.3905  -32.6770   25.0258 H   0  0  0  0  0  0
  -28.0759  -31.8444   26.5418 H   0  0  0  0  0  0
  -28.2573  -38.0115   24.7542 H   0  0  0  0  0  0
  -28.1147  -36.2649   24.6235 H   0  0  0  0  0  0
  -27.2315  -37.1399   25.8855 H   0  0  0  0  0  0
  -20.9423  -29.8768   21.6889 H   0  0  0  0  0  0
  -26.0187  -38.2830   24.1413 H   0  0  0  0  0  0
  -27.5303  -22.7057   22.2299 H   0  0  0  0  0  0
  -26.9752  -21.3765   24.1957 H   0  0  0  0  0  0
  -28.9063  -19.7785   18.4022 H   0  0  0  0  0  0
  -29.8860  -18.3585   18.1020 H   0  0  0  0  0  0
  -30.5801  -19.7288   18.9628 H   0  0  0  0  0  0
  -26.1636  -13.9412   26.8344 H   0  0  0  0  0  0
  -25.6456  -15.5842   26.5231 H   0  0  0  0  0  0
  -27.2316  -15.2798   27.2193 H   0  0  0  0  0  0
  -25.6535  -13.4331   24.2536 H   0  0  0  0  0  0
  -26.4556  -14.4234   23.0444 H   0  0  0  0  0  0
  -25.2072  -15.1213   24.0645 H   0  0  0  0  0  0
  -27.7815  -12.7595   25.3959 H   0  0  0  0  0  0
  -28.9846  -13.9560   25.8457 H   0  0  0  0  0  0
  -28.6921  -13.5993   24.1514 H   0  0  0  0  0  0
  -27.9546  -22.0807   19.2684 H   0  0  0  0  0  0
  -29.6538  -21.7956   19.4439 H   0  0  0  0  0  0
  -27.0856  -19.3471   25.3753 H   0  0  0  0  0  0
  -28.6199  -18.5923   25.1240 H   0  0  0  0  0  0
  -29.9736  -23.9797   19.8323 H   0  0  0  0  0  0
  -29.2960  -23.8278   21.3950 H   0  0  0  0  0  0
  -26.3790  -17.3483   23.5344 H   0  0  0  0  0  0
  -26.1014  -17.3671   25.2439 H   0  0  0  0  0  0
  -28.5626  -16.3818   25.4409 H   0  0  0  0  0  0
  -28.3761  -16.0231   23.7568 H   0  0  0  0  0  0
  -30.5254  -17.5384   21.6686 H   0  0  0  0  0  0
  -31.1366  -17.4416   20.0698 H   0  0  0  0  0  0
  -27.0689  -24.6352   20.4121 H   0  0  0  0  0  0
  -27.8398  -24.7770   18.8511 H   0  0  0  0  0  0
  -28.2621  -18.0373   19.9230 H   0  0  0  0  0  0
  -28.8249  -15.6829   20.7283 H   0  0  0  0  0  0
  1 25  1  0  0  0
  1 30  2  0  0  0
  1 90  1  0  0  0
  2  3  1  0  0  0
  2 25  1  0  0  0
  2 91  1  0  0  0
  2 92  1  0  0  0
  3  4  1  0  0  0
  3 93  1  0  0  0
  3 94  1  0  0  0
  4  5  1  0  0  0
  4 95  1  0  0  0
  4 96  1  0  0  0
  5  6  1  0  0  0
  5 26  1  0  0  0
  5 97  1  0  0  0
  6 25  1  0  0  0
  6 98  1  0  0  0
  6 99  1  0  0  0
  7  8  2  0  0  0
  7 26  1  0  0  0
  7 29  1  0  0  0
  8  9  1  0  0  0
  8 22  1  0  0  0
  9 10  1  0  0  0
  9 27  2  0  0  0
 10 11  2  0  0  0
 10 15  1  0  0  0
 11 12  1  0  0  0
 11100  1  0  0  0
 12 13  2  0  0  0
 12101  1  0  0  0
 13 14  1  0  0  0
 13 31  1  0  0  0
 14 15  2  0  0  0
 14102  1  0  0  0
 15103  1  0  0  0
 16 17  2  0  0  0
 16 21  1  0  0  0
 16 31  1  0  0  0
 17 18  1  0  0  0
 17104  1  0  0  0
 18 19  2  0  0  0
 18105  1  0  0  0
 19 20  1  0  0  0
 19 24  1  0  0  0
 20 21  2  0  0  0
 20106  1  0  0  0
 21 23  1  0  0  0
 22 28  1  0  0  0
 22 32  2  0  0  0
 26 27  1  0  0  0
 28107  1  0  0  0
 28108  1  0  0  0
 29109  1  0  0  0
 29110  1  0  0  0
 33 34  1  0  0  0
 33 66  1  0  0  0
 33 70  2  0  0  0
 34 36  1  0  0  0
 34 59  1  0  0  0
 34111  1  0  0  0
 35 44  2  0  0  0
 35 45  1  0  0  0
 35 68  1  0  0  0
 36 56  1  0  0  0
 36112  1  0  0  0
 37 39  1  0  0  0
 37 47  1  0  0  0
 37 66  1  0  0  0
 37113  1  0  0  0
 38 43  2  0  0  0
 38 46  1  0  0  0
 38 47  1  0  0  0
 39 64  1  0  0  0
 39 67  2  0  0  0
 40 52  1  0  0  0
 40 53  2  0  0  0
 40 58  1  0  0  0
 41114  1  0  0  0
 41115  1  0  0  0
 41116  1  0  0  0
 41 48  1  0  0  0
 42 43  1  0  0  0
 42 66  1  0  0  0
 42117  1  0  0  0
 42118  1  0  0  0
 43 44  1  0  0  0
 44119  1  0  0  0
 45 46  2  0  0  0
 45120  1  0  0  0
 46121  1  0  0  0
 47122  1  0  0  0
 47123  1  0  0  0
 48 56  1  0  0  0
 48 65  1  0  0  0
 48124  1  0  0  0
 49 50  1  0  0  0
 49 53  1  0  0  0
 49 64  1  0  0  0
 49125  1  0  0  0
 50 51  1  0  0  0
 50126  1  0  0  0
 50127  1  0  0  0
 51 52  1  0  0  0
 51128  1  0  0  0
 51129  1  0  0  0
 52130  1  0  0  0
 52131  1  0  0  0
 53 54  1  0  0  0
 54 55  2  0  0  0
 54132  1  0  0  0
 55 57  1  0  0  0
 55133  1  0  0  0
 56 69  2  0  0  0
 57 58  2  0  0  0
 57134  1  0  0  0
 58135  1  0  0  0
 59 60  1  0  0  0
 59 61  1  0  0  0
 59 62  1  0  0  0
 60136  1  0  0  0
 60137  1  0  0  0
 60138  1  0  0  0
 61139  1  0  0  0
 61140  1  0  0  0
 61141  1  0  0  0
 62142  1  0  0  0
 62143  1  0  0  0
 62144  1  0  0  0
 63 65  1  0  0  0
 63145  1  0  0  0
 63146  1  0  0  0
 63147  1  0  0  0
 64148  1  0  0  0
 65149  1  0  0  0
 68 86  1  0  0  0
 71 72  2  0  0  0
 71 73  1  0  0  0
 71150  1  0  0  0
 72 74  1  0  0  0
 72151  1  0  0  0
 73 75  2  0  0  0
 73 80  1  0  0  0
 74 81  1  0  0  0
 74 89  2  0  0  0
 75 87  1  0  0  0
 75 89  1  0  0  0
 76152  1  0  0  0
 76153  1  0  0  0
 76154  1  0  0  0
 76 87  1  0  0  0
 77155  1  0  0  0
 77156  1  0  0  0
 77157  1  0  0  0
 77 88  1  0  0  0
 78 88  1  0  0  0
 78158  1  0  0  0
 78159  1  0  0  0
 78160  1  0  0  0
 79 88  1  0  0  0
 79161  1  0  0  0
 79162  1  0  0  0
 79163  1  0  0  0
 80 82  1  0  0  0
 80164  1  0  0  0
 80165  1  0  0  0
 81 83  1  0  0  0
 81166  1  0  0  0
 81167  1  0  0  0
 82 86  1  0  0  0
 82168  1  0  0  0
 82169  1  0  0  0
 83 84  1  0  0  0
 83170  1  0  0  0
 83171  1  0  0  0
 84 88  1  0  0  0
 84172  1  0  0  0
 84173  1  0  0  0
 85 87  1  0  0  0
 85 90  1  0  0  0
 85174  1  0  0  0
 85175  1  0  0  0
 86176  1  0  0  0
 86177  1  0  0  0
 87178  1  0  0  0
 90179  1  0  0  0
M  ISO  4   1 100  68 101  86 101  90 100
M  END
> <chiral flag>
0

> <version>
0

> <s_m_source_file>
/data/baiqing/PycharmProjects/Reinvent-master-3.2/result/LINK_invent/BTK/process_docking_weight1_custom_sum_contain_oxygen_bond_distance_aromatic_linkinvent_7_9_3/rearranged_h_0087.sdf

> <i_m_source_file_index>
27

> <r_mmod_Potential_Energy-OPLS-2005>
97.8729858398438

> <r_mmod_Stretch_Energy-OPLS-2005>
135.391754150391

> <r_mmod_Bend_Energy-OPLS-2005>
213.585235595703

> <r_mmod_Torsional_Energy-OPLS-2005>
258.667510986328

> <r_mmod_Improper_Torsional_Energy-OPLS-2005>
5.70825290679932

> <r_mmod_Van_der_Waal_Energy-OPLS-2005>
131.331497192383

> <r_mmod_Electrostatic_Energy-OPLS-2005>
-535.65771484375

> <r_mmod_Solvation_Energy-OPLS-2005>
-199.967163085938

> <b_mmod_Minimization_Converged-OPLS-2005>
0

> <r_mmod_RMS_Derivative-OPLS-2005>
2.94814324378967

$$$$
28
                    3D
 Structure written by MMmdl.
164172  0  0  1  0            999 V2000
  -30.5868  -14.7570   20.4450 C   0  0  0  0  0  0
  -30.4365  -12.4646   19.4686 C   0  0  0  0  0  0
  -29.5100  -12.5176   18.2324 C   0  0  0  0  0  0
  -28.0368  -12.3395   18.6460 C   0  0  0  0  0  0
  -27.6431  -13.2308   19.8529 C   0  0  2  0  0  0
  -28.6886  -13.1475   20.9873 C   0  0  0  0  0  0
  -25.2522  -13.8144   20.5714 C   0  0  0  0  0  0
  -24.1801  -13.0389   20.9205 C   0  0  0  0  0  0
  -24.6397  -11.6883   20.8727 C   0  0  0  0  0  0
  -23.9068  -10.4260   21.0388 C   0  0  0  0  0  0
  -24.3613   -9.4171   21.9162 C   0  0  0  0  0  0
  -23.6278   -8.2222   22.0747 C   0  0  0  0  0  0
  -22.4247   -8.0272   21.3551 C   0  0  0  0  0  0
  -21.9881   -9.0247   20.4658 C   0  0  0  0  0  0
  -22.7238  -10.2110   20.3054 C   0  0  0  0  0  0
  -21.6841   -6.0707   22.5273 C   0  0  0  0  0  0
  -21.4011   -6.5614   23.8211 C   0  0  0  0  0  0
  -21.3663   -5.6780   24.9182 C   0  0  0  0  0  0
  -21.6037   -4.3038   24.7237 C   0  0  0  0  0  0
  -21.8823   -3.8119   23.4364 C   0  0  0  0  0  0
  -21.9196   -4.6933   22.3413 C   0  0  0  0  0  0
  -22.7831  -13.5196   21.1860 C   0  0  0  0  0  0
  -22.1653   -4.2112   21.0994 F   0  0  0  0  0  0
  -21.5633   -3.4532   25.7758 F   0  0  0  0  0  0
  -29.9884  -13.5154   20.4137 N   0  0  0  0  0  0
  -26.2948  -12.9377   20.3272 N   0  0  0  0  0  0
  -25.9340  -11.6509   20.5729 N   0  0  0  0  0  0
  -22.0441  -12.8192   22.0396 N   0  0  0  0  0  0
  -25.4201  -15.1846   20.4191 N   0  0  0  0  0  0
  -31.7622  -14.8759   20.0907 O   0  0  0  0  0  0
  -21.6631   -6.8854   21.4235 O   0  0  0  0  0  0
  -22.3555  -14.5535   20.6737 O   0  0  0  0  0  0
  -24.6304  -31.8558   23.1969 C   0  0  0  0  0  0
  -25.9131  -32.4762   23.8321 C   0  0  1  0  0  0
  -27.2275  -27.2660   20.1470 C   0  0  0  0  0  0
  -25.5930  -33.8564   24.2257 N   0  0  0  0  0  0
  -23.4277  -30.4749   21.5399 C   0  0  2  0  0  0
  -24.8777  -28.9173   20.1157 C   0  0  0  0  0  0
  -22.7493  -29.4605   22.4920 C   0  0  0  0  0  0
  -18.0281  -28.1395   22.8476 C   0  0  0  0  0  0
  -24.1485  -36.7287   23.2639 C   0  0  0  0  0  0
  -25.9711  -30.7727   21.3734 C   0  0  0  0  0  0
  -26.0474  -29.3933   20.7212 C   0  0  0  0  0  0
  -27.2277  -28.5824   20.7188 C   0  0  0  0  0  0
  -26.0379  -26.8553   19.5085 C   0  0  0  0  0  0
  -24.8776  -27.6561   19.4990 C   0  0  0  0  0  0
  -23.6466  -29.8030   20.1582 C   0  0  0  0  0  0
  -25.4109  -36.3080   24.0330 C   0  0  1  0  0  0
  -20.5886  -28.3700   23.1272 C   0  0  2  0  0  0
  -20.6770  -26.9416   22.5411 C   0  0  0  0  0  0
  -19.5756  -26.6388   21.5207 C   0  0  0  0  0  0
  -18.1934  -26.7934   22.1618 C   0  0  0  0  0  0
  -19.1532  -28.8859   23.2871 C   0  0  0  0  0  0
  -18.9460  -30.1458   23.8892 C   0  0  0  0  0  0
  -17.6462  -30.6589   24.0566 C   0  0  0  0  0  0
  -25.9053  -34.9451   23.5103 C   0  0  0  0  0  0
  -16.5357  -29.9093   23.6339 C   0  0  0  0  0  0
  -16.7264  -28.6518   23.0349 C   0  0  0  0  0  0
  -26.4505  -31.6575   25.0701 C   0  0  0  0  0  0
  -25.3723  -31.3735   26.1419 C   0  0  0  0  0  0
  -27.0333  -30.2990   24.6164 C   0  0  0  0  0  0
  -27.6064  -32.4304   25.7474 C   0  0  0  0  0  0
  -27.5582  -37.1801   24.8467 C   0  0  0  0  0  0
  -21.4205  -29.3047   22.3653 N   0  0  0  0  0  0
  -26.4291  -37.3769   23.9413 N   0  0  0  0  0  0
  -24.6950  -31.0519   22.0945 N   0  0  0  0  0  0
  -23.4200  -28.8140   23.3016 O   0  0  0  0  0  0
  -28.3335  -26.3884   20.1643 O   0  0  0  0  0  0
  -26.5615  -34.8927   22.4670 O   0  0  0  0  0  0
  -23.5451  -32.1377   23.7264 O   0  0  0  0  0  0
  -27.0769  -21.5743   19.4398 C   0  0  0  0  0  0
  -26.0570  -20.7082   19.0462 C   0  0  0  0  0  0
  -28.2568  -21.0866   20.0488 C   0  0  0  0  0  0
  -26.2195  -19.3429   19.2764 C   0  0  0  0  0  0
  -28.3922  -19.6137   20.1520 C   0  0  0  0  0  0
  -25.3165  -17.5281   17.7500 C   0  0  0  0  0  0
  -29.1555  -18.3878   22.2796 C   0  0  0  0  0  0
  -29.1798  -22.2533   20.5838 C   0  0  0  0  0  0
  -25.0837  -18.3817   19.0001 C   0  0  0  0  0  0
  -29.0737  -23.7786   19.9871 C   0  0  0  0  0  0
  -29.9330  -17.2902   20.0425 C   0  0  0  0  0  0
  -28.1429  -24.9570   20.5931 C   0  0  0  0  0  0
  -29.5005  -18.6767   20.8104 C   0  0  1  0  0  0
  -27.3505  -18.8256   19.7897 N   0  0  0  0  0  0
  -29.7896  -15.8778   20.6398 N   0  0  0  0  0  0
  -31.4734  -12.6027   19.1588 H   0  0  0  0  0  0
  -30.3993  -11.4819   19.9401 H   0  0  0  0  0  0
  -29.7905  -11.7454   17.5139 H   0  0  0  0  0  0
  -29.6339  -13.4717   17.7192 H   0  0  0  0  0  0
  -27.8907  -11.2907   18.9007 H   0  0  0  0  0  0
  -27.3805  -12.5409   17.7983 H   0  0  0  0  0  0
  -27.6395  -14.2547   19.4815 H   0  0  0  0  0  0
  -28.7285  -12.1391   21.4025 H   0  0  0  0  0  0
  -28.4262  -13.8098   21.8132 H   0  0  0  0  0  0
  -25.2757   -9.5631   22.4729 H   0  0  0  0  0  0
  -23.9965   -7.4612   22.7473 H   0  0  0  0  0  0
  -21.0797   -8.8793   19.8985 H   0  0  0  0  0  0
  -22.3701  -10.9652   19.6164 H   0  0  0  0  0  0
  -21.1993   -7.6121   23.9705 H   0  0  0  0  0  0
  -21.1480   -6.0509   25.9085 H   0  0  0  0  0  0
  -22.0597   -2.7577   23.2894 H   0  0  0  0  0  0
  -22.4005  -11.9823   22.4763 H   0  0  0  0  0  0
  -21.1040  -13.1216   22.2521 H   0  0  0  0  0  0
  -24.6390  -15.8206   20.5201 H   0  0  0  0  0  0
  -26.2558  -15.6356   20.0657 H   0  0  0  0  0  0
  -26.7185  -32.5434   23.1053 H   0  0  0  0  0  0
  -25.0073  -33.9688   25.0399 H   0  0  0  0  0  0
  -22.7233  -31.2953   21.3908 H   0  0  0  0  0  0
  -23.3754  -35.9616   23.3301 H   0  0  0  0  0  0
  -24.3573  -36.8904   22.2055 H   0  0  0  0  0  0
  -23.7224  -37.6487   23.6652 H   0  0  0  0  0  0
  -26.0993  -31.5286   20.5981 H   0  0  0  0  0  0
  -26.8518  -30.8322   22.0017 H   0  0  0  0  0  0
  -28.1267  -28.9433   21.1965 H   0  0  0  0  0  0
  -25.9930  -25.8928   19.0185 H   0  0  0  0  0  0
  -23.9826  -27.2869   19.0177 H   0  0  0  0  0  0
  -23.7754  -30.5770   19.4010 H   0  0  0  0  0  0
  -22.7657  -29.2347   19.8537 H   0  0  0  0  0  0
  -25.1284  -36.1938   25.0818 H   0  0  0  0  0  0
  -20.9977  -28.3286   24.1398 H   0  0  0  0  0  0
  -20.5665  -26.2307   23.3611 H   0  0  0  0  0  0
  -21.6640  -26.7443   22.1213 H   0  0  0  0  0  0
  -19.6930  -25.6300   21.1239 H   0  0  0  0  0  0
  -19.6706  -27.3190   20.6730 H   0  0  0  0  0  0
  -17.4205  -26.6665   21.4026 H   0  0  0  0  0  0
  -18.0353  -26.0071   22.9010 H   0  0  0  0  0  0
  -19.7933  -30.7261   24.2284 H   0  0  0  0  0  0
  -17.5019  -31.6270   24.5154 H   0  0  0  0  0  0
  -15.5360  -30.2998   23.7648 H   0  0  0  0  0  0
  -15.8669  -28.0826   22.7080 H   0  0  0  0  0  0
  -24.5912  -30.7057   25.7763 H   0  0  0  0  0  0
  -24.8898  -32.2906   26.4817 H   0  0  0  0  0  0
  -25.8054  -30.8953   27.0210 H   0  0  0  0  0  0
  -26.2913  -29.6753   24.1165 H   0  0  0  0  0  0
  -27.3988  -29.7240   25.4679 H   0  0  0  0  0  0
  -27.8801  -30.4256   23.9410 H   0  0  0  0  0  0
  -27.2684  -33.3614   26.2034 H   0  0  0  0  0  0
  -28.3893  -32.6841   25.0313 H   0  0  0  0  0  0
  -28.0698  -31.8425   26.5400 H   0  0  0  0  0  0
  -28.2604  -38.0092   24.7506 H   0  0  0  0  0  0
  -28.1074  -36.2631   24.6305 H   0  0  0  0  0  0
  -27.2307  -37.1457   25.8869 H   0  0  0  0  0  0
  -20.9390  -29.8769   21.6851 H   0  0  0  0  0  0
  -26.0187  -38.2852   24.1408 H   0  0  0  0  0  0
  -26.9018  -22.6296   19.3103 H   0  0  0  0  0  0
  -25.1417  -21.0977   18.6223 H   0  0  0  0  0  0
  -24.4651  -16.8740   17.5659 H   0  0  0  0  0  0
  -26.2026  -16.9043   17.8650 H   0  0  0  0  0  0
  -25.4573  -18.1587   16.8727 H   0  0  0  0  0  0
  -29.0372  -19.3144   22.8417 H   0  0  0  0  0  0
  -29.9429  -17.8067   22.7610 H   0  0  0  0  0  0
  -28.2262  -17.8255   22.3559 H   0  0  0  0  0  0
  -30.2011  -21.9110   20.4138 H   0  0  0  0  0  0
  -29.0719  -22.2912   21.6681 H   0  0  0  0  0  0
  -24.1534  -18.9414   18.8953 H   0  0  0  0  0  0
  -24.9460  -17.7525   19.8788 H   0  0  0  0  0  0
  -28.9326  -23.7330   18.9074 H   0  0  0  0  0  0
  -30.0831  -24.1783   20.0960 H   0  0  0  0  0  0
  -30.9785  -17.4049   19.7503 H   0  0  0  0  0  0
  -29.4112  -17.2666   19.0837 H   0  0  0  0  0  0
  -28.3045  -24.9665   21.6724 H   0  0  0  0  0  0
  -27.1022  -24.6554   20.4840 H   0  0  0  0  0  0
  -30.3972  -19.2994   20.8201 H   0  0  0  0  0  0
  -28.8674  -15.6662   20.9872 H   0  0  0  0  0  0
  1 25  1  0  0  0
  1 30  2  0  0  0
  1 85  1  0  0  0
  2  3  1  0  0  0
  2 25  1  0  0  0
  2 86  1  0  0  0
  2 87  1  0  0  0
  3  4  1  0  0  0
  3 88  1  0  0  0
  3 89  1  0  0  0
  4  5  1  0  0  0
  4 90  1  0  0  0
  4 91  1  0  0  0
  5  6  1  0  0  0
  5 26  1  0  0  0
  5 92  1  0  0  0
  6 25  1  0  0  0
  6 93  1  0  0  0
  6 94  1  0  0  0
  7  8  2  0  0  0
  7 26  1  0  0  0
  7 29  1  0  0  0
  8  9  1  0  0  0
  8 22  1  0  0  0
  9 10  1  0  0  0
  9 27  2  0  0  0
 10 11  2  0  0  0
 10 15  1  0  0  0
 11 12  1  0  0  0
 11 95  1  0  0  0
 12 13  2  0  0  0
 12 96  1  0  0  0
 13 14  1  0  0  0
 13 31  1  0  0  0
 14 15  2  0  0  0
 14 97  1  0  0  0
 15 98  1  0  0  0
 16 17  2  0  0  0
 16 21  1  0  0  0
 16 31  1  0  0  0
 17 18  1  0  0  0
 17 99  1  0  0  0
 18 19  2  0  0  0
 18100  1  0  0  0
 19 20  1  0  0  0
 19 24  1  0  0  0
 20 21  2  0  0  0
 20101  1  0  0  0
 21 23  1  0  0  0
 22 28  1  0  0  0
 22 32  2  0  0  0
 26 27  1  0  0  0
 28102  1  0  0  0
 28103  1  0  0  0
 29104  1  0  0  0
 29105  1  0  0  0
 33 34  1  0  0  0
 33 66  1  0  0  0
 33 70  2  0  0  0
 34 36  1  0  0  0
 34 59  1  0  0  0
 34106  1  0  0  0
 35 44  2  0  0  0
 35 45  1  0  0  0
 35 68  1  0  0  0
 36 56  1  0  0  0
 36107  1  0  0  0
 37 39  1  0  0  0
 37 47  1  0  0  0
 37 66  1  0  0  0
 37108  1  0  0  0
 38 43  2  0  0  0
 38 46  1  0  0  0
 38 47  1  0  0  0
 39 64  1  0  0  0
 39 67  2  0  0  0
 40 52  1  0  0  0
 40 53  2  0  0  0
 40 58  1  0  0  0
 41109  1  0  0  0
 41110  1  0  0  0
 41111  1  0  0  0
 41 48  1  0  0  0
 42 43  1  0  0  0
 42 66  1  0  0  0
 42112  1  0  0  0
 42113  1  0  0  0
 43 44  1  0  0  0
 44114  1  0  0  0
 45 46  2  0  0  0
 45115  1  0  0  0
 46116  1  0  0  0
 47117  1  0  0  0
 47118  1  0  0  0
 48 56  1  0  0  0
 48 65  1  0  0  0
 48119  1  0  0  0
 49 50  1  0  0  0
 49 53  1  0  0  0
 49 64  1  0  0  0
 49120  1  0  0  0
 50 51  1  0  0  0
 50121  1  0  0  0
 50122  1  0  0  0
 51 52  1  0  0  0
 51123  1  0  0  0
 51124  1  0  0  0
 52125  1  0  0  0
 52126  1  0  0  0
 53 54  1  0  0  0
 54 55  2  0  0  0
 54127  1  0  0  0
 55 57  1  0  0  0
 55128  1  0  0  0
 56 69  2  0  0  0
 57 58  2  0  0  0
 57129  1  0  0  0
 58130  1  0  0  0
 59 60  1  0  0  0
 59 61  1  0  0  0
 59 62  1  0  0  0
 60131  1  0  0  0
 60132  1  0  0  0
 60133  1  0  0  0
 61134  1  0  0  0
 61135  1  0  0  0
 61136  1  0  0  0
 62137  1  0  0  0
 62138  1  0  0  0
 62139  1  0  0  0
 63 65  1  0  0  0
 63140  1  0  0  0
 63141  1  0  0  0
 63142  1  0  0  0
 64143  1  0  0  0
 65144  1  0  0  0
 68 82  1  0  0  0
 71 72  2  0  0  0
 71 73  1  0  0  0
 71145  1  0  0  0
 72 74  1  0  0  0
 72146  1  0  0  0
 73 75  2  0  0  0
 73 78  1  0  0  0
 74 79  1  0  0  0
 74 84  2  0  0  0
 75 83  1  0  0  0
 75 84  1  0  0  0
 76 79  1  0  0  0
 76147  1  0  0  0
 76148  1  0  0  0
 76149  1  0  0  0
 77150  1  0  0  0
 77151  1  0  0  0
 77152  1  0  0  0
 77 83  1  0  0  0
 78 80  1  0  0  0
 78153  1  0  0  0
 78154  1  0  0  0
 79155  1  0  0  0
 79156  1  0  0  0
 80 82  1  0  0  0
 80157  1  0  0  0
 80158  1  0  0  0
 81 83  1  0  0  0
 81 85  1  0  0  0
 81159  1  0  0  0
 81160  1  0  0  0
 82161  1  0  0  0
 82162  1  0  0  0
 83163  1  0  0  0
 85164  1  0  0  0
M  ISO  4   1 100  68 101  82 101  85 100
M  END
> <chiral flag>
0

> <version>
0

> <s_m_source_file>
/data/baiqing/PycharmProjects/Reinvent-master-3.2/result/LINK_invent/BTK/process_docking_weight1_custom_sum_contain_oxygen_bond_distance_aromatic_linkinvent_7_9_3/rearranged_h_0087.sdf

> <i_m_source_file_index>
28

> <r_mmod_Potential_Energy-OPLS-2005>
60.3457984924316

> <r_mmod_Stretch_Energy-OPLS-2005>
140.915771484375

> <r_mmod_Bend_Energy-OPLS-2005>
209.984848022461

> <r_mmod_Torsional_Energy-OPLS-2005>
240.517135620117

> <r_mmod_Improper_Torsional_Energy-OPLS-2005>
7.52275848388672

> <r_mmod_Van_der_Waal_Energy-OPLS-2005>
130.519989013672

> <r_mmod_Electrostatic_Energy-OPLS-2005>
-550.321350097656

> <r_mmod_Solvation_Energy-OPLS-2005>
-203.016571044922

> <b_mmod_Minimization_Converged-OPLS-2005>
0

> <r_mmod_RMS_Derivative-OPLS-2005>
3.50461411476135

$$$$
29
                    3D
 Structure written by MMmdl.
168176  0  0  1  0            999 V2000
  -30.6575  -14.5445   20.5313 C   0  0  0  0  0  0
  -30.4219  -12.3417   19.4336 C   0  0  0  0  0  0
  -29.4926  -12.5015   18.2114 C   0  0  0  0  0  0
  -28.0157  -12.3491   18.6265 C   0  0  0  0  0  0
  -27.6516  -13.2099   19.8658 C   0  0  2  0  0  0
  -28.6934  -13.0304   20.9922 C   0  0  0  0  0  0
  -25.2558  -13.8162   20.5705 C   0  0  0  0  0  0
  -24.1819  -13.0433   20.9205 C   0  0  0  0  0  0
  -24.6377  -11.6905   20.8750 C   0  0  0  0  0  0
  -23.9050  -10.4292   21.0423 C   0  0  0  0  0  0
  -24.3605   -9.4208   21.9201 C   0  0  0  0  0  0
  -23.6300   -8.2239   22.0757 C   0  0  0  0  0  0
  -22.4288   -8.0275   21.3544 C   0  0  0  0  0  0
  -21.9909   -9.0246   20.4645 C   0  0  0  0  0  0
  -22.7226  -10.2132   20.3067 C   0  0  0  0  0  0
  -21.6847   -6.0747   22.5284 C   0  0  0  0  0  0
  -21.4013   -6.5655   23.8219 C   0  0  0  0  0  0
  -21.3658   -5.6806   24.9180 C   0  0  0  0  0  0
  -21.6041   -4.3069   24.7226 C   0  0  0  0  0  0
  -21.8815   -3.8162   23.4349 C   0  0  0  0  0  0
  -21.9197   -4.6982   22.3410 C   0  0  0  0  0  0
  -22.7847  -13.5229   21.1876 C   0  0  0  0  0  0
  -22.1668   -4.2171   21.0987 F   0  0  0  0  0  0
  -21.5622   -3.4553   25.7737 F   0  0  0  0  0  0
  -30.0143  -13.3475   20.4292 N   0  0  0  0  0  0
  -26.2970  -12.9326   20.3336 N   0  0  0  0  0  0
  -25.9297  -11.6487   20.5764 N   0  0  0  0  0  0
  -22.0493  -12.8206   22.0427 N   0  0  0  0  0  0
  -25.4275  -15.1883   20.4122 N   0  0  0  0  0  0
  -31.8154  -14.7019   20.1348 O   0  0  0  0  0  0
  -21.6637   -6.8882   21.4247 O   0  0  0  0  0  0
  -22.3540  -14.5549   20.6751 O   0  0  0  0  0  0
  -24.6189  -31.8608   23.2034 C   0  0  0  0  0  0
  -25.9074  -32.4773   23.8337 C   0  0  1  0  0  0
  -27.2322  -27.3856   20.1155 C   0  0  0  0  0  0
  -25.5902  -33.8575   24.2238 N   0  0  0  0  0  0
  -23.4085  -30.4811   21.5440 C   0  0  2  0  0  0
  -24.8554  -28.9332   20.1169 C   0  0  0  0  0  0
  -22.7426  -29.4612   22.4962 C   0  0  0  0  0  0
  -18.0277  -28.1362   22.8483 C   0  0  0  0  0  0
  -24.1497  -36.7325   23.2629 C   0  0  0  0  0  0
  -25.9399  -30.8114   21.3616 C   0  0  0  0  0  0
  -26.0153  -29.4394   20.7150 C   0  0  0  0  0  0
  -27.2087  -28.6740   20.7057 C   0  0  0  0  0  0
  -26.0545  -26.8948   19.5186 C   0  0  0  0  0  0
  -24.8712  -27.6623   19.5130 C   0  0  0  0  0  0
  -23.6192  -29.8056   20.1609 C   0  0  0  0  0  0
  -25.4114  -36.3061   24.0300 C   0  0  1  0  0  0
  -20.5866  -28.3653   23.1313 C   0  0  2  0  0  0
  -20.6775  -26.9388   22.5413 C   0  0  0  0  0  0
  -19.5753  -26.6359   21.5214 C   0  0  0  0  0  0
  -18.1927  -26.7902   22.1611 C   0  0  0  0  0  0
  -19.1527  -28.8830   23.2892 C   0  0  0  0  0  0
  -18.9460  -30.1437   23.8901 C   0  0  0  0  0  0
  -17.6465  -30.6576   24.0568 C   0  0  0  0  0  0
  -25.9065  -34.9444   23.5067 C   0  0  0  0  0  0
  -16.5357  -29.9074   23.6335 C   0  0  0  0  0  0
  -16.7271  -28.6492   23.0348 C   0  0  0  0  0  0
  -26.4495  -31.6571   25.0694 C   0  0  0  0  0  0
  -25.3740  -31.3684   26.1429 C   0  0  0  0  0  0
  -27.0341  -30.3008   24.6090 C   0  0  0  0  0  0
  -27.6051  -32.4311   25.7471 C   0  0  0  0  0  0
  -27.5582  -37.1783   24.8436 C   0  0  0  0  0  0
  -21.4151  -29.3017   22.3720 N   0  0  0  0  0  0
  -26.4276  -37.3765   23.9424 N   0  0  0  0  0  0
  -24.6743  -31.0672   22.0950 N   0  0  0  0  0  0
  -23.4181  -28.8148   23.3021 O   0  0  0  0  0  0
  -28.4008  -26.6476   20.0536 O   0  0  0  0  0  0
  -26.5651  -34.8907   22.4636 O   0  0  0  0  0  0
  -23.5376  -32.1392   23.7407 O   0  0  0  0  0  0
  -29.9050  -20.8228   18.1908 C   0  0  0  0  0  0
  -30.5367  -19.6353   17.7225 C   0  0  0  0  0  0
  -29.3583  -20.4833   19.4082 C   0  0  0  0  0  0
  -29.8253  -22.1389   17.4632 C   0  0  0  0  0  0
  -30.5321  -18.4483   15.4961 C   0  0  0  0  0  0
  -32.7234  -18.8922   16.7071 C   0  0  0  0  0  0
  -28.5058  -21.3664   20.3199 C   0  0  0  0  0  0
  -29.0215  -22.8163   20.6726 C   0  0  0  0  0  0
  -28.3683  -24.0706   19.9766 C   0  0  0  0  0  0
  -29.2424  -18.1112   20.6172 C   0  0  0  0  0  0
  -30.3283  -17.0250   20.9985 C   0  0  0  0  0  0
  -28.4722  -25.4043   20.7943 C   0  0  0  0  0  0
  -31.2972  -19.3950   16.4354 C   0  0  0  0  0  0
  -30.3529  -18.6302   18.5540 N   0  0  0  0  0  0
  -29.6540  -19.1131   19.6036 N   0  0  0  0  0  0
  -29.9009  -15.5992   20.9303 N   0  0  0  0  0  0
  -31.4657  -12.4509   19.1339 H   0  0  0  0  0  0
  -30.3352  -11.3390   19.8547 H   0  0  0  0  0  0
  -29.7433  -11.7650   17.4462 H   0  0  0  0  0  0
  -29.6445  -13.4815   17.7546 H   0  0  0  0  0  0
  -27.8426  -11.2949   18.8461 H   0  0  0  0  0  0
  -27.3597  -12.5951   17.7899 H   0  0  0  0  0  0
  -27.6803  -14.2500   19.5407 H   0  0  0  0  0  0
  -28.6849  -12.0027   21.3595 H   0  0  0  0  0  0
  -28.4521  -13.6551   21.8535 H   0  0  0  0  0  0
  -25.2741   -9.5704   22.4792 H   0  0  0  0  0  0
  -24.0018   -7.4626   22.7465 H   0  0  0  0  0  0
  -21.0848   -8.8754   19.8946 H   0  0  0  0  0  0
  -22.3675  -10.9682   19.6190 H   0  0  0  0  0  0
  -21.2000   -7.6163   23.9731 H   0  0  0  0  0  0
  -21.1488   -6.0537   25.9083 H   0  0  0  0  0  0
  -22.0597   -2.7629   23.2841 H   0  0  0  0  0  0
  -22.4113  -11.9847   22.4774 H   0  0  0  0  0  0
  -21.1118  -13.1229   22.2655 H   0  0  0  0  0  0
  -24.6540  -15.8370   20.5072 H   0  0  0  0  0  0
  -26.2691  -15.6271   20.0625 H   0  0  0  0  0  0
  -26.7136  -32.5470   23.1082 H   0  0  0  0  0  0
  -25.0011  -33.9750   25.0345 H   0  0  0  0  0  0
  -22.6993  -31.2978   21.3969 H   0  0  0  0  0  0
  -23.3736  -35.9677   23.3241 H   0  0  0  0  0  0
  -24.3600  -36.9026   22.2056 H   0  0  0  0  0  0
  -23.7284  -37.6508   23.6727 H   0  0  0  0  0  0
  -26.0511  -31.5683   20.5846 H   0  0  0  0  0  0
  -26.8293  -30.8697   21.9777 H   0  0  0  0  0  0
  -28.1100  -29.0603   21.1602 H   0  0  0  0  0  0
  -26.0542  -25.9226   19.0467 H   0  0  0  0  0  0
  -23.9796  -27.2716   19.0441 H   0  0  0  0  0  0
  -23.7264  -30.5769   19.3971 H   0  0  0  0  0  0
  -22.7434  -29.2230   19.8663 H   0  0  0  0  0  0
  -25.1281  -36.1871   25.0787 H   0  0  0  0  0  0
  -20.9966  -28.3217   24.1427 H   0  0  0  0  0  0
  -20.5684  -26.2261   23.3599 H   0  0  0  0  0  0
  -21.6650  -26.7426   22.1195 H   0  0  0  0  0  0
  -19.6939  -25.6267   21.1238 H   0  0  0  0  0  0
  -19.6703  -27.3182   20.6758 H   0  0  0  0  0  0
  -17.4199  -26.6666   21.4011 H   0  0  0  0  0  0
  -18.0327  -26.0026   22.8989 H   0  0  0  0  0  0
  -19.7944  -30.7250   24.2255 H   0  0  0  0  0  0
  -17.5016  -31.6255   24.5155 H   0  0  0  0  0  0
  -15.5356  -30.2970   23.7648 H   0  0  0  0  0  0
  -15.8673  -28.0816   22.7054 H   0  0  0  0  0  0
  -24.5921  -30.7033   25.7751 H   0  0  0  0  0  0
  -24.8934  -32.2847   26.4870 H   0  0  0  0  0  0
  -25.8064  -30.8840   27.0192 H   0  0  0  0  0  0
  -26.2893  -29.6738   24.1182 H   0  0  0  0  0  0
  -27.4152  -29.7281   25.4554 H   0  0  0  0  0  0
  -27.8687  -30.4322   23.9203 H   0  0  0  0  0  0
  -27.2660  -33.3614   26.2043 H   0  0  0  0  0  0
  -28.3868  -32.6875   25.0308 H   0  0  0  0  0  0
  -28.0703  -31.8433   26.5392 H   0  0  0  0  0  0
  -28.2497  -38.0176   24.7589 H   0  0  0  0  0  0
  -28.1172  -36.2707   24.6098 H   0  0  0  0  0  0
  -27.2330  -37.1229   25.8840 H   0  0  0  0  0  0
  -20.9317  -29.8739   21.6937 H   0  0  0  0  0  0
  -26.0125  -38.2810   24.1492 H   0  0  0  0  0  0
  -30.0326  -22.0420   16.3978 H   0  0  0  0  0  0
  -30.5292  -22.8696   17.8630 H   0  0  0  0  0  0
  -28.8263  -22.5705   17.5257 H   0  0  0  0  0  0
  -29.5396  -18.8401   15.2692 H   0  0  0  0  0  0
  -30.4027  -17.4641   15.9490 H   0  0  0  0  0  0
  -31.0606  -18.3157   14.5515 H   0  0  0  0  0  0
  -33.2614  -19.5798   17.3591 H   0  0  0  0  0  0
  -33.2885  -18.8001   15.7808 H   0  0  0  0  0  0
  -32.7144  -17.9143   17.1895 H   0  0  0  0  0  0
  -28.3581  -20.8389   21.2611 H   0  0  0  0  0  0
  -27.5033  -21.4442   19.8975 H   0  0  0  0  0  0
  -30.1090  -22.8612   20.5907 H   0  0  0  0  0  0
  -28.8253  -22.9409   21.7384 H   0  0  0  0  0  0
  -27.3173  -23.8737   19.7666 H   0  0  0  0  0  0
  -28.8487  -24.2290   19.0138 H   0  0  0  0  0  0
  -28.9280  -18.6382   21.5179 H   0  0  0  0  0  0
  -28.3461  -17.6205   20.2359 H   0  0  0  0  0  0
  -30.6367  -17.2030   22.0288 H   0  0  0  0  0  0
  -31.2393  -17.1644   20.4159 H   0  0  0  0  0  0
  -29.4529  -25.4217   21.2706 H   0  0  0  0  0  0
  -27.7525  -25.3992   21.6146 H   0  0  0  0  0  0
  -31.4054  -20.3424   15.9085 H   0  0  0  0  0  0
  -28.9525  -15.3897   21.2014 H   0  0  0  0  0  0
  1 25  1  0  0  0
  1 30  2  0  0  0
  1 86  1  0  0  0
  2  3  1  0  0  0
  2 25  1  0  0  0
  2 87  1  0  0  0
  2 88  1  0  0  0
  3  4  1  0  0  0
  3 89  1  0  0  0
  3 90  1  0  0  0
  4  5  1  0  0  0
  4 91  1  0  0  0
  4 92  1  0  0  0
  5  6  1  0  0  0
  5 26  1  0  0  0
  5 93  1  0  0  0
  6 25  1  0  0  0
  6 94  1  0  0  0
  6 95  1  0  0  0
  7  8  2  0  0  0
  7 26  1  0  0  0
  7 29  1  0  0  0
  8  9  1  0  0  0
  8 22  1  0  0  0
  9 10  1  0  0  0
  9 27  2  0  0  0
 10 11  2  0  0  0
 10 15  1  0  0  0
 11 12  1  0  0  0
 11 96  1  0  0  0
 12 13  2  0  0  0
 12 97  1  0  0  0
 13 14  1  0  0  0
 13 31  1  0  0  0
 14 15  2  0  0  0
 14 98  1  0  0  0
 15 99  1  0  0  0
 16 17  2  0  0  0
 16 21  1  0  0  0
 16 31  1  0  0  0
 17 18  1  0  0  0
 17100  1  0  0  0
 18 19  2  0  0  0
 18101  1  0  0  0
 19 20  1  0  0  0
 19 24  1  0  0  0
 20 21  2  0  0  0
 20102  1  0  0  0
 21 23  1  0  0  0
 22 28  1  0  0  0
 22 32  2  0  0  0
 26 27  1  0  0  0
 28103  1  0  0  0
 28104  1  0  0  0
 29105  1  0  0  0
 29106  1  0  0  0
 33 34  1  0  0  0
 33 66  1  0  0  0
 33 70  2  0  0  0
 34 36  1  0  0  0
 34 59  1  0  0  0
 34107  1  0  0  0
 35 44  2  0  0  0
 35 45  1  0  0  0
 35 68  1  0  0  0
 36 56  1  0  0  0
 36108  1  0  0  0
 37 39  1  0  0  0
 37 47  1  0  0  0
 37 66  1  0  0  0
 37109  1  0  0  0
 38 43  2  0  0  0
 38 46  1  0  0  0
 38 47  1  0  0  0
 39 64  1  0  0  0
 39 67  2  0  0  0
 40 52  1  0  0  0
 40 53  2  0  0  0
 40 58  1  0  0  0
 41110  1  0  0  0
 41111  1  0  0  0
 41112  1  0  0  0
 41 48  1  0  0  0
 42 43  1  0  0  0
 42 66  1  0  0  0
 42113  1  0  0  0
 42114  1  0  0  0
 43 44  1  0  0  0
 44115  1  0  0  0
 45 46  2  0  0  0
 45116  1  0  0  0
 46117  1  0  0  0
 47118  1  0  0  0
 47119  1  0  0  0
 48 56  1  0  0  0
 48 65  1  0  0  0
 48120  1  0  0  0
 49 50  1  0  0  0
 49 53  1  0  0  0
 49 64  1  0  0  0
 49121  1  0  0  0
 50 51  1  0  0  0
 50122  1  0  0  0
 50123  1  0  0  0
 51 52  1  0  0  0
 51124  1  0  0  0
 51125  1  0  0  0
 52126  1  0  0  0
 52127  1  0  0  0
 53 54  1  0  0  0
 54 55  2  0  0  0
 54128  1  0  0  0
 55 57  1  0  0  0
 55129  1  0  0  0
 56 69  2  0  0  0
 57 58  2  0  0  0
 57130  1  0  0  0
 58131  1  0  0  0
 59 60  1  0  0  0
 59 61  1  0  0  0
 59 62  1  0  0  0
 60132  1  0  0  0
 60133  1  0  0  0
 60134  1  0  0  0
 61135  1  0  0  0
 61136  1  0  0  0
 61137  1  0  0  0
 62138  1  0  0  0
 62139  1  0  0  0
 62140  1  0  0  0
 63 65  1  0  0  0
 63141  1  0  0  0
 63142  1  0  0  0
 63143  1  0  0  0
 64144  1  0  0  0
 65145  1  0  0  0
 68 82  1  0  0  0
 71 72  1  0  0  0
 71 73  2  0  0  0
 71 74  1  0  0  0
 72 83  1  0  0  0
 72 84  2  0  0  0
 73 77  1  0  0  0
 73 85  1  0  0  0
 74146  1  0  0  0
 74147  1  0  0  0
 74148  1  0  0  0
 75149  1  0  0  0
 75150  1  0  0  0
 75151  1  0  0  0
 75 83  1  0  0  0
 76 83  1  0  0  0
 76152  1  0  0  0
 76153  1  0  0  0
 76154  1  0  0  0
 77 78  1  0  0  0
 77155  1  0  0  0
 77156  1  0  0  0
 78 79  1  0  0  0
 78157  1  0  0  0
 78158  1  0  0  0
 79 82  1  0  0  0
 79159  1  0  0  0
 79160  1  0  0  0
 80 81  1  0  0  0
 80 85  1  0  0  0
 80161  1  0  0  0
 80162  1  0  0  0
 81 86  1  0  0  0
 81163  1  0  0  0
 81164  1  0  0  0
 82165  1  0  0  0
 82166  1  0  0  0
 83167  1  0  0  0
 84 85  1  0  0  0
 86168  1  0  0  0
M  ISO  4   1 100  68 101  82 101  86 100
M  END
> <chiral flag>
0

> <version>
0

> <s_m_source_file>
/data/baiqing/PycharmProjects/Reinvent-master-3.2/result/LINK_invent/BTK/process_docking_weight1_custom_sum_contain_oxygen_bond_distance_aromatic_linkinvent_7_9_3/rearranged_h_0087.sdf

> <i_m_source_file_index>
29

> <r_mmod_Potential_Energy-OPLS-2005>
-57.2582092285156

> <r_mmod_Stretch_Energy-OPLS-2005>
53.7112007141113

> <r_mmod_Bend_Energy-OPLS-2005>
121.401756286621

> <r_mmod_Torsional_Energy-OPLS-2005>
245.371627807617

> <r_mmod_Improper_Torsional_Energy-OPLS-2005>
4.65314483642578

> <r_mmod_Van_der_Waal_Energy-OPLS-2005>
117.136978149414

> <r_mmod_Electrostatic_Energy-OPLS-2005>
-403.843780517578

> <r_mmod_Solvation_Energy-OPLS-2005>
-217.811264038086

> <b_mmod_Minimization_Converged-OPLS-2005>
0

> <r_mmod_RMS_Derivative-OPLS-2005>
2.37626624107361

$$$$
30
                    3D
 Structure written by MMmdl.
164172  0  0  1  0            999 V2000
  -30.6132  -14.6889   20.4499 C   0  0  0  0  0  0
  -30.4200  -12.4038   19.4758 C   0  0  0  0  0  0
  -29.5049  -12.4929   18.2329 C   0  0  0  0  0  0
  -28.0264  -12.3501   18.6355 C   0  0  0  0  0  0
  -27.6427  -13.2295   19.8575 C   0  0  2  0  0  0
  -28.6882  -13.1231   20.9925 C   0  0  0  0  0  0
  -25.2540  -13.8166   20.5766 C   0  0  0  0  0  0
  -24.1797  -13.0383   20.9207 C   0  0  0  0  0  0
  -24.6404  -11.6868   20.8773 C   0  0  0  0  0  0
  -23.9075  -10.4253   21.0412 C   0  0  0  0  0  0
  -24.3554   -9.4174   21.9211 C   0  0  0  0  0  0
  -23.6181   -8.2233   22.0774 C   0  0  0  0  0  0
  -22.4236   -8.0217   21.3508 C   0  0  0  0  0  0
  -21.9856   -9.0217   20.4645 C   0  0  0  0  0  0
  -22.7224  -10.2101   20.3088 C   0  0  0  0  0  0
  -21.6819   -6.0688   22.5281 C   0  0  0  0  0  0
  -21.3993   -6.5610   23.8221 C   0  0  0  0  0  0
  -21.3691   -5.6768   24.9173 C   0  0  0  0  0  0
  -21.6035   -4.3035   24.7257 C   0  0  0  0  0  0
  -21.8786   -3.8113   23.4406 C   0  0  0  0  0  0
  -21.9170   -4.6902   22.3435 C   0  0  0  0  0  0
  -22.7851  -13.5205   21.1862 C   0  0  0  0  0  0
  -22.1626   -4.2057   21.1014 F   0  0  0  0  0  0
  -21.5691   -3.4539   25.7825 F   0  0  0  0  0  0
  -29.9915  -13.4646   20.4143 N   0  0  0  0  0  0
  -26.2944  -12.9373   20.3304 N   0  0  0  0  0  0
  -25.9352  -11.6513   20.5763 N   0  0  0  0  0  0
  -22.0450  -12.8204   22.0410 N   0  0  0  0  0  0
  -25.4254  -15.1839   20.4297 N   0  0  0  0  0  0
  -31.7997  -14.7958   20.1346 O   0  0  0  0  0  0
  -21.6621   -6.8794   21.4230 O   0  0  0  0  0  0
  -22.3603  -14.5508   20.6717 O   0  0  0  0  0  0
  -24.6283  -31.8559   23.2008 C   0  0  0  0  0  0
  -25.9142  -32.4738   23.8341 C   0  0  1  0  0  0
  -27.2444  -27.3131   20.1177 C   0  0  0  0  0  0
  -25.5982  -33.8540   24.2254 N   0  0  0  0  0  0
  -23.4258  -30.4831   21.5317 C   0  0  2  0  0  0
  -24.8862  -28.9457   20.1069 C   0  0  0  0  0  0
  -22.7477  -29.4645   22.4817 C   0  0  0  0  0  0
  -18.0312  -28.1409   22.8487 C   0  0  0  0  0  0
  -24.1508  -36.7250   23.2630 C   0  0  0  0  0  0
  -25.9660  -30.7936   21.3798 C   0  0  0  0  0  0
  -26.0477  -29.4183   20.7250 C   0  0  0  0  0  0
  -27.2210  -28.6065   20.7350 C   0  0  0  0  0  0
  -26.0581  -26.9173   19.4527 C   0  0  0  0  0  0
  -24.8941  -27.7027   19.4688 C   0  0  0  0  0  0
  -23.6493  -29.8101   20.1513 C   0  0  0  0  0  0
  -25.4126  -36.3000   24.0295 C   0  0  1  0  0  0
  -20.5920  -28.3707   23.1237 C   0  0  2  0  0  0
  -20.6788  -26.9418   22.5383 C   0  0  0  0  0  0
  -19.5746  -26.6401   21.5205 C   0  0  0  0  0  0
  -18.1943  -26.7953   22.1637 C   0  0  0  0  0  0
  -19.1566  -28.8859   23.2884 C   0  0  0  0  0  0
  -18.9491  -30.1465   23.8906 C   0  0  0  0  0  0
  -17.6482  -30.6604   24.0566 C   0  0  0  0  0  0
  -25.9046  -34.9392   23.5034 C   0  0  0  0  0  0
  -16.5369  -29.9114   23.6342 C   0  0  0  0  0  0
  -16.7292  -28.6535   23.0357 C   0  0  0  0  0  0
  -26.4535  -31.6551   25.0691 C   0  0  0  0  0  0
  -25.3791  -31.3750   26.1425 C   0  0  0  0  0  0
  -27.0381  -30.2957   24.6187 C   0  0  0  0  0  0
  -27.6047  -32.4296   25.7546 C   0  0  0  0  0  0
  -27.5570  -37.1771   24.8467 C   0  0  0  0  0  0
  -21.4180  -29.3074   22.3604 N   0  0  0  0  0  0
  -26.4293  -37.3706   23.9398 N   0  0  0  0  0  0
  -24.6903  -31.0624   22.0936 N   0  0  0  0  0  0
  -23.4174  -28.8157   23.2915 O   0  0  0  0  0  0
  -28.3707  -26.4682   20.2089 O   0  0  0  0  0  0
  -26.5561  -34.8868   22.4570 O   0  0  0  0  0  0
  -23.5440  -32.1330   23.7332 O   0  0  0  0  0  0
  -29.3728  -21.1986   20.3933 C   0  0  0  0  0  0
  -28.2555  -20.6392   17.9900 C   0  0  0  0  0  0
  -28.8819  -22.3371   19.6423 C   0  0  0  0  0  0
  -28.2730  -22.0013   18.3772 C   0  0  0  0  0  0
  -29.2483  -19.8381   19.9350 C   0  0  0  0  0  0
  -26.0183  -22.9774   17.7672 C   0  0  0  0  0  0
  -27.6986  -22.6834   15.9286 C   0  0  0  0  0  0
  -28.0381  -18.1794   21.4032 C   0  0  0  0  0  0
  -28.9827  -23.7959   20.3007 C   0  0  0  0  0  0
  -30.1409  -17.2462   20.1481 C   0  0  0  0  0  0
  -28.3642  -25.1038   19.6195 C   0  0  0  0  0  0
  -27.5172  -22.9650   17.4312 C   0  0  0  0  0  0
  -29.4197  -18.5273   20.8192 C   0  0  1  0  0  0
  -28.6947  -19.6073   18.7307 N   0  0  0  0  0  0
  -29.8237  -15.8146   20.5907 N   0  0  0  0  0  0
  -31.4724  -12.4952   19.1914 H   0  0  0  0  0  0
  -30.3188  -11.4214   19.9402 H   0  0  0  0  0  0
  -29.7674  -11.7207   17.5066 H   0  0  0  0  0  0
  -29.6598  -13.4558   17.7409 H   0  0  0  0  0  0
  -27.8509  -11.2931   18.8425 H   0  0  0  0  0  0
  -27.3810  -12.5959   17.7945 H   0  0  0  0  0  0
  -27.6438  -14.2633   19.5046 H   0  0  0  0  0  0
  -28.7282  -12.1079   21.3828 H   0  0  0  0  0  0
  -28.4360  -13.7716   21.8332 H   0  0  0  0  0  0
  -25.2676   -9.5604   22.4832 H   0  0  0  0  0  0
  -23.9836   -7.4622   22.7505 H   0  0  0  0  0  0
  -21.0755   -8.8728   19.8996 H   0  0  0  0  0  0
  -22.3620  -10.9606   19.6210 H   0  0  0  0  0  0
  -21.1957   -7.6112   23.9683 H   0  0  0  0  0  0
  -21.1574   -6.0524   25.9045 H   0  0  0  0  0  0
  -22.0548   -2.7562   23.2971 H   0  0  0  0  0  0
  -22.3895  -11.9807   22.4746 H   0  0  0  0  0  0
  -21.1110  -13.1334   22.2673 H   0  0  0  0  0  0
  -24.6822  -15.8496   20.6052 H   0  0  0  0  0  0
  -26.2966  -15.6146   20.1466 H   0  0  0  0  0  0
  -26.7187  -32.5431   23.1095 H   0  0  0  0  0  0
  -25.0238  -33.9710   25.0467 H   0  0  0  0  0  0
  -22.7219  -31.3030   21.3716 H   0  0  0  0  0  0
  -23.3742  -35.9617   23.3281 H   0  0  0  0  0  0
  -24.3593  -36.8889   22.2047 H   0  0  0  0  0  0
  -23.7333  -37.6467   23.6680 H   0  0  0  0  0  0
  -26.0957  -31.5710   20.6222 H   0  0  0  0  0  0
  -26.8419  -30.8447   22.0122 H   0  0  0  0  0  0
  -28.0997  -28.9564   21.2569 H   0  0  0  0  0  0
  -25.9702  -25.9989   18.8965 H   0  0  0  0  0  0
  -24.0053  -27.3514   18.9683 H   0  0  0  0  0  0
  -23.7534  -30.5711   19.3806 H   0  0  0  0  0  0
  -22.7859  -29.2142   19.8482 H   0  0  0  0  0  0
  -25.1342  -36.1789   25.0788 H   0  0  0  0  0  0
  -21.0054  -28.3302   24.1341 H   0  0  0  0  0  0
  -20.5716  -26.2302   23.3588 H   0  0  0  0  0  0
  -21.6645  -26.7458   22.1152 H   0  0  0  0  0  0
  -19.6899  -25.6319   21.1230 H   0  0  0  0  0  0
  -19.6697  -27.3204   20.6728 H   0  0  0  0  0  0
  -17.4202  -26.6700   21.4065 H   0  0  0  0  0  0
  -18.0367  -26.0130   22.9060 H   0  0  0  0  0  0
  -19.7961  -30.7304   24.2269 H   0  0  0  0  0  0
  -17.5039  -31.6292   24.5149 H   0  0  0  0  0  0
  -15.5364  -30.3002   23.7688 H   0  0  0  0  0  0
  -15.8703  -28.0857   22.7044 H   0  0  0  0  0  0
  -24.5951  -30.7091   25.7814 H   0  0  0  0  0  0
  -24.9013  -32.2939   26.4816 H   0  0  0  0  0  0
  -25.8143  -30.8982   27.0215 H   0  0  0  0  0  0
  -26.2952  -29.6717   24.1184 H   0  0  0  0  0  0
  -27.4015  -29.7223   25.4736 H   0  0  0  0  0  0
  -27.8869  -30.4192   23.9451 H   0  0  0  0  0  0
  -27.2562  -33.3555   26.2168 H   0  0  0  0  0  0
  -28.3923  -32.6944   25.0461 H   0  0  0  0  0  0
  -28.0653  -31.8385   26.5486 H   0  0  0  0  0  0
  -28.2558  -38.0083   24.7467 H   0  0  0  0  0  0
  -28.1079  -36.2601   24.6343 H   0  0  0  0  0  0
  -27.2254  -37.1465   25.8857 H   0  0  0  0  0  0
  -20.9320  -29.8801   21.6843 H   0  0  0  0  0  0
  -26.0130  -38.2758   24.1426 H   0  0  0  0  0  0
  -29.8024  -21.3657   21.3735 H   0  0  0  0  0  0
  -27.8031  -20.3239   17.0609 H   0  0  0  0  0  0
  -25.8545  -23.2436   18.8103 H   0  0  0  0  0  0
  -25.5772  -21.9940   17.6068 H   0  0  0  0  0  0
  -25.4719  -23.6966   17.1510 H   0  0  0  0  0  0
  -28.7500  -22.6246   15.6496 H   0  0  0  0  0  0
  -27.2565  -23.4868   15.3363 H   0  0  0  0  0  0
  -27.2059  -21.7650   15.6119 H   0  0  0  0  0  0
  -27.3269  -17.9880   20.5979 H   0  0  0  0  0  0
  -27.6456  -19.0213   21.9798 H   0  0  0  0  0  0
  -28.0557  -17.3054   22.0557 H   0  0  0  0  0  0
  -28.5318  -23.7050   21.2886 H   0  0  0  0  0  0
  -30.0357  -23.9920   20.5094 H   0  0  0  0  0  0
  -29.9248  -17.2815   19.0810 H   0  0  0  0  0  0
  -31.2207  -17.3895   20.1964 H   0  0  0  0  0  0
  -27.3570  -24.7791   19.4338 H   0  0  0  0  0  0
  -28.8837  -25.2622   18.6759 H   0  0  0  0  0  0
  -27.9016  -23.9655   17.5035 H   0  0  0  0  0  0
  -30.0389  -18.8233   21.6705 H   0  0  0  0  0  0
  -28.8455  -15.6248   20.7509 H   0  0  0  0  0  0
  1 25  1  0  0  0
  1 30  2  0  0  0
  1 85  1  0  0  0
  2  3  1  0  0  0
  2 25  1  0  0  0
  2 86  1  0  0  0
  2 87  1  0  0  0
  3  4  1  0  0  0
  3 88  1  0  0  0
  3 89  1  0  0  0
  4  5  1  0  0  0
  4 90  1  0  0  0
  4 91  1  0  0  0
  5  6  1  0  0  0
  5 26  1  0  0  0
  5 92  1  0  0  0
  6 25  1  0  0  0
  6 93  1  0  0  0
  6 94  1  0  0  0
  7  8  2  0  0  0
  7 26  1  0  0  0
  7 29  1  0  0  0
  8  9  1  0  0  0
  8 22  1  0  0  0
  9 10  1  0  0  0
  9 27  2  0  0  0
 10 11  2  0  0  0
 10 15  1  0  0  0
 11 12  1  0  0  0
 11 95  1  0  0  0
 12 13  2  0  0  0
 12 96  1  0  0  0
 13 14  1  0  0  0
 13 31  1  0  0  0
 14 15  2  0  0  0
 14 97  1  0  0  0
 15 98  1  0  0  0
 16 17  2  0  0  0
 16 21  1  0  0  0
 16 31  1  0  0  0
 17 18  1  0  0  0
 17 99  1  0  0  0
 18 19  2  0  0  0
 18100  1  0  0  0
 19 20  1  0  0  0
 19 24  1  0  0  0
 20 21  2  0  0  0
 20101  1  0  0  0
 21 23  1  0  0  0
 22 28  1  0  0  0
 22 32  2  0  0  0
 26 27  1  0  0  0
 28102  1  0  0  0
 28103  1  0  0  0
 29104  1  0  0  0
 29105  1  0  0  0
 33 34  1  0  0  0
 33 66  1  0  0  0
 33 70  2  0  0  0
 34 36  1  0  0  0
 34 59  1  0  0  0
 34106  1  0  0  0
 35 44  2  0  0  0
 35 45  1  0  0  0
 35 68  1  0  0  0
 36 56  1  0  0  0
 36107  1  0  0  0
 37 39  1  0  0  0
 37 47  1  0  0  0
 37 66  1  0  0  0
 37108  1  0  0  0
 38 43  2  0  0  0
 38 46  1  0  0  0
 38 47  1  0  0  0
 39 64  1  0  0  0
 39 67  2  0  0  0
 40 52  1  0  0  0
 40 53  2  0  0  0
 40 58  1  0  0  0
 41109  1  0  0  0
 41110  1  0  0  0
 41111  1  0  0  0
 41 48  1  0  0  0
 42 43  1  0  0  0
 42 66  1  0  0  0
 42112  1  0  0  0
 42113  1  0  0  0
 43 44  1  0  0  0
 44114  1  0  0  0
 45 46  2  0  0  0
 45115  1  0  0  0
 46116  1  0  0  0
 47117  1  0  0  0
 47118  1  0  0  0
 48 56  1  0  0  0
 48 65  1  0  0  0
 48119  1  0  0  0
 49 50  1  0  0  0
 49 53  1  0  0  0
 49 64  1  0  0  0
 49120  1  0  0  0
 50 51  1  0  0  0
 50121  1  0  0  0
 50122  1  0  0  0
 51 52  1  0  0  0
 51123  1  0  0  0
 51124  1  0  0  0
 52125  1  0  0  0
 52126  1  0  0  0
 53 54  1  0  0  0
 54 55  2  0  0  0
 54127  1  0  0  0
 55 57  1  0  0  0
 55128  1  0  0  0
 56 69  2  0  0  0
 57 58  2  0  0  0
 57129  1  0  0  0
 58130  1  0  0  0
 59 60  1  0  0  0
 59 61  1  0  0  0
 59 62  1  0  0  0
 60131  1  0  0  0
 60132  1  0  0  0
 60133  1  0  0  0
 61134  1  0  0  0
 61135  1  0  0  0
 61136  1  0  0  0
 62137  1  0  0  0
 62138  1  0  0  0
 62139  1  0  0  0
 63 65  1  0  0  0
 63140  1  0  0  0
 63141  1  0  0  0
 63142  1  0  0  0
 64143  1  0  0  0
 65144  1  0  0  0
 68 81  1  0  0  0
 71 73  2  0  0  0
 71 75  1  0  0  0
 71145  1  0  0  0
 72 74  2  0  0  0
 72 84  1  0  0  0
 72146  1  0  0  0
 73 74  1  0  0  0
 73 79  1  0  0  0
 74 82  1  0  0  0
 75 83  1  0  0  0
 75 84  2  0  0  0
 76147  1  0  0  0
 76148  1  0  0  0
 76149  1  0  0  0
 76 82  1  0  0  0
 77 82  1  0  0  0
 77150  1  0  0  0
 77151  1  0  0  0
 77152  1  0  0  0
 78153  1  0  0  0
 78154  1  0  0  0
 78155  1  0  0  0
 78 83  1  0  0  0
 79 81  1  0  0  0
 79156  1  0  0  0
 79157  1  0  0  0
 80 83  1  0  0  0
 80 85  1  0  0  0
 80158  1  0  0  0
 80159  1  0  0  0
 81160  1  0  0  0
 81161  1  0  0  0
 82162  1  0  0  0
 83163  1  0  0  0
 85164  1  0  0  0
M  ISO  4   1 100  68 101  81 101  85 100
M  END
> <chiral flag>
0

> <version>
0

> <s_m_source_file>
/data/baiqing/PycharmProjects/Reinvent-master-3.2/result/LINK_invent/BTK/process_docking_weight1_custom_sum_contain_oxygen_bond_distance_aromatic_linkinvent_7_9_3/rearranged_h_0087.sdf

> <i_m_source_file_index>
30

> <r_mmod_Potential_Energy-OPLS-2005>
34.1116333007812

> <r_mmod_Stretch_Energy-OPLS-2005>
110.72688293457

> <r_mmod_Bend_Energy-OPLS-2005>
188.511291503906

> <r_mmod_Torsional_Energy-OPLS-2005>
211.579879760742

> <r_mmod_Improper_Torsional_Energy-OPLS-2005>
8.5789680480957

> <r_mmod_Van_der_Waal_Energy-OPLS-2005>
163.891342163086

> <r_mmod_Electrostatic_Energy-OPLS-2005>
-494.061645507812

> <r_mmod_Solvation_Energy-OPLS-2005>
-216.580017089844

> <b_mmod_Minimization_Converged-OPLS-2005>
0

> <r_mmod_RMS_Derivative-OPLS-2005>
9.1256275177002

$$$$
31
                    3D
 Structure written by MMmdl.
167175  0  0  1  0            999 V2000
  -30.6418  -14.5442   20.5291 C   0  0  0  0  0  0
  -30.4395  -12.3344   19.4416 C   0  0  0  0  0  0
  -29.5067  -12.5053   18.2210 C   0  0  0  0  0  0
  -28.0272  -12.3560   18.6298 C   0  0  0  0  0  0
  -27.6649  -13.2030   19.8788 C   0  0  2  0  0  0
  -28.7074  -12.9950   21.0039 C   0  0  0  0  0  0
  -25.2606  -13.8146   20.5676 C   0  0  0  0  0  0
  -24.1847  -13.0434   20.9171 C   0  0  0  0  0  0
  -24.6396  -11.6904   20.8732 C   0  0  0  0  0  0
  -23.9055  -10.4292   21.0406 C   0  0  0  0  0  0
  -24.3606   -9.4207   21.9186 C   0  0  0  0  0  0
  -23.6285   -8.2241   22.0755 C   0  0  0  0  0  0
  -22.4270   -8.0279   21.3543 C   0  0  0  0  0  0
  -21.9904   -9.0250   20.4642 C   0  0  0  0  0  0
  -22.7228  -10.2131   20.3053 C   0  0  0  0  0  0
  -21.6850   -6.0732   22.5278 C   0  0  0  0  0  0
  -21.4010   -6.5637   23.8210 C   0  0  0  0  0  0
  -21.3658   -5.6790   24.9172 C   0  0  0  0  0  0
  -21.6046   -4.3054   24.7226 C   0  0  0  0  0  0
  -21.8820   -3.8144   23.4347 C   0  0  0  0  0  0
  -21.9193   -4.6959   22.3401 C   0  0  0  0  0  0
  -22.7871  -13.5240   21.1832 C   0  0  0  0  0  0
  -22.1662   -4.2145   21.0977 F   0  0  0  0  0  0
  -21.5631   -3.4537   25.7738 F   0  0  0  0  0  0
  -30.0374  -13.3222   20.4585 N   0  0  0  0  0  0
  -26.3044  -12.9307   20.3374 N   0  0  0  0  0  0
  -25.9327  -11.6475   20.5771 N   0  0  0  0  0  0
  -22.0503  -12.8240   22.0385 N   0  0  0  0  0  0
  -25.4342  -15.1859   20.4077 N   0  0  0  0  0  0
  -31.7541  -14.7699   20.0442 O   0  0  0  0  0  0
  -21.6638   -6.8873   21.4240 O   0  0  0  0  0  0
  -22.3561  -14.5546   20.6678 O   0  0  0  0  0  0
  -24.6184  -31.8641   23.2039 C   0  0  0  0  0  0
  -25.9052  -32.4804   23.8361 C   0  0  1  0  0  0
  -27.2417  -27.3858   20.0971 C   0  0  0  0  0  0
  -25.5887  -33.8600   24.2292 N   0  0  0  0  0  0
  -23.4102  -30.4839   21.5463 C   0  0  2  0  0  0
  -24.8570  -28.9406   20.1137 C   0  0  0  0  0  0
  -22.7436  -29.4625   22.4966 C   0  0  0  0  0  0
  -18.0274  -28.1381   22.8492 C   0  0  0  0  0  0
  -24.1486  -36.7317   23.2639 C   0  0  0  0  0  0
  -25.9421  -30.8121   21.3648 C   0  0  0  0  0  0
  -26.0183  -29.4412   20.7130 C   0  0  0  0  0  0
  -27.2079  -28.6698   20.7043 C   0  0  0  0  0  0
  -26.0508  -26.9045   19.5030 C   0  0  0  0  0  0
  -24.8699  -27.6728   19.5078 C   0  0  0  0  0  0
  -23.6216  -29.8124   20.1627 C   0  0  0  0  0  0
  -25.4108  -36.3107   24.0336 C   0  0  1  0  0  0
  -20.5865  -28.3670   23.1309 C   0  0  2  0  0  0
  -20.6762  -26.9399   22.5420 C   0  0  0  0  0  0
  -19.5746  -26.6384   21.5213 C   0  0  0  0  0  0
  -18.1920  -26.7925   22.1622 C   0  0  0  0  0  0
  -19.1525  -28.8841   23.2891 C   0  0  0  0  0  0
  -18.9453  -30.1444   23.8910 C   0  0  0  0  0  0
  -17.6454  -30.6587   24.0569 C   0  0  0  0  0  0
  -25.9040  -34.9470   23.5119 C   0  0  0  0  0  0
  -16.5346  -29.9086   23.6337 C   0  0  0  0  0  0
  -16.7261  -28.6503   23.0358 C   0  0  0  0  0  0
  -26.4456  -31.6596   25.0708 C   0  0  0  0  0  0
  -25.3702  -31.3718   26.1441 C   0  0  0  0  0  0
  -27.0285  -30.3035   24.6102 C   0  0  0  0  0  0
  -27.6027  -32.4318   25.7474 C   0  0  0  0  0  0
  -27.5586  -37.1807   24.8462 C   0  0  0  0  0  0
  -21.4155  -29.3030   22.3715 N   0  0  0  0  0  0
  -26.4299  -37.3788   23.9404 N   0  0  0  0  0  0
  -24.6759  -31.0684   22.0967 N   0  0  0  0  0  0
  -23.4187  -28.8175   23.3034 O   0  0  0  0  0  0
  -28.4234  -26.6517   20.1263 O   0  0  0  0  0  0
  -26.5616  -34.8935   22.4691 O   0  0  0  0  0  0
  -23.5363  -32.1417   23.7395 O   0  0  0  0  0  0
  -29.8838  -20.6200   20.6678 C   0  0  0  0  0  0
  -29.3017  -21.8187   21.1831 C   0  0  0  0  0  0
  -28.6108  -21.7100   22.4213 C   0  0  0  0  0  0
  -29.7438  -19.3897   21.3695 C   0  0  0  0  0  0
  -28.4200  -20.4228   22.9888 C   0  0  0  0  0  0
  -28.1405  -22.9504   23.1766 C   0  0  0  0  0  0
  -28.5372  -19.9002   25.4677 C   0  0  0  0  0  0
  -26.5555  -19.0789   24.0851 C   0  0  0  0  0  0
  -29.5317  -23.1905   20.4828 C   0  0  0  0  0  0
  -30.5099  -18.0794   21.0455 C   0  0  0  0  0  0
  -28.2785  -24.0716   20.1209 C   0  0  0  0  0  0
  -29.6713  -16.9162   20.4228 C   0  0  0  0  0  0
  -28.5792  -25.4182   19.3760 C   0  0  0  0  0  0
  -27.6144  -20.1804   24.2709 C   0  0  0  0  0  0
  -28.9943  -19.3129   22.4823 N   0  0  0  0  0  0
  -29.8438  -15.5414   20.9739 N   0  0  0  0  0  0
  -31.4826  -12.4510   19.1416 H   0  0  0  0  0  0
  -30.3595  -11.3250   19.8481 H   0  0  0  0  0  0
  -29.7563  -11.7731   17.4521 H   0  0  0  0  0  0
  -29.6646  -13.4862   17.7700 H   0  0  0  0  0  0
  -27.8460  -11.3000   18.8351 H   0  0  0  0  0  0
  -27.3762  -12.6158   17.7943 H   0  0  0  0  0  0
  -27.7040  -14.2474   19.5704 H   0  0  0  0  0  0
  -28.6951  -11.9582   21.3425 H   0  0  0  0  0  0
  -28.4605  -13.5899   21.8848 H   0  0  0  0  0  0
  -25.2754   -9.5685   22.4758 H   0  0  0  0  0  0
  -23.9992   -7.4636   22.7483 H   0  0  0  0  0  0
  -21.0833   -8.8768   19.8949 H   0  0  0  0  0  0
  -22.3689  -10.9669   19.6157 H   0  0  0  0  0  0
  -21.1999   -7.6146   23.9711 H   0  0  0  0  0  0
  -21.1481   -6.0521   25.9074 H   0  0  0  0  0  0
  -22.0601   -2.7607   23.2850 H   0  0  0  0  0  0
  -22.4109  -11.9892   22.4771 H   0  0  0  0  0  0
  -21.1120  -13.1268   22.2581 H   0  0  0  0  0  0
  -24.6697  -15.8436   20.5159 H   0  0  0  0  0  0
  -26.2894  -15.6234   20.0894 H   0  0  0  0  0  0
  -26.7123  -32.5504   23.1122 H   0  0  0  0  0  0
  -24.9989  -33.9748   25.0402 H   0  0  0  0  0  0
  -22.7006  -31.3011   21.4029 H   0  0  0  0  0  0
  -23.3746  -35.9654   23.3306 H   0  0  0  0  0  0
  -24.3575  -36.8934   22.2054 H   0  0  0  0  0  0
  -23.7245  -37.6521   23.6657 H   0  0  0  0  0  0
  -26.0560  -31.5732   20.5920 H   0  0  0  0  0  0
  -26.8290  -30.8694   21.9839 H   0  0  0  0  0  0
  -28.1045  -29.0519   21.1730 H   0  0  0  0  0  0
  -26.0055  -25.9271   19.0469 H   0  0  0  0  0  0
  -23.9740  -27.2777   19.0491 H   0  0  0  0  0  0
  -23.7335  -30.5848   19.4007 H   0  0  0  0  0  0
  -22.7445  -29.2328   19.8690 H   0  0  0  0  0  0
  -25.1281  -36.1980   25.0831 H   0  0  0  0  0  0
  -20.9950  -28.3245   24.1434 H   0  0  0  0  0  0
  -20.5679  -26.2266   23.3610 H   0  0  0  0  0  0
  -21.6630  -26.7448   22.1206 H   0  0  0  0  0  0
  -19.6914  -25.6295   21.1241 H   0  0  0  0  0  0
  -19.6705  -27.3201   20.6748 H   0  0  0  0  0  0
  -17.4194  -26.6683   21.4018 H   0  0  0  0  0  0
  -18.0316  -26.0061   22.9014 H   0  0  0  0  0  0
  -19.7933  -30.7245   24.2298 H   0  0  0  0  0  0
  -17.5018  -31.6276   24.5153 H   0  0  0  0  0  0
  -15.5349  -30.2994   23.7655 H   0  0  0  0  0  0
  -15.8657  -28.0828   22.7069 H   0  0  0  0  0  0
  -24.5880  -30.7062   25.7768 H   0  0  0  0  0  0
  -24.8873  -32.2874   26.4873 H   0  0  0  0  0  0
  -25.8029  -30.8896   27.0218 H   0  0  0  0  0  0
  -26.2839  -29.6796   24.1139 H   0  0  0  0  0  0
  -27.4026  -29.7272   25.4571 H   0  0  0  0  0  0
  -27.8687  -30.4337   23.9273 H   0  0  0  0  0  0
  -27.2651  -33.3616   26.2065 H   0  0  0  0  0  0
  -28.3829  -32.6882   25.0294 H   0  0  0  0  0  0
  -28.0702  -31.8434   26.5380 H   0  0  0  0  0  0
  -28.2595  -38.0108   24.7502 H   0  0  0  0  0  0
  -28.1090  -36.2638   24.6297 H   0  0  0  0  0  0
  -27.2299  -37.1462   25.8863 H   0  0  0  0  0  0
  -20.9328  -29.8743   21.6921 H   0  0  0  0  0  0
  -26.0197  -38.2873   24.1399 H   0  0  0  0  0  0
  -30.4913  -20.6553   19.7736 H   0  0  0  0  0  0
  -28.7032  -23.8418   22.9057 H   0  0  0  0  0  0
  -28.2973  -22.8418   24.2498 H   0  0  0  0  0  0
  -27.0805  -23.1328   23.0004 H   0  0  0  0  0  0
  -29.2319  -20.7268   25.6215 H   0  0  0  0  0  0
  -29.1273  -18.9975   25.3090 H   0  0  0  0  0  0
  -27.9670  -19.7696   26.3875 H   0  0  0  0  0  0
  -25.8983  -19.3119   23.2466 H   0  0  0  0  0  0
  -25.9336  -18.9756   24.9742 H   0  0  0  0  0  0
  -27.0132  -18.1089   23.8885 H   0  0  0  0  0  0
  -30.0889  -23.0043   19.5634 H   0  0  0  0  0  0
  -30.2063  -23.7768   21.1076 H   0  0  0  0  0  0
  -30.9678  -17.7328   21.9730 H   0  0  0  0  0  0
  -31.3461  -18.3124   20.3855 H   0  0  0  0  0  0
  -27.6639  -24.2947   20.9892 H   0  0  0  0  0  0
  -27.6402  -23.4683   19.4751 H   0  0  0  0  0  0
  -29.8142  -16.9022   19.3411 H   0  0  0  0  0  0
  -28.6160  -17.1518   20.5616 H   0  0  0  0  0  0
  -28.0221  -25.4634   18.4402 H   0  0  0  0  0  0
  -29.6191  -25.3979   19.0485 H   0  0  0  0  0  0
  -27.0408  -21.0737   24.5080 H   0  0  0  0  0  0
  -29.0321  -15.2004   21.4684 H   0  0  0  0  0  0
  1 25  1  0  0  0
  1 30  2  0  0  0
  1 86  1  0  0  0
  2  3  1  0  0  0
  2 25  1  0  0  0
  2 87  1  0  0  0
  2 88  1  0  0  0
  3  4  1  0  0  0
  3 89  1  0  0  0
  3 90  1  0  0  0
  4  5  1  0  0  0
  4 91  1  0  0  0
  4 92  1  0  0  0
  5  6  1  0  0  0
  5 26  1  0  0  0
  5 93  1  0  0  0
  6 25  1  0  0  0
  6 94  1  0  0  0
  6 95  1  0  0  0
  7  8  2  0  0  0
  7 26  1  0  0  0
  7 29  1  0  0  0
  8  9  1  0  0  0
  8 22  1  0  0  0
  9 10  1  0  0  0
  9 27  2  0  0  0
 10 11  2  0  0  0
 10 15  1  0  0  0
 11 12  1  0  0  0
 11 96  1  0  0  0
 12 13  2  0  0  0
 12 97  1  0  0  0
 13 14  1  0  0  0
 13 31  1  0  0  0
 14 15  2  0  0  0
 14 98  1  0  0  0
 15 99  1  0  0  0
 16 17  2  0  0  0
 16 21  1  0  0  0
 16 31  1  0  0  0
 17 18  1  0  0  0
 17100  1  0  0  0
 18 19  2  0  0  0
 18101  1  0  0  0
 19 20  1  0  0  0
 19 24  1  0  0  0
 20 21  2  0  0  0
 20102  1  0  0  0
 21 23  1  0  0  0
 22 28  1  0  0  0
 22 32  2  0  0  0
 26 27  1  0  0  0
 28103  1  0  0  0
 28104  1  0  0  0
 29105  1  0  0  0
 29106  1  0  0  0
 33 34  1  0  0  0
 33 66  1  0  0  0
 33 70  2  0  0  0
 34 36  1  0  0  0
 34 59  1  0  0  0
 34107  1  0  0  0
 35 44  2  0  0  0
 35 45  1  0  0  0
 35 68  1  0  0  0
 36 56  1  0  0  0
 36108  1  0  0  0
 37 39  1  0  0  0
 37 47  1  0  0  0
 37 66  1  0  0  0
 37109  1  0  0  0
 38 43  2  0  0  0
 38 46  1  0  0  0
 38 47  1  0  0  0
 39 64  1  0  0  0
 39 67  2  0  0  0
 40 52  1  0  0  0
 40 53  2  0  0  0
 40 58  1  0  0  0
 41110  1  0  0  0
 41111  1  0  0  0
 41112  1  0  0  0
 41 48  1  0  0  0
 42 43  1  0  0  0
 42 66  1  0  0  0
 42113  1  0  0  0
 42114  1  0  0  0
 43 44  1  0  0  0
 44115  1  0  0  0
 45 46  2  0  0  0
 45116  1  0  0  0
 46117  1  0  0  0
 47118  1  0  0  0
 47119  1  0  0  0
 48 56  1  0  0  0
 48 65  1  0  0  0
 48120  1  0  0  0
 49 50  1  0  0  0
 49 53  1  0  0  0
 49 64  1  0  0  0
 49121  1  0  0  0
 50 51  1  0  0  0
 50122  1  0  0  0
 50123  1  0  0  0
 51 52  1  0  0  0
 51124  1  0  0  0
 51125  1  0  0  0
 52126  1  0  0  0
 52127  1  0  0  0
 53 54  1  0  0  0
 54 55  2  0  0  0
 54128  1  0  0  0
 55 57  1  0  0  0
 55129  1  0  0  0
 56 69  2  0  0  0
 57 58  2  0  0  0
 57130  1  0  0  0
 58131  1  0  0  0
 59 60  1  0  0  0
 59 61  1  0  0  0
 59 62  1  0  0  0
 60132  1  0  0  0
 60133  1  0  0  0
 60134  1  0  0  0
 61135  1  0  0  0
 61136  1  0  0  0
 61137  1  0  0  0
 62138  1  0  0  0
 62139  1  0  0  0
 62140  1  0  0  0
 63 65  1  0  0  0
 63141  1  0  0  0
 63142  1  0  0  0
 63143  1  0  0  0
 64144  1  0  0  0
 65145  1  0  0  0
 68 83  1  0  0  0
 71 72  2  0  0  0
 71 74  1  0  0  0
 71146  1  0  0  0
 72 73  1  0  0  0
 72 79  1  0  0  0
 73 75  2  0  0  0
 73 76  1  0  0  0
 74 80  1  0  0  0
 74 85  2  0  0  0
 75 84  1  0  0  0
 75 85  1  0  0  0
 76147  1  0  0  0
 76148  1  0  0  0
 76149  1  0  0  0
 77150  1  0  0  0
 77151  1  0  0  0
 77152  1  0  0  0
 77 84  1  0  0  0
 78 84  1  0  0  0
 78153  1  0  0  0
 78154  1  0  0  0
 78155  1  0  0  0
 79 81  1  0  0  0
 79156  1  0  0  0
 79157  1  0  0  0
 80 82  1  0  0  0
 80158  1  0  0  0
 80159  1  0  0  0
 81 83  1  0  0  0
 81160  1  0  0  0
 81161  1  0  0  0
 82 86  1  0  0  0
 82162  1  0  0  0
 82163  1  0  0  0
 83164  1  0  0  0
 83165  1  0  0  0
 84166  1  0  0  0
 86167  1  0  0  0
M  ISO  4   1 100  68 101  83 101  86 100
M  END
> <chiral flag>
0

> <version>
0

> <s_m_source_file>
/data/baiqing/PycharmProjects/Reinvent-master-3.2/result/LINK_invent/BTK/process_docking_weight1_custom_sum_contain_oxygen_bond_distance_aromatic_linkinvent_7_9_3/rearranged_h_0087.sdf

> <i_m_source_file_index>
31

> <r_mmod_Potential_Energy-OPLS-2005>
-186.908294677734

> <r_mmod_Stretch_Energy-OPLS-2005>
54.9774284362793

> <r_mmod_Bend_Energy-OPLS-2005>
129.004470825195

> <r_mmod_Torsional_Energy-OPLS-2005>
217.849533081055

> <r_mmod_Improper_Torsional_Energy-OPLS-2005>
7.66359758377075

> <r_mmod_Van_der_Waal_Energy-OPLS-2005>
153.061630249023

> <r_mmod_Electrostatic_Energy-OPLS-2005>
-557.923645019531

> <r_mmod_Solvation_Energy-OPLS-2005>
-214.324310302734

> <b_mmod_Minimization_Converged-OPLS-2005>
0

> <r_mmod_RMS_Derivative-OPLS-2005>
1.16233170032501

$$$$
32
                    3D
 Structure written by MMmdl.
185193  0  0  1  0            999 V2000
  -30.7892  -14.3271   20.7723 C   0  0  0  0  0  0
  -30.4023  -12.3123   19.3848 C   0  0  0  0  0  0
  -29.4709  -12.5452   18.1838 C   0  0  0  0  0  0
  -27.9992  -12.3804   18.6014 C   0  0  0  0  0  0
  -27.6528  -13.2027   19.8697 C   0  0  2  0  0  0
  -28.6839  -12.9503   20.9867 C   0  0  0  0  0  0
  -25.2537  -13.8161   20.5671 C   0  0  0  0  0  0
  -24.1795  -13.0442   20.9148 C   0  0  0  0  0  0
  -24.6336  -11.6894   20.8697 C   0  0  0  0  0  0
  -23.9024  -10.4287   21.0370 C   0  0  0  0  0  0
  -24.3585   -9.4221   21.9166 C   0  0  0  0  0  0
  -23.6265   -8.2248   22.0759 C   0  0  0  0  0  0
  -22.4258   -8.0253   21.3535 C   0  0  0  0  0  0
  -21.9871   -9.0238   20.4650 C   0  0  0  0  0  0
  -22.7186  -10.2113   20.3044 C   0  0  0  0  0  0
  -21.6845   -6.0718   22.5275 C   0  0  0  0  0  0
  -21.4019   -6.5638   23.8209 C   0  0  0  0  0  0
  -21.3666   -5.6782   24.9177 C   0  0  0  0  0  0
  -21.6042   -4.3046   24.7222 C   0  0  0  0  0  0
  -21.8816   -3.8128   23.4356 C   0  0  0  0  0  0
  -21.9200   -4.6943   22.3404 C   0  0  0  0  0  0
  -22.7824  -13.5233   21.1858 C   0  0  0  0  0  0
  -22.1656   -4.2126   21.0974 F   0  0  0  0  0  0
  -21.5640   -3.4534   25.7750 F   0  0  0  0  0  0
  -30.0267  -13.2491   20.4563 N   0  0  0  0  0  0
  -26.2954  -12.9314   20.3301 N   0  0  0  0  0  0
  -25.9241  -11.6479   20.5693 N   0  0  0  0  0  0
  -22.0474  -12.8222   22.0401 N   0  0  0  0  0  0
  -25.4316  -15.1883   20.4145 N   0  0  0  0  0  0
  -31.7970  -14.6391   20.1301 O   0  0  0  0  0  0
  -21.6630   -6.8849   21.4231 O   0  0  0  0  0  0
  -22.3509  -14.5549   20.6698 O   0  0  0  0  0  0
  -24.6093  -31.8719   23.2091 C   0  0  0  0  0  0
  -25.9008  -32.4858   23.8384 C   0  0  1  0  0  0
  -27.2546  -27.4999   20.1364 C   0  0  0  0  0  0
  -25.5846  -33.8649   24.2298 N   0  0  0  0  0  0
  -23.3907  -30.4961   21.5498 C   0  0  2  0  0  0
  -24.8357  -28.9630   20.1129 C   0  0  0  0  0  0
  -22.7366  -29.4698   22.5025 C   0  0  0  0  0  0
  -18.0223  -28.1376   22.8436 C   0  0  0  0  0  0
  -24.1505  -36.7393   23.2639 C   0  0  0  0  0  0
  -25.9039  -30.8803   21.3282 C   0  0  0  0  0  0
  -25.9895  -29.5213   20.6701 C   0  0  0  0  0  0
  -27.2039  -28.8203   20.6327 C   0  0  0  0  0  0
  -26.0893  -26.9473   19.5602 C   0  0  0  0  0  0
  -24.8805  -27.6790   19.5390 C   0  0  0  0  0  0
  -23.5894  -29.8198   20.1637 C   0  0  0  0  0  0
  -25.4105  -36.3129   24.0322 C   0  0  1  0  0  0
  -20.5826  -28.3658   23.1332 C   0  0  2  0  0  0
  -20.6761  -26.9390   22.5435 C   0  0  0  0  0  0
  -19.5757  -26.6346   21.5204 C   0  0  0  0  0  0
  -18.1890  -26.7909   22.1563 C   0  0  0  0  0  0
  -19.1488  -28.8805   23.2868 C   0  0  0  0  0  0
  -18.9454  -30.1391   23.8900 C   0  0  0  0  0  0
  -17.6471  -30.6575   24.0530 C   0  0  0  0  0  0
  -25.9007  -34.9507   23.5131 C   0  0  0  0  0  0
  -16.5342  -29.9092   23.6333 C   0  0  0  0  0  0
  -16.7206  -28.6514   23.0327 C   0  0  0  0  0  0
  -26.4430  -31.6619   25.0690 C   0  0  0  0  0  0
  -25.3657  -31.3711   26.1409 C   0  0  0  0  0  0
  -27.0282  -30.3077   24.5987 C   0  0  0  0  0  0
  -27.5973  -32.4358   25.7447 C   0  0  0  0  0  0
  -27.5572  -37.1822   24.8412 C   0  0  0  0  0  0
  -21.4087  -29.3065   22.3789 N   0  0  0  0  0  0
  -26.4285  -37.3803   23.9375 N   0  0  0  0  0  0
  -24.6550  -31.0941   22.0904 N   0  0  0  0  0  0
  -23.4182  -28.8198   23.3009 O   0  0  0  0  0  0
  -28.3940  -26.7235   20.2368 O   0  0  0  0  0  0
  -26.5571  -34.8975   22.4694 O   0  0  0  0  0  0
  -23.5332  -32.1401   23.7560 O   0  0  0  0  0  0
  -30.6673  -22.3245   21.7381 C   0  0  0  0  0  0
  -30.8038  -20.9531   22.0359 C   0  0  0  0  0  0
  -30.9391  -23.3009   22.7171 C   0  0  0  0  0  0
  -31.2177  -20.5771   23.3388 C   0  0  0  0  0  0
  -31.3031  -22.8334   24.0034 C   0  0  0  0  0  0
  -30.5637  -19.9690   20.9099 C   0  0  0  0  0  0
  -31.6772  -23.7692   25.1442 C   0  0  0  0  0  0
  -28.0870  -25.6785   23.9546 C   0  0  0  0  0  0
  -29.8796  -17.5094   24.3703 C   0  0  0  0  0  0
  -32.8534  -16.9082   21.8722 C   0  0  0  0  0  0
  -32.9870  -16.5605   24.3448 C   0  0  0  0  0  0
  -29.6004  -27.6595   22.1954 C   0  0  0  0  0  0
  -30.9577  -24.7990   22.3464 C   0  0  0  0  0  0
  -31.7285  -19.1790   23.7534 C   0  0  0  0  0  0
  -27.7651  -25.8724   22.4654 C   0  0  0  0  0  0
  -29.9514  -25.2969   21.2504 C   0  0  0  0  0  0
  -31.3786  -15.2255   23.0303 C   0  0  0  0  0  0
  -30.9966  -17.8398   23.3578 C   0  0  1  0  0  0
  -32.0165  -16.6517   23.1421 C   0  0  0  0  0  0
  -28.9180  -26.4185   21.5663 C   0  0  1  0  0  0
  -31.4233  -21.5168   24.2905 N   0  0  0  0  0  0
  -30.4521  -14.9176   21.9314 N   0  0  0  0  0  0
  -31.4447  -12.4216   19.0792 H   0  0  0  0  0  0
  -30.3068  -11.2853   19.7429 H   0  0  0  0  0  0
  -29.7090  -11.8527   17.3762 H   0  0  0  0  0  0
  -29.6280  -13.5486   17.7854 H   0  0  0  0  0  0
  -27.8151  -11.3212   18.7834 H   0  0  0  0  0  0
  -27.3401  -12.6640   17.7801 H   0  0  0  0  0  0
  -27.7109  -14.2552   19.5943 H   0  0  0  0  0  0
  -28.6475  -11.9067   21.3033 H   0  0  0  0  0  0
  -28.4110  -13.5276   21.8697 H   0  0  0  0  0  0
  -25.2728   -9.5711   22.4737 H   0  0  0  0  0  0
  -23.9992   -7.4645   22.7469 H   0  0  0  0  0  0
  -21.0808   -8.8720   19.8952 H   0  0  0  0  0  0
  -22.3616  -10.9646   19.6146 H   0  0  0  0  0  0
  -21.2000   -7.6140   23.9703 H   0  0  0  0  0  0
  -21.1497   -6.0523   25.9081 H   0  0  0  0  0  0
  -22.0589   -2.7594   23.2859 H   0  0  0  0  0  0
  -22.4091  -11.9874   22.4774 H   0  0  0  0  0  0
  -21.1095  -13.1239   22.2621 H   0  0  0  0  0  0
  -24.6771  -15.8526   20.5506 H   0  0  0  0  0  0
  -26.3003  -15.6262   20.1344 H   0  0  0  0  0  0
  -26.7058  -32.5619   23.1144 H   0  0  0  0  0  0
  -24.9990  -33.9762   25.0443 H   0  0  0  0  0  0
  -22.6723  -31.3115   21.4192 H   0  0  0  0  0  0
  -23.3715  -35.9794   23.3313 H   0  0  0  0  0  0
  -24.3565  -36.9026   22.2047 H   0  0  0  0  0  0
  -23.7380  -37.6647   23.6681 H   0  0  0  0  0  0
  -25.9825  -31.6601   20.5678 H   0  0  0  0  0  0
  -26.7979  -30.9428   21.9305 H   0  0  0  0  0  0
  -28.0875  -29.3207   20.9880 H   0  0  0  0  0  0
  -26.1071  -25.9370   19.1785 H   0  0  0  0  0  0
  -23.9903  -27.2403   19.1171 H   0  0  0  0  0  0
  -23.6880  -30.5968   19.4018 H   0  0  0  0  0  0
  -22.7174  -29.2284   19.8807 H   0  0  0  0  0  0
  -25.1277  -36.1984   25.0815 H   0  0  0  0  0  0
  -20.9816  -28.3234   24.1489 H   0  0  0  0  0  0
  -20.5729  -26.2239   23.3599 H   0  0  0  0  0  0
  -21.6642  -26.7496   22.1215 H   0  0  0  0  0  0
  -19.6980  -25.6243   21.1267 H   0  0  0  0  0  0
  -19.6781  -27.3156   20.6728 H   0  0  0  0  0  0
  -17.4210  -26.6612   21.3916 H   0  0  0  0  0  0
  -18.0260  -26.0066   22.8985 H   0  0  0  0  0  0
  -19.7962  -30.7116   24.2332 H   0  0  0  0  0  0
  -17.5079  -31.6303   24.5098 H   0  0  0  0  0  0
  -15.5361  -30.3023   23.7713 H   0  0  0  0  0  0
  -15.8575  -28.0856   22.7115 H   0  0  0  0  0  0
  -24.5826  -30.7067   25.7688 H   0  0  0  0  0  0
  -24.8833  -32.2884   26.4821 H   0  0  0  0  0  0
  -25.7970  -30.8879   27.0185 H   0  0  0  0  0  0
  -26.2845  -29.6757   24.1085 H   0  0  0  0  0  0
  -27.4165  -29.7354   25.4416 H   0  0  0  0  0  0
  -27.8594  -30.4410   23.9035 H   0  0  0  0  0  0
  -27.2561  -33.3695   26.1943 H   0  0  0  0  0  0
  -28.3783  -32.6885   25.0245 H   0  0  0  0  0  0
  -28.0582  -31.8534   26.5397 H   0  0  0  0  0  0
  -28.2528  -38.0170   24.7506 H   0  0  0  0  0  0
  -28.1140  -36.2720   24.6185 H   0  0  0  0  0  0
  -27.2275  -37.1367   25.8798 H   0  0  0  0  0  0
  -20.9208  -29.8902   21.7123 H   0  0  0  0  0  0
  -26.0170  -38.2883   24.1423 H   0  0  0  0  0  0
  -30.4141  -22.6190   20.7325 H   0  0  0  0  0  0
  -30.4908  -20.4820   19.9491 H   0  0  0  0  0  0
  -29.6236  -19.4398   21.0705 H   0  0  0  0  0  0
  -31.3837  -19.2572   20.8289 H   0  0  0  0  0  0
  -30.8829  -24.4872   25.3350 H   0  0  0  0  0  0
  -32.5854  -24.3217   24.9036 H   0  0  0  0  0  0
  -31.8590  -23.2358   26.0798 H   0  0  0  0  0  0
  -28.2373  -26.6331   24.4654 H   0  0  0  0  0  0
  -28.9669  -25.0656   24.1253 H   0  0  0  0  0  0
  -27.2525  -25.1794   24.4444 H   0  0  0  0  0  0
  -29.2145  -18.3612   24.5102 H   0  0  0  0  0  0
  -30.2720  -17.2396   25.3502 H   0  0  0  0  0  0
  -29.2580  -16.6848   24.0207 H   0  0  0  0  0  0
  -33.5080  -16.0639   21.6515 H   0  0  0  0  0  0
  -33.4988  -17.7801   21.9495 H   0  0  0  0  0  0
  -32.2187  -17.0616   21.0002 H   0  0  0  0  0  0
  -33.6238  -15.6758   24.2864 H   0  0  0  0  0  0
  -32.4509  -16.4994   25.2928 H   0  0  0  0  0  0
  -33.6657  -17.4108   24.4122 H   0  0  0  0  0  0
  -30.2365  -27.4157   23.0413 H   0  0  0  0  0  0
  -28.8696  -28.3467   22.6162 H   0  0  0  0  0  0
  -30.2149  -28.1909   21.4661 H   0  0  0  0  0  0
  -31.9635  -24.9760   21.9654 H   0  0  0  0  0  0
  -30.9165  -25.4205   23.2365 H   0  0  0  0  0  0
  -31.8705  -19.1664   24.8360 H   0  0  0  0  0  0
  -32.7404  -19.1779   23.3592 H   0  0  0  0  0  0
  -26.9131  -26.5495   22.4543 H   0  0  0  0  0  0
  -27.3991  -24.9359   22.0413 H   0  0  0  0  0  0
  -29.3928  -24.4693   20.8181 H   0  0  0  0  0  0
  -30.5613  -25.6779   20.4290 H   0  0  0  0  0  0
  -30.8444  -14.9964   23.9547 H   0  0  0  0  0  0
  -32.1700  -14.4710   22.9982 H   0  0  0  0  0  0
  -30.4885  -17.9577   22.4099 H   0  0  0  0  0  0
  -29.5397  -14.6301   22.2532 H   0  0  0  0  0  0
  1 25  1  0  0  0
  1 30  2  0  0  0
  1 92  1  0  0  0
  2  3  1  0  0  0
  2 25  1  0  0  0
  2 93  1  0  0  0
  2 94  1  0  0  0
  3  4  1  0  0  0
  3 95  1  0  0  0
  3 96  1  0  0  0
  4  5  1  0  0  0
  4 97  1  0  0  0
  4 98  1  0  0  0
  5  6  1  0  0  0
  5 26  1  0  0  0
  5 99  1  0  0  0
  6 25  1  0  0  0
  6100  1  0  0  0
  6101  1  0  0  0
  7  8  2  0  0  0
  7 26  1  0  0  0
  7 29  1  0  0  0
  8  9  1  0  0  0
  8 22  1  0  0  0
  9 10  1  0  0  0
  9 27  2  0  0  0
 10 11  2  0  0  0
 10 15  1  0  0  0
 11 12  1  0  0  0
 11102  1  0  0  0
 12 13  2  0  0  0
 12103  1  0  0  0
 13 14  1  0  0  0
 13 31  1  0  0  0
 14 15  2  0  0  0
 14104  1  0  0  0
 15105  1  0  0  0
 16 17  2  0  0  0
 16 21  1  0  0  0
 16 31  1  0  0  0
 17 18  1  0  0  0
 17106  1  0  0  0
 18 19  2  0  0  0
 18107  1  0  0  0
 19 20  1  0  0  0
 19 24  1  0  0  0
 20 21  2  0  0  0
 20108  1  0  0  0
 21 23  1  0  0  0
 22 28  1  0  0  0
 22 32  2  0  0  0
 26 27  1  0  0  0
 28109  1  0  0  0
 28110  1  0  0  0
 29111  1  0  0  0
 29112  1  0  0  0
 33 34  1  0  0  0
 33 66  1  0  0  0
 33 70  2  0  0  0
 34 36  1  0  0  0
 34 59  1  0  0  0
 34113  1  0  0  0
 35 44  2  0  0  0
 35 45  1  0  0  0
 35 68  1  0  0  0
 36 56  1  0  0  0
 36114  1  0  0  0
 37 39  1  0  0  0
 37 47  1  0  0  0
 37 66  1  0  0  0
 37115  1  0  0  0
 38 43  2  0  0  0
 38 46  1  0  0  0
 38 47  1  0  0  0
 39 64  1  0  0  0
 39 67  2  0  0  0
 40 52  1  0  0  0
 40 53  2  0  0  0
 40 58  1  0  0  0
 41116  1  0  0  0
 41117  1  0  0  0
 41118  1  0  0  0
 41 48  1  0  0  0
 42 43  1  0  0  0
 42 66  1  0  0  0
 42119  1  0  0  0
 42120  1  0  0  0
 43 44  1  0  0  0
 44121  1  0  0  0
 45 46  2  0  0  0
 45122  1  0  0  0
 46123  1  0  0  0
 47124  1  0  0  0
 47125  1  0  0  0
 48 56  1  0  0  0
 48 65  1  0  0  0
 48126  1  0  0  0
 49 50  1  0  0  0
 49 53  1  0  0  0
 49 64  1  0  0  0
 49127  1  0  0  0
 50 51  1  0  0  0
 50128  1  0  0  0
 50129  1  0  0  0
 51 52  1  0  0  0
 51130  1  0  0  0
 51131  1  0  0  0
 52132  1  0  0  0
 52133  1  0  0  0
 53 54  1  0  0  0
 54 55  2  0  0  0
 54134  1  0  0  0
 55 57  1  0  0  0
 55135  1  0  0  0
 56 69  2  0  0  0
 57 58  2  0  0  0
 57136  1  0  0  0
 58137  1  0  0  0
 59 60  1  0  0  0
 59 61  1  0  0  0
 59 62  1  0  0  0
 60138  1  0  0  0
 60139  1  0  0  0
 60140  1  0  0  0
 61141  1  0  0  0
 61142  1  0  0  0
 61143  1  0  0  0
 62144  1  0  0  0
 62145  1  0  0  0
 62146  1  0  0  0
 63 65  1  0  0  0
 63147  1  0  0  0
 63148  1  0  0  0
 63149  1  0  0  0
 64150  1  0  0  0
 65151  1  0  0  0
 68 90  1  0  0  0
 71 72  2  0  0  0
 71 73  1  0  0  0
 71152  1  0  0  0
 72 74  1  0  0  0
 72 76  1  0  0  0
 73 75  2  0  0  0
 73 83  1  0  0  0
 74 84  1  0  0  0
 74 91  2  0  0  0
 75 77  1  0  0  0
 75 91  1  0  0  0
 76153  1  0  0  0
 76154  1  0  0  0
 76155  1  0  0  0
 77156  1  0  0  0
 77157  1  0  0  0
 77158  1  0  0  0
 78 85  1  0  0  0
 78159  1  0  0  0
 78160  1  0  0  0
 78161  1  0  0  0
 79162  1  0  0  0
 79163  1  0  0  0
 79164  1  0  0  0
 79 88  1  0  0  0
 80165  1  0  0  0
 80166  1  0  0  0
 80167  1  0  0  0
 80 89  1  0  0  0
 81 89  1  0  0  0
 81168  1  0  0  0
 81169  1  0  0  0
 81170  1  0  0  0
 82171  1  0  0  0
 82172  1  0  0  0
 82173  1  0  0  0
 82 90  1  0  0  0
 83 86  1  0  0  0
 83174  1  0  0  0
 83175  1  0  0  0
 84 88  1  0  0  0
 84176  1  0  0  0
 84177  1  0  0  0
 85 90  1  0  0  0
 85178  1  0  0  0
 85179  1  0  0  0
 86 90  1  0  0  0
 86180  1  0  0  0
 86181  1  0  0  0
 87 89  1  0  0  0
 87 92  1  0  0  0
 87182  1  0  0  0
 87183  1  0  0  0
 88 89  1  0  0  0
 88184  1  0  0  0
 92185  1  0  0  0
M  ISO  4   1 100  68 101  90 101  92 100
M  END
> <chiral flag>
0

> <version>
0

> <s_m_source_file>
/data/baiqing/PycharmProjects/Reinvent-master-3.2/result/LINK_invent/BTK/process_docking_weight1_custom_sum_contain_oxygen_bond_distance_aromatic_linkinvent_7_9_3/rearranged_h_0087.sdf

> <i_m_source_file_index>
32

> <r_mmod_Potential_Energy-OPLS-2005>
-92.6065063476562

> <r_mmod_Stretch_Energy-OPLS-2005>
51.2488784790039

> <r_mmod_Bend_Energy-OPLS-2005>
159.987289428711

> <r_mmod_Torsional_Energy-OPLS-2005>
293.1376953125

> <r_mmod_Improper_Torsional_Energy-OPLS-2005>
7.70697546005249

> <r_mmod_Van_der_Waal_Energy-OPLS-2005>
178.540573120117

> <r_mmod_Electrostatic_Energy-OPLS-2005>
-592.638122558594

> <r_mmod_Solvation_Energy-OPLS-2005>
-205.459396362305

> <b_mmod_Minimization_Converged-OPLS-2005>
0

> <r_mmod_RMS_Derivative-OPLS-2005>
6.36565065383911

$$$$
33
                    3D
 Structure written by MMmdl.
157164  0  0  1  0            999 V2000
  -30.4292  -15.1718   20.4744 C   0  0  0  0  0  0
  -30.4295  -12.7249   19.5773 C   0  0  0  0  0  0
  -29.5305  -12.6025   18.3182 C   0  0  0  0  0  0
  -28.0620  -12.3522   18.7043 C   0  0  0  0  0  0
  -27.6002  -13.2770   19.8553 C   0  0  2  0  0  0
  -28.6068  -13.3657   21.0192 C   0  0  0  0  0  0
  -25.2264  -13.8244   20.5774 C   0  0  0  0  0  0
  -24.1588  -13.0421   20.9224 C   0  0  0  0  0  0
  -24.6242  -11.6922   20.8762 C   0  0  0  0  0  0
  -23.8908  -10.4322   21.0484 C   0  0  0  0  0  0
  -24.3517   -9.4202   21.9250 C   0  0  0  0  0  0
  -23.6216   -8.2228   22.0827 C   0  0  0  0  0  0
  -22.4229   -8.0239   21.3581 C   0  0  0  0  0  0
  -21.9836   -9.0182   20.4674 C   0  0  0  0  0  0
  -22.7085  -10.2131   20.3072 C   0  0  0  0  0  0
  -21.6778   -6.0681   22.5258 C   0  0  0  0  0  0
  -21.3964   -6.5638   23.8168 C   0  0  0  0  0  0
  -21.3657   -5.6806   24.9159 C   0  0  0  0  0  0
  -21.6050   -4.3055   24.7184 C   0  0  0  0  0  0
  -21.8820   -3.8094   23.4317 C   0  0  0  0  0  0
  -21.9162   -4.6923   22.3371 C   0  0  0  0  0  0
  -22.7643  -13.5182   21.1868 C   0  0  0  0  0  0
  -22.1700   -4.2088   21.0957 F   0  0  0  0  0  0
  -21.5643   -3.4591   25.7743 F   0  0  0  0  0  0
  -29.8792  -13.8147   20.4536 N   0  0  0  0  0  0
  -26.2628  -12.9500   20.3277 N   0  0  0  0  0  0
  -25.9154  -11.6614   20.5768 N   0  0  0  0  0  0
  -22.0356  -12.8094   22.0445 N   0  0  0  0  0  0
  -25.3999  -15.1990   20.4326 N   0  0  0  0  0  0
  -31.5958  -15.2850   20.0752 O   0  0  0  0  0  0
  -21.6616   -6.8825   21.4215 O   0  0  0  0  0  0
  -22.3341  -14.5487   20.6766 O   0  0  0  0  0  0
  -24.6585  -31.8322   23.1771 C   0  0  0  0  0  0
  -25.9296  -32.4622   23.8220 C   0  0  1  0  0  0
  -27.1847  -26.9759   20.1791 C   0  0  0  0  0  0
  -25.5981  -33.8445   24.2136 N   0  0  0  0  0  0
  -23.4669  -30.4498   21.5298 C   0  0  2  0  0  0
  -24.9071  -28.8518   20.1094 C   0  0  0  0  0  0
  -22.7638  -29.4474   22.4837 C   0  0  0  0  0  0
  -18.0315  -28.1384   22.8457 C   0  0  0  0  0  0
  -24.1499  -36.7207   23.2635 C   0  0  0  0  0  0
  -26.0310  -30.6567   21.3925 C   0  0  0  0  0  0
  -26.0949  -29.2544   20.7337 C   0  0  0  0  0  0
  -27.2349  -28.3382   20.7358 C   0  0  0  0  0  0
  -25.9737  -26.7138   19.4968 C   0  0  0  0  0  0
  -24.8712  -27.6046   19.4624 C   0  0  0  0  0  0
  -23.6968  -29.7810   20.1491 C   0  0  0  0  0  0
  -25.4131  -36.2980   24.0311 C   0  0  1  0  0  0
  -20.5926  -28.3721   23.1201 C   0  0  2  0  0  0
  -20.6802  -26.9425   22.5397 C   0  0  0  0  0  0
  -19.5763  -26.6378   21.5203 C   0  0  0  0  0  0
  -18.1946  -26.7929   22.1605 C   0  0  0  0  0  0
  -19.1574  -28.8882   23.2805 C   0  0  0  0  0  0
  -18.9490  -30.1462   23.8828 C   0  0  0  0  0  0
  -17.6474  -30.6588   24.0543 C   0  0  0  0  0  0
  -25.9084  -34.9387   23.5037 C   0  0  0  0  0  0
  -16.5373  -29.9098   23.6345 C   0  0  0  0  0  0
  -16.7310  -28.6497   23.0365 C   0  0  0  0  0  0
  -26.4596  -31.6515   25.0698 C   0  0  0  0  0  0
  -25.3757  -31.3665   26.1363 C   0  0  0  0  0  0
  -27.0482  -30.2896   24.6326 C   0  0  0  0  0  0
  -27.6106  -32.4291   25.7488 C   0  0  0  0  0  0
  -27.5602  -37.1730   24.8465 C   0  0  0  0  0  0
  -21.4326  -29.3025   22.3565 N   0  0  0  0  0  0
  -26.4281  -37.3714   23.9439 N   0  0  0  0  0  0
  -24.7408  -31.0039   22.0874 N   0  0  0  0  0  0
  -23.4213  -28.8079   23.3075 O   0  0  0  0  0  0
  -28.1848  -25.8912   20.2743 O   0  0  0  0  0  0
  -26.5713  -34.8910   22.4635 O   0  0  0  0  0  0
  -23.5666  -32.1283   23.6900 O   0  0  0  0  0  0
  -26.4948  -20.0530   22.1687 C   0  0  0  0  0  0
  -29.7776  -23.2277   21.7368 C   0  0  0  0  0  0
  -28.5726  -17.7297   19.0104 C   0  0  0  0  0  0
  -27.6662  -21.0502   22.0711 C   0  0  0  0  0  0
  -29.4770  -19.6394   20.6915 C   0  0  0  0  0  0
  -27.8798  -24.2865   20.2614 C   0  0  0  0  0  0
  -28.8888  -22.8428   20.5399 C   0  0  2  0  0  0
  -28.4622  -21.1120   20.7214 C   0  0  2  0  0  0
  -29.0572  -17.9264   20.4554 C   0  0  2  0  0  0
  -29.5158  -16.4433   20.9576 O   0  0  0  0  0  0
  -31.4542  -12.9439   19.2686 H   0  0  0  0  0  0
  -30.4712  -11.7847   20.1343 H   0  0  0  0  0  0
  -29.8844  -11.7981   17.6689 H   0  0  0  0  0  0
  -29.6138  -13.5300   17.7469 H   0  0  0  0  0  0
  -27.9458  -11.3070   18.9928 H   0  0  0  0  0  0
  -27.4108  -12.4955   17.8429 H   0  0  0  0  0  0
  -27.5405  -14.2720   19.4127 H   0  0  0  0  0  0
  -28.7146  -12.4067   21.5308 H   0  0  0  0  0  0
  -28.2633  -14.0719   21.7671 H   0  0  0  0  0  0
  -25.2685   -9.5668   22.4773 H   0  0  0  0  0  0
  -23.9902   -7.4574   22.7527 H   0  0  0  0  0  0
  -21.0810   -8.8603   19.8937 H   0  0  0  0  0  0
  -22.3524  -10.9630   19.6159 H   0  0  0  0  0  0
  -21.2033   -7.6171   23.9626 H   0  0  0  0  0  0
  -21.1507   -6.0609   25.9052 H   0  0  0  0  0  0
  -22.0627   -2.7529   23.2832 H   0  0  0  0  0  0
  -22.4135  -11.9712   22.4575 H   0  0  0  0  0  0
  -21.1057  -13.1170   22.2962 H   0  0  0  0  0  0
  -24.6364  -15.8613   20.5067 H   0  0  0  0  0  0
  -26.2714  -15.6108   20.1283 H   0  0  0  0  0  0
  -26.7365  -32.5175   23.0946 H   0  0  0  0  0  0
  -25.0095  -33.9524   25.0252 H   0  0  0  0  0  0
  -22.7705  -31.2813   21.3809 H   0  0  0  0  0  0
  -23.3812  -35.9476   23.3202 H   0  0  0  0  0  0
  -24.3588  -36.8946   22.2067 H   0  0  0  0  0  0
  -23.7215  -37.6346   23.6744 H   0  0  0  0  0  0
  -26.2024  -31.4103   20.6236 H   0  0  0  0  0  0
  -26.8941  -30.7058   22.0466 H   0  0  0  0  0  0
  -28.1442  -28.6481   21.2347 H   0  0  0  0  0  0
  -25.8472  -25.7569   19.0045 H   0  0  0  0  0  0
  -23.9707  -27.3022   18.9448 H   0  0  0  0  0  0
  -23.8472  -30.5672   19.4088 H   0  0  0  0  0  0
  -22.7984  -29.2507   19.8276 H   0  0  0  0  0  0
  -25.1311  -36.1798   25.0800 H   0  0  0  0  0  0
  -20.9967  -28.3351   24.1328 H   0  0  0  0  0  0
  -20.5684  -26.2364   23.3613 H   0  0  0  0  0  0
  -21.6683  -26.7443   22.1210 H   0  0  0  0  0  0
  -19.6953  -25.6288   21.1244 H   0  0  0  0  0  0
  -19.6719  -27.3169   20.6702 H   0  0  0  0  0  0
  -17.4227  -26.6660   21.3990 H   0  0  0  0  0  0
  -18.0357  -26.0078   22.8996 H   0  0  0  0  0  0
  -19.7952  -30.7288   24.2194 H   0  0  0  0  0  0
  -17.5034  -31.6249   24.5174 H   0  0  0  0  0  0
  -15.5346  -30.2973   23.7664 H   0  0  0  0  0  0
  -15.8716  -28.0790   22.7108 H   0  0  0  0  0  0
  -24.5956  -30.7025   25.7644 H   0  0  0  0  0  0
  -24.8943  -32.2816   26.4778 H   0  0  0  0  0  0
  -25.8032  -30.8822   27.0148 H   0  0  0  0  0  0
  -26.3122  -29.6564   24.1363 H   0  0  0  0  0  0
  -27.4107  -29.7246   25.4927 H   0  0  0  0  0  0
  -27.9033  -30.4117   23.9680 H   0  0  0  0  0  0
  -27.2692  -33.3604   26.2004 H   0  0  0  0  0  0
  -28.3931  -32.6811   25.0328 H   0  0  0  0  0  0
  -28.0765  -31.8460   26.5424 H   0  0  0  0  0  0
  -28.2535  -38.0102   24.7616 H   0  0  0  0  0  0
  -28.1173  -36.2642   24.6168 H   0  0  0  0  0  0
  -27.2315  -37.1242   25.8852 H   0  0  0  0  0  0
  -20.9552  -29.8722   21.6710 H   0  0  0  0  0  0
  -26.0143  -38.2755   24.1502 H   0  0  0  0  0  0
  -25.7011  -20.4807   22.7830 H   0  0  0  0  0  0
  -26.7857  -19.1086   22.6406 H   0  0  0  0  0  0
  -26.0597  -19.8313   21.1992 H   0  0  0  0  0  0
  -30.2230  -24.2079   21.5845 H   0  0  0  0  0  0
  -30.5920  -22.5157   21.8658 H   0  0  0  0  0  0
  -29.2172  -23.2689   22.6746 H   0  0  0  0  0  0
  -28.0496  -18.6220   18.6607 H   0  0  0  0  0  0
  -27.8494  -16.9131   18.9475 H   0  0  0  0  0  0
  -29.3860  -17.5107   18.3161 H   0  0  0  0  0  0
  -28.3550  -20.8471   22.8971 H   0  0  0  0  0  0
  -27.2532  -22.0339   22.3076 H   0  0  0  0  0  0
  -30.0567  -19.6657   21.6192 H   0  0  0  0  0  0
  -30.2398  -19.8417   19.9355 H   0  0  0  0  0  0
  -27.0154  -24.1773   20.9176 H   0  0  0  0  0  0
  -27.4706  -24.1065   19.2620 H   0  0  0  0  0  0
  -29.5644  -22.8496   19.6799 H   0  0  0  0  0  0
  -27.7539  -20.9398   19.9088 H   0  0  0  0  0  0
  -28.1309  -17.9372   21.0401 H   0  0  0  0  0  0
  1 25  1  0  0  0
  1 30  2  0  0  0
  1 80  1  0  0  0
  2  3  1  0  0  0
  2 25  1  0  0  0
  2 81  1  0  0  0
  2 82  1  0  0  0
  3  4  1  0  0  0
  3 83  1  0  0  0
  3 84  1  0  0  0
  4  5  1  0  0  0
  4 85  1  0  0  0
  4 86  1  0  0  0
  5  6  1  0  0  0
  5 26  1  0  0  0
  5 87  1  0  0  0
  6 25  1  0  0  0
  6 88  1  0  0  0
  6 89  1  0  0  0
  7  8  2  0  0  0
  7 26  1  0  0  0
  7 29  1  0  0  0
  8  9  1  0  0  0
  8 22  1  0  0  0
  9 10  1  0  0  0
  9 27  2  0  0  0
 10 11  2  0  0  0
 10 15  1  0  0  0
 11 12  1  0  0  0
 11 90  1  0  0  0
 12 13  2  0  0  0
 12 91  1  0  0  0
 13 14  1  0  0  0
 13 31  1  0  0  0
 14 15  2  0  0  0
 14 92  1  0  0  0
 15 93  1  0  0  0
 16 17  2  0  0  0
 16 21  1  0  0  0
 16 31  1  0  0  0
 17 18  1  0  0  0
 17 94  1  0  0  0
 18 19  2  0  0  0
 18 95  1  0  0  0
 19 20  1  0  0  0
 19 24  1  0  0  0
 20 21  2  0  0  0
 20 96  1  0  0  0
 21 23  1  0  0  0
 22 28  1  0  0  0
 22 32  2  0  0  0
 26 27  1  0  0  0
 28 97  1  0  0  0
 28 98  1  0  0  0
 29 99  1  0  0  0
 29100  1  0  0  0
 33 34  1  0  0  0
 33 66  1  0  0  0
 33 70  2  0  0  0
 34 36  1  0  0  0
 34 59  1  0  0  0
 34101  1  0  0  0
 35 44  2  0  0  0
 35 45  1  0  0  0
 35 68  1  0  0  0
 36 56  1  0  0  0
 36102  1  0  0  0
 37 39  1  0  0  0
 37 47  1  0  0  0
 37 66  1  0  0  0
 37103  1  0  0  0
 38 43  2  0  0  0
 38 46  1  0  0  0
 38 47  1  0  0  0
 39 64  1  0  0  0
 39 67  2  0  0  0
 40 52  1  0  0  0
 40 53  2  0  0  0
 40 58  1  0  0  0
 41104  1  0  0  0
 41105  1  0  0  0
 41106  1  0  0  0
 41 48  1  0  0  0
 42 43  1  0  0  0
 42 66  1  0  0  0
 42107  1  0  0  0
 42108  1  0  0  0
 43 44  1  0  0  0
 44109  1  0  0  0
 45 46  2  0  0  0
 45110  1  0  0  0
 46111  1  0  0  0
 47112  1  0  0  0
 47113  1  0  0  0
 48 56  1  0  0  0
 48 65  1  0  0  0
 48114  1  0  0  0
 49 50  1  0  0  0
 49 53  1  0  0  0
 49 64  1  0  0  0
 49115  1  0  0  0
 50 51  1  0  0  0
 50116  1  0  0  0
 50117  1  0  0  0
 51 52  1  0  0  0
 51118  1  0  0  0
 51119  1  0  0  0
 52120  1  0  0  0
 52121  1  0  0  0
 53 54  1  0  0  0
 54 55  2  0  0  0
 54122  1  0  0  0
 55 57  1  0  0  0
 55123  1  0  0  0
 56 69  2  0  0  0
 57 58  2  0  0  0
 57124  1  0  0  0
 58125  1  0  0  0
 59 60  1  0  0  0
 59 61  1  0  0  0
 59 62  1  0  0  0
 60126  1  0  0  0
 60127  1  0  0  0
 60128  1  0  0  0
 61129  1  0  0  0
 61130  1  0  0  0
 61131  1  0  0  0
 62132  1  0  0  0
 62133  1  0  0  0
 62134  1  0  0  0
 63 65  1  0  0  0
 63135  1  0  0  0
 63136  1  0  0  0
 63137  1  0  0  0
 64138  1  0  0  0
 65139  1  0  0  0
 68 76  1  0  0  0
 71 74  1  0  0  0
 71140  1  0  0  0
 71141  1  0  0  0
 71142  1  0  0  0
 72143  1  0  0  0
 72144  1  0  0  0
 72145  1  0  0  0
 72 77  1  0  0  0
 73146  1  0  0  0
 73147  1  0  0  0
 73148  1  0  0  0
 73 79  1  0  0  0
 74149  1  0  0  0
 74150  1  0  0  0
 74 78  1  0  0  0
 75 78  1  0  0  0
 75 79  1  0  0  0
 75151  1  0  0  0
 75152  1  0  0  0
 76 77  1  0  0  0
 76153  1  0  0  0
 76154  1  0  0  0
 77 78  1  0  0  0
 77155  1  0  0  0
 78156  1  0  0  0
 79 80  1  0  0  0
 79157  1  0  0  0
M  ISO  4   1 100  68 101  76 101  80 100
M  END
> <chiral flag>
0

> <version>
0

> <s_m_source_file>
/data/baiqing/PycharmProjects/Reinvent-master-3.2/result/LINK_invent/BTK/process_docking_weight1_custom_sum_contain_oxygen_bond_distance_aromatic_linkinvent_7_9_3/rearranged_h_0087.sdf

> <i_m_source_file_index>
33

> <r_mmod_Potential_Energy-OPLS-2005>
1289.51953125

> <r_mmod_Stretch_Energy-OPLS-2005>
611.451538085938

> <r_mmod_Bend_Energy-OPLS-2005>
463.150787353516

> <r_mmod_Torsional_Energy-OPLS-2005>
222.538619995117

> <r_mmod_Improper_Torsional_Energy-OPLS-2005>
1.82995009422302

> <r_mmod_Van_der_Waal_Energy-OPLS-2005>
100.169036865234

> <r_mmod_Electrostatic_Energy-OPLS-2005>
-304.380401611328

> <r_mmod_Solvation_Energy-OPLS-2005>
-182.355392456055

> <b_mmod_Minimization_Converged-OPLS-2005>
0

> <r_mmod_RMS_Derivative-OPLS-2005>
10.2423114776611

$$$$
34
                    3D
 Structure written by MMmdl.
164172  0  0  1  0            999 V2000
  -30.6906  -14.5759   20.4410 C   0  0  0  0  0  0
  -30.4228  -12.3351   19.4487 C   0  0  0  0  0  0
  -29.4933  -12.4276   18.2193 C   0  0  0  0  0  0
  -28.0167  -12.3151   18.6396 C   0  0  0  0  0  0
  -27.6477  -13.2169   19.8489 C   0  0  2  0  0  0
  -28.6977  -13.1242   20.9778 C   0  0  0  0  0  0
  -25.2562  -13.8204   20.5708 C   0  0  0  0  0  0
  -24.1824  -13.0458   20.9210 C   0  0  0  0  0  0
  -24.6397  -11.6932   20.8777 C   0  0  0  0  0  0
  -23.9061  -10.4310   21.0444 C   0  0  0  0  0  0
  -24.3612   -9.4217   21.9215 C   0  0  0  0  0  0
  -23.6292   -8.2248   22.0768 C   0  0  0  0  0  0
  -22.4278   -8.0287   21.3554 C   0  0  0  0  0  0
  -21.9921   -9.0260   20.4659 C   0  0  0  0  0  0
  -22.7242  -10.2147   20.3087 C   0  0  0  0  0  0
  -21.6851   -6.0746   22.5285 C   0  0  0  0  0  0
  -21.4006   -6.5651   23.8215 C   0  0  0  0  0  0
  -21.3658   -5.6805   24.9179 C   0  0  0  0  0  0
  -21.6043   -4.3064   24.7229 C   0  0  0  0  0  0
  -21.8812   -3.8155   23.4350 C   0  0  0  0  0  0
  -21.9191   -4.6976   22.3408 C   0  0  0  0  0  0
  -22.7853  -13.5254   21.1859 C   0  0  0  0  0  0
  -22.1667   -4.2166   21.0984 F   0  0  0  0  0  0
  -21.5628   -3.4546   25.7737 F   0  0  0  0  0  0
  -30.0110  -13.3952   20.3837 N   0  0  0  0  0  0
  -26.2976  -12.9382   20.3316 N   0  0  0  0  0  0
  -25.9323  -11.6538   20.5804 N   0  0  0  0  0  0
  -22.0484  -12.8241   22.0407 N   0  0  0  0  0  0
  -25.4284  -15.1919   20.4116 N   0  0  0  0  0  0
  -31.9109  -14.6208   20.2658 O   0  0  0  0  0  0
  -21.6639   -6.8888   21.4247 O   0  0  0  0  0  0
  -22.3540  -14.5557   20.6709 O   0  0  0  0  0  0
  -24.6184  -31.8653   23.2066 C   0  0  0  0  0  0
  -25.9062  -32.4810   23.8373 C   0  0  1  0  0  0
  -27.2337  -27.3894   20.1131 C   0  0  0  0  0  0
  -25.5902  -33.8602   24.2307 N   0  0  0  0  0  0
  -23.4115  -30.4873   21.5464 C   0  0  2  0  0  0
  -24.8636  -28.9466   20.1151 C   0  0  0  0  0  0
  -22.7444  -29.4644   22.4959 C   0  0  0  0  0  0
  -18.0284  -28.1396   22.8481 C   0  0  0  0  0  0
  -24.1497  -36.7308   23.2640 C   0  0  0  0  0  0
  -25.9445  -30.8154   21.3699 C   0  0  0  0  0  0
  -26.0250  -29.4441   20.7223 C   0  0  0  0  0  0
  -27.2153  -28.6700   20.7246 C   0  0  0  0  0  0
  -26.0647  -26.9325   19.4712 C   0  0  0  0  0  0
  -24.8784  -27.6887   19.4893 C   0  0  0  0  0  0
  -23.6270  -29.8166   20.1624 C   0  0  0  0  0  0
  -25.4115  -36.3103   24.0341 C   0  0  1  0  0  0
  -20.5878  -28.3688   23.1295 C   0  0  2  0  0  0
  -20.6782  -26.9412   22.5417 C   0  0  0  0  0  0
  -19.5759  -26.6385   21.5220 C   0  0  0  0  0  0
  -18.1932  -26.7940   22.1622 C   0  0  0  0  0  0
  -19.1531  -28.8855   23.2884 C   0  0  0  0  0  0
  -18.9464  -30.1456   23.8904 C   0  0  0  0  0  0
  -17.6467  -30.6595   24.0559 C   0  0  0  0  0  0
  -25.9043  -34.9467   23.5122 C   0  0  0  0  0  0
  -16.5359  -29.9100   23.6323 C   0  0  0  0  0  0
  -16.7273  -28.6519   23.0342 C   0  0  0  0  0  0
  -26.4474  -31.6595   25.0714 C   0  0  0  0  0  0
  -25.3729  -31.3712   26.1456 C   0  0  0  0  0  0
  -27.0304  -30.3032   24.6103 C   0  0  0  0  0  0
  -27.6044  -32.4307   25.7494 C   0  0  0  0  0  0
  -27.5584  -37.1805   24.8459 C   0  0  0  0  0  0
  -21.4169  -29.3038   22.3690 N   0  0  0  0  0  0
  -26.4296  -37.3790   23.9414 N   0  0  0  0  0  0
  -24.6760  -31.0710   22.0995 N   0  0  0  0  0  0
  -23.4187  -28.8191   23.3028 O   0  0  0  0  0  0
  -28.3541  -26.5724   20.0892 O   0  0  0  0  0  0
  -26.5589  -34.8927   22.4676 O   0  0  0  0  0  0
  -23.5360  -32.1416   23.7429 O   0  0  0  0  0  0
  -27.5276  -21.8452   18.4219 C   0  0  0  0  0  0
  -28.0843  -23.0346   18.9114 C   0  0  0  0  0  0
  -27.7306  -20.6424   19.1255 C   0  0  0  0  0  0
  -28.8255  -23.0070   20.1018 C   0  0  0  0  0  0
  -28.5244  -20.6593   20.3017 C   0  0  0  0  0  0
  -27.0765  -19.3784   18.5803 C   0  0  0  0  0  0
  -27.1169  -24.9577   21.6242 C   0  0  0  0  0  0
  -30.2265  -16.0889   18.6375 C   0  0  0  0  0  0
  -29.4263  -24.3289   20.6465 C   0  0  0  0  0  0
  -28.7707  -19.3622   21.1252 C   0  0  0  0  0  0
  -29.6229  -18.2453   20.4301 C   0  0  0  0  0  0
  -29.4214  -16.7421   20.9079 C   0  0  0  0  0  0
  -28.4574  -25.4986   21.0789 C   0  0  1  0  0  0
  -29.0555  -21.8315   20.7690 N   0  0  0  0  0  0
  -29.9686  -15.6622   20.0223 N   0  0  0  0  0  0
  -31.4668  -12.4315   19.1405 H   0  0  0  0  0  0
  -30.3362  -11.3592   19.9275 H   0  0  0  0  0  0
  -29.7332  -11.6347   17.5095 H   0  0  0  0  0  0
  -29.6504  -13.3612   17.6837 H   0  0  0  0  0  0
  -27.8324  -11.2695   18.8899 H   0  0  0  0  0  0
  -27.3672  -12.5390   17.7940 H   0  0  0  0  0  0
  -27.6536  -14.2414   19.4747 H   0  0  0  0  0  0
  -28.6881  -12.1370   21.4417 H   0  0  0  0  0  0
  -28.4757  -13.8447   21.7672 H   0  0  0  0  0  0
  -25.2763   -9.5680   22.4783 H   0  0  0  0  0  0
  -24.0001   -7.4633   22.7488 H   0  0  0  0  0  0
  -21.0856   -8.8780   19.8955 H   0  0  0  0  0  0
  -22.3714  -10.9685   19.6188 H   0  0  0  0  0  0
  -21.1990   -7.6156   23.9722 H   0  0  0  0  0  0
  -21.1491   -6.0539   25.9083 H   0  0  0  0  0  0
  -22.0593   -2.7620   23.2846 H   0  0  0  0  0  0
  -22.4093  -11.9894   22.4782 H   0  0  0  0  0  0
  -21.1103  -13.1270   22.2610 H   0  0  0  0  0  0
  -24.6632  -15.8478   20.5236 H   0  0  0  0  0  0
  -26.2854  -15.6285   20.0973 H   0  0  0  0  0  0
  -26.7138  -32.5534   23.1137 H   0  0  0  0  0  0
  -25.0064  -33.9754   25.0461 H   0  0  0  0  0  0
  -22.7020  -31.3042   21.3990 H   0  0  0  0  0  0
  -23.3763  -35.9636   23.3297 H   0  0  0  0  0  0
  -24.3604  -36.8929   22.2056 H   0  0  0  0  0  0
  -23.7245  -37.6509   23.6661 H   0  0  0  0  0  0
  -26.0579  -31.5779   20.5981 H   0  0  0  0  0  0
  -26.8320  -30.8757   21.9880 H   0  0  0  0  0  0
  -28.1098  -29.0401   21.2045 H   0  0  0  0  0  0
  -26.0708  -25.9735   18.9725 H   0  0  0  0  0  0
  -23.9880  -27.3007   19.0133 H   0  0  0  0  0  0
  -23.7396  -30.5881   19.4008 H   0  0  0  0  0  0
  -22.7525  -29.2358   19.8632 H   0  0  0  0  0  0
  -25.1291  -36.1964   25.0833 H   0  0  0  0  0  0
  -20.9955  -28.3276   24.1426 H   0  0  0  0  0  0
  -20.5713  -26.2291   23.3621 H   0  0  0  0  0  0
  -21.6655  -26.7471   22.1197 H   0  0  0  0  0  0
  -19.6925  -25.6292   21.1260 H   0  0  0  0  0  0
  -19.6714  -27.3188   20.6750 H   0  0  0  0  0  0
  -17.4204  -26.6674   21.4022 H   0  0  0  0  0  0
  -18.0326  -26.0091   22.9026 H   0  0  0  0  0  0
  -19.7942  -30.7251   24.2294 H   0  0  0  0  0  0
  -17.5036  -31.6285   24.5151 H   0  0  0  0  0  0
  -15.5364  -30.3007   23.7668 H   0  0  0  0  0  0
  -15.8671  -28.0857   22.7050 H   0  0  0  0  0  0
  -24.5893  -30.7074   25.7784 H   0  0  0  0  0  0
  -24.8937  -32.2876   26.4905 H   0  0  0  0  0  0
  -25.8069  -30.8866   27.0211 H   0  0  0  0  0  0
  -26.2847  -29.6800   24.1150 H   0  0  0  0  0  0
  -27.4059  -29.7258   25.4563 H   0  0  0  0  0  0
  -27.8695  -30.4339   23.9263 H   0  0  0  0  0  0
  -27.2650  -33.3583   26.2108 H   0  0  0  0  0  0
  -28.3848  -32.6897   25.0332 H   0  0  0  0  0  0
  -28.0718  -31.8405   26.5385 H   0  0  0  0  0  0
  -28.2580  -38.0116   24.7522 H   0  0  0  0  0  0
  -28.1092  -36.2648   24.6262 H   0  0  0  0  0  0
  -27.2300  -37.1429   25.8857 H   0  0  0  0  0  0
  -20.9350  -29.8745   21.6884 H   0  0  0  0  0  0
  -26.0182  -38.2866   24.1424 H   0  0  0  0  0  0
  -26.9414  -21.8597   17.5146 H   0  0  0  0  0  0
  -27.9339  -23.9655   18.3799 H   0  0  0  0  0  0
  -26.1663  -19.6255   18.0334 H   0  0  0  0  0  0
  -26.7915  -18.6799   19.3657 H   0  0  0  0  0  0
  -27.7460  -18.8661   17.8875 H   0  0  0  0  0  0
  -26.5209  -25.7432   22.0885 H   0  0  0  0  0  0
  -27.2964  -24.2040   22.3905 H   0  0  0  0  0  0
  -26.5175  -24.4895   20.8448 H   0  0  0  0  0  0
  -29.3083  -16.4471   18.1711 H   0  0  0  0  0  0
  -30.6033  -15.2845   18.0067 H   0  0  0  0  0  0
  -30.9806  -16.8755   18.6030 H   0  0  0  0  0  0
  -30.1512  -24.7102   19.9259 H   0  0  0  0  0  0
  -30.0209  -24.0580   21.5201 H   0  0  0  0  0  0
  -27.7918  -18.9579   21.3821 H   0  0  0  0  0  0
  -29.2267  -19.6223   22.0811 H   0  0  0  0  0  0
  -30.6757  -18.5206   20.4973 H   0  0  0  0  0  0
  -29.3813  -18.3233   19.3754 H   0  0  0  0  0  0
  -28.3534  -16.5428   20.9988 H   0  0  0  0  0  0
  -29.8265  -16.6284   21.9156 H   0  0  0  0  0  0
  -28.9504  -25.9911   21.9176 H   0  0  0  0  0  0
  1 25  1  0  0  0
  1 30  2  0  0  0
  1 85  1  0  0  0
  2  3  1  0  0  0
  2 25  1  0  0  0
  2 86  1  0  0  0
  2 87  1  0  0  0
  3  4  1  0  0  0
  3 88  1  0  0  0
  3 89  1  0  0  0
  4  5  1  0  0  0
  4 90  1  0  0  0
  4 91  1  0  0  0
  5  6  1  0  0  0
  5 26  1  0  0  0
  5 92  1  0  0  0
  6 25  1  0  0  0
  6 93  1  0  0  0
  6 94  1  0  0  0
  7  8  2  0  0  0
  7 26  1  0  0  0
  7 29  1  0  0  0
  8  9  1  0  0  0
  8 22  1  0  0  0
  9 10  1  0  0  0
  9 27  2  0  0  0
 10 11  2  0  0  0
 10 15  1  0  0  0
 11 12  1  0  0  0
 11 95  1  0  0  0
 12 13  2  0  0  0
 12 96  1  0  0  0
 13 14  1  0  0  0
 13 31  1  0  0  0
 14 15  2  0  0  0
 14 97  1  0  0  0
 15 98  1  0  0  0
 16 17  2  0  0  0
 16 21  1  0  0  0
 16 31  1  0  0  0
 17 18  1  0  0  0
 17 99  1  0  0  0
 18 19  2  0  0  0
 18100  1  0  0  0
 19 20  1  0  0  0
 19 24  1  0  0  0
 20 21  2  0  0  0
 20101  1  0  0  0
 21 23  1  0  0  0
 22 28  1  0  0  0
 22 32  2  0  0  0
 26 27  1  0  0  0
 28102  1  0  0  0
 28103  1  0  0  0
 29104  1  0  0  0
 29105  1  0  0  0
 33 34  1  0  0  0
 33 66  1  0  0  0
 33 70  2  0  0  0
 34 36  1  0  0  0
 34 59  1  0  0  0
 34106  1  0  0  0
 35 44  2  0  0  0
 35 45  1  0  0  0
 35 68  1  0  0  0
 36 56  1  0  0  0
 36107  1  0  0  0
 37 39  1  0  0  0
 37 47  1  0  0  0
 37 66  1  0  0  0
 37108  1  0  0  0
 38 43  2  0  0  0
 38 46  1  0  0  0
 38 47  1  0  0  0
 39 64  1  0  0  0
 39 67  2  0  0  0
 40 52  1  0  0  0
 40 53  2  0  0  0
 40 58  1  0  0  0
 41109  1  0  0  0
 41110  1  0  0  0
 41111  1  0  0  0
 41 48  1  0  0  0
 42 43  1  0  0  0
 42 66  1  0  0  0
 42112  1  0  0  0
 42113  1  0  0  0
 43 44  1  0  0  0
 44114  1  0  0  0
 45 46  2  0  0  0
 45115  1  0  0  0
 46116  1  0  0  0
 47117  1  0  0  0
 47118  1  0  0  0
 48 56  1  0  0  0
 48 65  1  0  0  0
 48119  1  0  0  0
 49 50  1  0  0  0
 49 53  1  0  0  0
 49 64  1  0  0  0
 49120  1  0  0  0
 50 51  1  0  0  0
 50121  1  0  0  0
 50122  1  0  0  0
 51 52  1  0  0  0
 51123  1  0  0  0
 51124  1  0  0  0
 52125  1  0  0  0
 52126  1  0  0  0
 53 54  1  0  0  0
 54 55  2  0  0  0
 54127  1  0  0  0
 55 57  1  0  0  0
 55128  1  0  0  0
 56 69  2  0  0  0
 57 58  2  0  0  0
 57129  1  0  0  0
 58130  1  0  0  0
 59 60  1  0  0  0
 59 61  1  0  0  0
 59 62  1  0  0  0
 60131  1  0  0  0
 60132  1  0  0  0
 60133  1  0  0  0
 61134  1  0  0  0
 61135  1  0  0  0
 61136  1  0  0  0
 62137  1  0  0  0
 62138  1  0  0  0
 62139  1  0  0  0
 63 65  1  0  0  0
 63140  1  0  0  0
 63141  1  0  0  0
 63142  1  0  0  0
 64143  1  0  0  0
 65144  1  0  0  0
 68 83  1  0  0  0
 71 72  2  0  0  0
 71 73  1  0  0  0
 71145  1  0  0  0
 72 74  1  0  0  0
 72146  1  0  0  0
 73 75  2  0  0  0
 73 76  1  0  0  0
 74 79  1  0  0  0
 74 84  2  0  0  0
 75 80  1  0  0  0
 75 84  1  0  0  0
 76147  1  0  0  0
 76148  1  0  0  0
 76149  1  0  0  0
 77150  1  0  0  0
 77151  1  0  0  0
 77152  1  0  0  0
 77 83  1  0  0  0
 78 85  1  0  0  0
 78153  1  0  0  0
 78154  1  0  0  0
 78155  1  0  0  0
 79 83  1  0  0  0
 79156  1  0  0  0
 79157  1  0  0  0
 80 81  1  0  0  0
 80158  1  0  0  0
 80159  1  0  0  0
 81 82  1  0  0  0
 81160  1  0  0  0
 81161  1  0  0  0
 82 85  1  0  0  0
 82162  1  0  0  0
 82163  1  0  0  0
 83164  1  0  0  0
M  ISO  4   1 100  68 101  83 101  85 100
M  END
> <chiral flag>
0

> <version>
0

> <s_m_source_file>
/data/baiqing/PycharmProjects/Reinvent-master-3.2/result/LINK_invent/BTK/process_docking_weight1_custom_sum_contain_oxygen_bond_distance_aromatic_linkinvent_7_9_3/rearranged_h_0087.sdf

> <i_m_source_file_index>
34

> <r_mmod_Potential_Energy-OPLS-2005>
108.511131286621

> <r_mmod_Stretch_Energy-OPLS-2005>
60.8974113464355

> <r_mmod_Bend_Energy-OPLS-2005>
124.180892944336

> <r_mmod_Torsional_Energy-OPLS-2005>
329.519470214844

> <r_mmod_Improper_Torsional_Energy-OPLS-2005>
25.7475967407227

> <r_mmod_Van_der_Waal_Energy-OPLS-2005>
150.524917602539

> <r_mmod_Electrostatic_Energy-OPLS-2005>
-416.479187011719

> <r_mmod_Solvation_Energy-OPLS-2005>
-205.662292480469

> <b_mmod_Minimization_Converged-OPLS-2005>
0

> <r_mmod_RMS_Derivative-OPLS-2005>
2.09926104545593

$$$$
35
                    3D
 Structure written by MMmdl.
166174  0  0  1  0            999 V2000
  -30.7873  -14.4148   20.5812 C   0  0  0  0  0  0
  -30.3948  -12.2853   19.4183 C   0  0  0  0  0  0
  -29.4819  -12.5074   18.1997 C   0  0  0  0  0  0
  -28.0050  -12.3747   18.6152 C   0  0  0  0  0  0
  -27.6569  -13.2226   19.8691 C   0  0  2  0  0  0
  -28.7024  -13.0385   20.9931 C   0  0  0  0  0  0
  -25.2569  -13.8201   20.5709 C   0  0  0  0  0  0
  -24.1837  -13.0453   20.9180 C   0  0  0  0  0  0
  -24.6415  -11.6925   20.8743 C   0  0  0  0  0  0
  -23.9088  -10.4303   21.0402 C   0  0  0  0  0  0
  -24.3619   -9.4212   21.9188 C   0  0  0  0  0  0
  -23.6294   -8.2249   22.0760 C   0  0  0  0  0  0
  -22.4281   -8.0285   21.3546 C   0  0  0  0  0  0
  -21.9921   -9.0263   20.4645 C   0  0  0  0  0  0
  -22.7254  -10.2146   20.3055 C   0  0  0  0  0  0
  -21.6859   -6.0738   22.5278 C   0  0  0  0  0  0
  -21.4014   -6.5640   23.8210 C   0  0  0  0  0  0
  -21.3663   -5.6798   24.9173 C   0  0  0  0  0  0
  -21.6045   -4.3059   24.7222 C   0  0  0  0  0  0
  -21.8818   -3.8147   23.4343 C   0  0  0  0  0  0
  -21.9190   -4.6965   22.3397 C   0  0  0  0  0  0
  -22.7850  -13.5231   21.1836 C   0  0  0  0  0  0
  -22.1662   -4.2149   21.0977 F   0  0  0  0  0  0
  -21.5628   -3.4546   25.7732 F   0  0  0  0  0  0
  -30.0337  -13.2948   20.4251 N   0  0  0  0  0  0
  -26.3015  -12.9414   20.3365 N   0  0  0  0  0  0
  -25.9351  -11.6551   20.5765 N   0  0  0  0  0  0
  -22.0493  -12.8219   22.0388 N   0  0  0  0  0  0
  -25.4296  -15.1918   20.4151 N   0  0  0  0  0  0
  -31.9359  -14.4971   20.1492 O   0  0  0  0  0  0
  -21.6649   -6.8881   21.4240 O   0  0  0  0  0  0
  -22.3527  -14.5548   20.6703 O   0  0  0  0  0  0
  -24.6122  -31.8686   23.2124 C   0  0  0  0  0  0
  -25.9035  -32.4811   23.8405 C   0  0  1  0  0  0
  -27.2253  -27.4452   20.0914 C   0  0  0  0  0  0
  -25.5912  -33.8612   24.2348 N   0  0  0  0  0  0
  -23.4002  -30.4921   21.5543 C   0  0  2  0  0  0
  -24.8397  -28.9603   20.1153 C   0  0  0  0  0  0
  -22.7402  -29.4658   22.5022 C   0  0  0  0  0  0
  -18.0267  -28.1389   22.8508 C   0  0  0  0  0  0
  -24.1481  -36.7318   23.2638 C   0  0  0  0  0  0
  -25.9249  -30.8365   21.3641 C   0  0  0  0  0  0
  -26.0001  -29.4718   20.7119 C   0  0  0  0  0  0
  -27.1945  -28.7195   20.6984 C   0  0  0  0  0  0
  -26.0456  -26.9458   19.4880 C   0  0  0  0  0  0
  -24.8547  -27.6943   19.5072 C   0  0  0  0  0  0
  -23.6052  -29.8274   20.1678 C   0  0  0  0  0  0
  -25.4080  -36.3094   24.0344 C   0  0  1  0  0  0
  -20.5858  -28.3673   23.1322 C   0  0  2  0  0  0
  -20.6755  -26.9419   22.5428 C   0  0  0  0  0  0
  -19.5741  -26.6403   21.5209 C   0  0  0  0  0  0
  -18.1917  -26.7945   22.1622 C   0  0  0  0  0  0
  -19.1520  -28.8845   23.2915 C   0  0  0  0  0  0
  -18.9453  -30.1456   23.8927 C   0  0  0  0  0  0
  -17.6459  -30.6606   24.0574 C   0  0  0  0  0  0
  -25.9018  -34.9469   23.5135 C   0  0  0  0  0  0
  -16.5343  -29.9113   23.6342 C   0  0  0  0  0  0
  -16.7255  -28.6529   23.0365 C   0  0  0  0  0  0
  -26.4499  -31.6590   25.0732 C   0  0  0  0  0  0
  -25.3789  -31.3647   26.1507 C   0  0  0  0  0  0
  -27.0387  -30.3064   24.6100 C   0  0  0  0  0  0
  -27.6080  -32.4314   25.7488 C   0  0  0  0  0  0
  -27.5580  -37.1784   24.8457 C   0  0  0  0  0  0
  -21.4134  -29.3049   22.3746 N   0  0  0  0  0  0
  -26.4266  -37.3779   23.9426 N   0  0  0  0  0  0
  -24.6645  -31.0792   22.1034 N   0  0  0  0  0  0
  -23.4166  -28.8171   23.3056 O   0  0  0  0  0  0
  -28.4051  -26.7329   20.1162 O   0  0  0  0  0  0
  -26.5592  -34.8929   22.4701 O   0  0  0  0  0  0
  -23.5330  -32.1408   23.7551 O   0  0  0  0  0  0
  -28.2247  -20.1679   19.6285 C   0  0  0  0  0  0
  -28.8736  -18.9295   19.4083 C   0  0  0  0  0  0
  -28.9160  -20.8284   20.5991 C   0  0  0  0  0  0
  -29.9722  -18.8462   20.2261 C   0  0  0  0  0  0
  -32.4863  -18.4038   20.2812 C   0  0  0  0  0  0
  -31.0376  -17.1002   18.8108 C   0  0  0  0  0  0
  -30.7966  -20.2903   22.1855 C   0  0  0  0  0  0
  -28.7384  -22.2493   21.0604 C   0  0  0  0  0  0
  -29.7449  -23.1822   20.3541 C   0  0  0  0  0  0
  -29.5760  -24.6924   20.6165 C   0  0  0  0  0  0
  -30.9178  -16.7557   21.3943 C   0  0  0  0  0  0
  -28.3339  -25.3145   19.9572 C   0  0  0  0  0  0
  -31.0667  -17.7798   20.2084 C   0  0  0  0  0  0
  -29.9223  -19.9779   21.0602 N   0  0  0  0  0  0
  -30.1993  -15.4944   21.1185 N   0  0  0  0  0  0
  -31.4429  -12.3327   19.1176 H   0  0  0  0  0  0
  -30.2505  -11.2832   19.8238 H   0  0  0  0  0  0
  -29.7142  -11.7904   17.4122 H   0  0  0  0  0  0
  -29.6632  -13.4976   17.7771 H   0  0  0  0  0  0
  -27.8102  -11.3205   18.8126 H   0  0  0  0  0  0
  -27.3551  -12.6531   17.7832 H   0  0  0  0  0  0
  -27.6932  -14.2667   19.5586 H   0  0  0  0  0  0
  -28.6643  -12.0229   21.3913 H   0  0  0  0  0  0
  -28.4810  -13.6955   21.8355 H   0  0  0  0  0  0
  -25.2761   -9.5690   22.4773 H   0  0  0  0  0  0
  -23.9997   -7.4643   22.7493 H   0  0  0  0  0  0
  -21.0843   -8.8780   19.8949 H   0  0  0  0  0  0
  -22.3710  -10.9677   19.6164 H   0  0  0  0  0  0
  -21.2020   -7.6156   23.9709 H   0  0  0  0  0  0
  -21.1488   -6.0532   25.9074 H   0  0  0  0  0  0
  -22.0597   -2.7610   23.2844 H   0  0  0  0  0  0
  -22.4105  -11.9853   22.4733 H   0  0  0  0  0  0
  -21.1114  -13.1235   22.2612 H   0  0  0  0  0  0
  -24.6708  -15.8518   20.5392 H   0  0  0  0  0  0
  -26.2923  -15.6316   20.1221 H   0  0  0  0  0  0
  -26.7101  -32.5533   23.1166 H   0  0  0  0  0  0
  -25.0021  -33.9727   25.0484 H   0  0  0  0  0  0
  -22.6878  -31.3094   21.4213 H   0  0  0  0  0  0
  -23.3725  -35.9668   23.3243 H   0  0  0  0  0  0
  -24.3554  -36.8991   22.2063 H   0  0  0  0  0  0
  -23.7284  -37.6519   23.6693 H   0  0  0  0  0  0
  -26.0247  -31.6022   20.5922 H   0  0  0  0  0  0
  -26.8165  -30.8952   21.9779 H   0  0  0  0  0  0
  -28.0896  -29.1002   21.1734 H   0  0  0  0  0  0
  -26.0236  -25.9854   18.9951 H   0  0  0  0  0  0
  -23.9605  -27.2916   19.0484 H   0  0  0  0  0  0
  -23.7158  -30.6038   19.4081 H   0  0  0  0  0  0
  -22.7298  -29.2464   19.8742 H   0  0  0  0  0  0
  -25.1264  -36.1917   25.0829 H   0  0  0  0  0  0
  -20.9930  -28.3281   24.1438 H   0  0  0  0  0  0
  -20.5691  -26.2300   23.3633 H   0  0  0  0  0  0
  -21.6622  -26.7505   22.1211 H   0  0  0  0  0  0
  -19.6898  -25.6314   21.1255 H   0  0  0  0  0  0
  -19.6662  -27.3209   20.6734 H   0  0  0  0  0  0
  -17.4193  -26.6699   21.4012 H   0  0  0  0  0  0
  -18.0279  -26.0090   22.9002 H   0  0  0  0  0  0
  -19.7940  -30.7248   24.2313 H   0  0  0  0  0  0
  -17.5032  -31.6285   24.5182 H   0  0  0  0  0  0
  -15.5355  -30.3032   23.7664 H   0  0  0  0  0  0
  -15.8640  -28.0869   22.7070 H   0  0  0  0  0  0
  -24.5988  -30.6988   25.7814 H   0  0  0  0  0  0
  -24.8974  -32.2790   26.5004 H   0  0  0  0  0  0
  -25.8176  -30.8804   27.0246 H   0  0  0  0  0  0
  -26.2959  -29.6706   24.1288 H   0  0  0  0  0  0
  -27.4342  -29.7414   25.4537 H   0  0  0  0  0  0
  -27.8670  -30.4388   23.9128 H   0  0  0  0  0  0
  -27.2726  -33.3609   26.2081 H   0  0  0  0  0  0
  -28.3869  -32.6851   25.0292 H   0  0  0  0  0  0
  -28.0772  -31.8446   26.5393 H   0  0  0  0  0  0
  -28.2552  -38.0132   24.7552 H   0  0  0  0  0  0
  -28.1139  -36.2664   24.6207 H   0  0  0  0  0  0
  -27.2305  -37.1330   25.8865 H   0  0  0  0  0  0
  -20.9315  -29.8792   21.6971 H   0  0  0  0  0  0
  -26.0147  -38.2840   24.1474 H   0  0  0  0  0  0
  -27.3752  -20.5605   19.0833 H   0  0  0  0  0  0
  -28.5879  -18.2029   18.6606 H   0  0  0  0  0  0
  -32.6410  -19.1543   19.5053 H   0  0  0  0  0  0
  -33.2529  -17.6400   20.1381 H   0  0  0  0  0  0
  -32.7258  -18.8635   21.2369 H   0  0  0  0  0  0
  -31.1008  -17.8457   18.0170 H   0  0  0  0  0  0
  -30.1273  -16.5265   18.6361 H   0  0  0  0  0  0
  -31.8844  -16.4344   18.6536 H   0  0  0  0  0  0
  -30.2562  -20.8491   22.9484 H   0  0  0  0  0  0
  -31.6420  -20.8882   21.8445 H   0  0  0  0  0  0
  -31.1545  -19.3807   22.6646 H   0  0  0  0  0  0
  -28.8285  -22.3303   22.1436 H   0  0  0  0  0  0
  -27.7189  -22.5669   20.8273 H   0  0  0  0  0  0
  -29.7039  -23.0047   19.2789 H   0  0  0  0  0  0
  -30.7520  -22.8958   20.6574 H   0  0  0  0  0  0
  -30.4594  -25.1977   20.2276 H   0  0  0  0  0  0
  -29.5706  -24.8894   21.6889 H   0  0  0  0  0  0
  -30.4545  -17.2363   22.2559 H   0  0  0  0  0  0
  -31.9129  -16.4824   21.7516 H   0  0  0  0  0  0
  -27.4416  -24.8988   20.4304 H   0  0  0  0  0  0
  -28.2923  -25.0716   18.8931 H   0  0  0  0  0  0
  -29.2332  -15.4288   21.3984 H   0  0  0  0  0  0
  1 25  1  0  0  0
  1 30  2  0  0  0
  1 85  1  0  0  0
  2  3  1  0  0  0
  2 25  1  0  0  0
  2 86  1  0  0  0
  2 87  1  0  0  0
  3  4  1  0  0  0
  3 88  1  0  0  0
  3 89  1  0  0  0
  4  5  1  0  0  0
  4 90  1  0  0  0
  4 91  1  0  0  0
  5  6  1  0  0  0
  5 26  1  0  0  0
  5 92  1  0  0  0
  6 25  1  0  0  0
  6 93  1  0  0  0
  6 94  1  0  0  0
  7  8  2  0  0  0
  7 26  1  0  0  0
  7 29  1  0  0  0
  8  9  1  0  0  0
  8 22  1  0  0  0
  9 10  1  0  0  0
  9 27  2  0  0  0
 10 11  2  0  0  0
 10 15  1  0  0  0
 11 12  1  0  0  0
 11 95  1  0  0  0
 12 13  2  0  0  0
 12 96  1  0  0  0
 13 14  1  0  0  0
 13 31  1  0  0  0
 14 15  2  0  0  0
 14 97  1  0  0  0
 15 98  1  0  0  0
 16 17  2  0  0  0
 16 21  1  0  0  0
 16 31  1  0  0  0
 17 18  1  0  0  0
 17 99  1  0  0  0
 18 19  2  0  0  0
 18100  1  0  0  0
 19 20  1  0  0  0
 19 24  1  0  0  0
 20 21  2  0  0  0
 20101  1  0  0  0
 21 23  1  0  0  0
 22 28  1  0  0  0
 22 32  2  0  0  0
 26 27  1  0  0  0
 28102  1  0  0  0
 28103  1  0  0  0
 29104  1  0  0  0
 29105  1  0  0  0
 33 34  1  0  0  0
 33 66  1  0  0  0
 33 70  2  0  0  0
 34 36  1  0  0  0
 34 59  1  0  0  0
 34106  1  0  0  0
 35 44  2  0  0  0
 35 45  1  0  0  0
 35 68  1  0  0  0
 36 56  1  0  0  0
 36107  1  0  0  0
 37 39  1  0  0  0
 37 47  1  0  0  0
 37 66  1  0  0  0
 37108  1  0  0  0
 38 43  2  0  0  0
 38 46  1  0  0  0
 38 47  1  0  0  0
 39 64  1  0  0  0
 39 67  2  0  0  0
 40 52  1  0  0  0
 40 53  2  0  0  0
 40 58  1  0  0  0
 41109  1  0  0  0
 41110  1  0  0  0
 41111  1  0  0  0
 41 48  1  0  0  0
 42 43  1  0  0  0
 42 66  1  0  0  0
 42112  1  0  0  0
 42113  1  0  0  0
 43 44  1  0  0  0
 44114  1  0  0  0
 45 46  2  0  0  0
 45115  1  0  0  0
 46116  1  0  0  0
 47117  1  0  0  0
 47118  1  0  0  0
 48 56  1  0  0  0
 48 65  1  0  0  0
 48119  1  0  0  0
 49 50  1  0  0  0
 49 53  1  0  0  0
 49 64  1  0  0  0
 49120  1  0  0  0
 50 51  1  0  0  0
 50121  1  0  0  0
 50122  1  0  0  0
 51 52  1  0  0  0
 51123  1  0  0  0
 51124  1  0  0  0
 52125  1  0  0  0
 52126  1  0  0  0
 53 54  1  0  0  0
 54 55  2  0  0  0
 54127  1  0  0  0
 55 57  1  0  0  0
 55128  1  0  0  0
 56 69  2  0  0  0
 57 58  2  0  0  0
 57129  1  0  0  0
 58130  1  0  0  0
 59 60  1  0  0  0
 59 61  1  0  0  0
 59 62  1  0  0  0
 60131  1  0  0  0
 60132  1  0  0  0
 60133  1  0  0  0
 61134  1  0  0  0
 61135  1  0  0  0
 61136  1  0  0  0
 62137  1  0  0  0
 62138  1  0  0  0
 62139  1  0  0  0
 63 65  1  0  0  0
 63140  1  0  0  0
 63141  1  0  0  0
 63142  1  0  0  0
 64143  1  0  0  0
 65144  1  0  0  0
 68 82  1  0  0  0
 71 72  1  0  0  0
 71 73  2  0  0  0
 71145  1  0  0  0
 72 74  2  0  0  0
 72146  1  0  0  0
 73 78  1  0  0  0
 73 84  1  0  0  0
 74 83  1  0  0  0
 74 84  1  0  0  0
 75147  1  0  0  0
 75148  1  0  0  0
 75149  1  0  0  0
 75 83  1  0  0  0
 76 83  1  0  0  0
 76150  1  0  0  0
 76151  1  0  0  0
 76152  1  0  0  0
 77 84  1  0  0  0
 77153  1  0  0  0
 77154  1  0  0  0
 77155  1  0  0  0
 78 79  1  0  0  0
 78156  1  0  0  0
 78157  1  0  0  0
 79 80  1  0  0  0
 79158  1  0  0  0
 79159  1  0  0  0
 80 82  1  0  0  0
 80160  1  0  0  0
 80161  1  0  0  0
 81 83  1  0  0  0
 81 85  1  0  0  0
 81162  1  0  0  0
 81163  1  0  0  0
 82164  1  0  0  0
 82165  1  0  0  0
 85166  1  0  0  0
M  ISO  4   1 100  68 101  82 101  85 100
M  END
> <chiral flag>
0

> <version>
0

> <s_m_source_file>
/data/baiqing/PycharmProjects/Reinvent-master-3.2/result/LINK_invent/BTK/process_docking_weight1_custom_sum_contain_oxygen_bond_distance_aromatic_linkinvent_7_9_3/rearranged_h_0087.sdf

> <i_m_source_file_index>
35

> <r_mmod_Potential_Energy-OPLS-2005>
-102.423904418945

> <r_mmod_Stretch_Energy-OPLS-2005>
38.9224510192871

> <r_mmod_Bend_Energy-OPLS-2005>
117.591850280762

> <r_mmod_Torsional_Energy-OPLS-2005>
239.453887939453

> <r_mmod_Improper_Torsional_Energy-OPLS-2005>
2.95670461654663

> <r_mmod_Van_der_Waal_Energy-OPLS-2005>
147.673446655273

> <r_mmod_Electrostatic_Energy-OPLS-2005>
-468.436157226562

> <r_mmod_Solvation_Energy-OPLS-2005>
-197.80305480957

> <b_mmod_Minimization_Converged-OPLS-2005>
0

> <r_mmod_RMS_Derivative-OPLS-2005>
3.56837916374207

$$$$
36
                    3D
 Structure written by MMmdl.
163171  0  0  1  0            999 V2000
  -30.5280  -15.0370   20.4301 C   0  0  0  0  0  0
  -30.4516  -12.6513   19.5225 C   0  0  0  0  0  0
  -29.5309  -12.5042   18.2878 C   0  0  0  0  0  0
  -28.0717  -12.2772   18.7214 C   0  0  0  0  0  0
  -27.6321  -13.2475   19.8461 C   0  0  2  0  0  0
  -28.6696  -13.3188   20.9873 C   0  0  0  0  0  0
  -25.2462  -13.8221   20.5720 C   0  0  0  0  0  0
  -24.1820  -13.0487   20.9250 C   0  0  0  0  0  0
  -24.6406  -11.6938   20.8781 C   0  0  0  0  0  0
  -23.9088  -10.4335   21.0436 C   0  0  0  0  0  0
  -24.3632   -9.4219   21.9209 C   0  0  0  0  0  0
  -23.6297   -8.2245   22.0757 C   0  0  0  0  0  0
  -22.4271   -8.0294   21.3527 C   0  0  0  0  0  0
  -21.9933   -9.0290   20.4634 C   0  0  0  0  0  0
  -22.7268  -10.2160   20.3071 C   0  0  0  0  0  0
  -21.6833   -6.0754   22.5276 C   0  0  0  0  0  0
  -21.4011   -6.5641   23.8218 C   0  0  0  0  0  0
  -21.3650   -5.6789   24.9176 C   0  0  0  0  0  0
  -21.6039   -4.3062   24.7210 C   0  0  0  0  0  0
  -21.8820   -3.8162   23.4332 C   0  0  0  0  0  0
  -21.9180   -4.6989   22.3395 C   0  0  0  0  0  0
  -22.7824  -13.5228   21.1927 C   0  0  0  0  0  0
  -22.1653   -4.2190   21.0968 F   0  0  0  0  0  0
  -21.5630   -3.4543   25.7714 F   0  0  0  0  0  0
  -29.9399  -13.7610   20.3910 N   0  0  0  0  0  0
  -26.2895  -12.9472   20.3271 N   0  0  0  0  0  0
  -25.9349  -11.6583   20.5834 N   0  0  0  0  0  0
  -22.0426  -12.8213   22.0405 N   0  0  0  0  0  0
  -25.4160  -15.1981   20.4187 N   0  0  0  0  0  0
  -31.6853  -15.0987   19.9958 O   0  0  0  0  0  0
  -21.6596   -6.8896   21.4239 O   0  0  0  0  0  0
  -22.3494  -14.5523   20.6715 O   0  0  0  0  0  0
  -24.6515  -31.8330   23.1721 C   0  0  0  0  0  0
  -25.9221  -32.4675   23.8153 C   0  0  1  0  0  0
  -27.2267  -27.0809   20.1579 C   0  0  0  0  0  0
  -25.5907  -33.8483   24.2086 N   0  0  0  0  0  0
  -23.4546  -30.4480   21.5181 C   0  0  2  0  0  0
  -24.9060  -28.8540   20.1047 C   0  0  0  0  0  0
  -22.7573  -29.4434   22.4715 C   0  0  0  0  0  0
  -18.0308  -28.1434   22.8437 C   0  0  0  0  0  0
  -24.1481  -36.7261   23.2661 C   0  0  0  0  0  0
  -26.0045  -30.6924   21.3722 C   0  0  0  0  0  0
  -26.0792  -29.2982   20.7238 C   0  0  0  0  0  0
  -27.2381  -28.4247   20.7292 C   0  0  0  0  0  0
  -26.0285  -26.7426   19.4935 C   0  0  0  0  0  0
  -24.9028  -27.5994   19.4627 C   0  0  0  0  0  0
  -23.6839  -29.7621   20.1408 C   0  0  0  0  0  0
  -25.4086  -36.3008   24.0322 C   0  0  1  0  0  0
  -20.5921  -28.3746   23.1250 C   0  0  2  0  0  0
  -20.6750  -26.9447   22.5411 C   0  0  0  0  0  0
  -19.5733  -26.6399   21.5214 C   0  0  0  0  0  0
  -18.1926  -26.7939   22.1630 C   0  0  0  0  0  0
  -19.1568  -28.8929   23.2812 C   0  0  0  0  0  0
  -18.9498  -30.1486   23.8887 C   0  0  0  0  0  0
  -17.6487  -30.6560   24.0651 C   0  0  0  0  0  0
  -25.9062  -34.9384   23.4977 C   0  0  0  0  0  0
  -16.5381  -29.9050   23.6384 C   0  0  0  0  0  0
  -16.7289  -28.6515   23.0321 C   0  0  0  0  0  0
  -26.4451  -31.6550   25.0644 C   0  0  0  0  0  0
  -25.3643  -31.3801   26.1404 C   0  0  0  0  0  0
  -27.0314  -30.2950   24.6178 C   0  0  0  0  0  0
  -27.6060  -32.4331   25.7352 C   0  0  0  0  0  0
  -27.5533  -37.1740   24.8428 C   0  0  0  0  0  0
  -21.4248  -29.3016   22.3546 N   0  0  0  0  0  0
  -26.4207  -37.3742   23.9440 N   0  0  0  0  0  0
  -24.7245  -31.0075   22.0788 N   0  0  0  0  0  0
  -23.4235  -28.8038   23.2885 O   0  0  0  0  0  0
  -28.2921  -26.1034   20.2780 O   0  0  0  0  0  0
  -26.5698  -34.8907   22.4568 O   0  0  0  0  0  0
  -23.5585  -32.1197   23.6884 O   0  0  0  0  0  0
  -30.8382  -21.4343   19.9301 C   0  0  0  0  0  0
  -29.7590  -20.5658   20.2113 C   0  0  0  0  0  0
  -32.1342  -20.9189   19.7381 C   0  0  0  0  0  0
  -30.1387  -19.0803   20.2480 C   0  0  0  0  0  0
  -34.9529  -23.5644   20.3649 C   0  0  0  0  0  0
  -29.7602  -16.3742   22.3270 C   0  0  0  0  0  0
  -28.3849  -21.4333   20.3987 C   0  0  0  0  0  0
  -33.3083  -21.8437   19.4089 C   0  0  0  0  0  0
  -29.3466  -17.6307   20.2493 C   0  0  0  0  0  0
  -34.0004  -22.3971   20.6683 C   0  0  0  0  0  0
  -28.0433  -23.1412   20.5830 C   0  0  0  0  0  0
  -28.4258  -24.6060   19.7892 C   0  0  0  0  0  0
  -32.4213  -19.6079   19.8517 N   0  0  0  0  0  0
  -31.4464  -18.7323   20.0882 N   0  0  0  0  0  0
  -29.8256  -16.2190   20.8678 N   0  0  0  0  0  0
  -31.4774  -12.8252   19.1862 H   0  0  0  0  0  0
  -30.4919  -11.7196   20.0886 H   0  0  0  0  0  0
  -29.8626  -11.6637   17.6771 H   0  0  0  0  0  0
  -29.5981  -13.3903   17.6588 H   0  0  0  0  0  0
  -28.0110  -11.2547   19.0974 H   0  0  0  0  0  0
  -27.3941  -12.3283   17.8703 H   0  0  0  0  0  0
  -27.5897  -14.2367   19.3872 H   0  0  0  0  0  0
  -28.7837  -12.3511   21.4774 H   0  0  0  0  0  0
  -28.3441  -14.0179   21.7572 H   0  0  0  0  0  0
  -25.2786   -9.5663   22.4772 H   0  0  0  0  0  0
  -23.9989   -7.4626   22.7491 H   0  0  0  0  0  0
  -21.0847   -8.8830   19.8933 H   0  0  0  0  0  0
  -22.3752  -10.9716   19.6160 H   0  0  0  0  0  0
  -21.1980   -7.6134   23.9731 H   0  0  0  0  0  0
  -21.1468   -6.0505   25.9073 H   0  0  0  0  0  0
  -22.0587   -2.7632   23.2803 H   0  0  0  0  0  0
  -22.3996  -11.9868   22.4835 H   0  0  0  0  0  0
  -21.1038  -13.1252   22.2637 H   0  0  0  0  0  0
  -24.6512  -15.8508   20.5461 H   0  0  0  0  0  0
  -26.2637  -15.6341   20.0796 H   0  0  0  0  0  0
  -26.7213  -32.5245   23.0817 H   0  0  0  0  0  0
  -25.0028  -33.9545   25.0231 H   0  0  0  0  0  0
  -22.7602  -31.2728   21.3411 H   0  0  0  0  0  0
  -23.3731  -35.9614   23.3235 H   0  0  0  0  0  0
  -24.3583  -36.9038   22.2120 H   0  0  0  0  0  0
  -23.7289  -37.6467   23.6708 H   0  0  0  0  0  0
  -26.1468  -31.4238   20.5732 H   0  0  0  0  0  0
  -26.8859  -30.7728   21.9943 H   0  0  0  0  0  0
  -28.1243  -28.7401   21.2600 H   0  0  0  0  0  0
  -25.9603  -25.7737   19.0145 H   0  0  0  0  0  0
  -24.0089  -27.2472   18.9683 H   0  0  0  0  0  0
  -23.8365  -30.5254   19.3776 H   0  0  0  0  0  0
  -22.8072  -29.2074   19.8169 H   0  0  0  0  0  0
  -25.1275  -36.1802   25.0817 H   0  0  0  0  0  0
  -21.0086  -28.3316   24.1383 H   0  0  0  0  0  0
  -20.5710  -26.2348   23.3594 H   0  0  0  0  0  0
  -21.6596  -26.7380   22.1272 H   0  0  0  0  0  0
  -19.6927  -25.6332   21.1248 H   0  0  0  0  0  0
  -19.6764  -27.3189   20.6745 H   0  0  0  0  0  0
  -17.4244  -26.6799   21.3961 H   0  0  0  0  0  0
  -18.0257  -26.0013   22.8986 H   0  0  0  0  0  0
  -19.7984  -30.7252   24.2313 H   0  0  0  0  0  0
  -17.5065  -31.6299   24.5163 H   0  0  0  0  0  0
  -15.5415  -30.3022   23.7620 H   0  0  0  0  0  0
  -15.8675  -28.0832   22.7057 H   0  0  0  0  0  0
  -24.5919  -30.6907   25.7706 H   0  0  0  0  0  0
  -24.8708  -32.3066   26.4468 H   0  0  0  0  0  0
  -25.8092  -30.9298   27.0312 H   0  0  0  0  0  0
  -26.2840  -29.6687   24.1231 H   0  0  0  0  0  0
  -27.3957  -29.7220   25.4705 H   0  0  0  0  0  0
  -27.8737  -30.4129   23.9358 H   0  0  0  0  0  0
  -27.2650  -33.3697   26.1722 H   0  0  0  0  0  0
  -28.3934  -32.6775   25.0202 H   0  0  0  0  0  0
  -28.0522  -31.8599   26.5475 H   0  0  0  0  0  0
  -28.2495  -38.0059   24.7536 H   0  0  0  0  0  0
  -28.1127  -36.2650   24.6179 H   0  0  0  0  0  0
  -27.2343  -37.1371   25.8847 H   0  0  0  0  0  0
  -20.9435  -29.8881   21.6889 H   0  0  0  0  0  0
  -26.0102  -38.2812   24.1509 H   0  0  0  0  0  0
  -30.6945  -22.5059   19.8488 H   0  0  0  0  0  0
  -35.3180  -24.0181   21.2856 H   0  0  0  0  0  0
  -34.4513  -24.3521   19.7999 H   0  0  0  0  0  0
  -35.8218  -23.2395   19.7897 H   0  0  0  0  0  0
  -28.7237  -16.4820   22.6450 H   0  0  0  0  0  0
  -30.3150  -17.2662   22.6334 H   0  0  0  0  0  0
  -30.1957  -15.5288   22.8660 H   0  0  0  0  0  0
  -28.0702  -21.0526   21.3835 H   0  0  0  0  0  0
  -27.6313  -20.9882   19.7422 H   0  0  0  0  0  0
  -32.9395  -22.6555   18.7853 H   0  0  0  0  0  0
  -34.0329  -21.3112   18.7895 H   0  0  0  0  0  0
  -29.1077  -17.4351   19.2020 H   0  0  0  0  0  0
  -28.3834  -17.8586   20.7036 H   0  0  0  0  0  0
  -33.2342  -22.7523   21.3590 H   0  0  0  0  0  0
  -34.5369  -21.5983   21.1782 H   0  0  0  0  0  0
  -28.1462  -23.3517   21.6452 H   0  0  0  0  0  0
  -26.9517  -23.1426   20.4823 H   0  0  0  0  0  0
  -28.0669  -24.5513   18.7737 H   0  0  0  0  0  0
  -29.4950  -24.5148   19.7130 H   0  0  0  0  0  0
  1 25  1  0  0  0
  1 30  2  0  0  0
  1 85  1  0  0  0
  2  3  1  0  0  0
  2 25  1  0  0  0
  2 86  1  0  0  0
  2 87  1  0  0  0
  3  4  1  0  0  0
  3 88  1  0  0  0
  3 89  1  0  0  0
  4  5  1  0  0  0
  4 90  1  0  0  0
  4 91  1  0  0  0
  5  6  1  0  0  0
  5 26  1  0  0  0
  5 92  1  0  0  0
  6 25  1  0  0  0
  6 93  1  0  0  0
  6 94  1  0  0  0
  7  8  2  0  0  0
  7 26  1  0  0  0
  7 29  1  0  0  0
  8  9  1  0  0  0
  8 22  1  0  0  0
  9 10  1  0  0  0
  9 27  2  0  0  0
 10 11  2  0  0  0
 10 15  1  0  0  0
 11 12  1  0  0  0
 11 95  1  0  0  0
 12 13  2  0  0  0
 12 96  1  0  0  0
 13 14  1  0  0  0
 13 31  1  0  0  0
 14 15  2  0  0  0
 14 97  1  0  0  0
 15 98  1  0  0  0
 16 17  2  0  0  0
 16 21  1  0  0  0
 16 31  1  0  0  0
 17 18  1  0  0  0
 17 99  1  0  0  0
 18 19  2  0  0  0
 18100  1  0  0  0
 19 20  1  0  0  0
 19 24  1  0  0  0
 20 21  2  0  0  0
 20101  1  0  0  0
 21 23  1  0  0  0
 22 28  1  0  0  0
 22 32  2  0  0  0
 26 27  1  0  0  0
 28102  1  0  0  0
 28103  1  0  0  0
 29104  1  0  0  0
 29105  1  0  0  0
 33 34  1  0  0  0
 33 66  1  0  0  0
 33 70  2  0  0  0
 34 36  1  0  0  0
 34 59  1  0  0  0
 34106  1  0  0  0
 35 44  2  0  0  0
 35 45  1  0  0  0
 35 68  1  0  0  0
 36 56  1  0  0  0
 36107  1  0  0  0
 37 39  1  0  0  0
 37 47  1  0  0  0
 37 66  1  0  0  0
 37108  1  0  0  0
 38 43  2  0  0  0
 38 46  1  0  0  0
 38 47  1  0  0  0
 39 64  1  0  0  0
 39 67  2  0  0  0
 40 52  1  0  0  0
 40 53  2  0  0  0
 40 58  1  0  0  0
 41109  1  0  0  0
 41110  1  0  0  0
 41111  1  0  0  0
 41 48  1  0  0  0
 42 43  1  0  0  0
 42 66  1  0  0  0
 42112  1  0  0  0
 42113  1  0  0  0
 43 44  1  0  0  0
 44114  1  0  0  0
 45 46  2  0  0  0
 45115  1  0  0  0
 46116  1  0  0  0
 47117  1  0  0  0
 47118  1  0  0  0
 48 56  1  0  0  0
 48 65  1  0  0  0
 48119  1  0  0  0
 49 50  1  0  0  0
 49 53  1  0  0  0
 49 64  1  0  0  0
 49120  1  0  0  0
 50 51  1  0  0  0
 50121  1  0  0  0
 50122  1  0  0  0
 51 52  1  0  0  0
 51123  1  0  0  0
 51124  1  0  0  0
 52125  1  0  0  0
 52126  1  0  0  0
 53 54  1  0  0  0
 54 55  2  0  0  0
 54127  1  0  0  0
 55 57  1  0  0  0
 55128  1  0  0  0
 56 69  2  0  0  0
 57 58  2  0  0  0
 57129  1  0  0  0
 58130  1  0  0  0
 59 60  1  0  0  0
 59 61  1  0  0  0
 59 62  1  0  0  0
 60131  1  0  0  0
 60132  1  0  0  0
 60133  1  0  0  0
 61134  1  0  0  0
 61135  1  0  0  0
 61136  1  0  0  0
 62137  1  0  0  0
 62138  1  0  0  0
 62139  1  0  0  0
 63 65  1  0  0  0
 63140  1  0  0  0
 63141  1  0  0  0
 63142  1  0  0  0
 64143  1  0  0  0
 65144  1  0  0  0
 68 82  1  0  0  0
 71 72  2  0  0  0
 71 73  1  0  0  0
 71145  1  0  0  0
 72 74  1  0  0  0
 72 77  1  0  0  0
 73 78  1  0  0  0
 73 83  2  0  0  0
 74 79  1  0  0  0
 74 84  2  0  0  0
 75 80  1  0  0  0
 75146  1  0  0  0
 75147  1  0  0  0
 75148  1  0  0  0
 76 85  1  0  0  0
 76149  1  0  0  0
 76150  1  0  0  0
 76151  1  0  0  0
 77 81  1  0  0  0
 77152  1  0  0  0
 77153  1  0  0  0
 78 80  1  0  0  0
 78154  1  0  0  0
 78155  1  0  0  0
 79 85  1  0  0  0
 79156  1  0  0  0
 79157  1  0  0  0
 80158  1  0  0  0
 80159  1  0  0  0
 81 82  1  0  0  0
 81160  1  0  0  0
 81161  1  0  0  0
 82162  1  0  0  0
 82163  1  0  0  0
 83 84  1  0  0  0
M  ISO  4   1 100  68 101  82 101  85 100
M  END
> <chiral flag>
0

> <version>
0

> <s_m_source_file>
/data/baiqing/PycharmProjects/Reinvent-master-3.2/result/LINK_invent/BTK/process_docking_weight1_custom_sum_contain_oxygen_bond_distance_aromatic_linkinvent_7_9_3/rearranged_h_0087.sdf

> <i_m_source_file_index>
36

> <r_mmod_Potential_Energy-OPLS-2005>
931.118347167969

> <r_mmod_Stretch_Energy-OPLS-2005>
353.301879882812

> <r_mmod_Bend_Energy-OPLS-2005>
453.306884765625

> <r_mmod_Torsional_Energy-OPLS-2005>
272.434234619141

> <r_mmod_Improper_Torsional_Energy-OPLS-2005>
3.1524293422699

> <r_mmod_Van_der_Waal_Energy-OPLS-2005>
122.136032104492

> <r_mmod_Electrostatic_Energy-OPLS-2005>
-291.857666015625

> <r_mmod_Solvation_Energy-OPLS-2005>
-233.548858642578

> <b_mmod_Minimization_Converged-OPLS-2005>
0

> <r_mmod_RMS_Derivative-OPLS-2005>
15.943808555603

$$$$
37
                    3D
 Structure written by MMmdl.
175183  0  0  1  0            999 V2000
  -30.6121  -14.7305   20.4584 C   0  0  0  0  0  0
  -30.4284  -12.4424   19.4806 C   0  0  0  0  0  0
  -29.5106  -12.5073   18.2400 C   0  0  0  0  0  0
  -28.0351  -12.3358   18.6497 C   0  0  0  0  0  0
  -27.6422  -13.2321   19.8544 C   0  0  2  0  0  0
  -28.6836  -13.1592   20.9924 C   0  0  0  0  0  0
  -25.2505  -13.8200   20.5694 C   0  0  0  0  0  0
  -24.1799  -13.0442   20.9204 C   0  0  0  0  0  0
  -24.6391  -11.6921   20.8745 C   0  0  0  0  0  0
  -23.9068  -10.4294   21.0405 C   0  0  0  0  0  0
  -24.3620   -9.4208   21.9182 C   0  0  0  0  0  0
  -23.6296   -8.2245   22.0754 C   0  0  0  0  0  0
  -22.4276   -8.0281   21.3543 C   0  0  0  0  0  0
  -21.9913   -9.0254   20.4645 C   0  0  0  0  0  0
  -22.7243  -10.2132   20.3054 C   0  0  0  0  0  0
  -21.6858   -6.0736   22.5278 C   0  0  0  0  0  0
  -21.4018   -6.5638   23.8210 C   0  0  0  0  0  0
  -21.3658   -5.6792   24.9172 C   0  0  0  0  0  0
  -21.6044   -4.3057   24.7223 C   0  0  0  0  0  0
  -21.8820   -3.8145   23.4345 C   0  0  0  0  0  0
  -21.9194   -4.6963   22.3401 C   0  0  0  0  0  0
  -22.7821  -13.5220   21.1865 C   0  0  0  0  0  0
  -22.1663   -4.2150   21.0979 F   0  0  0  0  0  0
  -21.5625   -3.4536   25.7734 F   0  0  0  0  0  0
  -29.9878  -13.5043   20.4153 N   0  0  0  0  0  0
  -26.2935  -12.9409   20.3287 N   0  0  0  0  0  0
  -25.9320  -11.6546   20.5756 N   0  0  0  0  0  0
  -22.0473  -12.8205   22.0421 N   0  0  0  0  0  0
  -25.4186  -15.1924   20.4101 N   0  0  0  0  0  0
  -31.7947  -14.8269   20.1191 O   0  0  0  0  0  0
  -21.6641   -6.8878   21.4240 O   0  0  0  0  0  0
  -22.3501  -14.5522   20.6713 O   0  0  0  0  0  0
  -24.6283  -31.8544   23.1959 C   0  0  0  0  0  0
  -25.9105  -32.4766   23.8307 C   0  0  1  0  0  0
  -27.2267  -27.2718   20.1474 C   0  0  0  0  0  0
  -25.5917  -33.8566   24.2244 N   0  0  0  0  0  0
  -23.4262  -30.4736   21.5382 C   0  0  2  0  0  0
  -24.8755  -28.9124   20.1158 C   0  0  0  0  0  0
  -22.7486  -29.4599   22.4913 C   0  0  0  0  0  0
  -18.0304  -28.1402   22.8496 C   0  0  0  0  0  0
  -24.1482  -36.7272   23.2641 C   0  0  0  0  0  0
  -25.9683  -30.7723   21.3716 C   0  0  0  0  0  0
  -26.0435  -29.3914   20.7228 C   0  0  0  0  0  0
  -27.2229  -28.5846   20.7223 C   0  0  0  0  0  0
  -26.0404  -26.8490   19.5128 C   0  0  0  0  0  0
  -24.8778  -27.6484   19.4997 C   0  0  0  0  0  0
  -23.6452  -29.7988   20.1573 C   0  0  0  0  0  0
  -25.4113  -36.3078   24.0334 C   0  0  1  0  0  0
  -20.5902  -28.3700   23.1278 C   0  0  2  0  0  0
  -20.6796  -26.9424   22.5418 C   0  0  0  0  0  0
  -19.5768  -26.6398   21.5225 C   0  0  0  0  0  0
  -18.1945  -26.7947   22.1629 C   0  0  0  0  0  0
  -19.1561  -28.8872   23.2885 C   0  0  0  0  0  0
  -18.9484  -30.1475   23.8895 C   0  0  0  0  0  0
  -17.6484  -30.6602   24.0582 C   0  0  0  0  0  0
  -25.9058  -34.9451   23.5099 C   0  0  0  0  0  0
  -16.5373  -29.9108   23.6341 C   0  0  0  0  0  0
  -16.7293  -28.6525   23.0361 C   0  0  0  0  0  0
  -26.4482  -31.6595   25.0688 C   0  0  0  0  0  0
  -25.3714  -31.3752   26.1413 C   0  0  0  0  0  0
  -27.0326  -30.3020   24.6155 C   0  0  0  0  0  0
  -27.6036  -32.4334   25.7467 C   0  0  0  0  0  0
  -27.5578  -37.1794   24.8473 C   0  0  0  0  0  0
  -21.4197  -29.3030   22.3649 N   0  0  0  0  0  0
  -26.4289  -37.3776   23.9421 N   0  0  0  0  0  0
  -24.6936  -31.0519   22.0917 N   0  0  0  0  0  0
  -23.4188  -28.8165   23.3036 O   0  0  0  0  0  0
  -28.3530  -26.4238   20.1385 O   0  0  0  0  0  0
  -26.5633  -34.8930   22.4673 O   0  0  0  0  0  0
  -23.5437  -32.1367   23.7259 O   0  0  0  0  0  0
  -28.5139  -19.0996   18.3687 C   0  0  0  0  0  0
  -28.1852  -21.2811   18.2216 C   0  0  0  0  0  0
  -28.0461  -20.1279   17.5123 C   0  0  0  0  0  0
  -28.9068  -19.6066   19.5809 C   0  0  0  0  0  0
  -28.2196  -18.2463   21.6237 C   0  0  0  0  0  0
  -26.0325  -20.5359   16.1007 C   0  0  0  0  0  0
  -27.4678  -18.5360   15.6393 C   0  0  0  0  0  0
  -28.3320  -20.8370   15.1332 C   0  0  0  0  0  0
  -27.2900  -24.9415   21.8636 C   0  0  0  0  0  0
  -29.7492  -25.1523   21.5270 C   0  0  0  0  0  0
  -28.4184  -23.7291   19.8839 C   0  0  0  0  0  0
  -28.7922  -22.2335   20.4591 C   0  0  0  0  0  0
  -30.2358  -17.3040   20.2696 C   0  0  0  0  0  0
  -29.3924  -18.6356   20.7146 C   0  0  1  0  0  0
  -27.4779  -20.0047   16.1066 C   0  0  0  0  0  0
  -28.3986  -25.0672   20.7982 C   0  0  0  0  0  0
  -28.6628  -21.0454   19.5073 N   0  0  0  0  0  0
  -29.8488  -15.8710   20.6518 N   0  0  0  0  0  0
  -31.4716  -12.5591   19.1817 H   0  0  0  0  0  0
  -30.3640  -11.4637   19.9582 H   0  0  0  0  0  0
  -29.7913  -11.7374   17.5196 H   0  0  0  0  0  0
  -29.6435  -13.4644   17.7333 H   0  0  0  0  0  0
  -27.8851  -11.2869   18.9061 H   0  0  0  0  0  0
  -27.3813  -12.5365   17.7997 H   0  0  0  0  0  0
  -27.6401  -14.2555   19.4789 H   0  0  0  0  0  0
  -28.7118  -12.1614   21.4319 H   0  0  0  0  0  0
  -28.4207  -13.8425   21.8017 H   0  0  0  0  0  0
  -25.2767   -9.5686   22.4755 H   0  0  0  0  0  0
  -24.0006   -7.4637   22.7475 H   0  0  0  0  0  0
  -21.0845   -8.8769   19.8954 H   0  0  0  0  0  0
  -22.3698  -10.9666   19.6159 H   0  0  0  0  0  0
  -21.2015   -7.6147   23.9712 H   0  0  0  0  0  0
  -21.1478   -6.0521   25.9075 H   0  0  0  0  0  0
  -22.0601   -2.7608   23.2840 H   0  0  0  0  0  0
  -22.4098  -11.9867   22.4801 H   0  0  0  0  0  0
  -21.1090  -13.1223   22.2633 H   0  0  0  0  0  0
  -24.6465  -15.8413   20.5152 H   0  0  0  0  0  0
  -26.2579  -15.6317   20.0554 H   0  0  0  0  0  0
  -26.7164  -32.5417   23.1044 H   0  0  0  0  0  0
  -25.0089  -33.9712   25.0407 H   0  0  0  0  0  0
  -22.7235  -31.2957   21.3876 H   0  0  0  0  0  0
  -23.3764  -35.9583   23.3321 H   0  0  0  0  0  0
  -24.3572  -36.8883   22.2053 H   0  0  0  0  0  0
  -23.7214  -37.6473   23.6646 H   0  0  0  0  0  0
  -26.1012  -31.5294   20.5970 H   0  0  0  0  0  0
  -26.8476  -30.8263   22.0031 H   0  0  0  0  0  0
  -28.1229  -28.9526   21.1945 H   0  0  0  0  0  0
  -26.0142  -25.8797   19.0368 H   0  0  0  0  0  0
  -23.9824  -27.2776   19.0180 H   0  0  0  0  0  0
  -23.7720  -30.5706   19.3971 H   0  0  0  0  0  0
  -22.7630  -29.2320   19.8540 H   0  0  0  0  0  0
  -25.1301  -36.1921   25.0826 H   0  0  0  0  0  0
  -21.0005  -28.3279   24.1396 H   0  0  0  0  0  0
  -20.5718  -26.2303   23.3616 H   0  0  0  0  0  0
  -21.6662  -26.7471   22.1195 H   0  0  0  0  0  0
  -19.6932  -25.6312   21.1260 H   0  0  0  0  0  0
  -19.6712  -27.3208   20.6755 H   0  0  0  0  0  0
  -17.4223  -26.6715   21.4022 H   0  0  0  0  0  0
  -18.0332  -26.0093   22.9027 H   0  0  0  0  0  0
  -19.7963  -30.7305   24.2236 H   0  0  0  0  0  0
  -17.5045  -31.6278   24.5204 H   0  0  0  0  0  0
  -15.5372  -30.3022   23.7651 H   0  0  0  0  0  0
  -15.8693  -28.0849   22.7061 H   0  0  0  0  0  0
  -24.5888  -30.7097   25.7752 H   0  0  0  0  0  0
  -24.8894  -32.2922   26.4799 H   0  0  0  0  0  0
  -25.8027  -30.8967   27.0209 H   0  0  0  0  0  0
  -26.2892  -29.6777   24.1171 H   0  0  0  0  0  0
  -27.4027  -29.7259   25.4645 H   0  0  0  0  0  0
  -27.8764  -30.4325   23.9376 H   0  0  0  0  0  0
  -27.2642  -33.3644   26.2015 H   0  0  0  0  0  0
  -28.3853  -32.6876   25.0303 H   0  0  0  0  0  0
  -28.0678  -31.8475   26.5409 H   0  0  0  0  0  0
  -28.2605  -38.0082   24.7530 H   0  0  0  0  0  0
  -28.1072  -36.2621   24.6295 H   0  0  0  0  0  0
  -27.2306  -37.1441   25.8879 H   0  0  0  0  0  0
  -20.9369  -29.8736   21.6850 H   0  0  0  0  0  0
  -26.0181  -38.2856   24.1426 H   0  0  0  0  0  0
  -28.5324  -18.0481   18.1217 H   0  0  0  0  0  0
  -27.9314  -22.2735   17.8839 H   0  0  0  0  0  0
  -27.7292  -19.1319   22.0295 H   0  0  0  0  0  0
  -28.5558  -17.6424   22.4677 H   0  0  0  0  0  0
  -27.4701  -17.6750   21.0761 H   0  0  0  0  0  0
  -25.4046  -19.9783   16.7970 H   0  0  0  0  0  0
  -25.5789  -20.4532   15.1126 H   0  0  0  0  0  0
  -25.9863  -21.5862   16.3917 H   0  0  0  0  0  0
  -26.8602  -17.9112   16.2951 H   0  0  0  0  0  0
  -28.4733  -18.1141   15.6182 H   0  0  0  0  0  0
  -27.0557  -18.4412   14.6342 H   0  0  0  0  0  0
  -28.3621  -21.8891   15.4196 H   0  0  0  0  0  0
  -27.9376  -20.7914   14.1173 H   0  0  0  0  0  0
  -29.3617  -20.4780   15.1035 H   0  0  0  0  0  0
  -27.4350  -24.0549   22.4808 H   0  0  0  0  0  0
  -26.3017  -24.8546   21.4123 H   0  0  0  0  0  0
  -27.2766  -25.8024   22.5331 H   0  0  0  0  0  0
  -29.9332  -24.2761   22.1493 H   0  0  0  0  0  0
  -29.7908  -26.0263   22.1791 H   0  0  0  0  0  0
  -30.5737  -25.2343   20.8188 H   0  0  0  0  0  0
  -27.4267  -23.6718   19.4371 H   0  0  0  0  0  0
  -29.0994  -23.9298   19.0566 H   0  0  0  0  0  0
  -28.1668  -22.0191   21.3254 H   0  0  0  0  0  0
  -29.8188  -22.2406   20.8254 H   0  0  0  0  0  0
  -31.2490  -17.4479   20.6482 H   0  0  0  0  0  0
  -30.3745  -17.3074   19.1894 H   0  0  0  0  0  0
  -30.0711  -19.2191   21.3388 H   0  0  0  0  0  0
  -28.8889  -15.7225   20.9238 H   0  0  0  0  0  0
  1 25  1  0  0  0
  1 30  2  0  0  0
  1 88  1  0  0  0
  2  3  1  0  0  0
  2 25  1  0  0  0
  2 89  1  0  0  0
  2 90  1  0  0  0
  3  4  1  0  0  0
  3 91  1  0  0  0
  3 92  1  0  0  0
  4  5  1  0  0  0
  4 93  1  0  0  0
  4 94  1  0  0  0
  5  6  1  0  0  0
  5 26  1  0  0  0
  5 95  1  0  0  0
  6 25  1  0  0  0
  6 96  1  0  0  0
  6 97  1  0  0  0
  7  8  2  0  0  0
  7 26  1  0  0  0
  7 29  1  0  0  0
  8  9  1  0  0  0
  8 22  1  0  0  0
  9 10  1  0  0  0
  9 27  2  0  0  0
 10 11  2  0  0  0
 10 15  1  0  0  0
 11 12  1  0  0  0
 11 98  1  0  0  0
 12 13  2  0  0  0
 12 99  1  0  0  0
 13 14  1  0  0  0
 13 31  1  0  0  0
 14 15  2  0  0  0
 14100  1  0  0  0
 15101  1  0  0  0
 16 17  2  0  0  0
 16 21  1  0  0  0
 16 31  1  0  0  0
 17 18  1  0  0  0
 17102  1  0  0  0
 18 19  2  0  0  0
 18103  1  0  0  0
 19 20  1  0  0  0
 19 24  1  0  0  0
 20 21  2  0  0  0
 20104  1  0  0  0
 21 23  1  0  0  0
 22 28  1  0  0  0
 22 32  2  0  0  0
 26 27  1  0  0  0
 28105  1  0  0  0
 28106  1  0  0  0
 29107  1  0  0  0
 29108  1  0  0  0
 33 34  1  0  0  0
 33 66  1  0  0  0
 33 70  2  0  0  0
 34 36  1  0  0  0
 34 59  1  0  0  0
 34109  1  0  0  0
 35 44  2  0  0  0
 35 45  1  0  0  0
 35 68  1  0  0  0
 36 56  1  0  0  0
 36110  1  0  0  0
 37 39  1  0  0  0
 37 47  1  0  0  0
 37 66  1  0  0  0
 37111  1  0  0  0
 38 43  2  0  0  0
 38 46  1  0  0  0
 38 47  1  0  0  0
 39 64  1  0  0  0
 39 67  2  0  0  0
 40 52  1  0  0  0
 40 53  2  0  0  0
 40 58  1  0  0  0
 41112  1  0  0  0
 41113  1  0  0  0
 41114  1  0  0  0
 41 48  1  0  0  0
 42 43  1  0  0  0
 42 66  1  0  0  0
 42115  1  0  0  0
 42116  1  0  0  0
 43 44  1  0  0  0
 44117  1  0  0  0
 45 46  2  0  0  0
 45118  1  0  0  0
 46119  1  0  0  0
 47120  1  0  0  0
 47121  1  0  0  0
 48 56  1  0  0  0
 48 65  1  0  0  0
 48122  1  0  0  0
 49 50  1  0  0  0
 49 53  1  0  0  0
 49 64  1  0  0  0
 49123  1  0  0  0
 50 51  1  0  0  0
 50124  1  0  0  0
 50125  1  0  0  0
 51 52  1  0  0  0
 51126  1  0  0  0
 51127  1  0  0  0
 52128  1  0  0  0
 52129  1  0  0  0
 53 54  1  0  0  0
 54 55  2  0  0  0
 54130  1  0  0  0
 55 57  1  0  0  0
 55131  1  0  0  0
 56 69  2  0  0  0
 57 58  2  0  0  0
 57132  1  0  0  0
 58133  1  0  0  0
 59 60  1  0  0  0
 59 61  1  0  0  0
 59 62  1  0  0  0
 60134  1  0  0  0
 60135  1  0  0  0
 60136  1  0  0  0
 61137  1  0  0  0
 61138  1  0  0  0
 61139  1  0  0  0
 62140  1  0  0  0
 62141  1  0  0  0
 62142  1  0  0  0
 63 65  1  0  0  0
 63143  1  0  0  0
 63144  1  0  0  0
 63145  1  0  0  0
 64146  1  0  0  0
 65147  1  0  0  0
 68 86  1  0  0  0
 71 73  1  0  0  0
 71 74  2  0  0  0
 71148  1  0  0  0
 72 73  2  0  0  0
 72 87  1  0  0  0
 72149  1  0  0  0
 73 85  1  0  0  0
 74 84  1  0  0  0
 74 87  1  0  0  0
 75150  1  0  0  0
 75151  1  0  0  0
 75152  1  0  0  0
 75 84  1  0  0  0
 76153  1  0  0  0
 76154  1  0  0  0
 76155  1  0  0  0
 76 85  1  0  0  0
 77 85  1  0  0  0
 77156  1  0  0  0
 77157  1  0  0  0
 77158  1  0  0  0
 78 85  1  0  0  0
 78159  1  0  0  0
 78160  1  0  0  0
 78161  1  0  0  0
 79162  1  0  0  0
 79163  1  0  0  0
 79164  1  0  0  0
 79 86  1  0  0  0
 80 86  1  0  0  0
 80165  1  0  0  0
 80166  1  0  0  0
 80167  1  0  0  0
 81 82  1  0  0  0
 81 86  1  0  0  0
 81168  1  0  0  0
 81169  1  0  0  0
 82 87  1  0  0  0
 82170  1  0  0  0
 82171  1  0  0  0
 83 84  1  0  0  0
 83 88  1  0  0  0
 83172  1  0  0  0
 83173  1  0  0  0
 84174  1  0  0  0
 88175  1  0  0  0
M  ISO  4   1 100  68 101  86 101  88 100
M  END
> <chiral flag>
0

> <version>
0

> <s_m_source_file>
/data/baiqing/PycharmProjects/Reinvent-master-3.2/result/LINK_invent/BTK/process_docking_weight1_custom_sum_contain_oxygen_bond_distance_aromatic_linkinvent_7_9_3/rearranged_h_0087.sdf

> <i_m_source_file_index>
37

> <r_mmod_Potential_Energy-OPLS-2005>
136.826065063477

> <r_mmod_Stretch_Energy-OPLS-2005>
137.702941894531

> <r_mmod_Bend_Energy-OPLS-2005>
214.999893188477

> <r_mmod_Torsional_Energy-OPLS-2005>
270.703643798828

> <r_mmod_Improper_Torsional_Energy-OPLS-2005>
5.98561525344849

> <r_mmod_Van_der_Waal_Energy-OPLS-2005>
115.646438598633

> <r_mmod_Electrostatic_Energy-OPLS-2005>
-492.110656738281

> <r_mmod_Solvation_Energy-OPLS-2005>
-191.192138671875

> <b_mmod_Minimization_Converged-OPLS-2005>
0

> <r_mmod_RMS_Derivative-OPLS-2005>
1.69575476646423

$$$$
38
                    3D
 Structure written by MMmdl.
169177  0  0  1  0            999 V2000
  -30.6306  -14.7284   20.4405 C   0  0  0  0  0  0
  -30.4240  -12.4403   19.4622 C   0  0  0  0  0  0
  -29.4989  -12.4983   18.2278 C   0  0  0  0  0  0
  -28.0286  -12.3258   18.6523 C   0  0  0  0  0  0
  -27.6408  -13.2318   19.8510 C   0  0  2  0  0  0
  -28.6918  -13.1720   20.9813 C   0  0  0  0  0  0
  -25.2506  -13.8213   20.5728 C   0  0  0  0  0  0
  -24.1791  -13.0445   20.9247 C   0  0  0  0  0  0
  -24.6391  -11.6936   20.8796 C   0  0  0  0  0  0
  -23.9069  -10.4302   21.0430 C   0  0  0  0  0  0
  -24.3617   -9.4211   21.9196 C   0  0  0  0  0  0
  -23.6299   -8.2244   22.0746 C   0  0  0  0  0  0
  -22.4286   -8.0290   21.3535 C   0  0  0  0  0  0
  -21.9925   -9.0266   20.4639 C   0  0  0  0  0  0
  -22.7253  -10.2150   20.3065 C   0  0  0  0  0  0
  -21.6848   -6.0745   22.5279 C   0  0  0  0  0  0
  -21.4019   -6.5639   23.8220 C   0  0  0  0  0  0
  -21.3657   -5.6787   24.9176 C   0  0  0  0  0  0
  -21.6048   -4.3053   24.7226 C   0  0  0  0  0  0
  -21.8816   -3.8150   23.4342 C   0  0  0  0  0  0
  -21.9193   -4.6970   22.3401 C   0  0  0  0  0  0
  -22.7822  -13.5235   21.1919 C   0  0  0  0  0  0
  -22.1659   -4.2153   21.0981 F   0  0  0  0  0  0
  -21.5625   -3.4538   25.7736 F   0  0  0  0  0  0
  -29.9890  -13.5124   20.3850 N   0  0  0  0  0  0
  -26.2933  -12.9416   20.3332 N   0  0  0  0  0  0
  -25.9320  -11.6556   20.5809 N   0  0  0  0  0  0
  -22.0463  -12.8198   22.0461 N   0  0  0  0  0  0
  -25.4202  -15.1928   20.4087 N   0  0  0  0  0  0
  -31.8318  -14.7986   20.1691 O   0  0  0  0  0  0
  -21.6641   -6.8896   21.4246 O   0  0  0  0  0  0
  -22.3505  -14.5543   20.6785 O   0  0  0  0  0  0
  -24.6268  -31.8559   23.2009 C   0  0  0  0  0  0
  -25.9099  -32.4760   23.8320 C   0  0  1  0  0  0
  -27.2210  -27.2758   20.1427 C   0  0  0  0  0  0
  -25.5884  -33.8560   24.2237 N   0  0  0  0  0  0
  -23.4235  -30.4795   21.5454 C   0  0  2  0  0  0
  -24.8716  -28.9241   20.1190 C   0  0  0  0  0  0
  -22.7456  -29.4619   22.4943 C   0  0  0  0  0  0
  -18.0278  -28.1352   22.8493 C   0  0  0  0  0  0
  -24.1489  -36.7313   23.2644 C   0  0  0  0  0  0
  -25.9680  -30.7744   21.3797 C   0  0  0  0  0  0
  -26.0444  -29.3980   20.7231 C   0  0  0  0  0  0
  -27.2230  -28.5882   20.7203 C   0  0  0  0  0  0
  -26.0312  -26.8690   19.5017 C   0  0  0  0  0  0
  -24.8685  -27.6645   19.5012 C   0  0  0  0  0  0
  -23.6408  -29.8092   20.1652 C   0  0  0  0  0  0
  -25.4116  -36.3088   24.0312 C   0  0  1  0  0  0
  -20.5888  -28.3672   23.1283 C   0  0  2  0  0  0
  -20.6789  -26.9399   22.5408 C   0  0  0  0  0  0
  -19.5772  -26.6358   21.5213 C   0  0  0  0  0  0
  -18.1945  -26.7900   22.1614 C   0  0  0  0  0  0
  -19.1534  -28.8820   23.2885 C   0  0  0  0  0  0
  -18.9461  -30.1432   23.8886 C   0  0  0  0  0  0
  -17.6467  -30.6577   24.0549 C   0  0  0  0  0  0
  -25.9030  -34.9449   23.5089 C   0  0  0  0  0  0
  -16.5354  -29.9068   23.6343 C   0  0  0  0  0  0
  -16.7271  -28.6485   23.0363 C   0  0  0  0  0  0
  -26.4460  -31.6586   25.0714 C   0  0  0  0  0  0
  -25.3670  -31.3746   26.1438 C   0  0  0  0  0  0
  -27.0315  -30.3004   24.6198 C   0  0  0  0  0  0
  -27.5997  -32.4357   25.7487 C   0  0  0  0  0  0
  -27.5583  -37.1803   24.8447 C   0  0  0  0  0  0
  -21.4170  -29.3031   22.3663 N   0  0  0  0  0  0
  -26.4297  -37.3782   23.9386 N   0  0  0  0  0  0
  -24.6926  -31.0516   22.0998 N   0  0  0  0  0  0
  -23.4160  -28.8152   23.3030 O   0  0  0  0  0  0
  -28.3225  -26.3947   20.1709 O   0  0  0  0  0  0
  -26.5635  -34.8922   22.4676 O   0  0  0  0  0  0
  -23.5419  -32.1367   23.7318 O   0  0  0  0  0  0
  -30.9966  -22.0170   18.6988 C   0  0  0  0  0  0
  -30.0524  -21.2706   19.4469 C   0  0  0  0  0  0
  -30.1445  -19.7964   19.2938 C   0  0  0  0  0  0
  -30.9536  -19.3461   18.1973 C   0  0  0  0  0  0
  -31.8183  -20.2397   17.5228 C   0  0  0  0  0  0
  -36.6273  -19.9636   15.8301 C   0  0  0  0  0  0
  -29.0365  -22.2133   20.2483 C   0  0  0  0  0  0
  -29.4482  -18.6062   20.1011 C   0  0  0  0  0  0
  -32.7468  -19.8360   16.3803 C   0  0  0  0  0  0
  -35.1562  -19.6236   15.5614 C   0  0  0  0  0  0
  -29.0995  -23.8305   19.9435 C   0  0  0  0  0  0
  -34.2378  -19.9803   16.7394 C   0  0  0  0  0  0
  -30.3721  -17.3403   20.5969 C   0  0  0  0  0  0
  -28.1109  -24.9502   20.5424 C   0  0  0  0  0  0
  -31.8602  -21.5402   17.8022 N   0  0  0  0  0  0
  -30.8606  -18.0344   17.7186 N   0  0  0  0  0  0
  -29.8789  -15.8852   20.5895 N   0  0  0  0  0  0
  -31.4656  -12.5513   19.1570 H   0  0  0  0  0  0
  -30.3572  -11.4674   19.9516 H   0  0  0  0  0  0
  -29.7735  -11.7211   17.5134 H   0  0  0  0  0  0
  -29.6233  -13.4512   17.7098 H   0  0  0  0  0  0
  -27.8938  -11.2804   18.9301 H   0  0  0  0  0  0
  -27.3613  -12.5042   17.8075 H   0  0  0  0  0  0
  -27.6350  -14.2513   19.4641 H   0  0  0  0  0  0
  -28.7288  -12.1809   21.4348 H   0  0  0  0  0  0
  -28.4419  -13.8677   21.7828 H   0  0  0  0  0  0
  -25.2754   -9.5689   22.4780 H   0  0  0  0  0  0
  -24.0006   -7.4633   22.7456 H   0  0  0  0  0  0
  -21.0860   -8.8801   19.8937 H   0  0  0  0  0  0
  -22.3717  -10.9700   19.6181 H   0  0  0  0  0  0
  -21.2015   -7.6150   23.9732 H   0  0  0  0  0  0
  -21.1477   -6.0511   25.9081 H   0  0  0  0  0  0
  -22.0598   -2.7615   23.2842 H   0  0  0  0  0  0
  -22.4065  -11.9825   22.4793 H   0  0  0  0  0  0
  -21.1089  -13.1220   22.2711 H   0  0  0  0  0  0
  -24.6531  -15.8490   20.5117 H   0  0  0  0  0  0
  -26.2636  -15.6255   20.0537 H   0  0  0  0  0  0
  -26.7149  -32.5425   23.1048 H   0  0  0  0  0  0
  -24.9952  -33.9655   25.0327 H   0  0  0  0  0  0
  -22.7228  -31.3043   21.3998 H   0  0  0  0  0  0
  -23.3737  -35.9658   23.3308 H   0  0  0  0  0  0
  -24.3588  -36.8955   22.2061 H   0  0  0  0  0  0
  -23.7236  -37.6504   23.6686 H   0  0  0  0  0  0
  -26.0979  -31.5365   20.6126 H   0  0  0  0  0  0
  -26.8488  -30.8300   22.0071 H   0  0  0  0  0  0
  -28.1223  -28.9484   21.2021 H   0  0  0  0  0  0
  -25.9876  -25.9106   19.0050 H   0  0  0  0  0  0
  -23.9705  -27.2907   19.0290 H   0  0  0  0  0  0
  -23.7622  -30.5841   19.4082 H   0  0  0  0  0  0
  -22.7579  -29.2413   19.8651 H   0  0  0  0  0  0
  -25.1313  -36.1952   25.0803 H   0  0  0  0  0  0
  -20.9976  -28.3253   24.1409 H   0  0  0  0  0  0
  -20.5703  -26.2279   23.3605 H   0  0  0  0  0  0
  -21.6667  -26.7452   22.1210 H   0  0  0  0  0  0
  -19.6951  -25.6265   21.1250 H   0  0  0  0  0  0
  -19.6711  -27.3156   20.6739 H   0  0  0  0  0  0
  -17.4226  -26.6636   21.4000 H   0  0  0  0  0  0
  -18.0356  -26.0015   22.8979 H   0  0  0  0  0  0
  -19.7935  -30.7252   24.2252 H   0  0  0  0  0  0
  -17.5030  -31.6278   24.5119 H   0  0  0  0  0  0
  -15.5360  -30.2970   23.7707 H   0  0  0  0  0  0
  -15.8661  -28.0820   22.7089 H   0  0  0  0  0  0
  -24.5845  -30.7091   25.7777 H   0  0  0  0  0  0
  -24.8837  -32.2917   26.4822 H   0  0  0  0  0  0
  -25.7981  -30.8949   27.0237 H   0  0  0  0  0  0
  -26.2913  -29.6730   24.1204 H   0  0  0  0  0  0
  -27.3984  -29.7287   25.4729 H   0  0  0  0  0  0
  -27.8802  -30.4284   23.9471 H   0  0  0  0  0  0
  -27.2589  -33.3674   26.2018 H   0  0  0  0  0  0
  -28.3836  -32.6878   25.0334 H   0  0  0  0  0  0
  -28.0632  -31.8501   26.5429 H   0  0  0  0  0  0
  -28.2598  -38.0111   24.7571 H   0  0  0  0  0  0
  -28.1099  -36.2642   24.6238 H   0  0  0  0  0  0
  -27.2309  -37.1469   25.8855 H   0  0  0  0  0  0
  -20.9325  -29.8710   21.6846 H   0  0  0  0  0  0
  -26.0179  -38.2858   24.1393 H   0  0  0  0  0  0
  -31.0835  -23.0859   18.7542 H   0  0  0  0  0  0
  -37.2530  -19.6803   14.9835 H   0  0  0  0  0  0
  -37.0066  -19.4420   16.7093 H   0  0  0  0  0  0
  -36.7609  -21.0341   15.9941 H   0  0  0  0  0  0
  -29.1792  -22.0443   21.3161 H   0  0  0  0  0  0
  -28.0264  -21.8674   20.0238 H   0  0  0  0  0  0
  -28.6566  -18.2247   19.4572 H   0  0  0  0  0  0
  -28.9321  -19.0305   20.9623 H   0  0  0  0  0  0
  -32.5134  -20.4774   15.5289 H   0  0  0  0  0  0
  -32.5538  -18.8200   16.0389 H   0  0  0  0  0  0
  -35.0627  -18.5611   15.3379 H   0  0  0  0  0  0
  -34.8284  -20.1565   14.6671 H   0  0  0  0  0  0
  -29.0376  -23.9581   18.8620 H   0  0  0  0  0  0
  -30.0895  -24.1779   20.2390 H   0  0  0  0  0  0
  -34.4697  -19.3530   17.6015 H   0  0  0  0  0  0
  -34.4392  -21.0086   17.0426 H   0  0  0  0  0  0
  -30.6750  -17.5547   21.6212 H   0  0  0  0  0  0
  -31.3253  -17.3496   20.0704 H   0  0  0  0  0  0
  -28.2030  -24.9077   21.6287 H   0  0  0  0  0  0
  -27.0900  -24.6326   20.3450 H   0  0  0  0  0  0
  -30.0422  -17.4857   17.9556 H   0  0  0  0  0  0
  -31.2298  -17.8203   16.7971 H   0  0  0  0  0  0
  -28.8905  -15.7455   20.7363 H   0  0  0  0  0  0
  1 25  1  0  0  0
  1 30  2  0  0  0
  1 87  1  0  0  0
  2  3  1  0  0  0
  2 25  1  0  0  0
  2 88  1  0  0  0
  2 89  1  0  0  0
  3  4  1  0  0  0
  3 90  1  0  0  0
  3 91  1  0  0  0
  4  5  1  0  0  0
  4 92  1  0  0  0
  4 93  1  0  0  0
  5  6  1  0  0  0
  5 26  1  0  0  0
  5 94  1  0  0  0
  6 25  1  0  0  0
  6 95  1  0  0  0
  6 96  1  0  0  0
  7  8  2  0  0  0
  7 26  1  0  0  0
  7 29  1  0  0  0
  8  9  1  0  0  0
  8 22  1  0  0  0
  9 10  1  0  0  0
  9 27  2  0  0  0
 10 11  2  0  0  0
 10 15  1  0  0  0
 11 12  1  0  0  0
 11 97  1  0  0  0
 12 13  2  0  0  0
 12 98  1  0  0  0
 13 14  1  0  0  0
 13 31  1  0  0  0
 14 15  2  0  0  0
 14 99  1  0  0  0
 15100  1  0  0  0
 16 17  2  0  0  0
 16 21  1  0  0  0
 16 31  1  0  0  0
 17 18  1  0  0  0
 17101  1  0  0  0
 18 19  2  0  0  0
 18102  1  0  0  0
 19 20  1  0  0  0
 19 24  1  0  0  0
 20 21  2  0  0  0
 20103  1  0  0  0
 21 23  1  0  0  0
 22 28  1  0  0  0
 22 32  2  0  0  0
 26 27  1  0  0  0
 28104  1  0  0  0
 28105  1  0  0  0
 29106  1  0  0  0
 29107  1  0  0  0
 33 34  1  0  0  0
 33 66  1  0  0  0
 33 70  2  0  0  0
 34 36  1  0  0  0
 34 59  1  0  0  0
 34108  1  0  0  0
 35 44  2  0  0  0
 35 45  1  0  0  0
 35 68  1  0  0  0
 36 56  1  0  0  0
 36109  1  0  0  0
 37 39  1  0  0  0
 37 47  1  0  0  0
 37 66  1  0  0  0
 37110  1  0  0  0
 38 43  2  0  0  0
 38 46  1  0  0  0
 38 47  1  0  0  0
 39 64  1  0  0  0
 39 67  2  0  0  0
 40 52  1  0  0  0
 40 53  2  0  0  0
 40 58  1  0  0  0
 41111  1  0  0  0
 41112  1  0  0  0
 41113  1  0  0  0
 41 48  1  0  0  0
 42 43  1  0  0  0
 42 66  1  0  0  0
 42114  1  0  0  0
 42115  1  0  0  0
 43 44  1  0  0  0
 44116  1  0  0  0
 45 46  2  0  0  0
 45117  1  0  0  0
 46118  1  0  0  0
 47119  1  0  0  0
 47120  1  0  0  0
 48 56  1  0  0  0
 48 65  1  0  0  0
 48121  1  0  0  0
 49 50  1  0  0  0
 49 53  1  0  0  0
 49 64  1  0  0  0
 49122  1  0  0  0
 50 51  1  0  0  0
 50123  1  0  0  0
 50124  1  0  0  0
 51 52  1  0  0  0
 51125  1  0  0  0
 51126  1  0  0  0
 52127  1  0  0  0
 52128  1  0  0  0
 53 54  1  0  0  0
 54 55  2  0  0  0
 54129  1  0  0  0
 55 57  1  0  0  0
 55130  1  0  0  0
 56 69  2  0  0  0
 57 58  2  0  0  0
 57131  1  0  0  0
 58132  1  0  0  0
 59 60  1  0  0  0
 59 61  1  0  0  0
 59 62  1  0  0  0
 60133  1  0  0  0
 60134  1  0  0  0
 60135  1  0  0  0
 61136  1  0  0  0
 61137  1  0  0  0
 61138  1  0  0  0
 62139  1  0  0  0
 62140  1  0  0  0
 62141  1  0  0  0
 63 65  1  0  0  0
 63142  1  0  0  0
 63143  1  0  0  0
 63144  1  0  0  0
 64145  1  0  0  0
 65146  1  0  0  0
 68 84  1  0  0  0
 71 72  2  0  0  0
 71 85  1  0  0  0
 71147  1  0  0  0
 72 73  1  0  0  0
 72 77  1  0  0  0
 73 74  2  0  0  0
 73 78  1  0  0  0
 74 75  1  0  0  0
 74 86  1  0  0  0
 75 79  1  0  0  0
 75 85  2  0  0  0
 76 80  1  0  0  0
 76148  1  0  0  0
 76149  1  0  0  0
 76150  1  0  0  0
 77 81  1  0  0  0
 77151  1  0  0  0
 77152  1  0  0  0
 78 83  1  0  0  0
 78153  1  0  0  0
 78154  1  0  0  0
 79 82  1  0  0  0
 79155  1  0  0  0
 79156  1  0  0  0
 80 82  1  0  0  0
 80157  1  0  0  0
 80158  1  0  0  0
 81 84  1  0  0  0
 81159  1  0  0  0
 81160  1  0  0  0
 82161  1  0  0  0
 82162  1  0  0  0
 83 87  1  0  0  0
 83163  1  0  0  0
 83164  1  0  0  0
 84165  1  0  0  0
 84166  1  0  0  0
 86167  1  0  0  0
 86168  1  0  0  0
 87169  1  0  0  0
M  ISO  4   1 100  68 101  84 101  87 100
M  END
> <chiral flag>
0

> <version>
0

> <s_m_source_file>
/data/baiqing/PycharmProjects/Reinvent-master-3.2/result/LINK_invent/BTK/process_docking_weight1_custom_sum_contain_oxygen_bond_distance_aromatic_linkinvent_7_9_3/rearranged_h_0087.sdf

> <i_m_source_file_index>
38

> <r_mmod_Potential_Energy-OPLS-2005>
145.395355224609

> <r_mmod_Stretch_Energy-OPLS-2005>
146.553253173828

> <r_mmod_Bend_Energy-OPLS-2005>
200.445541381836

> <r_mmod_Torsional_Energy-OPLS-2005>
240.667709350586

> <r_mmod_Improper_Torsional_Energy-OPLS-2005>
7.78425359725952

> <r_mmod_Van_der_Waal_Energy-OPLS-2005>
164.978546142578

> <r_mmod_Electrostatic_Energy-OPLS-2005>
-461.714233398438

> <r_mmod_Solvation_Energy-OPLS-2005>
-231.812561035156

> <b_mmod_Minimization_Converged-OPLS-2005>
0

> <r_mmod_RMS_Derivative-OPLS-2005>
2.96483707427979

$$$$
39
                    3D
 Structure written by MMmdl.
179187  0  0  1  0            999 V2000
  -30.6965  -14.4453   20.5859 C   0  0  0  0  0  0
  -30.4260  -12.2978   19.4139 C   0  0  0  0  0  0
  -29.4956  -12.5091   18.2010 C   0  0  0  0  0  0
  -28.0151  -12.3693   18.6117 C   0  0  0  0  0  0
  -27.6626  -13.2021   19.8736 C   0  0  2  0  0  0
  -28.7013  -12.9634   20.9917 C   0  0  0  0  0  0
  -25.2605  -13.8154   20.5678 C   0  0  0  0  0  0
  -24.1834  -13.0440   20.9166 C   0  0  0  0  0  0
  -24.6375  -11.6900   20.8722 C   0  0  0  0  0  0
  -23.9036  -10.4290   21.0399 C   0  0  0  0  0  0
  -24.3600   -9.4207   21.9172 C   0  0  0  0  0  0
  -23.6284   -8.2234   22.0741 C   0  0  0  0  0  0
  -22.4268   -8.0271   21.3530 C   0  0  0  0  0  0
  -21.9898   -9.0245   20.4639 C   0  0  0  0  0  0
  -22.7216  -10.2128   20.3048 C   0  0  0  0  0  0
  -21.6848   -6.0735   22.5273 C   0  0  0  0  0  0
  -21.4012   -6.5640   23.8211 C   0  0  0  0  0  0
  -21.3657   -5.6791   24.9172 C   0  0  0  0  0  0
  -21.6042   -4.3054   24.7223 C   0  0  0  0  0  0
  -21.8819   -3.8146   23.4345 C   0  0  0  0  0  0
  -21.9190   -4.6962   22.3397 C   0  0  0  0  0  0
  -22.7857  -13.5251   21.1814 C   0  0  0  0  0  0
  -22.1662   -4.2151   21.0974 F   0  0  0  0  0  0
  -21.5629   -3.4536   25.7735 F   0  0  0  0  0  0
  -30.0347  -13.2682   20.4450 N   0  0  0  0  0  0
  -26.3027  -12.9308   20.3351 N   0  0  0  0  0  0
  -25.9297  -11.6474   20.5732 N   0  0  0  0  0  0
  -22.0477  -12.8272   22.0385 N   0  0  0  0  0  0
  -25.4374  -15.1860   20.4080 N   0  0  0  0  0  0
  -31.8302  -14.6428   20.1391 O   0  0  0  0  0  0
  -21.6630   -6.8869   21.4230 O   0  0  0  0  0  0
  -22.3537  -14.5540   20.6635 O   0  0  0  0  0  0
  -24.6122  -31.8681   23.2102 C   0  0  0  0  0  0
  -25.9031  -32.4824   23.8389 C   0  0  1  0  0  0
  -27.2408  -27.4548   20.0917 C   0  0  0  0  0  0
  -25.5906  -33.8622   24.2348 N   0  0  0  0  0  0
  -23.3994  -30.4890   21.5502 C   0  0  2  0  0  0
  -24.8481  -28.9487   20.1219 C   0  0  0  0  0  0
  -22.7392  -29.4661   22.5007 C   0  0  0  0  0  0
  -18.0255  -28.1361   22.8490 C   0  0  0  0  0  0
  -24.1481  -36.7315   23.2634 C   0  0  0  0  0  0
  -25.9244  -30.8397   21.3575 C   0  0  0  0  0  0
  -26.0063  -29.4708   20.7139 C   0  0  0  0  0  0
  -27.2082  -28.7306   20.6952 C   0  0  0  0  0  0
  -26.0704  -26.9358   19.5037 C   0  0  0  0  0  0
  -24.8738  -27.6773   19.5180 C   0  0  0  0  0  0
  -23.6084  -29.8133   20.1677 C   0  0  0  0  0  0
  -25.4100  -36.3118   24.0340 C   0  0  1  0  0  0
  -20.5846  -28.3643   23.1318 C   0  0  2  0  0  0
  -20.6745  -26.9383   22.5417 C   0  0  0  0  0  0
  -19.5734  -26.6371   21.5203 C   0  0  0  0  0  0
  -18.1909  -26.7907   22.1616 C   0  0  0  0  0  0
  -19.1506  -28.8820   23.2899 C   0  0  0  0  0  0
  -18.9440  -30.1427   23.8902 C   0  0  0  0  0  0
  -17.6447  -30.6573   24.0557 C   0  0  0  0  0  0
  -25.9028  -34.9479   23.5143 C   0  0  0  0  0  0
  -16.5337  -29.9076   23.6321 C   0  0  0  0  0  0
  -16.7248  -28.6489   23.0344 C   0  0  0  0  0  0
  -26.4472  -31.6582   25.0705 C   0  0  0  0  0  0
  -25.3760  -31.3685   26.1476 C   0  0  0  0  0  0
  -27.0291  -30.3029   24.6040 C   0  0  0  0  0  0
  -27.6055  -32.4282   25.7474 C   0  0  0  0  0  0
  -27.5578  -37.1804   24.8461 C   0  0  0  0  0  0
  -21.4119  -29.3022   22.3743 N   0  0  0  0  0  0
  -26.4280  -37.3806   23.9420 N   0  0  0  0  0  0
  -24.6636  -31.0792   22.0989 N   0  0  0  0  0  0
  -23.4172  -28.8210   23.3051 O   0  0  0  0  0  0
  -28.4177  -26.7559   20.0074 O   0  0  0  0  0  0
  -26.5569  -34.8927   22.4696 O   0  0  0  0  0  0
  -23.5321  -32.1416   23.7514 O   0  0  0  0  0  0
  -29.1813  -20.0875   19.4011 C   0  0  0  0  0  0
  -30.6481  -21.8904   20.0195 C   0  0  0  0  0  0
  -29.4601  -21.4761   19.3840 C   0  0  0  0  0  0
  -30.0832  -19.1913   20.0109 C   0  0  0  0  0  0
  -31.5037  -20.9392   20.6142 C   0  0  0  0  0  0
  -30.5790  -17.1790   18.5862 C   0  0  0  0  0  0
  -29.0225  -22.3980   17.1242 C   0  0  0  0  0  0
  -27.0845  -22.0796   18.6620 C   0  0  0  0  0  0
  -32.6904  -20.9631   22.8279 C   0  0  0  0  0  0
  -33.1022  -22.8499   21.2510 C   0  0  0  0  0  0
  -34.0039  -20.5951   20.7112 C   0  0  0  0  0  0
  -28.1707  -24.3167   20.4477 C   0  0  0  0  0  0
  -28.7182  -23.9648   19.0461 C   0  0  0  0  0  0
  -30.3179  -16.8731   21.1401 C   0  0  0  0  0  0
  -28.5992  -25.7098   20.9608 C   0  0  0  0  0  0
  -29.8921  -17.6738   19.8728 C   0  0  1  0  0  0
  -28.5766  -22.4730   18.5962 C   0  0  0  0  0  0
  -32.8053  -21.3345   21.3377 C   0  0  0  0  0  0
  -31.2267  -19.6149   20.5872 N   0  0  0  0  0  0
  -29.9589  -15.4456   21.0927 N   0  0  0  0  0  0
  -31.4702  -12.4086   19.1139 H   0  0  0  0  0  0
  -30.3349  -11.2821   19.8014 H   0  0  0  0  0  0
  -29.7346  -11.7920   17.4148 H   0  0  0  0  0  0
  -29.6670  -13.4987   17.7736 H   0  0  0  0  0  0
  -27.8225  -11.3129   18.8026 H   0  0  0  0  0  0
  -27.3655  -12.6512   17.7819 H   0  0  0  0  0  0
  -27.7117  -14.2521   19.5837 H   0  0  0  0  0  0
  -28.6721  -11.9222   21.3164 H   0  0  0  0  0  0
  -28.4634  -13.5503   21.8796 H   0  0  0  0  0  0
  -25.2752   -9.5684   22.4739 H   0  0  0  0  0  0
  -24.0002   -7.4620   22.7459 H   0  0  0  0  0  0
  -21.0827   -8.8760   19.8949 H   0  0  0  0  0  0
  -22.3676  -10.9660   19.6151 H   0  0  0  0  0  0
  -21.2008   -7.6150   23.9715 H   0  0  0  0  0  0
  -21.1476   -6.0522   25.9077 H   0  0  0  0  0  0
  -22.0602   -2.7609   23.2838 H   0  0  0  0  0  0
  -22.4101  -11.9987   22.4871 H   0  0  0  0  0  0
  -21.1065  -13.1281   22.2490 H   0  0  0  0  0  0
  -24.6748  -15.8480   20.5060 H   0  0  0  0  0  0
  -26.2921  -15.6170   20.0795 H   0  0  0  0  0  0
  -26.7108  -32.5557   23.1160 H   0  0  0  0  0  0
  -25.0095  -33.9789   25.0518 H   0  0  0  0  0  0
  -22.6865  -31.3034   21.4081 H   0  0  0  0  0  0
  -23.3744  -35.9653   23.3297 H   0  0  0  0  0  0
  -24.3578  -36.8927   22.2051 H   0  0  0  0  0  0
  -23.7231  -37.6522   23.6637 H   0  0  0  0  0  0
  -26.0228  -31.5998   20.5822 H   0  0  0  0  0  0
  -26.8171  -30.9054   21.9674 H   0  0  0  0  0  0
  -28.1110  -29.1393   21.1279 H   0  0  0  0  0  0
  -26.0887  -25.9683   19.0227 H   0  0  0  0  0  0
  -23.9845  -27.2672   19.0596 H   0  0  0  0  0  0
  -23.7152  -30.5835   19.4026 H   0  0  0  0  0  0
  -22.7343  -29.2289   19.8759 H   0  0  0  0  0  0
  -25.1271  -36.1986   25.0830 H   0  0  0  0  0  0
  -20.9919  -28.3203   24.1450 H   0  0  0  0  0  0
  -20.5620  -26.2257   23.3600 H   0  0  0  0  0  0
  -21.6617  -26.7413   22.1231 H   0  0  0  0  0  0
  -19.6890  -25.6283   21.1221 H   0  0  0  0  0  0
  -19.6676  -27.3189   20.6736 H   0  0  0  0  0  0
  -17.4183  -26.6647   21.4019 H   0  0  0  0  0  0
  -18.0312  -26.0047   22.9006 H   0  0  0  0  0  0
  -19.7922  -30.7234   24.2272 H   0  0  0  0  0  0
  -17.5010  -31.6258   24.5154 H   0  0  0  0  0  0
  -15.5338  -30.2984   23.7639 H   0  0  0  0  0  0
  -15.8643  -28.0812   22.7047 H   0  0  0  0  0  0
  -24.5940  -30.7006   25.7833 H   0  0  0  0  0  0
  -24.8931  -32.2833   26.4910 H   0  0  0  0  0  0
  -25.8132  -30.8880   27.0236 H   0  0  0  0  0  0
  -26.2812  -29.6817   24.1092 H   0  0  0  0  0  0
  -27.4078  -29.7239   25.4473 H   0  0  0  0  0  0
  -27.8644  -30.4360   23.9167 H   0  0  0  0  0  0
  -27.2680  -33.3572   26.2078 H   0  0  0  0  0  0
  -28.3858  -32.6842   25.0292 H   0  0  0  0  0  0
  -28.0733  -31.8383   26.5370 H   0  0  0  0  0  0
  -28.2586  -38.0107   24.7524 H   0  0  0  0  0  0
  -28.1079  -36.2640   24.6258 H   0  0  0  0  0  0
  -27.2302  -37.1433   25.8864 H   0  0  0  0  0  0
  -20.9272  -29.8776   21.6999 H   0  0  0  0  0  0
  -26.0175  -38.2886   24.1439 H   0  0  0  0  0  0
  -28.3126  -19.6896   18.8986 H   0  0  0  0  0  0
  -30.9155  -22.9323   20.0254 H   0  0  0  0  0  0
  -30.2955  -17.8002   17.7359 H   0  0  0  0  0  0
  -30.2987  -16.1551   18.3432 H   0  0  0  0  0  0
  -31.6647  -17.2218   18.6768 H   0  0  0  0  0  0
  -28.9638  -21.3776   16.7443 H   0  0  0  0  0  0
  -30.0553  -22.7287   17.0068 H   0  0  0  0  0  0
  -28.4015  -23.0199   16.4795 H   0  0  0  0  0  0
  -26.8796  -21.1472   18.1369 H   0  0  0  0  0  0
  -26.4574  -22.8392   18.1947 H   0  0  0  0  0  0
  -26.7483  -21.9585   19.6918 H   0  0  0  0  0  0
  -33.5941  -21.2273   23.3774 H   0  0  0  0  0  0
  -32.5346  -19.8917   22.9583 H   0  0  0  0  0  0
  -31.8475  -21.4740   23.2958 H   0  0  0  0  0  0
  -32.3164  -23.4436   21.7197 H   0  0  0  0  0  0
  -33.2020  -23.1803   20.2160 H   0  0  0  0  0  0
  -34.0341  -23.1019   21.7580 H   0  0  0  0  0  0
  -33.9088  -19.5151   20.8300 H   0  0  0  0  0  0
  -34.9417  -20.8914   21.1820 H   0  0  0  0  0  0
  -34.0843  -20.7994   19.6437 H   0  0  0  0  0  0
  -28.5049  -23.5722   21.1700 H   0  0  0  0  0  0
  -27.0829  -24.2515   20.4396 H   0  0  0  0  0  0
  -29.7510  -24.2983   18.9523 H   0  0  0  0  0  0
  -28.1814  -24.5922   18.3350 H   0  0  0  0  0  0
  -29.8352  -17.3098   22.0159 H   0  0  0  0  0  0
  -31.3917  -16.9794   21.3080 H   0  0  0  0  0  0
  -29.6605  -25.6876   21.2105 H   0  0  0  0  0  0
  -28.0801  -25.9411   21.8927 H   0  0  0  0  0  0
  -28.8207  -17.5158   19.7476 H   0  0  0  0  0  0
  -29.0325  -15.1993   21.4092 H   0  0  0  0  0  0
  1 25  1  0  0  0
  1 30  2  0  0  0
  1 90  1  0  0  0
  2  3  1  0  0  0
  2 25  1  0  0  0
  2 91  1  0  0  0
  2 92  1  0  0  0
  3  4  1  0  0  0
  3 93  1  0  0  0
  3 94  1  0  0  0
  4  5  1  0  0  0
  4 95  1  0  0  0
  4 96  1  0  0  0
  5  6  1  0  0  0
  5 26  1  0  0  0
  5 97  1  0  0  0
  6 25  1  0  0  0
  6 98  1  0  0  0
  6 99  1  0  0  0
  7  8  2  0  0  0
  7 26  1  0  0  0
  7 29  1  0  0  0
  8  9  1  0  0  0
  8 22  1  0  0  0
  9 10  1  0  0  0
  9 27  2  0  0  0
 10 11  2  0  0  0
 10 15  1  0  0  0
 11 12  1  0  0  0
 11100  1  0  0  0
 12 13  2  0  0  0
 12101  1  0  0  0
 13 14  1  0  0  0
 13 31  1  0  0  0
 14 15  2  0  0  0
 14102  1  0  0  0
 15103  1  0  0  0
 16 17  2  0  0  0
 16 21  1  0  0  0
 16 31  1  0  0  0
 17 18  1  0  0  0
 17104  1  0  0  0
 18 19  2  0  0  0
 18105  1  0  0  0
 19 20  1  0  0  0
 19 24  1  0  0  0
 20 21  2  0  0  0
 20106  1  0  0  0
 21 23  1  0  0  0
 22 28  1  0  0  0
 22 32  2  0  0  0
 26 27  1  0  0  0
 28107  1  0  0  0
 28108  1  0  0  0
 29109  1  0  0  0
 29110  1  0  0  0
 33 34  1  0  0  0
 33 66  1  0  0  0
 33 70  2  0  0  0
 34 36  1  0  0  0
 34 59  1  0  0  0
 34111  1  0  0  0
 35 44  2  0  0  0
 35 45  1  0  0  0
 35 68  1  0  0  0
 36 56  1  0  0  0
 36112  1  0  0  0
 37 39  1  0  0  0
 37 47  1  0  0  0
 37 66  1  0  0  0
 37113  1  0  0  0
 38 43  2  0  0  0
 38 46  1  0  0  0
 38 47  1  0  0  0
 39 64  1  0  0  0
 39 67  2  0  0  0
 40 52  1  0  0  0
 40 53  2  0  0  0
 40 58  1  0  0  0
 41114  1  0  0  0
 41115  1  0  0  0
 41116  1  0  0  0
 41 48  1  0  0  0
 42 43  1  0  0  0
 42 66  1  0  0  0
 42117  1  0  0  0
 42118  1  0  0  0
 43 44  1  0  0  0
 44119  1  0  0  0
 45 46  2  0  0  0
 45120  1  0  0  0
 46121  1  0  0  0
 47122  1  0  0  0
 47123  1  0  0  0
 48 56  1  0  0  0
 48 65  1  0  0  0
 48124  1  0  0  0
 49 50  1  0  0  0
 49 53  1  0  0  0
 49 64  1  0  0  0
 49125  1  0  0  0
 50 51  1  0  0  0
 50126  1  0  0  0
 50127  1  0  0  0
 51 52  1  0  0  0
 51128  1  0  0  0
 51129  1  0  0  0
 52130  1  0  0  0
 52131  1  0  0  0
 53 54  1  0  0  0
 54 55  2  0  0  0
 54132  1  0  0  0
 55 57  1  0  0  0
 55133  1  0  0  0
 56 69  2  0  0  0
 57 58  2  0  0  0
 57134  1  0  0  0
 58135  1  0  0  0
 59 60  1  0  0  0
 59 61  1  0  0  0
 59 62  1  0  0  0
 60136  1  0  0  0
 60137  1  0  0  0
 60138  1  0  0  0
 61139  1  0  0  0
 61140  1  0  0  0
 61141  1  0  0  0
 62142  1  0  0  0
 62143  1  0  0  0
 62144  1  0  0  0
 63 65  1  0  0  0
 63145  1  0  0  0
 63146  1  0  0  0
 63147  1  0  0  0
 64148  1  0  0  0
 65149  1  0  0  0
 68 85  1  0  0  0
 71 73  2  0  0  0
 71 74  1  0  0  0
 71150  1  0  0  0
 72 73  1  0  0  0
 72 75  2  0  0  0
 72151  1  0  0  0
 73 87  1  0  0  0
 74 86  1  0  0  0
 74 89  2  0  0  0
 75 88  1  0  0  0
 75 89  1  0  0  0
 76152  1  0  0  0
 76153  1  0  0  0
 76154  1  0  0  0
 76 86  1  0  0  0
 77155  1  0  0  0
 77156  1  0  0  0
 77157  1  0  0  0
 77 87  1  0  0  0
 78 87  1  0  0  0
 78158  1  0  0  0
 78159  1  0  0  0
 78160  1  0  0  0
 79161  1  0  0  0
 79162  1  0  0  0
 79163  1  0  0  0
 79 88  1  0  0  0
 80 88  1  0  0  0
 80164  1  0  0  0
 80165  1  0  0  0
 80166  1  0  0  0
 81 88  1  0  0  0
 81167  1  0  0  0
 81168  1  0  0  0
 81169  1  0  0  0
 82 83  1  0  0  0
 82 85  1  0  0  0
 82170  1  0  0  0
 82171  1  0  0  0
 83 87  1  0  0  0
 83172  1  0  0  0
 83173  1  0  0  0
 84 86  1  0  0  0
 84 90  1  0  0  0
 84174  1  0  0  0
 84175  1  0  0  0
 85176  1  0  0  0
 85177  1  0  0  0
 86178  1  0  0  0
 90179  1  0  0  0
M  ISO  4   1 100  68 101  85 101  90 100
M  END
> <chiral flag>
0

> <version>
0

> <s_m_source_file>
/data/baiqing/PycharmProjects/Reinvent-master-3.2/result/LINK_invent/BTK/process_docking_weight1_custom_sum_contain_oxygen_bond_distance_aromatic_linkinvent_7_9_3/rearranged_h_0087.sdf

> <i_m_source_file_index>
39

> <r_mmod_Potential_Energy-OPLS-2005>
-297.336273193359

> <r_mmod_Stretch_Energy-OPLS-2005>
39.9306526184082

> <r_mmod_Bend_Energy-OPLS-2005>
108.146911621094

> <r_mmod_Torsional_Energy-OPLS-2005>
219.071258544922

> <r_mmod_Improper_Torsional_Energy-OPLS-2005>
5.11606645584106

> <r_mmod_Van_der_Waal_Energy-OPLS-2005>
160.088119506836

> <r_mmod_Electrostatic_Energy-OPLS-2005>
-643.122131347656

> <r_mmod_Solvation_Energy-OPLS-2005>
-196.566955566406

> <b_mmod_Minimization_Converged-OPLS-2005>
0

> <r_mmod_RMS_Derivative-OPLS-2005>
2.22802448272705

$$$$
40
                    3D
 Structure written by MMmdl.
168176  0  0  1  0            999 V2000
  -30.5674  -14.6972   20.5281 C   0  0  0  0  0  0
  -30.4382  -12.4052   19.5270 C   0  0  0  0  0  0
  -29.5330  -12.4886   18.2695 C   0  0  0  0  0  0
  -28.0393  -12.3531   18.6482 C   0  0  0  0  0  0
  -27.6457  -13.2282   19.8698 C   0  0  2  0  0  0
  -28.6703  -13.0836   21.0100 C   0  0  0  0  0  0
  -25.2386  -13.8186   20.5656 C   0  0  0  0  0  0
  -24.1735  -13.0421   20.9201 C   0  0  0  0  0  0
  -24.6351  -11.6896   20.8772 C   0  0  0  0  0  0
  -23.9046  -10.4278   21.0501 C   0  0  0  0  0  0
  -24.3617   -9.4179   21.9192 C   0  0  0  0  0  0
  -23.6298   -8.2240   22.0728 C   0  0  0  0  0  0
  -22.4251   -8.0288   21.3560 C   0  0  0  0  0  0
  -21.9940   -9.0293   20.4638 C   0  0  0  0  0  0
  -22.7297  -10.2150   20.3078 C   0  0  0  0  0  0
  -21.6819   -6.0729   22.5291 C   0  0  0  0  0  0
  -21.4052   -6.5607   23.8250 C   0  0  0  0  0  0
  -21.3690   -5.6739   24.9194 C   0  0  0  0  0  0
  -21.6030   -4.3005   24.7218 C   0  0  0  0  0  0
  -21.8821   -3.8134   23.4312 C   0  0  0  0  0  0
  -21.9203   -4.6970   22.3385 C   0  0  0  0  0  0
  -22.7772  -13.5243   21.1885 C   0  0  0  0  0  0
  -22.1631   -4.2129   21.0979 F   0  0  0  0  0  0
  -21.5648   -3.4499   25.7741 F   0  0  0  0  0  0
  -29.9849  -13.4502   20.4731 N   0  0  0  0  0  0
  -26.2898  -12.9432   20.3284 N   0  0  0  0  0  0
  -25.9272  -11.6553   20.5779 N   0  0  0  0  0  0
  -22.0365  -12.8312   22.0444 N   0  0  0  0  0  0
  -25.3922  -15.1940   20.3869 N   0  0  0  0  0  0
  -31.7465  -14.8119   20.1767 O   0  0  0  0  0  0
  -21.6616   -6.8890   21.4257 O   0  0  0  0  0  0
  -22.3461  -14.5571   20.6720 O   0  0  0  0  0  0
  -24.6344  -31.8511   23.1959 C   0  0  0  0  0  0
  -25.9170  -32.4705   23.8275 C   0  0  1  0  0  0
  -27.1982  -27.2290   20.1634 C   0  0  0  0  0  0
  -25.6036  -33.8522   24.2227 N   0  0  0  0  0  0
  -23.4270  -30.4668   21.5390 C   0  0  2  0  0  0
  -24.8723  -28.9155   20.1029 C   0  0  0  0  0  0
  -22.7460  -29.4550   22.4917 C   0  0  0  0  0  0
  -18.0297  -28.1349   22.8483 C   0  0  0  0  0  0
  -24.1492  -36.7237   23.2638 C   0  0  0  0  0  0
  -25.9716  -30.7598   21.3718 C   0  0  0  0  0  0
  -26.0401  -29.3819   20.7152 C   0  0  0  0  0  0
  -27.2006  -28.5466   20.7353 C   0  0  0  0  0  0
  -26.0175  -26.8406   19.4921 C   0  0  0  0  0  0
  -24.8683  -27.6593   19.4777 C   0  0  0  0  0  0
  -23.6411  -29.7999   20.1537 C   0  0  0  0  0  0
  -25.4108  -36.3018   24.0320 C   0  0  1  0  0  0
  -20.5899  -28.3654   23.1285 C   0  0  2  0  0  0
  -20.6780  -26.9357   22.5435 C   0  0  0  0  0  0
  -19.5794  -26.6369   21.5193 C   0  0  0  0  0  0
  -18.1964  -26.7877   22.1627 C   0  0  0  0  0  0
  -19.1558  -28.8834   23.2875 C   0  0  0  0  0  0
  -18.9466  -30.1422   23.8880 C   0  0  0  0  0  0
  -17.6446  -30.6557   24.0557 C   0  0  0  0  0  0
  -25.9097  -34.9400   23.5069 C   0  0  0  0  0  0
  -16.5353  -29.9039   23.6298 C   0  0  0  0  0  0
  -16.7255  -28.6470   23.0328 C   0  0  0  0  0  0
  -26.4560  -31.6537   25.0650 C   0  0  0  0  0  0
  -25.3801  -31.3688   26.1391 C   0  0  0  0  0  0
  -27.0384  -30.2923   24.6137 C   0  0  0  0  0  0
  -27.6110  -32.4290   25.7415 C   0  0  0  0  0  0
  -27.5541  -37.1769   24.8481 C   0  0  0  0  0  0
  -21.4169  -29.3004   22.3624 N   0  0  0  0  0  0
  -26.4268  -37.3746   23.9448 N   0  0  0  0  0  0
  -24.6962  -31.0453   22.0927 N   0  0  0  0  0  0
  -23.4181  -28.8130   23.3033 O   0  0  0  0  0  0
  -28.2869  -26.3403   20.3139 O   0  0  0  0  0  0
  -26.5591  -34.8889   22.4585 O   0  0  0  0  0  0
  -23.5483  -32.1365   23.7226 O   0  0  0  0  0  0
  -26.4662  -23.4685   20.8482 C   0  0  0  0  0  0
  -28.6360  -22.4066   20.8202 C   0  0  0  0  0  0
  -27.8450  -23.6077   20.5679 C   0  0  0  0  0  0
  -25.9223  -22.2282   21.2478 C   0  0  0  0  0  0
  -28.0342  -21.1676   21.2738 C   0  0  0  0  0  0
  -23.5300  -23.1814   20.9787 C   0  0  0  0  0  0
  -24.0038  -21.4844   22.8050 C   0  0  0  0  0  0
  -31.6802  -17.3821   21.8519 C   0  0  0  0  0  0
  -28.3503  -24.9272   19.8005 C   0  0  0  0  0  0
  -29.6883  -16.0369   20.7375 C   0  0  0  0  0  0
  -29.7038  -18.8646   20.9722 C   0  0  0  0  0  0
  -24.4047  -21.9796   21.3928 C   0  0  0  0  0  0
  -28.7183  -19.8285   21.8321 C   0  0  1  0  0  0
  -30.1626  -17.3841   21.5151 C   0  0  1  0  0  0
  -26.6902  -21.1345   21.4442 N   0  0  0  0  0  0
  -29.1867  -20.1340   23.2015 N   0  3  0  0  0  0
  -31.4933  -12.5069   19.2566 H   0  0  0  0  0  0
  -30.3578  -11.4266   20.0064 H   0  0  0  0  0  0
  -29.8055  -11.7217   17.5475 H   0  0  0  0  0  0
  -29.6989  -13.4477   17.7837 H   0  0  0  0  0  0
  -27.8539  -11.3049   18.8785 H   0  0  0  0  0  0
  -27.4108  -12.5970   17.7905 H   0  0  0  0  0  0
  -27.6651  -14.2695   19.5506 H   0  0  0  0  0  0
  -28.6952  -12.0541   21.3672 H   0  0  0  0  0  0
  -28.3893  -13.6864   21.8711 H   0  0  0  0  0  0
  -25.2775   -9.5650   22.4761 H   0  0  0  0  0  0
  -23.9961   -7.4638   22.7448 H   0  0  0  0  0  0
  -21.0850   -8.8883   19.8931 H   0  0  0  0  0  0
  -22.3808  -10.9708   19.6191 H   0  0  0  0  0  0
  -21.2023   -7.6115   23.9761 H   0  0  0  0  0  0
  -21.1513   -6.0429   25.9091 H   0  0  0  0  0  0
  -22.0564   -2.7578   23.2824 H   0  0  0  0  0  0
  -22.3939  -12.0085   22.5077 H   0  0  0  0  0  0
  -21.0968  -13.1385   22.2611 H   0  0  0  0  0  0
  -24.5766  -15.7980   20.4130 H   0  0  0  0  0  0
  -26.1850  -15.6215   19.9356 H   0  0  0  0  0  0
  -26.7191  -32.5313   23.0956 H   0  0  0  0  0  0
  -25.0293  -33.9657   25.0455 H   0  0  0  0  0  0
  -22.7261  -31.2942   21.3910 H   0  0  0  0  0  0
  -23.3746  -35.9565   23.3298 H   0  0  0  0  0  0
  -24.3601  -36.8834   22.2055 H   0  0  0  0  0  0
  -23.7202  -37.6431   23.6641 H   0  0  0  0  0  0
  -26.1235  -31.5181   20.6029 H   0  0  0  0  0  0
  -26.8423  -30.8051   22.0129 H   0  0  0  0  0  0
  -28.0905  -28.8909   21.2458 H   0  0  0  0  0  0
  -25.9260  -25.8726   19.0229 H   0  0  0  0  0  0
  -23.9663  -27.2979   18.9991 H   0  0  0  0  0  0
  -23.7707  -30.5749   19.4006 H   0  0  0  0  0  0
  -22.7571  -29.2406   19.8469 H   0  0  0  0  0  0
  -25.1266  -36.1857   25.0775 H   0  0  0  0  0  0
  -20.9997  -28.3256   24.1453 H   0  0  0  0  0  0
  -20.5618  -26.2281   23.3661 H   0  0  0  0  0  0
  -21.6617  -26.7267   22.1280 H   0  0  0  0  0  0
  -19.6966  -25.6300   21.1162 H   0  0  0  0  0  0
  -19.6726  -27.3236   20.6769 H   0  0  0  0  0  0
  -17.4257  -26.6636   21.3984 H   0  0  0  0  0  0
  -18.0377  -25.9993   22.9022 H   0  0  0  0  0  0
  -19.7924  -30.7220   24.2271 H   0  0  0  0  0  0
  -17.4943  -31.6248   24.5138 H   0  0  0  0  0  0
  -15.5360  -30.2902   23.7589 H   0  0  0  0  0  0
  -15.8669  -28.0724   22.7104 H   0  0  0  0  0  0
  -24.6005  -30.6988   25.7752 H   0  0  0  0  0  0
  -24.8977  -32.2841   26.4778 H   0  0  0  0  0  0
  -25.8161  -30.8925   27.0151 H   0  0  0  0  0  0
  -26.2929  -29.6667   24.1187 H   0  0  0  0  0  0
  -27.4085  -29.7193   25.4644 H   0  0  0  0  0  0
  -27.8792  -30.4168   23.9314 H   0  0  0  0  0  0
  -27.2689  -33.3576   26.1936 H   0  0  0  0  0  0
  -28.3890  -32.6834   25.0234 H   0  0  0  0  0  0
  -28.0752  -31.8449   26.5346 H   0  0  0  0  0  0
  -28.2596  -38.0053   24.7476 H   0  0  0  0  0  0
  -28.1012  -36.2570   24.6341 H   0  0  0  0  0  0
  -27.2282  -37.1393   25.8904 H   0  0  0  0  0  0
  -20.9387  -29.8789   21.6849 H   0  0  0  0  0  0
  -26.0136  -38.2792   24.1479 H   0  0  0  0  0  0
  -25.8213  -24.3191   20.6764 H   0  0  0  0  0  0
  -29.7056  -22.4313   20.6402 H   0  0  0  0  0  0
  -23.7946  -23.5478   19.9846 H   0  0  0  0  0  0
  -23.6359  -24.0189   21.6701 H   0  0  0  0  0  0
  -22.4766  -22.9022   20.9556 H   0  0  0  0  0  0
  -24.5169  -20.5549   23.0665 H   0  0  0  0  0  0
  -22.9323  -21.2770   22.8534 H   0  0  0  0  0  0
  -24.2242  -22.2147   23.5853 H   0  0  0  0  0  0
  -32.2906  -17.6366   20.9821 H   0  0  0  0  0  0
  -32.0406  -16.4219   22.2287 H   0  0  0  0  0  0
  -31.9157  -18.0963   22.6396 H   0  0  0  0  0  0
  -27.8545  -24.9072   18.8310 H   0  0  0  0  0  0
  -29.3954  -24.7565   19.5446 H   0  0  0  0  0  0
  -28.7376  -15.7497   21.1873 H   0  0  0  0  0  0
  -29.4078  -16.3286   19.7219 H   0  0  0  0  0  0
  -30.6078  -19.4478   20.7624 H   0  0  0  0  0  0
  -29.2513  -18.7335   19.9909 H   0  0  0  0  0  0
  -24.1607  -21.1699   20.7002 H   0  0  0  0  0  0
  -27.8719  -19.1522   22.0126 H   0  0  0  0  0  0
  -29.6856  -17.2670   22.4906 H   0  0  0  0  0  0
  -28.4498  -20.6312   23.6811 H   0  0  0  0  0  0
  -29.9925  -20.7259   23.1933 H   0  0  0  0  0  0
  -29.3750  -19.3006   23.7301 H   0  0  0  0  0  0
  1 25  1  0  0  0
  1 30  2  0  0  0
  1 80  1  0  0  0
  2  3  1  0  0  0
  2 25  1  0  0  0
  2 87  1  0  0  0
  2 88  1  0  0  0
  3  4  1  0  0  0
  3 89  1  0  0  0
  3 90  1  0  0  0
  4  5  1  0  0  0
  4 91  1  0  0  0
  4 92  1  0  0  0
  5  6  1  0  0  0
  5 26  1  0  0  0
  5 93  1  0  0  0
  6 25  1  0  0  0
  6 94  1  0  0  0
  6 95  1  0  0  0
  7  8  2  0  0  0
  7 26  1  0  0  0
  7 29  1  0  0  0
  8  9  1  0  0  0
  8 22  1  0  0  0
  9 10  1  0  0  0
  9 27  2  0  0  0
 10 11  2  0  0  0
 10 15  1  0  0  0
 11 12  1  0  0  0
 11 96  1  0  0  0
 12 13  2  0  0  0
 12 97  1  0  0  0
 13 14  1  0  0  0
 13 31  1  0  0  0
 14 15  2  0  0  0
 14 98  1  0  0  0
 15 99  1  0  0  0
 16 17  2  0  0  0
 16 21  1  0  0  0
 16 31  1  0  0  0
 17 18  1  0  0  0
 17100  1  0  0  0
 18 19  2  0  0  0
 18101  1  0  0  0
 19 20  1  0  0  0
 19 24  1  0  0  0
 20 21  2  0  0  0
 20102  1  0  0  0
 21 23  1  0  0  0
 22 28  1  0  0  0
 22 32  2  0  0  0
 26 27  1  0  0  0
 28103  1  0  0  0
 28104  1  0  0  0
 29105  1  0  0  0
 29106  1  0  0  0
 33 34  1  0  0  0
 33 66  1  0  0  0
 33 70  2  0  0  0
 34 36  1  0  0  0
 34 59  1  0  0  0
 34107  1  0  0  0
 35 44  2  0  0  0
 35 45  1  0  0  0
 35 68  1  0  0  0
 36 56  1  0  0  0
 36108  1  0  0  0
 37 39  1  0  0  0
 37 47  1  0  0  0
 37 66  1  0  0  0
 37109  1  0  0  0
 38 43  2  0  0  0
 38 46  1  0  0  0
 38 47  1  0  0  0
 39 64  1  0  0  0
 39 67  2  0  0  0
 40 52  1  0  0  0
 40 53  2  0  0  0
 40 58  1  0  0  0
 41110  1  0  0  0
 41111  1  0  0  0
 41112  1  0  0  0
 41 48  1  0  0  0
 42 43  1  0  0  0
 42 66  1  0  0  0
 42113  1  0  0  0
 42114  1  0  0  0
 43 44  1  0  0  0
 44115  1  0  0  0
 45 46  2  0  0  0
 45116  1  0  0  0
 46117  1  0  0  0
 47118  1  0  0  0
 47119  1  0  0  0
 48 56  1  0  0  0
 48 65  1  0  0  0
 48120  1  0  0  0
 49 50  1  0  0  0
 49 53  1  0  0  0
 49 64  1  0  0  0
 49121  1  0  0  0
 50 51  1  0  0  0
 50122  1  0  0  0
 50123  1  0  0  0
 51 52  1  0  0  0
 51124  1  0  0  0
 51125  1  0  0  0
 52126  1  0  0  0
 52127  1  0  0  0
 53 54  1  0  0  0
 54 55  2  0  0  0
 54128  1  0  0  0
 55 57  1  0  0  0
 55129  1  0  0  0
 56 69  2  0  0  0
 57 58  2  0  0  0
 57130  1  0  0  0
 58131  1  0  0  0
 59 60  1  0  0  0
 59 61  1  0  0  0
 59 62  1  0  0  0
 60132  1  0  0  0
 60133  1  0  0  0
 60134  1  0  0  0
 61135  1  0  0  0
 61136  1  0  0  0
 61137  1  0  0  0
 62138  1  0  0  0
 62139  1  0  0  0
 62140  1  0  0  0
 63 65  1  0  0  0
 63141  1  0  0  0
 63142  1  0  0  0
 63143  1  0  0  0
 64144  1  0  0  0
 65145  1  0  0  0
 68 79  1  0  0  0
 71 73  2  0  0  0
 71 74  1  0  0  0
 71146  1  0  0  0
 72 73  1  0  0  0
 72 75  2  0  0  0
 72147  1  0  0  0
 73 79  1  0  0  0
 74 82  1  0  0  0
 74 85  2  0  0  0
 75 83  1  0  0  0
 75 85  1  0  0  0
 76148  1  0  0  0
 76149  1  0  0  0
 76150  1  0  0  0
 76 82  1  0  0  0
 77 82  1  0  0  0
 77151  1  0  0  0
 77152  1  0  0  0
 77153  1  0  0  0
 78154  1  0  0  0
 78155  1  0  0  0
 78156  1  0  0  0
 78 84  1  0  0  0
 79157  1  0  0  0
 79158  1  0  0  0
 80 84  1  0  0  0
 80159  1  0  0  0
 80160  1  0  0  0
 81 83  1  0  0  0
 81 84  1  0  0  0
 81161  1  0  0  0
 81162  1  0  0  0
 82163  1  0  0  0
 83 86  1  0  0  0
 83164  1  0  0  0
 84165  1  0  0  0
 86166  1  0  0  0
 86167  1  0  0  0
 86168  1  0  0  0
M  CHG  1  86   1
M  ISO  4   1 100  68 101  79 101  80 100
M  END
> <chiral flag>
0

> <version>
0

> <s_m_source_file>
/data/baiqing/PycharmProjects/Reinvent-master-3.2/result/LINK_invent/BTK/process_docking_weight1_custom_sum_contain_oxygen_bond_distance_aromatic_linkinvent_7_9_3/rearranged_h_0087.sdf

> <i_m_source_file_index>
40

> <r_mmod_Potential_Energy-OPLS-2005>
-201.266815185547

> <r_mmod_Stretch_Energy-OPLS-2005>
144.136749267578

> <r_mmod_Bend_Energy-OPLS-2005>
229.502410888672

> <r_mmod_Torsional_Energy-OPLS-2005>
204.702713012695

> <r_mmod_Improper_Torsional_Energy-OPLS-2005>
9.80914688110352

> <r_mmod_Van_der_Waal_Energy-OPLS-2005>
135.610549926758

> <r_mmod_Electrostatic_Energy-OPLS-2005>
-539.050476074219

> <r_mmod_Solvation_Energy-OPLS-2005>
-473.562408447266

> <b_mmod_Minimization_Converged-OPLS-2005>
0

> <r_mmod_RMS_Derivative-OPLS-2005>
10.1898498535156

$$$$
41
                    3D
 Structure written by MMmdl.
174182  0  0  1  0            999 V2000
  -30.6027  -14.7406   20.4711 C   0  0  0  0  0  0
  -30.4389  -12.4554   19.4688 C   0  0  0  0  0  0
  -29.5108  -12.5140   18.2344 C   0  0  0  0  0  0
  -28.0362  -12.3370   18.6475 C   0  0  0  0  0  0
  -27.6417  -13.2309   19.8538 C   0  0  2  0  0  0
  -28.6887  -13.1553   20.9868 C   0  0  0  0  0  0
  -25.2487  -13.8188   20.5694 C   0  0  0  0  0  0
  -24.1794  -13.0429   20.9218 C   0  0  0  0  0  0
  -24.6388  -11.6906   20.8741 C   0  0  0  0  0  0
  -23.9072  -10.4285   21.0415 C   0  0  0  0  0  0
  -24.3628   -9.4207   21.9185 C   0  0  0  0  0  0
  -23.6302   -8.2244   22.0757 C   0  0  0  0  0  0
  -22.4282   -8.0281   21.3545 C   0  0  0  0  0  0
  -21.9914   -9.0254   20.4650 C   0  0  0  0  0  0
  -22.7244  -10.2130   20.3062 C   0  0  0  0  0  0
  -21.6856   -6.0736   22.5284 C   0  0  0  0  0  0
  -21.4010   -6.5642   23.8214 C   0  0  0  0  0  0
  -21.3663   -5.6795   24.9177 C   0  0  0  0  0  0
  -21.6050   -4.3058   24.7229 C   0  0  0  0  0  0
  -21.8821   -3.8151   23.4351 C   0  0  0  0  0  0
  -21.9193   -4.6962   22.3406 C   0  0  0  0  0  0
  -22.7827  -13.5198   21.1883 C   0  0  0  0  0  0
  -22.1661   -4.2157   21.0979 F   0  0  0  0  0  0
  -21.5634   -3.4536   25.7740 F   0  0  0  0  0  0
  -29.9905  -13.5102   20.4058 N   0  0  0  0  0  0
  -26.2928  -12.9393   20.3302 N   0  0  0  0  0  0
  -25.9316  -11.6524   20.5731 N   0  0  0  0  0  0
  -22.0482  -12.8187   22.0447 N   0  0  0  0  0  0
  -25.4135  -15.1907   20.4059 N   0  0  0  0  0  0
  -31.7924  -14.8579   20.1624 O   0  0  0  0  0  0
  -21.6645   -6.8879   21.4250 O   0  0  0  0  0  0
  -22.3507  -14.5506   20.6732 O   0  0  0  0  0  0
  -24.6315  -31.8543   23.1963 C   0  0  0  0  0  0
  -25.9136  -32.4749   23.8324 C   0  0  1  0  0  0
  -27.2252  -27.2555   20.1382 C   0  0  0  0  0  0
  -25.5927  -33.8552   24.2246 N   0  0  0  0  0  0
  -23.4292  -30.4743   21.5398 C   0  0  2  0  0  0
  -24.8787  -28.9138   20.1172 C   0  0  0  0  0  0
  -22.7503  -29.4598   22.4909 C   0  0  0  0  0  0
  -18.0295  -28.1392   22.8486 C   0  0  0  0  0  0
  -24.1489  -36.7279   23.2638 C   0  0  0  0  0  0
  -25.9749  -30.7668   21.3756 C   0  0  0  0  0  0
  -26.0504  -29.3861   20.7220 C   0  0  0  0  0  0
  -27.2285  -28.5710   20.7165 C   0  0  0  0  0  0
  -26.0310  -26.8500   19.5051 C   0  0  0  0  0  0
  -24.8731  -27.6531   19.4994 C   0  0  0  0  0  0
  -23.6496  -29.8015   20.1590 C   0  0  0  0  0  0
  -25.4117  -36.3065   24.0324 C   0  0  1  0  0  0
  -20.5899  -28.3708   23.1267 C   0  0  2  0  0  0
  -20.6786  -26.9424   22.5410 C   0  0  0  0  0  0
  -19.5756  -26.6386   21.5219 C   0  0  0  0  0  0
  -18.1936  -26.7935   22.1630 C   0  0  0  0  0  0
  -19.1551  -28.8867   23.2871 C   0  0  0  0  0  0
  -18.9465  -30.1469   23.8888 C   0  0  0  0  0  0
  -17.6464  -30.6589   24.0567 C   0  0  0  0  0  0
  -25.9059  -34.9436   23.5088 C   0  0  0  0  0  0
  -16.5356  -29.9085   23.6332 C   0  0  0  0  0  0
  -16.7284  -28.6505   23.0349 C   0  0  0  0  0  0
  -26.4498  -31.6578   25.0717 C   0  0  0  0  0  0
  -25.3720  -31.3739   26.1439 C   0  0  0  0  0  0
  -27.0338  -30.2989   24.6209 C   0  0  0  0  0  0
  -27.6044  -32.4330   25.7492 C   0  0  0  0  0  0
  -27.5580  -37.1795   24.8464 C   0  0  0  0  0  0
  -21.4210  -29.3049   22.3653 N   0  0  0  0  0  0
  -26.4289  -37.3767   23.9411 N   0  0  0  0  0  0
  -24.6976  -31.0505   22.0933 N   0  0  0  0  0  0
  -23.4199  -28.8151   23.3017 O   0  0  0  0  0  0
  -28.3333  -26.3764   20.1492 O   0  0  0  0  0  0
  -26.5631  -34.8913   22.4658 O   0  0  0  0  0  0
  -23.5463  -32.1361   23.7254 O   0  0  0  0  0  0
  -28.7424  -21.0892   19.7686 C   0  0  0  0  0  0
  -29.2608  -22.2877   20.2700 C   0  0  0  0  0  0
  -30.1918  -21.7520   21.2402 C   0  0  0  0  0  0
  -33.1099  -21.6581   20.4403 C   0  0  0  0  0  0
  -28.7073  -23.7717   18.2560 C   0  0  0  0  0  0
  -31.6396  -21.6162   23.3218 C   0  0  0  0  0  0
  -30.6872  -23.7857   22.6831 C   0  0  0  0  0  0
  -27.7224  -18.0847   20.3839 C   0  0  0  0  0  0
  -29.3955  -18.2227   18.5336 C   0  0  0  0  0  0
  -32.5061  -22.8139   21.2582 C   0  0  0  0  0  0
  -30.1350  -17.3477   20.7903 C   0  0  0  0  0  0
  -28.1541  -24.9101   20.4718 C   0  0  0  0  0  0
  -29.0855  -23.8009   19.7457 C   0  0  1  0  0  0
  -31.2422  -22.4758   22.0952 C   0  0  0  0  0  0
  -29.1809  -18.4355   20.0441 C   0  0  0  0  0  0
  -30.2290  -20.4012   21.2476 N   0  0  0  0  0  0
  -29.3620  -19.9408   20.3278 N   0  0  0  0  0  0
  -29.8073  -15.8514   20.6926 N   0  0  0  0  0  0
  -31.4777  -12.5953   19.1646 H   0  0  0  0  0  0
  -30.3963  -11.4739   19.9437 H   0  0  0  0  0  0
  -29.7911  -11.7503   17.5089 H   0  0  0  0  0  0
  -29.6356  -13.4726   17.7291 H   0  0  0  0  0  0
  -27.8862  -11.2867   18.8999 H   0  0  0  0  0  0
  -27.3792  -12.5387   17.8007 H   0  0  0  0  0  0
  -27.6334  -14.2534   19.4779 H   0  0  0  0  0  0
  -28.7255  -12.1535   21.4167 H   0  0  0  0  0  0
  -28.4283  -13.8267   21.8067 H   0  0  0  0  0  0
  -25.2771   -9.5693   22.4754 H   0  0  0  0  0  0
  -24.0027   -7.4636   22.7463 H   0  0  0  0  0  0
  -21.0855   -8.8763   19.8945 H   0  0  0  0  0  0
  -22.3706  -10.9672   19.6173 H   0  0  0  0  0  0
  -21.1994   -7.6146   23.9723 H   0  0  0  0  0  0
  -21.1482   -6.0519   25.9083 H   0  0  0  0  0  0
  -22.0595   -2.7611   23.2842 H   0  0  0  0  0  0
  -22.4076  -11.9832   22.4827 H   0  0  0  0  0  0
  -21.1102  -13.1219   22.2639 H   0  0  0  0  0  0
  -24.6404  -15.8381   20.5097 H   0  0  0  0  0  0
  -26.2444  -15.6295   20.0334 H   0  0  0  0  0  0
  -26.7202  -32.5400   23.1070 H   0  0  0  0  0  0
  -25.0085  -33.9693   25.0400 H   0  0  0  0  0  0
  -22.7256  -31.2955   21.3879 H   0  0  0  0  0  0
  -23.3755  -35.9606   23.3288 H   0  0  0  0  0  0
  -24.3582  -36.8916   22.2055 H   0  0  0  0  0  0
  -23.7233  -37.6472   23.6672 H   0  0  0  0  0  0
  -26.1111  -31.5256   20.6041 H   0  0  0  0  0  0
  -26.8531  -30.8205   22.0076 H   0  0  0  0  0  0
  -28.1293  -28.9291   21.1955 H   0  0  0  0  0  0
  -25.9787  -25.8899   19.0130 H   0  0  0  0  0  0
  -23.9764  -27.2846   19.0219 H   0  0  0  0  0  0
  -23.7753  -30.5724   19.3973 H   0  0  0  0  0  0
  -22.7688  -29.2319   19.8567 H   0  0  0  0  0  0
  -25.1298  -36.1909   25.0814 H   0  0  0  0  0  0
  -20.9996  -28.3291   24.1386 H   0  0  0  0  0  0
  -20.5695  -26.2320   23.3618 H   0  0  0  0  0  0
  -21.6651  -26.7451   22.1196 H   0  0  0  0  0  0
  -19.6917  -25.6293   21.1255 H   0  0  0  0  0  0
  -19.6689  -27.3191   20.6743 H   0  0  0  0  0  0
  -17.4209  -26.6688   21.4029 H   0  0  0  0  0  0
  -18.0329  -26.0079   22.9025 H   0  0  0  0  0  0
  -19.7937  -30.7297   24.2243 H   0  0  0  0  0  0
  -17.5010  -31.6266   24.5175 H   0  0  0  0  0  0
  -15.5353  -30.2984   23.7656 H   0  0  0  0  0  0
  -15.8686  -28.0825   22.7056 H   0  0  0  0  0  0
  -24.5892  -30.7090   25.7770 H   0  0  0  0  0  0
  -24.8919  -32.2915   26.4850 H   0  0  0  0  0  0
  -25.8038  -30.8926   27.0224 H   0  0  0  0  0  0
  -26.2918  -29.6739   24.1224 H   0  0  0  0  0  0
  -27.3996  -29.7251   25.4734 H   0  0  0  0  0  0
  -27.8808  -30.4247   23.9462 H   0  0  0  0  0  0
  -27.2640  -33.3640   26.2038 H   0  0  0  0  0  0
  -28.3871  -32.6879   25.0335 H   0  0  0  0  0  0
  -28.0691  -31.8478   26.5438 H   0  0  0  0  0  0
  -28.2590  -38.0100   24.7520 H   0  0  0  0  0  0
  -28.1086  -36.2631   24.6279 H   0  0  0  0  0  0
  -27.2303  -37.1431   25.8869 H   0  0  0  0  0  0
  -20.9403  -29.8759   21.6847 H   0  0  0  0  0  0
  -26.0164  -38.2838   24.1417 H   0  0  0  0  0  0
  -28.0147  -20.9590   18.9802 H   0  0  0  0  0  0
  -34.0221  -21.9768   19.9360 H   0  0  0  0  0  0
  -32.4178  -21.3134   19.6703 H   0  0  0  0  0  0
  -33.3651  -20.8053   21.0693 H   0  0  0  0  0  0
  -29.4398  -23.2103   17.6753 H   0  0  0  0  0  0
  -28.6627  -24.7785   17.8384 H   0  0  0  0  0  0
  -27.7304  -23.3121   18.1009 H   0  0  0  0  0  0
  -30.7687  -21.3644   23.9296 H   0  0  0  0  0  0
  -32.3498  -22.1344   23.9663 H   0  0  0  0  0  0
  -32.1100  -20.6767   23.0300 H   0  0  0  0  0  0
  -29.7411  -23.6227   23.2002 H   0  0  0  0  0  0
  -30.5364  -24.5498   21.9264 H   0  0  0  0  0  0
  -31.3846  -24.2145   23.4033 H   0  0  0  0  0  0
  -27.4712  -17.0795   20.0525 H   0  0  0  0  0  0
  -27.0232  -18.7658   19.9003 H   0  0  0  0  0  0
  -27.5386  -18.1398   21.4561 H   0  0  0  0  0  0
  -29.2127  -17.1882   18.2396 H   0  0  0  0  0  0
  -30.4207  -18.4611   18.2491 H   0  0  0  0  0  0
  -28.7350  -18.8511   17.9360 H   0  0  0  0  0  0
  -32.2660  -23.6133   20.5563 H   0  0  0  0  0  0
  -33.2724  -23.2252   21.9158 H   0  0  0  0  0  0
  -31.1655  -17.5009   20.4694 H   0  0  0  0  0  0
  -30.1314  -17.5752   21.8575 H   0  0  0  0  0  0
  -28.3232  -24.8343   21.5445 H   0  0  0  0  0  0
  -27.1174  -24.6001   20.3502 H   0  0  0  0  0  0
  -30.0810  -24.2412   19.7636 H   0  0  0  0  0  0
  -28.8408  -15.6285   20.8720 H   0  0  0  0  0  0
  1 25  1  0  0  0
  1 30  2  0  0  0
  1 88  1  0  0  0
  2  3  1  0  0  0
  2 25  1  0  0  0
  2 89  1  0  0  0
  2 90  1  0  0  0
  3  4  1  0  0  0
  3 91  1  0  0  0
  3 92  1  0  0  0
  4  5  1  0  0  0
  4 93  1  0  0  0
  4 94  1  0  0  0
  5  6  1  0  0  0
  5 26  1  0  0  0
  5 95  1  0  0  0
  6 25  1  0  0  0
  6 96  1  0  0  0
  6 97  1  0  0  0
  7  8  2  0  0  0
  7 26  1  0  0  0
  7 29  1  0  0  0
  8  9  1  0  0  0
  8 22  1  0  0  0
  9 10  1  0  0  0
  9 27  2  0  0  0
 10 11  2  0  0  0
 10 15  1  0  0  0
 11 12  1  0  0  0
 11 98  1  0  0  0
 12 13  2  0  0  0
 12 99  1  0  0  0
 13 14  1  0  0  0
 13 31  1  0  0  0
 14 15  2  0  0  0
 14100  1  0  0  0
 15101  1  0  0  0
 16 17  2  0  0  0
 16 21  1  0  0  0
 16 31  1  0  0  0
 17 18  1  0  0  0
 17102  1  0  0  0
 18 19  2  0  0  0
 18103  1  0  0  0
 19 20  1  0  0  0
 19 24  1  0  0  0
 20 21  2  0  0  0
 20104  1  0  0  0
 21 23  1  0  0  0
 22 28  1  0  0  0
 22 32  2  0  0  0
 26 27  1  0  0  0
 28105  1  0  0  0
 28106  1  0  0  0
 29107  1  0  0  0
 29108  1  0  0  0
 33 34  1  0  0  0
 33 66  1  0  0  0
 33 70  2  0  0  0
 34 36  1  0  0  0
 34 59  1  0  0  0
 34109  1  0  0  0
 35 44  2  0  0  0
 35 45  1  0  0  0
 35 68  1  0  0  0
 36 56  1  0  0  0
 36110  1  0  0  0
 37 39  1  0  0  0
 37 47  1  0  0  0
 37 66  1  0  0  0
 37111  1  0  0  0
 38 43  2  0  0  0
 38 46  1  0  0  0
 38 47  1  0  0  0
 39 64  1  0  0  0
 39 67  2  0  0  0
 40 52  1  0  0  0
 40 53  2  0  0  0
 40 58  1  0  0  0
 41112  1  0  0  0
 41113  1  0  0  0
 41114  1  0  0  0
 41 48  1  0  0  0
 42 43  1  0  0  0
 42 66  1  0  0  0
 42115  1  0  0  0
 42116  1  0  0  0
 43 44  1  0  0  0
 44117  1  0  0  0
 45 46  2  0  0  0
 45118  1  0  0  0
 46119  1  0  0  0
 47120  1  0  0  0
 47121  1  0  0  0
 48 56  1  0  0  0
 48 65  1  0  0  0
 48122  1  0  0  0
 49 50  1  0  0  0
 49 53  1  0  0  0
 49 64  1  0  0  0
 49123  1  0  0  0
 50 51  1  0  0  0
 50124  1  0  0  0
 50125  1  0  0  0
 51 52  1  0  0  0
 51126  1  0  0  0
 51127  1  0  0  0
 52128  1  0  0  0
 52129  1  0  0  0
 53 54  1  0  0  0
 54 55  2  0  0  0
 54130  1  0  0  0
 55 57  1  0  0  0
 55131  1  0  0  0
 56 69  2  0  0  0
 57 58  2  0  0  0
 57132  1  0  0  0
 58133  1  0  0  0
 59 60  1  0  0  0
 59 61  1  0  0  0
 59 62  1  0  0  0
 60134  1  0  0  0
 60135  1  0  0  0
 60136  1  0  0  0
 61137  1  0  0  0
 61138  1  0  0  0
 61139  1  0  0  0
 62140  1  0  0  0
 62141  1  0  0  0
 62142  1  0  0  0
 63 65  1  0  0  0
 63143  1  0  0  0
 63144  1  0  0  0
 63145  1  0  0  0
 64146  1  0  0  0
 65147  1  0  0  0
 68 82  1  0  0  0
 71 72  2  0  0  0
 71 87  1  0  0  0
 71148  1  0  0  0
 72 73  1  0  0  0
 72 83  1  0  0  0
 73 84  1  0  0  0
 73 86  2  0  0  0
 74 80  1  0  0  0
 74149  1  0  0  0
 74150  1  0  0  0
 74151  1  0  0  0
 75152  1  0  0  0
 75153  1  0  0  0
 75154  1  0  0  0
 75 83  1  0  0  0
 76155  1  0  0  0
 76156  1  0  0  0
 76157  1  0  0  0
 76 84  1  0  0  0
 77 84  1  0  0  0
 77158  1  0  0  0
 77159  1  0  0  0
 77160  1  0  0  0
 78161  1  0  0  0
 78162  1  0  0  0
 78163  1  0  0  0
 78 85  1  0  0  0
 79 85  1  0  0  0
 79164  1  0  0  0
 79165  1  0  0  0
 79166  1  0  0  0
 80 84  1  0  0  0
 80167  1  0  0  0
 80168  1  0  0  0
 81 85  1  0  0  0
 81 88  1  0  0  0
 81169  1  0  0  0
 81170  1  0  0  0
 82 83  1  0  0  0
 82171  1  0  0  0
 82172  1  0  0  0
 83173  1  0  0  0
 85 87  1  0  0  0
 86 87  1  0  0  0
 88174  1  0  0  0
M  ISO  4   1 100  68 101  82 101  88 100
M  END
> <chiral flag>
0

> <version>
0

> <s_m_source_file>
/data/baiqing/PycharmProjects/Reinvent-master-3.2/result/LINK_invent/BTK/process_docking_weight1_custom_sum_contain_oxygen_bond_distance_aromatic_linkinvent_7_9_3/rearranged_h_0087.sdf

> <i_m_source_file_index>
41

> <r_mmod_Potential_Energy-OPLS-2005>
123.948608398438

> <r_mmod_Stretch_Energy-OPLS-2005>
131.712661743164

> <r_mmod_Bend_Energy-OPLS-2005>
183.399536132812

> <r_mmod_Torsional_Energy-OPLS-2005>
265.741119384766

> <r_mmod_Improper_Torsional_Energy-OPLS-2005>
6.74181461334229

> <r_mmod_Van_der_Waal_Energy-OPLS-2005>
113.47728729248

> <r_mmod_Electrostatic_Energy-OPLS-2005>
-458.746978759766

> <r_mmod_Solvation_Energy-OPLS-2005>
-201.925384521484

> <b_mmod_Minimization_Converged-OPLS-2005>
0

> <r_mmod_RMS_Derivative-OPLS-2005>
2.39635467529297

$$$$
42
                    3D
 Structure written by MMmdl.
177185  0  0  1  0            999 V2000
  -30.7409  -14.4096   20.6852 C   0  0  0  0  0  0
  -30.4161  -12.3191   19.3982 C   0  0  0  0  0  0
  -29.4761  -12.5346   18.1950 C   0  0  0  0  0  0
  -28.0045  -12.3610   18.6246 C   0  0  0  0  0  0
  -27.6576  -13.1985   19.8807 C   0  0  2  0  0  0
  -28.7015  -12.9692   20.9996 C   0  0  0  0  0  0
  -25.2535  -13.8127   20.5649 C   0  0  0  0  0  0
  -24.1764  -13.0411   20.9135 C   0  0  0  0  0  0
  -24.6327  -11.6895   20.8769 C   0  0  0  0  0  0
  -23.9016  -10.4279   21.0459 C   0  0  0  0  0  0
  -24.3601   -9.4189   21.9218 C   0  0  0  0  0  0
  -23.6285   -8.2200   22.0750 C   0  0  0  0  0  0
  -22.4271   -8.0275   21.3544 C   0  0  0  0  0  0
  -21.9899   -9.0239   20.4646 C   0  0  0  0  0  0
  -22.7194  -10.2119   20.3092 C   0  0  0  0  0  0
  -21.6823   -6.0720   22.5277 C   0  0  0  0  0  0
  -21.3987   -6.5623   23.8207 C   0  0  0  0  0  0
  -21.3642   -5.6782   24.9183 C   0  0  0  0  0  0
  -21.6023   -4.3045   24.7221 C   0  0  0  0  0  0
  -21.8806   -3.8134   23.4348 C   0  0  0  0  0  0
  -21.9166   -4.6957   22.3403 C   0  0  0  0  0  0
  -22.7807  -13.5232   21.1791 C   0  0  0  0  0  0
  -22.1662   -4.2148   21.0988 F   0  0  0  0  0  0
  -21.5614   -3.4525   25.7716 F   0  0  0  0  0  0
  -30.0377  -13.2655   20.4617 N   0  0  0  0  0  0
  -26.2971  -12.9274   20.3411 N   0  0  0  0  0  0
  -25.9253  -11.6455   20.5824 N   0  0  0  0  0  0
  -22.0466  -12.8249   22.0398 N   0  0  0  0  0  0
  -25.4322  -15.1825   20.4095 N   0  0  0  0  0  0
  -31.7533  -14.6853   20.0388 O   0  0  0  0  0  0
  -21.6646   -6.8862   21.4228 O   0  0  0  0  0  0
  -22.3558  -14.5565   20.6652 O   0  0  0  0  0  0
  -24.6158  -31.8678   23.2101 C   0  0  0  0  0  0
  -25.9057  -32.4804   23.8383 C   0  0  1  0  0  0
  -27.2461  -27.4547   20.0831 C   0  0  0  0  0  0
  -25.5915  -33.8597   24.2317 N   0  0  0  0  0  0
  -23.4025  -30.4947   21.5502 C   0  0  2  0  0  0
  -24.8479  -28.9590   20.1199 C   0  0  0  0  0  0
  -22.7427  -29.4684   22.4980 C   0  0  0  0  0  0
  -18.0260  -28.1395   22.8495 C   0  0  0  0  0  0
  -24.1489  -36.7305   23.2630 C   0  0  0  0  0  0
  -25.9279  -30.8429   21.3584 C   0  0  0  0  0  0
  -26.0084  -29.4783   20.7064 C   0  0  0  0  0  0
  -27.2090  -28.7352   20.6822 C   0  0  0  0  0  0
  -26.0627  -26.9418   19.5070 C   0  0  0  0  0  0
  -24.8692  -27.6875   19.5213 C   0  0  0  0  0  0
  -23.6114  -29.8258   20.1657 C   0  0  0  0  0  0
  -25.4106  -36.3078   24.0325 C   0  0  1  0  0  0
  -20.5863  -28.3686   23.1303 C   0  0  2  0  0  0
  -20.6763  -26.9426   22.5421 C   0  0  0  0  0  0
  -19.5730  -26.6400   21.5222 C   0  0  0  0  0  0
  -18.1906  -26.7929   22.1633 C   0  0  0  0  0  0
  -19.1520  -28.8846   23.2904 C   0  0  0  0  0  0
  -18.9444  -30.1447   23.8930 C   0  0  0  0  0  0
  -17.6450  -30.6596   24.0586 C   0  0  0  0  0  0
  -25.9047  -34.9452   23.5115 C   0  0  0  0  0  0
  -16.5345  -29.9116   23.6318 C   0  0  0  0  0  0
  -16.7254  -28.6530   23.0347 C   0  0  0  0  0  0
  -26.4507  -31.6554   25.0684 C   0  0  0  0  0  0
  -25.3791  -31.3699   26.1450 C   0  0  0  0  0  0
  -27.0340  -30.2983   24.6046 C   0  0  0  0  0  0
  -27.6067  -32.4287   25.7462 C   0  0  0  0  0  0
  -27.5575  -37.1802   24.8464 C   0  0  0  0  0  0
  -21.4158  -29.3051   22.3703 N   0  0  0  0  0  0
  -26.4282  -37.3773   23.9417 N   0  0  0  0  0  0
  -24.6669  -31.0830   22.0983 N   0  0  0  0  0  0
  -23.4197  -28.8226   23.3025 O   0  0  0  0  0  0
  -28.4355  -26.7534   20.0617 O   0  0  0  0  0  0
  -26.5622  -34.8911   22.4688 O   0  0  0  0  0  0
  -23.5364  -32.1406   23.7535 O   0  0  0  0  0  0
  -29.0606  -21.5036   19.1034 C   0  0  0  0  0  0
  -29.8433  -22.3607   18.3029 C   0  0  0  0  0  0
  -30.5319  -21.7851   17.1958 C   0  0  0  0  0  0
  -28.9267  -20.1465   18.7619 C   0  0  0  0  0  0
  -30.3167  -20.4065   16.9150 C   0  0  0  0  0  0
  -30.8205  -23.2828   15.1334 C   0  0  0  0  0  0
  -32.3032  -19.0453   16.0309 C   0  0  0  0  0  0
  -26.5084  -19.5070   19.0121 C   0  0  0  0  0  0
  -29.9236  -23.8498   18.6903 C   0  0  0  0  0  0
  -31.4975  -22.6073   16.3384 C   0  0  0  0  0  0
  -30.9349  -19.6754   15.7241 C   0  0  0  0  0  0
  -30.3125  -15.4162   21.7760 C   0  0  0  0  0  0
  -28.5462  -24.5500   18.8685 C   0  0  0  0  0  0
  -29.1835  -16.4015   21.3740 C   0  0  0  0  0  0
  -28.2679  -17.7222   19.4561 C   0  0  0  0  0  0
  -28.3676  -25.3272   20.1934 C   0  0  0  0  0  0
  -27.9412  -19.2457   19.5118 C   0  0  1  0  0  0
  -29.5255  -19.6218   17.6777 N   0  0  0  0  0  0
  -29.4734  -17.2834   20.2079 N   0  3  0  0  0  0
  -31.4575  -12.4279   19.0879 H   0  0  0  0  0  0
  -30.3297  -11.2928   19.7596 H   0  0  0  0  0  0
  -29.7149  -11.8358   17.3934 H   0  0  0  0  0  0
  -29.6265  -13.5326   17.7856 H   0  0  0  0  0  0
  -27.8454  -11.3026   18.8405 H   0  0  0  0  0  0
  -27.3317  -12.6097   17.8012 H   0  0  0  0  0  0
  -27.6957  -14.2457   19.5779 H   0  0  0  0  0  0
  -28.6743  -11.9325   21.3380 H   0  0  0  0  0  0
  -28.4436  -13.5589   21.8770 H   0  0  0  0  0  0
  -25.2738   -9.5620   22.4819 H   0  0  0  0  0  0
  -23.9961   -7.4559   22.7455 H   0  0  0  0  0  0
  -21.0807   -8.8747   19.8980 H   0  0  0  0  0  0
  -22.3657  -10.9640   19.6194 H   0  0  0  0  0  0
  -21.2005   -7.6130   23.9720 H   0  0  0  0  0  0
  -21.1467   -6.0507   25.9079 H   0  0  0  0  0  0
  -22.0606   -2.7604   23.2826 H   0  0  0  0  0  0
  -22.4040  -11.9838   22.4669 H   0  0  0  0  0  0
  -21.1167  -13.1375   22.2750 H   0  0  0  0  0  0
  -25.5125  -15.5797   21.3386 H   0  0  0  0  0  0
  -24.5546  -15.5650   20.0705 H   0  0  0  0  0  0
  -26.7152  -32.5544   23.1183 H   0  0  0  0  0  0
  -25.0040  -33.9761   25.0443 H   0  0  0  0  0  0
  -22.6880  -31.3090   21.4147 H   0  0  0  0  0  0
  -23.3729  -35.9664   23.3300 H   0  0  0  0  0  0
  -24.3586  -36.8915   22.2045 H   0  0  0  0  0  0
  -23.7270  -37.6521   23.6656 H   0  0  0  0  0  0
  -26.0365  -31.6102   20.5913 H   0  0  0  0  0  0
  -26.8164  -30.8968   21.9752 H   0  0  0  0  0  0
  -28.1069  -29.1406   21.1289 H   0  0  0  0  0  0
  -26.0568  -25.9690   19.0360 H   0  0  0  0  0  0
  -23.9762  -27.2765   19.0699 H   0  0  0  0  0  0
  -23.7274  -30.6000   19.4047 H   0  0  0  0  0  0
  -22.7334  -29.2488   19.8681 H   0  0  0  0  0  0
  -25.1294  -36.1931   25.0814 H   0  0  0  0  0  0
  -20.9974  -28.3273   24.1415 H   0  0  0  0  0  0
  -20.5651  -26.2333   23.3645 H   0  0  0  0  0  0
  -21.6633  -26.7458   22.1230 H   0  0  0  0  0  0
  -19.6921  -25.6315   21.1237 H   0  0  0  0  0  0
  -19.6649  -27.3224   20.6764 H   0  0  0  0  0  0
  -17.4196  -26.6674   21.4031 H   0  0  0  0  0  0
  -18.0316  -26.0058   22.9014 H   0  0  0  0  0  0
  -19.7924  -30.7248   24.2338 H   0  0  0  0  0  0
  -17.5011  -31.6272   24.5190 H   0  0  0  0  0  0
  -15.5354  -30.3055   23.7592 H   0  0  0  0  0  0
  -15.8655  -28.0872   22.7051 H   0  0  0  0  0  0
  -24.5905  -30.7114   25.7784 H   0  0  0  0  0  0
  -24.9084  -32.2902   26.4907 H   0  0  0  0  0  0
  -25.8127  -30.8828   27.0186 H   0  0  0  0  0  0
  -26.2874  -29.6730   24.1122 H   0  0  0  0  0  0
  -27.4148  -29.7213   25.4483 H   0  0  0  0  0  0
  -27.8696  -30.4290   23.9166 H   0  0  0  0  0  0
  -27.2626  -33.3539   26.2107 H   0  0  0  0  0  0
  -28.3843  -32.6918   25.0271 H   0  0  0  0  0  0
  -28.0784  -31.8382   26.5341 H   0  0  0  0  0  0
  -28.2596  -38.0093   24.7493 H   0  0  0  0  0  0
  -28.1072  -36.2623   24.6312 H   0  0  0  0  0  0
  -27.2310  -37.1473   25.8872 H   0  0  0  0  0  0
  -20.9344  -29.8784   21.6918 H   0  0  0  0  0  0
  -26.0161  -38.2848   24.1410 H   0  0  0  0  0  0
  -28.5245  -21.9020   19.9542 H   0  0  0  0  0  0
  -31.5395  -23.8479   14.5393 H   0  0  0  0  0  0
  -30.0318  -23.9709   15.4414 H   0  0  0  0  0  0
  -30.3676  -22.5458   14.4720 H   0  0  0  0  0  0
  -33.0148  -19.7994   16.3597 H   0  0  0  0  0  0
  -32.7172  -18.5763   15.1383 H   0  0  0  0  0  0
  -32.2298  -18.2844   16.8049 H   0  0  0  0  0  0
  -26.2471  -20.5578   19.1283 H   0  0  0  0  0  0
  -25.7714  -18.9321   19.5767 H   0  0  0  0  0  0
  -26.3992  -19.2538   17.9566 H   0  0  0  0  0  0
  -30.4774  -24.4283   17.9551 H   0  0  0  0  0  0
  -30.5212  -23.9114   19.5984 H   0  0  0  0  0  0
  -32.3035  -21.9650   15.9781 H   0  0  0  0  0  0
  -32.0171  -23.3468   16.9466 H   0  0  0  0  0  0
  -31.0084  -20.3392   14.8655 H   0  0  0  0  0  0
  -30.2556  -18.8798   15.4105 H   0  0  0  0  0  0
  -30.0286  -14.8777   22.6801 H   0  0  0  0  0  0
  -31.1929  -15.9914   22.0632 H   0  0  0  0  0  0
  -27.7589  -23.7985   18.8374 H   0  0  0  0  0  0
  -28.3416  -25.1978   18.0164 H   0  0  0  0  0  0
  -28.9397  -17.0397   22.2256 H   0  0  0  0  0  0
  -28.2892  -15.8086   21.1948 H   0  0  0  0  0  0
  -28.3728  -17.3902   18.4218 H   0  0  0  0  0  0
  -27.3989  -17.1731   19.8135 H   0  0  0  0  0  0
  -29.1279  -25.0278   20.9135 H   0  0  0  0  0  0
  -27.4329  -25.0256   20.6688 H   0  0  0  0  0  0
  -27.9653  -19.5499   20.5589 H   0  0  0  0  0  0
  -30.0526  -16.7928   19.5462 H   0  0  0  0  0  0
  -30.0034  -18.0859   20.5099 H   0  0  0  0  0  0
  1 25  1  0  0  0
  1 30  2  0  0  0
  1 82  1  0  0  0
  2  3  1  0  0  0
  2 25  1  0  0  0
  2 90  1  0  0  0
  2 91  1  0  0  0
  3  4  1  0  0  0
  3 92  1  0  0  0
  3 93  1  0  0  0
  4  5  1  0  0  0
  4 94  1  0  0  0
  4 95  1  0  0  0
  5  6  1  0  0  0
  5 26  1  0  0  0
  5 96  1  0  0  0
  6 25  1  0  0  0
  6 97  1  0  0  0
  6 98  1  0  0  0
  7  8  2  0  0  0
  7 26  1  0  0  0
  7 29  1  0  0  0
  8  9  1  0  0  0
  8 22  1  0  0  0
  9 10  1  0  0  0
  9 27  2  0  0  0
 10 11  2  0  0  0
 10 15  1  0  0  0
 11 12  1  0  0  0
 11 99  1  0  0  0
 12 13  2  0  0  0
 12100  1  0  0  0
 13 14  1  0  0  0
 13 31  1  0  0  0
 14 15  2  0  0  0
 14101  1  0  0  0
 15102  1  0  0  0
 16 17  2  0  0  0
 16 21  1  0  0  0
 16 31  1  0  0  0
 17 18  1  0  0  0
 17103  1  0  0  0
 18 19  2  0  0  0
 18104  1  0  0  0
 19 20  1  0  0  0
 19 24  1  0  0  0
 20 21  2  0  0  0
 20105  1  0  0  0
 21 23  1  0  0  0
 22 28  1  0  0  0
 22 32  2  0  0  0
 26 27  1  0  0  0
 28106  1  0  0  0
 28107  1  0  0  0
 29108  1  0  0  0
 29109  1  0  0  0
 33 34  1  0  0  0
 33 66  1  0  0  0
 33 70  2  0  0  0
 34 36  1  0  0  0
 34 59  1  0  0  0
 34110  1  0  0  0
 35 44  2  0  0  0
 35 45  1  0  0  0
 35 68  1  0  0  0
 36 56  1  0  0  0
 36111  1  0  0  0
 37 39  1  0  0  0
 37 47  1  0  0  0
 37 66  1  0  0  0
 37112  1  0  0  0
 38 43  2  0  0  0
 38 46  1  0  0  0
 38 47  1  0  0  0
 39 64  1  0  0  0
 39 67  2  0  0  0
 40 52  1  0  0  0
 40 53  2  0  0  0
 40 58  1  0  0  0
 41113  1  0  0  0
 41114  1  0  0  0
 41115  1  0  0  0
 41 48  1  0  0  0
 42 43  1  0  0  0
 42 66  1  0  0  0
 42116  1  0  0  0
 42117  1  0  0  0
 43 44  1  0  0  0
 44118  1  0  0  0
 45 46  2  0  0  0
 45119  1  0  0  0
 46120  1  0  0  0
 47121  1  0  0  0
 47122  1  0  0  0
 48 56  1  0  0  0
 48 65  1  0  0  0
 48123  1  0  0  0
 49 50  1  0  0  0
 49 53  1  0  0  0
 49 64  1  0  0  0
 49124  1  0  0  0
 50 51  1  0  0  0
 50125  1  0  0  0
 50126  1  0  0  0
 51 52  1  0  0  0
 51127  1  0  0  0
 51128  1  0  0  0
 52129  1  0  0  0
 52130  1  0  0  0
 53 54  1  0  0  0
 54 55  2  0  0  0
 54131  1  0  0  0
 55 57  1  0  0  0
 55132  1  0  0  0
 56 69  2  0  0  0
 57 58  2  0  0  0
 57133  1  0  0  0
 58134  1  0  0  0
 59 60  1  0  0  0
 59 61  1  0  0  0
 59 62  1  0  0  0
 60135  1  0  0  0
 60136  1  0  0  0
 60137  1  0  0  0
 61138  1  0  0  0
 61139  1  0  0  0
 61140  1  0  0  0
 62141  1  0  0  0
 62142  1  0  0  0
 62143  1  0  0  0
 63 65  1  0  0  0
 63144  1  0  0  0
 63145  1  0  0  0
 63146  1  0  0  0
 64147  1  0  0  0
 65148  1  0  0  0
 68 86  1  0  0  0
 71 72  2  0  0  0
 71 74  1  0  0  0
 71149  1  0  0  0
 72 73  1  0  0  0
 72 79  1  0  0  0
 73 75  2  0  0  0
 73 80  1  0  0  0
 74 87  1  0  0  0
 74 88  2  0  0  0
 75 81  1  0  0  0
 75 88  1  0  0  0
 76 80  1  0  0  0
 76150  1  0  0  0
 76151  1  0  0  0
 76152  1  0  0  0
 77 81  1  0  0  0
 77153  1  0  0  0
 77154  1  0  0  0
 77155  1  0  0  0
 78156  1  0  0  0
 78157  1  0  0  0
 78158  1  0  0  0
 78 87  1  0  0  0
 79 83  1  0  0  0
 79159  1  0  0  0
 79160  1  0  0  0
 80161  1  0  0  0
 80162  1  0  0  0
 81163  1  0  0  0
 81164  1  0  0  0
 82 84  1  0  0  0
 82165  1  0  0  0
 82166  1  0  0  0
 83 86  1  0  0  0
 83167  1  0  0  0
 83168  1  0  0  0
 84 89  1  0  0  0
 84169  1  0  0  0
 84170  1  0  0  0
 85 87  1  0  0  0
 85 89  1  0  0  0
 85171  1  0  0  0
 85172  1  0  0  0
 86173  1  0  0  0
 86174  1  0  0  0
 87175  1  0  0  0
 89176  1  0  0  0
 89177  1  0  0  0
M  CHG  1  89   1
M  ISO  4   1 100  68 101  82 100  86 101
M  END
> <chiral flag>
0

> <version>
0

> <s_m_source_file>
/data/baiqing/PycharmProjects/Reinvent-master-3.2/result/LINK_invent/BTK/process_docking_weight1_custom_sum_contain_oxygen_bond_distance_aromatic_linkinvent_7_9_3/rearranged_h_0087.sdf

> <i_m_source_file_index>
42

> <r_mmod_Potential_Energy-OPLS-2005>
-369.167388916016

> <r_mmod_Stretch_Energy-OPLS-2005>
40.2643432617188

> <r_mmod_Bend_Energy-OPLS-2005>
108.216613769531

> <r_mmod_Torsional_Energy-OPLS-2005>
235.900848388672

> <r_mmod_Improper_Torsional_Energy-OPLS-2005>
9.67169761657715

> <r_mmod_Van_der_Waal_Energy-OPLS-2005>
151.97102355957

> <r_mmod_Electrostatic_Energy-OPLS-2005>
-513.251342773438

> <r_mmod_Solvation_Energy-OPLS-2005>
-410.242828369141

> <b_mmod_Minimization_Converged-OPLS-2005>
0

> <r_mmod_RMS_Derivative-OPLS-2005>
5.16701030731201

$$$$
43
                    3D
 Structure written by MMmdl.
166174  0  0  1  0            999 V2000
  -30.7704  -14.4924   20.5973 C   0  0  0  0  0  0
  -30.4266  -12.3378   19.4259 C   0  0  0  0  0  0
  -29.4959  -12.5266   18.2092 C   0  0  0  0  0  0
  -28.0141  -12.4008   18.6235 C   0  0  0  0  0  0
  -27.6699  -13.2120   19.9011 C   0  0  2  0  0  0
  -28.7259  -12.9364   20.9917 C   0  0  0  0  0  0
  -25.2616  -13.8160   20.5724 C   0  0  0  0  0  0
  -24.1840  -13.0417   20.9189 C   0  0  0  0  0  0
  -24.6392  -11.6892   20.8778 C   0  0  0  0  0  0
  -23.9066  -10.4277   21.0412 C   0  0  0  0  0  0
  -24.3590   -9.4188   21.9198 C   0  0  0  0  0  0
  -23.6275   -8.2208   22.0723 C   0  0  0  0  0  0
  -22.4245   -8.0278   21.3521 C   0  0  0  0  0  0
  -21.9904   -9.0251   20.4615 C   0  0  0  0  0  0
  -22.7230  -10.2144   20.3056 C   0  0  0  0  0  0
  -21.6831   -6.0720   22.5278 C   0  0  0  0  0  0
  -21.3995   -6.5616   23.8210 C   0  0  0  0  0  0
  -21.3664   -5.6774   24.9177 C   0  0  0  0  0  0
  -21.6061   -4.3035   24.7223 C   0  0  0  0  0  0
  -21.8814   -3.8129   23.4339 C   0  0  0  0  0  0
  -21.9177   -4.6954   22.3399 C   0  0  0  0  0  0
  -22.7845  -13.5211   21.1867 C   0  0  0  0  0  0
  -22.1648   -4.2142   21.0972 F   0  0  0  0  0  0
  -21.5655   -3.4505   25.7729 F   0  0  0  0  0  0
  -30.0376  -13.3353   20.4498 N   0  0  0  0  0  0
  -26.3095  -12.9345   20.3544 N   0  0  0  0  0  0
  -25.9353  -11.6503   20.5862 N   0  0  0  0  0  0
  -22.0487  -12.8180   22.0448 N   0  0  0  0  0  0
  -25.4361  -15.1850   20.4082 N   0  0  0  0  0  0
  -31.8870  -14.5551   20.0731 O   0  0  0  0  0  0
  -21.6606   -6.8863   21.4231 O   0  0  0  0  0  0
  -22.3531  -14.5522   20.6762 O   0  0  0  0  0  0
  -24.6176  -31.8727   23.2192 C   0  0  0  0  0  0
  -25.9085  -32.4856   23.8441 C   0  0  1  0  0  0
  -27.1975  -27.4221   20.0954 C   0  0  0  0  0  0
  -25.5957  -33.8658   24.2358 N   0  0  0  0  0  0
  -23.3978  -30.5078   21.5662 C   0  0  2  0  0  0
  -24.8282  -28.9823   20.1177 C   0  0  0  0  0  0
  -22.7389  -29.4715   22.5061 C   0  0  0  0  0  0
  -18.0281  -28.1392   22.8490 C   0  0  0  0  0  0
  -24.1482  -36.7322   23.2635 C   0  0  0  0  0  0
  -25.9318  -30.8397   21.3659 C   0  0  0  0  0  0
  -26.0001  -29.4800   20.6996 C   0  0  0  0  0  0
  -27.1925  -28.7147   20.6724 C   0  0  0  0  0  0
  -25.9940  -26.9456   19.5172 C   0  0  0  0  0  0
  -24.8192  -27.7100   19.5292 C   0  0  0  0  0  0
  -23.5981  -29.8597   20.1745 C   0  0  0  0  0  0
  -25.4108  -36.3140   24.0332 C   0  0  1  0  0  0
  -20.5856  -28.3670   23.1325 C   0  0  2  0  0  0
  -20.6763  -26.9419   22.5413 C   0  0  0  0  0  0
  -19.5748  -26.6389   21.5208 C   0  0  0  0  0  0
  -18.1925  -26.7940   22.1616 C   0  0  0  0  0  0
  -19.1523  -28.8849   23.2906 C   0  0  0  0  0  0
  -18.9452  -30.1446   23.8920 C   0  0  0  0  0  0
  -17.6463  -30.6594   24.0573 C   0  0  0  0  0  0
  -25.9049  -34.9502   23.5136 C   0  0  0  0  0  0
  -16.5351  -29.9104   23.6332 C   0  0  0  0  0  0
  -16.7264  -28.6521   23.0345 C   0  0  0  0  0  0
  -26.4488  -31.6640   25.0775 C   0  0  0  0  0  0
  -25.3750  -31.3732   26.1515 C   0  0  0  0  0  0
  -27.0294  -30.3085   24.6138 C   0  0  0  0  0  0
  -27.6071  -32.4349   25.7531 C   0  0  0  0  0  0
  -27.5582  -37.1822   24.8470 C   0  0  0  0  0  0
  -21.4131  -29.3059   22.3759 N   0  0  0  0  0  0
  -26.4300  -37.3821   23.9409 N   0  0  0  0  0  0
  -24.6697  -31.0840   22.1098 N   0  0  0  0  0  0
  -23.4168  -28.8257   23.3088 O   0  0  0  0  0  0
  -28.3389  -26.6369   20.1262 O   0  0  0  0  0  0
  -26.5600  -34.8943   22.4689 O   0  0  0  0  0  0
  -23.5377  -32.1505   23.7602 O   0  0  0  0  0  0
  -30.5596  -19.4616   21.1810 C   0  0  0  0  0  0
  -30.4902  -18.1742   20.5754 C   0  0  0  0  0  0
  -30.1043  -20.4201   20.3139 C   0  0  0  0  0  0
  -29.9262  -18.3796   19.3409 C   0  0  0  0  0  0
  -29.6844  -17.3989   18.2355 C   0  0  0  0  0  0
  -29.9630  -21.2010   17.1616 C   0  0  0  0  0  0
  -29.1178  -15.7521   22.0740 C   0  0  0  0  0  0
  -31.0756  -16.8935   21.1859 C   0  0  0  0  0  0
  -30.2234  -21.9269   20.4696 C   0  0  0  0  0  0
  -28.9761  -22.8261   20.3203 C   0  0  0  0  0  0
  -29.3157  -24.3379   20.4205 C   0  0  0  0  0  0
  -29.0077  -20.3405   18.0012 C   0  0  0  0  0  0
  -28.0814  -25.2196   20.1990 C   0  0  0  0  0  0
  -29.6468  -19.7432   19.1822 N   0  0  0  0  0  0
  -30.2592  -15.6410   21.1601 N   0  0  0  0  0  0
  -31.4675  -12.4208   19.1119 H   0  0  0  0  0  0
  -30.3406  -11.3242   19.8234 H   0  0  0  0  0  0
  -29.7355  -11.7975   17.4342 H   0  0  0  0  0  0
  -29.6714  -13.5064   17.7637 H   0  0  0  0  0  0
  -27.8037  -11.3424   18.7932 H   0  0  0  0  0  0
  -27.3701  -12.7131   17.8017 H   0  0  0  0  0  0
  -27.7307  -14.2685   19.6480 H   0  0  0  0  0  0
  -28.7301  -11.8639   21.1999 H   0  0  0  0  0  0
  -28.4841  -13.3659   21.9580 H   0  0  0  0  0  0
  -25.2735   -9.5627   22.4774 H   0  0  0  0  0  0
  -23.9987   -7.4558   22.7393 H   0  0  0  0  0  0
  -21.0849   -8.8767   19.8880 H   0  0  0  0  0  0
  -22.3716  -10.9676   19.6159 H   0  0  0  0  0  0
  -21.1968   -7.6119   23.9718 H   0  0  0  0  0  0
  -21.1513   -6.0487   25.9075 H   0  0  0  0  0  0
  -22.0601   -2.7595   23.2826 H   0  0  0  0  0  0
  -22.4077  -11.9824   22.4839 H   0  0  0  0  0  0
  -21.1106  -13.1217   22.2663 H   0  0  0  0  0  0
  -24.6803  -15.8545   20.4945 H   0  0  0  0  0  0
  -26.3006  -15.6069   20.0931 H   0  0  0  0  0  0
  -26.7155  -32.5536   23.1199 H   0  0  0  0  0  0
  -25.0117  -33.9813   25.0511 H   0  0  0  0  0  0
  -22.6861  -31.3292   21.4477 H   0  0  0  0  0  0
  -23.3752  -35.9653   23.3328 H   0  0  0  0  0  0
  -24.3569  -36.8909   22.2048 H   0  0  0  0  0  0
  -23.7225  -37.6530   23.6624 H   0  0  0  0  0  0
  -26.0460  -31.6135   20.6062 H   0  0  0  0  0  0
  -26.8190  -30.8810   21.9856 H   0  0  0  0  0  0
  -28.0947  -29.1061   21.1180 H   0  0  0  0  0  0
  -25.9082  -25.9712   19.0617 H   0  0  0  0  0  0
  -23.9115  -27.3015   19.1018 H   0  0  0  0  0  0
  -23.7175  -30.6549   19.4372 H   0  0  0  0  0  0
  -22.7100  -29.3050   19.8658 H   0  0  0  0  0  0
  -25.1281  -36.2012   25.0824 H   0  0  0  0  0  0
  -20.9938  -28.3234   24.1447 H   0  0  0  0  0  0
  -20.5662  -26.2296   23.3605 H   0  0  0  0  0  0
  -21.6643  -26.7474   22.1219 H   0  0  0  0  0  0
  -19.6913  -25.6294   21.1260 H   0  0  0  0  0  0
  -19.6696  -27.3180   20.6723 H   0  0  0  0  0  0
  -17.4198  -26.6690   21.4017 H   0  0  0  0  0  0
  -18.0333  -26.0079   22.9011 H   0  0  0  0  0  0
  -19.7928  -30.7257   24.2304 H   0  0  0  0  0  0
  -17.5018  -31.6277   24.5175 H   0  0  0  0  0  0
  -15.5349  -30.3014   23.7640 H   0  0  0  0  0  0
  -15.8660  -28.0844   22.7042 H   0  0  0  0  0  0
  -24.5930  -30.7073   25.7850 H   0  0  0  0  0  0
  -24.8926  -32.2877   26.4979 H   0  0  0  0  0  0
  -25.8098  -30.8894   27.0274 H   0  0  0  0  0  0
  -26.2825  -29.6881   24.1174 H   0  0  0  0  0  0
  -27.4046  -29.7282   25.4580 H   0  0  0  0  0  0
  -27.8676  -30.4402   23.9292 H   0  0  0  0  0  0
  -27.2708  -33.3637   26.2143 H   0  0  0  0  0  0
  -28.3864  -32.6937   25.0355 H   0  0  0  0  0  0
  -28.0771  -31.8468   26.5422 H   0  0  0  0  0  0
  -28.2626  -38.0095   24.7510 H   0  0  0  0  0  0
  -28.1048  -36.2635   24.6303 H   0  0  0  0  0  0
  -27.2300  -37.1491   25.8872 H   0  0  0  0  0  0
  -20.9284  -29.8811   21.7017 H   0  0  0  0  0  0
  -26.0195  -38.2899   24.1416 H   0  0  0  0  0  0
  -30.9992  -19.6839   22.1449 H   0  0  0  0  0  0
  -30.1457  -16.4386   18.4528 H   0  0  0  0  0  0
  -30.1217  -17.7539   17.2996 H   0  0  0  0  0  0
  -28.6176  -17.2383   18.0776 H   0  0  0  0  0  0
  -29.4600  -21.5907   16.2750 H   0  0  0  0  0  0
  -30.8223  -20.6190   16.8282 H   0  0  0  0  0  0
  -30.3378  -22.0637   17.7081 H   0  0  0  0  0  0
  -29.2614  -15.1070   22.9442 H   0  0  0  0  0  0
  -28.1795  -15.5144   21.5748 H   0  0  0  0  0  0
  -28.9968  -16.7639   22.4634 H   0  0  0  0  0  0
  -31.3362  -17.0968   22.2270 H   0  0  0  0  0  0
  -32.0523  -16.7835   20.7093 H   0  0  0  0  0  0
  -30.9953  -22.2790   19.7864 H   0  0  0  0  0  0
  -30.6398  -22.1280   21.4577 H   0  0  0  0  0  0
  -28.2283  -22.5487   21.0639 H   0  0  0  0  0  0
  -28.5101  -22.6727   19.3536 H   0  0  0  0  0  0
  -30.0618  -24.5878   19.6650 H   0  0  0  0  0  0
  -29.7585  -24.5685   21.3897 H   0  0  0  0  0  0
  -28.5970  -19.5597   17.3632 H   0  0  0  0  0  0
  -28.1295  -20.8985   18.3143 H   0  0  0  0  0  0
  -27.3777  -25.0290   21.0146 H   0  0  0  0  0  0
  -27.6232  -24.8684   19.2758 H   0  0  0  0  0  0
  1 25  1  0  0  0
  1 30  2  0  0  0
  1 85  1  0  0  0
  2  3  1  0  0  0
  2 25  1  0  0  0
  2 86  1  0  0  0
  2 87  1  0  0  0
  3  4  1  0  0  0
  3 88  1  0  0  0
  3 89  1  0  0  0
  4  5  1  0  0  0
  4 90  1  0  0  0
  4 91  1  0  0  0
  5  6  1  0  0  0
  5 26  1  0  0  0
  5 92  1  0  0  0
  6 25  1  0  0  0
  6 93  1  0  0  0
  6 94  1  0  0  0
  7  8  2  0  0  0
  7 26  1  0  0  0
  7 29  1  0  0  0
  8  9  1  0  0  0
  8 22  1  0  0  0
  9 10  1  0  0  0
  9 27  2  0  0  0
 10 11  2  0  0  0
 10 15  1  0  0  0
 11 12  1  0  0  0
 11 95  1  0  0  0
 12 13  2  0  0  0
 12 96  1  0  0  0
 13 14  1  0  0  0
 13 31  1  0  0  0
 14 15  2  0  0  0
 14 97  1  0  0  0
 15 98  1  0  0  0
 16 17  2  0  0  0
 16 21  1  0  0  0
 16 31  1  0  0  0
 17 18  1  0  0  0
 17 99  1  0  0  0
 18 19  2  0  0  0
 18100  1  0  0  0
 19 20  1  0  0  0
 19 24  1  0  0  0
 20 21  2  0  0  0
 20101  1  0  0  0
 21 23  1  0  0  0
 22 28  1  0  0  0
 22 32  2  0  0  0
 26 27  1  0  0  0
 28102  1  0  0  0
 28103  1  0  0  0
 29104  1  0  0  0
 29105  1  0  0  0
 33 34  1  0  0  0
 33 66  1  0  0  0
 33 70  2  0  0  0
 34 36  1  0  0  0
 34 59  1  0  0  0
 34106  1  0  0  0
 35 44  2  0  0  0
 35 45  1  0  0  0
 35 68  1  0  0  0
 36 56  1  0  0  0
 36107  1  0  0  0
 37 39  1  0  0  0
 37 47  1  0  0  0
 37 66  1  0  0  0
 37108  1  0  0  0
 38 43  2  0  0  0
 38 46  1  0  0  0
 38 47  1  0  0  0
 39 64  1  0  0  0
 39 67  2  0  0  0
 40 52  1  0  0  0
 40 53  2  0  0  0
 40 58  1  0  0  0
 41109  1  0  0  0
 41110  1  0  0  0
 41111  1  0  0  0
 41 48  1  0  0  0
 42 43  1  0  0  0
 42 66  1  0  0  0
 42112  1  0  0  0
 42113  1  0  0  0
 43 44  1  0  0  0
 44114  1  0  0  0
 45 46  2  0  0  0
 45115  1  0  0  0
 46116  1  0  0  0
 47117  1  0  0  0
 47118  1  0  0  0
 48 56  1  0  0  0
 48 65  1  0  0  0
 48119  1  0  0  0
 49 50  1  0  0  0
 49 53  1  0  0  0
 49 64  1  0  0  0
 49120  1  0  0  0
 50 51  1  0  0  0
 50121  1  0  0  0
 50122  1  0  0  0
 51 52  1  0  0  0
 51123  1  0  0  0
 51124  1  0  0  0
 52125  1  0  0  0
 52126  1  0  0  0
 53 54  1  0  0  0
 54 55  2  0  0  0
 54127  1  0  0  0
 55 57  1  0  0  0
 55128  1  0  0  0
 56 69  2  0  0  0
 57 58  2  0  0  0
 57129  1  0  0  0
 58130  1  0  0  0
 59 60  1  0  0  0
 59 61  1  0  0  0
 59 62  1  0  0  0
 60131  1  0  0  0
 60132  1  0  0  0
 60133  1  0  0  0
 61134  1  0  0  0
 61135  1  0  0  0
 61136  1  0  0  0
 62137  1  0  0  0
 62138  1  0  0  0
 62139  1  0  0  0
 63 65  1  0  0  0
 63140  1  0  0  0
 63141  1  0  0  0
 63142  1  0  0  0
 64143  1  0  0  0
 65144  1  0  0  0
 68 83  1  0  0  0
 71 72  1  0  0  0
 71 73  2  0  0  0
 71145  1  0  0  0
 72 74  2  0  0  0
 72 78  1  0  0  0
 73 79  1  0  0  0
 73 84  1  0  0  0
 74 75  1  0  0  0
 74 84  1  0  0  0
 75146  1  0  0  0
 75147  1  0  0  0
 75148  1  0  0  0
 76 82  1  0  0  0
 76149  1  0  0  0
 76150  1  0  0  0
 76151  1  0  0  0
 77 85  1  0  0  0
 77152  1  0  0  0
 77153  1  0  0  0
 77154  1  0  0  0
 78 85  1  0  0  0
 78155  1  0  0  0
 78156  1  0  0  0
 79 80  1  0  0  0
 79157  1  0  0  0
 79158  1  0  0  0
 80 81  1  0  0  0
 80159  1  0  0  0
 80160  1  0  0  0
 81 83  1  0  0  0
 81161  1  0  0  0
 81162  1  0  0  0
 82 84  1  0  0  0
 82163  1  0  0  0
 82164  1  0  0  0
 83165  1  0  0  0
 83166  1  0  0  0
M  ISO  4   1 100  68 101  83 101  85 100
M  END
> <chiral flag>
0

> <version>
0

> <s_m_source_file>
/data/baiqing/PycharmProjects/Reinvent-master-3.2/result/LINK_invent/BTK/process_docking_weight1_custom_sum_contain_oxygen_bond_distance_aromatic_linkinvent_7_9_3/rearranged_h_0087.sdf

> <i_m_source_file_index>
43

> <r_mmod_Potential_Energy-OPLS-2005>
81.7895126342773

> <r_mmod_Stretch_Energy-OPLS-2005>
47.7066497802734

> <r_mmod_Bend_Energy-OPLS-2005>
145.895812988281

> <r_mmod_Torsional_Energy-OPLS-2005>
254.558532714844

> <r_mmod_Improper_Torsional_Energy-OPLS-2005>
5.27950859069824

> <r_mmod_Van_der_Waal_Energy-OPLS-2005>
153.303466796875

> <r_mmod_Electrostatic_Energy-OPLS-2005>
-348.225708007812

> <r_mmod_Solvation_Energy-OPLS-2005>
-196.643524169922

> <b_mmod_Minimization_Converged-OPLS-2005>
0

> <r_mmod_RMS_Derivative-OPLS-2005>
4.80923986434937

$$$$
44
                    3D
 Structure written by MMmdl.
169177  0  0  1  0            999 V2000
  -30.6927  -14.5519   20.5342 C   0  0  0  0  0  0
  -30.4328  -12.3411   19.4517 C   0  0  0  0  0  0
  -29.5235  -12.4968   18.2160 C   0  0  0  0  0  0
  -28.0382  -12.3590   18.6146 C   0  0  0  0  0  0
  -27.6610  -13.2235   19.8495 C   0  0  2  0  0  0
  -28.7002  -13.0611   20.9834 C   0  0  0  0  0  0
  -25.2594  -13.8186   20.5609 C   0  0  0  0  0  0
  -24.1880  -13.0463   20.9160 C   0  0  0  0  0  0
  -24.6446  -11.6925   20.8699 C   0  0  0  0  0  0
  -23.9097  -10.4310   21.0386 C   0  0  0  0  0  0
  -24.3630   -9.4220   21.9170 C   0  0  0  0  0  0
  -23.6301   -8.2258   22.0744 C   0  0  0  0  0  0
  -22.4275   -8.0291   21.3554 C   0  0  0  0  0  0
  -21.9929   -9.0257   20.4641 C   0  0  0  0  0  0
  -22.7268  -10.2133   20.3038 C   0  0  0  0  0  0
  -21.6848   -6.0742   22.5302 C   0  0  0  0  0  0
  -21.4001   -6.5637   23.8242 C   0  0  0  0  0  0
  -21.3657   -5.6787   24.9201 C   0  0  0  0  0  0
  -21.6057   -4.3052   24.7241 C   0  0  0  0  0  0
  -21.8817   -3.8142   23.4359 C   0  0  0  0  0  0
  -21.9185   -4.6966   22.3422 C   0  0  0  0  0  0
  -22.7902  -13.5242   21.1840 C   0  0  0  0  0  0
  -22.1657   -4.2170   21.0993 F   0  0  0  0  0  0
  -21.5640   -3.4525   25.7740 F   0  0  0  0  0  0
  -30.0289  -13.3627   20.4326 N   0  0  0  0  0  0
  -26.3042  -12.9399   20.3187 N   0  0  0  0  0  0
  -25.9374  -11.6550   20.5655 N   0  0  0  0  0  0
  -22.0485  -12.8269   22.0367 N   0  0  0  0  0  0
  -25.4307  -15.1917   20.4041 N   0  0  0  0  0  0
  -31.8374  -14.6964   20.0995 O   0  0  0  0  0  0
  -21.6638   -6.8880   21.4261 O   0  0  0  0  0  0
  -22.3619  -14.5576   20.6689 O   0  0  0  0  0  0
  -24.6208  -31.8630   23.2056 C   0  0  0  0  0  0
  -25.9072  -32.4790   23.8380 C   0  0  1  0  0  0
  -27.2289  -27.3517   20.1183 C   0  0  0  0  0  0
  -25.5904  -33.8590   24.2308 N   0  0  0  0  0  0
  -23.4140  -30.4867   21.5461 C   0  0  2  0  0  0
  -24.8630  -28.9501   20.1108 C   0  0  0  0  0  0
  -22.7459  -29.4636   22.4951 C   0  0  0  0  0  0
  -18.0282  -28.1385   22.8481 C   0  0  0  0  0  0
  -24.1486  -36.7298   23.2642 C   0  0  0  0  0  0
  -25.9524  -30.8077   21.3708 C   0  0  0  0  0  0
  -26.0294  -29.4370   20.7125 C   0  0  0  0  0  0
  -27.2154  -28.6502   20.7079 C   0  0  0  0  0  0
  -26.0420  -26.9161   19.4849 C   0  0  0  0  0  0
  -24.8707  -27.6933   19.4880 C   0  0  0  0  0  0
  -23.6255  -29.8207   20.1606 C   0  0  0  0  0  0
  -25.4104  -36.3093   24.0339 C   0  0  1  0  0  0
  -20.5875  -28.3672   23.1303 C   0  0  2  0  0  0
  -20.6776  -26.9404   22.5412 C   0  0  0  0  0  0
  -19.5758  -26.6384   21.5216 C   0  0  0  0  0  0
  -18.1935  -26.7929   22.1620 C   0  0  0  0  0  0
  -19.1531  -28.8846   23.2886 C   0  0  0  0  0  0
  -18.9460  -30.1450   23.8900 C   0  0  0  0  0  0
  -17.6462  -30.6588   24.0559 C   0  0  0  0  0  0
  -25.9040  -34.9457   23.5123 C   0  0  0  0  0  0
  -16.5351  -29.9085   23.6335 C   0  0  0  0  0  0
  -16.7270  -28.6499   23.0362 C   0  0  0  0  0  0
  -26.4473  -31.6591   25.0740 C   0  0  0  0  0  0
  -25.3718  -31.3711   26.1478 C   0  0  0  0  0  0
  -27.0311  -30.3020   24.6164 C   0  0  0  0  0  0
  -27.6045  -32.4314   25.7495 C   0  0  0  0  0  0
  -27.5578  -37.1796   24.8464 C   0  0  0  0  0  0
  -21.4173  -29.3031   22.3689 N   0  0  0  0  0  0
  -26.4290  -37.3777   23.9407 N   0  0  0  0  0  0
  -24.6808  -31.0688   22.0973 N   0  0  0  0  0  0
  -23.4211  -28.8186   23.3022 O   0  0  0  0  0  0
  -28.3533  -26.5222   20.1865 O   0  0  0  0  0  0
  -26.5613  -34.8918   22.4694 O   0  0  0  0  0  0
  -23.5377  -32.1402   23.7403 O   0  0  0  0  0  0
  -31.1224  -22.0746   21.8550 C   0  0  0  0  0  0
  -32.2321  -21.2064   21.8411 C   0  0  0  0  0  0
  -30.2705  -21.6850   20.8630 C   0  0  0  0  0  0
  -32.0591  -20.2906   20.8403 C   0  0  0  0  0  0
  -33.8020  -18.5412   21.3826 C   0  0  0  0  0  0
  -34.3383  -20.3906   19.8566 C   0  0  0  0  0  0
  -32.9095  -18.6176   18.9894 C   0  0  0  0  0  0
  -29.1136  -22.5424   20.3247 C   0  0  0  0  0  0
  -29.2749  -24.1098   20.5600 C   0  0  0  0  0  0
  -29.5551  -17.9796   20.0167 C   0  0  0  0  0  0
  -29.9636  -19.4553   19.5514 C   0  0  0  0  0  0
  -30.3759  -17.0595   20.9987 C   0  0  0  0  0  0
  -28.1563  -25.0726   20.0100 C   0  0  0  0  0  0
  -33.1963  -19.4326   20.2784 C   0  0  0  0  0  0
  -30.7081  -20.3934   20.4350 N   0  0  0  0  0  0
  -29.9751  -15.6168   20.9813 N   0  0  0  0  0  0
  -31.4852  -12.4227   19.1719 H   0  0  0  0  0  0
  -30.3133  -11.3468   19.8827 H   0  0  0  0  0  0
  -29.7845  -11.7432   17.4721 H   0  0  0  0  0  0
  -29.6995  -13.4633   17.7421 H   0  0  0  0  0  0
  -27.8587  -11.3064   18.8348 H   0  0  0  0  0  0
  -27.3974  -12.6010   17.7655 H   0  0  0  0  0  0
  -27.6860  -14.2624   19.5152 H   0  0  0  0  0  0
  -28.6845  -12.0398   21.3662 H   0  0  0  0  0  0
  -28.4520  -13.7019   21.8304 H   0  0  0  0  0  0
  -25.2769   -9.5713   22.4762 H   0  0  0  0  0  0
  -24.0007   -7.4662   22.7490 H   0  0  0  0  0  0
  -21.0845   -8.8780   19.8967 H   0  0  0  0  0  0
  -22.3717  -10.9659   19.6148 H   0  0  0  0  0  0
  -21.1975   -7.6142   23.9763 H   0  0  0  0  0  0
  -21.1497   -6.0501   25.9116 H   0  0  0  0  0  0
  -22.0591   -2.7603   23.2858 H   0  0  0  0  0  0
  -22.3991  -11.9894   22.4787 H   0  0  0  0  0  0
  -21.1118  -13.1377   22.2516 H   0  0  0  0  0  0
  -24.6553  -15.8391   20.4888 H   0  0  0  0  0  0
  -26.2824  -15.6308   20.0771 H   0  0  0  0  0  0
  -26.7149  -32.5475   23.1144 H   0  0  0  0  0  0
  -25.0043  -33.9748   25.0442 H   0  0  0  0  0  0
  -22.7054  -31.3052   21.4034 H   0  0  0  0  0  0
  -23.3754  -35.9628   23.3304 H   0  0  0  0  0  0
  -24.3589  -36.8911   22.2060 H   0  0  0  0  0  0
  -23.7238  -37.6498   23.6660 H   0  0  0  0  0  0
  -26.0840  -31.5781   20.6091 H   0  0  0  0  0  0
  -26.8320  -30.8550   21.9999 H   0  0  0  0  0  0
  -28.1087  -29.0202   21.1897 H   0  0  0  0  0  0
  -25.9918  -25.9584   18.9896 H   0  0  0  0  0  0
  -23.9790  -27.3142   19.0100 H   0  0  0  0  0  0
  -23.7326  -30.5967   19.4019 H   0  0  0  0  0  0
  -22.7493  -29.2422   19.8629 H   0  0  0  0  0  0
  -25.1281  -36.1954   25.0834 H   0  0  0  0  0  0
  -20.9968  -28.3234   24.1424 H   0  0  0  0  0  0
  -20.5702  -26.2272   23.3593 H   0  0  0  0  0  0
  -21.6644  -26.7452   22.1195 H   0  0  0  0  0  0
  -19.6931  -25.6302   21.1239 H   0  0  0  0  0  0
  -19.6714  -27.3194   20.6750 H   0  0  0  0  0  0
  -17.4207  -26.6674   21.4019 H   0  0  0  0  0  0
  -18.0332  -26.0074   22.9019 H   0  0  0  0  0  0
  -19.7938  -30.7261   24.2277 H   0  0  0  0  0  0
  -17.5020  -31.6273   24.5152 H   0  0  0  0  0  0
  -15.5355  -30.2995   23.7663 H   0  0  0  0  0  0
  -15.8665  -28.0818   22.7102 H   0  0  0  0  0  0
  -24.5909  -30.7038   25.7811 H   0  0  0  0  0  0
  -24.8898  -32.2876   26.4899 H   0  0  0  0  0  0
  -25.8069  -30.8905   27.0254 H   0  0  0  0  0  0
  -26.2879  -29.6781   24.1193 H   0  0  0  0  0  0
  -27.4027  -29.7262   25.4651 H   0  0  0  0  0  0
  -27.8741  -30.4318   23.9372 H   0  0  0  0  0  0
  -27.2678  -33.3624   26.2062 H   0  0  0  0  0  0
  -28.3863  -32.6845   25.0323 H   0  0  0  0  0  0
  -28.0709  -31.8448   26.5420 H   0  0  0  0  0  0
  -28.2585  -38.0099   24.7516 H   0  0  0  0  0  0
  -28.1089  -36.2635   24.6287 H   0  0  0  0  0  0
  -27.2309  -37.1434   25.8870 H   0  0  0  0  0  0
  -20.9345  -29.8724   21.6870 H   0  0  0  0  0  0
  -26.0183  -38.2855   24.1406 H   0  0  0  0  0  0
  -31.0276  -22.9664   22.4587 H   0  0  0  0  0  0
  -33.1341  -21.3328   22.4243 H   0  0  0  0  0  0
  -34.2809  -19.1448   22.1549 H   0  0  0  0  0  0
  -34.5700  -17.8791   20.9818 H   0  0  0  0  0  0
  -33.0674  -17.9287   21.8967 H   0  0  0  0  0  0
  -34.6804  -21.0182   20.6799 H   0  0  0  0  0  0
  -34.0240  -21.0625   19.0574 H   0  0  0  0  0  0
  -35.2144  -19.8477   19.5010 H   0  0  0  0  0  0
  -32.7143  -19.2766   18.1412 H   0  0  0  0  0  0
  -33.7757  -18.0154   18.7138 H   0  0  0  0  0  0
  -32.0816  -17.9216   19.0445 H   0  0  0  0  0  0
  -28.1787  -22.2060   20.7719 H   0  0  0  0  0  0
  -29.0141  -22.3736   19.2528 H   0  0  0  0  0  0
  -30.2272  -24.4246   20.1351 H   0  0  0  0  0  0
  -29.3530  -24.2857   21.6330 H   0  0  0  0  0  0
  -29.4228  -17.4112   19.0933 H   0  0  0  0  0  0
  -28.5466  -18.0465   20.4271 H   0  0  0  0  0  0
  -30.4930  -19.4054   18.6023 H   0  0  0  0  0  0
  -29.0326  -19.9505   19.2772 H   0  0  0  0  0  0
  -30.2437  -17.4332   22.0149 H   0  0  0  0  0  0
  -31.4402  -17.1176   20.8189 H   0  0  0  0  0  0
  -27.2347  -24.7694   20.5090 H   0  0  0  0  0  0
  -28.0238  -24.8769   18.9462 H   0  0  0  0  0  0
  -29.0515  -15.4042   21.3269 H   0  0  0  0  0  0
  1 25  1  0  0  0
  1 30  2  0  0  0
  1 86  1  0  0  0
  2  3  1  0  0  0
  2 25  1  0  0  0
  2 87  1  0  0  0
  2 88  1  0  0  0
  3  4  1  0  0  0
  3 89  1  0  0  0
  3 90  1  0  0  0
  4  5  1  0  0  0
  4 91  1  0  0  0
  4 92  1  0  0  0
  5  6  1  0  0  0
  5 26  1  0  0  0
  5 93  1  0  0  0
  6 25  1  0  0  0
  6 94  1  0  0  0
  6 95  1  0  0  0
  7  8  2  0  0  0
  7 26  1  0  0  0
  7 29  1  0  0  0
  8  9  1  0  0  0
  8 22  1  0  0  0
  9 10  1  0  0  0
  9 27  2  0  0  0
 10 11  2  0  0  0
 10 15  1  0  0  0
 11 12  1  0  0  0
 11 96  1  0  0  0
 12 13  2  0  0  0
 12 97  1  0  0  0
 13 14  1  0  0  0
 13 31  1  0  0  0
 14 15  2  0  0  0
 14 98  1  0  0  0
 15 99  1  0  0  0
 16 17  2  0  0  0
 16 21  1  0  0  0
 16 31  1  0  0  0
 17 18  1  0  0  0
 17100  1  0  0  0
 18 19  2  0  0  0
 18101  1  0  0  0
 19 20  1  0  0  0
 19 24  1  0  0  0
 20 21  2  0  0  0
 20102  1  0  0  0
 21 23  1  0  0  0
 22 28  1  0  0  0
 22 32  2  0  0  0
 26 27  1  0  0  0
 28103  1  0  0  0
 28104  1  0  0  0
 29105  1  0  0  0
 29106  1  0  0  0
 33 34  1  0  0  0
 33 66  1  0  0  0
 33 70  2  0  0  0
 34 36  1  0  0  0
 34 59  1  0  0  0
 34107  1  0  0  0
 35 44  2  0  0  0
 35 45  1  0  0  0
 35 68  1  0  0  0
 36 56  1  0  0  0
 36108  1  0  0  0
 37 39  1  0  0  0
 37 47  1  0  0  0
 37 66  1  0  0  0
 37109  1  0  0  0
 38 43  2  0  0  0
 38 46  1  0  0  0
 38 47  1  0  0  0
 39 64  1  0  0  0
 39 67  2  0  0  0
 40 52  1  0  0  0
 40 53  2  0  0  0
 40 58  1  0  0  0
 41110  1  0  0  0
 41111  1  0  0  0
 41112  1  0  0  0
 41 48  1  0  0  0
 42 43  1  0  0  0
 42 66  1  0  0  0
 42113  1  0  0  0
 42114  1  0  0  0
 43 44  1  0  0  0
 44115  1  0  0  0
 45 46  2  0  0  0
 45116  1  0  0  0
 46117  1  0  0  0
 47118  1  0  0  0
 47119  1  0  0  0
 48 56  1  0  0  0
 48 65  1  0  0  0
 48120  1  0  0  0
 49 50  1  0  0  0
 49 53  1  0  0  0
 49 64  1  0  0  0
 49121  1  0  0  0
 50 51  1  0  0  0
 50122  1  0  0  0
 50123  1  0  0  0
 51 52  1  0  0  0
 51124  1  0  0  0
 51125  1  0  0  0
 52126  1  0  0  0
 52127  1  0  0  0
 53 54  1  0  0  0
 54 55  2  0  0  0
 54128  1  0  0  0
 55 57  1  0  0  0
 55129  1  0  0  0
 56 69  2  0  0  0
 57 58  2  0  0  0
 57130  1  0  0  0
 58131  1  0  0  0
 59 60  1  0  0  0
 59 61  1  0  0  0
 59 62  1  0  0  0
 60132  1  0  0  0
 60133  1  0  0  0
 60134  1  0  0  0
 61135  1  0  0  0
 61136  1  0  0  0
 61137  1  0  0  0
 62138  1  0  0  0
 62139  1  0  0  0
 62140  1  0  0  0
 63 65  1  0  0  0
 63141  1  0  0  0
 63142  1  0  0  0
 63143  1  0  0  0
 64144  1  0  0  0
 65145  1  0  0  0
 68 83  1  0  0  0
 71 72  1  0  0  0
 71 73  2  0  0  0
 71146  1  0  0  0
 72 74  2  0  0  0
 72147  1  0  0  0
 73 78  1  0  0  0
 73 85  1  0  0  0
 74 84  1  0  0  0
 74 85  1  0  0  0
 75148  1  0  0  0
 75149  1  0  0  0
 75150  1  0  0  0
 75 84  1  0  0  0
 76 84  1  0  0  0
 76151  1  0  0  0
 76152  1  0  0  0
 76153  1  0  0  0
 77 84  1  0  0  0
 77154  1  0  0  0
 77155  1  0  0  0
 77156  1  0  0  0
 78 79  1  0  0  0
 78157  1  0  0  0
 78158  1  0  0  0
 79 83  1  0  0  0
 79159  1  0  0  0
 79160  1  0  0  0
 80 81  1  0  0  0
 80 82  1  0  0  0
 80161  1  0  0  0
 80162  1  0  0  0
 81 85  1  0  0  0
 81163  1  0  0  0
 81164  1  0  0  0
 82 86  1  0  0  0
 82165  1  0  0  0
 82166  1  0  0  0
 83167  1  0  0  0
 83168  1  0  0  0
 86169  1  0  0  0
M  ISO  4   1 100  68 101  83 101  86 100
M  END
> <chiral flag>
0

> <version>
0

> <s_m_source_file>
/data/baiqing/PycharmProjects/Reinvent-master-3.2/result/LINK_invent/BTK/process_docking_weight1_custom_sum_contain_oxygen_bond_distance_aromatic_linkinvent_7_9_3/rearranged_h_0087.sdf

> <i_m_source_file_index>
44

> <r_mmod_Potential_Energy-OPLS-2005>
51.9288864135742

> <r_mmod_Stretch_Energy-OPLS-2005>
76.2552490234375

> <r_mmod_Bend_Energy-OPLS-2005>
173.900817871094

> <r_mmod_Torsional_Energy-OPLS-2005>
258.805236816406

> <r_mmod_Improper_Torsional_Energy-OPLS-2005>
5.62320613861084

> <r_mmod_Van_der_Waal_Energy-OPLS-2005>
136.187393188477

> <r_mmod_Electrostatic_Energy-OPLS-2005>
-425.523773193359

> <r_mmod_Solvation_Energy-OPLS-2005>
-205.123596191406

> <b_mmod_Minimization_Converged-OPLS-2005>
0

> <r_mmod_RMS_Derivative-OPLS-2005>
3.50119662284851

$$$$
45
                    3D
 Structure written by MMmdl.
174182  0  0  1  0            999 V2000
  -30.6089  -14.6787   20.4625 C   0  0  0  0  0  0
  -30.4380  -12.4094   19.4467 C   0  0  0  0  0  0
  -29.5065  -12.4870   18.2177 C   0  0  0  0  0  0
  -28.0250  -12.3397   18.6250 C   0  0  0  0  0  0
  -27.6434  -13.2257   19.8422 C   0  0  2  0  0  0
  -28.6882  -13.1081   20.9713 C   0  0  0  0  0  0
  -25.2560  -13.8228   20.5683 C   0  0  0  0  0  0
  -24.1852  -13.0441   20.9275 C   0  0  0  0  0  0
  -24.6467  -11.6933   20.8799 C   0  0  0  0  0  0
  -23.9145  -10.4294   21.0449 C   0  0  0  0  0  0
  -24.3683   -9.4201   21.9214 C   0  0  0  0  0  0
  -23.6340   -8.2239   22.0770 C   0  0  0  0  0  0
  -22.4301   -8.0304   21.3576 C   0  0  0  0  0  0
  -21.9974   -9.0284   20.4673 C   0  0  0  0  0  0
  -22.7330  -10.2153   20.3077 C   0  0  0  0  0  0
  -21.6835   -6.0769   22.5313 C   0  0  0  0  0  0
  -21.3996   -6.5669   23.8249 C   0  0  0  0  0  0
  -21.3653   -5.6811   24.9225 C   0  0  0  0  0  0
  -21.6026   -4.3073   24.7259 C   0  0  0  0  0  0
  -21.8828   -3.8174   23.4380 C   0  0  0  0  0  0
  -21.9208   -4.7004   22.3442 C   0  0  0  0  0  0
  -22.7865  -13.5257   21.1852 C   0  0  0  0  0  0
  -22.1658   -4.2204   21.1020 F   0  0  0  0  0  0
  -21.5642   -3.4544   25.7769 F   0  0  0  0  0  0
  -29.9950  -13.4521   20.3964 N   0  0  0  0  0  0
  -26.2961  -12.9383   20.3213 N   0  0  0  0  0  0
  -25.9378  -11.6546   20.5761 N   0  0  0  0  0  0
  -22.0452  -12.8251   22.0405 N   0  0  0  0  0  0
  -25.4259  -15.1932   20.4069 N   0  0  0  0  0  0
  -31.8138  -14.7882   20.2175 O   0  0  0  0  0  0
  -21.6643   -6.8909   21.4262 O   0  0  0  0  0  0
  -22.3575  -14.5545   20.6705 O   0  0  0  0  0  0
  -24.6353  -31.8524   23.2007 C   0  0  0  0  0  0
  -25.9152  -32.4763   23.8349 C   0  0  1  0  0  0
  -27.2160  -27.2714   20.1591 C   0  0  0  0  0  0
  -25.5921  -33.8579   24.2256 N   0  0  0  0  0  0
  -23.4321  -30.4735   21.5417 C   0  0  2  0  0  0
  -24.8740  -28.9146   20.1135 C   0  0  0  0  0  0
  -22.7496  -29.4635   22.4950 C   0  0  0  0  0  0
  -18.0296  -28.1405   22.8449 C   0  0  0  0  0  0
  -24.1489  -36.7313   23.2651 C   0  0  0  0  0  0
  -25.9716  -30.7710   21.3711 C   0  0  0  0  0  0
  -26.0415  -29.3909   20.7240 C   0  0  0  0  0  0
  -27.2180  -28.5813   20.7342 C   0  0  0  0  0  0
  -26.0314  -26.8540   19.5151 C   0  0  0  0  0  0
  -24.8693  -27.6502   19.5038 C   0  0  0  0  0  0
  -23.6446  -29.7993   20.1595 C   0  0  0  0  0  0
  -25.4114  -36.3102   24.0317 C   0  0  1  0  0  0
  -20.5898  -28.3695   23.1264 C   0  0  2  0  0  0
  -20.6791  -26.9415   22.5404 C   0  0  0  0  0  0
  -19.5758  -26.6383   21.5217 C   0  0  0  0  0  0
  -18.1925  -26.7943   22.1601 C   0  0  0  0  0  0
  -19.1559  -28.8855   23.2849 C   0  0  0  0  0  0
  -18.9476  -30.1443   23.8854 C   0  0  0  0  0  0
  -17.6475  -30.6586   24.0547 C   0  0  0  0  0  0
  -25.9061  -34.9448   23.5091 C   0  0  0  0  0  0
  -16.5360  -29.9069   23.6353 C   0  0  0  0  0  0
  -16.7289  -28.6512   23.0341 C   0  0  0  0  0  0
  -26.4500  -31.6632   25.0769 C   0  0  0  0  0  0
  -25.3734  -31.3686   26.1508 C   0  0  0  0  0  0
  -27.0394  -30.3085   24.6258 C   0  0  0  0  0  0
  -27.6080  -32.4377   25.7479 C   0  0  0  0  0  0
  -27.5570  -37.1805   24.8465 C   0  0  0  0  0  0
  -21.4209  -29.3041   22.3650 N   0  0  0  0  0  0
  -26.4285  -37.3784   23.9403 N   0  0  0  0  0  0
  -24.6993  -31.0517   22.0951 N   0  0  0  0  0  0
  -23.4170  -28.8184   23.3079 O   0  0  0  0  0  0
  -28.3107  -26.3912   20.1984 O   0  0  0  0  0  0
  -26.5653  -34.8899   22.4681 O   0  0  0  0  0  0
  -23.5483  -32.1353   23.7288 O   0  0  0  0  0  0
  -28.3255  -22.3898   22.3802 C   0  0  0  0  0  0
  -29.0280  -21.0078   20.5278 C   0  0  0  0  0  0
  -28.7470  -22.3441   21.0427 C   0  0  0  0  0  0
  -28.2777  -21.2465   23.1964 C   0  0  0  0  0  0
  -28.9537  -19.7806   21.3128 C   0  0  0  0  0  0
  -28.6607  -19.9489   22.7141 C   0  0  0  0  0  0
  -27.7678  -21.4916   24.6235 C   0  0  0  0  0  0
  -30.1613  -19.0496   24.5228 C   0  0  0  0  0  0
  -28.6165  -17.3565   23.5299 C   0  0  0  0  0  0
  -30.7259  -17.5504   19.0613 C   0  0  0  0  0  0
  -30.3957  -24.1057   20.3178 C   0  0  0  0  0  0
  -28.4770  -23.5738   18.7971 C   0  0  0  0  0  0
  -28.9058  -18.3389   20.6147 C   0  0  0  0  0  0
  -28.1111  -25.0437   20.8197 C   0  0  0  0  0  0
  -28.8058  -18.8592   23.8147 C   0  0  0  0  0  0
  -30.1235  -17.2864   20.4558 C   0  0  1  0  0  0
  -28.9026  -23.7401   20.2626 C   0  0  0  0  0  0
  -29.7934  -15.7913   20.5676 N   0  0  0  0  0  0
  -31.4698  -12.5570   19.1263 H   0  0  0  0  0  0
  -30.4025  -11.4174   19.9027 H   0  0  0  0  0  0
  -29.7661  -11.7130   17.4958 H   0  0  0  0  0  0
  -29.6570  -13.4414   17.7093 H   0  0  0  0  0  0
  -27.8507  -11.2876   18.8544 H   0  0  0  0  0  0
  -27.3806  -12.5698   17.7762 H   0  0  0  0  0  0
  -27.6470  -14.2564   19.4882 H   0  0  0  0  0  0
  -28.6995  -12.0944   21.3738 H   0  0  0  0  0  0
  -28.4393  -13.7650   21.8027 H   0  0  0  0  0  0
  -25.2824   -9.5667   22.4814 H   0  0  0  0  0  0
  -24.0048   -7.4620   22.7479 H   0  0  0  0  0  0
  -21.0894   -8.8831   19.8976 H   0  0  0  0  0  0
  -22.3793  -10.9711   19.6199 H   0  0  0  0  0  0
  -21.1930   -7.6166   23.9790 H   0  0  0  0  0  0
  -21.1451   -6.0528   25.9134 H   0  0  0  0  0  0
  -22.0601   -2.7639   23.2883 H   0  0  0  0  0  0
  -22.4034  -11.9913   22.4815 H   0  0  0  0  0  0
  -21.1076  -13.1330   22.2515 H   0  0  0  0  0  0
  -24.6580  -15.8430   20.5403 H   0  0  0  0  0  0
  -26.2569  -15.6297   20.0238 H   0  0  0  0  0  0
  -26.7207  -32.5366   23.1068 H   0  0  0  0  0  0
  -25.0053  -33.9687   25.0399 H   0  0  0  0  0  0
  -22.7352  -31.2996   21.3913 H   0  0  0  0  0  0
  -23.3754  -35.9655   23.3345 H   0  0  0  0  0  0
  -24.3581  -36.8934   22.2068 H   0  0  0  0  0  0
  -23.7226  -37.6497   23.6696 H   0  0  0  0  0  0
  -26.1084  -31.5187   20.5883 H   0  0  0  0  0  0
  -26.8570  -30.8223   21.9954 H   0  0  0  0  0  0
  -28.1141  -28.9299   21.2246 H   0  0  0  0  0  0
  -25.9973  -25.8813   19.0443 H   0  0  0  0  0  0
  -23.9667  -27.2669   19.0465 H   0  0  0  0  0  0
  -23.7679  -30.5699   19.3948 H   0  0  0  0  0  0
  -22.7625  -29.2287   19.8650 H   0  0  0  0  0  0
  -25.1293  -36.1956   25.0796 H   0  0  0  0  0  0
  -20.9967  -28.3269   24.1405 H   0  0  0  0  0  0
  -20.5715  -26.2274   23.3606 H   0  0  0  0  0  0
  -21.6635  -26.7447   22.1156 H   0  0  0  0  0  0
  -19.6917  -25.6305   21.1224 H   0  0  0  0  0  0
  -19.6735  -27.3195   20.6762 H   0  0  0  0  0  0
  -17.4211  -26.6713   21.4005 H   0  0  0  0  0  0
  -18.0296  -26.0133   22.9017 H   0  0  0  0  0  0
  -19.7948  -30.7279   24.2231 H   0  0  0  0  0  0
  -17.5027  -31.6282   24.5128 H   0  0  0  0  0  0
  -15.5344  -30.2923   23.7760 H   0  0  0  0  0  0
  -15.8691  -28.0810   22.7074 H   0  0  0  0  0  0
  -24.5904  -30.7061   25.7785 H   0  0  0  0  0  0
  -24.8928  -32.2815   26.5045 H   0  0  0  0  0  0
  -25.8042  -30.8752   27.0235 H   0  0  0  0  0  0
  -26.2987  -29.6773   24.1342 H   0  0  0  0  0  0
  -27.4181  -29.7389   25.4745 H   0  0  0  0  0  0
  -27.8786  -30.4431   23.9441 H   0  0  0  0  0  0
  -27.2757  -33.3690   26.2047 H   0  0  0  0  0  0
  -28.3836  -32.6917   25.0256 H   0  0  0  0  0  0
  -28.0849  -31.8545   26.5370 H   0  0  0  0  0  0
  -28.2604  -38.0088   24.7524 H   0  0  0  0  0  0
  -28.1024  -36.2619   24.6273 H   0  0  0  0  0  0
  -27.2290  -37.1435   25.8863 H   0  0  0  0  0  0
  -20.9424  -29.8712   21.6775 H   0  0  0  0  0  0
  -26.0187  -38.2845   24.1423 H   0  0  0  0  0  0
  -28.0556  -23.3327   22.8296 H   0  0  0  0  0  0
  -29.2811  -20.9044   19.4801 H   0  0  0  0  0  0
  -27.5979  -22.5488   24.8283 H   0  0  0  0  0  0
  -28.4634  -21.1496   25.3866 H   0  0  0  0  0  0
  -26.8093  -20.9937   24.7837 H   0  0  0  0  0  0
  -30.3471  -20.0913   24.7799 H   0  0  0  0  0  0
  -30.9964  -18.7364   23.8943 H   0  0  0  0  0  0
  -30.1953  -18.4731   25.4468 H   0  0  0  0  0  0
  -27.6897  -17.1131   23.0116 H   0  0  0  0  0  0
  -28.5645  -16.8165   24.4800 H   0  0  0  0  0  0
  -29.4700  -16.9305   23.0064 H   0  0  0  0  0  0
  -30.9452  -18.6107   18.9335 H   0  0  0  0  0  0
  -30.0201  -17.2763   18.2733 H   0  0  0  0  0  0
  -31.6452  -16.9889   18.8960 H   0  0  0  0  0  0
  -30.6027  -25.0375   19.7891 H   0  0  0  0  0  0
  -31.0056  -23.3190   19.8719 H   0  0  0  0  0  0
  -30.7318  -24.2287   21.3494 H   0  0  0  0  0  0
  -27.4586  -23.1937   18.7155 H   0  0  0  0  0  0
  -29.1485  -22.9027   18.2615 H   0  0  0  0  0  0
  -28.5033  -24.5309   18.2782 H   0  0  0  0  0  0
  -28.5480  -18.5478   19.6057 H   0  0  0  0  0  0
  -28.0574  -17.8139   21.0417 H   0  0  0  0  0  0
  -28.4228  -25.2014   21.8504 H   0  0  0  0  0  0
  -27.0503  -24.7958   20.8778 H   0  0  0  0  0  0
  -28.0031  -19.0539   24.5230 H   0  0  0  0  0  0
  -30.8943  -17.4863   21.2005 H   0  0  0  0  0  0
  -28.8202  -15.5506   20.6748 H   0  0  0  0  0  0
  1 25  1  0  0  0
  1 30  2  0  0  0
  1 88  1  0  0  0
  2  3  1  0  0  0
  2 25  1  0  0  0
  2 89  1  0  0  0
  2 90  1  0  0  0
  3  4  1  0  0  0
  3 91  1  0  0  0
  3 92  1  0  0  0
  4  5  1  0  0  0
  4 93  1  0  0  0
  4 94  1  0  0  0
  5  6  1  0  0  0
  5 26  1  0  0  0
  5 95  1  0  0  0
  6 25  1  0  0  0
  6 96  1  0  0  0
  6 97  1  0  0  0
  7  8  2  0  0  0
  7 26  1  0  0  0
  7 29  1  0  0  0
  8  9  1  0  0  0
  8 22  1  0  0  0
  9 10  1  0  0  0
  9 27  2  0  0  0
 10 11  2  0  0  0
 10 15  1  0  0  0
 11 12  1  0  0  0
 11 98  1  0  0  0
 12 13  2  0  0  0
 12 99  1  0  0  0
 13 14  1  0  0  0
 13 31  1  0  0  0
 14 15  2  0  0  0
 14100  1  0  0  0
 15101  1  0  0  0
 16 17  2  0  0  0
 16 21  1  0  0  0
 16 31  1  0  0  0
 17 18  1  0  0  0
 17102  1  0  0  0
 18 19  2  0  0  0
 18103  1  0  0  0
 19 20  1  0  0  0
 19 24  1  0  0  0
 20 21  2  0  0  0
 20104  1  0  0  0
 21 23  1  0  0  0
 22 28  1  0  0  0
 22 32  2  0  0  0
 26 27  1  0  0  0
 28105  1  0  0  0
 28106  1  0  0  0
 29107  1  0  0  0
 29108  1  0  0  0
 33 34  1  0  0  0
 33 66  1  0  0  0
 33 70  2  0  0  0
 34 36  1  0  0  0
 34 59  1  0  0  0
 34109  1  0  0  0
 35 44  2  0  0  0
 35 45  1  0  0  0
 35 68  1  0  0  0
 36 56  1  0  0  0
 36110  1  0  0  0
 37 39  1  0  0  0
 37 47  1  0  0  0
 37 66  1  0  0  0
 37111  1  0  0  0
 38 43  2  0  0  0
 38 46  1  0  0  0
 38 47  1  0  0  0
 39 64  1  0  0  0
 39 67  2  0  0  0
 40 52  1  0  0  0
 40 53  2  0  0  0
 40 58  1  0  0  0
 41112  1  0  0  0
 41113  1  0  0  0
 41114  1  0  0  0
 41 48  1  0  0  0
 42 43  1  0  0  0
 42 66  1  0  0  0
 42115  1  0  0  0
 42116  1  0  0  0
 43 44  1  0  0  0
 44117  1  0  0  0
 45 46  2  0  0  0
 45118  1  0  0  0
 46119  1  0  0  0
 47120  1  0  0  0
 47121  1  0  0  0
 48 56  1  0  0  0
 48 65  1  0  0  0
 48122  1  0  0  0
 49 50  1  0  0  0
 49 53  1  0  0  0
 49 64  1  0  0  0
 49123  1  0  0  0
 50 51  1  0  0  0
 50124  1  0  0  0
 50125  1  0  0  0
 51 52  1  0  0  0
 51126  1  0  0  0
 51127  1  0  0  0
 52128  1  0  0  0
 52129  1  0  0  0
 53 54  1  0  0  0
 54 55  2  0  0  0
 54130  1  0  0  0
 55 57  1  0  0  0
 55131  1  0  0  0
 56 69  2  0  0  0
 57 58  2  0  0  0
 57132  1  0  0  0
 58133  1  0  0  0
 59 60  1  0  0  0
 59 61  1  0  0  0
 59 62  1  0  0  0
 60134  1  0  0  0
 60135  1  0  0  0
 60136  1  0  0  0
 61137  1  0  0  0
 61138  1  0  0  0
 61139  1  0  0  0
 62140  1  0  0  0
 62141  1  0  0  0
 62142  1  0  0  0
 63 65  1  0  0  0
 63143  1  0  0  0
 63144  1  0  0  0
 63145  1  0  0  0
 64146  1  0  0  0
 65147  1  0  0  0
 68 84  1  0  0  0
 71 73  2  0  0  0
 71 74  1  0  0  0
 71148  1  0  0  0
 72 73  1  0  0  0
 72 75  2  0  0  0
 72149  1  0  0  0
 73 87  1  0  0  0
 74 76  2  0  0  0
 74 77  1  0  0  0
 75 76  1  0  0  0
 75 83  1  0  0  0
 76 85  1  0  0  0
 77150  1  0  0  0
 77151  1  0  0  0
 77152  1  0  0  0
 78153  1  0  0  0
 78154  1  0  0  0
 78155  1  0  0  0
 78 85  1  0  0  0
 79 85  1  0  0  0
 79156  1  0  0  0
 79157  1  0  0  0
 79158  1  0  0  0
 80159  1  0  0  0
 80160  1  0  0  0
 80161  1  0  0  0
 80 86  1  0  0  0
 81162  1  0  0  0
 81163  1  0  0  0
 81164  1  0  0  0
 81 87  1  0  0  0
 82 87  1  0  0  0
 82165  1  0  0  0
 82166  1  0  0  0
 82167  1  0  0  0
 83 86  1  0  0  0
 83168  1  0  0  0
 83169  1  0  0  0
 84 87  1  0  0  0
 84170  1  0  0  0
 84171  1  0  0  0
 85172  1  0  0  0
 86 88  1  0  0  0
 86173  1  0  0  0
 88174  1  0  0  0
M  ISO  4   1 100  68 101  84 101  88 100
M  END
> <chiral flag>
0

> <version>
0

> <s_m_source_file>
/data/baiqing/PycharmProjects/Reinvent-master-3.2/result/LINK_invent/BTK/process_docking_weight1_custom_sum_contain_oxygen_bond_distance_aromatic_linkinvent_7_9_3/rearranged_h_0087.sdf

> <i_m_source_file_index>
45

> <r_mmod_Potential_Energy-OPLS-2005>
221.885299682617

> <r_mmod_Stretch_Energy-OPLS-2005>
130.788803100586

> <r_mmod_Bend_Energy-OPLS-2005>
197.915924072266

> <r_mmod_Torsional_Energy-OPLS-2005>
260.493225097656

> <r_mmod_Improper_Torsional_Energy-OPLS-2005>
7.5337061882019

> <r_mmod_Van_der_Waal_Energy-OPLS-2005>
146.282302856445

> <r_mmod_Electrostatic_Energy-OPLS-2005>
-401.852325439453

> <r_mmod_Solvation_Energy-OPLS-2005>
-190.41911315918

> <b_mmod_Minimization_Converged-OPLS-2005>
0

> <r_mmod_RMS_Derivative-OPLS-2005>
7.26370477676392

$$$$
46
                    3D
 Structure written by MMmdl.
175183  0  0  1  0            999 V2000
  -30.6558  -14.5419   20.5358 C   0  0  0  0  0  0
  -30.4416  -12.3415   19.4345 C   0  0  0  0  0  0
  -29.5209  -12.5345   18.2115 C   0  0  0  0  0  0
  -28.0310  -12.3992   18.6006 C   0  0  0  0  0  0
  -27.6619  -13.2183   19.8703 C   0  0  2  0  0  0
  -28.7054  -13.0100   20.9889 C   0  0  0  0  0  0
  -25.2605  -13.8187   20.5723 C   0  0  0  0  0  0
  -24.1896  -13.0436   20.9258 C   0  0  0  0  0  0
  -24.6444  -11.6903   20.8715 C   0  0  0  0  0  0
  -23.9096  -10.4291   21.0344 C   0  0  0  0  0  0
  -24.3645   -9.4211   21.9125 C   0  0  0  0  0  0
  -23.6332   -8.2242   22.0694 C   0  0  0  0  0  0
  -22.4281   -8.0284   21.3531 C   0  0  0  0  0  0
  -21.9926   -9.0243   20.4592 C   0  0  0  0  0  0
  -22.7258  -10.2130   20.3000 C   0  0  0  0  0  0
  -21.6857   -6.0765   22.5296 C   0  0  0  0  0  0
  -21.4010   -6.5650   23.8244 C   0  0  0  0  0  0
  -21.3679   -5.6790   24.9196 C   0  0  0  0  0  0
  -21.6049   -4.3053   24.7201 C   0  0  0  0  0  0
  -21.8821   -3.8162   23.4315 C   0  0  0  0  0  0
  -21.9202   -4.6998   22.3403 C   0  0  0  0  0  0
  -22.7914  -13.5213   21.1899 C   0  0  0  0  0  0
  -22.1664   -4.2201   21.0961 F   0  0  0  0  0  0
  -21.5642   -3.4511   25.7713 F   0  0  0  0  0  0
  -30.0295  -13.3355   20.4353 N   0  0  0  0  0  0
  -26.3045  -12.9363   20.3330 N   0  0  0  0  0  0
  -25.9373  -11.6511   20.5697 N   0  0  0  0  0  0
  -22.0565  -12.8162   22.0438 N   0  0  0  0  0  0
  -25.4228  -15.1920   20.4115 N   0  0  0  0  0  0
  -31.8163  -14.7279   20.1588 O   0  0  0  0  0  0
  -21.6644   -6.8885   21.4239 O   0  0  0  0  0  0
  -22.3584  -14.5505   20.6720 O   0  0  0  0  0  0
  -24.6179  -31.8597   23.1983 C   0  0  0  0  0  0
  -25.9066  -32.4758   23.8280 C   0  0  1  0  0  0
  -27.2173  -27.3718   20.1268 C   0  0  0  0  0  0
  -25.5882  -33.8556   24.2221 N   0  0  0  0  0  0
  -23.4087  -30.4839   21.5364 C   0  0  2  0  0  0
  -24.8571  -28.9428   20.1049 C   0  0  0  0  0  0
  -22.7427  -29.4649   22.4901 C   0  0  0  0  0  0
  -18.0276  -28.1413   22.8466 C   0  0  0  0  0  0
  -24.1509  -36.7324   23.2644 C   0  0  0  0  0  0
  -25.9470  -30.8076   21.3630 C   0  0  0  0  0  0
  -26.0197  -29.4415   20.7066 C   0  0  0  0  0  0
  -27.2073  -28.6665   20.7079 C   0  0  0  0  0  0
  -26.0445  -26.9028   19.5022 C   0  0  0  0  0  0
  -24.8701  -27.6772   19.4910 C   0  0  0  0  0  0
  -23.6176  -29.8091   20.1543 C   0  0  0  0  0  0
  -25.4126  -36.3074   24.0321 C   0  0  1  0  0  0
  -20.5869  -28.3700   23.1291 C   0  0  2  0  0  0
  -20.6773  -26.9422   22.5418 C   0  0  0  0  0  0
  -19.5753  -26.6392   21.5230 C   0  0  0  0  0  0
  -18.1929  -26.7950   22.1621 C   0  0  0  0  0  0
  -19.1522  -28.8865   23.2877 C   0  0  0  0  0  0
  -18.9445  -30.1470   23.8886 C   0  0  0  0  0  0
  -17.6446  -30.6598   24.0585 C   0  0  0  0  0  0
  -25.9055  -34.9450   23.5073 C   0  0  0  0  0  0
  -16.5345  -29.9106   23.6343 C   0  0  0  0  0  0
  -16.7262  -28.6545   23.0330 C   0  0  0  0  0  0
  -26.4466  -31.6552   25.0638 C   0  0  0  0  0  0
  -25.3717  -31.3682   26.1379 C   0  0  0  0  0  0
  -27.0315  -30.2984   24.6095 C   0  0  0  0  0  0
  -27.6022  -32.4296   25.7418 C   0  0  0  0  0  0
  -27.5587  -37.1805   24.8456 C   0  0  0  0  0  0
  -21.4144  -29.3058   22.3679 N   0  0  0  0  0  0
  -26.4304  -37.3759   23.9387 N   0  0  0  0  0  0
  -24.6752  -31.0672   22.0871 N   0  0  0  0  0  0
  -23.4200  -28.8181   23.2939 O   0  0  0  0  0  0
  -28.3258  -26.5440   20.1737 O   0  0  0  0  0  0
  -26.5655  -34.8925   22.4680 O   0  0  0  0  0  0
  -23.5367  -32.1355   23.7348 O   0  0  0  0  0  0
  -29.3787  -20.6425   20.5338 C   0  0  0  0  0  0
  -28.9948  -19.3141   20.6752 C   0  0  0  0  0  0
  -27.7317  -20.5953   22.0161 C   0  0  0  0  0  0
  -30.1226  -18.1671   18.7305 C   0  0  0  0  0  0
  -27.8871  -19.0549   25.0591 C   0  0  0  0  0  0
  -26.6366  -17.2704   23.7917 C   0  0  0  0  0  0
  -25.5903  -18.4099   25.7340 C   0  0  0  0  0  0
  -26.7004  -20.9097   23.0622 C   0  0  0  0  0  0
  -25.8505  -19.7078   23.5794 C   0  0  0  0  0  0
  -28.4870  -23.9636   20.5363 C   0  0  0  0  0  0
  -28.6847  -22.8940   21.6766 C   0  0  0  0  0  0
  -30.1804  -17.0170   21.0279 C   0  0  0  0  0  0
  -28.2122  -25.4136   21.0929 C   0  0  0  0  0  0
  -29.3876  -17.9682   20.0626 C   0  0  1  0  0  0
  -26.5078  -18.6320   24.5143 C   0  0  0  0  0  0
  -28.5853  -21.4211   21.3674 N   0  0  0  0  0  0
  -27.9727  -19.3596   21.5791 N   0  3  0  0  0  0
  -29.8569  -15.5721   20.8954 N   0  0  0  0  0  0
  -31.4861  -12.4574   19.1416 H   0  0  0  0  0  0
  -30.3594  -11.3314   19.8383 H   0  0  0  0  0  0
  -29.7756  -11.8241   17.4226 H   0  0  0  0  0  0
  -29.7014  -13.5260   17.7944 H   0  0  0  0  0  0
  -27.8185  -11.3422   18.7531 H   0  0  0  0  0  0
  -27.4023  -12.7167   17.7670 H   0  0  0  0  0  0
  -27.6886  -14.2676   19.5787 H   0  0  0  0  0  0
  -28.6933  -11.9719   21.3215 H   0  0  0  0  0  0
  -28.4692  -13.6089   21.8707 H   0  0  0  0  0  0
  -25.2785   -9.5739   22.4690 H   0  0  0  0  0  0
  -24.0107   -7.4619   22.7351 H   0  0  0  0  0  0
  -21.0905   -8.8709   19.8865 H   0  0  0  0  0  0
  -22.3678  -10.9659   19.6110 H   0  0  0  0  0  0
  -21.1962   -7.6154   23.9776 H   0  0  0  0  0  0
  -21.1524   -6.0493   25.9126 H   0  0  0  0  0  0
  -22.0579   -2.7621   23.2786 H   0  0  0  0  0  0
  -22.4180  -11.9861   22.4899 H   0  0  0  0  0  0
  -21.1136  -13.1078   22.2499 H   0  0  0  0  0  0
  -24.6214  -15.8087   20.4679 H   0  0  0  0  0  0
  -26.2316  -15.6299   19.9920 H   0  0  0  0  0  0
  -26.7128  -32.5429   23.1017 H   0  0  0  0  0  0
  -24.9968  -33.9698   25.0318 H   0  0  0  0  0  0
  -22.6998  -31.3014   21.3870 H   0  0  0  0  0  0
  -23.3746  -35.9682   23.3298 H   0  0  0  0  0  0
  -24.3599  -36.8958   22.2054 H   0  0  0  0  0  0
  -23.7301  -37.6550   23.6681 H   0  0  0  0  0  0
  -26.0955  -31.5699   20.5950 H   0  0  0  0  0  0
  -26.8247  -30.8408   21.9983 H   0  0  0  0  0  0
  -28.1008  -29.0363   21.1894 H   0  0  0  0  0  0
  -26.0352  -25.9213   19.0485 H   0  0  0  0  0  0
  -23.9767  -27.2864   19.0231 H   0  0  0  0  0  0
  -23.7171  -30.5751   19.3841 H   0  0  0  0  0  0
  -22.7421  -29.2199   19.8696 H   0  0  0  0  0  0
  -25.1314  -36.1921   25.0807 H   0  0  0  0  0  0
  -20.9963  -28.3285   24.1414 H   0  0  0  0  0  0
  -20.5688  -26.2303   23.3614 H   0  0  0  0  0  0
  -21.6634  -26.7482   22.1180 H   0  0  0  0  0  0
  -19.6920  -25.6306   21.1245 H   0  0  0  0  0  0
  -19.6698  -27.3200   20.6762 H   0  0  0  0  0  0
  -17.4195  -26.6681   21.4035 H   0  0  0  0  0  0
  -18.0326  -26.0129   22.9029 H   0  0  0  0  0  0
  -19.7929  -30.7304   24.2228 H   0  0  0  0  0  0
  -17.5016  -31.6272   24.5202 H   0  0  0  0  0  0
  -15.5348  -30.3018   23.7692 H   0  0  0  0  0  0
  -15.8664  -28.0901   22.7017 H   0  0  0  0  0  0
  -24.5877  -30.7047   25.7710 H   0  0  0  0  0  0
  -24.8936  -32.2846   26.4840 H   0  0  0  0  0  0
  -25.8040  -30.8818   27.0132 H   0  0  0  0  0  0
  -26.2865  -29.6697   24.1201 H   0  0  0  0  0  0
  -27.4116  -29.7261   25.4572 H   0  0  0  0  0  0
  -27.8687  -30.4266   23.9234 H   0  0  0  0  0  0
  -27.2612  -33.3581   26.2015 H   0  0  0  0  0  0
  -28.3822  -32.6878   25.0238 H   0  0  0  0  0  0
  -28.0718  -31.8411   26.5312 H   0  0  0  0  0  0
  -28.2596  -38.0111   24.7507 H   0  0  0  0  0  0
  -28.1080  -36.2631   24.6265 H   0  0  0  0  0  0
  -27.2296  -37.1456   25.8859 H   0  0  0  0  0  0
  -20.9300  -29.8785   21.6912 H   0  0  0  0  0  0
  -26.0184  -38.2852   24.1337 H   0  0  0  0  0  0
  -30.1534  -21.0812   19.9205 H   0  0  0  0  0  0
  -31.0934  -18.6339   18.8815 H   0  0  0  0  0  0
  -29.5383  -18.8007   18.0606 H   0  0  0  0  0  0
  -30.2901  -17.2190   18.2217 H   0  0  0  0  0  0
  -28.2968  -18.2946   25.7262 H   0  0  0  0  0  0
  -27.8163  -19.9780   25.6373 H   0  0  0  0  0  0
  -28.6265  -19.2042   24.2718 H   0  0  0  0  0  0
  -27.0109  -16.5011   24.4692 H   0  0  0  0  0  0
  -27.3222  -17.2881   22.9488 H   0  0  0  0  0  0
  -25.6731  -16.9152   23.4200 H   0  0  0  0  0  0
  -26.0252  -17.6982   26.4378 H   0  0  0  0  0  0
  -24.6130  -18.0221   25.4439 H   0  0  0  0  0  0
  -25.4258  -19.3394   26.2808 H   0  0  0  0  0  0
  -26.0408  -21.6456   22.5998 H   0  0  0  0  0  0
  -27.2091  -21.4188   23.8792 H   0  0  0  0  0  0
  -25.3497  -19.2208   22.7404 H   0  0  0  0  0  0
  -25.0237  -20.1640   24.1254 H   0  0  0  0  0  0
  -27.6586  -23.6739   19.8894 H   0  0  0  0  0  0
  -29.3789  -23.9802   19.9099 H   0  0  0  0  0  0
  -27.9699  -23.1153   22.4666 H   0  0  0  0  0  0
  -29.6620  -23.0364   22.1392 H   0  0  0  0  0  0
  -29.9369  -17.2803   22.0564 H   0  0  0  0  0  0
  -31.2526  -17.1930   20.9279 H   0  0  0  0  0  0
  -28.9187  -25.6127   21.9013 H   0  0  0  0  0  0
  -27.2335  -25.4040   21.5805 H   0  0  0  0  0  0
  -28.4497  -17.4667   19.8281 H   0  0  0  0  0  0
  -27.4528  -18.5538   21.9028 H   0  0  0  0  0  0
  -28.9025  -15.3140   21.0984 H   0  0  0  0  0  0
  1 25  1  0  0  0
  1 30  2  0  0  0
  1 88  1  0  0  0
  2  3  1  0  0  0
  2 25  1  0  0  0
  2 89  1  0  0  0
  2 90  1  0  0  0
  3  4  1  0  0  0
  3 91  1  0  0  0
  3 92  1  0  0  0
  4  5  1  0  0  0
  4 93  1  0  0  0
  4 94  1  0  0  0
  5  6  1  0  0  0
  5 26  1  0  0  0
  5 95  1  0  0  0
  6 25  1  0  0  0
  6 96  1  0  0  0
  6 97  1  0  0  0
  7  8  2  0  0  0
  7 26  1  0  0  0
  7 29  1  0  0  0
  8  9  1  0  0  0
  8 22  1  0  0  0
  9 10  1  0  0  0
  9 27  2  0  0  0
 10 11  2  0  0  0
 10 15  1  0  0  0
 11 12  1  0  0  0
 11 98  1  0  0  0
 12 13  2  0  0  0
 12 99  1  0  0  0
 13 14  1  0  0  0
 13 31  1  0  0  0
 14 15  2  0  0  0
 14100  1  0  0  0
 15101  1  0  0  0
 16 17  2  0  0  0
 16 21  1  0  0  0
 16 31  1  0  0  0
 17 18  1  0  0  0
 17102  1  0  0  0
 18 19  2  0  0  0
 18103  1  0  0  0
 19 20  1  0  0  0
 19 24  1  0  0  0
 20 21  2  0  0  0
 20104  1  0  0  0
 21 23  1  0  0  0
 22 28  1  0  0  0
 22 32  2  0  0  0
 26 27  1  0  0  0
 28105  1  0  0  0
 28106  1  0  0  0
 29107  1  0  0  0
 29108  1  0  0  0
 33 34  1  0  0  0
 33 66  1  0  0  0
 33 70  2  0  0  0
 34 36  1  0  0  0
 34 59  1  0  0  0
 34109  1  0  0  0
 35 44  2  0  0  0
 35 45  1  0  0  0
 35 68  1  0  0  0
 36 56  1  0  0  0
 36110  1  0  0  0
 37 39  1  0  0  0
 37 47  1  0  0  0
 37 66  1  0  0  0
 37111  1  0  0  0
 38 43  2  0  0  0
 38 46  1  0  0  0
 38 47  1  0  0  0
 39 64  1  0  0  0
 39 67  2  0  0  0
 40 52  1  0  0  0
 40 53  2  0  0  0
 40 58  1  0  0  0
 41112  1  0  0  0
 41113  1  0  0  0
 41114  1  0  0  0
 41 48  1  0  0  0
 42 43  1  0  0  0
 42 66  1  0  0  0
 42115  1  0  0  0
 42116  1  0  0  0
 43 44  1  0  0  0
 44117  1  0  0  0
 45 46  2  0  0  0
 45118  1  0  0  0
 46119  1  0  0  0
 47120  1  0  0  0
 47121  1  0  0  0
 48 56  1  0  0  0
 48 65  1  0  0  0
 48122  1  0  0  0
 49 50  1  0  0  0
 49 53  1  0  0  0
 49 64  1  0  0  0
 49123  1  0  0  0
 50 51  1  0  0  0
 50124  1  0  0  0
 50125  1  0  0  0
 51 52  1  0  0  0
 51126  1  0  0  0
 51127  1  0  0  0
 52128  1  0  0  0
 52129  1  0  0  0
 53 54  1  0  0  0
 54 55  2  0  0  0
 54130  1  0  0  0
 55 57  1  0  0  0
 55131  1  0  0  0
 56 69  2  0  0  0
 57 58  2  0  0  0
 57132  1  0  0  0
 58133  1  0  0  0
 59 60  1  0  0  0
 59 61  1  0  0  0
 59 62  1  0  0  0
 60134  1  0  0  0
 60135  1  0  0  0
 60136  1  0  0  0
 61137  1  0  0  0
 61138  1  0  0  0
 61139  1  0  0  0
 62140  1  0  0  0
 62141  1  0  0  0
 62142  1  0  0  0
 63 65  1  0  0  0
 63143  1  0  0  0
 63144  1  0  0  0
 63145  1  0  0  0
 64146  1  0  0  0
 65147  1  0  0  0
 68 83  1  0  0  0
 71 72  2  0  0  0
 71 86  1  0  0  0
 71148  1  0  0  0
 72 84  1  0  0  0
 72 87  1  0  0  0
 73 78  1  0  0  0
 73 86  1  0  0  0
 73 87  2  0  0  0
 74149  1  0  0  0
 74150  1  0  0  0
 74151  1  0  0  0
 74 84  1  0  0  0
 75152  1  0  0  0
 75153  1  0  0  0
 75154  1  0  0  0
 75 85  1  0  0  0
 76 85  1  0  0  0
 76155  1  0  0  0
 76156  1  0  0  0
 76157  1  0  0  0
 77 85  1  0  0  0
 77158  1  0  0  0
 77159  1  0  0  0
 77160  1  0  0  0
 78 79  1  0  0  0
 78161  1  0  0  0
 78162  1  0  0  0
 79 85  1  0  0  0
 79163  1  0  0  0
 79164  1  0  0  0
 80 81  1  0  0  0
 80 83  1  0  0  0
 80165  1  0  0  0
 80166  1  0  0  0
 81 86  1  0  0  0
 81167  1  0  0  0
 81168  1  0  0  0
 82 84  1  0  0  0
 82 88  1  0  0  0
 82169  1  0  0  0
 82170  1  0  0  0
 83171  1  0  0  0
 83172  1  0  0  0
 84173  1  0  0  0
 87174  1  0  0  0
 88175  1  0  0  0
M  CHG  1  87   1
M  ISO  4   1 100  68 101  83 101  88 100
M  END
> <chiral flag>
0

> <version>
0

> <s_m_source_file>
/data/baiqing/PycharmProjects/Reinvent-master-3.2/result/LINK_invent/BTK/process_docking_weight1_custom_sum_contain_oxygen_bond_distance_aromatic_linkinvent_7_9_3/rearranged_h_0087.sdf

> <i_m_source_file_index>
46

> <r_mmod_Potential_Energy-OPLS-2005>
-45.4326591491699

> <r_mmod_Stretch_Energy-OPLS-2005>
56.7615623474121

> <r_mmod_Bend_Energy-OPLS-2005>
129.853942871094

> <r_mmod_Torsional_Energy-OPLS-2005>
285.498657226562

> <r_mmod_Improper_Torsional_Energy-OPLS-2005>
5.65244245529175

> <r_mmod_Van_der_Waal_Energy-OPLS-2005>
115.785903930664

> <r_mmod_Electrostatic_Energy-OPLS-2005>
-258.762939453125

> <r_mmod_Solvation_Energy-OPLS-2005>
-408.728149414062

> <b_mmod_Minimization_Converged-OPLS-2005>
0

> <r_mmod_RMS_Derivative-OPLS-2005>
4.60256814956665

$$$$
47
                    3D
 Structure written by MMmdl.
166174  0  0  1  0            999 V2000
  -30.6434  -14.5785   20.5152 C   0  0  0  0  0  0
  -30.4332  -12.3635   19.4358 C   0  0  0  0  0  0
  -29.5024  -12.5125   18.2135 C   0  0  0  0  0  0
  -28.0241  -12.3541   18.6241 C   0  0  0  0  0  0
  -27.6529  -13.2122   19.8628 C   0  0  2  0  0  0
  -28.6969  -13.0446   20.9890 C   0  0  0  0  0  0
  -25.2558  -13.8167   20.5691 C   0  0  0  0  0  0
  -24.1820  -13.0446   20.9200 C   0  0  0  0  0  0
  -24.6371  -11.6915   20.8727 C   0  0  0  0  0  0
  -23.9038  -10.4300   21.0388 C   0  0  0  0  0  0
  -24.3595   -9.4214   21.9162 C   0  0  0  0  0  0
  -23.6286   -8.2241   22.0733 C   0  0  0  0  0  0
  -22.4264   -8.0270   21.3534 C   0  0  0  0  0  0
  -21.9891   -9.0241   20.4632 C   0  0  0  0  0  0
  -22.7208  -10.2132   20.3038 C   0  0  0  0  0  0
  -21.6855   -6.0725   22.5273 C   0  0  0  0  0  0
  -21.4014   -6.5629   23.8206 C   0  0  0  0  0  0
  -21.3665   -5.6784   24.9169 C   0  0  0  0  0  0
  -21.6044   -4.3043   24.7219 C   0  0  0  0  0  0
  -21.8823   -3.8139   23.4342 C   0  0  0  0  0  0
  -21.9195   -4.6958   22.3401 C   0  0  0  0  0  0
  -22.7839  -13.5238   21.1881 C   0  0  0  0  0  0
  -22.1664   -4.2143   21.0978 F   0  0  0  0  0  0
  -21.5634   -3.4529   25.7734 F   0  0  0  0  0  0
  -30.0163  -13.3699   20.4267 N   0  0  0  0  0  0
  -26.2973  -12.9343   20.3307 N   0  0  0  0  0  0
  -25.9294  -11.6503   20.5722 N   0  0  0  0  0  0
  -22.0476  -12.8226   22.0432 N   0  0  0  0  0  0
  -25.4300  -15.1887   20.4109 N   0  0  0  0  0  0
  -31.8034  -14.7480   20.1311 O   0  0  0  0  0  0
  -21.6630   -6.8867   21.4234 O   0  0  0  0  0  0
  -22.3520  -14.5547   20.6730 O   0  0  0  0  0  0
  -24.6211  -31.8646   23.2052 C   0  0  0  0  0  0
  -25.9077  -32.4805   23.8370 C   0  0  1  0  0  0
  -27.2335  -27.3794   20.0800 C   0  0  0  0  0  0
  -25.5909  -33.8604   24.2306 N   0  0  0  0  0  0
  -23.4107  -30.4893   21.5471 C   0  0  2  0  0  0
  -24.8535  -28.9484   20.1099 C   0  0  0  0  0  0
  -22.7446  -29.4653   22.4954 C   0  0  0  0  0  0
  -18.0285  -28.1394   22.8493 C   0  0  0  0  0  0
  -24.1482  -36.7308   23.2638 C   0  0  0  0  0  0
  -25.9456  -30.8118   21.3641 C   0  0  0  0  0  0
  -26.0190  -29.4419   20.7086 C   0  0  0  0  0  0
  -27.2062  -28.6635   20.6936 C   0  0  0  0  0  0
  -26.0343  -26.9087   19.4948 C   0  0  0  0  0  0
  -24.8590  -27.6828   19.5033 C   0  0  0  0  0  0
  -23.6197  -29.8223   20.1618 C   0  0  0  0  0  0
  -25.4105  -36.3111   24.0344 C   0  0  1  0  0  0
  -20.5878  -28.3694   23.1297 C   0  0  2  0  0  0
  -20.6767  -26.9423   22.5413 C   0  0  0  0  0  0
  -19.5738  -26.6400   21.5214 C   0  0  0  0  0  0
  -18.1922  -26.7938   22.1630 C   0  0  0  0  0  0
  -19.1536  -28.8857   23.2898 C   0  0  0  0  0  0
  -18.9460  -30.1452   23.8921 C   0  0  0  0  0  0
  -17.6464  -30.6595   24.0569 C   0  0  0  0  0  0
  -25.9039  -34.9474   23.5128 C   0  0  0  0  0  0
  -16.5354  -29.9104   23.6323 C   0  0  0  0  0  0
  -16.7273  -28.6514   23.0353 C   0  0  0  0  0  0
  -26.4481  -31.6591   25.0712 C   0  0  0  0  0  0
  -25.3727  -31.3705   26.1445 C   0  0  0  0  0  0
  -27.0299  -30.3026   24.6101 C   0  0  0  0  0  0
  -27.6065  -32.4299   25.7482 C   0  0  0  0  0  0
  -27.5583  -37.1807   24.8469 C   0  0  0  0  0  0
  -21.4166  -29.3057   22.3701 N   0  0  0  0  0  0
  -26.4295  -37.3800   23.9415 N   0  0  0  0  0  0
  -24.6782  -31.0706   22.0969 N   0  0  0  0  0  0
  -23.4196  -28.8190   23.3011 O   0  0  0  0  0  0
  -28.3960  -26.6118   20.1286 O   0  0  0  0  0  0
  -26.5613  -34.8943   22.4697 O   0  0  0  0  0  0
  -23.5385  -32.1417   23.7417 O   0  0  0  0  0  0
  -28.8112  -20.6219   19.9829 C   0  0  0  0  0  0
  -29.0160  -19.5247   20.7997 C   0  0  0  0  0  0
  -29.0304  -20.0536   22.1307 C   0  0  0  0  0  0
  -28.8176  -21.4107   22.0687 C   0  0  0  0  0  0
  -29.1701  -19.2631   23.4086 C   0  0  0  0  0  0
  -28.6746  -22.3810   23.2042 C   0  0  0  0  0  0
  -30.0912  -23.5283   18.6230 C   0  0  0  0  0  0
  -30.2835  -24.5463   20.8800 C   0  0  0  0  0  0
  -29.0480  -18.0267   20.3863 C   0  0  0  0  0  0
  -28.2063  -23.1350   20.2496 C   0  0  0  0  0  0
  -30.1880  -17.0820   20.9242 C   0  0  0  0  0  0
  -28.6415  -25.5170   19.1984 C   0  0  0  0  0  0
  -29.2837  -24.1820   19.7661 C   0  0  0  0  0  0
  -28.6440  -21.7872   20.7407 N   0  0  0  0  0  0
  -29.8544  -15.6265   20.8679 N   0  0  0  0  0  0
  -31.4750  -12.4866   19.1337 H   0  0  0  0  0  0
  -30.3635  -11.3618   19.8627 H   0  0  0  0  0  0
  -29.7637  -11.7740   17.4552 H   0  0  0  0  0  0
  -29.6524  -13.4907   17.7526 H   0  0  0  0  0  0
  -27.8548  -11.2993   18.8420 H   0  0  0  0  0  0
  -27.3718  -12.6008   17.7853 H   0  0  0  0  0  0
  -27.6780  -14.2513   19.5348 H   0  0  0  0  0  0
  -28.6953  -12.0205   21.3643 H   0  0  0  0  0  0
  -28.4512  -13.6741   21.8458 H   0  0  0  0  0  0
  -25.2735   -9.5706   22.4737 H   0  0  0  0  0  0
  -24.0012   -7.4626   22.7438 H   0  0  0  0  0  0
  -21.0828   -8.8739   19.8933 H   0  0  0  0  0  0
  -22.3643  -10.9664   19.6148 H   0  0  0  0  0  0
  -21.1993   -7.6134   23.9711 H   0  0  0  0  0  0
  -21.1492   -6.0507   25.9075 H   0  0  0  0  0  0
  -22.0601   -2.7602   23.2836 H   0  0  0  0  0  0
  -22.4086  -11.9890   22.4834 H   0  0  0  0  0  0
  -21.1078  -13.1228   22.2621 H   0  0  0  0  0  0
  -24.6671  -15.8487   20.5134 H   0  0  0  0  0  0
  -26.2784  -15.6199   20.0684 H   0  0  0  0  0  0
  -26.7143  -32.5490   23.1128 H   0  0  0  0  0  0
  -25.0060  -33.9744   25.0453 H   0  0  0  0  0  0
  -22.7019  -31.3087   21.4074 H   0  0  0  0  0  0
  -23.3749  -35.9634   23.3308 H   0  0  0  0  0  0
  -24.3577  -36.8906   22.2047 H   0  0  0  0  0  0
  -23.7227  -37.6519   23.6638 H   0  0  0  0  0  0
  -26.0624  -31.5731   20.5917 H   0  0  0  0  0  0
  -26.8330  -30.8680   21.9831 H   0  0  0  0  0  0
  -28.1036  -29.0420   21.1620 H   0  0  0  0  0  0
  -25.9556  -25.9278   19.0551 H   0  0  0  0  0  0
  -23.9582  -27.2889   19.0528 H   0  0  0  0  0  0
  -23.7322  -30.5972   19.4025 H   0  0  0  0  0  0
  -22.7413  -29.2472   19.8646 H   0  0  0  0  0  0
  -25.1275  -36.1983   25.0838 H   0  0  0  0  0  0
  -20.9983  -28.3266   24.1412 H   0  0  0  0  0  0
  -20.5661  -26.2312   23.3613 H   0  0  0  0  0  0
  -21.6638  -26.7448   22.1207 H   0  0  0  0  0  0
  -19.6897  -25.6315   21.1232 H   0  0  0  0  0  0
  -19.6666  -27.3221   20.6747 H   0  0  0  0  0  0
  -17.4190  -26.6695   21.4034 H   0  0  0  0  0  0
  -18.0321  -26.0083   22.9027 H   0  0  0  0  0  0
  -19.7941  -30.7259   24.2310 H   0  0  0  0  0  0
  -17.5023  -31.6273   24.5177 H   0  0  0  0  0  0
  -15.5358  -30.3014   23.7628 H   0  0  0  0  0  0
  -15.8676  -28.0836   22.7061 H   0  0  0  0  0  0
  -24.5934  -30.7016   25.7778 H   0  0  0  0  0  0
  -24.8872  -32.2851   26.4857 H   0  0  0  0  0  0
  -25.8063  -30.8911   27.0229 H   0  0  0  0  0  0
  -26.2844  -29.6811   24.1126 H   0  0  0  0  0  0
  -27.4031  -29.7245   25.4565 H   0  0  0  0  0  0
  -27.8703  -30.4338   23.9281 H   0  0  0  0  0  0
  -27.2709  -33.3605   26.2075 H   0  0  0  0  0  0
  -28.3879  -32.6836   25.0305 H   0  0  0  0  0  0
  -28.0732  -31.8400   26.5384 H   0  0  0  0  0  0
  -28.2610  -38.0095   24.7526 H   0  0  0  0  0  0
  -28.1069  -36.2632   24.6281 H   0  0  0  0  0  0
  -27.2307  -37.1448   25.8875 H   0  0  0  0  0  0
  -20.9339  -29.8793   21.6926 H   0  0  0  0  0  0
  -26.0184  -38.2884   24.1409 H   0  0  0  0  0  0
  -28.6916  -20.6658   18.9073 H   0  0  0  0  0  0
  -28.7739  -18.2547   23.2933 H   0  0  0  0  0  0
  -28.6144  -19.7335   24.2198 H   0  0  0  0  0  0
  -30.2177  -19.2029   23.7070 H   0  0  0  0  0  0
  -27.6267  -22.5093   23.4754 H   0  0  0  0  0  0
  -29.0809  -23.3601   22.9717 H   0  0  0  0  0  0
  -29.2064  -22.0316   24.0886 H   0  0  0  0  0  0
  -30.8672  -24.1935   18.2428 H   0  0  0  0  0  0
  -29.4476  -23.2651   17.7831 H   0  0  0  0  0  0
  -30.5901  -22.6160   18.9513 H   0  0  0  0  0  0
  -31.0657  -25.2090   20.5086 H   0  0  0  0  0  0
  -30.7721  -23.6621   21.2882 H   0  0  0  0  0  0
  -29.7901  -25.0664   21.7005 H   0  0  0  0  0  0
  -29.0413  -17.9772   19.2963 H   0  0  0  0  0  0
  -28.0873  -17.6193   20.7014 H   0  0  0  0  0  0
  -27.5108  -22.9566   19.4280 H   0  0  0  0  0  0
  -27.5928  -23.5962   21.0236 H   0  0  0  0  0  0
  -31.1131  -17.2883   20.3859 H   0  0  0  0  0  0
  -30.3987  -17.3023   21.9684 H   0  0  0  0  0  0
  -27.8056  -25.2626   18.5544 H   0  0  0  0  0  0
  -29.3570  -25.9580   18.5022 H   0  0  0  0  0  0
  -28.9159  -15.3759   21.1372 H   0  0  0  0  0  0
  1 25  1  0  0  0
  1 30  2  0  0  0
  1 85  1  0  0  0
  2  3  1  0  0  0
  2 25  1  0  0  0
  2 86  1  0  0  0
  2 87  1  0  0  0
  3  4  1  0  0  0
  3 88  1  0  0  0
  3 89  1  0  0  0
  4  5  1  0  0  0
  4 90  1  0  0  0
  4 91  1  0  0  0
  5  6  1  0  0  0
  5 26  1  0  0  0
  5 92  1  0  0  0
  6 25  1  0  0  0
  6 93  1  0  0  0
  6 94  1  0  0  0
  7  8  2  0  0  0
  7 26  1  0  0  0
  7 29  1  0  0  0
  8  9  1  0  0  0
  8 22  1  0  0  0
  9 10  1  0  0  0
  9 27  2  0  0  0
 10 11  2  0  0  0
 10 15  1  0  0  0
 11 12  1  0  0  0
 11 95  1  0  0  0
 12 13  2  0  0  0
 12 96  1  0  0  0
 13 14  1  0  0  0
 13 31  1  0  0  0
 14 15  2  0  0  0
 14 97  1  0  0  0
 15 98  1  0  0  0
 16 17  2  0  0  0
 16 21  1  0  0  0
 16 31  1  0  0  0
 17 18  1  0  0  0
 17 99  1  0  0  0
 18 19  2  0  0  0
 18100  1  0  0  0
 19 20  1  0  0  0
 19 24  1  0  0  0
 20 21  2  0  0  0
 20101  1  0  0  0
 21 23  1  0  0  0
 22 28  1  0  0  0
 22 32  2  0  0  0
 26 27  1  0  0  0
 28102  1  0  0  0
 28103  1  0  0  0
 29104  1  0  0  0
 29105  1  0  0  0
 33 34  1  0  0  0
 33 66  1  0  0  0
 33 70  2  0  0  0
 34 36  1  0  0  0
 34 59  1  0  0  0
 34106  1  0  0  0
 35 44  2  0  0  0
 35 45  1  0  0  0
 35 68  1  0  0  0
 36 56  1  0  0  0
 36107  1  0  0  0
 37 39  1  0  0  0
 37 47  1  0  0  0
 37 66  1  0  0  0
 37108  1  0  0  0
 38 43  2  0  0  0
 38 46  1  0  0  0
 38 47  1  0  0  0
 39 64  1  0  0  0
 39 67  2  0  0  0
 40 52  1  0  0  0
 40 53  2  0  0  0
 40 58  1  0  0  0
 41109  1  0  0  0
 41110  1  0  0  0
 41111  1  0  0  0
 41 48  1  0  0  0
 42 43  1  0  0  0
 42 66  1  0  0  0
 42112  1  0  0  0
 42113  1  0  0  0
 43 44  1  0  0  0
 44114  1  0  0  0
 45 46  2  0  0  0
 45115  1  0  0  0
 46116  1  0  0  0
 47117  1  0  0  0
 47118  1  0  0  0
 48 56  1  0  0  0
 48 65  1  0  0  0
 48119  1  0  0  0
 49 50  1  0  0  0
 49 53  1  0  0  0
 49 64  1  0  0  0
 49120  1  0  0  0
 50 51  1  0  0  0
 50121  1  0  0  0
 50122  1  0  0  0
 51 52  1  0  0  0
 51123  1  0  0  0
 51124  1  0  0  0
 52125  1  0  0  0
 52126  1  0  0  0
 53 54  1  0  0  0
 54 55  2  0  0  0
 54127  1  0  0  0
 55 57  1  0  0  0
 55128  1  0  0  0
 56 69  2  0  0  0
 57 58  2  0  0  0
 57129  1  0  0  0
 58130  1  0  0  0
 59 60  1  0  0  0
 59 61  1  0  0  0
 59 62  1  0  0  0
 60131  1  0  0  0
 60132  1  0  0  0
 60133  1  0  0  0
 61134  1  0  0  0
 61135  1  0  0  0
 61136  1  0  0  0
 62137  1  0  0  0
 62138  1  0  0  0
 62139  1  0  0  0
 63 65  1  0  0  0
 63140  1  0  0  0
 63141  1  0  0  0
 63142  1  0  0  0
 64143  1  0  0  0
 65144  1  0  0  0
 68 82  1  0  0  0
 71 72  2  0  0  0
 71 84  1  0  0  0
 71145  1  0  0  0
 72 73  1  0  0  0
 72 79  1  0  0  0
 73 74  2  0  0  0
 73 75  1  0  0  0
 74 76  1  0  0  0
 74 84  1  0  0  0
 75146  1  0  0  0
 75147  1  0  0  0
 75148  1  0  0  0
 76149  1  0  0  0
 76150  1  0  0  0
 76151  1  0  0  0
 77152  1  0  0  0
 77153  1  0  0  0
 77154  1  0  0  0
 77 83  1  0  0  0
 78 83  1  0  0  0
 78155  1  0  0  0
 78156  1  0  0  0
 78157  1  0  0  0
 79 81  1  0  0  0
 79158  1  0  0  0
 79159  1  0  0  0
 80 83  1  0  0  0
 80 84  1  0  0  0
 80160  1  0  0  0
 80161  1  0  0  0
 81 85  1  0  0  0
 81162  1  0  0  0
 81163  1  0  0  0
 82 83  1  0  0  0
 82164  1  0  0  0
 82165  1  0  0  0
 85166  1  0  0  0
M  ISO  4   1 100  68 101  82 101  85 100
M  END
> <chiral flag>
0

> <version>
0

> <s_m_source_file>
/data/baiqing/PycharmProjects/Reinvent-master-3.2/result/LINK_invent/BTK/process_docking_weight1_custom_sum_contain_oxygen_bond_distance_aromatic_linkinvent_7_9_3/rearranged_h_0087.sdf

> <i_m_source_file_index>
47

> <r_mmod_Potential_Energy-OPLS-2005>
-33.7011756896973

> <r_mmod_Stretch_Energy-OPLS-2005>
58.9471664428711

> <r_mmod_Bend_Energy-OPLS-2005>
140.551681518555

> <r_mmod_Torsional_Energy-OPLS-2005>
223.014892578125

> <r_mmod_Improper_Torsional_Energy-OPLS-2005>
6.10618877410889

> <r_mmod_Van_der_Waal_Energy-OPLS-2005>
123.295196533203

> <r_mmod_Electrostatic_Energy-OPLS-2005>
-406.875579833984

> <r_mmod_Solvation_Energy-OPLS-2005>
-207.60009765625

> <b_mmod_Minimization_Converged-OPLS-2005>
0

> <r_mmod_RMS_Derivative-OPLS-2005>
1.70692241191864

$$$$
48
                    3D
 Structure written by MMmdl.
167175  0  0  1  0            999 V2000
  -30.7163  -14.4057   20.5786 C   0  0  0  0  0  0
  -30.4160  -12.2680   19.4084 C   0  0  0  0  0  0
  -29.4905  -12.5113   18.1989 C   0  0  0  0  0  0
  -28.0124  -12.3733   18.6124 C   0  0  0  0  0  0
  -27.6668  -13.1990   19.8811 C   0  0  2  0  0  0
  -28.7076  -12.9516   20.9993 C   0  0  0  0  0  0
  -25.2624  -13.8147   20.5679 C   0  0  0  0  0  0
  -24.1862  -13.0434   20.9153 C   0  0  0  0  0  0
  -24.6407  -11.6903   20.8720 C   0  0  0  0  0  0
  -23.9063  -10.4294   21.0397 C   0  0  0  0  0  0
  -24.3613   -9.4219   21.9185 C   0  0  0  0  0  0
  -23.6292   -8.2257   22.0767 C   0  0  0  0  0  0
  -22.4278   -8.0283   21.3552 C   0  0  0  0  0  0
  -21.9902   -9.0258   20.4652 C   0  0  0  0  0  0
  -22.7227  -10.2141   20.3056 C   0  0  0  0  0  0
  -21.6862   -6.0731   22.5276 C   0  0  0  0  0  0
  -21.4024   -6.5640   23.8208 C   0  0  0  0  0  0
  -21.3660   -5.6794   24.9170 C   0  0  0  0  0  0
  -21.6042   -4.3057   24.7229 C   0  0  0  0  0  0
  -21.8822   -3.8145   23.4352 C   0  0  0  0  0  0
  -21.9205   -4.6959   22.3403 C   0  0  0  0  0  0
  -22.7894  -13.5245   21.1832 C   0  0  0  0  0  0
  -22.1671   -4.2146   21.0986 F   0  0  0  0  0  0
  -21.5623   -3.4543   25.7744 F   0  0  0  0  0  0
  -30.0446  -13.2352   20.4492 N   0  0  0  0  0  0
  -26.3060  -12.9301   20.3386 N   0  0  0  0  0  0
  -25.9333  -11.6464   20.5756 N   0  0  0  0  0  0
  -22.0539  -12.8229   22.0384 N   0  0  0  0  0  0
  -25.4353  -15.1856   20.4098 N   0  0  0  0  0  0
  -31.8366  -14.6099   20.1044 O   0  0  0  0  0  0
  -21.6656   -6.8872   21.4238 O   0  0  0  0  0  0
  -22.3588  -14.5568   20.6706 O   0  0  0  0  0  0
  -24.6080  -31.8702   23.2096 C   0  0  0  0  0  0
  -25.8999  -32.4825   23.8374 C   0  0  1  0  0  0
  -27.2506  -27.4839   20.0756 C   0  0  0  0  0  0
  -25.5871  -33.8626   24.2312 N   0  0  0  0  0  0
  -23.3931  -30.4902   21.5508 C   0  0  2  0  0  0
  -24.8396  -28.9538   20.1176 C   0  0  0  0  0  0
  -22.7361  -29.4669   22.5035 C   0  0  0  0  0  0
  -18.0258  -28.1368   22.8505 C   0  0  0  0  0  0
  -24.1489  -36.7333   23.2639 C   0  0  0  0  0  0
  -25.9146  -30.8475   21.3535 C   0  0  0  0  0  0
  -25.9934  -29.4841   20.7040 C   0  0  0  0  0  0
  -27.1976  -28.7547   20.6811 C   0  0  0  0  0  0
  -26.0767  -26.9465   19.4994 C   0  0  0  0  0  0
  -24.8733  -27.6800   19.5191 C   0  0  0  0  0  0
  -23.5956  -29.8108   20.1694 C   0  0  0  0  0  0
  -25.4114  -36.3119   24.0333 C   0  0  1  0  0  0
  -20.5844  -28.3649   23.1350 C   0  0  2  0  0  0
  -20.6751  -26.9397   22.5427 C   0  0  0  0  0  0
  -19.5729  -26.6383   21.5220 C   0  0  0  0  0  0
  -18.1907  -26.7920   22.1626 C   0  0  0  0  0  0
  -19.1507  -28.8823   23.2921 C   0  0  0  0  0  0
  -18.9438  -30.1428   23.8932 C   0  0  0  0  0  0
  -17.6445  -30.6583   24.0568 C   0  0  0  0  0  0
  -25.9027  -34.9478   23.5121 C   0  0  0  0  0  0
  -16.5338  -29.9086   23.6329 C   0  0  0  0  0  0
  -16.7246  -28.6495   23.0365 C   0  0  0  0  0  0
  -26.4447  -31.6610   25.0708 C   0  0  0  0  0  0
  -25.3725  -31.3705   26.1468 C   0  0  0  0  0  0
  -27.0268  -30.3061   24.6056 C   0  0  0  0  0  0
  -27.6007  -32.4355   25.7468 C   0  0  0  0  0  0
  -27.5589  -37.1814   24.8460 C   0  0  0  0  0  0
  -21.4099  -29.3026   22.3769 N   0  0  0  0  0  0
  -26.4303  -37.3799   23.9403 N   0  0  0  0  0  0
  -24.6569  -31.0836   22.0968 N   0  0  0  0  0  0
  -23.4145  -28.8225   23.3074 O   0  0  0  0  0  0
  -28.4711  -26.8547   20.0667 O   0  0  0  0  0  0
  -26.5594  -34.8936   22.4686 O   0  0  0  0  0  0
  -23.5292  -32.1444   23.7517 O   0  0  0  0  0  0
  -31.5721  -20.7568   19.1288 C   0  0  0  0  0  0
  -31.5102  -19.3703   19.3230 C   0  0  0  0  0  0
  -30.4064  -21.4516   18.7512 C   0  0  0  0  0  0
  -30.2800  -18.7223   19.1379 C   0  0  0  0  0  0
  -29.2129  -20.7117   18.5506 C   0  0  0  0  0  0
  -26.7725  -21.1592   19.1293 C   0  0  0  0  0  0
  -27.4820  -20.8134   16.6972 C   0  0  0  0  0  0
  -30.4796  -22.9682   18.6721 C   0  0  0  0  0  0
  -30.1429  -17.2302   19.3804 C   0  0  0  0  0  0
  -30.2200  -23.5634   20.0643 C   0  0  0  0  0  0
  -29.9944  -25.0771   20.0749 C   0  0  0  0  0  0
  -30.2662  -16.8327   20.8703 C   0  0  0  0  0  0
  -28.5585  -25.4849   19.7210 C   0  0  0  0  0  0
  -27.8891  -21.3320   18.0878 C   0  0  0  0  0  0
  -29.1642  -19.3762   18.7567 N   0  0  0  0  0  0
  -29.9866  -15.4090   21.0773 N   0  0  0  0  0  0
  -31.4621  -12.3529   19.1096 H   0  0  0  0  0  0
  -30.2958  -11.2503   19.7839 H   0  0  0  0  0  0
  -29.7215  -11.8102   17.3959 H   0  0  0  0  0  0
  -29.6675  -13.5092   17.7925 H   0  0  0  0  0  0
  -27.8194  -11.3149   18.7941 H   0  0  0  0  0  0
  -27.3628  -12.6608   17.7853 H   0  0  0  0  0  0
  -27.7201  -14.2506   19.5981 H   0  0  0  0  0  0
  -28.6700  -11.9150   21.3331 H   0  0  0  0  0  0
  -28.4803  -13.5465   21.8858 H   0  0  0  0  0  0
  -25.2763   -9.5720   22.4753 H   0  0  0  0  0  0
  -24.0012   -7.4666   22.7500 H   0  0  0  0  0  0
  -21.0829   -8.8761   19.8965 H   0  0  0  0  0  0
  -22.3665  -10.9679   19.6165 H   0  0  0  0  0  0
  -21.2016   -7.6148   23.9705 H   0  0  0  0  0  0
  -21.1475   -6.0530   25.9068 H   0  0  0  0  0  0
  -22.0604   -2.7611   23.2856 H   0  0  0  0  0  0
  -22.4145  -11.9847   22.4705 H   0  0  0  0  0  0
  -21.1179  -13.1280   22.2649 H   0  0  0  0  0  0
  -24.6671  -15.8385   20.5158 H   0  0  0  0  0  0
  -26.2878  -15.6292   20.0922 H   0  0  0  0  0  0
  -26.7070  -32.5548   23.1138 H   0  0  0  0  0  0
  -25.0024  -33.9800   25.0458 H   0  0  0  0  0  0
  -22.6790  -31.3039   21.4082 H   0  0  0  0  0  0
  -23.3745  -35.9672   23.3307 H   0  0  0  0  0  0
  -24.3571  -36.8951   22.2050 H   0  0  0  0  0  0
  -23.7256  -37.6548   23.6653 H   0  0  0  0  0  0
  -26.0206  -31.6125   20.5823 H   0  0  0  0  0  0
  -26.8050  -30.9047   21.9669 H   0  0  0  0  0  0
  -28.0927  -29.1713   21.1201 H   0  0  0  0  0  0
  -26.0802  -25.9771   19.0224 H   0  0  0  0  0  0
  -23.9843  -27.2600   19.0694 H   0  0  0  0  0  0
  -23.6849  -30.5767   19.3984 H   0  0  0  0  0  0
  -22.7241  -29.2153   19.8889 H   0  0  0  0  0  0
  -25.1289  -36.1995   25.0825 H   0  0  0  0  0  0
  -20.9926  -28.3212   24.1470 H   0  0  0  0  0  0
  -20.5676  -26.2250   23.3608 H   0  0  0  0  0  0
  -21.6626  -26.7458   22.1211 H   0  0  0  0  0  0
  -19.6898  -25.6297   21.1232 H   0  0  0  0  0  0
  -19.6677  -27.3213   20.6772 H   0  0  0  0  0  0
  -17.4188  -26.6683   21.4016 H   0  0  0  0  0  0
  -18.0296  -26.0051   22.9004 H   0  0  0  0  0  0
  -19.7916  -30.7231   24.2321 H   0  0  0  0  0  0
  -17.5005  -31.6268   24.5154 H   0  0  0  0  0  0
  -15.5343  -30.2992   23.7641 H   0  0  0  0  0  0
  -15.8645  -28.0809   22.7084 H   0  0  0  0  0  0
  -24.5882  -30.7071   25.7817 H   0  0  0  0  0  0
  -24.8939  -32.2861   26.4956 H   0  0  0  0  0  0
  -25.8101  -30.8849   27.0201 H   0  0  0  0  0  0
  -26.2790  -29.6829   24.1141 H   0  0  0  0  0  0
  -27.4082  -29.7303   25.4501 H   0  0  0  0  0  0
  -27.8603  -30.4392   23.9154 H   0  0  0  0  0  0
  -27.2585  -33.3639   26.2063 H   0  0  0  0  0  0
  -28.3792  -32.6962   25.0283 H   0  0  0  0  0  0
  -28.0697  -31.8484   26.5375 H   0  0  0  0  0  0
  -28.2606  -38.0112   24.7518 H   0  0  0  0  0  0
  -28.1084  -36.2644   24.6269 H   0  0  0  0  0  0
  -27.2292  -37.1450   25.8858 H   0  0  0  0  0  0
  -20.9258  -29.8729   21.6982 H   0  0  0  0  0  0
  -26.0196  -38.2887   24.1390 H   0  0  0  0  0  0
  -32.5007  -21.2831   19.2965 H   0  0  0  0  0  0
  -32.3902  -18.8221   19.6332 H   0  0  0  0  0  0
  -27.0626  -21.6030   20.0822 H   0  0  0  0  0  0
  -26.5416  -20.1080   19.3053 H   0  0  0  0  0  0
  -25.8567  -21.6522   18.8037 H   0  0  0  0  0  0
  -28.2633  -21.0148   15.9625 H   0  0  0  0  0  0
  -26.5696  -21.2956   16.3463 H   0  0  0  0  0  0
  -27.3087  -19.7361   16.7069 H   0  0  0  0  0  0
  -29.8107  -23.3792   17.9186 H   0  0  0  0  0  0
  -31.4769  -23.2594   18.3378 H   0  0  0  0  0  0
  -30.9081  -16.7326   18.7841 H   0  0  0  0  0  0
  -29.1798  -16.8921   18.9920 H   0  0  0  0  0  0
  -31.0719  -23.3284   20.7049 H   0  0  0  0  0  0
  -29.3611  -23.0780   20.5290 H   0  0  0  0  0  0
  -30.7079  -25.5777   19.4183 H   0  0  0  0  0  0
  -30.2095  -25.4358   21.0811 H   0  0  0  0  0  0
  -29.5563  -17.4094   21.4645 H   0  0  0  0  0  0
  -31.2598  -17.0804   21.2476 H   0  0  0  0  0  0
  -27.8428  -24.9001   20.3019 H   0  0  0  0  0  0
  -28.3568  -25.3306   18.6598 H   0  0  0  0  0  0
  -28.0008  -22.4062   17.9783 H   0  0  0  0  0  0
  -29.0795  -15.1644   21.4459 H   0  0  0  0  0  0
  1 25  1  0  0  0
  1 30  2  0  0  0
  1 86  1  0  0  0
  2  3  1  0  0  0
  2 25  1  0  0  0
  2 87  1  0  0  0
  2 88  1  0  0  0
  3  4  1  0  0  0
  3 89  1  0  0  0
  3 90  1  0  0  0
  4  5  1  0  0  0
  4 91  1  0  0  0
  4 92  1  0  0  0
  5  6  1  0  0  0
  5 26  1  0  0  0
  5 93  1  0  0  0
  6 25  1  0  0  0
  6 94  1  0  0  0
  6 95  1  0  0  0
  7  8  2  0  0  0
  7 26  1  0  0  0
  7 29  1  0  0  0
  8  9  1  0  0  0
  8 22  1  0  0  0
  9 10  1  0  0  0
  9 27  2  0  0  0
 10 11  2  0  0  0
 10 15  1  0  0  0
 11 12  1  0  0  0
 11 96  1  0  0  0
 12 13  2  0  0  0
 12 97  1  0  0  0
 13 14  1  0  0  0
 13 31  1  0  0  0
 14 15  2  0  0  0
 14 98  1  0  0  0
 15 99  1  0  0  0
 16 17  2  0  0  0
 16 21  1  0  0  0
 16 31  1  0  0  0
 17 18  1  0  0  0
 17100  1  0  0  0
 18 19  2  0  0  0
 18101  1  0  0  0
 19 20  1  0  0  0
 19 24  1  0  0  0
 20 21  2  0  0  0
 20102  1  0  0  0
 21 23  1  0  0  0
 22 28  1  0  0  0
 22 32  2  0  0  0
 26 27  1  0  0  0
 28103  1  0  0  0
 28104  1  0  0  0
 29105  1  0  0  0
 29106  1  0  0  0
 33 34  1  0  0  0
 33 66  1  0  0  0
 33 70  2  0  0  0
 34 36  1  0  0  0
 34 59  1  0  0  0
 34107  1  0  0  0
 35 44  2  0  0  0
 35 45  1  0  0  0
 35 68  1  0  0  0
 36 56  1  0  0  0
 36108  1  0  0  0
 37 39  1  0  0  0
 37 47  1  0  0  0
 37 66  1  0  0  0
 37109  1  0  0  0
 38 43  2  0  0  0
 38 46  1  0  0  0
 38 47  1  0  0  0
 39 64  1  0  0  0
 39 67  2  0  0  0
 40 52  1  0  0  0
 40 53  2  0  0  0
 40 58  1  0  0  0
 41110  1  0  0  0
 41111  1  0  0  0
 41112  1  0  0  0
 41 48  1  0  0  0
 42 43  1  0  0  0
 42 66  1  0  0  0
 42113  1  0  0  0
 42114  1  0  0  0
 43 44  1  0  0  0
 44115  1  0  0  0
 45 46  2  0  0  0
 45116  1  0  0  0
 46117  1  0  0  0
 47118  1  0  0  0
 47119  1  0  0  0
 48 56  1  0  0  0
 48 65  1  0  0  0
 48120  1  0  0  0
 49 50  1  0  0  0
 49 53  1  0  0  0
 49 64  1  0  0  0
 49121  1  0  0  0
 50 51  1  0  0  0
 50122  1  0  0  0
 50123  1  0  0  0
 51 52  1  0  0  0
 51124  1  0  0  0
 51125  1  0  0  0
 52126  1  0  0  0
 52127  1  0  0  0
 53 54  1  0  0  0
 54 55  2  0  0  0
 54128  1  0  0  0
 55 57  1  0  0  0
 55129  1  0  0  0
 56 69  2  0  0  0
 57 58  2  0  0  0
 57130  1  0  0  0
 58131  1  0  0  0
 59 60  1  0  0  0
 59 61  1  0  0  0
 59 62  1  0  0  0
 60132  1  0  0  0
 60133  1  0  0  0
 60134  1  0  0  0
 61135  1  0  0  0
 61136  1  0  0  0
 61137  1  0  0  0
 62138  1  0  0  0
 62139  1  0  0  0
 62140  1  0  0  0
 63 65  1  0  0  0
 63141  1  0  0  0
 63142  1  0  0  0
 63143  1  0  0  0
 64144  1  0  0  0
 65145  1  0  0  0
 68 83  1  0  0  0
 71 72  2  0  0  0
 71 73  1  0  0  0
 71146  1  0  0  0
 72 74  1  0  0  0
 72147  1  0  0  0
 73 75  2  0  0  0
 73 78  1  0  0  0
 74 79  1  0  0  0
 74 85  2  0  0  0
 75 84  1  0  0  0
 75 85  1  0  0  0
 76148  1  0  0  0
 76149  1  0  0  0
 76150  1  0  0  0
 76 84  1  0  0  0
 77 84  1  0  0  0
 77151  1  0  0  0
 77152  1  0  0  0
 77153  1  0  0  0
 78 80  1  0  0  0
 78154  1  0  0  0
 78155  1  0  0  0
 79 82  1  0  0  0
 79156  1  0  0  0
 79157  1  0  0  0
 80 81  1  0  0  0
 80158  1  0  0  0
 80159  1  0  0  0
 81 83  1  0  0  0
 81160  1  0  0  0
 81161  1  0  0  0
 82 86  1  0  0  0
 82162  1  0  0  0
 82163  1  0  0  0
 83164  1  0  0  0
 83165  1  0  0  0
 84166  1  0  0  0
 86167  1  0  0  0
M  ISO  4   1 100  68 101  83 101  86 100
M  END
> <chiral flag>
0

> <version>
0

> <s_m_source_file>
/data/baiqing/PycharmProjects/Reinvent-master-3.2/result/LINK_invent/BTK/process_docking_weight1_custom_sum_contain_oxygen_bond_distance_aromatic_linkinvent_7_9_3/rearranged_h_0087.sdf

> <i_m_source_file_index>
48

> <r_mmod_Potential_Energy-OPLS-2005>
-261.531341552734

> <r_mmod_Stretch_Energy-OPLS-2005>
31.5710716247559

> <r_mmod_Bend_Energy-OPLS-2005>
100.965202331543

> <r_mmod_Torsional_Energy-OPLS-2005>
183.076507568359

> <r_mmod_Improper_Torsional_Energy-OPLS-2005>
5.37813711166382

> <r_mmod_Van_der_Waal_Energy-OPLS-2005>
155.594635009766

> <r_mmod_Electrostatic_Energy-OPLS-2005>
-536.907958984375

> <r_mmod_Solvation_Energy-OPLS-2005>
-211.611846923828

> <b_mmod_Minimization_Converged-OPLS-2005>
0

> <r_mmod_RMS_Derivative-OPLS-2005>
2.04357266426086

$$$$
49
                    3D
 Structure written by MMmdl.
170178  0  0  1  0            999 V2000
  -30.6020  -14.7737   20.4653 C   0  0  0  0  0  0
  -30.4384  -12.4813   19.4667 C   0  0  0  0  0  0
  -29.5106  -12.5148   18.2330 C   0  0  0  0  0  0
  -28.0395  -12.3262   18.6520 C   0  0  0  0  0  0
  -27.6383  -13.2345   19.8447 C   0  0  2  0  0  0
  -28.6838  -13.1868   20.9791 C   0  0  0  0  0  0
  -25.2482  -13.8164   20.5655 C   0  0  0  0  0  0
  -24.1797  -13.0419   20.9215 C   0  0  0  0  0  0
  -24.6401  -11.6906   20.8750 C   0  0  0  0  0  0
  -23.9083  -10.4278   21.0417 C   0  0  0  0  0  0
  -24.3630   -9.4190   21.9190 C   0  0  0  0  0  0
  -23.6301   -8.2235   22.0754 C   0  0  0  0  0  0
  -22.4282   -8.0275   21.3541 C   0  0  0  0  0  0
  -21.9925   -9.0255   20.4649 C   0  0  0  0  0  0
  -22.7262  -10.2131   20.3063 C   0  0  0  0  0  0
  -21.6854   -6.0739   22.5285 C   0  0  0  0  0  0
  -21.4012   -6.5644   23.8218 C   0  0  0  0  0  0
  -21.3658   -5.6799   24.9179 C   0  0  0  0  0  0
  -21.6046   -4.3061   24.7235 C   0  0  0  0  0  0
  -21.8813   -3.8152   23.4356 C   0  0  0  0  0  0
  -21.9190   -4.6966   22.3409 C   0  0  0  0  0  0
  -22.7819  -13.5197   21.1883 C   0  0  0  0  0  0
  -22.1661   -4.2152   21.0985 F   0  0  0  0  0  0
  -21.5627   -3.4544   25.7745 F   0  0  0  0  0  0
  -29.9801  -13.5462   20.3896 N   0  0  0  0  0  0
  -26.2922  -12.9403   20.3258 N   0  0  0  0  0  0
  -25.9334  -11.6536   20.5768 N   0  0  0  0  0  0
  -22.0477  -12.8173   22.0447 N   0  0  0  0  0  0
  -25.4075  -15.1876   20.3958 N   0  0  0  0  0  0
  -31.8002  -14.8685   20.1863 O   0  0  0  0  0  0
  -21.6636   -6.8882   21.4243 O   0  0  0  0  0  0
  -22.3496  -14.5504   20.6740 O   0  0  0  0  0  0
  -24.6314  -31.8526   23.1968 C   0  0  0  0  0  0
  -25.9137  -32.4731   23.8306 C   0  0  1  0  0  0
  -27.2132  -27.2551   20.1146 C   0  0  0  0  0  0
  -25.5926  -33.8540   24.2224 N   0  0  0  0  0  0
  -23.4268  -30.4748   21.5454 C   0  0  2  0  0  0
  -24.8698  -28.9243   20.1067 C   0  0  0  0  0  0
  -22.7498  -29.4577   22.4960 C   0  0  0  0  0  0
  -18.0296  -28.1350   22.8462 C   0  0  0  0  0  0
  -24.1497  -36.7305   23.2631 C   0  0  0  0  0  0
  -25.9738  -30.7615   21.3776 C   0  0  0  0  0  0
  -26.0434  -29.3847   20.7180 C   0  0  0  0  0  0
  -27.2156  -28.5615   20.7110 C   0  0  0  0  0  0
  -26.0185  -26.8713   19.4618 C   0  0  0  0  0  0
  -24.8640  -27.6766   19.4674 C   0  0  0  0  0  0
  -23.6379  -29.8082   20.1622 C   0  0  0  0  0  0
  -25.4119  -36.3057   24.0299 C   0  0  1  0  0  0
  -20.5899  -28.3654   23.1273 C   0  0  2  0  0  0
  -20.6790  -26.9373   22.5415 C   0  0  0  0  0  0
  -19.5770  -26.6346   21.5210 C   0  0  0  0  0  0
  -18.1946  -26.7895   22.1600 C   0  0  0  0  0  0
  -19.1548  -28.8824   23.2851 C   0  0  0  0  0  0
  -18.9462  -30.1438   23.8836 C   0  0  0  0  0  0
  -17.6459  -30.6548   24.0546 C   0  0  0  0  0  0
  -25.9056  -34.9419   23.5070 C   0  0  0  0  0  0
  -16.5349  -29.9045   23.6322 C   0  0  0  0  0  0
  -16.7283  -28.6479   23.0313 C   0  0  0  0  0  0
  -26.4503  -31.6554   25.0699 C   0  0  0  0  0  0
  -25.3698  -31.3696   26.1403 C   0  0  0  0  0  0
  -27.0358  -30.2949   24.6209 C   0  0  0  0  0  0
  -27.6057  -32.4307   25.7450 C   0  0  0  0  0  0
  -27.5594  -37.1784   24.8447 C   0  0  0  0  0  0
  -21.4213  -29.2993   22.3666 N   0  0  0  0  0  0
  -26.4297  -37.3754   23.9384 N   0  0  0  0  0  0
  -24.6967  -31.0476   22.0960 N   0  0  0  0  0  0
  -23.4198  -28.8118   23.3056 O   0  0  0  0  0  0
  -28.3073  -26.3572   20.1896 O   0  0  0  0  0  0
  -26.5657  -34.8897   22.4654 O   0  0  0  0  0  0
  -23.5470  -32.1383   23.7248 O   0  0  0  0  0  0
  -27.1594  -21.5533   21.4013 C   0  0  0  0  0  0
  -26.2207  -20.6902   21.9849 C   0  0  0  0  0  0
  -28.3330  -21.0696   20.7801 C   0  0  0  0  0  0
  -26.4807  -19.3096   21.9419 C   0  0  0  0  0  0
  -28.5333  -19.6063   20.8200 C   0  0  0  0  0  0
  -25.7693  -18.0353   24.0206 C   0  0  0  0  0  0
  -22.7736  -22.5210   22.2460 C   0  0  0  0  0  0
  -24.9731  -21.2853   22.6305 C   0  0  0  0  0  0
  -29.1921  -22.2072   20.0907 C   0  0  0  0  0  0
  -25.5286  -18.2774   22.5255 C   0  0  0  0  0  0
  -29.6201  -18.6712   20.1456 C   0  0  0  0  0  0
  -23.9647  -21.8078   21.5936 C   0  0  0  0  0  0
  -29.0979  -23.7789   20.5544 C   0  0  0  0  0  0
  -30.2276  -17.3713   20.9347 C   0  0  0  0  0  0
  -28.1232  -24.8900   19.8912 C   0  0  0  0  0  0
  -27.6007  -18.8100   21.3895 N   0  0  0  0  0  0
  -29.8244  -15.9089   20.6663 N   0  0  0  0  0  0
  -31.4744  -12.6255   19.1556 H   0  0  0  0  0  0
  -30.4032  -11.5090   19.9588 H   0  0  0  0  0  0
  -29.7997  -11.7418   17.5201 H   0  0  0  0  0  0
  -29.6234  -13.4690   17.7150 H   0  0  0  0  0  0
  -27.9094  -11.2790   18.9275 H   0  0  0  0  0  0
  -27.3777  -12.5019   17.8032 H   0  0  0  0  0  0
  -27.6258  -14.2525   19.4538 H   0  0  0  0  0  0
  -28.7285  -12.1953   21.4331 H   0  0  0  0  0  0
  -28.4140  -13.8795   21.7780 H   0  0  0  0  0  0
  -25.2780   -9.5663   22.4770 H   0  0  0  0  0  0
  -24.0008   -7.4621   22.7471 H   0  0  0  0  0  0
  -21.0863   -8.8785   19.8959 H   0  0  0  0  0  0
  -22.3729  -10.9672   19.6179 H   0  0  0  0  0  0
  -21.2002   -7.6154   23.9724 H   0  0  0  0  0  0
  -21.1488   -6.0529   25.9084 H   0  0  0  0  0  0
  -22.0592   -2.7612   23.2857 H   0  0  0  0  0  0
  -22.4109  -11.9827   22.4810 H   0  0  0  0  0  0
  -21.1100  -13.1176   22.2678 H   0  0  0  0  0  0
  -24.6244  -15.8233   20.4875 H   0  0  0  0  0  0
  -26.2460  -15.6390   20.0549 H   0  0  0  0  0  0
  -26.7196  -32.5362   23.1039 H   0  0  0  0  0  0
  -24.9988  -33.9652   25.0325 H   0  0  0  0  0  0
  -22.7210  -31.2957   21.4026 H   0  0  0  0  0  0
  -23.3739  -35.9661   23.3282 H   0  0  0  0  0  0
  -24.3601  -36.8976   22.2057 H   0  0  0  0  0  0
  -23.7293  -37.6504   23.6694 H   0  0  0  0  0  0
  -26.1131  -31.5198   20.6064 H   0  0  0  0  0  0
  -26.8529  -30.8121   22.0096 H   0  0  0  0  0  0
  -28.1156  -28.9049   21.2019 H   0  0  0  0  0  0
  -25.9414  -25.9243   18.9487 H   0  0  0  0  0  0
  -23.9679  -27.3212   18.9776 H   0  0  0  0  0  0
  -23.7431  -30.5820   19.4021 H   0  0  0  0  0  0
  -22.7543  -29.2350   19.8730 H   0  0  0  0  0  0
  -25.1314  -36.1907   25.0795 H   0  0  0  0  0  0
  -20.9972  -28.3244   24.1402 H   0  0  0  0  0  0
  -20.5702  -26.2248   23.3615 H   0  0  0  0  0  0
  -21.6653  -26.7413   22.1195 H   0  0  0  0  0  0
  -19.6940  -25.6255   21.1239 H   0  0  0  0  0  0
  -19.6717  -27.3142   20.6732 H   0  0  0  0  0  0
  -17.4222  -26.6622   21.3996 H   0  0  0  0  0  0
  -18.0339  -26.0041   22.9000 H   0  0  0  0  0  0
  -19.7940  -30.7278   24.2167 H   0  0  0  0  0  0
  -17.5010  -31.6225   24.5157 H   0  0  0  0  0  0
  -15.5345  -30.2916   23.7695 H   0  0  0  0  0  0
  -15.8685  -28.0812   22.7010 H   0  0  0  0  0  0
  -24.5899  -30.7023   25.7730 H   0  0  0  0  0  0
  -24.8832  -32.2848   26.4771 H   0  0  0  0  0  0
  -25.7993  -30.8908   27.0215 H   0  0  0  0  0  0
  -26.2953  -29.6647   24.1269 H   0  0  0  0  0  0
  -27.4067  -29.7259   25.4749 H   0  0  0  0  0  0
  -27.8812  -30.4210   23.9450 H   0  0  0  0  0  0
  -27.2689  -33.3641   26.1976 H   0  0  0  0  0  0
  -28.3872  -32.6828   25.0273 H   0  0  0  0  0  0
  -28.0716  -31.8465   26.5399 H   0  0  0  0  0  0
  -28.2571  -38.0119   24.7542 H   0  0  0  0  0  0
  -28.1142  -36.2651   24.6234 H   0  0  0  0  0  0
  -27.2307  -37.1398   25.8847 H   0  0  0  0  0  0
  -20.9402  -29.8700   21.6856 H   0  0  0  0  0  0
  -26.0176  -38.2823   24.1400 H   0  0  0  0  0  0
  -26.9410  -22.6108   21.4144 H   0  0  0  0  0  0
  -25.0637  -17.3007   24.4080 H   0  0  0  0  0  0
  -25.6486  -18.9526   24.5969 H   0  0  0  0  0  0
  -26.7769  -17.6582   24.1974 H   0  0  0  0  0  0
  -22.0901  -22.9087   21.4895 H   0  0  0  0  0  0
  -23.1033  -23.3673   22.8516 H   0  0  0  0  0  0
  -22.2095  -21.8443   22.8899 H   0  0  0  0  0  0
  -25.2915  -22.1068   23.2747 H   0  0  0  0  0  0
  -24.4840  -20.5762   23.2983 H   0  0  0  0  0  0
  -29.0475  -22.1446   19.0110 H   0  0  0  0  0  0
  -30.2268  -21.8998   20.2498 H   0  0  0  0  0  0
  -25.6567  -17.3365   21.9920 H   0  0  0  0  0  0
  -24.4948  -18.5686   22.3359 H   0  0  0  0  0  0
  -30.4556  -19.3328   19.9161 H   0  0  0  0  0  0
  -29.2417  -18.3576   19.1729 H   0  0  0  0  0  0
  -24.4603  -22.5109   20.9212 H   0  0  0  0  0  0
  -23.6057  -20.9851   20.9724 H   0  0  0  0  0  0
  -30.0964  -24.1752   20.3663 H   0  0  0  0  0  0
  -29.0040  -23.8281   21.6385 H   0  0  0  0  0  0
  -30.1076  -17.5515   22.0028 H   0  0  0  0  0  0
  -31.3062  -17.4131   20.7822 H   0  0  0  0  0  0
  -27.1126  -24.5894   20.1650 H   0  0  0  0  0  0
  -28.1832  -24.7877   18.8072 H   0  0  0  0  0  0
  -28.8404  -15.7213   20.7865 H   0  0  0  0  0  0
  1 25  1  0  0  0
  1 30  2  0  0  0
  1 87  1  0  0  0
  2  3  1  0  0  0
  2 25  1  0  0  0
  2 88  1  0  0  0
  2 89  1  0  0  0
  3  4  1  0  0  0
  3 90  1  0  0  0
  3 91  1  0  0  0
  4  5  1  0  0  0
  4 92  1  0  0  0
  4 93  1  0  0  0
  5  6  1  0  0  0
  5 26  1  0  0  0
  5 94  1  0  0  0
  6 25  1  0  0  0
  6 95  1  0  0  0
  6 96  1  0  0  0
  7  8  2  0  0  0
  7 26  1  0  0  0
  7 29  1  0  0  0
  8  9  1  0  0  0
  8 22  1  0  0  0
  9 10  1  0  0  0
  9 27  2  0  0  0
 10 11  2  0  0  0
 10 15  1  0  0  0
 11 12  1  0  0  0
 11 97  1  0  0  0
 12 13  2  0  0  0
 12 98  1  0  0  0
 13 14  1  0  0  0
 13 31  1  0  0  0
 14 15  2  0  0  0
 14 99  1  0  0  0
 15100  1  0  0  0
 16 17  2  0  0  0
 16 21  1  0  0  0
 16 31  1  0  0  0
 17 18  1  0  0  0
 17101  1  0  0  0
 18 19  2  0  0  0
 18102  1  0  0  0
 19 20  1  0  0  0
 19 24  1  0  0  0
 20 21  2  0  0  0
 20103  1  0  0  0
 21 23  1  0  0  0
 22 28  1  0  0  0
 22 32  2  0  0  0
 26 27  1  0  0  0
 28104  1  0  0  0
 28105  1  0  0  0
 29106  1  0  0  0
 29107  1  0  0  0
 33 34  1  0  0  0
 33 66  1  0  0  0
 33 70  2  0  0  0
 34 36  1  0  0  0
 34 59  1  0  0  0
 34108  1  0  0  0
 35 44  2  0  0  0
 35 45  1  0  0  0
 35 68  1  0  0  0
 36 56  1  0  0  0
 36109  1  0  0  0
 37 39  1  0  0  0
 37 47  1  0  0  0
 37 66  1  0  0  0
 37110  1  0  0  0
 38 43  2  0  0  0
 38 46  1  0  0  0
 38 47  1  0  0  0
 39 64  1  0  0  0
 39 67  2  0  0  0
 40 52  1  0  0  0
 40 53  2  0  0  0
 40 58  1  0  0  0
 41111  1  0  0  0
 41112  1  0  0  0
 41113  1  0  0  0
 41 48  1  0  0  0
 42 43  1  0  0  0
 42 66  1  0  0  0
 42114  1  0  0  0
 42115  1  0  0  0
 43 44  1  0  0  0
 44116  1  0  0  0
 45 46  2  0  0  0
 45117  1  0  0  0
 46118  1  0  0  0
 47119  1  0  0  0
 47120  1  0  0  0
 48 56  1  0  0  0
 48 65  1  0  0  0
 48121  1  0  0  0
 49 50  1  0  0  0
 49 53  1  0  0  0
 49 64  1  0  0  0
 49122  1  0  0  0
 50 51  1  0  0  0
 50123  1  0  0  0
 50124  1  0  0  0
 51 52  1  0  0  0
 51125  1  0  0  0
 51126  1  0  0  0
 52127  1  0  0  0
 52128  1  0  0  0
 53 54  1  0  0  0
 54 55  2  0  0  0
 54129  1  0  0  0
 55 57  1  0  0  0
 55130  1  0  0  0
 56 69  2  0  0  0
 57 58  2  0  0  0
 57131  1  0  0  0
 58132  1  0  0  0
 59 60  1  0  0  0
 59 61  1  0  0  0
 59 62  1  0  0  0
 60133  1  0  0  0
 60134  1  0  0  0
 60135  1  0  0  0
 61136  1  0  0  0
 61137  1  0  0  0
 61138  1  0  0  0
 62139  1  0  0  0
 62140  1  0  0  0
 62141  1  0  0  0
 63 65  1  0  0  0
 63142  1  0  0  0
 63143  1  0  0  0
 63144  1  0  0  0
 64145  1  0  0  0
 65146  1  0  0  0
 68 85  1  0  0  0
 71 72  2  0  0  0
 71 73  1  0  0  0
 71147  1  0  0  0
 72 74  1  0  0  0
 72 78  1  0  0  0
 73 75  2  0  0  0
 73 79  1  0  0  0
 74 80  1  0  0  0
 74 86  2  0  0  0
 75 81  1  0  0  0
 75 86  1  0  0  0
 76 80  1  0  0  0
 76148  1  0  0  0
 76149  1  0  0  0
 76150  1  0  0  0
 77 82  1  0  0  0
 77151  1  0  0  0
 77152  1  0  0  0
 77153  1  0  0  0
 78 82  1  0  0  0
 78154  1  0  0  0
 78155  1  0  0  0
 79 83  1  0  0  0
 79156  1  0  0  0
 79157  1  0  0  0
 80158  1  0  0  0
 80159  1  0  0  0
 81 84  1  0  0  0
 81160  1  0  0  0
 81161  1  0  0  0
 82162  1  0  0  0
 82163  1  0  0  0
 83 85  1  0  0  0
 83164  1  0  0  0
 83165  1  0  0  0
 84 87  1  0  0  0
 84166  1  0  0  0
 84167  1  0  0  0
 85168  1  0  0  0
 85169  1  0  0  0
 87170  1  0  0  0
M  ISO  4   1 100  68 101  85 101  87 100
M  END
> <chiral flag>
0

> <version>
0

> <s_m_source_file>
/data/baiqing/PycharmProjects/Reinvent-master-3.2/result/LINK_invent/BTK/process_docking_weight1_custom_sum_contain_oxygen_bond_distance_aromatic_linkinvent_7_9_3/rearranged_h_0087.sdf

> <i_m_source_file_index>
49

> <r_mmod_Potential_Energy-OPLS-2005>
76.688720703125

> <r_mmod_Stretch_Energy-OPLS-2005>
138.819549560547

> <r_mmod_Bend_Energy-OPLS-2005>
214.989593505859

> <r_mmod_Torsional_Energy-OPLS-2005>
218.387420654297

> <r_mmod_Improper_Torsional_Energy-OPLS-2005>
4.89042615890503

> <r_mmod_Van_der_Waal_Energy-OPLS-2005>
131.936080932617

> <r_mmod_Electrostatic_Energy-OPLS-2005>
-518.460144042969

> <r_mmod_Solvation_Energy-OPLS-2005>
-210.241485595703

> <b_mmod_Minimization_Converged-OPLS-2005>
0

> <r_mmod_RMS_Derivative-OPLS-2005>
2.60661149024963

$$$$
50
                    3D
 Structure written by MMmdl.
167175  0  0  1  0            999 V2000
  -30.6627  -14.6727   20.5892 C   0  0  0  0  0  0
  -30.4352  -12.4431   19.4673 C   0  0  0  0  0  0
  -29.5129  -12.5372   18.2300 C   0  0  0  0  0  0
  -28.0357  -12.3597   18.6272 C   0  0  0  0  0  0
  -27.6494  -13.2249   19.8518 C   0  0  2  0  0  0
  -28.6840  -13.0738   20.9826 C   0  0  0  0  0  0
  -25.2546  -13.8176   20.5681 C   0  0  0  0  0  0
  -24.1816  -13.0414   20.9160 C   0  0  0  0  0  0
  -24.6410  -11.6902   20.8702 C   0  0  0  0  0  0
  -23.9088  -10.4281   21.0387 C   0  0  0  0  0  0
  -24.3632   -9.4201   21.9165 C   0  0  0  0  0  0
  -23.6298   -8.2240   22.0751 C   0  0  0  0  0  0
  -22.4284   -8.0274   21.3550 C   0  0  0  0  0  0
  -21.9923   -9.0251   20.4646 C   0  0  0  0  0  0
  -22.7252  -10.2123   20.3046 C   0  0  0  0  0  0
  -21.6865   -6.0746   22.5280 C   0  0  0  0  0  0
  -21.4012   -6.5644   23.8202 C   0  0  0  0  0  0
  -21.3660   -5.6796   24.9171 C   0  0  0  0  0  0
  -21.6047   -4.3058   24.7217 C   0  0  0  0  0  0
  -21.8827   -3.8153   23.4338 C   0  0  0  0  0  0
  -21.9192   -4.6970   22.3395 C   0  0  0  0  0  0
  -22.7852  -13.5204   21.1857 C   0  0  0  0  0  0
  -22.1661   -4.2161   21.0981 F   0  0  0  0  0  0
  -21.5630   -3.4533   25.7732 F   0  0  0  0  0  0
  -30.0017  -13.4653   20.4550 N   0  0  0  0  0  0
  -26.2961  -12.9382   20.3219 N   0  0  0  0  0  0
  -25.9321  -11.6527   20.5666 N   0  0  0  0  0  0
  -22.0511  -12.8169   22.0423 N   0  0  0  0  0  0
  -25.4225  -15.1906   20.4200 N   0  0  0  0  0  0
  -31.7741  -14.8083   20.0657 O   0  0  0  0  0  0
  -21.6640   -6.8881   21.4240 O   0  0  0  0  0  0
  -22.3518  -14.5504   20.6710 O   0  0  0  0  0  0
  -24.6260  -31.8608   23.2036 C   0  0  0  0  0  0
  -25.9121  -32.4786   23.8343 C   0  0  1  0  0  0
  -27.2246  -27.3098   20.1195 C   0  0  0  0  0  0
  -25.5926  -33.8580   24.2285 N   0  0  0  0  0  0
  -23.4213  -30.4870   21.5438 C   0  0  2  0  0  0
  -24.8718  -28.9485   20.1041 C   0  0  0  0  0  0
  -22.7476  -29.4637   22.4896 C   0  0  0  0  0  0
  -18.0289  -28.1420   22.8465 C   0  0  0  0  0  0
  -24.1504  -36.7320   23.2632 C   0  0  0  0  0  0
  -25.9639  -30.7882   21.3795 C   0  0  0  0  0  0
  -26.0399  -29.4160   20.7203 C   0  0  0  0  0  0
  -27.2190  -28.6087   20.7207 C   0  0  0  0  0  0
  -26.0390  -26.9157   19.4519 C   0  0  0  0  0  0
  -24.8752  -27.7057   19.4566 C   0  0  0  0  0  0
  -23.6398  -29.8292   20.1572 C   0  0  0  0  0  0
  -25.4118  -36.3093   24.0327 C   0  0  1  0  0  0
  -20.5881  -28.3732   23.1247 C   0  0  2  0  0  0
  -20.6795  -26.9451   22.5392 C   0  0  0  0  0  0
  -19.5777  -26.6408   21.5202 C   0  0  0  0  0  0
  -18.1950  -26.7958   22.1613 C   0  0  0  0  0  0
  -19.1534  -28.8885   23.2865 C   0  0  0  0  0  0
  -18.9464  -30.1473   23.8906 C   0  0  0  0  0  0
  -17.6468  -30.6609   24.0558 C   0  0  0  0  0  0
  -25.9044  -34.9452   23.5104 C   0  0  0  0  0  0
  -16.5359  -29.9109   23.6318 C   0  0  0  0  0  0
  -16.7273  -28.6531   23.0323 C   0  0  0  0  0  0
  -26.4499  -31.6582   25.0709 C   0  0  0  0  0  0
  -25.3712  -31.3703   26.1415 C   0  0  0  0  0  0
  -27.0353  -30.3002   24.6179 C   0  0  0  0  0  0
  -27.6068  -32.4303   25.7480 C   0  0  0  0  0  0
  -27.5600  -37.1803   24.8455 C   0  0  0  0  0  0
  -21.4184  -29.3093   22.3643 N   0  0  0  0  0  0
  -26.4314  -37.3773   23.9397 N   0  0  0  0  0  0
  -24.6887  -31.0627   22.0993 N   0  0  0  0  0  0
  -23.4182  -28.8169   23.2985 O   0  0  0  0  0  0
  -28.3191  -26.4259   20.2118 O   0  0  0  0  0  0
  -26.5618  -34.8922   22.4675 O   0  0  0  0  0  0
  -23.5425  -32.1400   23.7370 O   0  0  0  0  0  0
  -29.9181  -21.1794   21.9387 C   0  0  0  0  0  0
  -29.3229  -19.6920   20.1461 C   0  0  0  0  0  0
  -29.3503  -21.0441   20.6590 C   0  0  0  0  0  0
  -30.4203  -20.0448   22.6056 C   0  0  0  0  0  0
  -29.8625  -18.5728   20.8722 C   0  0  0  0  0  0
  -30.9459  -20.1757   24.0193 C   0  0  0  0  0  0
  -31.0620  -15.9518   23.3865 C   0  0  0  0  0  0
  -29.3032  -22.2836   18.4613 C   0  0  0  0  0  0
  -27.2111  -22.0311   19.8203 C   0  0  0  0  0  0
  -29.8926  -17.0916   20.2872 C   0  0  0  0  0  0
  -28.9783  -23.7815   20.4922 C   0  0  0  0  0  0
  -29.7663  -15.8909   22.5535 C   0  0  0  0  0  0
  -28.0760  -24.9840   19.9279 C   0  0  0  0  0  0
  -28.7303  -22.2897   19.8958 C   0  0  0  0  0  0
  -30.4282  -18.7985   22.0768 N   0  0  0  0  0  0
  -30.0017  -15.7874   21.0942 N   0  0  0  0  0  0
  -31.4748  -12.5707   19.1606 H   0  0  0  0  0  0
  -30.3870  -11.4462   19.9077 H   0  0  0  0  0  0
  -29.7931  -11.7827   17.4962 H   0  0  0  0  0  0
  -29.6476  -13.5024   17.7389 H   0  0  0  0  0  0
  -27.8759  -11.3049   18.8506 H   0  0  0  0  0  0
  -27.3900  -12.5918   17.7809 H   0  0  0  0  0  0
  -27.6685  -14.2646   19.5204 H   0  0  0  0  0  0
  -28.7146  -12.0410   21.3334 H   0  0  0  0  0  0
  -28.3548  -13.6497   21.8359 H   0  0  0  0  0  0
  -25.2786   -9.5667   22.4712 H   0  0  0  0  0  0
  -24.0019   -7.4637   22.7460 H   0  0  0  0  0  0
  -21.0866   -8.8766   19.8937 H   0  0  0  0  0  0
  -22.3723  -10.9661   19.6144 H   0  0  0  0  0  0
  -21.2002   -7.6154   23.9714 H   0  0  0  0  0  0
  -21.1478   -6.0524   25.9073 H   0  0  0  0  0  0
  -22.0607   -2.7616   23.2830 H   0  0  0  0  0  0
  -22.4155  -11.9840   22.4815 H   0  0  0  0  0  0
  -21.1114  -13.1138   22.2622 H   0  0  0  0  0  0
  -24.6572  -15.8422   20.5554 H   0  0  0  0  0  0
  -26.2849  -15.6443   20.1475 H   0  0  0  0  0  0
  -26.7174  -32.5457   23.1072 H   0  0  0  0  0  0
  -25.0033  -33.9709   25.0399 H   0  0  0  0  0  0
  -22.7169  -31.3088   21.4012 H   0  0  0  0  0  0
  -23.3762  -35.9661   23.3279 H   0  0  0  0  0  0
  -24.3580  -36.8971   22.2052 H   0  0  0  0  0  0
  -23.7280  -37.6520   23.6668 H   0  0  0  0  0  0
  -26.0924  -31.5516   20.6108 H   0  0  0  0  0  0
  -26.8447  -30.8366   22.0075 H   0  0  0  0  0  0
  -28.1086  -28.9596   21.2245 H   0  0  0  0  0  0
  -25.9721  -25.9749   18.9249 H   0  0  0  0  0  0
  -23.9882  -27.3508   18.9487 H   0  0  0  0  0  0
  -23.7614  -30.6094   19.4037 H   0  0  0  0  0  0
  -22.7610  -29.2602   19.8490 H   0  0  0  0  0  0
  -25.1294  -36.1944   25.0823 H   0  0  0  0  0  0
  -20.9969  -28.3355   24.1362 H   0  0  0  0  0  0
  -20.5720  -26.2358   23.3607 H   0  0  0  0  0  0
  -21.6665  -26.7513   22.1173 H   0  0  0  0  0  0
  -19.6957  -25.6304   21.1260 H   0  0  0  0  0  0
  -19.6731  -27.3197   20.6718 H   0  0  0  0  0  0
  -17.4215  -26.6676   21.4022 H   0  0  0  0  0  0
  -18.0361  -26.0125   22.9038 H   0  0  0  0  0  0
  -19.7946  -30.7266   24.2316 H   0  0  0  0  0  0
  -17.5029  -31.6281   24.5187 H   0  0  0  0  0  0
  -15.5356  -30.3013   23.7664 H   0  0  0  0  0  0
  -15.8673  -28.0864   22.7023 H   0  0  0  0  0  0
  -24.5928  -30.7026   25.7706 H   0  0  0  0  0  0
  -24.8838  -32.2854   26.4790 H   0  0  0  0  0  0
  -25.8004  -30.8897   27.0215 H   0  0  0  0  0  0
  -26.2931  -29.6726   24.1240 H   0  0  0  0  0  0
  -27.4081  -29.7288   25.4687 H   0  0  0  0  0  0
  -27.8781  -30.4282   23.9385 H   0  0  0  0  0  0
  -27.2717  -33.3628   26.2024 H   0  0  0  0  0  0
  -28.3887  -32.6823   25.0306 H   0  0  0  0  0  0
  -28.0720  -31.8434   26.5409 H   0  0  0  0  0  0
  -28.2580  -38.0138   24.7504 H   0  0  0  0  0  0
  -28.1140  -36.2653   24.6270 H   0  0  0  0  0  0
  -27.2294  -37.1421   25.8854 H   0  0  0  0  0  0
  -20.9377  -29.8833   21.6853 H   0  0  0  0  0  0
  -26.0208  -38.2859   24.1378 H   0  0  0  0  0  0
  -29.9543  -22.1377   22.4369 H   0  0  0  0  0  0
  -28.8742  -19.5055   19.1818 H   0  0  0  0  0  0
  -30.1198  -20.0915   24.7266 H   0  0  0  0  0  0
  -31.4167  -21.1475   24.1678 H   0  0  0  0  0  0
  -31.6766  -19.4014   24.2508 H   0  0  0  0  0  0
  -30.8364  -16.1980   24.4246 H   0  0  0  0  0  0
  -31.7540  -16.7085   23.0190 H   0  0  0  0  0  0
  -31.5850  -14.9962   23.3906 H   0  0  0  0  0  0
  -29.1077  -21.3485   17.9381 H   0  0  0  0  0  0
  -30.3826  -22.4325   18.4710 H   0  0  0  0  0  0
  -28.8689  -23.0711   17.8478 H   0  0  0  0  0  0
  -26.9945  -21.0647   19.3661 H   0  0  0  0  0  0
  -26.6879  -22.7734   19.2206 H   0  0  0  0  0  0
  -26.7644  -22.0286   20.8151 H   0  0  0  0  0  0
  -30.6928  -17.1001   19.5442 H   0  0  0  0  0  0
  -28.9794  -16.9823   19.7018 H   0  0  0  0  0  0
  -28.8126  -23.7656   21.5696 H   0  0  0  0  0  0
  -30.0297  -24.0392   20.3645 H   0  0  0  0  0  0
  -29.1347  -16.7509   22.7728 H   0  0  0  0  0  0
  -29.1934  -15.0642   22.9512 H   0  0  0  0  0  0
  -27.0829  -24.7437   20.3079 H   0  0  0  0  0  0
  -28.0234  -24.9026   18.8430 H   0  0  0  0  0  0
  1 25  1  0  0  0
  1 30  2  0  0  0
  1 86  1  0  0  0
  2  3  1  0  0  0
  2 25  1  0  0  0
  2 87  1  0  0  0
  2 88  1  0  0  0
  3  4  1  0  0  0
  3 89  1  0  0  0
  3 90  1  0  0  0
  4  5  1  0  0  0
  4 91  1  0  0  0
  4 92  1  0  0  0
  5  6  1  0  0  0
  5 26  1  0  0  0
  5 93  1  0  0  0
  6 25  1  0  0  0
  6 94  1  0  0  0
  6 95  1  0  0  0
  7  8  2  0  0  0
  7 26  1  0  0  0
  7 29  1  0  0  0
  8  9  1  0  0  0
  8 22  1  0  0  0
  9 10  1  0  0  0
  9 27  2  0  0  0
 10 11  2  0  0  0
 10 15  1  0  0  0
 11 12  1  0  0  0
 11 96  1  0  0  0
 12 13  2  0  0  0
 12 97  1  0  0  0
 13 14  1  0  0  0
 13 31  1  0  0  0
 14 15  2  0  0  0
 14 98  1  0  0  0
 15 99  1  0  0  0
 16 17  2  0  0  0
 16 21  1  0  0  0
 16 31  1  0  0  0
 17 18  1  0  0  0
 17100  1  0  0  0
 18 19  2  0  0  0
 18101  1  0  0  0
 19 20  1  0  0  0
 19 24  1  0  0  0
 20 21  2  0  0  0
 20102  1  0  0  0
 21 23  1  0  0  0
 22 28  1  0  0  0
 22 32  2  0  0  0
 26 27  1  0  0  0
 28103  1  0  0  0
 28104  1  0  0  0
 29105  1  0  0  0
 29106  1  0  0  0
 33 34  1  0  0  0
 33 66  1  0  0  0
 33 70  2  0  0  0
 34 36  1  0  0  0
 34 59  1  0  0  0
 34107  1  0  0  0
 35 44  2  0  0  0
 35 45  1  0  0  0
 35 68  1  0  0  0
 36 56  1  0  0  0
 36108  1  0  0  0
 37 39  1  0  0  0
 37 47  1  0  0  0
 37 66  1  0  0  0
 37109  1  0  0  0
 38 43  2  0  0  0
 38 46  1  0  0  0
 38 47  1  0  0  0
 39 64  1  0  0  0
 39 67  2  0  0  0
 40 52  1  0  0  0
 40 53  2  0  0  0
 40 58  1  0  0  0
 41110  1  0  0  0
 41111  1  0  0  0
 41112  1  0  0  0
 41 48  1  0  0  0
 42 43  1  0  0  0
 42 66  1  0  0  0
 42113  1  0  0  0
 42114  1  0  0  0
 43 44  1  0  0  0
 44115  1  0  0  0
 45 46  2  0  0  0
 45116  1  0  0  0
 46117  1  0  0  0
 47118  1  0  0  0
 47119  1  0  0  0
 48 56  1  0  0  0
 48 65  1  0  0  0
 48120  1  0  0  0
 49 50  1  0  0  0
 49 53  1  0  0  0
 49 64  1  0  0  0
 49121  1  0  0  0
 50 51  1  0  0  0
 50122  1  0  0  0
 50123  1  0  0  0
 51 52  1  0  0  0
 51124  1  0  0  0
 51125  1  0  0  0
 52126  1  0  0  0
 52127  1  0  0  0
 53 54  1  0  0  0
 54 55  2  0  0  0
 54128  1  0  0  0
 55 57  1  0  0  0
 55129  1  0  0  0
 56 69  2  0  0  0
 57 58  2  0  0  0
 57130  1  0  0  0
 58131  1  0  0  0
 59 60  1  0  0  0
 59 61  1  0  0  0
 59 62  1  0  0  0
 60132  1  0  0  0
 60133  1  0  0  0
 60134  1  0  0  0
 61135  1  0  0  0
 61136  1  0  0  0
 61137  1  0  0  0
 62138  1  0  0  0
 62139  1  0  0  0
 62140  1  0  0  0
 63 65  1  0  0  0
 63141  1  0  0  0
 63142  1  0  0  0
 63143  1  0  0  0
 64144  1  0  0  0
 65145  1  0  0  0
 68 83  1  0  0  0
 71 73  2  0  0  0
 71 74  1  0  0  0
 71146  1  0  0  0
 72 73  1  0  0  0
 72 75  2  0  0  0
 72147  1  0  0  0
 73 84  1  0  0  0
 74 76  1  0  0  0
 74 85  2  0  0  0
 75 80  1  0  0  0
 75 85  1  0  0  0
 76148  1  0  0  0
 76149  1  0  0  0
 76150  1  0  0  0
 77 82  1  0  0  0
 77151  1  0  0  0
 77152  1  0  0  0
 77153  1  0  0  0
 78154  1  0  0  0
 78155  1  0  0  0
 78156  1  0  0  0
 78 84  1  0  0  0
 79 84  1  0  0  0
 79157  1  0  0  0
 79158  1  0  0  0
 79159  1  0  0  0
 80 86  1  0  0  0
 80160  1  0  0  0
 80161  1  0  0  0
 81 83  1  0  0  0
 81 84  1  0  0  0
 81162  1  0  0  0
 81163  1  0  0  0
 82 86  1  0  0  0
 82164  1  0  0  0
 82165  1  0  0  0
 83166  1  0  0  0
 83167  1  0  0  0
M  ISO  4   1 100  68 101  83 101  86 100
M  END
> <chiral flag>
0

> <version>
0

> <s_m_source_file>
/data/baiqing/PycharmProjects/Reinvent-master-3.2/result/LINK_invent/BTK/process_docking_weight1_custom_sum_contain_oxygen_bond_distance_aromatic_linkinvent_7_9_3/rearranged_h_0087.sdf

> <i_m_source_file_index>
50

> <r_mmod_Potential_Energy-OPLS-2005>
48.5291175842285

> <r_mmod_Stretch_Energy-OPLS-2005>
112.015449523926

> <r_mmod_Bend_Energy-OPLS-2005>
173.825103759766

> <r_mmod_Torsional_Energy-OPLS-2005>
278.081756591797

> <r_mmod_Improper_Torsional_Energy-OPLS-2005>
6.14264965057373

> <r_mmod_Van_der_Waal_Energy-OPLS-2005>
164.315841674805

> <r_mmod_Electrostatic_Energy-OPLS-2005>
-548.267211914062

> <r_mmod_Solvation_Energy-OPLS-2005>
-195.033782958984

> <b_mmod_Minimization_Converged-OPLS-2005>
0

> <r_mmod_RMS_Derivative-OPLS-2005>
3.08588194847107

$$$$
51
                    3D
 Structure written by MMmdl.
163171  0  0  1  0            999 V2000
  -30.5714  -14.9672   20.4004 C   0  0  0  0  0  0
  -30.4346  -12.6033   19.4948 C   0  0  0  0  0  0
  -29.5187  -12.5300   18.2543 C   0  0  0  0  0  0
  -28.0551  -12.3104   18.6786 C   0  0  0  0  0  0
  -27.6251  -13.2546   19.8306 C   0  0  2  0  0  0
  -28.6691  -13.3168   20.9648 C   0  0  0  0  0  0
  -25.2445  -13.8219   20.5694 C   0  0  0  0  0  0
  -24.1772  -13.0441   20.9218 C   0  0  0  0  0  0
  -24.6397  -11.6931   20.8770 C   0  0  0  0  0  0
  -23.9088  -10.4297   21.0417 C   0  0  0  0  0  0
  -24.3620   -9.4197   21.9195 C   0  0  0  0  0  0
  -23.6284   -8.2240   22.0763 C   0  0  0  0  0  0
  -22.4283   -8.0284   21.3537 C   0  0  0  0  0  0
  -21.9915   -9.0262   20.4646 C   0  0  0  0  0  0
  -22.7257  -10.2136   20.3058 C   0  0  0  0  0  0
  -21.6849   -6.0731   22.5277 C   0  0  0  0  0  0
  -21.4019   -6.5638   23.8210 C   0  0  0  0  0  0
  -21.3657   -5.6788   24.9169 C   0  0  0  0  0  0
  -21.6052   -4.3055   24.7225 C   0  0  0  0  0  0
  -21.8813   -3.8143   23.4347 C   0  0  0  0  0  0
  -21.9190   -4.6956   22.3399 C   0  0  0  0  0  0
  -22.7793  -13.5207   21.1883 C   0  0  0  0  0  0
  -22.1658   -4.2141   21.0975 F   0  0  0  0  0  0
  -21.5624   -3.4541   25.7734 F   0  0  0  0  0  0
  -29.9424  -13.7215   20.3525 N   0  0  0  0  0  0
  -26.2876  -12.9476   20.3230 N   0  0  0  0  0  0
  -25.9328  -11.6610   20.5743 N   0  0  0  0  0  0
  -22.0436  -12.8204   22.0435 N   0  0  0  0  0  0
  -25.4112  -15.1957   20.4094 N   0  0  0  0  0  0
  -31.7874  -14.9623   20.1949 O   0  0  0  0  0  0
  -21.6648   -6.8885   21.4244 O   0  0  0  0  0  0
  -22.3472  -14.5509   20.6721 O   0  0  0  0  0  0
  -24.6462  -31.8408   23.1877 C   0  0  0  0  0  0
  -25.9244  -32.4664   23.8257 C   0  0  1  0  0  0
  -27.2138  -27.1033   20.1360 C   0  0  0  0  0  0
  -25.5975  -33.8465   24.2163 N   0  0  0  0  0  0
  -23.4516  -30.4601   21.5339 C   0  0  2  0  0  0
  -24.8992  -28.8853   20.1053 C   0  0  0  0  0  0
  -22.7584  -29.4503   22.4828 C   0  0  0  0  0  0
  -18.0310  -28.1376   22.8445 C   0  0  0  0  0  0
  -24.1495  -36.7238   23.2636 C   0  0  0  0  0  0
  -26.0106  -30.6992   21.3946 C   0  0  0  0  0  0
  -26.0803  -29.3102   20.7298 C   0  0  0  0  0  0
  -27.2345  -28.4348   20.7321 C   0  0  0  0  0  0
  -26.0048  -26.7950   19.4700 C   0  0  0  0  0  0
  -24.8762  -27.6405   19.4636 C   0  0  0  0  0  0
  -23.6782  -29.7916   20.1519 C   0  0  0  0  0  0
  -25.4120  -36.2991   24.0302 C   0  0  1  0  0  0
  -20.5924  -28.3707   23.1216 C   0  0  2  0  0  0
  -20.6792  -26.9404   22.5393 C   0  0  0  0  0  0
  -19.5773  -26.6356   21.5183 C   0  0  0  0  0  0
  -18.1952  -26.7912   22.1589 C   0  0  0  0  0  0
  -19.1559  -28.8857   23.2809 C   0  0  0  0  0  0
  -18.9483  -30.1454   23.8826 C   0  0  0  0  0  0
  -17.6479  -30.6570   24.0542 C   0  0  0  0  0  0
  -25.9085  -34.9374   23.5048 C   0  0  0  0  0  0
  -16.5375  -29.9065   23.6334 C   0  0  0  0  0  0
  -16.7290  -28.6494   23.0334 C   0  0  0  0  0  0
  -26.4549  -31.6557   25.0728 C   0  0  0  0  0  0
  -25.3708  -31.3782   26.1404 C   0  0  0  0  0  0
  -27.0433  -30.2929   24.6391 C   0  0  0  0  0  0
  -27.6066  -32.4351   25.7522 C   0  0  0  0  0  0
  -27.5576  -37.1750   24.8446 C   0  0  0  0  0  0
  -21.4270  -29.3027   22.3587 N   0  0  0  0  0  0
  -26.4271  -37.3712   23.9424 N   0  0  0  0  0  0
  -24.7232  -31.0230   22.0920 N   0  0  0  0  0  0
  -23.4200  -28.8040   23.2989 O   0  0  0  0  0  0
  -28.2458  -26.0851   20.2123 O   0  0  0  0  0  0
  -26.5667  -34.8898   22.4618 O   0  0  0  0  0  0
  -23.5577  -32.1288   23.7080 O   0  0  0  0  0  0
  -28.5157  -21.8024   19.9511 C   0  0  0  0  0  0
  -28.8428  -23.2205   20.2323 C   0  0  0  0  0  0
  -29.3937  -20.6653   20.3099 C   0  0  0  0  0  0
  -30.7694  -22.3312   21.1764 C   0  0  0  0  0  0
  -31.8260  -22.1664   23.4538 C   0  0  0  0  0  0
  -31.4370  -17.9715   19.4963 C   0  0  0  0  0  0
  -28.5115  -18.7990   18.7898 C   0  0  0  0  0  0
  -27.9904  -18.7451   21.2398 C   0  0  0  0  0  0
  -27.9319  -24.5759   19.9014 C   0  0  0  0  0  0
  -32.0151  -22.6022   21.9947 C   0  0  0  0  0  0
  -30.2210  -17.7566   20.4217 C   0  0  1  0  0  0
  -29.0860  -19.0212   20.1999 C   0  0  0  0  0  0
  -30.0173  -23.3998   20.8705 N   0  0  0  0  0  0
  -30.5189  -21.0347   20.9455 N   0  0  0  0  0  0
  -29.8381  -16.1957   20.4593 N   0  0  0  0  0  0
  -31.4685  -12.7483   19.1797 H   0  0  0  0  0  0
  -30.4238  -11.6613   20.0450 H   0  0  0  0  0  0
  -29.8423  -11.7282   17.5891 H   0  0  0  0  0  0
  -29.6013  -13.4563   17.6828 H   0  0  0  0  0  0
  -27.9616  -11.2726   19.0002 H   0  0  0  0  0  0
  -27.3893  -12.4242   17.8221 H   0  0  0  0  0  0
  -27.5784  -14.2497   19.3857 H   0  0  0  0  0  0
  -28.7602  -12.3560   21.4719 H   0  0  0  0  0  0
  -28.3677  -14.0435   21.7217 H   0  0  0  0  0  0
  -25.2755   -9.5679   22.4779 H   0  0  0  0  0  0
  -23.9986   -7.4638   22.7487 H   0  0  0  0  0  0
  -21.0843   -8.8785   19.8954 H   0  0  0  0  0  0
  -22.3713  -10.9676   19.6169 H   0  0  0  0  0  0
  -21.2020   -7.6145   23.9707 H   0  0  0  0  0  0
  -21.1490   -6.0523   25.9067 H   0  0  0  0  0  0
  -22.0598   -2.7605   23.2848 H   0  0  0  0  0  0
  -22.4048  -11.9852   22.4812 H   0  0  0  0  0  0
  -21.1058  -13.1251   22.2673 H   0  0  0  0  0  0
  -24.6352  -15.8444   20.4905 H   0  0  0  0  0  0
  -26.2528  -15.6297   20.0560 H   0  0  0  0  0  0
  -26.7302  -32.5241   23.0987 H   0  0  0  0  0  0
  -25.0097  -33.9543   25.0292 H   0  0  0  0  0  0
  -22.7572  -31.2882   21.3813 H   0  0  0  0  0  0
  -23.3754  -35.9562   23.3266 H   0  0  0  0  0  0
  -24.3594  -36.8921   22.2060 H   0  0  0  0  0  0
  -23.7276  -37.6426   23.6728 H   0  0  0  0  0  0
  -26.1734  -31.4574   20.6273 H   0  0  0  0  0  0
  -26.8767  -30.7469   22.0428 H   0  0  0  0  0  0
  -28.1280  -28.7462   21.2539 H   0  0  0  0  0  0
  -25.8876  -25.8511   18.9603 H   0  0  0  0  0  0
  -23.9765  -27.3088   18.9636 H   0  0  0  0  0  0
  -23.8182  -30.5725   19.4030 H   0  0  0  0  0  0
  -22.7910  -29.2410   19.8341 H   0  0  0  0  0  0
  -25.1309  -36.1790   25.0787 H   0  0  0  0  0  0
  -20.9994  -28.3305   24.1340 H   0  0  0  0  0  0
  -20.5678  -26.2303   23.3609 H   0  0  0  0  0  0
  -21.6667  -26.7396   22.1185 H   0  0  0  0  0  0
  -19.6949  -25.6257   21.1237 H   0  0  0  0  0  0
  -19.6737  -27.3143   20.6705 H   0  0  0  0  0  0
  -17.4217  -26.6622   21.4004 H   0  0  0  0  0  0
  -18.0362  -26.0051   22.8990 H   0  0  0  0  0  0
  -19.7973  -30.7266   24.2167 H   0  0  0  0  0  0
  -17.5057  -31.6258   24.5155 H   0  0  0  0  0  0
  -15.5381  -30.2946   23.7718 H   0  0  0  0  0  0
  -15.8681  -28.0818   22.7050 H   0  0  0  0  0  0
  -24.5901  -30.7113   25.7748 H   0  0  0  0  0  0
  -24.8860  -32.2962   26.4717 H   0  0  0  0  0  0
  -25.7921  -30.9038   27.0271 H   0  0  0  0  0  0
  -26.3079  -29.6629   24.1369 H   0  0  0  0  0  0
  -27.3985  -29.7264   25.5017 H   0  0  0  0  0  0
  -27.9020  -30.4141   23.9773 H   0  0  0  0  0  0
  -27.2654  -33.3701   26.1982 H   0  0  0  0  0  0
  -28.3928  -32.6840   25.0384 H   0  0  0  0  0  0
  -28.0692  -31.8566   26.5529 H   0  0  0  0  0  0
  -28.2502  -38.0125   24.7552 H   0  0  0  0  0  0
  -28.1156  -36.2653   24.6186 H   0  0  0  0  0  0
  -27.2310  -37.1287   25.8847 H   0  0  0  0  0  0
  -20.9483  -29.8759   21.6779 H   0  0  0  0  0  0
  -26.0114  -38.2756   24.1488 H   0  0  0  0  0  0
  -27.5631  -21.5881   19.4818 H   0  0  0  0  0  0
  -32.7060  -22.3950   24.0526 H   0  0  0  0  0  0
  -31.6522  -21.0904   23.5117 H   0  0  0  0  0  0
  -30.9678  -22.6674   23.9019 H   0  0  0  0  0  0
  -31.7908  -18.9998   19.5430 H   0  0  0  0  0  0
  -31.1975  -17.7449   18.4583 H   0  0  0  0  0  0
  -32.2846  -17.3508   19.7840 H   0  0  0  0  0  0
  -27.5850  -19.3507   18.6357 H   0  0  0  0  0  0
  -28.3106  -17.7470   18.5923 H   0  0  0  0  0  0
  -29.2181  -19.1482   18.0357 H   0  0  0  0  0  0
  -27.1729  -19.4634   21.1573 H   0  0  0  0  0  0
  -28.3961  -18.8230   22.2485 H   0  0  0  0  0  0
  -27.5621  -17.7510   21.1270 H   0  0  0  0  0  0
  -26.9674  -24.3636   20.3598 H   0  0  0  0  0  0
  -27.7602  -24.5342   18.8262 H   0  0  0  0  0  0
  -32.2565  -23.6664   21.9596 H   0  0  0  0  0  0
  -32.8597  -22.0779   21.5488 H   0  0  0  0  0  0
  -30.6043  -17.9343   21.4265 H   0  0  0  0  0  0
  -28.8505  -16.0367   20.5820 H   0  0  0  0  0  0
  1 25  1  0  0  0
  1 30  2  0  0  0
  1 85  1  0  0  0
  2  3  1  0  0  0
  2 25  1  0  0  0
  2 86  1  0  0  0
  2 87  1  0  0  0
  3  4  1  0  0  0
  3 88  1  0  0  0
  3 89  1  0  0  0
  4  5  1  0  0  0
  4 90  1  0  0  0
  4 91  1  0  0  0
  5  6  1  0  0  0
  5 26  1  0  0  0
  5 92  1  0  0  0
  6 25  1  0  0  0
  6 93  1  0  0  0
  6 94  1  0  0  0
  7  8  2  0  0  0
  7 26  1  0  0  0
  7 29  1  0  0  0
  8  9  1  0  0  0
  8 22  1  0  0  0
  9 10  1  0  0  0
  9 27  2  0  0  0
 10 11  2  0  0  0
 10 15  1  0  0  0
 11 12  1  0  0  0
 11 95  1  0  0  0
 12 13  2  0  0  0
 12 96  1  0  0  0
 13 14  1  0  0  0
 13 31  1  0  0  0
 14 15  2  0  0  0
 14 97  1  0  0  0
 15 98  1  0  0  0
 16 17  2  0  0  0
 16 21  1  0  0  0
 16 31  1  0  0  0
 17 18  1  0  0  0
 17 99  1  0  0  0
 18 19  2  0  0  0
 18100  1  0  0  0
 19 20  1  0  0  0
 19 24  1  0  0  0
 20 21  2  0  0  0
 20101  1  0  0  0
 21 23  1  0  0  0
 22 28  1  0  0  0
 22 32  2  0  0  0
 26 27  1  0  0  0
 28102  1  0  0  0
 28103  1  0  0  0
 29104  1  0  0  0
 29105  1  0  0  0
 33 34  1  0  0  0
 33 66  1  0  0  0
 33 70  2  0  0  0
 34 36  1  0  0  0
 34 59  1  0  0  0
 34106  1  0  0  0
 35 44  2  0  0  0
 35 45  1  0  0  0
 35 68  1  0  0  0
 36 56  1  0  0  0
 36107  1  0  0  0
 37 39  1  0  0  0
 37 47  1  0  0  0
 37 66  1  0  0  0
 37108  1  0  0  0
 38 43  2  0  0  0
 38 46  1  0  0  0
 38 47  1  0  0  0
 39 64  1  0  0  0
 39 67  2  0  0  0
 40 52  1  0  0  0
 40 53  2  0  0  0
 40 58  1  0  0  0
 41109  1  0  0  0
 41110  1  0  0  0
 41111  1  0  0  0
 41 48  1  0  0  0
 42 43  1  0  0  0
 42 66  1  0  0  0
 42112  1  0  0  0
 42113  1  0  0  0
 43 44  1  0  0  0
 44114  1  0  0  0
 45 46  2  0  0  0
 45115  1  0  0  0
 46116  1  0  0  0
 47117  1  0  0  0
 47118  1  0  0  0
 48 56  1  0  0  0
 48 65  1  0  0  0
 48119  1  0  0  0
 49 50  1  0  0  0
 49 53  1  0  0  0
 49 64  1  0  0  0
 49120  1  0  0  0
 50 51  1  0  0  0
 50121  1  0  0  0
 50122  1  0  0  0
 51 52  1  0  0  0
 51123  1  0  0  0
 51124  1  0  0  0
 52125  1  0  0  0
 52126  1  0  0  0
 53 54  1  0  0  0
 54 55  2  0  0  0
 54127  1  0  0  0
 55 57  1  0  0  0
 55128  1  0  0  0
 56 69  2  0  0  0
 57 58  2  0  0  0
 57129  1  0  0  0
 58130  1  0  0  0
 59 60  1  0  0  0
 59 61  1  0  0  0
 59 62  1  0  0  0
 60131  1  0  0  0
 60132  1  0  0  0
 60133  1  0  0  0
 61134  1  0  0  0
 61135  1  0  0  0
 61136  1  0  0  0
 62137  1  0  0  0
 62138  1  0  0  0
 62139  1  0  0  0
 63 65  1  0  0  0
 63140  1  0  0  0
 63141  1  0  0  0
 63142  1  0  0  0
 64143  1  0  0  0
 65144  1  0  0  0
 68 79  1  0  0  0
 71 72  2  0  0  0
 71 73  1  0  0  0
 71145  1  0  0  0
 72 79  1  0  0  0
 72 83  1  0  0  0
 73 82  1  0  0  0
 73 84  2  0  0  0
 74 80  1  0  0  0
 74 83  2  0  0  0
 74 84  1  0  0  0
 75 80  1  0  0  0
 75146  1  0  0  0
 75147  1  0  0  0
 75148  1  0  0  0
 76149  1  0  0  0
 76150  1  0  0  0
 76151  1  0  0  0
 76 81  1  0  0  0
 77152  1  0  0  0
 77153  1  0  0  0
 77154  1  0  0  0
 77 82  1  0  0  0
 78 82  1  0  0  0
 78155  1  0  0  0
 78156  1  0  0  0
 78157  1  0  0  0
 79158  1  0  0  0
 79159  1  0  0  0
 80160  1  0  0  0
 80161  1  0  0  0
 81 82  1  0  0  0
 81 85  1  0  0  0
 81162  1  0  0  0
 85163  1  0  0  0
M  ISO  4   1 100  68 101  79 101  85 100
M  END
> <chiral flag>
0

> <version>
0

> <s_m_source_file>
/data/baiqing/PycharmProjects/Reinvent-master-3.2/result/LINK_invent/BTK/process_docking_weight1_custom_sum_contain_oxygen_bond_distance_aromatic_linkinvent_7_9_3/rearranged_h_0087.sdf

> <i_m_source_file_index>
51

> <r_mmod_Potential_Energy-OPLS-2005>
120.445518493652

> <r_mmod_Stretch_Energy-OPLS-2005>
292.666595458984

> <r_mmod_Bend_Energy-OPLS-2005>
269.070953369141

> <r_mmod_Torsional_Energy-OPLS-2005>
207.760711669922

> <r_mmod_Improper_Torsional_Energy-OPLS-2005>
5.51916408538818

> <r_mmod_Van_der_Waal_Energy-OPLS-2005>
137.346832275391

> <r_mmod_Electrostatic_Energy-OPLS-2005>
-773.554992675781

> <r_mmod_Solvation_Energy-OPLS-2005>
-234.980621337891

> <b_mmod_Minimization_Converged-OPLS-2005>
0

> <r_mmod_RMS_Derivative-OPLS-2005>
3.733558177948

$$$$
52
                    3D
 Structure written by MMmdl.
164172  0  0  1  0            999 V2000
  -30.4804  -14.9982   20.4480 C   0  0  0  0  0  0
  -30.4495  -12.6342   19.4929 C   0  0  0  0  0  0
  -29.5218  -12.5314   18.2572 C   0  0  0  0  0  0
  -28.0650  -12.2871   18.6942 C   0  0  0  0  0  0
  -27.6288  -13.2368   19.8392 C   0  0  2  0  0  0
  -28.6685  -13.2731   20.9790 C   0  0  0  0  0  0
  -25.2481  -13.8211   20.5664 C   0  0  0  0  0  0
  -24.1773  -13.0433   20.9215 C   0  0  0  0  0  0
  -24.6390  -11.6927   20.8768 C   0  0  0  0  0  0
  -23.9078  -10.4278   21.0404 C   0  0  0  0  0  0
  -24.3615   -9.4194   21.9182 C   0  0  0  0  0  0
  -23.6261   -8.2244   22.0771 C   0  0  0  0  0  0
  -22.4244   -8.0277   21.3562 C   0  0  0  0  0  0
  -21.9891   -9.0261   20.4666 C   0  0  0  0  0  0
  -22.7248  -10.2127   20.3056 C   0  0  0  0  0  0
  -21.6845   -6.0709   22.5262 C   0  0  0  0  0  0
  -21.4027   -6.5620   23.8191 C   0  0  0  0  0  0
  -21.3661   -5.6790   24.9165 C   0  0  0  0  0  0
  -21.6021   -4.3041   24.7232 C   0  0  0  0  0  0
  -21.8833   -3.8126   23.4357 C   0  0  0  0  0  0
  -21.9193   -4.6934   22.3405 C   0  0  0  0  0  0
  -22.7801  -13.5215   21.1859 C   0  0  0  0  0  0
  -22.1640   -4.2103   21.0987 F   0  0  0  0  0  0
  -21.5629   -3.4538   25.7761 F   0  0  0  0  0  0
  -29.9304  -13.7179   20.3769 N   0  0  0  0  0  0
  -26.2880  -12.9391   20.3241 N   0  0  0  0  0  0
  -25.9321  -11.6540   20.5769 N   0  0  0  0  0  0
  -22.0465  -12.8202   22.0425 N   0  0  0  0  0  0
  -25.4167  -15.1926   20.3970 N   0  0  0  0  0  0
  -31.6899  -15.1019   20.2077 O   0  0  0  0  0  0
  -21.6633   -6.8860   21.4219 O   0  0  0  0  0  0
  -22.3499  -14.5525   20.6727 O   0  0  0  0  0  0
  -24.6487  -31.8347   23.1794 C   0  0  0  0  0  0
  -25.9239  -32.4638   23.8210 C   0  0  1  0  0  0
  -27.2200  -27.1127   20.1362 C   0  0  0  0  0  0
  -25.5945  -33.8440   24.2118 N   0  0  0  0  0  0
  -23.4494  -30.4575   21.5273 C   0  0  2  0  0  0
  -24.8967  -28.8733   20.1088 C   0  0  0  0  0  0
  -22.7587  -29.4496   22.4814 C   0  0  0  0  0  0
  -18.0297  -28.1334   22.8373 C   0  0  0  0  0  0
  -24.1506  -36.7260   23.2638 C   0  0  0  0  0  0
  -26.0060  -30.7051   21.3746 C   0  0  0  0  0  0
  -26.0797  -29.3139   20.7176 C   0  0  0  0  0  0
  -27.2459  -28.4534   20.7075 C   0  0  0  0  0  0
  -26.0060  -26.7679   19.5072 C   0  0  0  0  0  0
  -24.8724  -27.6131   19.4914 C   0  0  0  0  0  0
  -23.6741  -29.7815   20.1484 C   0  0  0  0  0  0
  -25.4136  -36.2984   24.0277 C   0  0  1  0  0  0
  -20.5905  -28.3677   23.1156 C   0  0  2  0  0  0
  -20.6786  -26.9362   22.5364 C   0  0  0  0  0  0
  -19.5787  -26.6305   21.5133 C   0  0  0  0  0  0
  -18.1938  -26.7847   22.1524 C   0  0  0  0  0  0
  -19.1563  -28.8829   23.2721 C   0  0  0  0  0  0
  -18.9488  -30.1406   23.8766 C   0  0  0  0  0  0
  -17.6495  -30.6535   24.0528 C   0  0  0  0  0  0
  -25.9079  -34.9351   23.5012 C   0  0  0  0  0  0
  -16.5374  -29.9037   23.6323 C   0  0  0  0  0  0
  -16.7283  -28.6468   23.0279 C   0  0  0  0  0  0
  -26.4545  -31.6538   25.0692 C   0  0  0  0  0  0
  -25.3703  -31.3707   26.1387 C   0  0  0  0  0  0
  -27.0478  -30.2924   24.6338 C   0  0  0  0  0  0
  -27.6060  -32.4351   25.7483 C   0  0  0  0  0  0
  -27.5566  -37.1777   24.8453 C   0  0  0  0  0  0
  -21.4271  -29.2998   22.3565 N   0  0  0  0  0  0
  -26.4279  -37.3716   23.9397 N   0  0  0  0  0  0
  -24.7205  -31.0225   22.0822 N   0  0  0  0  0  0
  -23.4224  -28.8025   23.2937 O   0  0  0  0  0  0
  -28.2878  -26.1397   20.1097 O   0  0  0  0  0  0
  -26.5693  -34.8883   22.4610 O   0  0  0  0  0  0
  -23.5592  -32.1228   23.7013 O   0  0  0  0  0  0
  -29.1913  -20.6332   17.9895 C   0  0  0  0  0  0
  -29.1534  -20.2604   19.3630 C   0  0  0  0  0  0
  -29.3088  -19.7101   16.9267 C   0  0  0  0  0  0
  -29.3586  -18.7606   19.5804 C   0  0  0  0  0  0
  -29.3800  -18.3496   17.2571 C   0  0  0  0  0  0
  -29.5487  -17.2338   16.2377 C   0  0  0  0  0  0
  -30.9020  -20.5261   15.1482 C   0  0  0  0  0  0
  -28.4377  -21.2717   15.0516 C   0  0  0  0  0  0
  -28.8910  -21.6083   20.3057 C   0  0  0  0  0  0
  -29.6792  -17.7137   20.7914 C   0  0  0  0  0  0
  -28.6602  -23.2066   19.6860 C   0  0  0  0  0  0
  -28.1281  -24.6194   20.4804 C   0  0  0  0  0  0
  -29.4394  -20.1719   15.4685 C   0  0  0  0  0  0
  -29.3889  -17.9312   18.5216 N   0  0  0  0  0  0
  -29.6218  -16.1230   20.6153 N   0  0  0  0  0  0
  -31.4742  -12.8334   19.1774 H   0  0  0  0  0  0
  -30.4769  -11.6876   20.0326 H   0  0  0  0  0  0
  -29.8544  -11.7241   17.6032 H   0  0  0  0  0  0
  -29.5790  -13.4488   17.6685 H   0  0  0  0  0  0
  -28.0032  -11.2519   19.0355 H   0  0  0  0  0  0
  -27.3850  -12.3621   17.8455 H   0  0  0  0  0  0
  -27.5899  -14.2316   19.3965 H   0  0  0  0  0  0
  -28.7869  -12.2979   21.4533 H   0  0  0  0  0  0
  -28.3591  -13.9601   21.7685 H   0  0  0  0  0  0
  -25.2765   -9.5639   22.4750 H   0  0  0  0  0  0
  -23.9945   -7.4642   22.7517 H   0  0  0  0  0  0
  -21.0818   -8.8799   19.8987 H   0  0  0  0  0  0
  -22.3721  -10.9654   19.6155 H   0  0  0  0  0  0
  -21.2037   -7.6130   23.9675 H   0  0  0  0  0  0
  -21.1450   -6.0528   25.9063 H   0  0  0  0  0  0
  -22.0614   -2.7576   23.2889 H   0  0  0  0  0  0
  -22.4071  -11.9844   22.4784 H   0  0  0  0  0  0
  -21.1105  -13.1240   22.2672 H   0  0  0  0  0  0
  -24.6454  -15.8463   20.4873 H   0  0  0  0  0  0
  -26.2453  -15.6202   20.0013 H   0  0  0  0  0  0
  -26.7332  -32.5257   23.0977 H   0  0  0  0  0  0
  -25.0129  -33.9528   25.0289 H   0  0  0  0  0  0
  -22.7498  -31.2813   21.3723 H   0  0  0  0  0  0
  -23.3755  -35.9600   23.3274 H   0  0  0  0  0  0
  -24.3608  -36.8958   22.2060 H   0  0  0  0  0  0
  -23.7287  -37.6436   23.6759 H   0  0  0  0  0  0
  -26.1615  -31.4619   20.6035 H   0  0  0  0  0  0
  -26.8740  -30.7540   22.0203 H   0  0  0  0  0  0
  -28.1577  -28.7955   21.1806 H   0  0  0  0  0  0
  -25.9247  -25.8051   19.0249 H   0  0  0  0  0  0
  -23.9700  -27.2670   19.0034 H   0  0  0  0  0  0
  -23.8035  -30.5567   19.3910 H   0  0  0  0  0  0
  -22.7836  -29.2267   19.8485 H   0  0  0  0  0  0
  -25.1315  -36.1796   25.0757 H   0  0  0  0  0  0
  -20.9956  -28.3299   24.1297 H   0  0  0  0  0  0
  -20.5604  -26.2295   23.3597 H   0  0  0  0  0  0
  -21.6664  -26.7311   22.1218 H   0  0  0  0  0  0
  -19.6995  -25.6203   21.1187 H   0  0  0  0  0  0
  -19.6781  -27.3086   20.6621 H   0  0  0  0  0  0
  -17.4217  -26.6504   21.3938 H   0  0  0  0  0  0
  -18.0395  -25.9994   22.8940 H   0  0  0  0  0  0
  -19.7992  -30.7167   24.2132 H   0  0  0  0  0  0
  -17.5092  -31.6229   24.5115 H   0  0  0  0  0  0
  -15.5368  -30.2907   23.7740 H   0  0  0  0  0  0
  -15.8663  -28.0805   22.6998 H   0  0  0  0  0  0
  -24.5934  -30.6984   25.7751 H   0  0  0  0  0  0
  -24.8821  -32.2861   26.4705 H   0  0  0  0  0  0
  -25.7939  -30.8983   27.0257 H   0  0  0  0  0  0
  -26.3129  -29.6582   24.1363 H   0  0  0  0  0  0
  -27.4121  -29.7293   25.4949 H   0  0  0  0  0  0
  -27.9017  -30.4176   23.9666 H   0  0  0  0  0  0
  -27.2656  -33.3746   26.1874 H   0  0  0  0  0  0
  -28.3963  -32.6770   25.0360 H   0  0  0  0  0  0
  -28.0669  -31.8609   26.5544 H   0  0  0  0  0  0
  -28.2524  -38.0112   24.7495 H   0  0  0  0  0  0
  -28.1097  -36.2628   24.6281 H   0  0  0  0  0  0
  -27.2288  -37.1434   25.8851 H   0  0  0  0  0  0
  -20.9483  -29.8819   21.6851 H   0  0  0  0  0  0
  -26.0117  -38.2760   24.1442 H   0  0  0  0  0  0
  -29.1647  -21.6743   17.7210 H   0  0  0  0  0  0
  -28.7023  -17.2082   15.5481 H   0  0  0  0  0  0
  -29.6026  -16.2556   16.7237 H   0  0  0  0  0  0
  -30.4787  -17.3696   15.6789 H   0  0  0  0  0  0
  -31.5661  -19.7025   15.4230 H   0  0  0  0  0  0
  -31.2417  -21.4195   15.6739 H   0  0  0  0  0  0
  -31.0475  -20.6945   14.0817 H   0  0  0  0  0  0
  -27.4229  -20.8711   15.0288 H   0  0  0  0  0  0
  -28.6512  -21.6448   14.0473 H   0  0  0  0  0  0
  -28.4333  -22.1351   15.7162 H   0  0  0  0  0  0
  -29.7239  -21.6572   21.0085 H   0  0  0  0  0  0
  -28.0258  -21.3629   20.9213 H   0  0  0  0  0  0
  -28.9422  -17.9413   21.5632 H   0  0  0  0  0  0
  -30.6396  -17.9797   21.2319 H   0  0  0  0  0  0
  -27.9496  -23.1085   18.8669 H   0  0  0  0  0  0
  -29.5976  -23.4813   19.2025 H   0  0  0  0  0  0
  -28.6212  -24.5781   21.4502 H   0  0  0  0  0  0
  -27.0780  -24.4652   20.7226 H   0  0  0  0  0  0
  -29.1913  -19.3259   14.8283 H   0  0  0  0  0  0
  -28.6667  -15.8163   20.6821 H   0  0  0  0  0  0
  1 25  1  0  0  0
  1 30  2  0  0  0
  1 85  1  0  0  0
  2  3  1  0  0  0
  2 25  1  0  0  0
  2 86  1  0  0  0
  2 87  1  0  0  0
  3  4  1  0  0  0
  3 88  1  0  0  0
  3 89  1  0  0  0
  4  5  1  0  0  0
  4 90  1  0  0  0
  4 91  1  0  0  0
  5  6  1  0  0  0
  5 26  1  0  0  0
  5 92  1  0  0  0
  6 25  1  0  0  0
  6 93  1  0  0  0
  6 94  1  0  0  0
  7  8  2  0  0  0
  7 26  1  0  0  0
  7 29  1  0  0  0
  8  9  1  0  0  0
  8 22  1  0  0  0
  9 10  1  0  0  0
  9 27  2  0  0  0
 10 11  2  0  0  0
 10 15  1  0  0  0
 11 12  1  0  0  0
 11 95  1  0  0  0
 12 13  2  0  0  0
 12 96  1  0  0  0
 13 14  1  0  0  0
 13 31  1  0  0  0
 14 15  2  0  0  0
 14 97  1  0  0  0
 15 98  1  0  0  0
 16 17  2  0  0  0
 16 21  1  0  0  0
 16 31  1  0  0  0
 17 18  1  0  0  0
 17 99  1  0  0  0
 18 19  2  0  0  0
 18100  1  0  0  0
 19 20  1  0  0  0
 19 24  1  0  0  0
 20 21  2  0  0  0
 20101  1  0  0  0
 21 23  1  0  0  0
 22 28  1  0  0  0
 22 32  2  0  0  0
 26 27  1  0  0  0
 28102  1  0  0  0
 28103  1  0  0  0
 29104  1  0  0  0
 29105  1  0  0  0
 33 34  1  0  0  0
 33 66  1  0  0  0
 33 70  2  0  0  0
 34 36  1  0  0  0
 34 59  1  0  0  0
 34106  1  0  0  0
 35 44  2  0  0  0
 35 45  1  0  0  0
 35 68  1  0  0  0
 36 56  1  0  0  0
 36107  1  0  0  0
 37 39  1  0  0  0
 37 47  1  0  0  0
 37 66  1  0  0  0
 37108  1  0  0  0
 38 43  2  0  0  0
 38 46  1  0  0  0
 38 47  1  0  0  0
 39 64  1  0  0  0
 39 67  2  0  0  0
 40 52  1  0  0  0
 40 53  2  0  0  0
 40 58  1  0  0  0
 41109  1  0  0  0
 41110  1  0  0  0
 41111  1  0  0  0
 41 48  1  0  0  0
 42 43  1  0  0  0
 42 66  1  0  0  0
 42112  1  0  0  0
 42113  1  0  0  0
 43 44  1  0  0  0
 44114  1  0  0  0
 45 46  2  0  0  0
 45115  1  0  0  0
 46116  1  0  0  0
 47117  1  0  0  0
 47118  1  0  0  0
 48 56  1  0  0  0
 48 65  1  0  0  0
 48119  1  0  0  0
 49 50  1  0  0  0
 49 53  1  0  0  0
 49 64  1  0  0  0
 49120  1  0  0  0
 50 51  1  0  0  0
 50121  1  0  0  0
 50122  1  0  0  0
 51 52  1  0  0  0
 51123  1  0  0  0
 51124  1  0  0  0
 52125  1  0  0  0
 52126  1  0  0  0
 53 54  1  0  0  0
 54 55  2  0  0  0
 54127  1  0  0  0
 55 57  1  0  0  0
 55128  1  0  0  0
 56 69  2  0  0  0
 57 58  2  0  0  0
 57129  1  0  0  0
 58130  1  0  0  0
 59 60  1  0  0  0
 59 61  1  0  0  0
 59 62  1  0  0  0
 60131  1  0  0  0
 60132  1  0  0  0
 60133  1  0  0  0
 61134  1  0  0  0
 61135  1  0  0  0
 61136  1  0  0  0
 62137  1  0  0  0
 62138  1  0  0  0
 62139  1  0  0  0
 63 65  1  0  0  0
 63140  1  0  0  0
 63141  1  0  0  0
 63142  1  0  0  0
 64143  1  0  0  0
 65144  1  0  0  0
 68 82  1  0  0  0
 71 72  2  0  0  0
 71 73  1  0  0  0
 71145  1  0  0  0
 72 74  1  0  0  0
 72 79  1  0  0  0
 73 75  2  0  0  0
 73 83  1  0  0  0
 74 80  1  0  0  0
 74 84  2  0  0  0
 75 76  1  0  0  0
 75 84  1  0  0  0
 76146  1  0  0  0
 76147  1  0  0  0
 76148  1  0  0  0
 77149  1  0  0  0
 77150  1  0  0  0
 77151  1  0  0  0
 77 83  1  0  0  0
 78 83  1  0  0  0
 78152  1  0  0  0
 78153  1  0  0  0
 78154  1  0  0  0
 79 81  1  0  0  0
 79155  1  0  0  0
 79156  1  0  0  0
 80 85  1  0  0  0
 80157  1  0  0  0
 80158  1  0  0  0
 81 82  1  0  0  0
 81159  1  0  0  0
 81160  1  0  0  0
 82161  1  0  0  0
 82162  1  0  0  0
 83163  1  0  0  0
 85164  1  0  0  0
M  ISO  4   1 100  68 101  82 101  85 100
M  END
> <chiral flag>
0

> <version>
0

> <s_m_source_file>
/data/baiqing/PycharmProjects/Reinvent-master-3.2/result/LINK_invent/BTK/process_docking_weight1_custom_sum_contain_oxygen_bond_distance_aromatic_linkinvent_7_9_3/rearranged_h_0087.sdf

> <i_m_source_file_index>
52

> <r_mmod_Potential_Energy-OPLS-2005>
414.259094238281

> <r_mmod_Stretch_Energy-OPLS-2005>
318.252380371094

> <r_mmod_Bend_Energy-OPLS-2005>
359.455780029297

> <r_mmod_Torsional_Energy-OPLS-2005>
223.707550048828

> <r_mmod_Improper_Torsional_Energy-OPLS-2005>
4.26244974136353

> <r_mmod_Van_der_Waal_Energy-OPLS-2005>
132.261688232422

> <r_mmod_Electrostatic_Energy-OPLS-2005>
-619.142517089844

> <r_mmod_Solvation_Energy-OPLS-2005>
-225.568817138672

> <b_mmod_Minimization_Converged-OPLS-2005>
0

> <r_mmod_RMS_Derivative-OPLS-2005>
5.67674446105957

$$$$
53
                    3D
 Structure written by MMmdl.
155163  0  0  1  0            999 V2000
  -30.5000  -14.9857   20.4175 C   0  0  0  0  0  0
  -30.4514  -12.6111   19.4974 C   0  0  0  0  0  0
  -29.5257  -12.5355   18.2588 C   0  0  0  0  0  0
  -28.0607  -12.3100   18.6796 C   0  0  0  0  0  0
  -27.6313  -13.2448   19.8400 C   0  0  2  0  0  0
  -28.6755  -13.2697   20.9773 C   0  0  0  0  0  0
  -25.2454  -13.8176   20.5697 C   0  0  0  0  0  0
  -24.1777  -13.0410   20.9234 C   0  0  0  0  0  0
  -24.6398  -11.6902   20.8764 C   0  0  0  0  0  0
  -23.9078  -10.4278   21.0409 C   0  0  0  0  0  0
  -24.3624   -9.4194   21.9188 C   0  0  0  0  0  0
  -23.6292   -8.2235   22.0758 C   0  0  0  0  0  0
  -22.4275   -8.0278   21.3544 C   0  0  0  0  0  0
  -21.9912   -9.0251   20.4648 C   0  0  0  0  0  0
  -22.7248  -10.2125   20.3058 C   0  0  0  0  0  0
  -21.6853   -6.0731   22.5276 C   0  0  0  0  0  0
  -21.4014   -6.5635   23.8209 C   0  0  0  0  0  0
  -21.3657   -5.6790   24.9172 C   0  0  0  0  0  0
  -21.6046   -4.3052   24.7224 C   0  0  0  0  0  0
  -21.8821   -3.8142   23.4345 C   0  0  0  0  0  0
  -21.9192   -4.6958   22.3402 C   0  0  0  0  0  0
  -22.7799  -13.5191   21.1881 C   0  0  0  0  0  0
  -22.1662   -4.2145   21.0979 F   0  0  0  0  0  0
  -21.5628   -3.4537   25.7736 F   0  0  0  0  0  0
  -29.9493  -13.7017   20.3833 N   0  0  0  0  0  0
  -26.2892  -12.9417   20.3242 N   0  0  0  0  0  0
  -25.9331  -11.6549   20.5745 N   0  0  0  0  0  0
  -22.0444  -12.8192   22.0441 N   0  0  0  0  0  0
  -25.4068  -15.1893   20.4071 N   0  0  0  0  0  0
  -31.6995  -15.0798   20.1372 O   0  0  0  0  0  0
  -21.6638   -6.8874   21.4238 O   0  0  0  0  0  0
  -22.3490  -14.5497   20.6723 O   0  0  0  0  0  0
  -24.6466  -31.8410   23.1851 C   0  0  0  0  0  0
  -25.9223  -32.4677   23.8254 C   0  0  1  0  0  0
  -27.2211  -27.1090   20.1541 C   0  0  0  0  0  0
  -25.5957  -33.8483   24.2171 N   0  0  0  0  0  0
  -23.4517  -30.4591   21.5320 C   0  0  2  0  0  0
  -24.9014  -28.8797   20.1127 C   0  0  0  0  0  0
  -22.7584  -29.4529   22.4854 C   0  0  0  0  0  0
  -18.0306  -28.1391   22.8476 C   0  0  0  0  0  0
  -24.1493  -36.7248   23.2643 C   0  0  0  0  0  0
  -26.0096  -30.7065   21.3874 C   0  0  0  0  0  0
  -26.0812  -29.3147   20.7296 C   0  0  0  0  0  0
  -27.2418  -28.4482   20.7278 C   0  0  0  0  0  0
  -26.0111  -26.7799   19.5031 C   0  0  0  0  0  0
  -24.8813  -27.6268   19.4830 C   0  0  0  0  0  0
  -23.6794  -29.7853   20.1531 C   0  0  0  0  0  0
  -25.4126  -36.3019   24.0313 C   0  0  1  0  0  0
  -20.5920  -28.3720   23.1229 C   0  0  2  0  0  0
  -20.6785  -26.9421   22.5401 C   0  0  0  0  0  0
  -19.5760  -26.6378   21.5208 C   0  0  0  0  0  0
  -18.1944  -26.7929   22.1623 C   0  0  0  0  0  0
  -19.1564  -28.8874   23.2843 C   0  0  0  0  0  0
  -18.9477  -30.1469   23.8871 C   0  0  0  0  0  0
  -17.6473  -30.6586   24.0556 C   0  0  0  0  0  0
  -25.9079  -34.9398   23.5056 C   0  0  0  0  0  0
  -16.5364  -29.9078   23.6334 C   0  0  0  0  0  0
  -16.7290  -28.6495   23.0360 C   0  0  0  0  0  0
  -26.4533  -31.6553   25.0709 C   0  0  0  0  0  0
  -25.3711  -31.3746   26.1399 C   0  0  0  0  0  0
  -27.0402  -30.2945   24.6310 C   0  0  0  0  0  0
  -27.6057  -32.4327   25.7499 C   0  0  0  0  0  0
  -27.5576  -37.1780   24.8467 C   0  0  0  0  0  0
  -21.4272  -29.3043   22.3601 N   0  0  0  0  0  0
  -26.4287  -37.3735   23.9409 N   0  0  0  0  0  0
  -24.7226  -31.0241   22.0897 N   0  0  0  0  0  0
  -23.4213  -28.8082   23.3018 O   0  0  0  0  0  0
  -28.2784  -26.1177   20.2060 O   0  0  0  0  0  0
  -26.5670  -34.8901   22.4638 O   0  0  0  0  0  0
  -23.5577  -32.1298   23.7055 O   0  0  0  0  0  0
  -31.6155  -18.4855   19.9699 C   0  0  0  0  0  0
  -32.6780  -19.3314   19.6644 C   0  0  0  0  0  0
  -31.3377  -21.1820   19.8557 C   0  0  0  0  0  0
  -30.3178  -18.9610   20.2408 C   0  0  0  0  0  0
  -30.1417  -20.4831   20.1611 C   0  0  0  0  0  0
  -28.0339  -17.9175   19.8496 C   0  0  0  0  0  0
  -28.9076  -21.5871   20.3196 C   0  0  0  0  0  0
  -29.1368  -23.2944   20.2216 C   0  0  0  0  0  0
  -28.0095  -24.5672   20.1981 C   0  0  0  0  0  0
  -29.3551  -17.6931   20.5935 C   0  0  2  0  0  0
  -32.5487  -20.6580   19.6155 N   0  0  0  0  0  0
  -29.6229  -16.0998   20.5887 N   0  0  0  0  0  0
  -31.4800  -12.7906   19.1806 H   0  0  0  0  0  0
  -30.4654  -11.6596   20.0313 H   0  0  0  0  0  0
  -29.8511  -11.7367   17.5911 H   0  0  0  0  0  0
  -29.6032  -13.4627   17.6888 H   0  0  0  0  0  0
  -27.9681  -11.2698   18.9943 H   0  0  0  0  0  0
  -27.3943  -12.4300   17.8247 H   0  0  0  0  0  0
  -27.5932  -14.2459   19.4101 H   0  0  0  0  0  0
  -28.7725  -12.2881   21.4436 H   0  0  0  0  0  0
  -28.3664  -13.9542   21.7693 H   0  0  0  0  0  0
  -25.2765   -9.5670   22.4767 H   0  0  0  0  0  0
  -23.9994   -7.4628   22.7483 H   0  0  0  0  0  0
  -21.0840   -8.8774   19.8956 H   0  0  0  0  0  0
  -22.3706  -10.9667   19.6171 H   0  0  0  0  0  0
  -21.2009   -7.6144   23.9709 H   0  0  0  0  0  0
  -21.1478   -6.0522   25.9075 H   0  0  0  0  0  0
  -22.0601   -2.7605   23.2846 H   0  0  0  0  0  0
  -22.4057  -11.9858   22.4841 H   0  0  0  0  0  0
  -21.1060  -13.1217   22.2640 H   0  0  0  0  0  0
  -24.6246  -15.8283   20.4999 H   0  0  0  0  0  0
  -26.2229  -15.6214   19.9973 H   0  0  0  0  0  0
  -26.7290  -32.5273   23.0981 H   0  0  0  0  0  0
  -25.0069  -33.9585   25.0295 H   0  0  0  0  0  0
  -22.7552  -31.2851   21.3748 H   0  0  0  0  0  0
  -23.3761  -35.9574   23.3288 H   0  0  0  0  0  0
  -24.3578  -36.8900   22.2061 H   0  0  0  0  0  0
  -23.7243  -37.6436   23.6692 H   0  0  0  0  0  0
  -26.1686  -31.4593   20.6139 H   0  0  0  0  0  0
  -26.8789  -30.7574   22.0317 H   0  0  0  0  0  0
  -28.1421  -28.7810   21.2250 H   0  0  0  0  0  0
  -25.9022  -25.8260   19.0111 H   0  0  0  0  0  0
  -23.9818  -27.2880   18.9875 H   0  0  0  0  0  0
  -23.8176  -30.5578   19.3958 H   0  0  0  0  0  0
  -22.7936  -29.2275   19.8431 H   0  0  0  0  0  0
  -25.1314  -36.1844   25.0804 H   0  0  0  0  0  0
  -21.0009  -28.3309   24.1350 H   0  0  0  0  0  0
  -20.5667  -26.2336   23.3623 H   0  0  0  0  0  0
  -21.6653  -26.7414   22.1206 H   0  0  0  0  0  0
  -19.6922  -25.6282   21.1253 H   0  0  0  0  0  0
  -19.6695  -27.3173   20.6727 H   0  0  0  0  0  0
  -17.4210  -26.6670   21.4030 H   0  0  0  0  0  0
  -18.0349  -26.0074   22.9025 H   0  0  0  0  0  0
  -19.7952  -30.7292   24.2234 H   0  0  0  0  0  0
  -17.5023  -31.6265   24.5160 H   0  0  0  0  0  0
  -15.5363  -30.2971   23.7666 H   0  0  0  0  0  0
  -15.8692  -28.0798   22.7096 H   0  0  0  0  0  0
  -24.5902  -30.7081   25.7716 H   0  0  0  0  0  0
  -24.8885  -32.2926   26.4759 H   0  0  0  0  0  0
  -25.7989  -30.8962   27.0218 H   0  0  0  0  0  0
  -26.3023  -29.6661   24.1311 H   0  0  0  0  0  0
  -27.3997  -29.7253   25.4892 H   0  0  0  0  0  0
  -27.8939  -30.4171   23.9644 H   0  0  0  0  0  0
  -27.2644  -33.3649   26.2011 H   0  0  0  0  0  0
  -28.3900  -32.6853   25.0352 H   0  0  0  0  0  0
  -28.0688  -31.8497   26.5468 H   0  0  0  0  0  0
  -28.2583  -38.0086   24.7510 H   0  0  0  0  0  0
  -28.1085  -36.2615   24.6300 H   0  0  0  0  0  0
  -27.2295  -37.1431   25.8869 H   0  0  0  0  0  0
  -20.9492  -29.8755   21.6772 H   0  0  0  0  0  0
  -26.0155  -38.2805   24.1405 H   0  0  0  0  0  0
  -31.8341  -17.4342   19.9973 H   0  0  0  0  0  0
  -33.6608  -18.9310   19.4635 H   0  0  0  0  0  0
  -31.3645  -22.2548   19.7906 H   0  0  0  0  0  0
  -27.6296  -18.9077   20.0621 H   0  0  0  0  0  0
  -27.2754  -17.1976   20.1471 H   0  0  0  0  0  0
  -28.1716  -17.8427   18.7709 H   0  0  0  0  0  0
  -28.4186  -21.3728   21.2703 H   0  0  0  0  0  0
  -28.1722  -21.3191   19.5608 H   0  0  0  0  0  0
  -29.6930  -23.4626   19.2997 H   0  0  0  0  0  0
  -29.8319  -23.5462   21.0224 H   0  0  0  0  0  0
  -27.3359  -24.3942   21.0378 H   0  0  0  0  0  0
  -27.4091  -24.3652   19.3128 H   0  0  0  0  0  0
  -29.1335  -17.8736   21.6464 H   0  0  0  0  0  0
  -28.7357  -15.6738   20.8032 H   0  0  0  0  0  0
  1 25  1  0  0  0
  1 30  2  0  0  0
  1 82  1  0  0  0
  2  3  1  0  0  0
  2 25  1  0  0  0
  2 83  1  0  0  0
  2 84  1  0  0  0
  3  4  1  0  0  0
  3 85  1  0  0  0
  3 86  1  0  0  0
  4  5  1  0  0  0
  4 87  1  0  0  0
  4 88  1  0  0  0
  5  6  1  0  0  0
  5 26  1  0  0  0
  5 89  1  0  0  0
  6 25  1  0  0  0
  6 90  1  0  0  0
  6 91  1  0  0  0
  7  8  2  0  0  0
  7 26  1  0  0  0
  7 29  1  0  0  0
  8  9  1  0  0  0
  8 22  1  0  0  0
  9 10  1  0  0  0
  9 27  2  0  0  0
 10 11  2  0  0  0
 10 15  1  0  0  0
 11 12  1  0  0  0
 11 92  1  0  0  0
 12 13  2  0  0  0
 12 93  1  0  0  0
 13 14  1  0  0  0
 13 31  1  0  0  0
 14 15  2  0  0  0
 14 94  1  0  0  0
 15 95  1  0  0  0
 16 17  2  0  0  0
 16 21  1  0  0  0
 16 31  1  0  0  0
 17 18  1  0  0  0
 17 96  1  0  0  0
 18 19  2  0  0  0
 18 97  1  0  0  0
 19 20  1  0  0  0
 19 24  1  0  0  0
 20 21  2  0  0  0
 20 98  1  0  0  0
 21 23  1  0  0  0
 22 28  1  0  0  0
 22 32  2  0  0  0
 26 27  1  0  0  0
 28 99  1  0  0  0
 28100  1  0  0  0
 29101  1  0  0  0
 29102  1  0  0  0
 33 34  1  0  0  0
 33 66  1  0  0  0
 33 70  2  0  0  0
 34 36  1  0  0  0
 34 59  1  0  0  0
 34103  1  0  0  0
 35 44  2  0  0  0
 35 45  1  0  0  0
 35 68  1  0  0  0
 36 56  1  0  0  0
 36104  1  0  0  0
 37 39  1  0  0  0
 37 47  1  0  0  0
 37 66  1  0  0  0
 37105  1  0  0  0
 38 43  2  0  0  0
 38 46  1  0  0  0
 38 47  1  0  0  0
 39 64  1  0  0  0
 39 67  2  0  0  0
 40 52  1  0  0  0
 40 53  2  0  0  0
 40 58  1  0  0  0
 41106  1  0  0  0
 41107  1  0  0  0
 41108  1  0  0  0
 41 48  1  0  0  0
 42 43  1  0  0  0
 42 66  1  0  0  0
 42109  1  0  0  0
 42110  1  0  0  0
 43 44  1  0  0  0
 44111  1  0  0  0
 45 46  2  0  0  0
 45112  1  0  0  0
 46113  1  0  0  0
 47114  1  0  0  0
 47115  1  0  0  0
 48 56  1  0  0  0
 48 65  1  0  0  0
 48116  1  0  0  0
 49 50  1  0  0  0
 49 53  1  0  0  0
 49 64  1  0  0  0
 49117  1  0  0  0
 50 51  1  0  0  0
 50118  1  0  0  0
 50119  1  0  0  0
 51 52  1  0  0  0
 51120  1  0  0  0
 51121  1  0  0  0
 52122  1  0  0  0
 52123  1  0  0  0
 53 54  1  0  0  0
 54 55  2  0  0  0
 54124  1  0  0  0
 55 57  1  0  0  0
 55125  1  0  0  0
 56 69  2  0  0  0
 57 58  2  0  0  0
 57126  1  0  0  0
 58127  1  0  0  0
 59 60  1  0  0  0
 59 61  1  0  0  0
 59 62  1  0  0  0
 60128  1  0  0  0
 60129  1  0  0  0
 60130  1  0  0  0
 61131  1  0  0  0
 61132  1  0  0  0
 61133  1  0  0  0
 62134  1  0  0  0
 62135  1  0  0  0
 62136  1  0  0  0
 63 65  1  0  0  0
 63137  1  0  0  0
 63138  1  0  0  0
 63139  1  0  0  0
 64140  1  0  0  0
 65141  1  0  0  0
 68 79  1  0  0  0
 71 72  2  0  0  0
 71 74  1  0  0  0
 71142  1  0  0  0
 72 81  1  0  0  0
 72143  1  0  0  0
 73 75  1  0  0  0
 73 81  2  0  0  0
 73144  1  0  0  0
 74 75  2  0  0  0
 74 80  1  0  0  0
 75 77  1  0  0  0
 76145  1  0  0  0
 76146  1  0  0  0
 76147  1  0  0  0
 76 80  1  0  0  0
 77 78  1  0  0  0
 77148  1  0  0  0
 77149  1  0  0  0
 78 79  1  0  0  0
 78150  1  0  0  0
 78151  1  0  0  0
 79152  1  0  0  0
 79153  1  0  0  0
 80 82  1  0  0  0
 80154  1  0  0  0
 82155  1  0  0  0
M  ISO  4   1 100  68 101  79 101  82 100
M  END
> <chiral flag>
0

> <version>
0

> <s_m_source_file>
/data/baiqing/PycharmProjects/Reinvent-master-3.2/result/LINK_invent/BTK/process_docking_weight1_custom_sum_contain_oxygen_bond_distance_aromatic_linkinvent_7_9_3/rearranged_h_0087.sdf

> <i_m_source_file_index>
53

> <r_mmod_Potential_Energy-OPLS-2005>
450.971710205078

> <r_mmod_Stretch_Energy-OPLS-2005>
322.830047607422

> <r_mmod_Bend_Energy-OPLS-2005>
390.410430908203

> <r_mmod_Torsional_Energy-OPLS-2005>
196.905532836914

> <r_mmod_Improper_Torsional_Energy-OPLS-2005>
4.27001953125

> <r_mmod_Van_der_Waal_Energy-OPLS-2005>
138.993759155273

> <r_mmod_Electrostatic_Energy-OPLS-2005>
-588.062622070312

> <r_mmod_Solvation_Energy-OPLS-2005>
-231.055816650391

> <b_mmod_Minimization_Converged-OPLS-2005>
0

> <r_mmod_RMS_Derivative-OPLS-2005>
0.730769455432892

$$$$
54
                    3D
 Structure written by MMmdl.
181189  0  0  1  0            999 V2000
  -30.7116  -14.4783   20.5663 C   0  0  0  0  0  0
  -30.4328  -12.3065   19.4349 C   0  0  0  0  0  0
  -29.5040  -12.4866   18.2159 C   0  0  0  0  0  0
  -28.0281  -12.3401   18.6325 C   0  0  0  0  0  0
  -27.6667  -13.2010   19.8732 C   0  0  2  0  0  0
  -28.7075  -13.0021   21.0003 C   0  0  0  0  0  0
  -25.2620  -13.8137   20.5659 C   0  0  0  0  0  0
  -24.1857  -13.0423   20.9167 C   0  0  0  0  0  0
  -24.6397  -11.6892   20.8720 C   0  0  0  0  0  0
  -23.9047  -10.4284   21.0391 C   0  0  0  0  0  0
  -24.3597   -9.4211   21.9173 C   0  0  0  0  0  0
  -23.6275   -8.2242   22.0754 C   0  0  0  0  0  0
  -22.4265   -8.0276   21.3542 C   0  0  0  0  0  0
  -21.9894   -9.0238   20.4641 C   0  0  0  0  0  0
  -22.7218  -10.2124   20.3043 C   0  0  0  0  0  0
  -21.6855   -6.0724   22.5271 C   0  0  0  0  0  0
  -21.4013   -6.5630   23.8204 C   0  0  0  0  0  0
  -21.3664   -5.6790   24.9170 C   0  0  0  0  0  0
  -21.6048   -4.3051   24.7226 C   0  0  0  0  0  0
  -21.8821   -3.8138   23.4349 C   0  0  0  0  0  0
  -21.9194   -4.6948   22.3402 C   0  0  0  0  0  0
  -22.7887  -13.5235   21.1836 C   0  0  0  0  0  0
  -22.1665   -4.2134   21.0981 F   0  0  0  0  0  0
  -21.5631   -3.4538   25.7741 F   0  0  0  0  0  0
  -30.0434  -13.2972   20.4515 N   0  0  0  0  0  0
  -26.3050  -12.9294   20.3334 N   0  0  0  0  0  0
  -25.9325  -11.6463   20.5741 N   0  0  0  0  0  0
  -22.0523  -12.8213   22.0388 N   0  0  0  0  0  0
  -25.4326  -15.1843   20.4050 N   0  0  0  0  0  0
  -31.8291  -14.6683   20.0797 O   0  0  0  0  0  0
  -21.6642   -6.8863   21.4235 O   0  0  0  0  0  0
  -22.3581  -14.5555   20.6715 O   0  0  0  0  0  0
  -24.6143  -31.8677   23.2112 C   0  0  0  0  0  0
  -25.9033  -32.4820   23.8395 C   0  0  1  0  0  0
  -27.2288  -27.4437   20.0877 C   0  0  0  0  0  0
  -25.5889  -33.8612   24.2320 N   0  0  0  0  0  0
  -23.3997  -30.4931   21.5513 C   0  0  2  0  0  0
  -24.8435  -28.9634   20.1103 C   0  0  0  0  0  0
  -22.7405  -29.4652   22.4985 C   0  0  0  0  0  0
  -18.0276  -28.1348   22.8466 C   0  0  0  0  0  0
  -24.1487  -36.7324   23.2634 C   0  0  0  0  0  0
  -25.9273  -30.8397   21.3613 C   0  0  0  0  0  0
  -26.0052  -29.4780   20.7002 C   0  0  0  0  0  0
  -27.2034  -28.7270   20.6789 C   0  0  0  0  0  0
  -26.0485  -26.9453   19.4872 C   0  0  0  0  0  0
  -24.8599  -27.6983   19.4991 C   0  0  0  0  0  0
  -23.6054  -29.8298   20.1644 C   0  0  0  0  0  0
  -25.4100  -36.3101   24.0330 C   0  0  1  0  0  0
  -20.5857  -28.3639   23.1292 C   0  0  2  0  0  0
  -20.6756  -26.9379   22.5390 C   0  0  0  0  0  0
  -19.5745  -26.6364   21.5171 C   0  0  0  0  0  0
  -18.1926  -26.7893   22.1592 C   0  0  0  0  0  0
  -19.1523  -28.8810   23.2878 C   0  0  0  0  0  0
  -18.9460  -30.1415   23.8886 C   0  0  0  0  0  0
  -17.6465  -30.6563   24.0540 C   0  0  0  0  0  0
  -25.9019  -34.9470   23.5117 C   0  0  0  0  0  0
  -16.5353  -29.9060   23.6312 C   0  0  0  0  0  0
  -16.7269  -28.6477   23.0333 C   0  0  0  0  0  0
  -26.4466  -31.6605   25.0732 C   0  0  0  0  0  0
  -25.3764  -31.3696   26.1508 C   0  0  0  0  0  0
  -27.0287  -30.3048   24.6087 C   0  0  0  0  0  0
  -27.6019  -32.4340   25.7517 C   0  0  0  0  0  0
  -27.5583  -37.1820   24.8452 C   0  0  0  0  0  0
  -21.4134  -29.3024   22.3722 N   0  0  0  0  0  0
  -26.4289  -37.3789   23.9405 N   0  0  0  0  0  0
  -24.6651  -31.0802   22.0998 N   0  0  0  0  0  0
  -23.4183  -28.8181   23.3014 O   0  0  0  0  0  0
  -28.3914  -26.7009   20.1156 O   0  0  0  0  0  0
  -26.5583  -34.8924   22.4678 O   0  0  0  0  0  0
  -23.5344  -32.1424   23.7542 O   0  0  0  0  0  0
  -30.0438  -21.5361   21.8166 C   0  0  0  0  0  0
  -28.9553  -22.3707   22.2074 C   0  0  0  0  0  0
  -27.7074  -21.6829   22.4897 C   0  0  0  0  0  0
  -29.9593  -20.1351   21.8577 C   0  0  0  0  0  0
  -27.7587  -20.2529   22.5368 C   0  0  0  0  0  0
  -25.7443  -23.3215   21.7217 C   0  0  0  0  0  0
  -25.9524  -22.5621   24.2172 C   0  0  0  0  0  0
  -28.4661  -24.6471   23.4360 C   0  0  0  0  0  0
  -30.7266  -24.0138   23.0269 C   0  0  0  0  0  0
  -26.0925  -18.7042   21.8097 C   0  0  0  0  0  0
  -26.8499  -18.7489   24.1749 C   0  0  0  0  0  0
  -31.1563  -19.2413   21.5134 C   0  0  0  0  0  0
  -31.0122  -17.7172   21.8175 C   0  0  0  0  0  0
  -29.4591  -24.6831   21.0317 C   0  0  0  0  0  0
  -30.1972  -16.9281   20.7630 C   0  0  0  0  0  0
  -28.2179  -25.2958   20.3575 C   0  0  0  0  0  0
  -26.2966  -22.3028   22.7377 C   0  0  0  0  0  0
  -29.3116  -23.8974   22.3843 C   0  0  0  0  0  0
  -28.8398  -19.5209   22.2389 N   0  0  0  0  0  0
  -29.9988  -15.5001   21.0734 N   0  0  0  0  0  0
  -26.6618  -19.4626   22.9168 N   0  0  0  0  0  0
  -31.4772  -12.4058   19.1310 H   0  0  0  0  0  0
  -30.3392  -11.2986   19.8432 H   0  0  0  0  0  0
  -29.7499  -11.7487   17.4513 H   0  0  0  0  0  0
  -29.6677  -13.4652   17.7622 H   0  0  0  0  0  0
  -27.8592  -11.2859   18.8566 H   0  0  0  0  0  0
  -27.3713  -12.5795   17.7950 H   0  0  0  0  0  0
  -27.7081  -14.2433   19.5569 H   0  0  0  0  0  0
  -28.6820  -11.9738   21.3634 H   0  0  0  0  0  0
  -28.4642  -13.6229   21.8637 H   0  0  0  0  0  0
  -25.2740   -9.5699   22.4746 H   0  0  0  0  0  0
  -23.9991   -7.4645   22.7484 H   0  0  0  0  0  0
  -21.0826   -8.8743   19.8946 H   0  0  0  0  0  0
  -22.3663  -10.9652   19.6151 H   0  0  0  0  0  0
  -21.2007   -7.6138   23.9700 H   0  0  0  0  0  0
  -21.1489   -6.0523   25.9073 H   0  0  0  0  0  0
  -22.0598   -2.7595   23.2854 H   0  0  0  0  0  0
  -22.4130  -11.9857   22.4742 H   0  0  0  0  0  0
  -21.1137  -13.1231   22.2596 H   0  0  0  0  0  0
  -24.6573  -15.8308   20.4996 H   0  0  0  0  0  0
  -26.2750  -15.6184   20.0496 H   0  0  0  0  0  0
  -26.7111  -32.5522   23.1170 H   0  0  0  0  0  0
  -25.0075  -33.9760   25.0484 H   0  0  0  0  0  0
  -22.6875  -31.3102   21.4148 H   0  0  0  0  0  0
  -23.3741  -35.9669   23.3281 H   0  0  0  0  0  0
  -24.3600  -36.8970   22.2060 H   0  0  0  0  0  0
  -23.7253  -37.6527   23.6670 H   0  0  0  0  0  0
  -26.0427  -31.6201   20.6074 H   0  0  0  0  0  0
  -26.8103  -30.8818   21.9858 H   0  0  0  0  0  0
  -28.1031  -29.1183   21.1325 H   0  0  0  0  0  0
  -26.0362  -25.9786   19.0052 H   0  0  0  0  0  0
  -23.9668  -27.3008   19.0351 H   0  0  0  0  0  0
  -23.7079  -30.6051   19.4037 H   0  0  0  0  0  0
  -22.7266  -29.2515   19.8733 H   0  0  0  0  0  0
  -25.1283  -36.1963   25.0824 H   0  0  0  0  0  0
  -20.9948  -28.3216   24.1410 H   0  0  0  0  0  0
  -20.5625  -26.2260   23.3581 H   0  0  0  0  0  0
  -21.6634  -26.7406   22.1201 H   0  0  0  0  0  0
  -19.6899  -25.6274   21.1207 H   0  0  0  0  0  0
  -19.6675  -27.3163   20.6688 H   0  0  0  0  0  0
  -17.4183  -26.6629   21.4010 H   0  0  0  0  0  0
  -18.0332  -26.0033   22.8991 H   0  0  0  0  0  0
  -19.7956  -30.7197   24.2273 H   0  0  0  0  0  0
  -17.5044  -31.6251   24.5139 H   0  0  0  0  0  0
  -15.5354  -30.2952   23.7659 H   0  0  0  0  0  0
  -15.8673  -28.0799   22.7036 H   0  0  0  0  0  0
  -24.5910  -30.7052   25.7892 H   0  0  0  0  0  0
  -24.8984  -32.2842   26.5022 H   0  0  0  0  0  0
  -25.8166  -30.8850   27.0227 H   0  0  0  0  0  0
  -26.2821  -29.6835   24.1129 H   0  0  0  0  0  0
  -27.4043  -29.7262   25.4534 H   0  0  0  0  0  0
  -27.8662  -30.4358   23.9231 H   0  0  0  0  0  0
  -27.2584  -33.3612   26.2110 H   0  0  0  0  0  0
  -28.3828  -32.6958   25.0368 H   0  0  0  0  0  0
  -28.0669  -31.8459   26.5436 H   0  0  0  0  0  0
  -28.2570  -38.0159   24.7528 H   0  0  0  0  0  0
  -28.1117  -36.2681   24.6225 H   0  0  0  0  0  0
  -27.2301  -37.1395   25.8860 H   0  0  0  0  0  0
  -20.9286  -29.8822   21.7018 H   0  0  0  0  0  0
  -26.0174  -38.2861   24.1430 H   0  0  0  0  0  0
  -30.9945  -21.9493   21.5211 H   0  0  0  0  0  0
  -26.2299  -23.2332   20.7506 H   0  0  0  0  0  0
  -25.7656  -24.3503   22.0682 H   0  0  0  0  0  0
  -24.6826  -23.1372   21.5413 H   0  0  0  0  0  0
  -26.1054  -21.6590   24.8089 H   0  0  0  0  0  0
  -24.9026  -22.8378   24.3286 H   0  0  0  0  0  0
  -26.5374  -23.3450   24.6864 H   0  0  0  0  0  0
  -27.4233  -24.7505   23.1896 H   0  0  0  0  0  0
  -28.8188  -25.6679   23.5842 H   0  0  0  0  0  0
  -28.5371  -24.1473   24.4026 H   0  0  0  0  0  0
  -30.8222  -23.3839   23.9107 H   0  0  0  0  0  0
  -30.9476  -25.0353   23.3426 H   0  0  0  0  0  0
  -31.5325  -23.7649   22.3389 H   0  0  0  0  0  0
  -26.2741  -19.2010   20.8552 H   0  0  0  0  0  0
  -25.0141  -18.6087   21.9354 H   0  0  0  0  0  0
  -26.5276  -17.7052   21.7574 H   0  0  0  0  0  0
  -27.3957  -19.3568   24.8980 H   0  0  0  0  0  0
  -27.4089  -17.8249   24.0214 H   0  0  0  0  0  0
  -25.8845  -18.4959   24.6143 H   0  0  0  0  0  0
  -31.9981  -19.6205   22.0942 H   0  0  0  0  0  0
  -31.4280  -19.3933   20.4685 H   0  0  0  0  0  0
  -30.6012  -17.5796   22.8179 H   0  0  0  0  0  0
  -32.0149  -17.2903   21.8485 H   0  0  0  0  0  0
  -30.1198  -25.5330   21.2140 H   0  0  0  0  0  0
  -29.9994  -24.0753   20.3056 H   0  0  0  0  0  0
  -30.6617  -17.0391   19.7807 H   0  0  0  0  0  0
  -29.2060  -17.3716   20.6639 H   0  0  0  0  0  0
  -27.3657  -25.1718   21.0048 H   0  0  0  0  0  0
  -27.9984  -24.7758   19.4236 H   0  0  0  0  0  0
  -25.5945  -21.5124   22.4864 H   0  0  0  0  0  0
  -29.1064  -15.2532   21.4750 H   0  0  0  0  0  0
  1 25  1  0  0  0
  1 30  2  0  0  0
  1 90  1  0  0  0
  2  3  1  0  0  0
  2 25  1  0  0  0
  2 92  1  0  0  0
  2 93  1  0  0  0
  3  4  1  0  0  0
  3 94  1  0  0  0
  3 95  1  0  0  0
  4  5  1  0  0  0
  4 96  1  0  0  0
  4 97  1  0  0  0
  5  6  1  0  0  0
  5 26  1  0  0  0
  5 98  1  0  0  0
  6 25  1  0  0  0
  6 99  1  0  0  0
  6100  1  0  0  0
  7  8  2  0  0  0
  7 26  1  0  0  0
  7 29  1  0  0  0
  8  9  1  0  0  0
  8 22  1  0  0  0
  9 10  1  0  0  0
  9 27  2  0  0  0
 10 11  2  0  0  0
 10 15  1  0  0  0
 11 12  1  0  0  0
 11101  1  0  0  0
 12 13  2  0  0  0
 12102  1  0  0  0
 13 14  1  0  0  0
 13 31  1  0  0  0
 14 15  2  0  0  0
 14103  1  0  0  0
 15104  1  0  0  0
 16 17  2  0  0  0
 16 21  1  0  0  0
 16 31  1  0  0  0
 17 18  1  0  0  0
 17105  1  0  0  0
 18 19  2  0  0  0
 18106  1  0  0  0
 19 20  1  0  0  0
 19 24  1  0  0  0
 20 21  2  0  0  0
 20107  1  0  0  0
 21 23  1  0  0  0
 22 28  1  0  0  0
 22 32  2  0  0  0
 26 27  1  0  0  0
 28108  1  0  0  0
 28109  1  0  0  0
 29110  1  0  0  0
 29111  1  0  0  0
 33 34  1  0  0  0
 33 66  1  0  0  0
 33 70  2  0  0  0
 34 36  1  0  0  0
 34 59  1  0  0  0
 34112  1  0  0  0
 35 44  2  0  0  0
 35 45  1  0  0  0
 35 68  1  0  0  0
 36 56  1  0  0  0
 36113  1  0  0  0
 37 39  1  0  0  0
 37 47  1  0  0  0
 37 66  1  0  0  0
 37114  1  0  0  0
 38 43  2  0  0  0
 38 46  1  0  0  0
 38 47  1  0  0  0
 39 64  1  0  0  0
 39 67  2  0  0  0
 40 52  1  0  0  0
 40 53  2  0  0  0
 40 58  1  0  0  0
 41115  1  0  0  0
 41116  1  0  0  0
 41117  1  0  0  0
 41 48  1  0  0  0
 42 43  1  0  0  0
 42 66  1  0  0  0
 42118  1  0  0  0
 42119  1  0  0  0
 43 44  1  0  0  0
 44120  1  0  0  0
 45 46  2  0  0  0
 45121  1  0  0  0
 46122  1  0  0  0
 47123  1  0  0  0
 47124  1  0  0  0
 48 56  1  0  0  0
 48 65  1  0  0  0
 48125  1  0  0  0
 49 50  1  0  0  0
 49 53  1  0  0  0
 49 64  1  0  0  0
 49126  1  0  0  0
 50 51  1  0  0  0
 50127  1  0  0  0
 50128  1  0  0  0
 51 52  1  0  0  0
 51129  1  0  0  0
 51130  1  0  0  0
 52131  1  0  0  0
 52132  1  0  0  0
 53 54  1  0  0  0
 54 55  2  0  0  0
 54133  1  0  0  0
 55 57  1  0  0  0
 55134  1  0  0  0
 56 69  2  0  0  0
 57 58  2  0  0  0
 57135  1  0  0  0
 58136  1  0  0  0
 59 60  1  0  0  0
 59 61  1  0  0  0
 59 62  1  0  0  0
 60137  1  0  0  0
 60138  1  0  0  0
 60139  1  0  0  0
 61140  1  0  0  0
 61141  1  0  0  0
 61142  1  0  0  0
 62143  1  0  0  0
 62144  1  0  0  0
 62145  1  0  0  0
 63 65  1  0  0  0
 63146  1  0  0  0
 63147  1  0  0  0
 63148  1  0  0  0
 64149  1  0  0  0
 65150  1  0  0  0
 68 86  1  0  0  0
 71 72  2  0  0  0
 71 74  1  0  0  0
 71151  1  0  0  0
 72 73  1  0  0  0
 72 88  1  0  0  0
 73 75  2  0  0  0
 73 87  1  0  0  0
 74 82  1  0  0  0
 74 89  2  0  0  0
 75 89  1  0  0  0
 75 91  1  0  0  0
 76152  1  0  0  0
 76153  1  0  0  0
 76154  1  0  0  0
 76 87  1  0  0  0
 77 87  1  0  0  0
 77155  1  0  0  0
 77156  1  0  0  0
 77157  1  0  0  0
 78158  1  0  0  0
 78159  1  0  0  0
 78160  1  0  0  0
 78 88  1  0  0  0
 79 88  1  0  0  0
 79161  1  0  0  0
 79162  1  0  0  0
 79163  1  0  0  0
 80 91  1  0  0  0
 80164  1  0  0  0
 80165  1  0  0  0
 80166  1  0  0  0
 81 91  1  0  0  0
 81167  1  0  0  0
 81168  1  0  0  0
 81169  1  0  0  0
 82 83  1  0  0  0
 82170  1  0  0  0
 82171  1  0  0  0
 83 85  1  0  0  0
 83172  1  0  0  0
 83173  1  0  0  0
 84 86  1  0  0  0
 84 88  1  0  0  0
 84174  1  0  0  0
 84175  1  0  0  0
 85 90  1  0  0  0
 85176  1  0  0  0
 85177  1  0  0  0
 86178  1  0  0  0
 86179  1  0  0  0
 87180  1  0  0  0
 90181  1  0  0  0
M  ISO  4   1 100  68 101  86 101  90 100
M  END
> <chiral flag>
0

> <version>
0

> <s_m_source_file>
/data/baiqing/PycharmProjects/Reinvent-master-3.2/result/LINK_invent/BTK/process_docking_weight1_custom_sum_contain_oxygen_bond_distance_aromatic_linkinvent_7_9_3/rearranged_h_0087.sdf

> <i_m_source_file_index>
54

> <r_mmod_Potential_Energy-OPLS-2005>
-158.582046508789

> <r_mmod_Stretch_Energy-OPLS-2005>
57.3626747131348

> <r_mmod_Bend_Energy-OPLS-2005>
168.870010375977

> <r_mmod_Torsional_Energy-OPLS-2005>
281.211517333984

> <r_mmod_Improper_Torsional_Energy-OPLS-2005>
9.5890531539917

> <r_mmod_Van_der_Waal_Energy-OPLS-2005>
187.220001220703

> <r_mmod_Electrostatic_Energy-OPLS-2005>
-664.938415527344

> <r_mmod_Solvation_Energy-OPLS-2005>
-211.395629882812

> <b_mmod_Minimization_Converged-OPLS-2005>
0

> <r_mmod_RMS_Derivative-OPLS-2005>
2.50010251998901

$$$$
55
                    3D
 Structure written by MMmdl.
177185  0  0  1  0            999 V2000
  -30.7345  -14.3878   20.4248 C   0  0  0  0  0  0
  -30.4116  -12.2158   19.4109 C   0  0  0  0  0  0
  -29.4838  -12.4399   18.1988 C   0  0  0  0  0  0
  -28.0059  -12.3298   18.6214 C   0  0  0  0  0  0
  -27.6571  -13.1919   19.8651 C   0  0  2  0  0  0
  -28.7139  -13.0128   20.9853 C   0  0  0  0  0  0
  -25.2605  -13.8154   20.5688 C   0  0  0  0  0  0
  -24.1835  -13.0443   20.9181 C   0  0  0  0  0  0
  -24.6378  -11.6900   20.8761 C   0  0  0  0  0  0
  -23.9038  -10.4289   21.0414 C   0  0  0  0  0  0
  -24.3592   -9.4204   21.9197 C   0  0  0  0  0  0
  -23.6272   -8.2248   22.0778 C   0  0  0  0  0  0
  -22.4254   -8.0287   21.3568 C   0  0  0  0  0  0
  -21.9877   -9.0247   20.4667 C   0  0  0  0  0  0
  -22.7202  -10.2127   20.3069 C   0  0  0  0  0  0
  -21.6847   -6.0732   22.5271 C   0  0  0  0  0  0
  -21.3999   -6.5628   23.8205 C   0  0  0  0  0  0
  -21.3653   -5.6796   24.9164 C   0  0  0  0  0  0
  -21.6054   -4.3063   24.7225 C   0  0  0  0  0  0
  -21.8819   -3.8145   23.4350 C   0  0  0  0  0  0
  -21.9198   -4.6959   22.3395 C   0  0  0  0  0  0
  -22.7851  -13.5249   21.1830 C   0  0  0  0  0  0
  -22.1660   -4.2139   21.0985 F   0  0  0  0  0  0
  -21.5625   -3.4545   25.7744 F   0  0  0  0  0  0
  -30.0524  -13.2219   20.4127 N   0  0  0  0  0  0
  -26.3022  -12.9281   20.3385 N   0  0  0  0  0  0
  -25.9310  -11.6458   20.5834 N   0  0  0  0  0  0
  -22.0514  -12.8250   22.0391 N   0  0  0  0  0  0
  -25.4342  -15.1855   20.4069 N   0  0  0  0  0  0
  -31.9519  -14.4850   20.2814 O   0  0  0  0  0  0
  -21.6647   -6.8868   21.4231 O   0  0  0  0  0  0
  -22.3557  -14.5566   20.6686 O   0  0  0  0  0  0
  -24.6053  -31.8762   23.2222 C   0  0  0  0  0  0
  -25.8982  -32.4874   23.8479 C   0  0  1  0  0  0
  -27.2291  -27.5031   20.0785 C   0  0  0  0  0  0
  -25.5894  -33.8685   24.2388 N   0  0  0  0  0  0
  -23.3855  -30.5035   21.5630 C   0  0  2  0  0  0
  -24.8319  -28.9854   20.1150 C   0  0  0  0  0  0
  -22.7352  -29.4652   22.5048 C   0  0  0  0  0  0
  -18.0266  -28.1325   22.8501 C   0  0  0  0  0  0
  -24.1504  -36.7316   23.2646 C   0  0  0  0  0  0
  -25.9125  -30.8595   21.3657 C   0  0  0  0  0  0
  -25.9893  -29.5039   20.7080 C   0  0  0  0  0  0
  -27.1897  -28.7682   20.6892 C   0  0  0  0  0  0
  -26.0561  -26.9886   19.4728 C   0  0  0  0  0  0
  -24.8589  -27.7238   19.4956 C   0  0  0  0  0  0
  -23.5885  -29.8438   20.1738 C   0  0  0  0  0  0
  -25.4129  -36.3134   24.0328 C   0  0  1  0  0  0
  -20.5832  -28.3582   23.1352 C   0  0  2  0  0  0
  -20.6786  -26.9344   22.5415 C   0  0  0  0  0  0
  -19.5760  -26.6335   21.5213 C   0  0  0  0  0  0
  -18.1910  -26.7894   22.1598 C   0  0  0  0  0  0
  -19.1503  -28.8783   23.2932 C   0  0  0  0  0  0
  -18.9462  -30.1415   23.8904 C   0  0  0  0  0  0
  -17.6465  -30.6578   24.0528 C   0  0  0  0  0  0
  -25.9060  -34.9504   23.5149 C   0  0  0  0  0  0
  -16.5354  -29.9045   23.6342 C   0  0  0  0  0  0
  -16.7262  -28.6449   23.0378 C   0  0  0  0  0  0
  -26.4435  -31.6646   25.0792 C   0  0  0  0  0  0
  -25.3717  -31.3664   26.1550 C   0  0  0  0  0  0
  -27.0257  -30.3129   24.6059 C   0  0  0  0  0  0
  -27.6023  -32.4369   25.7520 C   0  0  0  0  0  0
  -27.5585  -37.1820   24.8460 C   0  0  0  0  0  0
  -21.4103  -29.2954   22.3782 N   0  0  0  0  0  0
  -26.4320  -37.3807   23.9402 N   0  0  0  0  0  0
  -24.6529  -31.0900   22.1099 N   0  0  0  0  0  0
  -23.4170  -28.8164   23.3035 O   0  0  0  0  0  0
  -28.4277  -26.8376   20.0989 O   0  0  0  0  0  0
  -26.5594  -34.8907   22.4687 O   0  0  0  0  0  0
  -23.5271  -32.1481   23.7659 O   0  0  0  0  0  0
  -30.3165  -22.8491   19.9227 C   0  0  0  0  0  0
  -30.5897  -20.4888   20.4533 C   0  0  0  0  0  0
  -28.8150  -21.2014   18.9612 C   0  0  0  0  0  0
  -30.9680  -21.8286   20.6414 C   0  0  0  0  0  0
  -29.2087  -22.5384   19.0996 C   0  0  0  0  0  0
  -29.5512  -20.1531   19.5502 C   0  0  0  0  0  0
  -33.7570  -24.5607   20.3508 C   0  0  0  0  0  0
  -27.9898  -18.1922   19.7522 C   0  0  0  0  0  0
  -29.1212  -18.7409   17.5387 C   0  0  0  0  0  0
  -32.1399  -22.1523   21.5452 C   0  0  0  0  0  0
  -28.4417  -23.5610   18.2729 C   0  0  0  0  0  0
  -34.3634  -23.2972   20.9844 C   0  0  0  0  0  0
  -33.4800  -22.0582   20.7940 C   0  0  0  0  0  0
  -28.7534  -25.0286   18.5506 C   0  0  0  0  0  0
  -30.4536  -17.7864   19.4944 C   0  0  0  0  0  0
  -30.3756  -16.3334   19.0077 C   0  0  0  0  0  0
  -28.3922  -25.4304   19.9857 C   0  0  0  0  0  0
  -29.2766  -18.7123   19.0909 C   0  0  0  0  0  0
  -29.9574  -15.4048   20.0566 N   0  0  0  0  0  0
  -31.4564  -12.2846   19.1012 H   0  0  0  0  0  0
  -30.2820  -11.2102   19.8125 H   0  0  0  0  0  0
  -29.6991  -11.7019   17.4237 H   0  0  0  0  0  0
  -29.6765  -13.4187   17.7570 H   0  0  0  0  0  0
  -27.8055  -11.2774   18.8335 H   0  0  0  0  0  0
  -27.3569  -12.5946   17.7857 H   0  0  0  0  0  0
  -27.6801  -14.2266   19.5295 H   0  0  0  0  0  0
  -28.6525  -12.0112   21.4155 H   0  0  0  0  0  0
  -28.5329  -13.7081   21.8061 H   0  0  0  0  0  0
  -25.2753   -9.5676   22.4763 H   0  0  0  0  0  0
  -23.9992   -7.4633   22.7477 H   0  0  0  0  0  0
  -21.0839   -8.8760   19.8949 H   0  0  0  0  0  0
  -22.3690  -10.9666   19.6174 H   0  0  0  0  0  0
  -21.1970   -7.6139   23.9693 H   0  0  0  0  0  0
  -21.1469   -6.0535   25.9068 H   0  0  0  0  0  0
  -22.0601   -2.7612   23.2865 H   0  0  0  0  0  0
  -22.4117  -11.9865   22.4728 H   0  0  0  0  0  0
  -21.1139  -13.1259   22.2621 H   0  0  0  0  0  0
  -24.6650  -15.8407   20.4982 H   0  0  0  0  0  0
  -26.2939  -15.6318   20.1157 H   0  0  0  0  0  0
  -26.7036  -32.5593   23.1240 H   0  0  0  0  0  0
  -25.0167  -33.9934   25.0593 H   0  0  0  0  0  0
  -22.6700  -31.3179   21.4314 H   0  0  0  0  0  0
  -23.3782  -35.9629   23.3339 H   0  0  0  0  0  0
  -24.3618  -36.8944   22.2067 H   0  0  0  0  0  0
  -23.7256  -37.6514   23.6685 H   0  0  0  0  0  0
  -26.0236  -31.6289   20.6004 H   0  0  0  0  0  0
  -26.8022  -30.9076   21.9820 H   0  0  0  0  0  0
  -28.0856  -29.1676   21.1464 H   0  0  0  0  0  0
  -26.0494  -26.0375   18.9623 H   0  0  0  0  0  0
  -23.9660  -27.3264   19.0335 H   0  0  0  0  0  0
  -23.6894  -30.6260   19.4201 H   0  0  0  0  0  0
  -22.7152  -29.2618   19.8776 H   0  0  0  0  0  0
  -25.1302  -36.2029   25.0820 H   0  0  0  0  0  0
  -20.9939  -28.3143   24.1471 H   0  0  0  0  0  0
  -20.5717  -26.2174   23.3577 H   0  0  0  0  0  0
  -21.6660  -26.7454   22.1171 H   0  0  0  0  0  0
  -19.6955  -25.6247   21.1237 H   0  0  0  0  0  0
  -19.6738  -27.3156   20.6752 H   0  0  0  0  0  0
  -17.4216  -26.6669   21.3965 H   0  0  0  0  0  0
  -18.0317  -25.9991   22.8948 H   0  0  0  0  0  0
  -19.7949  -30.7218   24.2266 H   0  0  0  0  0  0
  -17.5033  -31.6283   24.5098 H   0  0  0  0  0  0
  -15.5355  -30.2940   23.7728 H   0  0  0  0  0  0
  -15.8642  -28.0780   22.7117 H   0  0  0  0  0  0
  -24.5882  -30.7038   25.7864 H   0  0  0  0  0  0
  -24.8869  -32.2769   26.5106 H   0  0  0  0  0  0
  -25.8078  -30.8766   27.0263 H   0  0  0  0  0  0
  -26.2735  -29.6884   24.1235 H   0  0  0  0  0  0
  -27.4244  -29.7383   25.4428 H   0  0  0  0  0  0
  -27.8457  -30.4531   23.9006 H   0  0  0  0  0  0
  -27.2696  -33.3689   26.2102 H   0  0  0  0  0  0
  -28.3809  -32.6956   25.0328 H   0  0  0  0  0  0
  -28.0698  -31.8487   26.5437 H   0  0  0  0  0  0
  -28.2594  -38.0124   24.7574 H   0  0  0  0  0  0
  -28.1096  -36.2681   24.6240 H   0  0  0  0  0  0
  -27.2302  -37.1411   25.8854 H   0  0  0  0  0  0
  -20.9276  -29.8679   21.7009 H   0  0  0  0  0  0
  -26.0212  -38.2880   24.1413 H   0  0  0  0  0  0
  -30.6904  -23.8588   20.0126 H   0  0  0  0  0  0
  -31.1671  -19.7382   20.9675 H   0  0  0  0  0  0
  -27.9789  -20.9927   18.3116 H   0  0  0  0  0  0
  -34.4634  -25.3888   20.3793 H   0  0  0  0  0  0
  -32.8569  -24.8885   20.8721 H   0  0  0  0  0  0
  -33.4859  -24.3898   19.3082 H   0  0  0  0  0  0
  -27.1444  -18.8533   19.5654 H   0  0  0  0  0  0
  -28.1104  -18.1054   20.8341 H   0  0  0  0  0  0
  -27.7248  -17.2064   19.3718 H   0  0  0  0  0  0
  -28.1958  -19.2222   17.2231 H   0  0  0  0  0  0
  -29.0853  -17.7696   17.0569 H   0  0  0  0  0  0
  -29.9441  -19.2869   17.0702 H   0  0  0  0  0  0
  -32.1444  -21.4630   22.3898 H   0  0  0  0  0  0
  -31.9951  -23.1394   21.9834 H   0  0  0  0  0  0
  -27.3748  -23.4020   18.4408 H   0  0  0  0  0  0
  -28.6166  -23.3376   17.2184 H   0  0  0  0  0  0
  -34.5359  -23.4578   22.0494 H   0  0  0  0  0  0
  -35.3406  -23.1089   20.5374 H   0  0  0  0  0  0
  -33.3106  -21.9018   19.7259 H   0  0  0  0  0  0
  -34.0158  -21.1695   21.1349 H   0  0  0  0  0  0
  -28.1695  -25.6230   17.8482 H   0  0  0  0  0  0
  -29.7987  -25.2485   18.3308 H   0  0  0  0  0  0
  -31.3772  -18.2152   19.1001 H   0  0  0  0  0  0
  -30.5702  -17.7679   20.5795 H   0  0  0  0  0  0
  -31.3507  -16.0746   18.5916 H   0  0  0  0  0  0
  -29.6941  -16.1803   18.1779 H   0  0  0  0  0  0
  -29.1116  -25.0582   20.7075 H   0  0  0  0  0  0
  -27.4461  -24.9925   20.3050 H   0  0  0  0  0  0
  -28.9677  -15.2257   20.1246 H   0  0  0  0  0  0
  1 25  1  0  0  0
  1 30  2  0  0  0
  1 89  1  0  0  0
  2  3  1  0  0  0
  2 25  1  0  0  0
  2 90  1  0  0  0
  2 91  1  0  0  0
  3  4  1  0  0  0
  3 92  1  0  0  0
  3 93  1  0  0  0
  4  5  1  0  0  0
  4 94  1  0  0  0
  4 95  1  0  0  0
  5  6  1  0  0  0
  5 26  1  0  0  0
  5 96  1  0  0  0
  6 25  1  0  0  0
  6 97  1  0  0  0
  6 98  1  0  0  0
  7  8  2  0  0  0
  7 26  1  0  0  0
  7 29  1  0  0  0
  8  9  1  0  0  0
  8 22  1  0  0  0
  9 10  1  0  0  0
  9 27  2  0  0  0
 10 11  2  0  0  0
 10 15  1  0  0  0
 11 12  1  0  0  0
 11 99  1  0  0  0
 12 13  2  0  0  0
 12100  1  0  0  0
 13 14  1  0  0  0
 13 31  1  0  0  0
 14 15  2  0  0  0
 14101  1  0  0  0
 15102  1  0  0  0
 16 17  2  0  0  0
 16 21  1  0  0  0
 16 31  1  0  0  0
 17 18  1  0  0  0
 17103  1  0  0  0
 18 19  2  0  0  0
 18104  1  0  0  0
 19 20  1  0  0  0
 19 24  1  0  0  0
 20 21  2  0  0  0
 20105  1  0  0  0
 21 23  1  0  0  0
 22 28  1  0  0  0
 22 32  2  0  0  0
 26 27  1  0  0  0
 28106  1  0  0  0
 28107  1  0  0  0
 29108  1  0  0  0
 29109  1  0  0  0
 33 34  1  0  0  0
 33 66  1  0  0  0
 33 70  2  0  0  0
 34 36  1  0  0  0
 34 59  1  0  0  0
 34110  1  0  0  0
 35 44  2  0  0  0
 35 45  1  0  0  0
 35 68  1  0  0  0
 36 56  1  0  0  0
 36111  1  0  0  0
 37 39  1  0  0  0
 37 47  1  0  0  0
 37 66  1  0  0  0
 37112  1  0  0  0
 38 43  2  0  0  0
 38 46  1  0  0  0
 38 47  1  0  0  0
 39 64  1  0  0  0
 39 67  2  0  0  0
 40 52  1  0  0  0
 40 53  2  0  0  0
 40 58  1  0  0  0
 41113  1  0  0  0
 41114  1  0  0  0
 41115  1  0  0  0
 41 48  1  0  0  0
 42 43  1  0  0  0
 42 66  1  0  0  0
 42116  1  0  0  0
 42117  1  0  0  0
 43 44  1  0  0  0
 44118  1  0  0  0
 45 46  2  0  0  0
 45119  1  0  0  0
 46120  1  0  0  0
 47121  1  0  0  0
 47122  1  0  0  0
 48 56  1  0  0  0
 48 65  1  0  0  0
 48123  1  0  0  0
 49 50  1  0  0  0
 49 53  1  0  0  0
 49 64  1  0  0  0
 49124  1  0  0  0
 50 51  1  0  0  0
 50125  1  0  0  0
 50126  1  0  0  0
 51 52  1  0  0  0
 51127  1  0  0  0
 51128  1  0  0  0
 52129  1  0  0  0
 52130  1  0  0  0
 53 54  1  0  0  0
 54 55  2  0  0  0
 54131  1  0  0  0
 55 57  1  0  0  0
 55132  1  0  0  0
 56 69  2  0  0  0
 57 58  2  0  0  0
 57133  1  0  0  0
 58134  1  0  0  0
 59 60  1  0  0  0
 59 61  1  0  0  0
 59 62  1  0  0  0
 60135  1  0  0  0
 60136  1  0  0  0
 60137  1  0  0  0
 61138  1  0  0  0
 61139  1  0  0  0
 61140  1  0  0  0
 62141  1  0  0  0
 62142  1  0  0  0
 62143  1  0  0  0
 63 65  1  0  0  0
 63144  1  0  0  0
 63145  1  0  0  0
 63146  1  0  0  0
 64147  1  0  0  0
 65148  1  0  0  0
 68 87  1  0  0  0
 71 74  2  0  0  0
 71 75  1  0  0  0
 71149  1  0  0  0
 72 74  1  0  0  0
 72 76  2  0  0  0
 72150  1  0  0  0
 73 75  2  0  0  0
 73 76  1  0  0  0
 73151  1  0  0  0
 74 80  1  0  0  0
 75 81  1  0  0  0
 76 88  1  0  0  0
 77 82  1  0  0  0
 77152  1  0  0  0
 77153  1  0  0  0
 77154  1  0  0  0
 78155  1  0  0  0
 78156  1  0  0  0
 78157  1  0  0  0
 78 88  1  0  0  0
 79 88  1  0  0  0
 79158  1  0  0  0
 79159  1  0  0  0
 79160  1  0  0  0
 80 83  1  0  0  0
 80161  1  0  0  0
 80162  1  0  0  0
 81 84  1  0  0  0
 81163  1  0  0  0
 81164  1  0  0  0
 82 83  1  0  0  0
 82165  1  0  0  0
 82166  1  0  0  0
 83167  1  0  0  0
 83168  1  0  0  0
 84 87  1  0  0  0
 84169  1  0  0  0
 84170  1  0  0  0
 85 86  1  0  0  0
 85 88  1  0  0  0
 85171  1  0  0  0
 85172  1  0  0  0
 86 89  1  0  0  0
 86173  1  0  0  0
 86174  1  0  0  0
 87175  1  0  0  0
 87176  1  0  0  0
 89177  1  0  0  0
M  ISO  4   1 100  68 101  87 101  89 100
M  END
> <chiral flag>
0

> <version>
0

> <s_m_source_file>
/data/baiqing/PycharmProjects/Reinvent-master-3.2/result/LINK_invent/BTK/process_docking_weight1_custom_sum_contain_oxygen_bond_distance_aromatic_linkinvent_7_9_3/rearranged_h_0087.sdf

> <i_m_source_file_index>
55

> <r_mmod_Potential_Energy-OPLS-2005>
61.9537773132324

> <r_mmod_Stretch_Energy-OPLS-2005>
32.0991401672363

> <r_mmod_Bend_Energy-OPLS-2005>
107.044853210449

> <r_mmod_Torsional_Energy-OPLS-2005>
277.175537109375

> <r_mmod_Improper_Torsional_Energy-OPLS-2005>
20.4106884002686

> <r_mmod_Van_der_Waal_Energy-OPLS-2005>
184.39680480957

> <r_mmod_Electrostatic_Energy-OPLS-2005>
-393.178405761719

> <r_mmod_Solvation_Energy-OPLS-2005>
-193.827026367188

> <b_mmod_Minimization_Converged-OPLS-2005>
0

> <r_mmod_RMS_Derivative-OPLS-2005>
4.94159364700317

$$$$
56
                    3D
 Structure written by MMmdl.
163171  0  0  1  0            999 V2000
  -30.7871  -14.2971   20.7740 C   0  0  0  0  0  0
  -30.4198  -12.3009   19.3687 C   0  0  0  0  0  0
  -29.4826  -12.5584   18.1762 C   0  0  0  0  0  0
  -28.0048  -12.3988   18.5836 C   0  0  0  0  0  0
  -27.6662  -13.1886   19.8724 C   0  0  2  0  0  0
  -28.6981  -12.8717   20.9703 C   0  0  0  0  0  0
  -25.2613  -13.8106   20.5630 C   0  0  0  0  0  0
  -24.1844  -13.0418   20.9118 C   0  0  0  0  0  0
  -24.6374  -11.6865   20.8668 C   0  0  0  0  0  0
  -23.9030  -10.4269   21.0367 C   0  0  0  0  0  0
  -24.3593   -9.4198   21.9156 C   0  0  0  0  0  0
  -23.6274   -8.2241   22.0764 C   0  0  0  0  0  0
  -22.4255   -8.0264   21.3556 C   0  0  0  0  0  0
  -21.9865   -9.0222   20.4654 C   0  0  0  0  0  0
  -22.7188  -10.2099   20.3041 C   0  0  0  0  0  0
  -21.6850   -6.0719   22.5286 C   0  0  0  0  0  0
  -21.4029   -6.5636   23.8217 C   0  0  0  0  0  0
  -21.3658   -5.6782   24.9173 C   0  0  0  0  0  0
  -21.6027   -4.3045   24.7219 C   0  0  0  0  0  0
  -21.8822   -3.8140   23.4347 C   0  0  0  0  0  0
  -21.9194   -4.6949   22.3401 C   0  0  0  0  0  0
  -22.7878  -13.5239   21.1804 C   0  0  0  0  0  0
  -22.1661   -4.2134   21.0973 F   0  0  0  0  0  0
  -21.5622   -3.4536   25.7744 F   0  0  0  0  0  0
  -30.0459  -13.1973   20.4739 N   0  0  0  0  0  0
  -26.3030  -12.9245   20.3282 N   0  0  0  0  0  0
  -25.9280  -11.6415   20.5644 N   0  0  0  0  0  0
  -22.0532  -12.8262   22.0385 N   0  0  0  0  0  0
  -25.4400  -15.1836   20.4142 N   0  0  0  0  0  0
  -31.7304  -14.6837   20.0775 O   0  0  0  0  0  0
  -21.6627   -6.8856   21.4250 O   0  0  0  0  0  0
  -22.3583  -14.5548   20.6637 O   0  0  0  0  0  0
  -24.6138  -31.8700   23.2174 C   0  0  0  0  0  0
  -25.9054  -32.4824   23.8451 C   0  0  1  0  0  0
  -27.2279  -27.4623   20.0545 C   0  0  0  0  0  0
  -25.5930  -33.8633   24.2381 N   0  0  0  0  0  0
  -23.3997  -30.4984   21.5584 C   0  0  2  0  0  0
  -24.8369  -28.9719   20.1165 C   0  0  0  0  0  0
  -22.7418  -29.4654   22.5015 C   0  0  0  0  0  0
  -18.0273  -28.1365   22.8492 C   0  0  0  0  0  0
  -24.1491  -36.7312   23.2643 C   0  0  0  0  0  0
  -25.9303  -30.8347   21.3742 C   0  0  0  0  0  0
  -25.9993  -29.4766   20.7118 C   0  0  0  0  0  0
  -27.1937  -28.7264   20.6836 C   0  0  0  0  0  0
  -26.0390  -26.9678   19.4644 C   0  0  0  0  0  0
  -24.8489  -27.7131   19.4981 C   0  0  0  0  0  0
  -23.6040  -29.8419   20.1691 C   0  0  0  0  0  0
  -25.4111  -36.3119   24.0352 C   0  0  1  0  0  0
  -20.5865  -28.3648   23.1321 C   0  0  2  0  0  0
  -20.6768  -26.9388   22.5410 C   0  0  0  0  0  0
  -19.5749  -26.6381   21.5202 C   0  0  0  0  0  0
  -18.1924  -26.7917   22.1608 C   0  0  0  0  0  0
  -19.1525  -28.8821   23.2901 C   0  0  0  0  0  0
  -18.9450  -30.1427   23.8913 C   0  0  0  0  0  0
  -17.6449  -30.6569   24.0560 C   0  0  0  0  0  0
  -25.9030  -34.9477   23.5153 C   0  0  0  0  0  0
  -16.5343  -29.9066   23.6321 C   0  0  0  0  0  0
  -16.7263  -28.6483   23.0350 C   0  0  0  0  0  0
  -26.4489  -31.6607   25.0775 C   0  0  0  0  0  0
  -25.3783  -31.3686   26.1547 C   0  0  0  0  0  0
  -27.0330  -30.3057   24.6150 C   0  0  0  0  0  0
  -27.6071  -32.4337   25.7517 C   0  0  0  0  0  0
  -27.5584  -37.1816   24.8471 C   0  0  0  0  0  0
  -21.4149  -29.3025   22.3744 N   0  0  0  0  0  0
  -26.4302  -37.3805   23.9413 N   0  0  0  0  0  0
  -24.6662  -31.0824   22.1069 N   0  0  0  0  0  0
  -23.4194  -28.8176   23.3036 O   0  0  0  0  0  0
  -28.4274  -26.7815   20.0305 O   0  0  0  0  0  0
  -26.5562  -34.8917   22.4696 O   0  0  0  0  0  0
  -23.5334  -32.1456   23.7567 O   0  0  0  0  0  0
  -28.6678  -18.7146   21.4256 C   0  0  0  0  0  0
  -26.6225  -19.5238   22.4073 C   0  0  0  0  0  0
  -27.5486  -19.5652   21.3426 C   0  0  0  0  0  0
  -28.7933  -17.9142   22.5787 C   0  0  0  0  0  0
  -29.1876  -14.8818   23.9713 C   0  0  0  0  0  0
  -27.3941  -20.5349   20.1857 C   0  0  0  0  0  0
  -29.9812  -16.9807   22.7483 C   0  0  0  0  0  0
  -27.3512  -21.9861   20.6916 C   0  0  0  0  0  0
  -27.8189  -23.0333   19.6720 C   0  0  0  0  0  0
  -27.8774  -24.4250   20.3155 C   0  0  0  0  0  0
  -28.4855  -25.5028   19.4008 C   0  0  0  0  0  0
  -29.5930  -15.4928   22.6121 C   0  0  1  0  0  0
  -26.7969  -18.7253   23.4888 N   0  0  0  0  0  0
  -27.8766  -17.9397   23.5792 N   0  0  0  0  0  0
  -30.7046  -14.7214   22.0453 N   0  0  0  0  0  0
  -31.4599  -12.4306   19.0633 H   0  0  0  0  0  0
  -30.3424  -11.2634   19.6979 H   0  0  0  0  0  0
  -29.7213  -11.8785   17.3570 H   0  0  0  0  0  0
  -29.6478  -13.5671   17.7925 H   0  0  0  0  0  0
  -27.8054  -11.3369   18.7319 H   0  0  0  0  0  0
  -27.3594  -12.7193   17.7649 H   0  0  0  0  0  0
  -27.7390  -14.2494   19.6364 H   0  0  0  0  0  0
  -28.6664  -11.8112   21.2180 H   0  0  0  0  0  0
  -28.4113  -13.3612   21.8885 H   0  0  0  0  0  0
  -25.2757   -9.5677   22.4691 H   0  0  0  0  0  0
  -23.9980   -7.4631   22.7490 H   0  0  0  0  0  0
  -21.0806   -8.8716   19.8962 H   0  0  0  0  0  0
  -22.3646  -10.9615   19.6123 H   0  0  0  0  0  0
  -21.2061   -7.6145   23.9731 H   0  0  0  0  0  0
  -21.1466   -6.0510   25.9071 H   0  0  0  0  0  0
  -22.0614   -2.7608   23.2848 H   0  0  0  0  0  0
  -22.4106  -11.9904   22.4753 H   0  0  0  0  0  0
  -21.1157  -13.1307   22.2568 H   0  0  0  0  0  0
  -24.6955  -15.8501   20.5855 H   0  0  0  0  0  0
  -26.3095  -15.6237   20.1426 H   0  0  0  0  0  0
  -26.7116  -32.5521   23.1202 H   0  0  0  0  0  0
  -25.0183  -33.9813   25.0592 H   0  0  0  0  0  0
  -22.6882  -31.3153   21.4253 H   0  0  0  0  0  0
  -23.3747  -35.9643   23.3327 H   0  0  0  0  0  0
  -24.3587  -36.8899   22.2049 H   0  0  0  0  0  0
  -23.7225  -37.6530   23.6624 H   0  0  0  0  0  0
  -26.0628  -31.6072   20.6163 H   0  0  0  0  0  0
  -26.8119  -30.8678   22.0028 H   0  0  0  0  0  0
  -28.0957  -29.1178   21.1336 H   0  0  0  0  0  0
  -25.9981  -26.0131   18.9624 H   0  0  0  0  0  0
  -23.9546  -27.3212   19.0344 H   0  0  0  0  0  0
  -23.7208  -30.6229   19.4166 H   0  0  0  0  0  0
  -22.7243  -29.2715   19.8651 H   0  0  0  0  0  0
  -25.1273  -36.2015   25.0840 H   0  0  0  0  0  0
  -20.9951  -28.3187   24.1445 H   0  0  0  0  0  0
  -20.5672  -26.2247   23.3586 H   0  0  0  0  0  0
  -21.6634  -26.7438   22.1196 H   0  0  0  0  0  0
  -19.6915  -25.6300   21.1207 H   0  0  0  0  0  0
  -19.6690  -27.3205   20.6738 H   0  0  0  0  0  0
  -17.4201  -26.6678   21.4000 H   0  0  0  0  0  0
  -18.0321  -26.0055   22.8995 H   0  0  0  0  0  0
  -19.7918  -30.7239   24.2300 H   0  0  0  0  0  0
  -17.4994  -31.6250   24.5155 H   0  0  0  0  0  0
  -15.5336  -30.2960   23.7640 H   0  0  0  0  0  0
  -15.8666  -28.0786   22.7069 H   0  0  0  0  0  0
  -24.5944  -30.7038   25.7904 H   0  0  0  0  0  0
  -24.8986  -32.2823   26.5063 H   0  0  0  0  0  0
  -25.8173  -30.8825   27.0269 H   0  0  0  0  0  0
  -26.2870  -29.6805   24.1233 H   0  0  0  0  0  0
  -27.4144  -29.7303   25.4596 H   0  0  0  0  0  0
  -27.8692  -30.4395   23.9284 H   0  0  0  0  0  0
  -27.2699  -33.3627   26.2130 H   0  0  0  0  0  0
  -28.3850  -32.6931   25.0322 H   0  0  0  0  0  0
  -28.0786  -31.8460   26.5406 H   0  0  0  0  0  0
  -28.2618  -38.0100   24.7509 H   0  0  0  0  0  0
  -28.1065  -36.2635   24.6310 H   0  0  0  0  0  0
  -27.2303  -37.1484   25.8876 H   0  0  0  0  0  0
  -20.9308  -29.8787   21.7004 H   0  0  0  0  0  0
  -26.0200  -38.2891   24.1399 H   0  0  0  0  0  0
  -29.4153  -18.6886   20.6448 H   0  0  0  0  0  0
  -25.7481  -20.1574   22.4146 H   0  0  0  0  0  0
  -29.9556  -15.0409   24.7287 H   0  0  0  0  0  0
  -29.0176  -13.8064   23.9188 H   0  0  0  0  0  0
  -28.2656  -15.3281   24.3432 H   0  0  0  0  0  0
  -26.4985  -20.2910   19.6125 H   0  0  0  0  0  0
  -28.2394  -20.4018   19.5085 H   0  0  0  0  0  0
  -30.4607  -17.1820   23.7077 H   0  0  0  0  0  0
  -30.7190  -17.2437   21.9893 H   0  0  0  0  0  0
  -28.0104  -22.0642   21.5574 H   0  0  0  0  0  0
  -26.3493  -22.2239   21.0528 H   0  0  0  0  0  0
  -27.1519  -23.0478   18.8088 H   0  0  0  0  0  0
  -28.8091  -22.7662   19.3008 H   0  0  0  0  0  0
  -28.4674  -24.3829   21.2312 H   0  0  0  0  0  0
  -26.8715  -24.7027   20.6294 H   0  0  0  0  0  0
  -28.0282  -25.5180   18.4110 H   0  0  0  0  0  0
  -29.5367  -25.2723   19.2246 H   0  0  0  0  0  0
  -28.7494  -15.4541   21.9225 H   0  0  0  0  0  0
  -31.5955  -15.0765   22.3594 H   0  0  0  0  0  0
  1 25  1  0  0  0
  1 30  2  0  0  0
  1 85  1  0  0  0
  2  3  1  0  0  0
  2 25  1  0  0  0
  2 86  1  0  0  0
  2 87  1  0  0  0
  3  4  1  0  0  0
  3 88  1  0  0  0
  3 89  1  0  0  0
  4  5  1  0  0  0
  4 90  1  0  0  0
  4 91  1  0  0  0
  5  6  1  0  0  0
  5 26  1  0  0  0
  5 92  1  0  0  0
  6 25  1  0  0  0
  6 93  1  0  0  0
  6 94  1  0  0  0
  7  8  2  0  0  0
  7 26  1  0  0  0
  7 29  1  0  0  0
  8  9  1  0  0  0
  8 22  1  0  0  0
  9 10  1  0  0  0
  9 27  2  0  0  0
 10 11  2  0  0  0
 10 15  1  0  0  0
 11 12  1  0  0  0
 11 95  1  0  0  0
 12 13  2  0  0  0
 12 96  1  0  0  0
 13 14  1  0  0  0
 13 31  1  0  0  0
 14 15  2  0  0  0
 14 97  1  0  0  0
 15 98  1  0  0  0
 16 17  2  0  0  0
 16 21  1  0  0  0
 16 31  1  0  0  0
 17 18  1  0  0  0
 17 99  1  0  0  0
 18 19  2  0  0  0
 18100  1  0  0  0
 19 20  1  0  0  0
 19 24  1  0  0  0
 20 21  2  0  0  0
 20101  1  0  0  0
 21 23  1  0  0  0
 22 28  1  0  0  0
 22 32  2  0  0  0
 26 27  1  0  0  0
 28102  1  0  0  0
 28103  1  0  0  0
 29104  1  0  0  0
 29105  1  0  0  0
 33 34  1  0  0  0
 33 66  1  0  0  0
 33 70  2  0  0  0
 34 36  1  0  0  0
 34 59  1  0  0  0
 34106  1  0  0  0
 35 44  2  0  0  0
 35 45  1  0  0  0
 35 68  1  0  0  0
 36 56  1  0  0  0
 36107  1  0  0  0
 37 39  1  0  0  0
 37 47  1  0  0  0
 37 66  1  0  0  0
 37108  1  0  0  0
 38 43  2  0  0  0
 38 46  1  0  0  0
 38 47  1  0  0  0
 39 64  1  0  0  0
 39 67  2  0  0  0
 40 52  1  0  0  0
 40 53  2  0  0  0
 40 58  1  0  0  0
 41109  1  0  0  0
 41110  1  0  0  0
 41111  1  0  0  0
 41 48  1  0  0  0
 42 43  1  0  0  0
 42 66  1  0  0  0
 42112  1  0  0  0
 42113  1  0  0  0
 43 44  1  0  0  0
 44114  1  0  0  0
 45 46  2  0  0  0
 45115  1  0  0  0
 46116  1  0  0  0
 47117  1  0  0  0
 47118  1  0  0  0
 48 56  1  0  0  0
 48 65  1  0  0  0
 48119  1  0  0  0
 49 50  1  0  0  0
 49 53  1  0  0  0
 49 64  1  0  0  0
 49120  1  0  0  0
 50 51  1  0  0  0
 50121  1  0  0  0
 50122  1  0  0  0
 51 52  1  0  0  0
 51123  1  0  0  0
 51124  1  0  0  0
 52125  1  0  0  0
 52126  1  0  0  0
 53 54  1  0  0  0
 54 55  2  0  0  0
 54127  1  0  0  0
 55 57  1  0  0  0
 55128  1  0  0  0
 56 69  2  0  0  0
 57 58  2  0  0  0
 57129  1  0  0  0
 58130  1  0  0  0
 59 60  1  0  0  0
 59 61  1  0  0  0
 59 62  1  0  0  0
 60131  1  0  0  0
 60132  1  0  0  0
 60133  1  0  0  0
 61134  1  0  0  0
 61135  1  0  0  0
 61136  1  0  0  0
 62137  1  0  0  0
 62138  1  0  0  0
 62139  1  0  0  0
 63 65  1  0  0  0
 63140  1  0  0  0
 63141  1  0  0  0
 63142  1  0  0  0
 64143  1  0  0  0
 65144  1  0  0  0
 68 81  1  0  0  0
 71 73  2  0  0  0
 71 74  1  0  0  0
 71145  1  0  0  0
 72 73  1  0  0  0
 72 83  2  0  0  0
 72146  1  0  0  0
 73 76  1  0  0  0
 74 77  1  0  0  0
 74 84  2  0  0  0
 75147  1  0  0  0
 75148  1  0  0  0
 75149  1  0  0  0
 75 82  1  0  0  0
 76 78  1  0  0  0
 76150  1  0  0  0
 76151  1  0  0  0
 77 82  1  0  0  0
 77152  1  0  0  0
 77153  1  0  0  0
 78 79  1  0  0  0
 78154  1  0  0  0
 78155  1  0  0  0
 79 80  1  0  0  0
 79156  1  0  0  0
 79157  1  0  0  0
 80 81  1  0  0  0
 80158  1  0  0  0
 80159  1  0  0  0
 81160  1  0  0  0
 81161  1  0  0  0
 82 85  1  0  0  0
 82162  1  0  0  0
 83 84  1  0  0  0
 85163  1  0  0  0
M  ISO  4   1 100  68 101  81 101  85 100
M  END
> <chiral flag>
0

> <version>
0

> <s_m_source_file>
/data/baiqing/PycharmProjects/Reinvent-master-3.2/result/LINK_invent/BTK/process_docking_weight1_custom_sum_contain_oxygen_bond_distance_aromatic_linkinvent_7_9_3/rearranged_h_0087.sdf

> <i_m_source_file_index>
56

> <r_mmod_Potential_Energy-OPLS-2005>
46.5832710266113

> <r_mmod_Stretch_Energy-OPLS-2005>
33.1771011352539

> <r_mmod_Bend_Energy-OPLS-2005>
104.989196777344

> <r_mmod_Torsional_Energy-OPLS-2005>
238.787231445312

> <r_mmod_Improper_Torsional_Energy-OPLS-2005>
13.4597578048706

> <r_mmod_Van_der_Waal_Energy-OPLS-2005>
159.483276367188

> <r_mmod_Electrostatic_Energy-OPLS-2005>
-296.094360351562

> <r_mmod_Solvation_Energy-OPLS-2005>
-218.620834350586

> <b_mmod_Minimization_Converged-OPLS-2005>
0

> <r_mmod_RMS_Derivative-OPLS-2005>
2.45967435836792

$$$$
57
                    3D
 Structure written by MMmdl.
173181  0  0  1  0            999 V2000
  -30.6828  -14.5535   20.5249 C   0  0  0  0  0  0
  -30.4195  -12.3482   19.4336 C   0  0  0  0  0  0
  -29.4953  -12.5109   18.2093 C   0  0  0  0  0  0
  -28.0190  -12.3639   18.6220 C   0  0  0  0  0  0
  -27.6546  -13.2198   19.8640 C   0  0  2  0  0  0
  -28.6983  -13.0577   20.9894 C   0  0  0  0  0  0
  -25.2567  -13.8184   20.5671 C   0  0  0  0  0  0
  -24.1832  -13.0435   20.9156 C   0  0  0  0  0  0
  -24.6415  -11.6924   20.8714 C   0  0  0  0  0  0
  -23.9079  -10.4304   21.0408 C   0  0  0  0  0  0
  -24.3638   -9.4218   21.9187 C   0  0  0  0  0  0
  -23.6305   -8.2256   22.0756 C   0  0  0  0  0  0
  -22.4284   -8.0291   21.3547 C   0  0  0  0  0  0
  -21.9932   -9.0264   20.4646 C   0  0  0  0  0  0
  -22.7257  -10.2151   20.3048 C   0  0  0  0  0  0
  -21.6862   -6.0743   22.5280 C   0  0  0  0  0  0
  -21.4013   -6.5639   23.8218 C   0  0  0  0  0  0
  -21.3648   -5.6784   24.9179 C   0  0  0  0  0  0
  -21.6027   -4.3047   24.7233 C   0  0  0  0  0  0
  -21.8817   -3.8149   23.4354 C   0  0  0  0  0  0
  -21.9203   -4.6968   22.3414 C   0  0  0  0  0  0
  -22.7860  -13.5226   21.1852 C   0  0  0  0  0  0
  -22.1680   -4.2157   21.0987 F   0  0  0  0  0  0
  -21.5637   -3.4525   25.7741 F   0  0  0  0  0  0
  -30.0183  -13.3668   20.4217 N   0  0  0  0  0  0
  -26.3007  -12.9382   20.3331 N   0  0  0  0  0  0
  -25.9339  -11.6536   20.5748 N   0  0  0  0  0  0
  -22.0518  -12.8169   22.0389 N   0  0  0  0  0  0
  -25.4241  -15.1892   20.4070 N   0  0  0  0  0  0
  -31.8448  -14.6828   20.1327 O   0  0  0  0  0  0
  -21.6650   -6.8887   21.4237 O   0  0  0  0  0  0
  -22.3526  -14.5555   20.6771 O   0  0  0  0  0  0
  -24.6196  -31.8652   23.2057 C   0  0  0  0  0  0
  -25.9078  -32.4794   23.8366 C   0  0  1  0  0  0
  -27.2342  -27.3849   20.1003 C   0  0  0  0  0  0
  -25.5937  -33.8602   24.2302 N   0  0  0  0  0  0
  -23.4084  -30.4876   21.5483 C   0  0  2  0  0  0
  -24.8523  -28.9426   20.1185 C   0  0  0  0  0  0
  -22.7420  -29.4659   22.4983 C   0  0  0  0  0  0
  -18.0278  -28.1377   22.8475 C   0  0  0  0  0  0
  -24.1504  -36.7296   23.2637 C   0  0  0  0  0  0
  -25.9416  -30.8146   21.3648 C   0  0  0  0  0  0
  -26.0160  -29.4459   20.7097 C   0  0  0  0  0  0
  -27.2061  -28.6748   20.6956 C   0  0  0  0  0  0
  -26.0405  -26.8993   19.5186 C   0  0  0  0  0  0
  -24.8609  -27.6697   19.5228 C   0  0  0  0  0  0
  -23.6182  -29.8172   20.1650 C   0  0  0  0  0  0
  -25.4123  -36.3096   24.0330 C   0  0  1  0  0  0
  -20.5866  -28.3675   23.1307 C   0  0  2  0  0  0
  -20.6778  -26.9410   22.5415 C   0  0  0  0  0  0
  -19.5763  -26.6379   21.5208 C   0  0  0  0  0  0
  -18.1935  -26.7926   22.1602 C   0  0  0  0  0  0
  -19.1526  -28.8840   23.2886 C   0  0  0  0  0  0
  -18.9451  -30.1448   23.8892 C   0  0  0  0  0  0
  -17.6451  -30.6584   24.0557 C   0  0  0  0  0  0
  -25.9055  -34.9464   23.5114 C   0  0  0  0  0  0
  -16.5341  -29.9078   23.6333 C   0  0  0  0  0  0
  -16.7263  -28.6499   23.0340 C   0  0  0  0  0  0
  -26.4480  -31.6587   25.0710 C   0  0  0  0  0  0
  -25.3740  -31.3699   26.1454 C   0  0  0  0  0  0
  -27.0330  -30.3031   24.6120 C   0  0  0  0  0  0
  -27.6047  -32.4311   25.7482 C   0  0  0  0  0  0
  -27.5588  -37.1809   24.8463 C   0  0  0  0  0  0
  -21.4146  -29.3042   22.3710 N   0  0  0  0  0  0
  -26.4302  -37.3779   23.9402 N   0  0  0  0  0  0
  -24.6748  -31.0714   22.0974 N   0  0  0  0  0  0
  -23.4176  -28.8217   23.3051 O   0  0  0  0  0  0
  -28.4132  -26.6475   20.1351 O   0  0  0  0  0  0
  -26.5601  -34.8918   22.4664 O   0  0  0  0  0  0
  -23.5377  -32.1430   23.7421 O   0  0  0  0  0  0
  -29.8689  -24.6217   22.0660 C   0  0  0  0  0  0
  -30.7593  -24.3137   23.1082 C   0  0  0  0  0  0
  -29.2975  -23.5939   21.2825 C   0  0  0  0  0  0
  -31.0349  -22.9619   23.3659 C   0  0  0  0  0  0
  -29.6578  -22.2350   21.6060 C   0  0  0  0  0  0
  -31.3875  -25.4271   23.9307 C   0  0  0  0  0  0
  -31.9862  -22.5249   24.4649 C   0  0  0  0  0  0
  -31.2936  -19.9715   20.0544 C   0  0  0  0  0  0
  -28.1691  -18.0048   21.5037 C   0  0  0  0  0  0
  -29.0481  -18.0904   19.1610 C   0  0  0  0  0  0
  -28.2878  -24.0248   20.1918 C   0  0  0  0  0  0
  -29.0983  -20.9333   20.9529 C   0  0  0  0  0  0
  -30.4531  -17.0431   21.0146 C   0  0  0  0  0  0
  -28.5586  -25.3820   19.4328 C   0  0  0  0  0  0
  -30.0632  -19.6588   20.9389 C   0  0  1  0  0  0
  -29.4400  -18.2111   20.6494 C   0  0  0  0  0  0
  -30.4754  -21.9716   22.6519 N   0  0  0  0  0  0
  -29.9597  -15.6372   20.9126 N   0  0  0  0  0  0
  -31.4648  -12.4411   19.1356 H   0  0  0  0  0  0
  -30.3148  -11.3482   19.8553 H   0  0  0  0  0  0
  -29.7447  -11.7772   17.4416 H   0  0  0  0  0  0
  -29.6506  -13.4901   17.7536 H   0  0  0  0  0  0
  -27.8305  -11.3105   18.8291 H   0  0  0  0  0  0
  -27.3703  -12.6310   17.7877 H   0  0  0  0  0  0
  -27.6780  -14.2603   19.5395 H   0  0  0  0  0  0
  -28.6883  -12.0393   21.3797 H   0  0  0  0  0  0
  -28.4643  -13.7028   21.8367 H   0  0  0  0  0  0
  -25.2796   -9.5672   22.4757 H   0  0  0  0  0  0
  -24.0013   -7.4621   22.7454 H   0  0  0  0  0  0
  -21.0876   -8.8767   19.8944 H   0  0  0  0  0  0
  -22.3708  -10.9691   19.6156 H   0  0  0  0  0  0
  -21.1995   -7.6145   23.9702 H   0  0  0  0  0  0
  -21.1475   -6.0536   25.9072 H   0  0  0  0  0  0
  -22.0611   -2.7613   23.2846 H   0  0  0  0  0  0
  -22.4188  -11.9838   22.4768 H   0  0  0  0  0  0
  -21.1143  -13.1184   22.2636 H   0  0  0  0  0  0
  -24.6484  -15.8352   20.4961 H   0  0  0  0  0  0
  -26.2670  -15.6277   20.0612 H   0  0  0  0  0  0
  -26.7140  -32.5488   23.1116 H   0  0  0  0  0  0
  -25.0144  -33.9765   25.0490 H   0  0  0  0  0  0
  -22.7003  -31.3068   21.4055 H   0  0  0  0  0  0
  -23.3771  -35.9627   23.3298 H   0  0  0  0  0  0
  -24.3593  -36.8910   22.2050 H   0  0  0  0  0  0
  -23.7252  -37.6498   23.6650 H   0  0  0  0  0  0
  -26.0659  -31.5806   20.5985 H   0  0  0  0  0  0
  -26.8243  -30.8614   21.9905 H   0  0  0  0  0  0
  -28.1045  -29.0656   21.1517 H   0  0  0  0  0  0
  -25.9859  -25.9174   19.0736 H   0  0  0  0  0  0
  -23.9586  -27.2685   19.0820 H   0  0  0  0  0  0
  -23.7342  -30.5918   19.4054 H   0  0  0  0  0  0
  -22.7392  -29.2429   19.8654 H   0  0  0  0  0  0
  -25.1308  -36.1951   25.0822 H   0  0  0  0  0  0
  -20.9940  -28.3241   24.1432 H   0  0  0  0  0  0
  -20.5687  -26.2279   23.3596 H   0  0  0  0  0  0
  -21.6651  -26.7468   22.1206 H   0  0  0  0  0  0
  -19.6936  -25.6288   21.1246 H   0  0  0  0  0  0
  -19.6720  -27.3179   20.6727 H   0  0  0  0  0  0
  -17.4215  -26.6668   21.3994 H   0  0  0  0  0  0
  -18.0335  -26.0064   22.8990 H   0  0  0  0  0  0
  -19.7927  -30.7266   24.2254 H   0  0  0  0  0  0
  -17.5009  -31.6266   24.5157 H   0  0  0  0  0  0
  -15.5344  -30.2973   23.7674 H   0  0  0  0  0  0
  -15.8662  -28.0825   22.7045 H   0  0  0  0  0  0
  -24.5919  -30.7033   25.7789 H   0  0  0  0  0  0
  -24.8925  -32.2858   26.4902 H   0  0  0  0  0  0
  -25.8100  -30.8871   27.0215 H   0  0  0  0  0  0
  -26.2889  -29.6772   24.1175 H   0  0  0  0  0  0
  -27.4093  -29.7278   25.4591 H   0  0  0  0  0  0
  -27.8725  -30.4336   23.9284 H   0  0  0  0  0  0
  -27.2663  -33.3611   26.2068 H   0  0  0  0  0  0
  -28.3863  -32.6875   25.0314 H   0  0  0  0  0  0
  -28.0712  -31.8431   26.5399 H   0  0  0  0  0  0
  -28.2606  -38.0105   24.7517 H   0  0  0  0  0  0
  -28.1089  -36.2642   24.6296 H   0  0  0  0  0  0
  -27.2305  -37.1456   25.8863 H   0  0  0  0  0  0
  -20.9310  -29.8748   21.6916 H   0  0  0  0  0  0
  -26.0196  -38.2862   24.1387 H   0  0  0  0  0  0
  -29.6298  -25.6581   21.8887 H   0  0  0  0  0  0
  -31.1402  -26.4081   23.5233 H   0  0  0  0  0  0
  -32.4739  -25.3373   23.9393 H   0  0  0  0  0  0
  -31.0342  -25.3919   24.9620 H   0  0  0  0  0  0
  -31.6933  -22.9480   25.4258 H   0  0  0  0  0  0
  -33.0016  -22.8523   24.2397 H   0  0  0  0  0  0
  -32.0033  -21.4387   24.5713 H   0  0  0  0  0  0
  -31.8160  -20.8601   20.4099 H   0  0  0  0  0  0
  -31.0059  -20.1655   19.0207 H   0  0  0  0  0  0
  -32.0318  -19.1714   20.0536 H   0  0  0  0  0  0
  -27.7321  -17.0169   21.3605 H   0  0  0  0  0  0
  -27.3826  -18.7148   21.2512 H   0  0  0  0  0  0
  -28.3846  -18.1121   22.5666 H   0  0  0  0  0  0
  -28.5602  -17.1390   18.9490 H   0  0  0  0  0  0
  -29.9177  -18.1521   18.5055 H   0  0  0  0  0  0
  -28.3620  -18.8841   18.8618 H   0  0  0  0  0  0
  -27.2910  -24.0509   20.6319 H   0  0  0  0  0  0
  -28.2518  -23.2407   19.4367 H   0  0  0  0  0  0
  -28.7814  -21.1479   19.9339 H   0  0  0  0  0  0
  -28.1887  -20.7132   21.5057 H   0  0  0  0  0  0
  -31.3508  -17.1402   20.4039 H   0  0  0  0  0  0
  -30.7925  -17.1805   22.0431 H   0  0  0  0  0  0
  -27.9734  -25.3972   18.5129 H   0  0  0  0  0  0
  -29.5888  -25.3509   19.0749 H   0  0  0  0  0  0
  -30.4420  -19.5582   21.9568 H   0  0  0  0  0  0
  -29.0025  -15.4694   21.1815 H   0  0  0  0  0  0
  1 25  1  0  0  0
  1 30  2  0  0  0
  1 88  1  0  0  0
  2  3  1  0  0  0
  2 25  1  0  0  0
  2 89  1  0  0  0
  2 90  1  0  0  0
  3  4  1  0  0  0
  3 91  1  0  0  0
  3 92  1  0  0  0
  4  5  1  0  0  0
  4 93  1  0  0  0
  4 94  1  0  0  0
  5  6  1  0  0  0
  5 26  1  0  0  0
  5 95  1  0  0  0
  6 25  1  0  0  0
  6 96  1  0  0  0
  6 97  1  0  0  0
  7  8  2  0  0  0
  7 26  1  0  0  0
  7 29  1  0  0  0
  8  9  1  0  0  0
  8 22  1  0  0  0
  9 10  1  0  0  0
  9 27  2  0  0  0
 10 11  2  0  0  0
 10 15  1  0  0  0
 11 12  1  0  0  0
 11 98  1  0  0  0
 12 13  2  0  0  0
 12 99  1  0  0  0
 13 14  1  0  0  0
 13 31  1  0  0  0
 14 15  2  0  0  0
 14100  1  0  0  0
 15101  1  0  0  0
 16 17  2  0  0  0
 16 21  1  0  0  0
 16 31  1  0  0  0
 17 18  1  0  0  0
 17102  1  0  0  0
 18 19  2  0  0  0
 18103  1  0  0  0
 19 20  1  0  0  0
 19 24  1  0  0  0
 20 21  2  0  0  0
 20104  1  0  0  0
 21 23  1  0  0  0
 22 28  1  0  0  0
 22 32  2  0  0  0
 26 27  1  0  0  0
 28105  1  0  0  0
 28106  1  0  0  0
 29107  1  0  0  0
 29108  1  0  0  0
 33 34  1  0  0  0
 33 66  1  0  0  0
 33 70  2  0  0  0
 34 36  1  0  0  0
 34 59  1  0  0  0
 34109  1  0  0  0
 35 44  2  0  0  0
 35 45  1  0  0  0
 35 68  1  0  0  0
 36 56  1  0  0  0
 36110  1  0  0  0
 37 39  1  0  0  0
 37 47  1  0  0  0
 37 66  1  0  0  0
 37111  1  0  0  0
 38 43  2  0  0  0
 38 46  1  0  0  0
 38 47  1  0  0  0
 39 64  1  0  0  0
 39 67  2  0  0  0
 40 52  1  0  0  0
 40 53  2  0  0  0
 40 58  1  0  0  0
 41112  1  0  0  0
 41113  1  0  0  0
 41114  1  0  0  0
 41 48  1  0  0  0
 42 43  1  0  0  0
 42 66  1  0  0  0
 42115  1  0  0  0
 42116  1  0  0  0
 43 44  1  0  0  0
 44117  1  0  0  0
 45 46  2  0  0  0
 45118  1  0  0  0
 46119  1  0  0  0
 47120  1  0  0  0
 47121  1  0  0  0
 48 56  1  0  0  0
 48 65  1  0  0  0
 48122  1  0  0  0
 49 50  1  0  0  0
 49 53  1  0  0  0
 49 64  1  0  0  0
 49123  1  0  0  0
 50 51  1  0  0  0
 50124  1  0  0  0
 50125  1  0  0  0
 51 52  1  0  0  0
 51126  1  0  0  0
 51127  1  0  0  0
 52128  1  0  0  0
 52129  1  0  0  0
 53 54  1  0  0  0
 54 55  2  0  0  0
 54130  1  0  0  0
 55 57  1  0  0  0
 55131  1  0  0  0
 56 69  2  0  0  0
 57 58  2  0  0  0
 57132  1  0  0  0
 58133  1  0  0  0
 59 60  1  0  0  0
 59 61  1  0  0  0
 59 62  1  0  0  0
 60134  1  0  0  0
 60135  1  0  0  0
 60136  1  0  0  0
 61137  1  0  0  0
 61138  1  0  0  0
 61139  1  0  0  0
 62140  1  0  0  0
 62141  1  0  0  0
 62142  1  0  0  0
 63 65  1  0  0  0
 63143  1  0  0  0
 63144  1  0  0  0
 63145  1  0  0  0
 64146  1  0  0  0
 65147  1  0  0  0
 68 84  1  0  0  0
 71 72  2  0  0  0
 71 73  1  0  0  0
 71148  1  0  0  0
 72 74  1  0  0  0
 72 76  1  0  0  0
 73 75  2  0  0  0
 73 81  1  0  0  0
 74 77  1  0  0  0
 74 87  2  0  0  0
 75 82  1  0  0  0
 75 87  1  0  0  0
 76149  1  0  0  0
 76150  1  0  0  0
 76151  1  0  0  0
 77152  1  0  0  0
 77153  1  0  0  0
 77154  1  0  0  0
 78155  1  0  0  0
 78156  1  0  0  0
 78157  1  0  0  0
 78 85  1  0  0  0
 79158  1  0  0  0
 79159  1  0  0  0
 79160  1  0  0  0
 79 86  1  0  0  0
 80 86  1  0  0  0
 80161  1  0  0  0
 80162  1  0  0  0
 80163  1  0  0  0
 81 84  1  0  0  0
 81164  1  0  0  0
 81165  1  0  0  0
 82 85  1  0  0  0
 82166  1  0  0  0
 82167  1  0  0  0
 83 86  1  0  0  0
 83 88  1  0  0  0
 83168  1  0  0  0
 83169  1  0  0  0
 84170  1  0  0  0
 84171  1  0  0  0
 85 86  1  0  0  0
 85172  1  0  0  0
 88173  1  0  0  0
M  ISO  4   1 100  68 101  84 101  88 100
M  END
> <chiral flag>
0

> <version>
0

> <s_m_source_file>
/data/baiqing/PycharmProjects/Reinvent-master-3.2/result/LINK_invent/BTK/process_docking_weight1_custom_sum_contain_oxygen_bond_distance_aromatic_linkinvent_7_9_3/rearranged_h_0087.sdf

> <i_m_source_file_index>
57

> <r_mmod_Potential_Energy-OPLS-2005>
-192.302108764648

> <r_mmod_Stretch_Energy-OPLS-2005>
67.597785949707

> <r_mmod_Bend_Energy-OPLS-2005>
146.66960144043

> <r_mmod_Torsional_Energy-OPLS-2005>
214.18196105957

> <r_mmod_Improper_Torsional_Energy-OPLS-2005>
4.19286060333252

> <r_mmod_Van_der_Waal_Energy-OPLS-2005>
156.281768798828

> <r_mmod_Electrostatic_Energy-OPLS-2005>
-593.663146972656

> <r_mmod_Solvation_Energy-OPLS-2005>
-212.435272216797

> <b_mmod_Minimization_Converged-OPLS-2005>
0

> <r_mmod_RMS_Derivative-OPLS-2005>
2.61489200592041

$$$$
58
                    3D
 Structure written by MMmdl.
170178  0  0  1  0            999 V2000
  -30.7192  -14.3965   20.5724 C   0  0  0  0  0  0
  -30.3992  -12.2563   19.4114 C   0  0  0  0  0  0
  -29.4868  -12.5090   18.1953 C   0  0  0  0  0  0
  -28.0049  -12.3854   18.6028 C   0  0  0  0  0  0
  -27.6599  -13.2052   19.8766 C   0  0  2  0  0  0
  -28.6956  -12.9551   20.9953 C   0  0  0  0  0  0
  -25.2572  -13.8184   20.5651 C   0  0  0  0  0  0
  -24.1823  -13.0432   20.9184 C   0  0  0  0  0  0
  -24.6396  -11.6909   20.8751 C   0  0  0  0  0  0
  -23.9060  -10.4286   21.0416 C   0  0  0  0  0  0
  -24.3614   -9.4194   21.9190 C   0  0  0  0  0  0
  -23.6296   -8.2220   22.0745 C   0  0  0  0  0  0
  -22.4278   -8.0266   21.3537 C   0  0  0  0  0  0
  -21.9916   -9.0237   20.4625 C   0  0  0  0  0  0
  -22.7248  -10.2122   20.3050 C   0  0  0  0  0  0
  -21.6842   -6.0719   22.5287 C   0  0  0  0  0  0
  -21.3998   -6.5626   23.8225 C   0  0  0  0  0  0
  -21.3675   -5.6792   24.9200 C   0  0  0  0  0  0
  -21.6053   -4.3055   24.7250 C   0  0  0  0  0  0
  -21.8821   -3.8144   23.4369 C   0  0  0  0  0  0
  -21.9194   -4.6947   22.3422 C   0  0  0  0  0  0
  -22.7859  -13.5207   21.1882 C   0  0  0  0  0  0
  -22.1664   -4.2119   21.1003 F   0  0  0  0  0  0
  -21.5637   -3.4555   25.7769 F   0  0  0  0  0  0
  -30.0337  -13.2333   20.4443 N   0  0  0  0  0  0
  -26.2998  -12.9335   20.3373 N   0  0  0  0  0  0
  -25.9315  -11.6493   20.5783 N   0  0  0  0  0  0
  -22.0516  -12.8125   22.0415 N   0  0  0  0  0  0
  -25.4307  -15.1882   20.3990 N   0  0  0  0  0  0
  -31.8431  -14.5784   20.0956 O   0  0  0  0  0  0
  -21.6645   -6.8859   21.4239 O   0  0  0  0  0  0
  -22.3524  -14.5529   20.6803 O   0  0  0  0  0  0
  -24.6088  -31.8703   23.2102 C   0  0  0  0  0  0
  -25.8997  -32.4820   23.8369 C   0  0  1  0  0  0
  -27.2386  -27.4558   20.0556 C   0  0  0  0  0  0
  -25.5878  -33.8619   24.2309 N   0  0  0  0  0  0
  -23.3961  -30.4924   21.5537 C   0  0  2  0  0  0
  -24.8429  -28.9652   20.1101 C   0  0  0  0  0  0
  -22.7379  -29.4642   22.5020 C   0  0  0  0  0  0
  -18.0246  -28.1355   22.8497 C   0  0  0  0  0  0
  -24.1491  -36.7317   23.2631 C   0  0  0  0  0  0
  -25.9243  -30.8336   21.3655 C   0  0  0  0  0  0
  -26.0022  -29.4678   20.7146 C   0  0  0  0  0  0
  -27.1977  -28.7112   20.7023 C   0  0  0  0  0  0
  -26.0517  -26.9596   19.4674 C   0  0  0  0  0  0
  -24.8617  -27.7062   19.4905 C   0  0  0  0  0  0
  -23.5999  -29.8252   20.1669 C   0  0  0  0  0  0
  -25.4111  -36.3107   24.0331 C   0  0  1  0  0  0
  -20.5838  -28.3638   23.1340 C   0  0  2  0  0  0
  -20.6760  -26.9392   22.5413 C   0  0  0  0  0  0
  -19.5735  -26.6391   21.5212 C   0  0  0  0  0  0
  -18.1909  -26.7900   22.1628 C   0  0  0  0  0  0
  -19.1496  -28.8814   23.2919 C   0  0  0  0  0  0
  -18.9429  -30.1421   23.8924 C   0  0  0  0  0  0
  -17.6433  -30.6580   24.0540 C   0  0  0  0  0  0
  -25.9039  -34.9476   23.5126 C   0  0  0  0  0  0
  -16.5328  -29.9074   23.6313 C   0  0  0  0  0  0
  -16.7239  -28.6482   23.0350 C   0  0  0  0  0  0
  -26.4448  -31.6574   25.0667 C   0  0  0  0  0  0
  -25.3717  -31.3666   26.1395 C   0  0  0  0  0  0
  -27.0248  -30.3019   24.6010 C   0  0  0  0  0  0
  -27.6020  -32.4276   25.7422 C   0  0  0  0  0  0
  -27.5597  -37.1785   24.8451 C   0  0  0  0  0  0
  -21.4110  -29.3004   22.3753 N   0  0  0  0  0  0
  -26.4296  -37.3798   23.9419 N   0  0  0  0  0  0
  -24.6614  -31.0792   22.1005 N   0  0  0  0  0  0
  -23.4172  -28.8182   23.3045 O   0  0  0  0  0  0
  -28.4209  -26.7425   20.0276 O   0  0  0  0  0  0
  -26.5612  -34.8926   22.4698 O   0  0  0  0  0  0
  -23.5302  -32.1452   23.7524 O   0  0  0  0  0  0
  -26.9586  -21.7581   18.4255 C   0  0  0  0  0  0
  -28.9763  -21.3598   19.6823 C   0  0  0  0  0  0
  -27.9851  -22.2588   19.2444 C   0  0  0  0  0  0
  -26.9494  -20.3942   18.0829 C   0  0  0  0  0  0
  -28.8927  -20.0010   19.3143 C   0  0  0  0  0  0
  -24.8851  -18.9279   18.1616 C   0  0  0  0  0  0
  -26.1892  -19.1332   15.9746 C   0  0  0  0  0  0
  -31.0040  -18.8094   18.6257 C   0  0  0  0  0  0
  -27.9870  -23.7183   19.6725 C   0  0  0  0  0  0
  -29.0848  -24.5582   18.9978 C   0  0  0  0  0  0
  -29.4107  -17.6755   20.3001 C   0  0  0  0  0  0
  -30.4343  -16.8104   21.0735 C   0  0  0  0  0  0
  -28.7492  -26.0545   18.8122 C   0  0  0  0  0  0
  -25.7755  -19.8215   17.2845 C   0  0  0  0  0  0
  -29.9794  -19.0138   19.7589 C   0  0  2  0  0  0
  -27.9077  -19.5336   18.5079 N   0  0  0  0  0  0
  -30.0236  -15.4062   21.1101 N   0  0  0  0  0  0
  -31.4515  -12.3151   19.1238 H   0  0  0  0  0  0
  -30.2513  -11.2435   19.7896 H   0  0  0  0  0  0
  -29.7093  -11.8036   17.3934 H   0  0  0  0  0  0
  -29.6796  -13.5038   17.7867 H   0  0  0  0  0  0
  -27.7951  -11.3280   18.7760 H   0  0  0  0  0  0
  -27.3659  -12.6913   17.7738 H   0  0  0  0  0  0
  -27.7144  -14.2582   19.5999 H   0  0  0  0  0  0
  -28.6443  -11.9182   21.3296 H   0  0  0  0  0  0
  -28.4703  -13.5522   21.8797 H   0  0  0  0  0  0
  -25.2759   -9.5662   22.4776 H   0  0  0  0  0  0
  -24.0017   -7.4600   22.7457 H   0  0  0  0  0  0
  -21.0856   -8.8756   19.8912 H   0  0  0  0  0  0
  -22.3726  -10.9661   19.6163 H   0  0  0  0  0  0
  -21.1960   -7.6137   23.9712 H   0  0  0  0  0  0
  -21.1511   -6.0532   25.9097 H   0  0  0  0  0  0
  -22.0581   -2.7588   23.2913 H   0  0  0  0  0  0
  -22.4172  -11.9765   22.4718 H   0  0  0  0  0  0
  -21.1139  -13.1110   22.2682 H   0  0  0  0  0  0
  -24.6553  -15.8395   20.4518 H   0  0  0  0  0  0
  -26.2779  -15.6168   20.0466 H   0  0  0  0  0  0
  -26.7042  -32.5541   23.1107 H   0  0  0  0  0  0
  -24.9936  -33.9766   25.0387 H   0  0  0  0  0  0
  -22.6802  -31.3067   21.4182 H   0  0  0  0  0  0
  -23.3768  -35.9633   23.3263 H   0  0  0  0  0  0
  -24.3591  -36.8979   22.2054 H   0  0  0  0  0  0
  -23.7228  -37.6509   23.6672 H   0  0  0  0  0  0
  -26.0287  -31.5999   20.5968 H   0  0  0  0  0  0
  -26.8151  -30.8905   21.9795 H   0  0  0  0  0  0
  -28.0945  -29.0956   21.1679 H   0  0  0  0  0  0
  -26.0272  -26.0004   18.9757 H   0  0  0  0  0  0
  -23.9724  -27.3099   19.0182 H   0  0  0  0  0  0
  -23.6845  -30.5983   19.4021 H   0  0  0  0  0  0
  -22.7259  -29.2333   19.8865 H   0  0  0  0  0  0
  -25.1281  -36.1967   25.0827 H   0  0  0  0  0  0
  -20.9914  -28.3209   24.1470 H   0  0  0  0  0  0
  -20.5708  -26.2232   23.3590 H   0  0  0  0  0  0
  -21.6620  -26.7471   22.1173 H   0  0  0  0  0  0
  -19.6908  -25.6320   21.1194 H   0  0  0  0  0  0
  -19.6671  -27.3238   20.6782 H   0  0  0  0  0  0
  -17.4177  -26.6630   21.4038 H   0  0  0  0  0  0
  -18.0321  -26.0040   22.9029 H   0  0  0  0  0  0
  -19.7912  -30.7210   24.2341 H   0  0  0  0  0  0
  -17.4991  -31.6263   24.5120 H   0  0  0  0  0  0
  -15.5324  -30.2967   23.7658 H   0  0  0  0  0  0
  -15.8631  -28.0807   22.7070 H   0  0  0  0  0  0
  -24.5893  -30.7017   25.7718 H   0  0  0  0  0  0
  -24.8865  -32.2797   26.4846 H   0  0  0  0  0  0
  -25.8030  -30.8814   27.0150 H   0  0  0  0  0  0
  -26.2762  -29.6803   24.1070 H   0  0  0  0  0  0
  -27.4043  -29.7223   25.4435 H   0  0  0  0  0  0
  -27.8590  -30.4341   23.9113 H   0  0  0  0  0  0
  -27.2660  -33.3581   26.2015 H   0  0  0  0  0  0
  -28.3810  -32.6841   25.0226 H   0  0  0  0  0  0
  -28.0700  -31.8374   26.5314 H   0  0  0  0  0  0
  -28.2559  -38.0138   24.7574 H   0  0  0  0  0  0
  -28.1147  -36.2667   24.6175 H   0  0  0  0  0  0
  -27.2304  -37.1303   25.8846 H   0  0  0  0  0  0
  -20.9276  -29.8720   21.6956 H   0  0  0  0  0  0
  -26.0190  -38.2877   24.1442 H   0  0  0  0  0  0
  -26.1636  -22.4043   18.0823 H   0  0  0  0  0  0
  -29.7933  -21.7112   20.2979 H   0  0  0  0  0  0
  -24.4676  -19.4982   18.9902 H   0  0  0  0  0  0
  -25.4510  -18.0943   18.5818 H   0  0  0  0  0  0
  -24.0514  -18.5124   17.5974 H   0  0  0  0  0  0
  -26.7448  -19.8136   15.3284 H   0  0  0  0  0  0
  -25.3061  -18.8114   15.4190 H   0  0  0  0  0  0
  -26.8085  -18.2573   16.1622 H   0  0  0  0  0  0
  -31.4224  -19.7658   18.3105 H   0  0  0  0  0  0
  -30.5360  -18.3483   17.7574 H   0  0  0  0  0  0
  -31.8458  -18.1841   18.9213 H   0  0  0  0  0  0
  -28.0956  -23.7659   20.7559 H   0  0  0  0  0  0
  -27.0069  -24.1365   19.4558 H   0  0  0  0  0  0
  -29.2634  -24.1567   17.9980 H   0  0  0  0  0  0
  -30.0252  -24.4324   19.5340 H   0  0  0  0  0  0
  -28.5746  -17.8877   20.9692 H   0  0  0  0  0  0
  -28.9932  -17.1074   19.4681 H   0  0  0  0  0  0
  -31.4202  -16.9025   20.6200 H   0  0  0  0  0  0
  -30.5561  -17.1689   22.0963 H   0  0  0  0  0  0
  -28.0036  -26.1696   18.0269 H   0  0  0  0  0  0
  -29.6361  -26.5426   18.4133 H   0  0  0  0  0  0
  -25.1519  -20.6645   16.9821 H   0  0  0  0  0  0
  -30.5001  -19.4807   20.5969 H   0  0  0  0  0  0
  -29.0898  -15.1926   21.4314 H   0  0  0  0  0  0
  1 25  1  0  0  0
  1 30  2  0  0  0
  1 87  1  0  0  0
  2  3  1  0  0  0
  2 25  1  0  0  0
  2 88  1  0  0  0
  2 89  1  0  0  0
  3  4  1  0  0  0
  3 90  1  0  0  0
  3 91  1  0  0  0
  4  5  1  0  0  0
  4 92  1  0  0  0
  4 93  1  0  0  0
  5  6  1  0  0  0
  5 26  1  0  0  0
  5 94  1  0  0  0
  6 25  1  0  0  0
  6 95  1  0  0  0
  6 96  1  0  0  0
  7  8  2  0  0  0
  7 26  1  0  0  0
  7 29  1  0  0  0
  8  9  1  0  0  0
  8 22  1  0  0  0
  9 10  1  0  0  0
  9 27  2  0  0  0
 10 11  2  0  0  0
 10 15  1  0  0  0
 11 12  1  0  0  0
 11 97  1  0  0  0
 12 13  2  0  0  0
 12 98  1  0  0  0
 13 14  1  0  0  0
 13 31  1  0  0  0
 14 15  2  0  0  0
 14 99  1  0  0  0
 15100  1  0  0  0
 16 17  2  0  0  0
 16 21  1  0  0  0
 16 31  1  0  0  0
 17 18  1  0  0  0
 17101  1  0  0  0
 18 19  2  0  0  0
 18102  1  0  0  0
 19 20  1  0  0  0
 19 24  1  0  0  0
 20 21  2  0  0  0
 20103  1  0  0  0
 21 23  1  0  0  0
 22 28  1  0  0  0
 22 32  2  0  0  0
 26 27  1  0  0  0
 28104  1  0  0  0
 28105  1  0  0  0
 29106  1  0  0  0
 29107  1  0  0  0
 33 34  1  0  0  0
 33 66  1  0  0  0
 33 70  2  0  0  0
 34 36  1  0  0  0
 34 59  1  0  0  0
 34108  1  0  0  0
 35 44  2  0  0  0
 35 45  1  0  0  0
 35 68  1  0  0  0
 36 56  1  0  0  0
 36109  1  0  0  0
 37 39  1  0  0  0
 37 47  1  0  0  0
 37 66  1  0  0  0
 37110  1  0  0  0
 38 43  2  0  0  0
 38 46  1  0  0  0
 38 47  1  0  0  0
 39 64  1  0  0  0
 39 67  2  0  0  0
 40 52  1  0  0  0
 40 53  2  0  0  0
 40 58  1  0  0  0
 41111  1  0  0  0
 41112  1  0  0  0
 41113  1  0  0  0
 41 48  1  0  0  0
 42 43  1  0  0  0
 42 66  1  0  0  0
 42114  1  0  0  0
 42115  1  0  0  0
 43 44  1  0  0  0
 44116  1  0  0  0
 45 46  2  0  0  0
 45117  1  0  0  0
 46118  1  0  0  0
 47119  1  0  0  0
 47120  1  0  0  0
 48 56  1  0  0  0
 48 65  1  0  0  0
 48121  1  0  0  0
 49 50  1  0  0  0
 49 53  1  0  0  0
 49 64  1  0  0  0
 49122  1  0  0  0
 50 51  1  0  0  0
 50123  1  0  0  0
 50124  1  0  0  0
 51 52  1  0  0  0
 51125  1  0  0  0
 51126  1  0  0  0
 52127  1  0  0  0
 52128  1  0  0  0
 53 54  1  0  0  0
 54 55  2  0  0  0
 54129  1  0  0  0
 55 57  1  0  0  0
 55130  1  0  0  0
 56 69  2  0  0  0
 57 58  2  0  0  0
 57131  1  0  0  0
 58132  1  0  0  0
 59 60  1  0  0  0
 59 61  1  0  0  0
 59 62  1  0  0  0
 60133  1  0  0  0
 60134  1  0  0  0
 60135  1  0  0  0
 61136  1  0  0  0
 61137  1  0  0  0
 61138  1  0  0  0
 62139  1  0  0  0
 62140  1  0  0  0
 62141  1  0  0  0
 63 65  1  0  0  0
 63142  1  0  0  0
 63143  1  0  0  0
 63144  1  0  0  0
 64145  1  0  0  0
 65146  1  0  0  0
 68 83  1  0  0  0
 71 73  2  0  0  0
 71 74  1  0  0  0
 71147  1  0  0  0
 72 73  1  0  0  0
 72 75  2  0  0  0
 72148  1  0  0  0
 73 79  1  0  0  0
 74 84  1  0  0  0
 74 86  2  0  0  0
 75 85  1  0  0  0
 75 86  1  0  0  0
 76149  1  0  0  0
 76150  1  0  0  0
 76151  1  0  0  0
 76 84  1  0  0  0
 77 84  1  0  0  0
 77152  1  0  0  0
 77153  1  0  0  0
 77154  1  0  0  0
 78155  1  0  0  0
 78156  1  0  0  0
 78157  1  0  0  0
 78 85  1  0  0  0
 79 80  1  0  0  0
 79158  1  0  0  0
 79159  1  0  0  0
 80 83  1  0  0  0
 80160  1  0  0  0
 80161  1  0  0  0
 81 82  1  0  0  0
 81 85  1  0  0  0
 81162  1  0  0  0
 81163  1  0  0  0
 82 87  1  0  0  0
 82164  1  0  0  0
 82165  1  0  0  0
 83166  1  0  0  0
 83167  1  0  0  0
 84168  1  0  0  0
 85169  1  0  0  0
 87170  1  0  0  0
M  ISO  4   1 100  68 101  83 101  87 100
M  END
> <chiral flag>
0

> <version>
0

> <s_m_source_file>
/data/baiqing/PycharmProjects/Reinvent-master-3.2/result/LINK_invent/BTK/process_docking_weight1_custom_sum_contain_oxygen_bond_distance_aromatic_linkinvent_7_9_3/rearranged_h_0087.sdf

> <i_m_source_file_index>
58

> <r_mmod_Potential_Energy-OPLS-2005>
-298.482360839844

> <r_mmod_Stretch_Energy-OPLS-2005>
34.6935729980469

> <r_mmod_Bend_Energy-OPLS-2005>
96.7312088012695

> <r_mmod_Torsional_Energy-OPLS-2005>
196.867401123047

> <r_mmod_Improper_Torsional_Energy-OPLS-2005>
4.55389642715454

> <r_mmod_Van_der_Waal_Energy-OPLS-2005>
155.199432373047

> <r_mmod_Electrostatic_Energy-OPLS-2005>
-593.453063964844

> <r_mmod_Solvation_Energy-OPLS-2005>
-203.063751220703

> <b_mmod_Minimization_Converged-OPLS-2005>
0

> <r_mmod_RMS_Derivative-OPLS-2005>
4.30544853210449

$$$$
59
                    3D
 Structure written by MMmdl.
164172  0  0  1  0            999 V2000
  -30.5944  -14.7148   20.4612 C   0  0  0  0  0  0
  -30.4345  -12.4300   19.4637 C   0  0  0  0  0  0
  -29.5113  -12.4943   18.2268 C   0  0  0  0  0  0
  -28.0347  -12.3279   18.6412 C   0  0  0  0  0  0
  -27.6429  -13.2229   19.8486 C   0  0  2  0  0  0
  -28.6862  -13.1311   20.9824 C   0  0  0  0  0  0
  -25.2511  -13.8159   20.5665 C   0  0  0  0  0  0
  -24.1808  -13.0427   20.9193 C   0  0  0  0  0  0
  -24.6387  -11.6905   20.8745 C   0  0  0  0  0  0
  -23.9064  -10.4286   21.0407 C   0  0  0  0  0  0
  -24.3610   -9.4215   21.9191 C   0  0  0  0  0  0
  -23.6289   -8.2250   22.0773 C   0  0  0  0  0  0
  -22.4278   -8.0279   21.3548 C   0  0  0  0  0  0
  -21.9906   -9.0257   20.4658 C   0  0  0  0  0  0
  -22.7235  -10.2130   20.3061 C   0  0  0  0  0  0
  -21.6856   -6.0732   22.5287 C   0  0  0  0  0  0
  -21.4019   -6.5643   23.8218 C   0  0  0  0  0  0
  -21.3652   -5.6796   24.9187 C   0  0  0  0  0  0
  -21.6036   -4.3057   24.7234 C   0  0  0  0  0  0
  -21.8818   -3.8143   23.4361 C   0  0  0  0  0  0
  -21.9192   -4.6957   22.3414 C   0  0  0  0  0  0
  -22.7826  -13.5228   21.1856 C   0  0  0  0  0  0
  -22.1660   -4.2142   21.0988 F   0  0  0  0  0  0
  -21.5622   -3.4544   25.7746 F   0  0  0  0  0  0
  -29.9890  -13.4824   20.4034 N   0  0  0  0  0  0
  -26.2944  -12.9360   20.3245 N   0  0  0  0  0  0
  -25.9307  -11.6512   20.5725 N   0  0  0  0  0  0
  -22.0458  -12.8235   22.0401 N   0  0  0  0  0  0
  -25.4148  -15.1892   20.4087 N   0  0  0  0  0  0
  -31.7842  -14.8393   20.1617 O   0  0  0  0  0  0
  -21.6643   -6.8876   21.4251 O   0  0  0  0  0  0
  -22.3537  -14.5553   20.6723 O   0  0  0  0  0  0
  -24.6246  -31.8548   23.1986 C   0  0  0  0  0  0
  -25.9088  -32.4741   23.8332 C   0  0  1  0  0  0
  -27.2276  -27.2744   20.1213 C   0  0  0  0  0  0
  -25.5882  -33.8547   24.2261 N   0  0  0  0  0  0
  -23.4235  -30.4746   21.5395 C   0  0  2  0  0  0
  -24.8735  -28.9150   20.1073 C   0  0  0  0  0  0
  -22.7480  -29.4602   22.4914 C   0  0  0  0  0  0
  -18.0283  -28.1375   22.8472 C   0  0  0  0  0  0
  -24.1477  -36.7295   23.2644 C   0  0  0  0  0  0
  -25.9653  -30.7642   21.3821 C   0  0  0  0  0  0
  -26.0380  -29.3880   20.7253 C   0  0  0  0  0  0
  -27.2107  -28.5738   20.7271 C   0  0  0  0  0  0
  -26.0446  -26.8584   19.4755 C   0  0  0  0  0  0
  -24.8811  -27.6583   19.4730 C   0  0  0  0  0  0
  -23.6412  -29.7991   20.1584 C   0  0  0  0  0  0
  -25.4104  -36.3073   24.0323 C   0  0  1  0  0  0
  -20.5884  -28.3694   23.1260 C   0  0  2  0  0  0
  -20.6781  -26.9422   22.5401 C   0  0  0  0  0  0
  -19.5762  -26.6376   21.5193 C   0  0  0  0  0  0
  -18.1937  -26.7921   22.1598 C   0  0  0  0  0  0
  -19.1538  -28.8848   23.2861 C   0  0  0  0  0  0
  -18.9472  -30.1442   23.8898 C   0  0  0  0  0  0
  -17.6479  -30.6598   24.0537 C   0  0  0  0  0  0
  -25.9029  -34.9437   23.5102 C   0  0  0  0  0  0
  -16.5362  -29.9089   23.6330 C   0  0  0  0  0  0
  -16.7274  -28.6489   23.0366 C   0  0  0  0  0  0
  -26.4493  -31.6571   25.0712 C   0  0  0  0  0  0
  -25.3710  -31.3680   26.1414 C   0  0  0  0  0  0
  -27.0381  -30.2999   24.6204 C   0  0  0  0  0  0
  -27.6058  -32.4338   25.7464 C   0  0  0  0  0  0
  -27.5594  -37.1794   24.8461 C   0  0  0  0  0  0
  -21.4192  -29.3038   22.3645 N   0  0  0  0  0  0
  -26.4301  -37.3759   23.9405 N   0  0  0  0  0  0
  -24.6901  -31.0490   22.0974 N   0  0  0  0  0  0
  -23.4185  -28.8155   23.3027 O   0  0  0  0  0  0
  -28.3467  -26.4276   20.2343 O   0  0  0  0  0  0
  -26.5631  -34.8912   22.4690 O   0  0  0  0  0  0
  -23.5397  -32.1399   23.7271 O   0  0  0  0  0  0
  -29.3116  -22.6053   21.7160 C   0  0  0  0  0  0
  -28.5945  -21.0841   19.9947 C   0  0  0  0  0  0
  -28.6468  -22.4486   20.4901 C   0  0  0  0  0  0
  -29.8130  -21.4802   22.3996 C   0  0  0  0  0  0
  -29.1582  -19.9638   20.7299 C   0  0  0  0  0  0
  -31.7224  -21.0171   24.0208 C   0  0  0  0  0  0
  -29.3036  -21.1174   24.8381 C   0  0  0  0  0  0
  -28.2629  -18.1900   19.0604 C   0  0  0  0  0  0
  -27.8498  -23.6927   19.8995 C   0  0  0  0  0  0
  -30.1227  -17.3159   20.6293 C   0  0  0  0  0  0
  -28.5301  -25.1169   19.5378 C   0  0  0  0  0  0
  -30.3315  -21.6392   23.8232 C   0  0  0  0  0  0
  -28.9285  -18.4020   20.4307 C   0  0  1  0  0  0
  -29.7305  -20.2115   21.9276 N   0  0  0  0  0  0
  -29.7836  -15.8215   20.6500 N   0  0  0  0  0  0
  -31.4764  -12.5547   19.1658 H   0  0  0  0  0  0
  -30.3714  -11.4474   19.9353 H   0  0  0  0  0  0
  -29.7863  -11.7164   17.5126 H   0  0  0  0  0  0
  -29.6486  -13.4431   17.7068 H   0  0  0  0  0  0
  -27.8927  -11.2787   18.9029 H   0  0  0  0  0  0
  -27.3776  -12.5169   17.7925 H   0  0  0  0  0  0
  -27.6441  -14.2484   19.4786 H   0  0  0  0  0  0
  -28.7105  -12.1247   21.4058 H   0  0  0  0  0  0
  -28.4285  -13.7984   21.8055 H   0  0  0  0  0  0
  -25.2753   -9.5694   22.4776 H   0  0  0  0  0  0
  -23.9989   -7.4650   22.7508 H   0  0  0  0  0  0
  -21.0832   -8.8779   19.8978 H   0  0  0  0  0  0
  -22.3690  -10.9672   19.6176 H   0  0  0  0  0  0
  -21.2026   -7.6156   23.9724 H   0  0  0  0  0  0
  -21.1463   -6.0528   25.9081 H   0  0  0  0  0  0
  -22.0596   -2.7609   23.2871 H   0  0  0  0  0  0
  -22.4059  -11.9893   22.4820 H   0  0  0  0  0  0
  -21.1076  -13.1276   22.2581 H   0  0  0  0  0  0
  -24.6365  -15.8286   20.5197 H   0  0  0  0  0  0
  -26.2490  -15.6418   20.0600 H   0  0  0  0  0  0
  -26.7143  -32.5393   23.1057 H   0  0  0  0  0  0
  -24.9938  -33.9661   25.0344 H   0  0  0  0  0  0
  -22.7193  -31.2963   21.3917 H   0  0  0  0  0  0
  -23.3736  -35.9635   23.3306 H   0  0  0  0  0  0
  -24.3537  -36.8935   22.2060 H   0  0  0  0  0  0
  -23.7258  -37.6497   23.6681 H   0  0  0  0  0  0
  -26.0999  -31.5226   20.6108 H   0  0  0  0  0  0
  -26.8432  -30.8161   22.0146 H   0  0  0  0  0  0
  -28.1008  -28.9196   21.2328 H   0  0  0  0  0  0
  -25.9981  -25.8901   18.9989 H   0  0  0  0  0  0
  -23.9872  -27.2935   18.9870 H   0  0  0  0  0  0
  -23.7657  -30.5710   19.3986 H   0  0  0  0  0  0
  -22.7585  -29.2267   19.8602 H   0  0  0  0  0  0
  -25.1294  -36.1927   25.0822 H   0  0  0  0  0  0
  -20.9978  -28.3303   24.1368 H   0  0  0  0  0  0
  -20.5684  -26.2318   23.3608 H   0  0  0  0  0  0
  -21.6654  -26.7446   22.1207 H   0  0  0  0  0  0
  -19.6927  -25.6276   21.1245 H   0  0  0  0  0  0
  -19.6709  -27.3154   20.6708 H   0  0  0  0  0  0
  -17.4223  -26.6663   21.3995 H   0  0  0  0  0  0
  -18.0346  -26.0045   22.8981 H   0  0  0  0  0  0
  -19.7948  -30.7223   24.2319 H   0  0  0  0  0  0
  -17.5039  -31.6287   24.5122 H   0  0  0  0  0  0
  -15.5354  -30.2985   23.7677 H   0  0  0  0  0  0
  -15.8667  -28.0796   22.7121 H   0  0  0  0  0  0
  -24.5894  -30.7029   25.7708 H   0  0  0  0  0  0
  -24.8844  -32.2808   26.4854 H   0  0  0  0  0  0
  -25.8002  -30.8830   27.0185 H   0  0  0  0  0  0
  -26.2983  -29.6654   24.1284 H   0  0  0  0  0  0
  -27.4151  -29.7333   25.4729 H   0  0  0  0  0  0
  -27.8813  -30.4289   23.9414 H   0  0  0  0  0  0
  -27.2712  -33.3672   26.2000 H   0  0  0  0  0  0
  -28.3875  -32.6846   25.0284 H   0  0  0  0  0  0
  -28.0720  -31.8485   26.5386 H   0  0  0  0  0  0
  -28.2601  -38.0110   24.7537 H   0  0  0  0  0  0
  -28.1137  -36.2637   24.6290 H   0  0  0  0  0  0
  -27.2292  -37.1439   25.8862 H   0  0  0  0  0  0
  -20.9399  -29.8737   21.6805 H   0  0  0  0  0  0
  -26.0183  -38.2843   24.1398 H   0  0  0  0  0  0
  -29.3525  -23.5838   22.1776 H   0  0  0  0  0  0
  -28.0505  -20.8899   19.0815 H   0  0  0  0  0  0
  -32.4532  -21.4736   23.3533 H   0  0  0  0  0  0
  -31.7077  -19.9448   23.8214 H   0  0  0  0  0  0
  -32.0732  -21.1582   25.0432 H   0  0  0  0  0  0
  -28.3488  -21.6298   24.7181 H   0  0  0  0  0  0
  -29.6389  -21.2792   25.8624 H   0  0  0  0  0  0
  -29.1241  -20.0498   24.7062 H   0  0  0  0  0  0
  -27.3177  -18.7305   18.9941 H   0  0  0  0  0  0
  -28.0416  -17.1390   18.8846 H   0  0  0  0  0  0
  -28.9066  -18.5385   18.2524 H   0  0  0  0  0  0
  -26.9981  -23.8685   20.5553 H   0  0  0  0  0  0
  -27.4015  -23.3223   18.9766 H   0  0  0  0  0  0
  -30.6111  -17.5246   21.5820 H   0  0  0  0  0  0
  -30.8868  -17.4880   19.8690 H   0  0  0  0  0  0
  -28.3079  -25.3149   18.4897 H   0  0  0  0  0  0
  -29.6072  -24.9475   19.5426 H   0  0  0  0  0  0
  -30.4418  -22.7080   24.0157 H   0  0  0  0  0  0
  -28.1757  -18.1215   21.1678 H   0  0  0  0  0  0
  -28.8177  -15.6023   20.8347 H   0  0  0  0  0  0
  1 25  1  0  0  0
  1 30  2  0  0  0
  1 85  1  0  0  0
  2  3  1  0  0  0
  2 25  1  0  0  0
  2 86  1  0  0  0
  2 87  1  0  0  0
  3  4  1  0  0  0
  3 88  1  0  0  0
  3 89  1  0  0  0
  4  5  1  0  0  0
  4 90  1  0  0  0
  4 91  1  0  0  0
  5  6  1  0  0  0
  5 26  1  0  0  0
  5 92  1  0  0  0
  6 25  1  0  0  0
  6 93  1  0  0  0
  6 94  1  0  0  0
  7  8  2  0  0  0
  7 26  1  0  0  0
  7 29  1  0  0  0
  8  9  1  0  0  0
  8 22  1  0  0  0
  9 10  1  0  0  0
  9 27  2  0  0  0
 10 11  2  0  0  0
 10 15  1  0  0  0
 11 12  1  0  0  0
 11 95  1  0  0  0
 12 13  2  0  0  0
 12 96  1  0  0  0
 13 14  1  0  0  0
 13 31  1  0  0  0
 14 15  2  0  0  0
 14 97  1  0  0  0
 15 98  1  0  0  0
 16 17  2  0  0  0
 16 21  1  0  0  0
 16 31  1  0  0  0
 17 18  1  0  0  0
 17 99  1  0  0  0
 18 19  2  0  0  0
 18100  1  0  0  0
 19 20  1  0  0  0
 19 24  1  0  0  0
 20 21  2  0  0  0
 20101  1  0  0  0
 21 23  1  0  0  0
 22 28  1  0  0  0
 22 32  2  0  0  0
 26 27  1  0  0  0
 28102  1  0  0  0
 28103  1  0  0  0
 29104  1  0  0  0
 29105  1  0  0  0
 33 34  1  0  0  0
 33 66  1  0  0  0
 33 70  2  0  0  0
 34 36  1  0  0  0
 34 59  1  0  0  0
 34106  1  0  0  0
 35 44  2  0  0  0
 35 45  1  0  0  0
 35 68  1  0  0  0
 36 56  1  0  0  0
 36107  1  0  0  0
 37 39  1  0  0  0
 37 47  1  0  0  0
 37 66  1  0  0  0
 37108  1  0  0  0
 38 43  2  0  0  0
 38 46  1  0  0  0
 38 47  1  0  0  0
 39 64  1  0  0  0
 39 67  2  0  0  0
 40 52  1  0  0  0
 40 53  2  0  0  0
 40 58  1  0  0  0
 41109  1  0  0  0
 41110  1  0  0  0
 41111  1  0  0  0
 41 48  1  0  0  0
 42 43  1  0  0  0
 42 66  1  0  0  0
 42112  1  0  0  0
 42113  1  0  0  0
 43 44  1  0  0  0
 44114  1  0  0  0
 45 46  2  0  0  0
 45115  1  0  0  0
 46116  1  0  0  0
 47117  1  0  0  0
 47118  1  0  0  0
 48 56  1  0  0  0
 48 65  1  0  0  0
 48119  1  0  0  0
 49 50  1  0  0  0
 49 53  1  0  0  0
 49 64  1  0  0  0
 49120  1  0  0  0
 50 51  1  0  0  0
 50121  1  0  0  0
 50122  1  0  0  0
 51 52  1  0  0  0
 51123  1  0  0  0
 51124  1  0  0  0
 52125  1  0  0  0
 52126  1  0  0  0
 53 54  1  0  0  0
 54 55  2  0  0  0
 54127  1  0  0  0
 55 57  1  0  0  0
 55128  1  0  0  0
 56 69  2  0  0  0
 57 58  2  0  0  0
 57129  1  0  0  0
 58130  1  0  0  0
 59 60  1  0  0  0
 59 61  1  0  0  0
 59 62  1  0  0  0
 60131  1  0  0  0
 60132  1  0  0  0
 60133  1  0  0  0
 61134  1  0  0  0
 61135  1  0  0  0
 61136  1  0  0  0
 62137  1  0  0  0
 62138  1  0  0  0
 62139  1  0  0  0
 63 65  1  0  0  0
 63140  1  0  0  0
 63141  1  0  0  0
 63142  1  0  0  0
 64143  1  0  0  0
 65144  1  0  0  0
 68 81  1  0  0  0
 71 73  2  0  0  0
 71 74  1  0  0  0
 71145  1  0  0  0
 72 73  1  0  0  0
 72 75  2  0  0  0
 72146  1  0  0  0
 73 79  1  0  0  0
 74 82  1  0  0  0
 74 84  2  0  0  0
 75 83  1  0  0  0
 75 84  1  0  0  0
 76147  1  0  0  0
 76148  1  0  0  0
 76149  1  0  0  0
 76 82  1  0  0  0
 77 82  1  0  0  0
 77150  1  0  0  0
 77151  1  0  0  0
 77152  1  0  0  0
 78153  1  0  0  0
 78154  1  0  0  0
 78155  1  0  0  0
 78 83  1  0  0  0
 79 81  1  0  0  0
 79156  1  0  0  0
 79157  1  0  0  0
 80 83  1  0  0  0
 80 85  1  0  0  0
 80158  1  0  0  0
 80159  1  0  0  0
 81160  1  0  0  0
 81161  1  0  0  0
 82162  1  0  0  0
 83163  1  0  0  0
 85164  1  0  0  0
M  ISO  4   1 100  68 101  81 101  85 100
M  END
> <chiral flag>
0

> <version>
0

> <s_m_source_file>
/data/baiqing/PycharmProjects/Reinvent-master-3.2/result/LINK_invent/BTK/process_docking_weight1_custom_sum_contain_oxygen_bond_distance_aromatic_linkinvent_7_9_3/rearranged_h_0087.sdf

> <i_m_source_file_index>
59

> <r_mmod_Potential_Energy-OPLS-2005>
-21.3996143341064

> <r_mmod_Stretch_Energy-OPLS-2005>
118.172782897949

> <r_mmod_Bend_Energy-OPLS-2005>
191.181579589844

> <r_mmod_Torsional_Energy-OPLS-2005>
205.660781860352

> <r_mmod_Improper_Torsional_Energy-OPLS-2005>
8.04833889007568

> <r_mmod_Van_der_Waal_Energy-OPLS-2005>
131.702102661133

> <r_mmod_Electrostatic_Energy-OPLS-2005>
-535.615295410156

> <r_mmod_Solvation_Energy-OPLS-2005>
-216.407989501953

> <b_mmod_Minimization_Converged-OPLS-2005>
0

> <r_mmod_RMS_Derivative-OPLS-2005>
3.12426686286926

$$$$
60
                    3D
 Structure written by MMmdl.
158166  0  0  1  0            999 V2000
  -30.5310  -14.8765   20.4156 C   0  0  0  0  0  0
  -30.4611  -12.5340   19.4799 C   0  0  0  0  0  0
  -29.5270  -12.5160   18.2473 C   0  0  0  0  0  0
  -28.0574  -12.3061   18.6664 C   0  0  0  0  0  0
  -27.6427  -13.2183   19.8483 C   0  0  2  0  0  0
  -28.6932  -13.1995   20.9808 C   0  0  0  0  0  0
  -25.2538  -13.8117   20.5738 C   0  0  0  0  0  0
  -24.1811  -13.0379   20.9209 C   0  0  0  0  0  0
  -24.6391  -11.6854   20.8749 C   0  0  0  0  0  0
  -23.9065  -10.4239   21.0431 C   0  0  0  0  0  0
  -24.3607   -9.4150   21.9210 C   0  0  0  0  0  0
  -23.6270   -8.2196   22.0771 C   0  0  0  0  0  0
  -22.4264   -8.0247   21.3556 C   0  0  0  0  0  0
  -21.9905   -9.0229   20.4673 C   0  0  0  0  0  0
  -22.7238  -10.2100   20.3082 C   0  0  0  0  0  0
  -21.6836   -6.0717   22.5280 C   0  0  0  0  0  0
  -21.4010   -6.5632   23.8211 C   0  0  0  0  0  0
  -21.3664   -5.6796   24.9182 C   0  0  0  0  0  0
  -21.6035   -4.3052   24.7241 C   0  0  0  0  0  0
  -21.8809   -3.8137   23.4367 C   0  0  0  0  0  0
  -21.9174   -4.6945   22.3420 C   0  0  0  0  0  0
  -22.7837  -13.5204   21.1850 C   0  0  0  0  0  0
  -22.1653   -4.2129   21.1001 F   0  0  0  0  0  0
  -21.5639   -3.4529   25.7756 F   0  0  0  0  0  0
  -29.9763  -13.6048   20.3868 N   0  0  0  0  0  0
  -26.2957  -12.9296   20.3295 N   0  0  0  0  0  0
  -25.9322  -11.6457   20.5774 N   0  0  0  0  0  0
  -22.0444  -12.8264   22.0425 N   0  0  0  0  0  0
  -25.4221  -15.1851   20.4288 N   0  0  0  0  0  0
  -31.7363  -14.9988   20.1630 O   0  0  0  0  0  0
  -21.6625   -6.8851   21.4239 O   0  0  0  0  0  0
  -22.3545  -14.5506   20.6656 O   0  0  0  0  0  0
  -24.6396  -31.8487   23.1885 C   0  0  0  0  0  0
  -25.9192  -32.4710   23.8249 C   0  0  1  0  0  0
  -27.2249  -27.1819   20.1648 C   0  0  0  0  0  0
  -25.5984  -33.8512   24.2184 N   0  0  0  0  0  0
  -23.4392  -30.4657   21.5330 C   0  0  2  0  0  0
  -24.8925  -28.8886   20.1174 C   0  0  0  0  0  0
  -22.7537  -29.4562   22.4877 C   0  0  0  0  0  0
  -18.0305  -28.1381   22.8484 C   0  0  0  0  0  0
  -24.1494  -36.7262   23.2635 C   0  0  0  0  0  0
  -25.9905  -30.7366   21.3787 C   0  0  0  0  0  0
  -26.0661  -29.3479   20.7305 C   0  0  0  0  0  0
  -27.2383  -28.5104   20.7339 C   0  0  0  0  0  0
  -26.0283  -26.8040   19.5220 C   0  0  0  0  0  0
  -24.8818  -27.6278   19.4969 C   0  0  0  0  0  0
  -23.6665  -29.7866   20.1538 C   0  0  0  0  0  0
  -25.4125  -36.3032   24.0297 C   0  0  1  0  0  0
  -20.5919  -28.3685   23.1230 C   0  0  2  0  0  0
  -20.6794  -26.9395   22.5383 C   0  0  0  0  0  0
  -19.5747  -26.6351   21.5218 C   0  0  0  0  0  0
  -18.1933  -26.7920   22.1633 C   0  0  0  0  0  0
  -19.1574  -28.8844   23.2859 C   0  0  0  0  0  0
  -18.9518  -30.1450   23.8874 C   0  0  0  0  0  0
  -17.6525  -30.6585   24.0554 C   0  0  0  0  0  0
  -25.9076  -34.9407   23.5045 C   0  0  0  0  0  0
  -16.5398  -29.9101   23.6333 C   0  0  0  0  0  0
  -16.7304  -28.6515   23.0352 C   0  0  0  0  0  0
  -26.4527  -31.6556   25.0664 C   0  0  0  0  0  0
  -25.3709  -31.3754   26.1361 C   0  0  0  0  0  0
  -27.0383  -30.2953   24.6205 C   0  0  0  0  0  0
  -27.6055  -32.4310   25.7467 C   0  0  0  0  0  0
  -27.5575  -37.1798   24.8459 C   0  0  0  0  0  0
  -21.4239  -29.3039   22.3626 N   0  0  0  0  0  0
  -26.4286  -37.3741   23.9403 N   0  0  0  0  0  0
  -24.7083  -31.0373   22.0894 N   0  0  0  0  0  0
  -23.4195  -28.8097   23.3005 O   0  0  0  0  0  0
  -28.3055  -26.2458   20.1672 O   0  0  0  0  0  0
  -26.5639  -34.8916   22.4611 O   0  0  0  0  0  0
  -23.5537  -32.1347   23.7153 O   0  0  0  0  0  0
  -28.4676  -19.6237   19.7165 C   0  0  0  0  0  0
  -30.2097  -19.6781   21.2742 C   0  0  0  0  0  0
  -29.2110  -20.4569   20.5984 C   0  0  0  0  0  0
  -28.6627  -18.1880   19.6163 C   0  0  0  0  0  0
  -29.6501  -17.4804   20.4014 C   0  0  0  0  0  0
  -26.3703  -17.9577   18.3989 C   0  0  0  0  0  0
  -27.5508  -21.8708   21.9113 C   0  0  0  0  0  0
  -27.7931  -17.4151   18.6167 C   0  0  0  0  0  0
  -28.6787  -23.3616   20.0931 C   0  0  0  0  0  0
  -28.1374  -24.8184   20.7188 C   0  0  0  0  0  0
  -28.8122  -21.9900   21.0378 C   0  0  2  0  0  0
  -30.4155  -18.3056   21.1824 N   0  0  0  0  0  0
  -29.6354  -15.9612   20.4699 N   0  0  0  0  0  0
  -31.4901  -12.7086   19.1610 H   0  0  0  0  0  0
  -30.4622  -11.5686   19.9891 H   0  0  0  0  0  0
  -29.8338  -11.7379   17.5477 H   0  0  0  0  0  0
  -29.6207  -13.4587   17.7079 H   0  0  0  0  0  0
  -27.9392  -11.2601   18.9511 H   0  0  0  0  0  0
  -27.3939  -12.4635   17.8163 H   0  0  0  0  0  0
  -27.6168  -14.2229   19.4352 H   0  0  0  0  0  0
  -28.7690  -12.2062   21.4266 H   0  0  0  0  0  0
  -28.4077  -13.8761   21.7875 H   0  0  0  0  0  0
  -25.2735   -9.5605   22.4808 H   0  0  0  0  0  0
  -23.9922   -7.4590   22.7521 H   0  0  0  0  0  0
  -21.0806   -8.8776   19.9020 H   0  0  0  0  0  0
  -22.3693  -10.9647   19.6209 H   0  0  0  0  0  0
  -21.2021   -7.6142   23.9710 H   0  0  0  0  0  0
  -21.1508   -6.0541   25.9088 H   0  0  0  0  0  0
  -22.0594   -2.7587   23.2887 H   0  0  0  0  0  0
  -22.3996  -11.9915   22.4836 H   0  0  0  0  0  0
  -21.1102  -13.1395   22.2639 H   0  0  0  0  0  0
  -24.6471  -15.8274   20.5554 H   0  0  0  0  0  0
  -26.2665  -15.6449   20.1257 H   0  0  0  0  0  0
  -26.7241  -32.5335   23.0971 H   0  0  0  0  0  0
  -25.0106  -33.9592   25.0319 H   0  0  0  0  0  0
  -22.7381  -31.2892   21.3757 H   0  0  0  0  0  0
  -23.3740  -35.9612   23.3281 H   0  0  0  0  0  0
  -24.3577  -36.8915   22.2055 H   0  0  0  0  0  0
  -23.7282  -37.6468   23.6681 H   0  0  0  0  0  0
  -26.1330  -31.4891   20.6025 H   0  0  0  0  0  0
  -26.8658  -30.7960   22.0122 H   0  0  0  0  0  0
  -28.1395  -28.8580   21.2198 H   0  0  0  0  0  0
  -25.9758  -25.8353   19.0459 H   0  0  0  0  0  0
  -23.9872  -27.2705   19.0032 H   0  0  0  0  0  0
  -23.8035  -30.5562   19.3932 H   0  0  0  0  0  0
  -22.7841  -29.2248   19.8408 H   0  0  0  0  0  0
  -25.1330  -36.1832   25.0785 H   0  0  0  0  0  0
  -20.9998  -28.3264   24.1357 H   0  0  0  0  0  0
  -20.5683  -26.2294   23.3594 H   0  0  0  0  0  0
  -21.6658  -26.7394   22.1169 H   0  0  0  0  0  0
  -19.6910  -25.6246   21.1288 H   0  0  0  0  0  0
  -19.6686  -27.3107   20.6709 H   0  0  0  0  0  0
  -17.4197  -26.6671   21.4039 H   0  0  0  0  0  0
  -18.0343  -26.0069   22.9037 H   0  0  0  0  0  0
  -19.8003  -30.7266   24.2241 H   0  0  0  0  0  0
  -17.5094  -31.6250   24.5185 H   0  0  0  0  0  0
  -15.5405  -30.3015   23.7669 H   0  0  0  0  0  0
  -15.8700  -28.0832   22.7064 H   0  0  0  0  0  0
  -24.5882  -30.7109   25.7678 H   0  0  0  0  0  0
  -24.8911  -32.2950   26.4722 H   0  0  0  0  0  0
  -25.8007  -30.8967   27.0165 H   0  0  0  0  0  0
  -26.2982  -29.6679   24.1224 H   0  0  0  0  0  0
  -27.4023  -29.7250   25.4762 H   0  0  0  0  0  0
  -27.8875  -30.4178   23.9473 H   0  0  0  0  0  0
  -27.2619  -33.3605   26.2002 H   0  0  0  0  0  0
  -28.3900  -32.6872   25.0335 H   0  0  0  0  0  0
  -28.0654  -31.8446   26.5426 H   0  0  0  0  0  0
  -28.2589  -38.0097   24.7496 H   0  0  0  0  0  0
  -28.1077  -36.2632   24.6296 H   0  0  0  0  0  0
  -27.2284  -37.1453   25.8858 H   0  0  0  0  0  0
  -20.9436  -29.8820   21.6874 H   0  0  0  0  0  0
  -26.0143  -38.2805   24.1411 H   0  0  0  0  0  0
  -27.6795  -20.0966   19.1517 H   0  0  0  0  0  0
  -30.8397  -20.1612   22.0062 H   0  0  0  0  0  0
  -25.7871  -17.2611   17.7960 H   0  0  0  0  0  0
  -26.3685  -18.9078   17.8641 H   0  0  0  0  0  0
  -25.8417  -18.0921   19.3436 H   0  0  0  0  0  0
  -27.6896  -21.1366   22.7064 H   0  0  0  0  0  0
  -26.6844  -21.5585   21.3263 H   0  0  0  0  0  0
  -27.3030  -22.8104   22.4023 H   0  0  0  0  0  0
  -27.6887  -16.3787   18.9187 H   0  0  0  0  0  0
  -28.3225  -17.3969   17.6633 H   0  0  0  0  0  0
  -29.6587  -23.5392   19.6492 H   0  0  0  0  0  0
  -28.0207  -23.1266   19.2565 H   0  0  0  0  0  0
  -28.6248  -24.8863   21.6917 H   0  0  0  0  0  0
  -27.0838  -24.6839   20.9686 H   0  0  0  0  0  0
  -29.6109  -22.2532   21.7331 H   0  0  0  0  0  0
  -28.6979  -15.6018   20.5260 H   0  0  0  0  0  0
  1 25  1  0  0  0
  1 30  2  0  0  0
  1 83  1  0  0  0
  2  3  1  0  0  0
  2 25  1  0  0  0
  2 84  1  0  0  0
  2 85  1  0  0  0
  3  4  1  0  0  0
  3 86  1  0  0  0
  3 87  1  0  0  0
  4  5  1  0  0  0
  4 88  1  0  0  0
  4 89  1  0  0  0
  5  6  1  0  0  0
  5 26  1  0  0  0
  5 90  1  0  0  0
  6 25  1  0  0  0
  6 91  1  0  0  0
  6 92  1  0  0  0
  7  8  2  0  0  0
  7 26  1  0  0  0
  7 29  1  0  0  0
  8  9  1  0  0  0
  8 22  1  0  0  0
  9 10  1  0  0  0
  9 27  2  0  0  0
 10 11  2  0  0  0
 10 15  1  0  0  0
 11 12  1  0  0  0
 11 93  1  0  0  0
 12 13  2  0  0  0
 12 94  1  0  0  0
 13 14  1  0  0  0
 13 31  1  0  0  0
 14 15  2  0  0  0
 14 95  1  0  0  0
 15 96  1  0  0  0
 16 17  2  0  0  0
 16 21  1  0  0  0
 16 31  1  0  0  0
 17 18  1  0  0  0
 17 97  1  0  0  0
 18 19  2  0  0  0
 18 98  1  0  0  0
 19 20  1  0  0  0
 19 24  1  0  0  0
 20 21  2  0  0  0
 20 99  1  0  0  0
 21 23  1  0  0  0
 22 28  1  0  0  0
 22 32  2  0  0  0
 26 27  1  0  0  0
 28100  1  0  0  0
 28101  1  0  0  0
 29102  1  0  0  0
 29103  1  0  0  0
 33 34  1  0  0  0
 33 66  1  0  0  0
 33 70  2  0  0  0
 34 36  1  0  0  0
 34 59  1  0  0  0
 34104  1  0  0  0
 35 44  2  0  0  0
 35 45  1  0  0  0
 35 68  1  0  0  0
 36 56  1  0  0  0
 36105  1  0  0  0
 37 39  1  0  0  0
 37 47  1  0  0  0
 37 66  1  0  0  0
 37106  1  0  0  0
 38 43  2  0  0  0
 38 46  1  0  0  0
 38 47  1  0  0  0
 39 64  1  0  0  0
 39 67  2  0  0  0
 40 52  1  0  0  0
 40 53  2  0  0  0
 40 58  1  0  0  0
 41107  1  0  0  0
 41108  1  0  0  0
 41109  1  0  0  0
 41 48  1  0  0  0
 42 43  1  0  0  0
 42 66  1  0  0  0
 42110  1  0  0  0
 42111  1  0  0  0
 43 44  1  0  0  0
 44112  1  0  0  0
 45 46  2  0  0  0
 45113  1  0  0  0
 46114  1  0  0  0
 47115  1  0  0  0
 47116  1  0  0  0
 48 56  1  0  0  0
 48 65  1  0  0  0
 48117  1  0  0  0
 49 50  1  0  0  0
 49 53  1  0  0  0
 49 64  1  0  0  0
 49118  1  0  0  0
 50 51  1  0  0  0
 50119  1  0  0  0
 50120  1  0  0  0
 51 52  1  0  0  0
 51121  1  0  0  0
 51122  1  0  0  0
 52123  1  0  0  0
 52124  1  0  0  0
 53 54  1  0  0  0
 54 55  2  0  0  0
 54125  1  0  0  0
 55 57  1  0  0  0
 55126  1  0  0  0
 56 69  2  0  0  0
 57 58  2  0  0  0
 57127  1  0  0  0
 58128  1  0  0  0
 59 60  1  0  0  0
 59 61  1  0  0  0
 59 62  1  0  0  0
 60129  1  0  0  0
 60130  1  0  0  0
 60131  1  0  0  0
 61132  1  0  0  0
 61133  1  0  0  0
 61134  1  0  0  0
 62135  1  0  0  0
 62136  1  0  0  0
 62137  1  0  0  0
 63 65  1  0  0  0
 63138  1  0  0  0
 63139  1  0  0  0
 63140  1  0  0  0
 64141  1  0  0  0
 65142  1  0  0  0
 68 80  1  0  0  0
 71 73  2  0  0  0
 71 74  1  0  0  0
 71143  1  0  0  0
 72 73  1  0  0  0
 72 82  2  0  0  0
 72144  1  0  0  0
 73 81  1  0  0  0
 74 75  2  0  0  0
 74 78  1  0  0  0
 75 82  1  0  0  0
 75 83  1  0  0  0
 76 78  1  0  0  0
 76145  1  0  0  0
 76146  1  0  0  0
 76147  1  0  0  0
 77148  1  0  0  0
 77149  1  0  0  0
 77150  1  0  0  0
 77 81  1  0  0  0
 78151  1  0  0  0
 78152  1  0  0  0
 79 80  1  0  0  0
 79 81  1  0  0  0
 79153  1  0  0  0
 79154  1  0  0  0
 80155  1  0  0  0
 80156  1  0  0  0
 81157  1  0  0  0
 83158  1  0  0  0
M  ISO  4   1 100  68 101  80 101  83 100
M  END
> <chiral flag>
0

> <version>
0

> <s_m_source_file>
/data/baiqing/PycharmProjects/Reinvent-master-3.2/result/LINK_invent/BTK/process_docking_weight1_custom_sum_contain_oxygen_bond_distance_aromatic_linkinvent_7_9_3/rearranged_h_0087.sdf

> <i_m_source_file_index>
60

> <r_mmod_Potential_Energy-OPLS-2005>
293.717956542969

> <r_mmod_Stretch_Energy-OPLS-2005>
198.404800415039

> <r_mmod_Bend_Energy-OPLS-2005>
247.37532043457

> <r_mmod_Torsional_Energy-OPLS-2005>
259.260223388672

> <r_mmod_Improper_Torsional_Energy-OPLS-2005>
9.11420345306396

> <r_mmod_Van_der_Waal_Energy-OPLS-2005>
128.413009643555

> <r_mmod_Electrostatic_Energy-OPLS-2005>
-472.411773681641

> <r_mmod_Solvation_Energy-OPLS-2005>
-224.041442871094

> <b_mmod_Minimization_Converged-OPLS-2005>
0

> <r_mmod_RMS_Derivative-OPLS-2005>
2.90166211128235

$$$$
61
                    3D
 Structure written by MMmdl.
174182  0  0  1  0            999 V2000
  -30.6505  -14.5825   20.4653 C   0  0  0  0  0  0
  -30.4374  -12.3479   19.4473 C   0  0  0  0  0  0
  -29.5102  -12.4782   18.2205 C   0  0  0  0  0  0
  -28.0274  -12.3452   18.6248 C   0  0  0  0  0  0
  -27.6560  -13.2150   19.8571 C   0  0  2  0  0  0
  -28.7019  -13.0694   20.9874 C   0  0  0  0  0  0
  -25.2568  -13.8176   20.5672 C   0  0  0  0  0  0
  -24.1837  -13.0448   20.9165 C   0  0  0  0  0  0
  -24.6383  -11.6914   20.8714 C   0  0  0  0  0  0
  -23.9026  -10.4294   21.0373 C   0  0  0  0  0  0
  -24.3586   -9.4207   21.9147 C   0  0  0  0  0  0
  -23.6261   -8.2244   22.0732 C   0  0  0  0  0  0
  -22.4247   -8.0264   21.3526 C   0  0  0  0  0  0
  -21.9872   -9.0238   20.4633 C   0  0  0  0  0  0
  -22.7193  -10.2121   20.3029 C   0  0  0  0  0  0
  -21.6846   -6.0699   22.5261 C   0  0  0  0  0  0
  -21.4021   -6.5611   23.8197 C   0  0  0  0  0  0
  -21.3670   -5.6765   24.9169 C   0  0  0  0  0  0
  -21.6043   -4.3024   24.7217 C   0  0  0  0  0  0
  -21.8827   -3.8113   23.4347 C   0  0  0  0  0  0
  -21.9201   -4.6927   22.3400 C   0  0  0  0  0  0
  -22.7850  -13.5225   21.1833 C   0  0  0  0  0  0
  -22.1661   -4.2107   21.0971 F   0  0  0  0  0  0
  -21.5645   -3.4520   25.7741 F   0  0  0  0  0  0
  -30.0225  -13.3727   20.4199 N   0  0  0  0  0  0
  -26.3006  -12.9365   20.3281 N   0  0  0  0  0  0
  -25.9317  -11.6515   20.5729 N   0  0  0  0  0  0
  -22.0490  -12.8236   22.0409 N   0  0  0  0  0  0
  -25.4257  -15.1909   20.4117 N   0  0  0  0  0  0
  -31.8242  -14.7290   20.1199 O   0  0  0  0  0  0
  -21.6633   -6.8847   21.4225 O   0  0  0  0  0  0
  -22.3509  -14.5504   20.6640 O   0  0  0  0  0  0
  -24.6250  -31.8599   23.2002 C   0  0  0  0  0  0
  -25.9108  -32.4805   23.8331 C   0  0  1  0  0  0
  -27.2320  -27.3601   20.0947 C   0  0  0  0  0  0
  -25.5918  -33.8595   24.2240 N   0  0  0  0  0  0
  -23.4160  -30.4831   21.5420 C   0  0  2  0  0  0
  -24.8590  -28.9359   20.1059 C   0  0  0  0  0  0
  -22.7465  -29.4610   22.4915 C   0  0  0  0  0  0
  -18.0271  -28.1384   22.8493 C   0  0  0  0  0  0
  -24.1481  -36.7295   23.2651 C   0  0  0  0  0  0
  -25.9520  -30.7996   21.3620 C   0  0  0  0  0  0
  -26.0204  -29.4261   20.7124 C   0  0  0  0  0  0
  -27.2060  -28.6462   20.7048 C   0  0  0  0  0  0
  -26.0514  -26.9079   19.4637 C   0  0  0  0  0  0
  -24.8716  -27.6775   19.4793 C   0  0  0  0  0  0
  -23.6259  -29.8148   20.1551 C   0  0  0  0  0  0
  -25.4107  -36.3090   24.0332 C   0  0  1  0  0  0
  -20.5876  -28.3669   23.1288 C   0  0  2  0  0  0
  -20.6740  -26.9383   22.5409 C   0  0  0  0  0  0
  -19.5704  -26.6365   21.5212 C   0  0  0  0  0  0
  -18.1882  -26.7937   22.1618 C   0  0  0  0  0  0
  -19.1530  -28.8834   23.2898 C   0  0  0  0  0  0
  -18.9459  -30.1455   23.8888 C   0  0  0  0  0  0
  -17.6459  -30.6571   24.0586 C   0  0  0  0  0  0
  -25.9052  -34.9469   23.5076 C   0  0  0  0  0  0
  -16.5352  -29.9079   23.6332 C   0  0  0  0  0  0
  -16.7272  -28.6507   23.0332 C   0  0  0  0  0  0
  -26.4491  -31.6676   25.0731 C   0  0  0  0  0  0
  -25.3742  -31.3866   26.1495 C   0  0  0  0  0  0
  -27.0364  -30.3117   24.6178 C   0  0  0  0  0  0
  -27.6018  -32.4469   25.7481 C   0  0  0  0  0  0
  -27.5579  -37.1789   24.8456 C   0  0  0  0  0  0
  -21.4162  -29.3066   22.3711 N   0  0  0  0  0  0
  -26.4269  -37.3800   23.9426 N   0  0  0  0  0  0
  -24.6835  -31.0642   22.0932 N   0  0  0  0  0  0
  -23.4208  -28.8136   23.2970 O   0  0  0  0  0  0
  -28.3842  -26.5784   20.1633 O   0  0  0  0  0  0
  -26.5620  -34.8943   22.4662 O   0  0  0  0  0  0
  -23.5413  -32.1381   23.7345 O   0  0  0  0  0  0
  -30.7594  -22.4492   20.3045 C   0  0  0  0  0  0
  -29.2641  -20.6285   20.8621 C   0  0  0  0  0  0
  -29.4763  -22.0262   20.6707 C   0  0  0  0  0  0
  -31.8203  -21.5366   20.1522 C   0  0  0  0  0  0
  -30.3136  -19.6655   20.7331 C   0  0  0  0  0  0
  -31.6195  -20.1374   20.3719 C   0  0  0  0  0  0
  -33.4673  -22.0611   18.2935 C   0  0  0  0  0  0
  -34.1849  -17.5279   21.5285 C   0  0  0  0  0  0
  -33.6671  -19.6914   22.5809 C   0  0  0  0  0  0
  -28.4186  -23.0965   21.0285 C   0  0  0  0  0  0
  -33.1759  -22.1403   19.7973 C   0  0  0  0  0  0
  -30.0407  -18.1876   21.1686 C   0  0  0  0  0  0
  -32.8164  -19.1732   20.2921 C   0  0  0  0  0  0
  -27.8123  -24.0014   19.9004 C   0  0  0  0  0  0
  -30.0562  -17.0415   20.0988 C   0  0  0  0  0  0
  -28.5238  -25.3256   19.4268 C   0  0  0  0  0  0
  -29.8421  -15.6633   20.6360 N   0  0  0  0  0  0
  -33.2249  -18.6523   21.6211 N   0  3  0  0  0  0
  -31.4787  -12.4651   19.1388 H   0  0  0  0  0  0
  -30.3694  -11.3522   19.8871 H   0  0  0  0  0  0
  -29.7646  -11.7236   17.4747 H   0  0  0  0  0  0
  -29.6764  -13.4428   17.7421 H   0  0  0  0  0  0
  -27.8361  -11.2951   18.8414 H   0  0  0  0  0  0
  -27.3858  -12.6009   17.7815 H   0  0  0  0  0  0
  -27.6749  -14.2488   19.5117 H   0  0  0  0  0  0
  -28.6953  -12.0584   21.3954 H   0  0  0  0  0  0
  -28.4643  -13.7350   21.8193 H   0  0  0  0  0  0
  -25.2748   -9.5691   22.4697 H   0  0  0  0  0  0
  -23.9970   -7.4650   22.7467 H   0  0  0  0  0  0
  -21.0793   -8.8747   19.8955 H   0  0  0  0  0  0
  -22.3632  -10.9648   19.6124 H   0  0  0  0  0  0
  -21.1998   -7.6109   23.9683 H   0  0  0  0  0  0
  -21.1495   -6.0493   25.9061 H   0  0  0  0  0  0
  -22.0601   -2.7567   23.2858 H   0  0  0  0  0  0
  -22.4086  -11.9886   22.4811 H   0  0  0  0  0  0
  -21.1113  -13.1279   22.2615 H   0  0  0  0  0  0
  -24.6566  -15.8423   20.5264 H   0  0  0  0  0  0
  -26.2688  -15.6377   20.0736 H   0  0  0  0  0  0
  -26.7192  -32.5419   23.1092 H   0  0  0  0  0  0
  -25.0172  -33.9763   25.0451 H   0  0  0  0  0  0
  -22.7107  -31.3035   21.3999 H   0  0  0  0  0  0
  -23.3751  -35.9621   23.3307 H   0  0  0  0  0  0
  -24.3589  -36.8914   22.2070 H   0  0  0  0  0  0
  -23.7210  -37.6491   23.6678 H   0  0  0  0  0  0
  -26.0745  -31.5511   20.5815 H   0  0  0  0  0  0
  -26.8435  -30.8558   21.9758 H   0  0  0  0  0  0
  -28.0999  -29.0237   21.1806 H   0  0  0  0  0  0
  -26.0148  -25.9498   18.9687 H   0  0  0  0  0  0
  -23.9817  -27.2921   19.0010 H   0  0  0  0  0  0
  -23.7485  -30.5945   19.4033 H   0  0  0  0  0  0
  -22.7462  -29.2464   19.8514 H   0  0  0  0  0  0
  -25.1294  -36.1933   25.0823 H   0  0  0  0  0  0
  -20.9984  -28.3214   24.1408 H   0  0  0  0  0  0
  -20.5553  -26.2286   23.3625 H   0  0  0  0  0  0
  -21.6608  -26.7336   22.1249 H   0  0  0  0  0  0
  -19.6840  -25.6268   21.1251 H   0  0  0  0  0  0
  -19.6644  -27.3169   20.6743 H   0  0  0  0  0  0
  -17.4170  -26.6724   21.4017 H   0  0  0  0  0  0
  -18.0247  -26.0063   22.8988 H   0  0  0  0  0  0
  -19.7932  -30.7287   24.2211 H   0  0  0  0  0  0
  -17.5013  -31.6237   24.5225 H   0  0  0  0  0  0
  -15.5346  -30.2990   23.7646 H   0  0  0  0  0  0
  -15.8673  -28.0848   22.7013 H   0  0  0  0  0  0
  -24.5750  -30.7420   25.7842 H   0  0  0  0  0  0
  -24.9162  -32.3105   26.5058 H   0  0  0  0  0  0
  -25.8063  -30.8897   27.0191 H   0  0  0  0  0  0
  -26.2947  -29.6833   24.1244 H   0  0  0  0  0  0
  -27.4180  -29.7406   25.4660 H   0  0  0  0  0  0
  -27.8754  -30.4485   23.9336 H   0  0  0  0  0  0
  -27.2574  -33.3739   26.2082 H   0  0  0  0  0  0
  -28.3795  -32.7124   25.0306 H   0  0  0  0  0  0
  -28.0756  -31.8638   26.5383 H   0  0  0  0  0  0
  -28.2588  -38.0104   24.7580 H   0  0  0  0  0  0
  -28.1080  -36.2653   24.6183 H   0  0  0  0  0  0
  -27.2327  -37.1331   25.8863 H   0  0  0  0  0  0
  -20.9287  -29.8921   21.7075 H   0  0  0  0  0  0
  -26.0136  -38.2860   24.1481 H   0  0  0  0  0  0
  -30.9442  -23.5085   20.1986 H   0  0  0  0  0  0
  -28.2909  -20.2964   21.1938 H   0  0  0  0  0  0
  -34.4411  -22.4913   18.0658 H   0  0  0  0  0  0
  -32.7175  -22.6103   17.7242 H   0  0  0  0  0  0
  -33.4647  -21.0316   17.9345 H   0  0  0  0  0  0
  -34.4346  -17.1536   22.5222 H   0  0  0  0  0  0
  -35.1125  -17.8310   21.0388 H   0  0  0  0  0  0
  -33.7633  -16.6929   20.9676 H   0  0  0  0  0  0
  -33.8148  -19.2520   23.5685 H   0  0  0  0  0  0
  -32.9242  -20.4807   22.7002 H   0  0  0  0  0  0
  -34.6055  -20.1526   22.2704 H   0  0  0  0  0  0
  -28.8164  -23.7257   21.8254 H   0  0  0  0  0  0
  -27.5916  -22.5492   21.4815 H   0  0  0  0  0  0
  -33.9748  -21.6823   20.3783 H   0  0  0  0  0  0
  -33.1934  -23.1884   20.1018 H   0  0  0  0  0  0
  -29.0600  -18.1705   21.6505 H   0  0  0  0  0  0
  -30.7285  -17.9323   21.9731 H   0  0  0  0  0  0
  -33.6813  -19.6206   19.8065 H   0  0  0  0  0  0
  -32.5695  -18.3507   19.6273 H   0  0  0  0  0  0
  -26.8032  -24.2697   20.2138 H   0  0  0  0  0  0
  -27.6681  -23.3562   19.0355 H   0  0  0  0  0  0
  -29.2666  -17.2444   19.3739 H   0  0  0  0  0  0
  -30.9685  -17.0522   19.5092 H   0  0  0  0  0  0
  -28.2330  -25.5166   18.3922 H   0  0  0  0  0  0
  -29.5914  -25.1253   19.3607 H   0  0  0  0  0  0
  -28.9024  -15.4512   20.9403 H   0  0  0  0  0  0
  -32.3856  -18.2637   22.0210 H   0  0  0  0  0  0
  1 25  1  0  0  0
  1 30  2  0  0  0
  1 87  1  0  0  0
  2  3  1  0  0  0
  2 25  1  0  0  0
  2 89  1  0  0  0
  2 90  1  0  0  0
  3  4  1  0  0  0
  3 91  1  0  0  0
  3 92  1  0  0  0
  4  5  1  0  0  0
  4 93  1  0  0  0
  4 94  1  0  0  0
  5  6  1  0  0  0
  5 26  1  0  0  0
  5 95  1  0  0  0
  6 25  1  0  0  0
  6 96  1  0  0  0
  6 97  1  0  0  0
  7  8  2  0  0  0
  7 26  1  0  0  0
  7 29  1  0  0  0
  8  9  1  0  0  0
  8 22  1  0  0  0
  9 10  1  0  0  0
  9 27  2  0  0  0
 10 11  2  0  0  0
 10 15  1  0  0  0
 11 12  1  0  0  0
 11 98  1  0  0  0
 12 13  2  0  0  0
 12 99  1  0  0  0
 13 14  1  0  0  0
 13 31  1  0  0  0
 14 15  2  0  0  0
 14100  1  0  0  0
 15101  1  0  0  0
 16 17  2  0  0  0
 16 21  1  0  0  0
 16 31  1  0  0  0
 17 18  1  0  0  0
 17102  1  0  0  0
 18 19  2  0  0  0
 18103  1  0  0  0
 19 20  1  0  0  0
 19 24  1  0  0  0
 20 21  2  0  0  0
 20104  1  0  0  0
 21 23  1  0  0  0
 22 28  1  0  0  0
 22 32  2  0  0  0
 26 27  1  0  0  0
 28105  1  0  0  0
 28106  1  0  0  0
 29107  1  0  0  0
 29108  1  0  0  0
 33 34  1  0  0  0
 33 66  1  0  0  0
 33 70  2  0  0  0
 34 36  1  0  0  0
 34 59  1  0  0  0
 34109  1  0  0  0
 35 44  2  0  0  0
 35 45  1  0  0  0
 35 68  1  0  0  0
 36 56  1  0  0  0
 36110  1  0  0  0
 37 39  1  0  0  0
 37 47  1  0  0  0
 37 66  1  0  0  0
 37111  1  0  0  0
 38 43  2  0  0  0
 38 46  1  0  0  0
 38 47  1  0  0  0
 39 64  1  0  0  0
 39 67  2  0  0  0
 40 52  1  0  0  0
 40 53  2  0  0  0
 40 58  1  0  0  0
 41112  1  0  0  0
 41113  1  0  0  0
 41114  1  0  0  0
 41 48  1  0  0  0
 42 43  1  0  0  0
 42 66  1  0  0  0
 42115  1  0  0  0
 42116  1  0  0  0
 43 44  1  0  0  0
 44117  1  0  0  0
 45 46  2  0  0  0
 45118  1  0  0  0
 46119  1  0  0  0
 47120  1  0  0  0
 47121  1  0  0  0
 48 56  1  0  0  0
 48 65  1  0  0  0
 48122  1  0  0  0
 49 50  1  0  0  0
 49 53  1  0  0  0
 49 64  1  0  0  0
 49123  1  0  0  0
 50 51  1  0  0  0
 50124  1  0  0  0
 50125  1  0  0  0
 51 52  1  0  0  0
 51126  1  0  0  0
 51127  1  0  0  0
 52128  1  0  0  0
 52129  1  0  0  0
 53 54  1  0  0  0
 54 55  2  0  0  0
 54130  1  0  0  0
 55 57  1  0  0  0
 55131  1  0  0  0
 56 69  2  0  0  0
 57 58  2  0  0  0
 57132  1  0  0  0
 58133  1  0  0  0
 59 60  1  0  0  0
 59 61  1  0  0  0
 59 62  1  0  0  0
 60134  1  0  0  0
 60135  1  0  0  0
 60136  1  0  0  0
 61137  1  0  0  0
 61138  1  0  0  0
 61139  1  0  0  0
 62140  1  0  0  0
 62141  1  0  0  0
 62142  1  0  0  0
 63 65  1  0  0  0
 63143  1  0  0  0
 63144  1  0  0  0
 63145  1  0  0  0
 64146  1  0  0  0
 65147  1  0  0  0
 68 86  1  0  0  0
 71 73  2  0  0  0
 71 74  1  0  0  0
 71148  1  0  0  0
 72 73  1  0  0  0
 72 75  2  0  0  0
 72149  1  0  0  0
 73 80  1  0  0  0
 74 76  2  0  0  0
 74 81  1  0  0  0
 75 76  1  0  0  0
 75 82  1  0  0  0
 76 83  1  0  0  0
 77 81  1  0  0  0
 77150  1  0  0  0
 77151  1  0  0  0
 77152  1  0  0  0
 78153  1  0  0  0
 78154  1  0  0  0
 78155  1  0  0  0
 78 88  1  0  0  0
 79 88  1  0  0  0
 79156  1  0  0  0
 79157  1  0  0  0
 79158  1  0  0  0
 80 84  1  0  0  0
 80159  1  0  0  0
 80160  1  0  0  0
 81161  1  0  0  0
 81162  1  0  0  0
 82 85  1  0  0  0
 82163  1  0  0  0
 82164  1  0  0  0
 83 88  1  0  0  0
 83165  1  0  0  0
 83166  1  0  0  0
 84 86  1  0  0  0
 84167  1  0  0  0
 84168  1  0  0  0
 85 87  1  0  0  0
 85169  1  0  0  0
 85170  1  0  0  0
 86171  1  0  0  0
 86172  1  0  0  0
 87173  1  0  0  0
 88174  1  0  0  0
M  CHG  1  88   1
M  ISO  4   1 100  68 101  86 101  87 100
M  END
> <chiral flag>
0

> <version>
0

> <s_m_source_file>
/data/baiqing/PycharmProjects/Reinvent-master-3.2/result/LINK_invent/BTK/process_docking_weight1_custom_sum_contain_oxygen_bond_distance_aromatic_linkinvent_7_9_3/rearranged_h_0087.sdf

> <i_m_source_file_index>
61

> <r_mmod_Potential_Energy-OPLS-2005>
-141.82356262207

> <r_mmod_Stretch_Energy-OPLS-2005>
62.7372436523438

> <r_mmod_Bend_Energy-OPLS-2005>
143.340744018555

> <r_mmod_Torsional_Energy-OPLS-2005>
207.868591308594

> <r_mmod_Improper_Torsional_Energy-OPLS-2005>
9.08982467651367

> <r_mmod_Van_der_Waal_Energy-OPLS-2005>
142.251815795898

> <r_mmod_Electrostatic_Energy-OPLS-2005>
-333.183441162109

> <r_mmod_Solvation_Energy-OPLS-2005>
-409.020599365234

> <b_mmod_Minimization_Converged-OPLS-2005>
0

> <r_mmod_RMS_Derivative-OPLS-2005>
4.07079792022705

$$$$
62
                    3D
 Structure written by MMmdl.
164172  0  0  1  0            999 V2000
  -30.6566  -14.6185   20.5103 C   0  0  0  0  0  0
  -30.4160  -12.3801   19.4619 C   0  0  0  0  0  0
  -29.4919  -12.4871   18.2270 C   0  0  0  0  0  0
  -28.0188  -12.3230   18.6454 C   0  0  0  0  0  0
  -27.6480  -13.2108   19.8636 C   0  0  2  0  0  0
  -28.6903  -13.0936   20.9978 C   0  0  0  0  0  0
  -25.2594  -13.8161   20.5654 C   0  0  0  0  0  0
  -24.1817  -13.0408   20.9156 C   0  0  0  0  0  0
  -24.6372  -11.6905   20.8741 C   0  0  0  0  0  0
  -23.9030  -10.4250   21.0400 C   0  0  0  0  0  0
  -24.3604   -9.4195   21.9199 C   0  0  0  0  0  0
  -23.6287   -8.2232   22.0772 C   0  0  0  0  0  0
  -22.4290   -8.0255   21.3545 C   0  0  0  0  0  0
  -21.9894   -9.0215   20.4663 C   0  0  0  0  0  0
  -22.7199  -10.2109   20.3070 C   0  0  0  0  0  0
  -21.6856   -6.0731   22.5255 C   0  0  0  0  0  0
  -21.4012   -6.5634   23.8191 C   0  0  0  0  0  0
  -21.3682   -5.6804   24.9159 C   0  0  0  0  0  0
  -21.6035   -4.3049   24.7222 C   0  0  0  0  0  0
  -21.8837   -3.8147   23.4338 C   0  0  0  0  0  0
  -21.9190   -4.6950   22.3399 C   0  0  0  0  0  0
  -22.7855  -13.5250   21.1777 C   0  0  0  0  0  0
  -22.1668   -4.2142   21.0970 F   0  0  0  0  0  0
  -21.5641   -3.4538   25.7731 F   0  0  0  0  0  0
  -29.9994  -13.4232   20.4246 N   0  0  0  0  0  0
  -26.2963  -12.9308   20.3358 N   0  0  0  0  0  0
  -25.9298  -11.6461   20.5804 N   0  0  0  0  0  0
  -22.0544  -12.8249   22.0403 N   0  0  0  0  0  0
  -25.4275  -15.1839   20.4003 N   0  0  0  0  0  0
  -31.8294  -14.7171   20.1349 O   0  0  0  0  0  0
  -21.6647   -6.8867   21.4230 O   0  0  0  0  0  0
  -22.3549  -14.5547   20.6614 O   0  0  0  0  0  0
  -24.6313  -31.8770   23.2135 C   0  0  0  0  0  0
  -25.9181  -32.4854   23.8528 C   0  0  1  0  0  0
  -27.2247  -27.3700   20.1452 C   0  0  0  0  0  0
  -25.6073  -33.8651   24.2473 N   0  0  0  0  0  0
  -23.4252  -30.5221   21.5385 C   0  0  2  0  0  0
  -24.8683  -28.9662   20.1189 C   0  0  0  0  0  0
  -22.7533  -29.5066   22.4903 C   0  0  0  0  0  0
  -18.0422  -28.1291   22.8226 C   0  0  0  0  0  0
  -24.1509  -36.7296   23.2640 C   0  0  0  0  0  0
  -25.9620  -30.8267   21.3796 C   0  0  0  0  0  0
  -26.0345  -29.4589   20.7181 C   0  0  0  0  0  0
  -27.2211  -28.6760   20.7178 C   0  0  0  0  0  0
  -26.0530  -26.9395   19.5005 C   0  0  0  0  0  0
  -24.8792  -27.7101   19.4983 C   0  0  0  0  0  0
  -23.6332  -29.8388   20.1598 C   0  0  0  0  0  0
  -25.4128  -36.3139   24.0355 C   0  0  1  0  0  0
  -20.5999  -28.4063   23.1031 C   0  0  2  0  0  0
  -20.7413  -27.0076   22.4570 C   0  0  0  0  0  0
  -19.6226  -26.6632   21.4692 C   0  0  0  0  0  0
  -18.2245  -26.8032   22.0952 C   0  0  0  0  0  0
  -19.1568  -28.8921   23.2624 C   0  0  0  0  0  0
  -18.9365  -30.1473   23.8788 C   0  0  0  0  0  0
  -17.6276  -30.6327   24.0645 C   0  0  0  0  0  0
  -25.9079  -34.9475   23.5200 C   0  0  0  0  0  0
  -16.5237  -29.8576   23.6523 C   0  0  0  0  0  0
  -16.7330  -28.6071   23.0402 C   0  0  0  0  0  0
  -26.4522  -31.6588   25.0847 C   0  0  0  0  0  0
  -25.3783  -31.3651   26.1584 C   0  0  0  0  0  0
  -27.0388  -30.3033   24.6302 C   0  0  0  0  0  0
  -27.6134  -32.4266   25.7616 C   0  0  0  0  0  0
  -27.5601  -37.1828   24.8476 C   0  0  0  0  0  0
  -21.4186  -29.3974   22.4097 N   0  0  0  0  0  0
  -26.4330  -37.3805   23.9403 N   0  0  0  0  0  0
  -24.6914  -31.0906   22.0992 N   0  0  0  0  0  0
  -23.4310  -28.8054   23.2431 O   0  0  0  0  0  0
  -28.3379  -26.5331   20.2374 O   0  0  0  0  0  0
  -26.5514  -34.8934   22.4703 O   0  0  0  0  0  0
  -23.5472  -32.1502   23.7485 O   0  0  0  0  0  0
  -28.0890  -21.4864   20.5085 C   0  0  0  0  0  0
  -25.6818  -21.0675   19.2717 C   0  0  0  0  0  0
  -27.2087  -22.6307   20.3619 C   0  0  0  0  0  0
  -25.9349  -22.3619   19.7603 C   0  0  0  0  0  0
  -27.6793  -20.1849   20.0560 C   0  0  0  0  0  0
  -23.4343  -22.8911   19.1555 C   0  0  0  0  0  0
  -28.3007  -24.0622   22.2339 C   0  0  0  0  0  0
  -24.8096  -23.4015   19.6308 C   0  0  0  0  0  0
  -28.3516  -18.7757   20.1918 C   0  0  0  0  0  0
  -29.7084  -18.4882   20.8888 C   0  0  0  0  0  0
  -30.4697  -17.1414   20.4913 C   0  0  0  0  0  0
  -28.2518  -25.0969   19.9015 C   0  0  0  0  0  0
  -27.5361  -24.0872   20.8985 C   0  0  1  0  0  0
  -26.5094  -20.0312   19.4140 N   0  0  0  0  0  0
  -29.9388  -15.7575   20.7855 N   0  0  0  0  0  0
  -31.4604  -12.4871   19.1578 H   0  0  0  0  0  0
  -30.3362  -11.3919   19.9173 H   0  0  0  0  0  0
  -29.7577  -11.7236   17.4890 H   0  0  0  0  0  0
  -29.6275  -13.4532   17.7369 H   0  0  0  0  0  0
  -27.8648  -11.2692   18.8926 H   0  0  0  0  0  0
  -27.3585  -12.5401   17.8047 H   0  0  0  0  0  0
  -27.6640  -14.2392   19.5066 H   0  0  0  0  0  0
  -28.7036  -12.0822   21.4052 H   0  0  0  0  0  0
  -28.4398  -13.7525   21.8310 H   0  0  0  0  0  0
  -25.2765   -9.5682   22.4762 H   0  0  0  0  0  0
  -24.0008   -7.4635   22.7477 H   0  0  0  0  0  0
  -21.0852   -8.8728   19.8942 H   0  0  0  0  0  0
  -22.3669  -10.9656   19.6188 H   0  0  0  0  0  0
  -21.2009   -7.6145   23.9691 H   0  0  0  0  0  0
  -21.1491   -6.0530   25.9069 H   0  0  0  0  0  0
  -22.0597   -2.7599   23.2829 H   0  0  0  0  0  0
  -22.4237  -11.9954   22.4808 H   0  0  0  0  0  0
  -21.1167  -13.1276   22.2625 H   0  0  0  0  0  0
  -24.6495  -15.8294   20.4747 H   0  0  0  0  0  0
  -26.2774  -15.6215   20.0682 H   0  0  0  0  0  0
  -26.7316  -32.5546   23.1377 H   0  0  0  0  0  0
  -25.0433  -33.9823   25.0754 H   0  0  0  0  0  0
  -22.7309  -31.3464   21.3901 H   0  0  0  0  0  0
  -23.3793  -35.9615   23.3306 H   0  0  0  0  0  0
  -24.3621  -36.8884   22.2063 H   0  0  0  0  0  0
  -23.7201  -37.6500   23.6600 H   0  0  0  0  0  0
  -26.1179  -31.6083   20.6321 H   0  0  0  0  0  0
  -26.8255  -30.8561   22.0323 H   0  0  0  0  0  0
  -28.1171  -29.0676   21.1855 H   0  0  0  0  0  0
  -26.0355  -25.9969   18.9911 H   0  0  0  0  0  0
  -23.9875  -27.3301   19.0225 H   0  0  0  0  0  0
  -23.7296  -30.6007   19.3793 H   0  0  0  0  0  0
  -22.7580  -29.2525   19.8771 H   0  0  0  0  0  0
  -25.1281  -36.2065   25.0838 H   0  0  0  0  0  0
  -20.9919  -28.3372   24.1179 H   0  0  0  0  0  0
  -20.7398  -26.2572   23.2509 H   0  0  0  0  0  0
  -21.7014  -26.9125   21.9392 H   0  0  0  0  0  0
  -19.7804  -25.6476   21.0983 H   0  0  0  0  0  0
  -19.7227  -27.3204   20.5994 H   0  0  0  0  0  0
  -17.4833  -26.7175   21.2967 H   0  0  0  0  0  0
  -18.0575  -25.9805   22.7871 H   0  0  0  0  0  0
  -19.7849  -30.7416   24.2056 H   0  0  0  0  0  0
  -17.4673  -31.5931   24.5342 H   0  0  0  0  0  0
  -15.5105  -30.2029   23.8131 H   0  0  0  0  0  0
  -15.8919  -28.0054   22.7188 H   0  0  0  0  0  0
  -24.6002  -30.6960   25.7922 H   0  0  0  0  0  0
  -24.8914  -32.2753   26.5107 H   0  0  0  0  0  0
  -25.8161  -30.8808   27.0330 H   0  0  0  0  0  0
  -26.3011  -29.6799   24.1264 H   0  0  0  0  0  0
  -27.4034  -29.7282   25.4827 H   0  0  0  0  0  0
  -27.8898  -30.4349   23.9612 H   0  0  0  0  0  0
  -27.2826  -33.3566   26.2261 H   0  0  0  0  0  0
  -28.3922  -32.6818   25.0410 H   0  0  0  0  0  0
  -28.0837  -31.8327   26.5480 H   0  0  0  0  0  0
  -28.2639  -38.0106   24.7532 H   0  0  0  0  0  0
  -28.1077  -36.2649   24.6302 H   0  0  0  0  0  0
  -27.2312  -37.1475   25.8876 H   0  0  0  0  0  0
  -20.9221  -30.1034   21.8861 H   0  0  0  0  0  0
  -26.0250  -38.2919   24.1349 H   0  0  0  0  0  0
  -29.0526  -21.6032   20.9837 H   0  0  0  0  0  0
  -24.7727  -20.8132   18.7475 H   0  0  0  0  0  0
  -23.4670  -22.5367   18.1234 H   0  0  0  0  0  0
  -22.6791  -23.6782   19.2010 H   0  0  0  0  0  0
  -23.0939  -22.0748   19.7969 H   0  0  0  0  0  0
  -27.8589  -23.3611   22.9424 H   0  0  0  0  0  0
  -28.3179  -25.0406   22.7179 H   0  0  0  0  0  0
  -29.3369  -23.7737   22.0923 H   0  0  0  0  0  0
  -24.6274  -23.8371   20.6141 H   0  0  0  0  0  0
  -25.1433  -24.1650   18.9360 H   0  0  0  0  0  0
  -28.4259  -18.3805   19.1818 H   0  0  0  0  0  0
  -27.6159  -18.1376   20.6847 H   0  0  0  0  0  0
  -29.6268  -18.6024   21.9743 H   0  0  0  0  0  0
  -30.3672  -19.3024   20.5727 H   0  0  0  0  0  0
  -31.4598  -17.2025   20.9455 H   0  0  0  0  0  0
  -30.6525  -17.1802   19.4137 H   0  0  0  0  0  0
  -27.8810  -24.9722   18.8874 H   0  0  0  0  0  0
  -29.2887  -24.7656   19.8283 H   0  0  0  0  0  0
  -26.5790  -24.5435   21.1435 H   0  0  0  0  0  0
  -28.9743  -15.6558   21.0620 H   0  0  0  0  0  0
  1 25  1  0  0  0
  1 30  2  0  0  0
  1 85  1  0  0  0
  2  3  1  0  0  0
  2 25  1  0  0  0
  2 86  1  0  0  0
  2 87  1  0  0  0
  3  4  1  0  0  0
  3 88  1  0  0  0
  3 89  1  0  0  0
  4  5  1  0  0  0
  4 90  1  0  0  0
  4 91  1  0  0  0
  5  6  1  0  0  0
  5 26  1  0  0  0
  5 92  1  0  0  0
  6 25  1  0  0  0
  6 93  1  0  0  0
  6 94  1  0  0  0
  7  8  2  0  0  0
  7 26  1  0  0  0
  7 29  1  0  0  0
  8  9  1  0  0  0
  8 22  1  0  0  0
  9 10  1  0  0  0
  9 27  2  0  0  0
 10 11  2  0  0  0
 10 15  1  0  0  0
 11 12  1  0  0  0
 11 95  1  0  0  0
 12 13  2  0  0  0
 12 96  1  0  0  0
 13 14  1  0  0  0
 13 31  1  0  0  0
 14 15  2  0  0  0
 14 97  1  0  0  0
 15 98  1  0  0  0
 16 17  2  0  0  0
 16 21  1  0  0  0
 16 31  1  0  0  0
 17 18  1  0  0  0
 17 99  1  0  0  0
 18 19  2  0  0  0
 18100  1  0  0  0
 19 20  1  0  0  0
 19 24  1  0  0  0
 20 21  2  0  0  0
 20101  1  0  0  0
 21 23  1  0  0  0
 22 28  1  0  0  0
 22 32  2  0  0  0
 26 27  1  0  0  0
 28102  1  0  0  0
 28103  1  0  0  0
 29104  1  0  0  0
 29105  1  0  0  0
 33 34  1  0  0  0
 33 66  1  0  0  0
 33 70  2  0  0  0
 34 36  1  0  0  0
 34 59  1  0  0  0
 34106  1  0  0  0
 35 44  2  0  0  0
 35 45  1  0  0  0
 35 68  1  0  0  0
 36 56  1  0  0  0
 36107  1  0  0  0
 37 39  1  0  0  0
 37 47  1  0  0  0
 37 66  1  0  0  0
 37108  1  0  0  0
 38 43  2  0  0  0
 38 46  1  0  0  0
 38 47  1  0  0  0
 39 64  1  0  0  0
 39 67  2  0  0  0
 40 52  1  0  0  0
 40 53  2  0  0  0
 40 58  1  0  0  0
 41109  1  0  0  0
 41110  1  0  0  0
 41111  1  0  0  0
 41 48  1  0  0  0
 42 43  1  0  0  0
 42 66  1  0  0  0
 42112  1  0  0  0
 42113  1  0  0  0
 43 44  1  0  0  0
 44114  1  0  0  0
 45 46  2  0  0  0
 45115  1  0  0  0
 46116  1  0  0  0
 47117  1  0  0  0
 47118  1  0  0  0
 48 56  1  0  0  0
 48 65  1  0  0  0
 48119  1  0  0  0
 49 50  1  0  0  0
 49 53  1  0  0  0
 49 64  1  0  0  0
 49120  1  0  0  0
 50 51  1  0  0  0
 50121  1  0  0  0
 50122  1  0  0  0
 51 52  1  0  0  0
 51123  1  0  0  0
 51124  1  0  0  0
 52125  1  0  0  0
 52126  1  0  0  0
 53 54  1  0  0  0
 54 55  2  0  0  0
 54127  1  0  0  0
 55 57  1  0  0  0
 55128  1  0  0  0
 56 69  2  0  0  0
 57 58  2  0  0  0
 57129  1  0  0  0
 58130  1  0  0  0
 59 60  1  0  0  0
 59 61  1  0  0  0
 59 62  1  0  0  0
 60131  1  0  0  0
 60132  1  0  0  0
 60133  1  0  0  0
 61134  1  0  0  0
 61135  1  0  0  0
 61136  1  0  0  0
 62137  1  0  0  0
 62138  1  0  0  0
 62139  1  0  0  0
 63 65  1  0  0  0
 63140  1  0  0  0
 63141  1  0  0  0
 63142  1  0  0  0
 64143  1  0  0  0
 65144  1  0  0  0
 68 82  1  0  0  0
 71 73  2  0  0  0
 71 75  1  0  0  0
 71145  1  0  0  0
 72 74  2  0  0  0
 72 84  1  0  0  0
 72146  1  0  0  0
 73 74  1  0  0  0
 73 83  1  0  0  0
 74 78  1  0  0  0
 75 79  1  0  0  0
 75 84  2  0  0  0
 76 78  1  0  0  0
 76147  1  0  0  0
 76148  1  0  0  0
 76149  1  0  0  0
 77150  1  0  0  0
 77151  1  0  0  0
 77152  1  0  0  0
 77 83  1  0  0  0
 78153  1  0  0  0
 78154  1  0  0  0
 79 80  1  0  0  0
 79155  1  0  0  0
 79156  1  0  0  0
 80 81  1  0  0  0
 80157  1  0  0  0
 80158  1  0  0  0
 81 85  1  0  0  0
 81159  1  0  0  0
 81160  1  0  0  0
 82 83  1  0  0  0
 82161  1  0  0  0
 82162  1  0  0  0
 83163  1  0  0  0
 85164  1  0  0  0
M  ISO  4   1 100  68 101  82 101  85 100
M  END
> <chiral flag>
0

> <version>
0

> <s_m_source_file>
/data/baiqing/PycharmProjects/Reinvent-master-3.2/result/LINK_invent/BTK/process_docking_weight1_custom_sum_contain_oxygen_bond_distance_aromatic_linkinvent_7_9_3/rearranged_h_0087.sdf

> <i_m_source_file_index>
62

> <r_mmod_Potential_Energy-OPLS-2005>
-46.3451538085938

> <r_mmod_Stretch_Energy-OPLS-2005>
82.2626113891602

> <r_mmod_Bend_Energy-OPLS-2005>
185.264083862305

> <r_mmod_Torsional_Energy-OPLS-2005>
212.396148681641

> <r_mmod_Improper_Torsional_Energy-OPLS-2005>
6.05644416809082

> <r_mmod_Van_der_Waal_Energy-OPLS-2005>
152.052017211914

> <r_mmod_Electrostatic_Energy-OPLS-2005>
-517.153503417969

> <r_mmod_Solvation_Energy-OPLS-2005>
-214.069244384766

> <b_mmod_Minimization_Converged-OPLS-2005>
0

> <r_mmod_RMS_Derivative-OPLS-2005>
10.8144998550415

$$$$
63
                    3D
 Structure written by MMmdl.
169177  0  0  1  0            999 V2000
  -30.7908  -14.3855   20.7026 C   0  0  0  0  0  0
  -30.4119  -12.3020   19.4260 C   0  0  0  0  0  0
  -29.4946  -12.5055   18.2049 C   0  0  0  0  0  0
  -28.0218  -12.3358   18.6179 C   0  0  0  0  0  0
  -27.6545  -13.1976   19.8503 C   0  0  2  0  0  0
  -28.6784  -13.0027   20.9851 C   0  0  0  0  0  0
  -25.2587  -13.8137   20.5618 C   0  0  0  0  0  0
  -24.1840  -13.0426   20.9178 C   0  0  0  0  0  0
  -24.6367  -11.6890   20.8714 C   0  0  0  0  0  0
  -23.9039  -10.4284   21.0411 C   0  0  0  0  0  0
  -24.3597   -9.4204   21.9192 C   0  0  0  0  0  0
  -23.6277   -8.2232   22.0748 C   0  0  0  0  0  0
  -22.4265   -8.0266   21.3529 C   0  0  0  0  0  0
  -21.9897   -9.0247   20.4642 C   0  0  0  0  0  0
  -22.7217  -10.2137   20.3052 C   0  0  0  0  0  0
  -21.6849   -6.0709   22.5262 C   0  0  0  0  0  0
  -21.4025   -6.5620   23.8196 C   0  0  0  0  0  0
  -21.3680   -5.6777   24.9159 C   0  0  0  0  0  0
  -21.6053   -4.3035   24.7211 C   0  0  0  0  0  0
  -21.8820   -3.8113   23.4334 C   0  0  0  0  0  0
  -21.9196   -4.6933   22.3390 C   0  0  0  0  0  0
  -22.7879  -13.5256   21.1866 C   0  0  0  0  0  0
  -22.1669   -4.2120   21.0965 F   0  0  0  0  0  0
  -21.5653   -3.4527   25.7734 F   0  0  0  0  0  0
  -30.0365  -13.2686   20.4749 N   0  0  0  0  0  0
  -26.2961  -12.9278   20.3153 N   0  0  0  0  0  0
  -25.9271  -11.6445   20.5659 N   0  0  0  0  0  0
  -22.0506  -12.8245   22.0423 N   0  0  0  0  0  0
  -25.4381  -15.1849   20.4102 N   0  0  0  0  0  0
  -31.7679  -14.6519   19.9944 O   0  0  0  0  0  0
  -21.6648   -6.8853   21.4216 O   0  0  0  0  0  0
  -22.3584  -14.5573   20.6731 O   0  0  0  0  0  0
  -24.6123  -31.8709   23.2160 C   0  0  0  0  0  0
  -25.9031  -32.4831   23.8432 C   0  0  1  0  0  0
  -27.2220  -27.4333   20.0812 C   0  0  0  0  0  0
  -25.5896  -33.8628   24.2355 N   0  0  0  0  0  0
  -23.3988  -30.4987   21.5573 C   0  0  2  0  0  0
  -24.8425  -28.9765   20.1129 C   0  0  0  0  0  0
  -22.7409  -29.4672   22.5019 C   0  0  0  0  0  0
  -18.0268  -28.1395   22.8492 C   0  0  0  0  0  0
  -24.1467  -36.7306   23.2647 C   0  0  0  0  0  0
  -25.9301  -30.8352   21.3718 C   0  0  0  0  0  0
  -26.0043  -29.4718   20.7135 C   0  0  0  0  0  0
  -27.1957  -28.7076   20.6983 C   0  0  0  0  0  0
  -26.0302  -26.9587   19.4779 C   0  0  0  0  0  0
  -24.8510  -27.7207   19.4913 C   0  0  0  0  0  0
  -23.6030  -29.8400   20.1682 C   0  0  0  0  0  0
  -25.4092  -36.3113   24.0344 C   0  0  1  0  0  0
  -20.5855  -28.3660   23.1332 C   0  0  2  0  0  0
  -20.6760  -26.9397   22.5422 C   0  0  0  0  0  0
  -19.5735  -26.6390   21.5226 C   0  0  0  0  0  0
  -18.1912  -26.7938   22.1638 C   0  0  0  0  0  0
  -19.1517  -28.8848   23.2906 C   0  0  0  0  0  0
  -18.9450  -30.1462   23.8908 C   0  0  0  0  0  0
  -17.6453  -30.6600   24.0565 C   0  0  0  0  0  0
  -25.9029  -34.9474   23.5148 C   0  0  0  0  0  0
  -16.5338  -29.9103   23.6336 C   0  0  0  0  0  0
  -16.7258  -28.6523   23.0343 C   0  0  0  0  0  0
  -26.4485  -31.6603   25.0747 C   0  0  0  0  0  0
  -25.3729  -31.3681   26.1467 C   0  0  0  0  0  0
  -27.0325  -30.3042   24.6128 C   0  0  0  0  0  0
  -27.6092  -32.4302   25.7475 C   0  0  0  0  0  0
  -27.5562  -37.1798   24.8463 C   0  0  0  0  0  0
  -21.4133  -29.3034   22.3751 N   0  0  0  0  0  0
  -26.4273  -37.3797   23.9420 N   0  0  0  0  0  0
  -24.6652  -31.0811   22.1063 N   0  0  0  0  0  0
  -23.4206  -28.8208   23.3042 O   0  0  0  0  0  0
  -28.3964  -26.6947   20.0900 O   0  0  0  0  0  0
  -26.5597  -34.8919   22.4723 O   0  0  0  0  0  0
  -23.5308  -32.1477   23.7544 O   0  0  0  0  0  0
  -30.1730  -19.9088   20.2358 C   0  0  0  0  0  0
  -30.6385  -21.2251   20.3668 C   0  0  0  0  0  0
  -30.1522  -19.1093   21.3932 C   0  0  0  0  0  0
  -31.0494  -20.8539   22.5843 C   0  0  0  0  0  0
  -31.6203  -21.3503   23.8957 C   0  0  0  0  0  0
  -29.2068  -15.2906   23.9139 C   0  0  0  0  0  0
  -28.8046  -17.3120   20.1711 C   0  0  0  0  0  0
  -30.6454  -22.1883   19.1861 C   0  0  0  0  0  0
  -29.4175  -23.1227   19.1434 C   0  0  0  0  0  0
  -29.5984  -24.5220   19.7793 C   0  0  0  0  0  0
  -30.3636  -14.6959   23.0895 C   0  0  0  0  0  0
  -30.8060  -16.6621   21.6544 C   0  0  0  0  0  0
  -28.2961  -25.3313   19.6584 C   0  0  0  0  0  0
  -29.6392  -17.6608   21.4151 C   0  0  1  0  0  0
  -31.0810  -21.6884   21.5499 N   0  0  0  0  0  0
  -30.5934  -19.6062   22.5658 N   0  0  0  0  0  0
  -30.4128  -15.2237   21.7092 N   0  0  0  0  0  0
  -31.4617  -12.3810   19.1314 H   0  0  0  0  0  0
  -30.2976  -11.2893   19.8125 H   0  0  0  0  0  0
  -29.7424  -11.7846   17.4251 H   0  0  0  0  0  0
  -29.6574  -13.4958   17.7743 H   0  0  0  0  0  0
  -27.8648  -11.2817   18.8513 H   0  0  0  0  0  0
  -27.3588  -12.5589   17.7831 H   0  0  0  0  0  0
  -27.6966  -14.2377   19.5274 H   0  0  0  0  0  0
  -28.6288  -11.9878   21.3791 H   0  0  0  0  0  0
  -28.3810  -13.6513   21.8039 H   0  0  0  0  0  0
  -25.2730   -9.5731   22.4786 H   0  0  0  0  0  0
  -24.0007   -7.4633   22.7462 H   0  0  0  0  0  0
  -21.0823   -8.8739   19.8952 H   0  0  0  0  0  0
  -22.3622  -10.9683   19.6179 H   0  0  0  0  0  0
  -21.2003   -7.6126   23.9692 H   0  0  0  0  0  0
  -21.1530   -6.0506   25.9072 H   0  0  0  0  0  0
  -22.0584   -2.7574   23.2834 H   0  0  0  0  0  0
  -22.4096  -11.9890   22.4830 H   0  0  0  0  0  0
  -21.1141  -13.1329   22.2627 H   0  0  0  0  0  0
  -24.6886  -15.8538   20.5486 H   0  0  0  0  0  0
  -26.2991  -15.6140   20.0944 H   0  0  0  0  0  0
  -26.7096  -32.5539   23.1181 H   0  0  0  0  0  0
  -24.9971  -33.9807   25.0437 H   0  0  0  0  0  0
  -22.6854  -31.3161   21.4245 H   0  0  0  0  0  0
  -23.3740  -35.9632   23.3329 H   0  0  0  0  0  0
  -24.3538  -36.8897   22.2055 H   0  0  0  0  0  0
  -23.7198  -37.6504   23.6659 H   0  0  0  0  0  0
  -26.0402  -31.6061   20.6084 H   0  0  0  0  0  0
  -26.8187  -30.8845   21.9896 H   0  0  0  0  0  0
  -28.0936  -29.0845   21.1685 H   0  0  0  0  0  0
  -25.9644  -26.0036   18.9785 H   0  0  0  0  0  0
  -23.9553  -27.3418   19.0204 H   0  0  0  0  0  0
  -23.7007  -30.6194   19.4114 H   0  0  0  0  0  0
  -22.7251  -29.2605   19.8738 H   0  0  0  0  0  0
  -25.1258  -36.1999   25.0833 H   0  0  0  0  0  0
  -20.9926  -28.3214   24.1463 H   0  0  0  0  0  0
  -20.5678  -26.2256   23.3595 H   0  0  0  0  0  0
  -21.6625  -26.7454   22.1195 H   0  0  0  0  0  0
  -19.6891  -25.6310   21.1235 H   0  0  0  0  0  0
  -19.6679  -27.3224   20.6778 H   0  0  0  0  0  0
  -17.4168  -26.6680   21.4054 H   0  0  0  0  0  0
  -18.0324  -26.0088   22.9047 H   0  0  0  0  0  0
  -19.7917  -30.7283   24.2271 H   0  0  0  0  0  0
  -17.4999  -31.6279   24.5172 H   0  0  0  0  0  0
  -15.5336  -30.3006   23.7669 H   0  0  0  0  0  0
  -15.8651  -28.0856   22.7047 H   0  0  0  0  0  0
  -24.5896  -30.7064   25.7751 H   0  0  0  0  0  0
  -24.8918  -32.2813   26.4969 H   0  0  0  0  0  0
  -25.8026  -30.8767   27.0196 H   0  0  0  0  0  0
  -26.2876  -29.6787   24.1180 H   0  0  0  0  0  0
  -27.4093  -29.7298   25.4609 H   0  0  0  0  0  0
  -27.8726  -30.4373   23.9298 H   0  0  0  0  0  0
  -27.2773  -33.3596   26.2108 H   0  0  0  0  0  0
  -28.3862  -32.6847   25.0258 H   0  0  0  0  0  0
  -28.0825  -31.8379   26.5306 H   0  0  0  0  0  0
  -28.2592  -38.0082   24.7511 H   0  0  0  0  0  0
  -28.1044  -36.2611   24.6306 H   0  0  0  0  0  0
  -27.2279  -37.1468   25.8864 H   0  0  0  0  0  0
  -20.9317  -29.8723   21.6917 H   0  0  0  0  0  0
  -26.0171  -38.2873   24.1459 H   0  0  0  0  0  0
  -29.8335  -19.5483   19.2731 H   0  0  0  0  0  0
  -31.8048  -22.4247   23.8682 H   0  0  0  0  0  0
  -32.5639  -20.8480   24.1133 H   0  0  0  0  0  0
  -30.9373  -21.1492   24.7191 H   0  0  0  0  0  0
  -29.4348  -16.3073   24.2357 H   0  0  0  0  0  0
  -29.0280  -14.7017   24.8150 H   0  0  0  0  0  0
  -28.2713  -15.3205   23.3572 H   0  0  0  0  0  0
  -28.0170  -18.0507   20.0114 H   0  0  0  0  0  0
  -28.3222  -16.3448   20.2834 H   0  0  0  0  0  0
  -29.4232  -17.2771   19.2735 H   0  0  0  0  0  0
  -30.6541  -21.5820   18.2787 H   0  0  0  0  0  0
  -31.5759  -22.7549   19.1605 H   0  0  0  0  0  0
  -28.5533  -22.6091   19.5687 H   0  0  0  0  0  0
  -29.1665  -23.2793   18.0940 H   0  0  0  0  0  0
  -30.4053  -25.0527   19.2717 H   0  0  0  0  0  0
  -29.8910  -24.4314   20.8255 H   0  0  0  0  0  0
  -30.2592  -13.6113   23.0996 H   0  0  0  0  0  0
  -31.3199  -14.8703   23.5860 H   0  0  0  0  0  0
  -31.3046  -16.9350   22.5853 H   0  0  0  0  0  0
  -31.5641  -16.8560   20.8944 H   0  0  0  0  0  0
  -27.5229  -24.8221   20.2381 H   0  0  0  0  0  0
  -27.9902  -25.3158   18.6115 H   0  0  0  0  0  0
  -28.9622  -17.6013   22.2666 H   0  0  0  0  0  0
  1 25  1  0  0  0
  1 30  2  0  0  0
  1 87  1  0  0  0
  2  3  1  0  0  0
  2 25  1  0  0  0
  2 88  1  0  0  0
  2 89  1  0  0  0
  3  4  1  0  0  0
  3 90  1  0  0  0
  3 91  1  0  0  0
  4  5  1  0  0  0
  4 92  1  0  0  0
  4 93  1  0  0  0
  5  6  1  0  0  0
  5 26  1  0  0  0
  5 94  1  0  0  0
  6 25  1  0  0  0
  6 95  1  0  0  0
  6 96  1  0  0  0
  7  8  2  0  0  0
  7 26  1  0  0  0
  7 29  1  0  0  0
  8  9  1  0  0  0
  8 22  1  0  0  0
  9 10  1  0  0  0
  9 27  2  0  0  0
 10 11  2  0  0  0
 10 15  1  0  0  0
 11 12  1  0  0  0
 11 97  1  0  0  0
 12 13  2  0  0  0
 12 98  1  0  0  0
 13 14  1  0  0  0
 13 31  1  0  0  0
 14 15  2  0  0  0
 14 99  1  0  0  0
 15100  1  0  0  0
 16 17  2  0  0  0
 16 21  1  0  0  0
 16 31  1  0  0  0
 17 18  1  0  0  0
 17101  1  0  0  0
 18 19  2  0  0  0
 18102  1  0  0  0
 19 20  1  0  0  0
 19 24  1  0  0  0
 20 21  2  0  0  0
 20103  1  0  0  0
 21 23  1  0  0  0
 22 28  1  0  0  0
 22 32  2  0  0  0
 26 27  1  0  0  0
 28104  1  0  0  0
 28105  1  0  0  0
 29106  1  0  0  0
 29107  1  0  0  0
 33 34  1  0  0  0
 33 66  1  0  0  0
 33 70  2  0  0  0
 34 36  1  0  0  0
 34 59  1  0  0  0
 34108  1  0  0  0
 35 44  2  0  0  0
 35 45  1  0  0  0
 35 68  1  0  0  0
 36 56  1  0  0  0
 36109  1  0  0  0
 37 39  1  0  0  0
 37 47  1  0  0  0
 37 66  1  0  0  0
 37110  1  0  0  0
 38 43  2  0  0  0
 38 46  1  0  0  0
 38 47  1  0  0  0
 39 64  1  0  0  0
 39 67  2  0  0  0
 40 52  1  0  0  0
 40 53  2  0  0  0
 40 58  1  0  0  0
 41111  1  0  0  0
 41112  1  0  0  0
 41113  1  0  0  0
 41 48  1  0  0  0
 42 43  1  0  0  0
 42 66  1  0  0  0
 42114  1  0  0  0
 42115  1  0  0  0
 43 44  1  0  0  0
 44116  1  0  0  0
 45 46  2  0  0  0
 45117  1  0  0  0
 46118  1  0  0  0
 47119  1  0  0  0
 47120  1  0  0  0
 48 56  1  0  0  0
 48 65  1  0  0  0
 48121  1  0  0  0
 49 50  1  0  0  0
 49 53  1  0  0  0
 49 64  1  0  0  0
 49122  1  0  0  0
 50 51  1  0  0  0
 50123  1  0  0  0
 50124  1  0  0  0
 51 52  1  0  0  0
 51125  1  0  0  0
 51126  1  0  0  0
 52127  1  0  0  0
 52128  1  0  0  0
 53 54  1  0  0  0
 54 55  2  0  0  0
 54129  1  0  0  0
 55 57  1  0  0  0
 55130  1  0  0  0
 56 69  2  0  0  0
 57 58  2  0  0  0
 57131  1  0  0  0
 58132  1  0  0  0
 59 60  1  0  0  0
 59 61  1  0  0  0
 59 62  1  0  0  0
 60133  1  0  0  0
 60134  1  0  0  0
 60135  1  0  0  0
 61136  1  0  0  0
 61137  1  0  0  0
 61138  1  0  0  0
 62139  1  0  0  0
 62140  1  0  0  0
 62141  1  0  0  0
 63 65  1  0  0  0
 63142  1  0  0  0
 63143  1  0  0  0
 63144  1  0  0  0
 64145  1  0  0  0
 65146  1  0  0  0
 68 83  1  0  0  0
 71 72  2  0  0  0
 71 73  1  0  0  0
 71147  1  0  0  0
 72 78  1  0  0  0
 72 85  1  0  0  0
 73 84  1  0  0  0
 73 86  2  0  0  0
 74 75  1  0  0  0
 74 85  2  0  0  0
 74 86  1  0  0  0
 75148  1  0  0  0
 75149  1  0  0  0
 75150  1  0  0  0
 76 81  1  0  0  0
 76151  1  0  0  0
 76152  1  0  0  0
 76153  1  0  0  0
 77154  1  0  0  0
 77155  1  0  0  0
 77156  1  0  0  0
 77 84  1  0  0  0
 78 79  1  0  0  0
 78157  1  0  0  0
 78158  1  0  0  0
 79 80  1  0  0  0
 79159  1  0  0  0
 79160  1  0  0  0
 80 83  1  0  0  0
 80161  1  0  0  0
 80162  1  0  0  0
 81 87  1  0  0  0
 81163  1  0  0  0
 81164  1  0  0  0
 82 84  1  0  0  0
 82 87  1  0  0  0
 82165  1  0  0  0
 82166  1  0  0  0
 83167  1  0  0  0
 83168  1  0  0  0
 84169  1  0  0  0
M  ISO  4   1 100  68 101  83 101  87 100
M  END
> <chiral flag>
0

> <version>
0

> <s_m_source_file>
/data/baiqing/PycharmProjects/Reinvent-master-3.2/result/LINK_invent/BTK/process_docking_weight1_custom_sum_contain_oxygen_bond_distance_aromatic_linkinvent_7_9_3/rearranged_h_0087.sdf

> <i_m_source_file_index>
63

> <r_mmod_Potential_Energy-OPLS-2005>
-332.955078125

> <r_mmod_Stretch_Energy-OPLS-2005>
40.6921348571777

> <r_mmod_Bend_Energy-OPLS-2005>
108.151679992676

> <r_mmod_Torsional_Energy-OPLS-2005>
263.844940185547

> <r_mmod_Improper_Torsional_Energy-OPLS-2005>
4.54904937744141

> <r_mmod_Van_der_Waal_Energy-OPLS-2005>
173.385894775391

> <r_mmod_Electrostatic_Energy-OPLS-2005>
-723.243713378906

> <r_mmod_Solvation_Energy-OPLS-2005>
-211.684188842773

> <b_mmod_Minimization_Converged-OPLS-2005>
0

> <r_mmod_RMS_Derivative-OPLS-2005>
4.05166482925415

$$$$
64
                    3D
 Structure written by MMmdl.
152160  0  0  1  0            999 V2000
  -30.4687  -15.2053   20.3772 C   0  0  0  0  0  0
  -30.4369  -12.7666   19.5216 C   0  0  0  0  0  0
  -29.5316  -12.5660   18.2815 C   0  0  0  0  0  0
  -28.0771  -12.3023   18.7080 C   0  0  0  0  0  0
  -27.6139  -13.2715   19.8249 C   0  0  2  0  0  0
  -28.6497  -13.4253   20.9590 C   0  0  0  0  0  0
  -25.2397  -13.8244   20.5743 C   0  0  0  0  0  0
  -24.1746  -13.0437   20.9257 C   0  0  0  0  0  0
  -24.6397  -11.6933   20.8764 C   0  0  0  0  0  0
  -23.9091  -10.4293   21.0407 C   0  0  0  0  0  0
  -24.3635   -9.4206   21.9185 C   0  0  0  0  0  0
  -23.6304   -8.2244   22.0755 C   0  0  0  0  0  0
  -22.4285   -8.0283   21.3545 C   0  0  0  0  0  0
  -21.9926   -9.0258   20.4646 C   0  0  0  0  0  0
  -22.7262  -10.2134   20.3055 C   0  0  0  0  0  0
  -21.6856   -6.0738   22.5279 C   0  0  0  0  0  0
  -21.4016   -6.5641   23.8212 C   0  0  0  0  0  0
  -21.3660   -5.6793   24.9174 C   0  0  0  0  0  0
  -21.6044   -4.3056   24.7224 C   0  0  0  0  0  0
  -21.8819   -3.8148   23.4345 C   0  0  0  0  0  0
  -21.9194   -4.6965   22.3402 C   0  0  0  0  0  0
  -22.7763  -13.5191   21.1902 C   0  0  0  0  0  0
  -22.1662   -4.2151   21.0979 F   0  0  0  0  0  0
  -21.5628   -3.4539   25.7737 F   0  0  0  0  0  0
  -29.8898  -13.9109   20.3346 N   0  0  0  0  0  0
  -26.2824  -12.9514   20.3224 N   0  0  0  0  0  0
  -25.9333  -11.6622   20.5728 N   0  0  0  0  0  0
  -22.0421  -12.8172   22.0456 N   0  0  0  0  0  0
  -25.4029  -15.1978   20.4171 N   0  0  0  0  0  0
  -31.6876  -15.2038   20.1588 O   0  0  0  0  0  0
  -21.6645   -6.8883   21.4241 O   0  0  0  0  0  0
  -22.3442  -14.5492   20.6741 O   0  0  0  0  0  0
  -24.6602  -31.8274   23.1744 C   0  0  0  0  0  0
  -25.9298  -32.4608   23.8194 C   0  0  1  0  0  0
  -27.2154  -26.9610   20.1756 C   0  0  0  0  0  0
  -25.5978  -33.8421   24.2099 N   0  0  0  0  0  0
  -23.4732  -30.4416   21.5231 C   0  0  2  0  0  0
  -24.9265  -28.8391   20.1105 C   0  0  0  0  0  0
  -22.7655  -29.4462   22.4793 C   0  0  0  0  0  0
  -18.0321  -28.1407   22.8468 C   0  0  0  0  0  0
  -24.1494  -36.7215   23.2646 C   0  0  0  0  0  0
  -26.0416  -30.6443   21.4013 C   0  0  0  0  0  0
  -26.1102  -29.2385   20.7438 C   0  0  0  0  0  0
  -27.2508  -28.3196   20.7549 C   0  0  0  0  0  0
  -26.0042  -26.7132   19.4888 C   0  0  0  0  0  0
  -24.8974  -27.5957   19.4631 C   0  0  0  0  0  0
  -23.7112  -29.7624   20.1474 C   0  0  0  0  0  0
  -25.4133  -36.2979   24.0302 C   0  0  1  0  0  0
  -20.5945  -28.3750   23.1193 C   0  0  2  0  0  0
  -20.6799  -26.9435   22.5401 C   0  0  0  0  0  0
  -19.5772  -26.6378   21.5214 C   0  0  0  0  0  0
  -18.1954  -26.7941   22.1623 C   0  0  0  0  0  0
  -19.1582  -28.8899   23.2818 C   0  0  0  0  0  0
  -18.9493  -30.1489   23.8852 C   0  0  0  0  0  0
  -17.6486  -30.6597   24.0555 C   0  0  0  0  0  0
  -25.9096  -34.9360   23.5019 C   0  0  0  0  0  0
  -16.5376  -29.9084   23.6342 C   0  0  0  0  0  0
  -16.7303  -28.6505   23.0362 C   0  0  0  0  0  0
  -26.4558  -31.6540   25.0709 C   0  0  0  0  0  0
  -25.3690  -31.3782   26.1369 C   0  0  0  0  0  0
  -27.0452  -30.2910   24.6425 C   0  0  0  0  0  0
  -27.6052  -32.4346   25.7510 C   0  0  0  0  0  0
  -27.5571  -37.1766   24.8466 C   0  0  0  0  0  0
  -21.4328  -29.3046   22.3544 N   0  0  0  0  0  0
  -26.4282  -37.3711   23.9407 N   0  0  0  0  0  0
  -24.7461  -30.9968   22.0866 N   0  0  0  0  0  0
  -23.4217  -28.8024   23.3018 O   0  0  0  0  0  0
  -28.2013  -25.8504   20.2643 O   0  0  0  0  0  0
  -26.5702  -34.8888   22.4612 O   0  0  0  0  0  0
  -23.5678  -32.1230   23.6854 O   0  0  0  0  0  0
  -28.4557  -21.8286   21.3755 C   0  0  0  0  0  0
  -29.1219  -21.8664   19.1948 C   0  0  0  0  0  0
  -28.5742  -22.7255   20.2354 C   0  0  0  0  0  0
  -28.8422  -20.3923   21.4371 C   0  0  0  0  0  0
  -29.3833  -19.6251   20.3265 C   0  0  0  0  0  0
  -29.8547  -19.9022   23.7094 C   0  0  0  0  0  0
  -28.6651  -19.6808   22.7683 C   0  0  0  0  0  0
  -27.8228  -24.2830   20.0210 C   0  0  0  0  0  0
  -30.1515  -18.0615   20.3272 C   0  0  0  0  0  0
  -29.5004  -20.4926   19.2403 N   0  0  0  0  0  0
  -29.7272  -16.4747   20.4580 N   0  0  0  0  0  0
  -31.4598  -12.9568   19.1938 H   0  0  0  0  0  0
  -30.4864  -11.8542   20.1181 H   0  0  0  0  0  0
  -29.8998  -11.7417   17.6692 H   0  0  0  0  0  0
  -29.5725  -13.4576   17.6538 H   0  0  0  0  0  0
  -28.0225  -11.2750   19.0700 H   0  0  0  0  0  0
  -27.4090  -12.3595   17.8478 H   0  0  0  0  0  0
  -27.5361  -14.2439   19.3372 H   0  0  0  0  0  0
  -28.8028  -12.4858   21.4921 H   0  0  0  0  0  0
  -28.3009  -14.1496   21.6968 H   0  0  0  0  0  0
  -25.2777   -9.5681   22.4766 H   0  0  0  0  0  0
  -24.0009   -7.4635   22.7476 H   0  0  0  0  0  0
  -21.0858   -8.8781   19.8951 H   0  0  0  0  0  0
  -22.3720  -10.9675   19.6167 H   0  0  0  0  0  0
  -21.2010   -7.6150   23.9716 H   0  0  0  0  0  0
  -21.1482   -6.0523   25.9077 H   0  0  0  0  0  0
  -22.0597   -2.7610   23.2845 H   0  0  0  0  0  0
  -22.4054  -11.9843   22.4847 H   0  0  0  0  0  0
  -21.1031  -13.1177   22.2657 H   0  0  0  0  0  0
  -24.6301  -15.8456   20.5268 H   0  0  0  0  0  0
  -26.2391  -15.6387   20.0578 H   0  0  0  0  0  0
  -26.7366  -32.5156   23.0911 H   0  0  0  0  0  0
  -25.0078  -33.9507   25.0217 H   0  0  0  0  0  0
  -22.7848  -31.2726   21.3562 H   0  0  0  0  0  0
  -23.3767  -35.9535   23.3281 H   0  0  0  0  0  0
  -24.3572  -36.8886   22.2066 H   0  0  0  0  0  0
  -23.7240  -37.6393   23.6716 H   0  0  0  0  0  0
  -26.2194  -31.3883   20.6237 H   0  0  0  0  0  0
  -26.9027  -30.6989   22.0553 H   0  0  0  0  0  0
  -28.1440  -28.6207   21.2839 H   0  0  0  0  0  0
  -25.8667  -25.7674   18.9875 H   0  0  0  0  0  0
  -23.9987  -27.2849   18.9480 H   0  0  0  0  0  0
  -23.8640  -30.5333   19.3913 H   0  0  0  0  0  0
  -22.8216  -29.2157   19.8296 H   0  0  0  0  0  0
  -25.1330  -36.1781   25.0793 H   0  0  0  0  0  0
  -21.0034  -28.3355   24.1315 H   0  0  0  0  0  0
  -20.5683  -26.2369   23.3639 H   0  0  0  0  0  0
  -21.6662  -26.7415   22.1205 H   0  0  0  0  0  0
  -19.6931  -25.6277   21.1272 H   0  0  0  0  0  0
  -19.6708  -27.3164   20.6724 H   0  0  0  0  0  0
  -17.4223  -26.6683   21.4027 H   0  0  0  0  0  0
  -18.0350  -26.0094   22.9030 H   0  0  0  0  0  0
  -19.7968  -30.7318   24.2201 H   0  0  0  0  0  0
  -17.5037  -31.6272   24.5166 H   0  0  0  0  0  0
  -15.5375  -30.2971   23.7693 H   0  0  0  0  0  0
  -15.8704  -28.0807   22.7103 H   0  0  0  0  0  0
  -24.5889  -30.7113   25.7680 H   0  0  0  0  0  0
  -24.8860  -32.2980   26.4676 H   0  0  0  0  0  0
  -25.7928  -30.9029   27.0224 H   0  0  0  0  0  0
  -26.3117  -29.6590   24.1409 H   0  0  0  0  0  0
  -27.3969  -29.7268   25.5074 H   0  0  0  0  0  0
  -27.9064  -30.4098   23.9847 H   0  0  0  0  0  0
  -27.2623  -33.3688   26.1969 H   0  0  0  0  0  0
  -28.3926  -32.6840   25.0384 H   0  0  0  0  0  0
  -28.0652  -31.8551   26.5526 H   0  0  0  0  0  0
  -28.2572  -38.0077   24.7512 H   0  0  0  0  0  0
  -28.1083  -36.2603   24.6296 H   0  0  0  0  0  0
  -27.2286  -37.1410   25.8868 H   0  0  0  0  0  0
  -20.9576  -29.8741   21.6681 H   0  0  0  0  0  0
  -26.0132  -38.2771   24.1413 H   0  0  0  0  0  0
  -28.0106  -22.2516   22.2649 H   0  0  0  0  0  0
  -29.2299  -22.2984   18.2109 H   0  0  0  0  0  0
  -29.7014  -19.3811   24.6550 H   0  0  0  0  0  0
  -29.9914  -20.9602   23.9353 H   0  0  0  0  0  0
  -30.7826  -19.5297   23.2747 H   0  0  0  0  0  0
  -28.5200  -18.6125   22.6000 H   0  0  0  0  0  0
  -27.7488  -20.0333   23.2444 H   0  0  0  0  0  0
  -26.8783  -24.1646   20.5529 H   0  0  0  0  0  0
  -27.5420  -24.2562   18.9681 H   0  0  0  0  0  0
  -30.9119  -18.1702   21.1005 H   0  0  0  0  0  0
  -30.7320  -18.0753   19.4046 H   0  0  0  0  0  0
  -28.7355  -16.3466   20.5893 H   0  0  0  0  0  0
  1 25  1  0  0  0
  1 30  2  0  0  0
  1 81  1  0  0  0
  2  3  1  0  0  0
  2 25  1  0  0  0
  2 82  1  0  0  0
  2 83  1  0  0  0
  3  4  1  0  0  0
  3 84  1  0  0  0
  3 85  1  0  0  0
  4  5  1  0  0  0
  4 86  1  0  0  0
  4 87  1  0  0  0
  5  6  1  0  0  0
  5 26  1  0  0  0
  5 88  1  0  0  0
  6 25  1  0  0  0
  6 89  1  0  0  0
  6 90  1  0  0  0
  7  8  2  0  0  0
  7 26  1  0  0  0
  7 29  1  0  0  0
  8  9  1  0  0  0
  8 22  1  0  0  0
  9 10  1  0  0  0
  9 27  2  0  0  0
 10 11  2  0  0  0
 10 15  1  0  0  0
 11 12  1  0  0  0
 11 91  1  0  0  0
 12 13  2  0  0  0
 12 92  1  0  0  0
 13 14  1  0  0  0
 13 31  1  0  0  0
 14 15  2  0  0  0
 14 93  1  0  0  0
 15 94  1  0  0  0
 16 17  2  0  0  0
 16 21  1  0  0  0
 16 31  1  0  0  0
 17 18  1  0  0  0
 17 95  1  0  0  0
 18 19  2  0  0  0
 18 96  1  0  0  0
 19 20  1  0  0  0
 19 24  1  0  0  0
 20 21  2  0  0  0
 20 97  1  0  0  0
 21 23  1  0  0  0
 22 28  1  0  0  0
 22 32  2  0  0  0
 26 27  1  0  0  0
 28 98  1  0  0  0
 28 99  1  0  0  0
 29100  1  0  0  0
 29101  1  0  0  0
 33 34  1  0  0  0
 33 66  1  0  0  0
 33 70  2  0  0  0
 34 36  1  0  0  0
 34 59  1  0  0  0
 34102  1  0  0  0
 35 44  2  0  0  0
 35 45  1  0  0  0
 35 68  1  0  0  0
 36 56  1  0  0  0
 36103  1  0  0  0
 37 39  1  0  0  0
 37 47  1  0  0  0
 37 66  1  0  0  0
 37104  1  0  0  0
 38 43  2  0  0  0
 38 46  1  0  0  0
 38 47  1  0  0  0
 39 64  1  0  0  0
 39 67  2  0  0  0
 40 52  1  0  0  0
 40 53  2  0  0  0
 40 58  1  0  0  0
 41105  1  0  0  0
 41106  1  0  0  0
 41107  1  0  0  0
 41 48  1  0  0  0
 42 43  1  0  0  0
 42 66  1  0  0  0
 42108  1  0  0  0
 42109  1  0  0  0
 43 44  1  0  0  0
 44110  1  0  0  0
 45 46  2  0  0  0
 45111  1  0  0  0
 46112  1  0  0  0
 47113  1  0  0  0
 47114  1  0  0  0
 48 56  1  0  0  0
 48 65  1  0  0  0
 48115  1  0  0  0
 49 50  1  0  0  0
 49 53  1  0  0  0
 49 64  1  0  0  0
 49116  1  0  0  0
 50 51  1  0  0  0
 50117  1  0  0  0
 50118  1  0  0  0
 51 52  1  0  0  0
 51119  1  0  0  0
 51120  1  0  0  0
 52121  1  0  0  0
 52122  1  0  0  0
 53 54  1  0  0  0
 54 55  2  0  0  0
 54123  1  0  0  0
 55 57  1  0  0  0
 55124  1  0  0  0
 56 69  2  0  0  0
 57 58  2  0  0  0
 57125  1  0  0  0
 58126  1  0  0  0
 59 60  1  0  0  0
 59 61  1  0  0  0
 59 62  1  0  0  0
 60127  1  0  0  0
 60128  1  0  0  0
 60129  1  0  0  0
 61130  1  0  0  0
 61131  1  0  0  0
 61132  1  0  0  0
 62133  1  0  0  0
 62134  1  0  0  0
 62135  1  0  0  0
 63 65  1  0  0  0
 63136  1  0  0  0
 63137  1  0  0  0
 63138  1  0  0  0
 64139  1  0  0  0
 65140  1  0  0  0
 68 78  1  0  0  0
 71 73  2  0  0  0
 71 74  1  0  0  0
 71141  1  0  0  0
 72 73  1  0  0  0
 72 80  2  0  0  0
 72142  1  0  0  0
 73 78  1  0  0  0
 74 75  2  0  0  0
 74 77  1  0  0  0
 75 79  1  0  0  0
 75 80  1  0  0  0
 76 77  1  0  0  0
 76143  1  0  0  0
 76144  1  0  0  0
 76145  1  0  0  0
 77146  1  0  0  0
 77147  1  0  0  0
 78148  1  0  0  0
 78149  1  0  0  0
 79 81  1  0  0  0
 79150  1  0  0  0
 79151  1  0  0  0
 81152  1  0  0  0
M  ISO  4   1 100  68 101  78 101  81 100
M  END
> <chiral flag>
0

> <version>
0

> <s_m_source_file>
/data/baiqing/PycharmProjects/Reinvent-master-3.2/result/LINK_invent/BTK/process_docking_weight1_custom_sum_contain_oxygen_bond_distance_aromatic_linkinvent_7_9_3/rearranged_h_0087.sdf

> <i_m_source_file_index>
64

> <r_mmod_Potential_Energy-OPLS-2005>
850.10107421875

> <r_mmod_Stretch_Energy-OPLS-2005>
460.574615478516

> <r_mmod_Bend_Energy-OPLS-2005>
419.224456787109

> <r_mmod_Torsional_Energy-OPLS-2005>
225.450958251953

> <r_mmod_Improper_Torsional_Energy-OPLS-2005>
9.73899173736572

> <r_mmod_Van_der_Waal_Energy-OPLS-2005>
130.212173461914

> <r_mmod_Electrostatic_Energy-OPLS-2005>
-571.496704101562

> <r_mmod_Solvation_Energy-OPLS-2005>
-230.510192871094

> <b_mmod_Minimization_Converged-OPLS-2005>
0

> <r_mmod_RMS_Derivative-OPLS-2005>
0.072236105799675

$$$$
65
                    3D
 Structure written by MMmdl.
186194  0  0  1  0            999 V2000
  -30.6105  -14.5829   20.5386 C   0  0  0  0  0  0
  -30.4363  -12.3623   19.4371 C   0  0  0  0  0  0
  -29.5000  -12.5037   18.2157 C   0  0  0  0  0  0
  -28.0213  -12.3481   18.6280 C   0  0  0  0  0  0
  -27.6558  -13.2027   19.8705 C   0  0  2  0  0  0
  -28.7001  -13.0054   20.9931 C   0  0  0  0  0  0
  -25.2591  -13.8139   20.5690 C   0  0  0  0  0  0
  -24.1840  -13.0423   20.9187 C   0  0  0  0  0  0
  -24.6379  -11.6886   20.8725 C   0  0  0  0  0  0
  -23.9052  -10.4271   21.0396 C   0  0  0  0  0  0
  -24.3616   -9.4202   21.9184 C   0  0  0  0  0  0
  -23.6283   -8.2241   22.0759 C   0  0  0  0  0  0
  -22.4269   -8.0273   21.3551 C   0  0  0  0  0  0
  -21.9895   -9.0235   20.4650 C   0  0  0  0  0  0
  -22.7226  -10.2115   20.3046 C   0  0  0  0  0  0
  -21.6845   -6.0714   22.5264 C   0  0  0  0  0  0
  -21.4012   -6.5618   23.8189 C   0  0  0  0  0  0
  -21.3674   -5.6782   24.9147 C   0  0  0  0  0  0
  -21.6060   -4.3043   24.7221 C   0  0  0  0  0  0
  -21.8831   -3.8136   23.4338 C   0  0  0  0  0  0
  -21.9196   -4.6950   22.3396 C   0  0  0  0  0  0
  -22.7872  -13.5221   21.1842 C   0  0  0  0  0  0
  -22.1659   -4.2136   21.0972 F   0  0  0  0  0  0
  -21.5636   -3.4537   25.7740 F   0  0  0  0  0  0
  -30.0162  -13.3575   20.4400 N   0  0  0  0  0  0
  -26.3000  -12.9298   20.3338 N   0  0  0  0  0  0
  -25.9301  -11.6466   20.5760 N   0  0  0  0  0  0
  -22.0512  -12.8199   22.0394 N   0  0  0  0  0  0
  -25.4364  -15.1848   20.4097 N   0  0  0  0  0  0
  -31.7545  -14.7979   20.1269 O   0  0  0  0  0  0
  -21.6649   -6.8864   21.4223 O   0  0  0  0  0  0
  -22.3557  -14.5519   20.6684 O   0  0  0  0  0  0
  -24.6203  -31.8650   23.2048 C   0  0  0  0  0  0
  -25.9064  -32.4805   23.8375 C   0  0  1  0  0  0
  -27.2220  -27.3616   20.1208 C   0  0  0  0  0  0
  -25.5890  -33.8605   24.2318 N   0  0  0  0  0  0
  -23.4125  -30.4884   21.5477 C   0  0  2  0  0  0
  -24.8586  -28.9496   20.1141 C   0  0  0  0  0  0
  -22.7461  -29.4641   22.4956 C   0  0  0  0  0  0
  -18.0288  -28.1382   22.8499 C   0  0  0  0  0  0
  -24.1485  -36.7308   23.2638 C   0  0  0  0  0  0
  -25.9489  -30.8102   21.3690 C   0  0  0  0  0  0
  -26.0247  -29.4395   20.7159 C   0  0  0  0  0  0
  -27.2108  -28.6561   20.7101 C   0  0  0  0  0  0
  -26.0353  -26.9147   19.4938 C   0  0  0  0  0  0
  -24.8636  -27.6903   19.4946 C   0  0  0  0  0  0
  -23.6255  -29.8240   20.1622 C   0  0  0  0  0  0
  -25.4107  -36.3108   24.0344 C   0  0  1  0  0  0
  -20.5887  -28.3676   23.1301 C   0  0  2  0  0  0
  -20.6777  -26.9408   22.5416 C   0  0  0  0  0  0
  -19.5752  -26.6383   21.5221 C   0  0  0  0  0  0
  -18.1926  -26.7926   22.1630 C   0  0  0  0  0  0
  -19.1542  -28.8850   23.2894 C   0  0  0  0  0  0
  -18.9462  -30.1457   23.8901 C   0  0  0  0  0  0
  -17.6460  -30.6581   24.0569 C   0  0  0  0  0  0
  -25.9043  -34.9470   23.5138 C   0  0  0  0  0  0
  -16.5356  -29.9085   23.6328 C   0  0  0  0  0  0
  -16.7274  -28.6502   23.0349 C   0  0  0  0  0  0
  -26.4454  -31.6582   25.0716 C   0  0  0  0  0  0
  -25.3700  -31.3697   26.1449 C   0  0  0  0  0  0
  -27.0277  -30.3015   24.6105 C   0  0  0  0  0  0
  -27.6044  -32.4282   25.7476 C   0  0  0  0  0  0
  -27.5588  -37.1808   24.8464 C   0  0  0  0  0  0
  -21.4180  -29.3036   22.3703 N   0  0  0  0  0  0
  -26.4287  -37.3799   23.9415 N   0  0  0  0  0  0
  -24.6797  -31.0708   22.0982 N   0  0  0  0  0  0
  -23.4203  -28.8193   23.3031 O   0  0  0  0  0  0
  -28.3488  -26.5425   20.1723 O   0  0  0  0  0  0
  -26.5622  -34.8927   22.4712 O   0  0  0  0  0  0
  -23.5380  -32.1423   23.7404 O   0  0  0  0  0  0
  -27.3511  -21.7485   19.8603 C   0  0  0  0  0  0
  -29.1677  -20.2899   20.5517 C   0  0  0  0  0  0
  -28.5522  -21.5837   20.5549 C   0  0  0  0  0  0
  -26.7741  -20.7042   19.1267 C   0  0  0  0  0  0
  -28.6127  -19.1889   19.8197 C   0  0  0  0  0  0
  -27.4083  -19.4308   19.0739 C   0  0  0  0  0  0
  -26.8053  -18.3423   18.1864 C   0  0  0  0  0  0
  -30.4236  -17.8999   18.6217 C   0  0  0  0  0  0
  -23.2297  -21.6753   16.5011 C   0  0  0  0  0  0
  -24.8757  -22.4887   14.8027 C   0  0  0  0  0  0
  -24.4723  -23.8236   16.8778 C   0  0  0  0  0  0
  -30.3069  -24.9741   21.5840 C   0  0  0  0  0  0
  -30.0771  -23.9404   19.3075 C   0  0  0  0  0  0
  -29.0647  -22.7993   21.3642 C   0  0  0  0  0  0
  -25.4791  -21.0528   18.3950 C   0  0  0  0  0  0
  -25.7460  -21.6170   16.9824 C   0  0  0  0  0  0
  -29.9190  -17.0728   20.9765 C   0  0  0  0  0  0
  -28.1040  -25.1129   20.3927 C   0  0  0  0  0  0
  -29.3365  -17.7954   19.7017 C   0  0  1  0  0  0
  -24.5791  -22.3926   16.3107 C   0  0  0  0  0  0
  -29.3624  -24.1927   20.6466 C   0  0  0  0  0  0
  -29.7822  -15.5812   20.9520 N   0  0  0  0  0  0
  -31.4768  -12.4973   19.1368 H   0  0  0  0  0  0
  -30.3677  -11.3572   19.8538 H   0  0  0  0  0  0
  -29.7521  -11.7625   17.4569 H   0  0  0  0  0  0
  -29.6541  -13.4787   17.7499 H   0  0  0  0  0  0
  -27.8469  -11.2919   18.8421 H   0  0  0  0  0  0
  -27.3695  -12.5996   17.7905 H   0  0  0  0  0  0
  -27.6870  -14.2455   19.5548 H   0  0  0  0  0  0
  -28.7047  -11.9655   21.3234 H   0  0  0  0  0  0
  -28.4503  -13.5907   21.8800 H   0  0  0  0  0  0
  -25.2747   -9.5673   22.4777 H   0  0  0  0  0  0
  -23.9988   -7.4630   22.7478 H   0  0  0  0  0  0
  -21.0832   -8.8737   19.8949 H   0  0  0  0  0  0
  -22.3662  -10.9657   19.6176 H   0  0  0  0  0  0
  -21.1989   -7.6126   23.9678 H   0  0  0  0  0  0
  -21.1491   -6.0515   25.9049 H   0  0  0  0  0  0
  -22.0605   -2.7604   23.2841 H   0  0  0  0  0  0
  -22.4103  -11.9838   22.4749 H   0  0  0  0  0  0
  -21.1149  -13.1239   22.2645 H   0  0  0  0  0  0
  -24.6785  -15.8483   20.5263 H   0  0  0  0  0  0
  -26.2933  -15.6138   20.0890 H   0  0  0  0  0  0
  -26.7139  -32.5498   23.1144 H   0  0  0  0  0  0
  -24.9997  -33.9752   25.0426 H   0  0  0  0  0  0
  -22.7043  -31.3063   21.4053 H   0  0  0  0  0  0
  -23.3758  -35.9628   23.3293 H   0  0  0  0  0  0
  -24.3590  -36.8933   22.2056 H   0  0  0  0  0  0
  -23.7217  -37.6502   23.6657 H   0  0  0  0  0  0
  -26.0701  -31.5724   20.5981 H   0  0  0  0  0  0
  -26.8341  -30.8648   21.9904 H   0  0  0  0  0  0
  -28.1050  -29.0252   21.1934 H   0  0  0  0  0  0
  -25.9864  -25.9580   18.9975 H   0  0  0  0  0  0
  -23.9694  -27.3107   19.0191 H   0  0  0  0  0  0
  -23.7438  -30.5987   19.4040 H   0  0  0  0  0  0
  -22.7479  -29.2491   19.8604 H   0  0  0  0  0  0
  -25.1282  -36.1981   25.0837 H   0  0  0  0  0  0
  -20.9976  -28.3244   24.1425 H   0  0  0  0  0  0
  -20.5696  -26.2288   23.3608 H   0  0  0  0  0  0
  -21.6647  -26.7450   22.1193 H   0  0  0  0  0  0
  -19.6909  -25.6302   21.1238 H   0  0  0  0  0  0
  -19.6679  -27.3211   20.6772 H   0  0  0  0  0  0
  -17.4201  -26.6696   21.4023 H   0  0  0  0  0  0
  -18.0312  -26.0059   22.9016 H   0  0  0  0  0  0
  -19.7938  -30.7281   24.2260 H   0  0  0  0  0  0
  -17.5011  -31.6262   24.5174 H   0  0  0  0  0  0
  -15.5352  -30.2987   23.7644 H   0  0  0  0  0  0
  -15.8671  -28.0817   22.7058 H   0  0  0  0  0  0
  -24.5876  -30.7048   25.7767 H   0  0  0  0  0  0
  -24.8873  -32.2854   26.4882 H   0  0  0  0  0  0
  -25.8022  -30.8859   27.0218 H   0  0  0  0  0  0
  -26.2831  -29.6796   24.1119 H   0  0  0  0  0  0
  -27.4005  -29.7223   25.4563 H   0  0  0  0  0  0
  -27.8687  -30.4329   23.9291 H   0  0  0  0  0  0
  -27.2689  -33.3588   26.2065 H   0  0  0  0  0  0
  -28.3842  -32.6825   25.0285 H   0  0  0  0  0  0
  -28.0714  -31.8380   26.5373 H   0  0  0  0  0  0
  -28.2597  -38.0113   24.7534 H   0  0  0  0  0  0
  -28.1094  -36.2655   24.6263 H   0  0  0  0  0  0
  -27.2314  -37.1422   25.8866 H   0  0  0  0  0  0
  -20.9362  -29.8753   21.6904 H   0  0  0  0  0  0
  -26.0188  -38.2877   24.1418 H   0  0  0  0  0  0
  -26.8479  -22.7024   19.8894 H   0  0  0  0  0  0
  -30.0846  -20.1408   21.1034 H   0  0  0  0  0  0
  -26.1071  -18.7263   17.4471 H   0  0  0  0  0  0
  -26.2736  -17.6050   18.7883 H   0  0  0  0  0  0
  -27.5748  -17.8355   17.6053 H   0  0  0  0  0  0
  -30.0165  -18.2681   17.6802 H   0  0  0  0  0  0
  -30.8903  -16.9369   18.4199 H   0  0  0  0  0  0
  -31.2072  -18.5935   18.9297 H   0  0  0  0  0  0
  -22.4441  -22.1480   15.9099 H   0  0  0  0  0  0
  -22.8992  -21.7037   17.5400 H   0  0  0  0  0  0
  -23.2822  -20.6295   16.1988 H   0  0  0  0  0  0
  -24.1043  -23.0495   14.2739 H   0  0  0  0  0  0
  -24.9295  -21.4997   14.3447 H   0  0  0  0  0  0
  -25.8288  -22.9847   14.6152 H   0  0  0  0  0  0
  -23.6147  -24.3516   16.4581 H   0  0  0  0  0  0
  -25.3567  -24.4181   16.6457 H   0  0  0  0  0  0
  -24.3521  -23.8311   17.9611 H   0  0  0  0  0  0
  -31.1939  -24.3969   21.8454 H   0  0  0  0  0  0
  -29.8016  -25.2411   22.5139 H   0  0  0  0  0  0
  -30.6521  -25.9009   21.1242 H   0  0  0  0  0  0
  -30.9436  -23.2916   19.4402 H   0  0  0  0  0  0
  -30.4247  -24.8704   18.8585 H   0  0  0  0  0  0
  -29.4146  -23.4588   18.5861 H   0  0  0  0  0  0
  -29.9822  -22.4538   21.8412 H   0  0  0  0  0  0
  -28.3700  -22.9586   22.1892 H   0  0  0  0  0  0
  -24.9508  -21.7992   18.9888 H   0  0  0  0  0  0
  -24.7994  -20.2015   18.3663 H   0  0  0  0  0  0
  -26.0645  -20.7924   16.3445 H   0  0  0  0  0  0
  -26.6055  -22.2879   17.0298 H   0  0  0  0  0  0
  -29.3700  -17.4148   21.8547 H   0  0  0  0  0  0
  -30.9563  -17.3632   21.1497 H   0  0  0  0  0  0
  -27.4221  -25.0166   21.2391 H   0  0  0  0  0  0
  -27.5823  -24.7109   19.5260 H   0  0  0  0  0  0
  -28.5987  -17.0847   19.3404 H   0  0  0  0  0  0
  -28.8826  -15.2462   21.2616 H   0  0  0  0  0  0
  1 25  1  0  0  0
  1 30  2  0  0  0
  1 92  1  0  0  0
  2  3  1  0  0  0
  2 25  1  0  0  0
  2 93  1  0  0  0
  2 94  1  0  0  0
  3  4  1  0  0  0
  3 95  1  0  0  0
  3 96  1  0  0  0
  4  5  1  0  0  0
  4 97  1  0  0  0
  4 98  1  0  0  0
  5  6  1  0  0  0
  5 26  1  0  0  0
  5 99  1  0  0  0
  6 25  1  0  0  0
  6100  1  0  0  0
  6101  1  0  0  0
  7  8  2  0  0  0
  7 26  1  0  0  0
  7 29  1  0  0  0
  8  9  1  0  0  0
  8 22  1  0  0  0
  9 10  1  0  0  0
  9 27  2  0  0  0
 10 11  2  0  0  0
 10 15  1  0  0  0
 11 12  1  0  0  0
 11102  1  0  0  0
 12 13  2  0  0  0
 12103  1  0  0  0
 13 14  1  0  0  0
 13 31  1  0  0  0
 14 15  2  0  0  0
 14104  1  0  0  0
 15105  1  0  0  0
 16 17  2  0  0  0
 16 21  1  0  0  0
 16 31  1  0  0  0
 17 18  1  0  0  0
 17106  1  0  0  0
 18 19  2  0  0  0
 18107  1  0  0  0
 19 20  1  0  0  0
 19 24  1  0  0  0
 20 21  2  0  0  0
 20108  1  0  0  0
 21 23  1  0  0  0
 22 28  1  0  0  0
 22 32  2  0  0  0
 26 27  1  0  0  0
 28109  1  0  0  0
 28110  1  0  0  0
 29111  1  0  0  0
 29112  1  0  0  0
 33 34  1  0  0  0
 33 66  1  0  0  0
 33 70  2  0  0  0
 34 36  1  0  0  0
 34 59  1  0  0  0
 34113  1  0  0  0
 35 44  2  0  0  0
 35 45  1  0  0  0
 35 68  1  0  0  0
 36 56  1  0  0  0
 36114  1  0  0  0
 37 39  1  0  0  0
 37 47  1  0  0  0
 37 66  1  0  0  0
 37115  1  0  0  0
 38 43  2  0  0  0
 38 46  1  0  0  0
 38 47  1  0  0  0
 39 64  1  0  0  0
 39 67  2  0  0  0
 40 52  1  0  0  0
 40 53  2  0  0  0
 40 58  1  0  0  0
 41116  1  0  0  0
 41117  1  0  0  0
 41118  1  0  0  0
 41 48  1  0  0  0
 42 43  1  0  0  0
 42 66  1  0  0  0
 42119  1  0  0  0
 42120  1  0  0  0
 43 44  1  0  0  0
 44121  1  0  0  0
 45 46  2  0  0  0
 45122  1  0  0  0
 46123  1  0  0  0
 47124  1  0  0  0
 47125  1  0  0  0
 48 56  1  0  0  0
 48 65  1  0  0  0
 48126  1  0  0  0
 49 50  1  0  0  0
 49 53  1  0  0  0
 49 64  1  0  0  0
 49127  1  0  0  0
 50 51  1  0  0  0
 50128  1  0  0  0
 50129  1  0  0  0
 51 52  1  0  0  0
 51130  1  0  0  0
 51131  1  0  0  0
 52132  1  0  0  0
 52133  1  0  0  0
 53 54  1  0  0  0
 54 55  2  0  0  0
 54134  1  0  0  0
 55 57  1  0  0  0
 55135  1  0  0  0
 56 69  2  0  0  0
 57 58  2  0  0  0
 57136  1  0  0  0
 58137  1  0  0  0
 59 60  1  0  0  0
 59 61  1  0  0  0
 59 62  1  0  0  0
 60138  1  0  0  0
 60139  1  0  0  0
 60140  1  0  0  0
 61141  1  0  0  0
 61142  1  0  0  0
 61143  1  0  0  0
 62144  1  0  0  0
 62145  1  0  0  0
 62146  1  0  0  0
 63 65  1  0  0  0
 63147  1  0  0  0
 63148  1  0  0  0
 63149  1  0  0  0
 64150  1  0  0  0
 65151  1  0  0  0
 68 88  1  0  0  0
 71 73  2  0  0  0
 71 74  1  0  0  0
 71152  1  0  0  0
 72 73  1  0  0  0
 72 75  2  0  0  0
 72153  1  0  0  0
 73 84  1  0  0  0
 74 76  2  0  0  0
 74 85  1  0  0  0
 75 76  1  0  0  0
 75 89  1  0  0  0
 76 77  1  0  0  0
 77154  1  0  0  0
 77155  1  0  0  0
 77156  1  0  0  0
 78157  1  0  0  0
 78158  1  0  0  0
 78159  1  0  0  0
 78 89  1  0  0  0
 79160  1  0  0  0
 79161  1  0  0  0
 79162  1  0  0  0
 79 90  1  0  0  0
 80 90  1  0  0  0
 80163  1  0  0  0
 80164  1  0  0  0
 80165  1  0  0  0
 81 90  1  0  0  0
 81166  1  0  0  0
 81167  1  0  0  0
 81168  1  0  0  0
 82169  1  0  0  0
 82170  1  0  0  0
 82171  1  0  0  0
 82 91  1  0  0  0
 83 91  1  0  0  0
 83172  1  0  0  0
 83173  1  0  0  0
 83174  1  0  0  0
 84 91  1  0  0  0
 84175  1  0  0  0
 84176  1  0  0  0
 85 86  1  0  0  0
 85177  1  0  0  0
 85178  1  0  0  0
 86 90  1  0  0  0
 86179  1  0  0  0
 86180  1  0  0  0
 87 89  1  0  0  0
 87 92  1  0  0  0
 87181  1  0  0  0
 87182  1  0  0  0
 88 91  1  0  0  0
 88183  1  0  0  0
 88184  1  0  0  0
 89185  1  0  0  0
 92186  1  0  0  0
M  ISO  4   1 100  68 101  88 101  92 100
M  END
> <chiral flag>
0

> <version>
0

> <s_m_source_file>
/data/baiqing/PycharmProjects/Reinvent-master-3.2/result/LINK_invent/BTK/process_docking_weight1_custom_sum_contain_oxygen_bond_distance_aromatic_linkinvent_7_9_3/rearranged_h_0087.sdf

> <i_m_source_file_index>
65

> <r_mmod_Potential_Energy-OPLS-2005>
23.9477710723877

> <r_mmod_Stretch_Energy-OPLS-2005>
70.8859481811523

> <r_mmod_Bend_Energy-OPLS-2005>
146.593002319336

> <r_mmod_Torsional_Energy-OPLS-2005>
241.598663330078

> <r_mmod_Improper_Torsional_Energy-OPLS-2005>
4.66588497161865

> <r_mmod_Van_der_Waal_Energy-OPLS-2005>
147.195999145508

> <r_mmod_Electrostatic_Energy-OPLS-2005>
-433.045227050781

> <r_mmod_Solvation_Energy-OPLS-2005>
-187.513000488281

> <b_mmod_Minimization_Converged-OPLS-2005>
0

> <r_mmod_RMS_Derivative-OPLS-2005>
2.99224472045898

$$$$
66
                    3D
 Structure written by MMmdl.
154162  0  0  1  0            999 V2000
  -30.6959  -14.4851   20.5034 C   0  0  0  0  0  0
  -30.4128  -12.2820   19.4405 C   0  0  0  0  0  0
  -29.4938  -12.4632   18.2141 C   0  0  0  0  0  0
  -28.0145  -12.3459   18.6329 C   0  0  0  0  0  0
  -27.6641  -13.2051   19.8790 C   0  0  2  0  0  0
  -28.7077  -13.0119   21.0035 C   0  0  0  0  0  0
  -25.2642  -13.8181   20.5780 C   0  0  0  0  0  0
  -24.1878  -13.0417   20.9221 C   0  0  0  0  0  0
  -24.6472  -11.6901   20.8861 C   0  0  0  0  0  0
  -23.9174  -10.4264   21.0507 C   0  0  0  0  0  0
  -24.3702   -9.4141   21.9272 C   0  0  0  0  0  0
  -23.6329   -8.2208   22.0816 C   0  0  0  0  0  0
  -22.4296   -8.0308   21.3591 C   0  0  0  0  0  0
  -21.9994   -9.0300   20.4693 C   0  0  0  0  0  0
  -22.7394  -10.2149   20.3120 C   0  0  0  0  0  0
  -21.6844   -6.0785   22.5323 C   0  0  0  0  0  0
  -21.3995   -6.5680   23.8264 C   0  0  0  0  0  0
  -21.3661   -5.6830   24.9217 C   0  0  0  0  0  0
  -21.6042   -4.3092   24.7256 C   0  0  0  0  0  0
  -21.8818   -3.8190   23.4379 C   0  0  0  0  0  0
  -21.9172   -4.7007   22.3431 C   0  0  0  0  0  0
  -22.7902  -13.5228   21.1832 C   0  0  0  0  0  0
  -22.1627   -4.2203   21.1001 F   0  0  0  0  0  0
  -21.5625   -3.4568   25.7768 F   0  0  0  0  0  0
  -30.0372  -13.2972   20.4387 N   0  0  0  0  0  0
  -26.3068  -12.9334   20.3454 N   0  0  0  0  0  0
  -25.9406  -11.6502   20.5929 N   0  0  0  0  0  0
  -22.0533  -12.8234   22.0392 N   0  0  0  0  0  0
  -25.4422  -15.1909   20.4365 N   0  0  0  0  0  0
  -31.8347  -14.6428   20.0574 O   0  0  0  0  0  0
  -21.6624   -6.8935   21.4288 O   0  0  0  0  0  0
  -22.3583  -14.5524   20.6695 O   0  0  0  0  0  0
  -24.6149  -31.8679   23.2051 C   0  0  0  0  0  0
  -25.9018  -32.4828   23.8370 C   0  0  1  0  0  0
  -27.2385  -27.4285   20.1093 C   0  0  0  0  0  0
  -25.5897  -33.8614   24.2340 N   0  0  0  0  0  0
  -23.3998  -30.4882   21.5480 C   0  0  2  0  0  0
  -24.8498  -28.9474   20.1173 C   0  0  0  0  0  0
  -22.7392  -29.4630   22.4972 C   0  0  0  0  0  0
  -18.0271  -28.1342   22.8502 C   0  0  0  0  0  0
  -24.1489  -36.7299   23.2623 C   0  0  0  0  0  0
  -25.9269  -30.8367   21.3518 C   0  0  0  0  0  0
  -26.0109  -29.4658   20.7073 C   0  0  0  0  0  0
  -27.2083  -28.7127   20.6996 C   0  0  0  0  0  0
  -26.0600  -26.9158   19.5261 C   0  0  0  0  0  0
  -24.8720  -27.6734   19.5204 C   0  0  0  0  0  0
  -23.6078  -29.8127   20.1654 C   0  0  0  0  0  0
  -25.4105  -36.3109   24.0340 C   0  0  1  0  0  0
  -20.5871  -28.3604   23.1348 C   0  0  2  0  0  0
  -20.6760  -26.9356   22.5402 C   0  0  0  0  0  0
  -19.5732  -26.6388   21.5186 C   0  0  0  0  0  0
  -18.1908  -26.7905   22.1598 C   0  0  0  0  0  0
  -19.1528  -28.8788   23.2926 C   0  0  0  0  0  0
  -18.9467  -30.1405   23.8925 C   0  0  0  0  0  0
  -17.6479  -30.6563   24.0577 C   0  0  0  0  0  0
  -25.9034  -34.9471   23.5131 C   0  0  0  0  0  0
  -16.5365  -29.9068   23.6341 C   0  0  0  0  0  0
  -16.7271  -28.6482   23.0356 C   0  0  0  0  0  0
  -26.4439  -31.6593   25.0689 C   0  0  0  0  0  0
  -25.3721  -31.3715   26.1456 C   0  0  0  0  0  0
  -27.0180  -30.3046   24.5962 C   0  0  0  0  0  0
  -27.6061  -32.4250   25.7442 C   0  0  0  0  0  0
  -27.5571  -37.1793   24.8481 C   0  0  0  0  0  0
  -21.4116  -29.2996   22.3767 N   0  0  0  0  0  0
  -26.4298  -37.3796   23.9413 N   0  0  0  0  0  0
  -24.6658  -31.0772   22.0954 N   0  0  0  0  0  0
  -23.4194  -28.8162   23.2974 O   0  0  0  0  0  0
  -28.3992  -26.6854   20.0831 O   0  0  0  0  0  0
  -26.5584  -34.8926   22.4684 O   0  0  0  0  0  0
  -23.5348  -32.1386   23.7487 O   0  0  0  0  0  0
  -29.6093  -19.8945   19.4928 C   0  0  0  0  0  0
  -29.3803  -21.2454   19.4556 C   0  0  0  0  0  0
  -29.2784  -20.5728   21.5852 C   0  0  0  0  0  0
  -29.5171  -19.4397   20.8459 C   0  0  0  0  0  0
  -29.6026  -18.0057   21.3891 C   0  0  0  0  0  0
  -28.8065  -24.1995   20.2044 C   0  0  0  0  0  0
  -28.8288  -23.0290   21.2279 C   0  0  0  0  0  0
  -30.1674  -16.9357   20.4094 C   0  0  0  0  0  0
  -28.3982  -25.5149   20.9193 C   0  0  0  0  0  0
  -29.1622  -21.6782   20.7510 N   0  0  0  0  0  0
  -29.9467  -15.5460   20.8625 N   0  0  0  0  0  0
  -31.4643  -12.3427   19.1533 H   0  0  0  0  0  0
  -30.2779  -11.2839   19.8611 H   0  0  0  0  0  0
  -29.7215  -11.7071   17.4608 H   0  0  0  0  0  0
  -29.6736  -13.4332   17.7459 H   0  0  0  0  0  0
  -27.8268  -11.2916   18.8472 H   0  0  0  0  0  0
  -27.3559  -12.6059   17.8028 H   0  0  0  0  0  0
  -27.7050  -14.2504   19.5673 H   0  0  0  0  0  0
  -28.6800  -11.9903   21.3842 H   0  0  0  0  0  0
  -28.4832  -13.6460   21.8635 H   0  0  0  0  0  0
  -25.2864   -9.5555   22.4845 H   0  0  0  0  0  0
  -24.0020   -7.4585   22.7547 H   0  0  0  0  0  0
  -21.0928   -8.8909   19.8980 H   0  0  0  0  0  0
  -22.3967  -10.9711   19.6206 H   0  0  0  0  0  0
  -21.1971   -7.6176   23.9789 H   0  0  0  0  0  0
  -21.1472   -6.0544   25.9124 H   0  0  0  0  0  0
  -22.0584   -2.7655   23.2884 H   0  0  0  0  0  0
  -22.4100  -11.9793   22.4622 H   0  0  0  0  0  0
  -21.1172  -13.1324   22.2639 H   0  0  0  0  0  0
  -24.7048  -15.8577   20.6355 H   0  0  0  0  0  0
  -26.3162  -15.6373   20.1873 H   0  0  0  0  0  0
  -26.7068  -32.5597   23.1118 H   0  0  0  0  0  0
  -25.0116  -33.9777   25.0542 H   0  0  0  0  0  0
  -22.6905  -31.3052   21.4067 H   0  0  0  0  0  0
  -23.3787  -35.9597   23.3293 H   0  0  0  0  0  0
  -24.3602  -36.8906   22.2039 H   0  0  0  0  0  0
  -23.7197  -37.6479   23.6634 H   0  0  0  0  0  0
  -26.0174  -31.5951   20.5723 H   0  0  0  0  0  0
  -26.8205  -30.9104   21.9576 H   0  0  0  0  0  0
  -28.1044  -29.1028   21.1628 H   0  0  0  0  0  0
  -26.0589  -25.9304   19.0819 H   0  0  0  0  0  0
  -23.9778  -27.2698   19.0646 H   0  0  0  0  0  0
  -23.7010  -30.5836   19.4004 H   0  0  0  0  0  0
  -22.7340  -29.2223   19.8783 H   0  0  0  0  0  0
  -25.1278  -36.1976   25.0836 H   0  0  0  0  0  0
  -20.9983  -28.3120   24.1453 H   0  0  0  0  0  0
  -20.5666  -26.2166   23.3548 H   0  0  0  0  0  0
  -21.6627  -26.7395   22.1177 H   0  0  0  0  0  0
  -19.6918  -25.6322   21.1134 H   0  0  0  0  0  0
  -19.6699  -27.3263   20.6784 H   0  0  0  0  0  0
  -17.4195  -26.6711   21.3983 H   0  0  0  0  0  0
  -18.0309  -25.9987   22.8938 H   0  0  0  0  0  0
  -19.7949  -30.7214   24.2295 H   0  0  0  0  0  0
  -17.5036  -31.6253   24.5150 H   0  0  0  0  0  0
  -15.5361  -30.2993   23.7639 H   0  0  0  0  0  0
  -15.8660  -28.0826   22.7053 H   0  0  0  0  0  0
  -24.5943  -30.6979   25.7859 H   0  0  0  0  0  0
  -24.8821  -32.2846   26.4836 H   0  0  0  0  0  0
  -25.8079  -30.8984   27.0257 H   0  0  0  0  0  0
  -26.2675  -29.6930   24.0938 H   0  0  0  0  0  0
  -27.3923  -29.7148   25.4333 H   0  0  0  0  0  0
  -27.8511  -30.4391   23.9060 H   0  0  0  0  0  0
  -27.2816  -33.3699   26.1797 H   0  0  0  0  0  0
  -28.3978  -32.6526   25.0298 H   0  0  0  0  0  0
  -28.0529  -31.8438   26.5501 H   0  0  0  0  0  0
  -28.2624  -38.0061   24.7530 H   0  0  0  0  0  0
  -28.1032  -36.2599   24.6330 H   0  0  0  0  0  0
  -27.2285  -37.1491   25.8884 H   0  0  0  0  0  0
  -20.9253  -29.8757   21.7046 H   0  0  0  0  0  0
  -26.0205  -38.2864   24.1478 H   0  0  0  0  0  0
  -29.7968  -19.2885   18.6178 H   0  0  0  0  0  0
  -29.3415  -21.9272   18.6156 H   0  0  0  0  0  0
  -29.1417  -20.6895   22.6540 H   0  0  0  0  0  0
  -28.5942  -17.7234   21.6948 H   0  0  0  0  0  0
  -30.1989  -18.0061   22.3055 H   0  0  0  0  0  0
  -28.0905  -23.9903   19.4083 H   0  0  0  0  0  0
  -29.7864  -24.3149   19.7345 H   0  0  0  0  0  0
  -27.8457  -22.9679   21.6969 H   0  0  0  0  0  0
  -29.5358  -23.2773   22.0218 H   0  0  0  0  0  0
  -29.6714  -17.0232   19.4405 H   0  0  0  0  0  0
  -31.2264  -17.1282   20.2272 H   0  0  0  0  0  0
  -29.1017  -25.6990   21.7316 H   0  0  0  0  0  0
  -27.4307  -25.3658   21.4007 H   0  0  0  0  0  0
  -29.0368  -15.3346   21.2471 H   0  0  0  0  0  0
  1 25  1  0  0  0
  1 30  2  0  0  0
  1 81  1  0  0  0
  2  3  1  0  0  0
  2 25  1  0  0  0
  2 82  1  0  0  0
  2 83  1  0  0  0
  3  4  1  0  0  0
  3 84  1  0  0  0
  3 85  1  0  0  0
  4  5  1  0  0  0
  4 86  1  0  0  0
  4 87  1  0  0  0
  5  6  1  0  0  0
  5 26  1  0  0  0
  5 88  1  0  0  0
  6 25  1  0  0  0
  6 89  1  0  0  0
  6 90  1  0  0  0
  7  8  2  0  0  0
  7 26  1  0  0  0
  7 29  1  0  0  0
  8  9  1  0  0  0
  8 22  1  0  0  0
  9 10  1  0  0  0
  9 27  2  0  0  0
 10 11  2  0  0  0
 10 15  1  0  0  0
 11 12  1  0  0  0
 11 91  1  0  0  0
 12 13  2  0  0  0
 12 92  1  0  0  0
 13 14  1  0  0  0
 13 31  1  0  0  0
 14 15  2  0  0  0
 14 93  1  0  0  0
 15 94  1  0  0  0
 16 17  2  0  0  0
 16 21  1  0  0  0
 16 31  1  0  0  0
 17 18  1  0  0  0
 17 95  1  0  0  0
 18 19  2  0  0  0
 18 96  1  0  0  0
 19 20  1  0  0  0
 19 24  1  0  0  0
 20 21  2  0  0  0
 20 97  1  0  0  0
 21 23  1  0  0  0
 22 28  1  0  0  0
 22 32  2  0  0  0
 26 27  1  0  0  0
 28 98  1  0  0  0
 28 99  1  0  0  0
 29100  1  0  0  0
 29101  1  0  0  0
 33 34  1  0  0  0
 33 66  1  0  0  0
 33 70  2  0  0  0
 34 36  1  0  0  0
 34 59  1  0  0  0
 34102  1  0  0  0
 35 44  2  0  0  0
 35 45  1  0  0  0
 35 68  1  0  0  0
 36 56  1  0  0  0
 36103  1  0  0  0
 37 39  1  0  0  0
 37 47  1  0  0  0
 37 66  1  0  0  0
 37104  1  0  0  0
 38 43  2  0  0  0
 38 46  1  0  0  0
 38 47  1  0  0  0
 39 64  1  0  0  0
 39 67  2  0  0  0
 40 52  1  0  0  0
 40 53  2  0  0  0
 40 58  1  0  0  0
 41105  1  0  0  0
 41106  1  0  0  0
 41107  1  0  0  0
 41 48  1  0  0  0
 42 43  1  0  0  0
 42 66  1  0  0  0
 42108  1  0  0  0
 42109  1  0  0  0
 43 44  1  0  0  0
 44110  1  0  0  0
 45 46  2  0  0  0
 45111  1  0  0  0
 46112  1  0  0  0
 47113  1  0  0  0
 47114  1  0  0  0
 48 56  1  0  0  0
 48 65  1  0  0  0
 48115  1  0  0  0
 49 50  1  0  0  0
 49 53  1  0  0  0
 49 64  1  0  0  0
 49116  1  0  0  0
 50 51  1  0  0  0
 50117  1  0  0  0
 50118  1  0  0  0
 51 52  1  0  0  0
 51119  1  0  0  0
 51120  1  0  0  0
 52121  1  0  0  0
 52122  1  0  0  0
 53 54  1  0  0  0
 54 55  2  0  0  0
 54123  1  0  0  0
 55 57  1  0  0  0
 55124  1  0  0  0
 56 69  2  0  0  0
 57 58  2  0  0  0
 57125  1  0  0  0
 58126  1  0  0  0
 59 60  1  0  0  0
 59 61  1  0  0  0
 59 62  1  0  0  0
 60127  1  0  0  0
 60128  1  0  0  0
 60129  1  0  0  0
 61130  1  0  0  0
 61131  1  0  0  0
 61132  1  0  0  0
 62133  1  0  0  0
 62134  1  0  0  0
 62135  1  0  0  0
 63 65  1  0  0  0
 63136  1  0  0  0
 63137  1  0  0  0
 63138  1  0  0  0
 64139  1  0  0  0
 65140  1  0  0  0
 68 79  1  0  0  0
 71 72  2  0  0  0
 71 74  1  0  0  0
 71141  1  0  0  0
 72 80  1  0  0  0
 72142  1  0  0  0
 73 74  2  0  0  0
 73 80  1  0  0  0
 73143  1  0  0  0
 74 75  1  0  0  0
 75 78  1  0  0  0
 75144  1  0  0  0
 75145  1  0  0  0
 76 77  1  0  0  0
 76 79  1  0  0  0
 76146  1  0  0  0
 76147  1  0  0  0
 77 80  1  0  0  0
 77148  1  0  0  0
 77149  1  0  0  0
 78 81  1  0  0  0
 78150  1  0  0  0
 78151  1  0  0  0
 79152  1  0  0  0
 79153  1  0  0  0
 81154  1  0  0  0
M  ISO  4   1 100  68 101  79 101  81 100
M  END
> <chiral flag>
0

> <version>
0

> <s_m_source_file>
/data/baiqing/PycharmProjects/Reinvent-master-3.2/result/LINK_invent/BTK/process_docking_weight1_custom_sum_contain_oxygen_bond_distance_aromatic_linkinvent_7_9_3/rearranged_h_0087.sdf

> <i_m_source_file_index>
66

> <r_mmod_Potential_Energy-OPLS-2005>
-76.2488250732422

> <r_mmod_Stretch_Energy-OPLS-2005>
37.534481048584

> <r_mmod_Bend_Energy-OPLS-2005>
99.2322845458984

> <r_mmod_Torsional_Energy-OPLS-2005>
239.659133911133

> <r_mmod_Improper_Torsional_Energy-OPLS-2005>
6.33138847351074

> <r_mmod_Van_der_Waal_Energy-OPLS-2005>
124.186080932617

> <r_mmod_Electrostatic_Energy-OPLS-2005>
-382.550872802734

> <r_mmod_Solvation_Energy-OPLS-2005>
-216.142425537109

> <b_mmod_Minimization_Converged-OPLS-2005>
0

> <r_mmod_RMS_Derivative-OPLS-2005>
5.35114669799805

$$$$
67
                    3D
 Structure written by MMmdl.
164172  0  0  1  0            999 V2000
  -30.5317  -14.8901   20.4974 C   0  0  0  0  0  0
  -30.4354  -12.5583   19.4834 C   0  0  0  0  0  0
  -29.5106  -12.5203   18.2393 C   0  0  0  0  0  0
  -28.0369  -12.3431   18.6499 C   0  0  0  0  0  0
  -27.6265  -13.2524   19.8380 C   0  0  2  0  0  0
  -28.6578  -13.2173   20.9738 C   0  0  0  0  0  0
  -25.2334  -13.8227   20.5760 C   0  0  0  0  0  0
  -24.1742  -13.0440   20.9281 C   0  0  0  0  0  0
  -24.6342  -11.6914   20.8855 C   0  0  0  0  0  0
  -23.9057  -10.4303   21.0516 C   0  0  0  0  0  0
  -24.3603   -9.4223   21.9295 C   0  0  0  0  0  0
  -23.6247   -8.2264   22.0823 C   0  0  0  0  0  0
  -22.4286   -8.0339   21.3629 C   0  0  0  0  0  0
  -21.9892   -9.0311   20.4708 C   0  0  0  0  0  0
  -22.7235  -10.2203   20.3131 C   0  0  0  0  0  0
  -21.6790   -6.0774   22.5323 C   0  0  0  0  0  0
  -21.4013   -6.5607   23.8235 C   0  0  0  0  0  0
  -21.3642   -5.6779   24.9191 C   0  0  0  0  0  0
  -21.6076   -4.3047   24.7222 C   0  0  0  0  0  0
  -21.8776   -3.8139   23.4363 C   0  0  0  0  0  0
  -21.9211   -4.6962   22.3356 C   0  0  0  0  0  0
  -22.7754  -13.5327   21.1955 C   0  0  0  0  0  0
  -22.1650   -4.2181   21.0954 F   0  0  0  0  0  0
  -21.5650   -3.4499   25.7713 F   0  0  0  0  0  0
  -29.9477  -13.6338   20.3984 N   0  0  0  0  0  0
  -26.2838  -12.9486   20.3203 N   0  0  0  0  0  0
  -25.9312  -11.6646   20.5732 N   0  0  0  0  0  0
  -22.0259  -12.8405   22.0431 N   0  0  0  0  0  0
  -25.3898  -15.1956   20.4010 N   0  0  0  0  0  0
  -31.7344  -14.9808   20.2100 O   0  0  0  0  0  0
  -21.6623   -6.8918   21.4266 O   0  0  0  0  0  0
  -22.3563  -14.5633   20.6769 O   0  0  0  0  0  0
  -24.6445  -31.8594   23.2018 C   0  0  0  0  0  0
  -25.9258  -32.4787   23.8375 C   0  0  1  0  0  0
  -27.1150  -27.0318   20.1830 C   0  0  0  0  0  0
  -25.6072  -33.8595   24.2351 N   0  0  0  0  0  0
  -23.4537  -30.4845   21.5472 C   0  0  2  0  0  0
  -24.8927  -28.9121   20.1143 C   0  0  0  0  0  0
  -22.7552  -29.4582   22.4826 C   0  0  0  0  0  0
  -18.0329  -28.1431   22.8464 C   0  0  0  0  0  0
  -24.1492  -36.7222   23.2618 C   0  0  0  0  0  0
  -26.0174  -30.6722   21.4441 C   0  0  0  0  0  0
  -26.0625  -29.2752   20.7924 C   0  0  0  0  0  0
  -27.1656  -28.3318   20.8520 C   0  0  0  0  0  0
  -25.9967  -26.8879   19.3537 C   0  0  0  0  0  0
  -24.8779  -27.7257   19.3795 C   0  0  0  0  0  0
  -23.6950  -29.8413   20.1602 C   0  0  0  0  0  0
  -25.4138  -36.3129   24.0347 C   0  0  1  0  0  0
  -20.5927  -28.3778   23.1218 C   0  0  2  0  0  0
  -20.6855  -26.9495   22.5383 C   0  0  0  0  0  0
  -19.5831  -26.6415   21.5221 C   0  0  0  0  0  0
  -18.1987  -26.7967   22.1589 C   0  0  0  0  0  0
  -19.1577  -28.8912   23.2860 C   0  0  0  0  0  0
  -18.9502  -30.1481   23.8942 C   0  0  0  0  0  0
  -17.6512  -30.6632   24.0557 C   0  0  0  0  0  0
  -25.9120  -34.9462   23.5139 C   0  0  0  0  0  0
  -16.5397  -29.9136   23.6318 C   0  0  0  0  0  0
  -16.7297  -28.6509   23.0412 C   0  0  0  0  0  0
  -26.4566  -31.6626   25.0772 C   0  0  0  0  0  0
  -25.3696  -31.3840   26.1419 C   0  0  0  0  0  0
  -27.0459  -30.3028   24.6416 C   0  0  0  0  0  0
  -27.6189  -32.4299   25.7507 C   0  0  0  0  0  0
  -27.5617  -37.1792   24.8481 C   0  0  0  0  0  0
  -21.4248  -29.3141   22.3569 N   0  0  0  0  0  0
  -26.4326  -37.3834   23.9414 N   0  0  0  0  0  0
  -24.7262  -31.0278   22.1185 N   0  0  0  0  0  0
  -23.4180  -28.8144   23.2969 O   0  0  0  0  0  0
  -28.0299  -25.9091   20.3206 O   0  0  0  0  0  0
  -26.5590  -34.8961   22.4650 O   0  0  0  0  0  0
  -23.5557  -32.1535   23.7178 O   0  0  0  0  0  0
  -28.6185  -23.1124   22.4095 C   0  0  0  0  0  0
  -27.1902  -21.2250   22.7908 C   0  0  0  0  0  0
  -28.1820  -22.0840   23.3135 C   0  0  0  0  0  0
  -28.2253  -23.0449   21.0308 C   0  0  0  0  0  0
  -27.9457  -21.6185   20.6802 C   0  0  0  0  0  0
  -29.4186  -22.9085   25.5169 C   0  0  0  0  0  0
  -29.2363  -20.4666   25.0000 C   0  0  0  0  0  0
  -26.8670  -23.8959   18.9441 C   0  0  0  0  0  0
  -29.1483  -20.4819   20.5573 C   0  0  0  0  0  0
  -28.9310  -18.7865   20.5416 C   0  0  0  0  0  0
  -30.0096  -17.5586   20.9684 C   0  0  0  0  0  0
  -28.5713  -21.8437   24.7938 C   0  0  0  0  0  0
  -27.5179  -24.3688   20.3010 C   0  0  1  0  0  0
  -26.9940  -21.0626   21.4742 N   0  0  0  0  0  0
  -29.7347  -16.0298   20.7450 N   0  0  0  0  0  0
  -31.4648  -12.7246   19.1705 H   0  0  0  0  0  0
  -30.4306  -11.5903   19.9913 H   0  0  0  0  0  0
  -29.8053  -11.7059   17.5802 H   0  0  0  0  0  0
  -29.6318  -13.4374   17.6571 H   0  0  0  0  0  0
  -27.8814  -11.2965   18.9049 H   0  0  0  0  0  0
  -27.3884  -12.5370   17.7920 H   0  0  0  0  0  0
  -27.6013  -14.2719   19.4442 H   0  0  0  0  0  0
  -28.7339  -12.2198   21.4111 H   0  0  0  0  0  0
  -28.3680  -13.8902   21.7843 H   0  0  0  0  0  0
  -25.2706   -9.5725   22.4980 H   0  0  0  0  0  0
  -23.9918   -7.4675   22.7587 H   0  0  0  0  0  0
  -21.0841   -8.8908   19.9075 H   0  0  0  0  0  0
  -22.3704  -10.9798   19.6341 H   0  0  0  0  0  0
  -21.1963   -7.6108   23.9791 H   0  0  0  0  0  0
  -21.1528   -6.0437   25.9112 H   0  0  0  0  0  0
  -22.0598   -2.7569   23.2775 H   0  0  0  0  0  0
  -22.3567  -11.9934   22.4829 H   0  0  0  0  0  0
  -21.1014  -13.1886   22.2753 H   0  0  0  0  0  0
  -24.5864  -15.8053   20.5043 H   0  0  0  0  0  0
  -26.1264  -15.6177   19.8480 H   0  0  0  0  0  0
  -26.7248  -32.5389   23.1054 H   0  0  0  0  0  0
  -25.0466  -33.9801   25.0666 H   0  0  0  0  0  0
  -22.7536  -31.3163   21.4022 H   0  0  0  0  0  0
  -23.3886  -35.9434   23.3290 H   0  0  0  0  0  0
  -24.3589  -36.8801   22.2033 H   0  0  0  0  0  0
  -23.7083  -37.6361   23.6590 H   0  0  0  0  0  0
  -26.2044  -31.4229   20.6754 H   0  0  0  0  0  0
  -26.8744  -30.7207   22.0994 H   0  0  0  0  0  0
  -28.0093  -28.5559   21.4860 H   0  0  0  0  0  0
  -25.9722  -26.1328   18.6002 H   0  0  0  0  0  0
  -24.0080  -27.4899   18.7702 H   0  0  0  0  0  0
  -23.8839  -30.6380   19.4386 H   0  0  0  0  0  0
  -22.7952  -29.3317   19.8012 H   0  0  0  0  0  0
  -25.1307  -36.2029   25.0839 H   0  0  0  0  0  0
  -21.0033  -28.3421   24.1336 H   0  0  0  0  0  0
  -20.5863  -26.2406   23.3608 H   0  0  0  0  0  0
  -21.6710  -26.7615   22.1135 H   0  0  0  0  0  0
  -19.7039  -25.6337   21.1277 H   0  0  0  0  0  0
  -19.6785  -27.3202   20.6724 H   0  0  0  0  0  0
  -17.4288  -26.6757   21.3936 H   0  0  0  0  0  0
  -18.0350  -26.0085   22.8949 H   0  0  0  0  0  0
  -19.7975  -30.7227   24.2384 H   0  0  0  0  0  0
  -17.5093  -31.6330   24.5129 H   0  0  0  0  0  0
  -15.5402  -30.3091   23.7638 H   0  0  0  0  0  0
  -15.8669  -28.0826   22.7213 H   0  0  0  0  0  0
  -24.5878  -30.7249   25.7641 H   0  0  0  0  0  0
  -24.8896  -32.3041   26.4766 H   0  0  0  0  0  0
  -25.7883  -30.8984   27.0252 H   0  0  0  0  0  0
  -26.3117  -29.6697   24.1453 H   0  0  0  0  0  0
  -27.4102  -29.7380   25.5014 H   0  0  0  0  0  0
  -27.9019  -30.4285   23.9790 H   0  0  0  0  0  0
  -27.2955  -33.3641   26.2132 H   0  0  0  0  0  0
  -28.3986  -32.6805   25.0268 H   0  0  0  0  0  0
  -28.0910  -31.8367   26.5361 H   0  0  0  0  0  0
  -28.2674  -38.0093   24.7639 H   0  0  0  0  0  0
  -28.1123  -36.2625   24.6228 H   0  0  0  0  0  0
  -27.2327  -37.1320   25.8899 H   0  0  0  0  0  0
  -20.9472  -29.8804   21.6702 H   0  0  0  0  0  0
  -26.0250  -38.2911   24.1500 H   0  0  0  0  0  0
  -29.1515  -23.9729   22.7962 H   0  0  0  0  0  0
  -26.5928  -20.5805   23.4103 H   0  0  0  0  0  0
  -28.8647  -23.8085   25.7742 H   0  0  0  0  0  0
  -30.3117  -23.1546   24.9505 H   0  0  0  0  0  0
  -29.7656  -22.4983   26.4722 H   0  0  0  0  0  0
  -28.6281  -19.6308   24.6443 H   0  0  0  0  0  0
  -29.4237  -20.2742   26.0584 H   0  0  0  0  0  0
  -30.2013  -20.4186   24.4979 H   0  0  0  0  0  0
  -27.4498  -24.1438   18.0578 H   0  0  0  0  0  0
  -25.8610  -24.2629   18.7896 H   0  0  0  0  0  0
  -26.6920  -22.8248   18.9049 H   0  0  0  0  0  0
  -29.9054  -20.6989   21.2871 H   0  0  0  0  0  0
  -29.5677  -20.7218   19.6066 H   0  0  0  0  0  0
  -28.6331  -18.5642   19.5120 H   0  0  0  0  0  0
  -28.0494  -18.5705   21.1381 H   0  0  0  0  0  0
  -30.1108  -17.6399   22.0610 H   0  0  0  0  0  0
  -31.0194  -17.7783   20.6100 H   0  0  0  0  0  0
  -27.6350  -21.7915   25.3525 H   0  0  0  0  0  0
  -26.6293  -24.4037   20.9334 H   0  0  0  0  0  0
  -28.7639  -15.7755   20.8902 H   0  0  0  0  0  0
  1 25  1  0  0  0
  1 30  2  0  0  0
  1 85  1  0  0  0
  2  3  1  0  0  0
  2 25  1  0  0  0
  2 86  1  0  0  0
  2 87  1  0  0  0
  3  4  1  0  0  0
  3 88  1  0  0  0
  3 89  1  0  0  0
  4  5  1  0  0  0
  4 90  1  0  0  0
  4 91  1  0  0  0
  5  6  1  0  0  0
  5 26  1  0  0  0
  5 92  1  0  0  0
  6 25  1  0  0  0
  6 93  1  0  0  0
  6 94  1  0  0  0
  7  8  2  0  0  0
  7 26  1  0  0  0
  7 29  1  0  0  0
  8  9  1  0  0  0
  8 22  1  0  0  0
  9 10  1  0  0  0
  9 27  2  0  0  0
 10 11  2  0  0  0
 10 15  1  0  0  0
 11 12  1  0  0  0
 11 95  1  0  0  0
 12 13  2  0  0  0
 12 96  1  0  0  0
 13 14  1  0  0  0
 13 31  1  0  0  0
 14 15  2  0  0  0
 14 97  1  0  0  0
 15 98  1  0  0  0
 16 17  2  0  0  0
 16 21  1  0  0  0
 16 31  1  0  0  0
 17 18  1  0  0  0
 17 99  1  0  0  0
 18 19  2  0  0  0
 18100  1  0  0  0
 19 20  1  0  0  0
 19 24  1  0  0  0
 20 21  2  0  0  0
 20101  1  0  0  0
 21 23  1  0  0  0
 22 28  1  0  0  0
 22 32  2  0  0  0
 26 27  1  0  0  0
 28102  1  0  0  0
 28103  1  0  0  0
 29104  1  0  0  0
 29105  1  0  0  0
 33 34  1  0  0  0
 33 66  1  0  0  0
 33 70  2  0  0  0
 34 36  1  0  0  0
 34 59  1  0  0  0
 34106  1  0  0  0
 35 44  2  0  0  0
 35 45  1  0  0  0
 35 68  1  0  0  0
 36 56  1  0  0  0
 36107  1  0  0  0
 37 39  1  0  0  0
 37 47  1  0  0  0
 37 66  1  0  0  0
 37108  1  0  0  0
 38 43  2  0  0  0
 38 46  1  0  0  0
 38 47  1  0  0  0
 39 64  1  0  0  0
 39 67  2  0  0  0
 40 52  1  0  0  0
 40 53  2  0  0  0
 40 58  1  0  0  0
 41109  1  0  0  0
 41110  1  0  0  0
 41111  1  0  0  0
 41 48  1  0  0  0
 42 43  1  0  0  0
 42 66  1  0  0  0
 42112  1  0  0  0
 42113  1  0  0  0
 43 44  1  0  0  0
 44114  1  0  0  0
 45 46  2  0  0  0
 45115  1  0  0  0
 46116  1  0  0  0
 47117  1  0  0  0
 47118  1  0  0  0
 48 56  1  0  0  0
 48 65  1  0  0  0
 48119  1  0  0  0
 49 50  1  0  0  0
 49 53  1  0  0  0
 49 64  1  0  0  0
 49120  1  0  0  0
 50 51  1  0  0  0
 50121  1  0  0  0
 50122  1  0  0  0
 51 52  1  0  0  0
 51123  1  0  0  0
 51124  1  0  0  0
 52125  1  0  0  0
 52126  1  0  0  0
 53 54  1  0  0  0
 54 55  2  0  0  0
 54127  1  0  0  0
 55 57  1  0  0  0
 55128  1  0  0  0
 56 69  2  0  0  0
 57 58  2  0  0  0
 57129  1  0  0  0
 58130  1  0  0  0
 59 60  1  0  0  0
 59 61  1  0  0  0
 59 62  1  0  0  0
 60131  1  0  0  0
 60132  1  0  0  0
 60133  1  0  0  0
 61134  1  0  0  0
 61135  1  0  0  0
 61136  1  0  0  0
 62137  1  0  0  0
 62138  1  0  0  0
 62139  1  0  0  0
 63 65  1  0  0  0
 63140  1  0  0  0
 63141  1  0  0  0
 63142  1  0  0  0
 64143  1  0  0  0
 65144  1  0  0  0
 68 83  1  0  0  0
 71 73  2  0  0  0
 71 74  1  0  0  0
 71145  1  0  0  0
 72 73  1  0  0  0
 72 84  2  0  0  0
 72146  1  0  0  0
 73 82  1  0  0  0
 74 75  2  0  0  0
 74 83  1  0  0  0
 75 79  1  0  0  0
 75 84  1  0  0  0
 76147  1  0  0  0
 76148  1  0  0  0
 76149  1  0  0  0
 76 82  1  0  0  0
 77 82  1  0  0  0
 77150  1  0  0  0
 77151  1  0  0  0
 77152  1  0  0  0
 78153  1  0  0  0
 78154  1  0  0  0
 78155  1  0  0  0
 78 83  1  0  0  0
 79 80  1  0  0  0
 79156  1  0  0  0
 79157  1  0  0  0
 80 81  1  0  0  0
 80158  1  0  0  0
 80159  1  0  0  0
 81 85  1  0  0  0
 81160  1  0  0  0
 81161  1  0  0  0
 82162  1  0  0  0
 83163  1  0  0  0
 85164  1  0  0  0
M  ISO  4   1 100  68 101  83 101  85 100
M  END
> <chiral flag>
0

> <version>
0

> <s_m_source_file>
/data/baiqing/PycharmProjects/Reinvent-master-3.2/result/LINK_invent/BTK/process_docking_weight1_custom_sum_contain_oxygen_bond_distance_aromatic_linkinvent_7_9_3/rearranged_h_0087.sdf

> <i_m_source_file_index>
67

> <r_mmod_Potential_Energy-OPLS-2005>
815.069030761719

> <r_mmod_Stretch_Energy-OPLS-2005>
322.483795166016

> <r_mmod_Bend_Energy-OPLS-2005>
311.080657958984

> <r_mmod_Torsional_Energy-OPLS-2005>
452.944915771484

> <r_mmod_Improper_Torsional_Energy-OPLS-2005>
30.4089984893799

> <r_mmod_Van_der_Waal_Energy-OPLS-2005>
160.019088745117

> <r_mmod_Electrostatic_Energy-OPLS-2005>
-498.038146972656

> <r_mmod_Solvation_Energy-OPLS-2005>
-216.681533813477

> <b_mmod_Minimization_Converged-OPLS-2005>
0

> <r_mmod_RMS_Derivative-OPLS-2005>
30.2728672027588

$$$$
68
                    3D
 Structure written by MMmdl.
173181  0  0  1  0            999 V2000
  -30.6225  -14.6963   20.4833 C   0  0  0  0  0  0
  -30.4307  -12.4295   19.4593 C   0  0  0  0  0  0
  -29.5056  -12.5108   18.2260 C   0  0  0  0  0  0
  -28.0290  -12.3471   18.6379 C   0  0  0  0  0  0
  -27.6452  -13.2304   19.8546 C   0  0  2  0  0  0
  -28.6928  -13.1286   20.9851 C   0  0  0  0  0  0
  -25.2522  -13.8185   20.5692 C   0  0  0  0  0  0
  -24.1818  -13.0427   20.9243 C   0  0  0  0  0  0
  -24.6413  -11.6914   20.8785 C   0  0  0  0  0  0
  -23.9083  -10.4286   21.0428 C   0  0  0  0  0  0
  -24.3625   -9.4194   21.9196 C   0  0  0  0  0  0
  -23.6295   -8.2229   22.0751 C   0  0  0  0  0  0
  -22.4278   -8.0276   21.3538 C   0  0  0  0  0  0
  -21.9922   -9.0255   20.4645 C   0  0  0  0  0  0
  -22.7258  -10.2135   20.3065 C   0  0  0  0  0  0
  -21.6844   -6.0752   22.5280 C   0  0  0  0  0  0
  -21.4014   -6.5653   23.8220 C   0  0  0  0  0  0
  -21.3663   -5.6799   24.9175 C   0  0  0  0  0  0
  -21.6043   -4.3060   24.7220 C   0  0  0  0  0  0
  -21.8818   -3.8159   23.4336 C   0  0  0  0  0  0
  -21.9189   -4.6979   22.3398 C   0  0  0  0  0  0
  -22.7841  -13.5213   21.1890 C   0  0  0  0  0  0
  -22.1655   -4.2178   21.0971 F   0  0  0  0  0  0
  -21.5626   -3.4534   25.7725 F   0  0  0  0  0  0
  -29.9975  -13.4764   20.4078 N   0  0  0  0  0  0
  -26.2957  -12.9394   20.3301 N   0  0  0  0  0  0
  -25.9344  -11.6540   20.5779 N   0  0  0  0  0  0
  -22.0471  -12.8211   22.0449 N   0  0  0  0  0  0
  -25.4176  -15.1898   20.4033 N   0  0  0  0  0  0
  -31.8064  -14.8201   20.1559 O   0  0  0  0  0  0
  -21.6627   -6.8885   21.4238 O   0  0  0  0  0  0
  -22.3525  -14.5500   20.6707 O   0  0  0  0  0  0
  -24.6292  -31.8566   23.1991 C   0  0  0  0  0  0
  -25.9122  -32.4769   23.8333 C   0  0  1  0  0  0
  -27.2214  -27.2840   20.1364 C   0  0  0  0  0  0
  -25.5930  -33.8573   24.2272 N   0  0  0  0  0  0
  -23.4243  -30.4785   21.5418 C   0  0  2  0  0  0
  -24.8731  -28.9235   20.1123 C   0  0  0  0  0  0
  -22.7480  -29.4609   22.4924 C   0  0  0  0  0  0
  -18.0310  -28.1356   22.8497 C   0  0  0  0  0  0
  -24.1490  -36.7283   23.2641 C   0  0  0  0  0  0
  -25.9676  -30.7778   21.3725 C   0  0  0  0  0  0
  -26.0431  -29.4006   20.7186 C   0  0  0  0  0  0
  -27.2246  -28.5946   20.7159 C   0  0  0  0  0  0
  -26.0353  -26.8672   19.5011 C   0  0  0  0  0  0
  -24.8729  -27.6641   19.4913 C   0  0  0  0  0  0
  -23.6419  -29.8088   20.1587 C   0  0  0  0  0  0
  -25.4116  -36.3083   24.0334 C   0  0  1  0  0  0
  -20.5909  -28.3687   23.1302 C   0  0  2  0  0  0
  -20.6815  -26.9401   22.5436 C   0  0  0  0  0  0
  -19.5788  -26.6367   21.5238 C   0  0  0  0  0  0
  -18.1966  -26.7894   22.1650 C   0  0  0  0  0  0
  -19.1554  -28.8840   23.2888 C   0  0  0  0  0  0
  -18.9453  -30.1446   23.8892 C   0  0  0  0  0  0
  -17.6447  -30.6565   24.0563 C   0  0  0  0  0  0
  -25.9049  -34.9453   23.5098 C   0  0  0  0  0  0
  -16.5351  -29.9051   23.6326 C   0  0  0  0  0  0
  -16.7292  -28.6473   23.0351 C   0  0  0  0  0  0
  -26.4496  -31.6577   25.0705 C   0  0  0  0  0  0
  -25.3712  -31.3711   26.1415 C   0  0  0  0  0  0
  -27.0341  -30.3001   24.6156 C   0  0  0  0  0  0
  -27.6069  -32.4300   25.7467 C   0  0  0  0  0  0
  -27.5582  -37.1804   24.8469 C   0  0  0  0  0  0
  -21.4193  -29.3044   22.3689 N   0  0  0  0  0  0
  -26.4297  -37.3780   23.9409 N   0  0  0  0  0  0
  -24.6929  -31.0550   22.0948 N   0  0  0  0  0  0
  -23.4204  -28.8153   23.3013 O   0  0  0  0  0  0
  -28.3212  -26.4073   20.1432 O   0  0  0  0  0  0
  -26.5628  -34.8924   22.4671 O   0  0  0  0  0  0
  -23.5448  -32.1387   23.7302 O   0  0  0  0  0  0
  -29.0299  -21.0002   20.3567 C   0  0  0  0  0  0
  -28.4397  -22.3774   22.2133 C   0  0  0  0  0  0
  -28.7599  -22.3388   20.8546 C   0  0  0  0  0  0
  -28.9480  -19.7916   21.1705 C   0  0  0  0  0  0
  -28.6158  -20.0355   22.5517 C   0  0  0  0  0  0
  -28.6736  -18.3335   19.0226 C   0  0  0  0  0  0
  -28.1336  -23.4997   18.6632 C   0  0  0  0  0  0
  -30.2958  -24.0484   19.7954 C   0  0  0  0  0  0
  -28.9202  -19.5242   25.0354 C   0  0  0  0  0  0
  -28.7837  -17.5695   23.5921 C   0  0  0  0  0  0
  -26.7517  -18.9582   23.8665 C   0  0  0  0  0  0
  -30.1979  -17.2806   20.7468 C   0  0  0  0  0  0
  -28.1384  -25.0294   20.7012 C   0  0  0  0  0  0
  -28.9807  -18.3190   20.5300 C   0  0  1  0  0  0
  -28.8152  -23.7120   20.0282 C   0  0  0  0  0  0
  -28.2848  -19.0255   23.7055 C   0  0  0  0  0  0
  -28.3759  -21.2935   22.9963 N   0  0  0  0  0  0
  -29.8390  -15.8005   20.7361 N   0  0  0  0  0  0
  -31.4719  -12.5508   19.1572 H   0  0  0  0  0  0
  -30.3644  -11.4449   19.9236 H   0  0  0  0  0  0
  -29.7788  -11.7409   17.5039 H   0  0  0  0  0  0
  -29.6463  -13.4680   17.7208 H   0  0  0  0  0  0
  -27.8754  -11.2957   18.8816 H   0  0  0  0  0  0
  -27.3721  -12.5631   17.7941 H   0  0  0  0  0  0
  -27.6463  -14.2602   19.4947 H   0  0  0  0  0  0
  -28.7203  -12.1179   21.3958 H   0  0  0  0  0  0
  -28.4388  -13.7894   21.8157 H   0  0  0  0  0  0
  -25.2767   -9.5678   22.4777 H   0  0  0  0  0  0
  -24.0016   -7.4619   22.7461 H   0  0  0  0  0  0
  -21.0858   -8.8771   19.8943 H   0  0  0  0  0  0
  -22.3710  -10.9678   19.6179 H   0  0  0  0  0  0
  -21.2003   -7.6162   23.9738 H   0  0  0  0  0  0
  -21.1490   -6.0521   25.9089 H   0  0  0  0  0  0
  -22.0598   -2.7627   23.2815 H   0  0  0  0  0  0
  -22.4068  -11.9877   22.4855 H   0  0  0  0  0  0
  -21.1083  -13.1252   22.2626 H   0  0  0  0  0  0
  -24.6326  -15.8276   20.4784 H   0  0  0  0  0  0
  -26.2378  -15.6213   19.9996 H   0  0  0  0  0  0
  -26.7195  -32.5425   23.1088 H   0  0  0  0  0  0
  -25.0101  -33.9720   25.0430 H   0  0  0  0  0  0
  -22.7200  -31.3007   21.3948 H   0  0  0  0  0  0
  -23.3758  -35.9609   23.3303 H   0  0  0  0  0  0
  -24.3587  -36.8890   22.2055 H   0  0  0  0  0  0
  -23.7237  -37.6485   23.6652 H   0  0  0  0  0  0
  -26.1008  -31.5388   20.6017 H   0  0  0  0  0  0
  -26.8471  -30.8302   22.0026 H   0  0  0  0  0  0
  -28.1236  -28.9612   21.1909 H   0  0  0  0  0  0
  -26.0019  -25.9038   19.0126 H   0  0  0  0  0  0
  -23.9804  -27.2943   19.0056 H   0  0  0  0  0  0
  -23.7648  -30.5820   19.4001 H   0  0  0  0  0  0
  -22.7598  -29.2402   19.8584 H   0  0  0  0  0  0
  -25.1304  -36.1940   25.0831 H   0  0  0  0  0  0
  -21.0000  -28.3249   24.1422 H   0  0  0  0  0  0
  -20.5707  -26.2281   23.3635 H   0  0  0  0  0  0
  -21.6695  -26.7403   22.1265 H   0  0  0  0  0  0
  -19.6702  -27.3185   20.6779 H   0  0  0  0  0  0
  -19.6935  -25.6267   21.1291 H   0  0  0  0  0  0
  -17.4235  -26.6608   21.4058 H   0  0  0  0  0  0
  -18.0373  -26.0054   22.9068 H   0  0  0  0  0  0
  -19.7914  -30.7317   24.2224 H   0  0  0  0  0  0
  -17.4972  -31.6255   24.5130 H   0  0  0  0  0  0
  -15.5345  -30.2947   23.7619 H   0  0  0  0  0  0
  -15.8702  -28.0779   22.7065 H   0  0  0  0  0  0
  -24.5917  -30.7033   25.7729 H   0  0  0  0  0  0
  -24.8867  -32.2870   26.4806 H   0  0  0  0  0  0
  -25.8020  -30.8913   27.0208 H   0  0  0  0  0  0
  -26.2922  -29.6740   24.1183 H   0  0  0  0  0  0
  -27.4048  -29.7273   25.4664 H   0  0  0  0  0  0
  -27.8782  -30.4288   23.9376 H   0  0  0  0  0  0
  -27.2710  -33.3620   26.2021 H   0  0  0  0  0  0
  -28.3885  -32.6809   25.0285 H   0  0  0  0  0  0
  -28.0721  -31.8422   26.5387 H   0  0  0  0  0  0
  -28.2613  -38.0093   24.7527 H   0  0  0  0  0  0
  -28.1069  -36.2627   24.6290 H   0  0  0  0  0  0
  -27.2301  -37.1455   25.8873 H   0  0  0  0  0  0
  -20.9352  -29.8796   21.6939 H   0  0  0  0  0  0
  -26.0172  -38.2857   24.1392 H   0  0  0  0  0  0
  -29.2609  -20.8989   19.3089 H   0  0  0  0  0  0
  -28.2052  -23.2992   22.7207 H   0  0  0  0  0  0
  -28.5977  -17.3184   18.6278 H   0  0  0  0  0  0
  -29.4628  -18.8260   18.4552 H   0  0  0  0  0  0
  -27.7291  -18.8333   18.8071 H   0  0  0  0  0  0
  -27.0989  -23.1750   18.7757 H   0  0  0  0  0  0
  -28.6508  -22.7531   18.0594 H   0  0  0  0  0  0
  -28.1213  -24.4210   18.0812 H   0  0  0  0  0  0
  -30.8243  -23.2373   19.2951 H   0  0  0  0  0  0
  -30.8095  -24.2445   20.7368 H   0  0  0  0  0  0
  -30.4026  -24.9391   19.1768 H   0  0  0  0  0  0
  -29.9980  -19.6454   24.9274 H   0  0  0  0  0  0
  -28.7560  -18.8311   25.8594 H   0  0  0  0  0  0
  -28.5198  -20.4810   25.3706 H   0  0  0  0  0  0
  -29.8672  -17.5083   23.5427 H   0  0  0  0  0  0
  -28.3256  -17.0056   22.7883 H   0  0  0  0  0  0
  -28.5082  -17.0050   24.4840 H   0  0  0  0  0  0
  -26.3209  -19.9366   24.0814 H   0  0  0  0  0  0
  -26.4586  -18.2964   24.6809 H   0  0  0  0  0  0
  -26.2827  -18.5858   22.9555 H   0  0  0  0  0  0
  -30.7392  -17.5012   21.6619 H   0  0  0  0  0  0
  -30.9452  -17.4484   19.9686 H   0  0  0  0  0  0
  -27.0796  -24.8181   20.8538 H   0  0  0  0  0  0
  -28.5479  -25.1337   21.7061 H   0  0  0  0  0  0
  -28.0855  -17.8602   20.9403 H   0  0  0  0  0  0
  -28.8705  -15.5876   20.9200 H   0  0  0  0  0  0
  1 25  1  0  0  0
  1 30  2  0  0  0
  1 88  1  0  0  0
  2  3  1  0  0  0
  2 25  1  0  0  0
  2 89  1  0  0  0
  2 90  1  0  0  0
  3  4  1  0  0  0
  3 91  1  0  0  0
  3 92  1  0  0  0
  4  5  1  0  0  0
  4 93  1  0  0  0
  4 94  1  0  0  0
  5  6  1  0  0  0
  5 26  1  0  0  0
  5 95  1  0  0  0
  6 25  1  0  0  0
  6 96  1  0  0  0
  6 97  1  0  0  0
  7  8  2  0  0  0
  7 26  1  0  0  0
  7 29  1  0  0  0
  8  9  1  0  0  0
  8 22  1  0  0  0
  9 10  1  0  0  0
  9 27  2  0  0  0
 10 11  2  0  0  0
 10 15  1  0  0  0
 11 12  1  0  0  0
 11 98  1  0  0  0
 12 13  2  0  0  0
 12 99  1  0  0  0
 13 14  1  0  0  0
 13 31  1  0  0  0
 14 15  2  0  0  0
 14100  1  0  0  0
 15101  1  0  0  0
 16 17  2  0  0  0
 16 21  1  0  0  0
 16 31  1  0  0  0
 17 18  1  0  0  0
 17102  1  0  0  0
 18 19  2  0  0  0
 18103  1  0  0  0
 19 20  1  0  0  0
 19 24  1  0  0  0
 20 21  2  0  0  0
 20104  1  0  0  0
 21 23  1  0  0  0
 22 28  1  0  0  0
 22 32  2  0  0  0
 26 27  1  0  0  0
 28105  1  0  0  0
 28106  1  0  0  0
 29107  1  0  0  0
 29108  1  0  0  0
 33 34  1  0  0  0
 33 66  1  0  0  0
 33 70  2  0  0  0
 34 36  1  0  0  0
 34 59  1  0  0  0
 34109  1  0  0  0
 35 44  2  0  0  0
 35 45  1  0  0  0
 35 68  1  0  0  0
 36 56  1  0  0  0
 36110  1  0  0  0
 37 39  1  0  0  0
 37 47  1  0  0  0
 37 66  1  0  0  0
 37111  1  0  0  0
 38 43  2  0  0  0
 38 46  1  0  0  0
 38 47  1  0  0  0
 39 64  1  0  0  0
 39 67  2  0  0  0
 40 52  1  0  0  0
 40 53  2  0  0  0
 40 58  1  0  0  0
 41112  1  0  0  0
 41113  1  0  0  0
 41114  1  0  0  0
 41 48  1  0  0  0
 42 43  1  0  0  0
 42 66  1  0  0  0
 42115  1  0  0  0
 42116  1  0  0  0
 43 44  1  0  0  0
 44117  1  0  0  0
 45 46  2  0  0  0
 45118  1  0  0  0
 46119  1  0  0  0
 47120  1  0  0  0
 47121  1  0  0  0
 48 56  1  0  0  0
 48 65  1  0  0  0
 48122  1  0  0  0
 49 50  1  0  0  0
 49 53  1  0  0  0
 49 64  1  0  0  0
 49123  1  0  0  0
 50 51  1  0  0  0
 50124  1  0  0  0
 50125  1  0  0  0
 51 52  1  0  0  0
 51126  1  0  0  0
 51127  1  0  0  0
 52128  1  0  0  0
 52129  1  0  0  0
 53 54  1  0  0  0
 54 55  2  0  0  0
 54130  1  0  0  0
 55 57  1  0  0  0
 55131  1  0  0  0
 56 69  2  0  0  0
 57 58  2  0  0  0
 57132  1  0  0  0
 58133  1  0  0  0
 59 60  1  0  0  0
 59 61  1  0  0  0
 59 62  1  0  0  0
 60134  1  0  0  0
 60135  1  0  0  0
 60136  1  0  0  0
 61137  1  0  0  0
 61138  1  0  0  0
 61139  1  0  0  0
 62140  1  0  0  0
 62141  1  0  0  0
 62142  1  0  0  0
 63 65  1  0  0  0
 63143  1  0  0  0
 63144  1  0  0  0
 63145  1  0  0  0
 64146  1  0  0  0
 65147  1  0  0  0
 68 83  1  0  0  0
 71 73  2  0  0  0
 71 74  1  0  0  0
 71148  1  0  0  0
 72 73  1  0  0  0
 72 87  2  0  0  0
 72149  1  0  0  0
 73 85  1  0  0  0
 74 75  2  0  0  0
 74 84  1  0  0  0
 75 86  1  0  0  0
 75 87  1  0  0  0
 76150  1  0  0  0
 76151  1  0  0  0
 76152  1  0  0  0
 76 84  1  0  0  0
 77153  1  0  0  0
 77154  1  0  0  0
 77155  1  0  0  0
 77 85  1  0  0  0
 78 85  1  0  0  0
 78156  1  0  0  0
 78157  1  0  0  0
 78158  1  0  0  0
 79159  1  0  0  0
 79160  1  0  0  0
 79161  1  0  0  0
 79 86  1  0  0  0
 80 86  1  0  0  0
 80162  1  0  0  0
 80163  1  0  0  0
 80164  1  0  0  0
 81 86  1  0  0  0
 81165  1  0  0  0
 81166  1  0  0  0
 81167  1  0  0  0
 82 84  1  0  0  0
 82 88  1  0  0  0
 82168  1  0  0  0
 82169  1  0  0  0
 83 85  1  0  0  0
 83170  1  0  0  0
 83171  1  0  0  0
 84172  1  0  0  0
 88173  1  0  0  0
M  ISO  4   1 100  68 101  83 101  88 100
M  END
> <chiral flag>
0

> <version>
0

> <s_m_source_file>
/data/baiqing/PycharmProjects/Reinvent-master-3.2/result/LINK_invent/BTK/process_docking_weight1_custom_sum_contain_oxygen_bond_distance_aromatic_linkinvent_7_9_3/rearranged_h_0087.sdf

> <i_m_source_file_index>
68

> <r_mmod_Potential_Energy-OPLS-2005>
-31.2193336486816

> <r_mmod_Stretch_Energy-OPLS-2005>
126.640777587891

> <r_mmod_Bend_Energy-OPLS-2005>
198.569641113281

> <r_mmod_Torsional_Energy-OPLS-2005>
233.70166015625

> <r_mmod_Improper_Torsional_Energy-OPLS-2005>
6.37344121932983

> <r_mmod_Van_der_Waal_Energy-OPLS-2005>
153.550888061523

> <r_mmod_Electrostatic_Energy-OPLS-2005>
-614.821655273438

> <r_mmod_Solvation_Energy-OPLS-2005>
-202.608688354492

> <b_mmod_Minimization_Converged-OPLS-2005>
0

> <r_mmod_RMS_Derivative-OPLS-2005>
2.46921873092651

$$$$
69
                    3D
 Structure written by MMmdl.
183191  0  0  1  0            999 V2000
  -30.7776  -14.3049   20.7406 C   0  0  0  0  0  0
  -30.4289  -12.2454   19.4140 C   0  0  0  0  0  0
  -29.5239  -12.5447   18.2069 C   0  0  0  0  0  0
  -28.0284  -12.4303   18.5778 C   0  0  0  0  0  0
  -27.6841  -13.1906   19.8882 C   0  0  2  0  0  0
  -28.7106  -12.8579   20.9933 C   0  0  0  0  0  0
  -25.2742  -13.8088   20.5503 C   0  0  0  0  0  0
  -24.1950  -13.0393   20.9090 C   0  0  0  0  0  0
  -24.6489  -11.6894   20.8697 C   0  0  0  0  0  0
  -23.9151  -10.4290   21.0406 C   0  0  0  0  0  0
  -24.3691   -9.4207   21.9180 C   0  0  0  0  0  0
  -23.6344   -8.2255   22.0750 C   0  0  0  0  0  0
  -22.4303   -8.0303   21.3556 C   0  0  0  0  0  0
  -21.9985   -9.0271   20.4623 C   0  0  0  0  0  0
  -22.7353  -10.2138   20.3027 C   0  0  0  0  0  0
  -21.6856   -6.0772   22.5329 C   0  0  0  0  0  0
  -21.4029   -6.5678   23.8281 C   0  0  0  0  0  0
  -21.3665   -5.6819   24.9218 C   0  0  0  0  0  0
  -21.6031   -4.3083   24.7257 C   0  0  0  0  0  0
  -21.8807   -3.8185   23.4374 C   0  0  0  0  0  0
  -21.9188   -4.7006   22.3437 C   0  0  0  0  0  0
  -22.7996  -13.5230   21.1723 C   0  0  0  0  0  0
  -22.1635   -4.2188   21.0996 F   0  0  0  0  0  0
  -21.5626   -3.4569   25.7766 F   0  0  0  0  0  0
  -30.0606  -13.1734   20.4941 N   0  0  0  0  0  0
  -26.3159  -12.9216   20.3319 N   0  0  0  0  0  0
  -25.9405  -11.6395   20.5695 N   0  0  0  0  0  0
  -22.0616  -12.8202   22.0263 N   0  0  0  0  0  0
  -25.4581  -15.1760   20.3676 N   0  0  0  0  0  0
  -31.8383  -14.5513   20.1553 O   0  0  0  0  0  0
  -21.6624   -6.8936   21.4297 O   0  0  0  0  0  0
  -22.3718  -14.5546   20.6596 O   0  0  0  0  0  0
  -24.6079  -31.8690   23.2164 C   0  0  0  0  0  0
  -25.8969  -32.4825   23.8437 C   0  0  1  0  0  0
  -27.2225  -27.4818   20.0785 C   0  0  0  0  0  0
  -25.5812  -33.8635   24.2347 N   0  0  0  0  0  0
  -23.3954  -30.4926   21.5531 C   0  0  2  0  0  0
  -24.8409  -28.9717   20.1055 C   0  0  0  0  0  0
  -22.7366  -29.4607   22.4987 C   0  0  0  0  0  0
  -18.0254  -28.1362   22.8511 C   0  0  0  0  0  0
  -24.1464  -36.7310   23.2650 C   0  0  0  0  0  0
  -25.9159  -30.8533   21.3537 C   0  0  0  0  0  0
  -25.9953  -29.4887   20.7058 C   0  0  0  0  0  0
  -27.1910  -28.7454   20.6985 C   0  0  0  0  0  0
  -26.0638  -26.9659   19.4715 C   0  0  0  0  0  0
  -24.8686  -27.7058   19.4893 C   0  0  0  0  0  0
  -23.6023  -29.8353   20.1632 C   0  0  0  0  0  0
  -25.4090  -36.3115   24.0350 C   0  0  1  0  0  0
  -20.5849  -28.3603   23.1366 C   0  0  2  0  0  0
  -20.6715  -26.9327   22.5450 C   0  0  0  0  0  0
  -19.5713  -26.6330   21.5229 C   0  0  0  0  0  0
  -18.1889  -26.7905   22.1654 C   0  0  0  0  0  0
  -19.1490  -28.8802   23.2953 C   0  0  0  0  0  0
  -18.9425  -30.1431   23.8939 C   0  0  0  0  0  0
  -17.6424  -30.6577   24.0545 C   0  0  0  0  0  0
  -25.8992  -34.9478   23.5130 C   0  0  0  0  0  0
  -16.5320  -29.9073   23.6338 C   0  0  0  0  0  0
  -16.7239  -28.6495   23.0356 C   0  0  0  0  0  0
  -26.4444  -31.6583   25.0713 C   0  0  0  0  0  0
  -25.3745  -31.3620   26.1475 C   0  0  0  0  0  0
  -27.0274  -30.3067   24.5942 C   0  0  0  0  0  0
  -27.6014  -32.4320   25.7483 C   0  0  0  0  0  0
  -27.5557  -37.1811   24.8483 C   0  0  0  0  0  0
  -21.4087  -29.2984   22.3748 N   0  0  0  0  0  0
  -26.4280  -37.3789   23.9417 N   0  0  0  0  0  0
  -24.6591  -31.0852   22.1023 N   0  0  0  0  0  0
  -23.4158  -28.8094   23.2964 O   0  0  0  0  0  0
  -28.3707  -26.7422   20.0702 O   0  0  0  0  0  0
  -26.5572  -34.8932   22.4708 O   0  0  0  0  0  0
  -23.5277  -32.1422   23.7548 O   0  0  0  0  0  0
  -28.1088  -23.3027   24.2353 C   0  0  0  0  0  0
  -26.9780  -23.5704   23.4394 C   0  0  0  0  0  0
  -28.5933  -21.9854   24.2859 C   0  0  0  0  0  0
  -26.2011  -22.4872   22.9756 C   0  0  0  0  0  0
  -27.8655  -20.9912   23.5921 C   0  0  0  0  0  0
  -24.9048  -22.6697   22.2061 C   0  0  0  0  0  0
  -29.7894  -21.2749   26.4052 C   0  0  0  0  0  0
  -31.2409  -15.8688   22.7545 C   0  0  0  0  0  0
  -28.9436  -21.0761   20.9271 C   0  0  0  0  0  0
  -30.6807  -19.5893   21.7865 C   0  0  0  0  0  0
  -29.9417  -21.7183   24.9451 C   0  0  0  0  0  0
  -26.8879  -24.9525   22.8219 C   0  0  0  0  0  0
  -28.5024  -19.6856   23.1339 C   0  0  0  0  0  0
  -27.8505  -24.9340   21.5976 C   0  0  0  0  0  0
  -29.7900  -16.5610   20.7779 C   0  0  0  0  0  0
  -28.4989  -18.6593   20.7856 C   0  0  0  0  0  0
  -28.6895  -26.1949   21.3416 C   0  0  0  0  0  0
  -30.2252  -15.4004   21.6825 C   0  0  1  0  0  0
  -29.1438  -19.7417   21.6922 C   0  0  0  0  0  0
  -26.6388  -21.2173   23.0743 N   0  0  0  0  0  0
  -28.6300  -17.2925   21.3144 N   0  3  0  0  0  0
  -31.4797  -12.3222   19.1350 H   0  0  0  0  0  0
  -30.2904  -11.2099   19.7298 H   0  0  0  0  0  0
  -29.7646  -11.8584   17.3956 H   0  0  0  0  0  0
  -29.7453  -13.5481   17.8378 H   0  0  0  0  0  0
  -27.7821  -11.3730   18.6805 H   0  0  0  0  0  0
  -27.4200  -12.8047   17.7548 H   0  0  0  0  0  0
  -27.7687  -14.2553   19.6742 H   0  0  0  0  0  0
  -28.6642  -11.7934   21.2292 H   0  0  0  0  0  0
  -28.4414  -13.3211   21.9349 H   0  0  0  0  0  0
  -25.2851   -9.5647   22.4756 H   0  0  0  0  0  0
  -24.0053   -7.4654   22.7484 H   0  0  0  0  0  0
  -21.0916   -8.8820   19.8914 H   0  0  0  0  0  0
  -22.3867  -10.9658   19.6115 H   0  0  0  0  0  0
  -21.2025   -7.6189   23.9804 H   0  0  0  0  0  0
  -21.1485   -6.0536   25.9136 H   0  0  0  0  0  0
  -22.0569   -2.7647   23.2870 H   0  0  0  0  0  0
  -22.4269  -11.9930   22.4721 H   0  0  0  0  0  0
  -21.1214  -13.1178   22.2379 H   0  0  0  0  0  0
  -24.6116  -15.7183   20.2301 H   0  0  0  0  0  0
  -26.1780  -15.4490   19.7115 H   0  0  0  0  0  0
  -26.7001  -32.5596   23.1192 H   0  0  0  0  0  0
  -24.9961  -33.9864   25.0479 H   0  0  0  0  0  0
  -22.6764  -31.3016   21.4154 H   0  0  0  0  0  0
  -23.3718  -35.9636   23.3304 H   0  0  0  0  0  0
  -24.3525  -36.8973   22.2056 H   0  0  0  0  0  0
  -23.7227  -37.6508   23.6683 H   0  0  0  0  0  0
  -25.9978  -31.6111   20.5733 H   0  0  0  0  0  0
  -26.8196  -30.9256   21.9459 H   0  0  0  0  0  0
  -28.0912  -29.1291   21.1567 H   0  0  0  0  0  0
  -26.0785  -25.9974   18.9894 H   0  0  0  0  0  0
  -23.9811  -27.2870   19.0322 H   0  0  0  0  0  0
  -23.6860  -30.6121   19.3996 H   0  0  0  0  0  0
  -22.7288  -29.2454   19.8884 H   0  0  0  0  0  0
  -25.1275  -36.1936   25.0840 H   0  0  0  0  0  0
  -21.0010  -28.3081   24.1466 H   0  0  0  0  0  0
  -20.5529  -26.2198   23.3621 H   0  0  0  0  0  0
  -21.6584  -26.7309   22.1263 H   0  0  0  0  0  0
  -19.6827  -25.6235   21.1253 H   0  0  0  0  0  0
  -19.6627  -27.3146   20.6759 H   0  0  0  0  0  0
  -17.4123  -26.6620   21.4069 H   0  0  0  0  0  0
  -18.0270  -26.0103   22.9120 H   0  0  0  0  0  0
  -19.7892  -30.7236   24.2287 H   0  0  0  0  0  0
  -17.4977  -31.6297   24.5079 H   0  0  0  0  0  0
  -15.5313  -30.2963   23.7681 H   0  0  0  0  0  0
  -15.8652  -28.0834   22.7071 H   0  0  0  0  0  0
  -24.6026  -30.6829   25.7840 H   0  0  0  0  0  0
  -24.8782  -32.2728   26.4839 H   0  0  0  0  0  0
  -25.8170  -30.8902   27.0262 H   0  0  0  0  0  0
  -26.2815  -29.6853   24.0963 H   0  0  0  0  0  0
  -27.4127  -29.7226   25.4306 H   0  0  0  0  0  0
  -27.8591  -30.4474   23.9031 H   0  0  0  0  0  0
  -27.2672  -33.3741   26.1852 H   0  0  0  0  0  0
  -28.3930  -32.6681   25.0359 H   0  0  0  0  0  0
  -28.0495  -31.8520   26.5553 H   0  0  0  0  0  0
  -28.2565  -38.0121   24.7535 H   0  0  0  0  0  0
  -28.1055  -36.2632   24.6289 H   0  0  0  0  0  0
  -27.2266  -37.1501   25.8895 H   0  0  0  0  0  0
  -20.9100  -29.8822   21.7168 H   0  0  0  0  0  0
  -26.0129  -38.2840   24.1453 H   0  0  0  0  0  0
  -28.7008  -24.1198   24.6266 H   0  0  0  0  0  0
  -24.2626  -23.3896   22.7126 H   0  0  0  0  0  0
  -24.3444  -21.7343   22.1490 H   0  0  0  0  0  0
  -25.0944  -23.0054   21.1885 H   0  0  0  0  0  0
  -30.7600  -21.0848   26.8651 H   0  0  0  0  0  0
  -29.2255  -20.3472   26.4766 H   0  0  0  0  0  0
  -29.2824  -22.0338   27.0051 H   0  0  0  0  0  0
  -30.8236  -16.6676   23.3699 H   0  0  0  0  0  0
  -32.1659  -16.2495   22.3197 H   0  0  0  0  0  0
  -31.4978  -15.0650   23.4470 H   0  0  0  0  0  0
  -29.3175  -21.9340   21.4831 H   0  0  0  0  0  0
  -27.9011  -21.2760   20.6832 H   0  0  0  0  0  0
  -29.4848  -21.0712   19.9800 H   0  0  0  0  0  0
  -31.1370  -20.4760   22.2266 H   0  0  0  0  0  0
  -31.1352  -19.4739   20.8002 H   0  0  0  0  0  0
  -30.9883  -18.7474   22.4039 H   0  0  0  0  0  0
  -30.5464  -22.6237   24.8949 H   0  0  0  0  0  0
  -30.5121  -20.9740   24.3926 H   0  0  0  0  0  0
  -27.1732  -25.7012   23.5621 H   0  0  0  0  0  0
  -25.8763  -25.2317   22.5333 H   0  0  0  0  0  0
  -27.7242  -18.9238   23.1678 H   0  0  0  0  0  0
  -29.2234  -19.3263   23.8714 H   0  0  0  0  0  0
  -27.3290  -24.5998   20.7006 H   0  0  0  0  0  0
  -28.5996  -24.1558   21.7436 H   0  0  0  0  0  0
  -29.4957  -16.2179   19.7839 H   0  0  0  0  0  0
  -30.6449  -17.2166   20.6206 H   0  0  0  0  0  0
  -28.9204  -18.6981   19.7787 H   0  0  0  0  0  0
  -27.4320  -18.8633   20.6638 H   0  0  0  0  0  0
  -28.5808  -26.9054   22.1586 H   0  0  0  0  0  0
  -29.7509  -25.9299   21.3122 H   0  0  0  0  0  0
  -29.3706  -15.0514   22.2475 H   0  0  0  0  0  0
  -28.6705  -17.3325   22.3183 H   0  0  0  0  0  0
  -27.7897  -16.7968   21.0537 H   0  0  0  0  0  0
  1 25  1  0  0  0
  1 30  2  0  0  0
  1 88  1  0  0  0
  2  3  1  0  0  0
  2 25  1  0  0  0
  2 92  1  0  0  0
  2 93  1  0  0  0
  3  4  1  0  0  0
  3 94  1  0  0  0
  3 95  1  0  0  0
  4  5  1  0  0  0
  4 96  1  0  0  0
  4 97  1  0  0  0
  5  6  1  0  0  0
  5 26  1  0  0  0
  5 98  1  0  0  0
  6 25  1  0  0  0
  6 99  1  0  0  0
  6100  1  0  0  0
  7  8  2  0  0  0
  7 26  1  0  0  0
  7 29  1  0  0  0
  8  9  1  0  0  0
  8 22  1  0  0  0
  9 10  1  0  0  0
  9 27  2  0  0  0
 10 11  2  0  0  0
 10 15  1  0  0  0
 11 12  1  0  0  0
 11101  1  0  0  0
 12 13  2  0  0  0
 12102  1  0  0  0
 13 14  1  0  0  0
 13 31  1  0  0  0
 14 15  2  0  0  0
 14103  1  0  0  0
 15104  1  0  0  0
 16 17  2  0  0  0
 16 21  1  0  0  0
 16 31  1  0  0  0
 17 18  1  0  0  0
 17105  1  0  0  0
 18 19  2  0  0  0
 18106  1  0  0  0
 19 20  1  0  0  0
 19 24  1  0  0  0
 20 21  2  0  0  0
 20107  1  0  0  0
 21 23  1  0  0  0
 22 28  1  0  0  0
 22 32  2  0  0  0
 26 27  1  0  0  0
 28108  1  0  0  0
 28109  1  0  0  0
 29110  1  0  0  0
 29111  1  0  0  0
 33 34  1  0  0  0
 33 66  1  0  0  0
 33 70  2  0  0  0
 34 36  1  0  0  0
 34 59  1  0  0  0
 34112  1  0  0  0
 35 44  2  0  0  0
 35 45  1  0  0  0
 35 68  1  0  0  0
 36 56  1  0  0  0
 36113  1  0  0  0
 37 39  1  0  0  0
 37 47  1  0  0  0
 37 66  1  0  0  0
 37114  1  0  0  0
 38 43  2  0  0  0
 38 46  1  0  0  0
 38 47  1  0  0  0
 39 64  1  0  0  0
 39 67  2  0  0  0
 40 52  1  0  0  0
 40 53  2  0  0  0
 40 58  1  0  0  0
 41115  1  0  0  0
 41116  1  0  0  0
 41117  1  0  0  0
 41 48  1  0  0  0
 42 43  1  0  0  0
 42 66  1  0  0  0
 42118  1  0  0  0
 42119  1  0  0  0
 43 44  1  0  0  0
 44120  1  0  0  0
 45 46  2  0  0  0
 45121  1  0  0  0
 46122  1  0  0  0
 47123  1  0  0  0
 47124  1  0  0  0
 48 56  1  0  0  0
 48 65  1  0  0  0
 48125  1  0  0  0
 49 50  1  0  0  0
 49 53  1  0  0  0
 49 64  1  0  0  0
 49126  1  0  0  0
 50 51  1  0  0  0
 50127  1  0  0  0
 50128  1  0  0  0
 51 52  1  0  0  0
 51129  1  0  0  0
 51130  1  0  0  0
 52131  1  0  0  0
 52132  1  0  0  0
 53 54  1  0  0  0
 54 55  2  0  0  0
 54133  1  0  0  0
 55 57  1  0  0  0
 55134  1  0  0  0
 56 69  2  0  0  0
 57 58  2  0  0  0
 57135  1  0  0  0
 58136  1  0  0  0
 59 60  1  0  0  0
 59 61  1  0  0  0
 59 62  1  0  0  0
 60137  1  0  0  0
 60138  1  0  0  0
 60139  1  0  0  0
 61140  1  0  0  0
 61141  1  0  0  0
 61142  1  0  0  0
 62143  1  0  0  0
 62144  1  0  0  0
 62145  1  0  0  0
 63 65  1  0  0  0
 63146  1  0  0  0
 63147  1  0  0  0
 63148  1  0  0  0
 64149  1  0  0  0
 65150  1  0  0  0
 68 87  1  0  0  0
 71 72  2  0  0  0
 71 73  1  0  0  0
 71151  1  0  0  0
 72 74  1  0  0  0
 72 82  1  0  0  0
 73 75  2  0  0  0
 73 81  1  0  0  0
 74 76  1  0  0  0
 74 90  2  0  0  0
 75 83  1  0  0  0
 75 90  1  0  0  0
 76152  1  0  0  0
 76153  1  0  0  0
 76154  1  0  0  0
 77 81  1  0  0  0
 77155  1  0  0  0
 77156  1  0  0  0
 77157  1  0  0  0
 78158  1  0  0  0
 78159  1  0  0  0
 78160  1  0  0  0
 78 88  1  0  0  0
 79161  1  0  0  0
 79162  1  0  0  0
 79163  1  0  0  0
 79 89  1  0  0  0
 80 89  1  0  0  0
 80164  1  0  0  0
 80165  1  0  0  0
 80166  1  0  0  0
 81167  1  0  0  0
 81168  1  0  0  0
 82 84  1  0  0  0
 82169  1  0  0  0
 82170  1  0  0  0
 83 89  1  0  0  0
 83171  1  0  0  0
 83172  1  0  0  0
 84 87  1  0  0  0
 84173  1  0  0  0
 84174  1  0  0  0
 85 88  1  0  0  0
 85 91  1  0  0  0
 85175  1  0  0  0
 85176  1  0  0  0
 86 89  1  0  0  0
 86 91  1  0  0  0
 86177  1  0  0  0
 86178  1  0  0  0
 87179  1  0  0  0
 87180  1  0  0  0
 88181  1  0  0  0
 91182  1  0  0  0
 91183  1  0  0  0
M  CHG  1  91   1
M  ISO  4   1 100  68 101  87 101  88 100
M  END
> <chiral flag>
0

> <version>
0

> <s_m_source_file>
/data/baiqing/PycharmProjects/Reinvent-master-3.2/result/LINK_invent/BTK/process_docking_weight1_custom_sum_contain_oxygen_bond_distance_aromatic_linkinvent_7_9_3/rearranged_h_0087.sdf

> <i_m_source_file_index>
69

> <r_mmod_Potential_Energy-OPLS-2005>
-207.617538452148

> <r_mmod_Stretch_Energy-OPLS-2005>
37.5892219543457

> <r_mmod_Bend_Energy-OPLS-2005>
117.738876342773

> <r_mmod_Torsional_Energy-OPLS-2005>
286.406463623047

> <r_mmod_Improper_Torsional_Energy-OPLS-2005>
12.4173650741577

> <r_mmod_Van_der_Waal_Energy-OPLS-2005>
157.49333190918

> <r_mmod_Electrostatic_Energy-OPLS-2005>
-394.880981445312

> <r_mmod_Solvation_Energy-OPLS-2005>
-436.595031738281

> <b_mmod_Minimization_Converged-OPLS-2005>
0

> <r_mmod_RMS_Derivative-OPLS-2005>
7.29409503936768

$$$$
70
                    3D
 Structure written by MMmdl.
160168  0  0  1  0            999 V2000
  -30.4955  -15.0232   20.3994 C   0  0  0  0  0  0
  -30.4470  -12.6273   19.5207 C   0  0  0  0  0  0
  -29.5359  -12.5439   18.2723 C   0  0  0  0  0  0
  -28.0669  -12.3177   18.6799 C   0  0  0  0  0  0
  -27.6285  -13.2574   19.8337 C   0  0  2  0  0  0
  -28.6643  -13.3087   20.9741 C   0  0  0  0  0  0
  -25.2461  -13.8230   20.5716 C   0  0  0  0  0  0
  -24.1783  -13.0448   20.9221 C   0  0  0  0  0  0
  -24.6413  -11.6935   20.8738 C   0  0  0  0  0  0
  -23.9096  -10.4307   21.0397 C   0  0  0  0  0  0
  -24.3644   -9.4219   21.9174 C   0  0  0  0  0  0
  -23.6320   -8.2252   22.0750 C   0  0  0  0  0  0
  -22.4296   -8.0286   21.3550 C   0  0  0  0  0  0
  -21.9940   -9.0255   20.4643 C   0  0  0  0  0  0
  -22.7265  -10.2137   20.3054 C   0  0  0  0  0  0
  -21.6860   -6.0739   22.5283 C   0  0  0  0  0  0
  -21.4010   -6.5641   23.8216 C   0  0  0  0  0  0
  -21.3661   -5.6794   24.9180 C   0  0  0  0  0  0
  -21.6048   -4.3057   24.7230 C   0  0  0  0  0  0
  -21.8822   -3.8153   23.4349 C   0  0  0  0  0  0
  -21.9195   -4.6967   22.3406 C   0  0  0  0  0  0
  -22.7798  -13.5205   21.1892 C   0  0  0  0  0  0
  -22.1666   -4.2148   21.0984 F   0  0  0  0  0  0
  -21.5639   -3.4541   25.7747 F   0  0  0  0  0  0
  -29.9416  -13.7353   20.3903 N   0  0  0  0  0  0
  -26.2890  -12.9481   20.3213 N   0  0  0  0  0  0
  -25.9347  -11.6599   20.5698 N   0  0  0  0  0  0
  -22.0472  -12.8167   22.0437 N   0  0  0  0  0  0
  -25.4154  -15.1967   20.4183 N   0  0  0  0  0  0
  -31.7050  -15.0649   20.1409 O   0  0  0  0  0  0
  -21.6647   -6.8889   21.4248 O   0  0  0  0  0  0
  -22.3462  -14.5503   20.6731 O   0  0  0  0  0  0
  -24.6484  -31.8405   23.1824 C   0  0  0  0  0  0
  -25.9235  -32.4676   23.8242 C   0  0  1  0  0  0
  -27.2178  -27.0853   20.1791 C   0  0  0  0  0  0
  -25.5968  -33.8485   24.2157 N   0  0  0  0  0  0
  -23.4549  -30.4555   21.5308 C   0  0  2  0  0  0
  -24.9045  -28.8671   20.1179 C   0  0  0  0  0  0
  -22.7590  -29.4526   22.4860 C   0  0  0  0  0  0
  -18.0321  -28.1400   22.8483 C   0  0  0  0  0  0
  -24.1495  -36.7244   23.2638 C   0  0  0  0  0  0
  -26.0131  -30.6983   21.3879 C   0  0  0  0  0  0
  -26.0836  -29.3007   20.7391 C   0  0  0  0  0  0
  -27.2430  -28.4301   20.7450 C   0  0  0  0  0  0
  -26.0166  -26.7652   19.5129 C   0  0  0  0  0  0
  -24.8857  -27.6120   19.4890 C   0  0  0  0  0  0
  -23.6846  -29.7776   20.1538 C   0  0  0  0  0  0
  -25.4132  -36.3023   24.0311 C   0  0  1  0  0  0
  -20.5932  -28.3731   23.1229 C   0  0  2  0  0  0
  -20.6799  -26.9431   22.5405 C   0  0  0  0  0  0
  -19.5768  -26.6380   21.5224 C   0  0  0  0  0  0
  -18.1952  -26.7936   22.1634 C   0  0  0  0  0  0
  -19.1578  -28.8889   23.2844 C   0  0  0  0  0  0
  -18.9484  -30.1486   23.8871 C   0  0  0  0  0  0
  -17.6477  -30.6593   24.0564 C   0  0  0  0  0  0
  -25.9093  -34.9402   23.5047 C   0  0  0  0  0  0
  -16.5373  -29.9081   23.6337 C   0  0  0  0  0  0
  -16.7306  -28.6500   23.0359 C   0  0  0  0  0  0
  -26.4528  -31.6554   25.0701 C   0  0  0  0  0  0
  -25.3690  -31.3767   26.1381 C   0  0  0  0  0  0
  -27.0391  -30.2942   24.6309 C   0  0  0  0  0  0
  -27.6053  -32.4317   25.7502 C   0  0  0  0  0  0
  -27.5579  -37.1772   24.8457 C   0  0  0  0  0  0
  -21.4281  -29.3045   22.3591 N   0  0  0  0  0  0
  -26.4281  -37.3746   23.9414 N   0  0  0  0  0  0
  -24.7259  -31.0214   22.0888 N   0  0  0  0  0  0
  -23.4205  -28.8103   23.3051 O   0  0  0  0  0  0
  -28.2771  -26.0895   20.1601 O   0  0  0  0  0  0
  -26.5681  -34.8905   22.4625 O   0  0  0  0  0  0
  -23.5589  -32.1312   23.7013 O   0  0  0  0  0  0
  -29.6856  -17.5348   19.2655 C   0  0  0  0  0  0
  -29.9499  -17.5516   21.6684 C   0  0  0  0  0  0
  -29.8693  -19.1642   19.4325 C   0  0  0  0  0  0
  -29.1241  -18.9667   21.7274 C   0  0  0  0  0  0
  -29.6647  -16.5013   20.5072 C   0  0  2  0  0  0
  -28.9789  -19.9757   20.4782 C   0  0  1  0  0  0
  -26.9155  -24.4485   21.5228 C   0  0  0  0  0  0
  -29.3515  -24.7866   21.8370 C   0  0  0  0  0  0
  -29.0876  -21.6679   20.8219 C   0  0  0  0  0  0
  -28.5773  -23.1071   20.0306 C   0  0  0  0  0  0
  -28.2511  -24.6261   20.7754 C   0  0  0  0  0  0
  -31.4808  -12.7913   19.2130 H   0  0  0  0  0  0
  -30.4501  -11.6796   20.0628 H   0  0  0  0  0  0
  -29.8682  -11.7463   17.6078 H   0  0  0  0  0  0
  -29.6184  -13.4726   17.7042 H   0  0  0  0  0  0
  -27.9685  -11.2776   18.9920 H   0  0  0  0  0  0
  -27.4108  -12.4414   17.8183 H   0  0  0  0  0  0
  -27.5861  -14.2540   19.3937 H   0  0  0  0  0  0
  -28.7589  -12.3368   21.4604 H   0  0  0  0  0  0
  -28.3522  -14.0114   21.7480 H   0  0  0  0  0  0
  -25.2803   -9.5670   22.4734 H   0  0  0  0  0  0
  -24.0032   -7.4631   22.7456 H   0  0  0  0  0  0
  -21.0885   -8.8774   19.8937 H   0  0  0  0  0  0
  -22.3744  -10.9665   19.6151 H   0  0  0  0  0  0
  -21.1986   -7.6147   23.9715 H   0  0  0  0  0  0
  -21.1488   -6.0525   25.9076 H   0  0  0  0  0  0
  -22.0598   -2.7612   23.2855 H   0  0  0  0  0  0
  -22.4135  -11.9844   22.4823 H   0  0  0  0  0  0
  -21.1071  -13.1124   22.2632 H   0  0  0  0  0  0
  -24.6560  -15.8568   20.5452 H   0  0  0  0  0  0
  -26.2732  -15.6352   20.1084 H   0  0  0  0  0  0
  -26.7307  -32.5268   23.0970 H   0  0  0  0  0  0
  -25.0090  -33.9600   25.0288 H   0  0  0  0  0  0
  -22.7603  -31.2826   21.3700 H   0  0  0  0  0  0
  -23.3780  -35.9547   23.3258 H   0  0  0  0  0  0
  -24.3589  -36.8927   22.2061 H   0  0  0  0  0  0
  -23.7216  -37.6410   23.6712 H   0  0  0  0  0  0
  -26.1711  -31.4450   20.6091 H   0  0  0  0  0  0
  -26.8817  -30.7547   22.0314 H   0  0  0  0  0  0
  -28.1471  -28.7674   21.2316 H   0  0  0  0  0  0
  -25.9406  -25.8064   19.0215 H   0  0  0  0  0  0
  -23.9885  -27.2735   18.9897 H   0  0  0  0  0  0
  -23.8293  -30.5492   19.3971 H   0  0  0  0  0  0
  -22.7971  -29.2240   19.8411 H   0  0  0  0  0  0
  -25.1315  -36.1840   25.0801 H   0  0  0  0  0  0
  -21.0031  -28.3324   24.1348 H   0  0  0  0  0  0
  -20.5703  -26.2349   23.3633 H   0  0  0  0  0  0
  -21.6659  -26.7426   22.1195 H   0  0  0  0  0  0
  -19.6926  -25.6281   21.1276 H   0  0  0  0  0  0
  -19.6702  -27.3171   20.6739 H   0  0  0  0  0  0
  -17.4219  -26.6699   21.4033 H   0  0  0  0  0  0
  -18.0336  -26.0083   22.9035 H   0  0  0  0  0  0
  -19.7960  -30.7320   24.2208 H   0  0  0  0  0  0
  -17.5030  -31.6269   24.5169 H   0  0  0  0  0  0
  -15.5370  -30.2976   23.7669 H   0  0  0  0  0  0
  -15.8710  -28.0814   22.7075 H   0  0  0  0  0  0
  -24.5873  -30.7117   25.7679 H   0  0  0  0  0  0
  -24.8874  -32.2964   26.4724 H   0  0  0  0  0  0
  -25.7949  -30.8978   27.0209 H   0  0  0  0  0  0
  -26.3007  -29.6663   24.1306 H   0  0  0  0  0  0
  -27.3972  -29.7251   25.4897 H   0  0  0  0  0  0
  -27.8937  -30.4160   23.9650 H   0  0  0  0  0  0
  -27.2643  -33.3642   26.2022 H   0  0  0  0  0  0
  -28.3907  -32.6840   25.0360 H   0  0  0  0  0  0
  -28.0679  -31.8477   26.5472 H   0  0  0  0  0  0
  -28.2556  -38.0106   24.7552 H   0  0  0  0  0  0
  -28.1118  -36.2639   24.6228 H   0  0  0  0  0  0
  -27.2308  -37.1345   25.8860 H   0  0  0  0  0  0
  -20.9512  -29.8740   21.6744 H   0  0  0  0  0  0
  -26.0148  -38.2805   24.1446 H   0  0  0  0  0  0
  -30.4530  -17.1955   18.5690 H   0  0  0  0  0  0
  -28.7504  -17.3792   18.7285 H   0  0  0  0  0  0
  -29.8064  -17.0398   22.6204 H   0  0  0  0  0  0
  -31.0152  -17.7849   21.6460 H   0  0  0  0  0  0
  -29.7186  -19.6198   18.4515 H   0  0  0  0  0  0
  -30.9164  -19.3615   19.6688 H   0  0  0  0  0  0
  -29.5600  -19.5371   22.5481 H   0  0  0  0  0  0
  -28.1138  -18.7375   22.0721 H   0  0  0  0  0  0
  -28.6247  -16.2064   20.6435 H   0  0  0  0  0  0
  -27.9579  -19.8485   20.1184 H   0  0  0  0  0  0
  -26.6952  -25.2892   22.1819 H   0  0  0  0  0  0
  -26.9273  -23.5521   22.1425 H   0  0  0  0  0  0
  -26.0822  -24.3364   20.8307 H   0  0  0  0  0  0
  -29.2218  -25.6973   22.4235 H   0  0  0  0  0  0
  -30.3388  -24.8300   21.3761 H   0  0  0  0  0  0
  -29.3572  -23.9525   22.5394 H   0  0  0  0  0  0
  -30.1324  -21.8422   21.0796 H   0  0  0  0  0  0
  -28.5786  -21.7449   21.7832 H   0  0  0  0  0  0
  -27.6843  -22.8501   19.4578 H   0  0  0  0  0  0
  -29.3285  -23.3023   19.2660 H   0  0  0  0  0  0
  1 25  1  0  0  0
  1 30  2  0  0  0
  1 75  1  0  0  0
  2  3  1  0  0  0
  2 25  1  0  0  0
  2 82  1  0  0  0
  2 83  1  0  0  0
  3  4  1  0  0  0
  3 84  1  0  0  0
  3 85  1  0  0  0
  4  5  1  0  0  0
  4 86  1  0  0  0
  4 87  1  0  0  0
  5  6  1  0  0  0
  5 26  1  0  0  0
  5 88  1  0  0  0
  6 25  1  0  0  0
  6 89  1  0  0  0
  6 90  1  0  0  0
  7  8  2  0  0  0
  7 26  1  0  0  0
  7 29  1  0  0  0
  8  9  1  0  0  0
  8 22  1  0  0  0
  9 10  1  0  0  0
  9 27  2  0  0  0
 10 11  2  0  0  0
 10 15  1  0  0  0
 11 12  1  0  0  0
 11 91  1  0  0  0
 12 13  2  0  0  0
 12 92  1  0  0  0
 13 14  1  0  0  0
 13 31  1  0  0  0
 14 15  2  0  0  0
 14 93  1  0  0  0
 15 94  1  0  0  0
 16 17  2  0  0  0
 16 21  1  0  0  0
 16 31  1  0  0  0
 17 18  1  0  0  0
 17 95  1  0  0  0
 18 19  2  0  0  0
 18 96  1  0  0  0
 19 20  1  0  0  0
 19 24  1  0  0  0
 20 21  2  0  0  0
 20 97  1  0  0  0
 21 23  1  0  0  0
 22 28  1  0  0  0
 22 32  2  0  0  0
 26 27  1  0  0  0
 28 98  1  0  0  0
 28 99  1  0  0  0
 29100  1  0  0  0
 29101  1  0  0  0
 33 34  1  0  0  0
 33 66  1  0  0  0
 33 70  2  0  0  0
 34 36  1  0  0  0
 34 59  1  0  0  0
 34102  1  0  0  0
 35 44  2  0  0  0
 35 45  1  0  0  0
 35 68  1  0  0  0
 36 56  1  0  0  0
 36103  1  0  0  0
 37 39  1  0  0  0
 37 47  1  0  0  0
 37 66  1  0  0  0
 37104  1  0  0  0
 38 43  2  0  0  0
 38 46  1  0  0  0
 38 47  1  0  0  0
 39 64  1  0  0  0
 39 67  2  0  0  0
 40 52  1  0  0  0
 40 53  2  0  0  0
 40 58  1  0  0  0
 41105  1  0  0  0
 41106  1  0  0  0
 41107  1  0  0  0
 41 48  1  0  0  0
 42 43  1  0  0  0
 42 66  1  0  0  0
 42108  1  0  0  0
 42109  1  0  0  0
 43 44  1  0  0  0
 44110  1  0  0  0
 45 46  2  0  0  0
 45111  1  0  0  0
 46112  1  0  0  0
 47113  1  0  0  0
 47114  1  0  0  0
 48 56  1  0  0  0
 48 65  1  0  0  0
 48115  1  0  0  0
 49 50  1  0  0  0
 49 53  1  0  0  0
 49 64  1  0  0  0
 49116  1  0  0  0
 50 51  1  0  0  0
 50117  1  0  0  0
 50118  1  0  0  0
 51 52  1  0  0  0
 51119  1  0  0  0
 51120  1  0  0  0
 52121  1  0  0  0
 52122  1  0  0  0
 53 54  1  0  0  0
 54 55  2  0  0  0
 54123  1  0  0  0
 55 57  1  0  0  0
 55124  1  0  0  0
 56 69  2  0  0  0
 57 58  2  0  0  0
 57125  1  0  0  0
 58126  1  0  0  0
 59 60  1  0  0  0
 59 61  1  0  0  0
 59 62  1  0  0  0
 60127  1  0  0  0
 60128  1  0  0  0
 60129  1  0  0  0
 61130  1  0  0  0
 61131  1  0  0  0
 61132  1  0  0  0
 62133  1  0  0  0
 62134  1  0  0  0
 62135  1  0  0  0
 63 65  1  0  0  0
 63136  1  0  0  0
 63137  1  0  0  0
 63138  1  0  0  0
 64139  1  0  0  0
 65140  1  0  0  0
 68 81  1  0  0  0
 71 73  1  0  0  0
 71 75  1  0  0  0
 71141  1  0  0  0
 71142  1  0  0  0
 72 74  1  0  0  0
 72 75  1  0  0  0
 72143  1  0  0  0
 72144  1  0  0  0
 73 76  1  0  0  0
 73145  1  0  0  0
 73146  1  0  0  0
 74 76  1  0  0  0
 74147  1  0  0  0
 74148  1  0  0  0
 75149  1  0  0  0
 76 79  1  0  0  0
 76150  1  0  0  0
 77151  1  0  0  0
 77152  1  0  0  0
 77153  1  0  0  0
 77 81  1  0  0  0
 78 81  1  0  0  0
 78154  1  0  0  0
 78155  1  0  0  0
 78156  1  0  0  0
 79 80  1  0  0  0
 79157  1  0  0  0
 79158  1  0  0  0
 80 81  1  0  0  0
 80159  1  0  0  0
 80160  1  0  0  0
M  ISO  4   1 100  68 101  75 100  81 101
M  END
> <chiral flag>
0

> <version>
0

> <s_m_source_file>
/data/baiqing/PycharmProjects/Reinvent-master-3.2/result/LINK_invent/BTK/process_docking_weight1_custom_sum_contain_oxygen_bond_distance_aromatic_linkinvent_7_9_3/rearranged_h_0087.sdf

> <i_m_source_file_index>
70

> <r_mmod_Potential_Energy-OPLS-2005>
825.666198730469

> <r_mmod_Stretch_Energy-OPLS-2005>
338.562713623047

> <r_mmod_Bend_Energy-OPLS-2005>
362.852294921875

> <r_mmod_Torsional_Energy-OPLS-2005>
266.487030029297

> <r_mmod_Improper_Torsional_Energy-OPLS-2005>
4.05711317062378

> <r_mmod_Van_der_Waal_Energy-OPLS-2005>
113.864364624023

> <r_mmod_Electrostatic_Energy-OPLS-2005>
-320.874267578125

> <r_mmod_Solvation_Energy-OPLS-2005>
-177.003540039062

> <b_mmod_Minimization_Converged-OPLS-2005>
0

> <r_mmod_RMS_Derivative-OPLS-2005>
2.05648279190063

$$$$
71
                    3D
 Structure written by MMmdl.
159167  0  0  1  0            999 V2000
  -30.5525  -14.9837   20.4123 C   0  0  0  0  0  0
  -30.4288  -12.6027   19.5275 C   0  0  0  0  0  0
  -29.5253  -12.5430   18.2737 C   0  0  0  0  0  0
  -28.0559  -12.3325   18.6788 C   0  0  0  0  0  0
  -27.6278  -13.2641   19.8435 C   0  0  2  0  0  0
  -28.6631  -13.3164   20.9849 C   0  0  0  0  0  0
  -25.2445  -13.8261   20.5751 C   0  0  0  0  0  0
  -24.1767  -13.0451   20.9223 C   0  0  0  0  0  0
  -24.6391  -11.6945   20.8735 C   0  0  0  0  0  0
  -23.9077  -10.4294   21.0371 C   0  0  0  0  0  0
  -24.3634   -9.4211   21.9150 C   0  0  0  0  0  0
  -23.6325   -8.2237   22.0716 C   0  0  0  0  0  0
  -22.4316   -8.0253   21.3500 C   0  0  0  0  0  0
  -21.9935   -9.0227   20.4610 C   0  0  0  0  0  0
  -22.7240  -10.2114   20.3021 C   0  0  0  0  0  0
  -21.6854   -6.0726   22.5259 C   0  0  0  0  0  0
  -21.4014   -6.5628   23.8200 C   0  0  0  0  0  0
  -21.3673   -5.6786   24.9167 C   0  0  0  0  0  0
  -21.6051   -4.3042   24.7203 C   0  0  0  0  0  0
  -21.8831   -3.8127   23.4326 C   0  0  0  0  0  0
  -21.9199   -4.6949   22.3384 C   0  0  0  0  0  0
  -22.7786  -13.5188   21.1887 C   0  0  0  0  0  0
  -22.1668   -4.2138   21.0957 F   0  0  0  0  0  0
  -21.5640   -3.4525   25.7717 F   0  0  0  0  0  0
  -29.9456  -13.7199   20.3991 N   0  0  0  0  0  0
  -26.2878  -12.9517   20.3282 N   0  0  0  0  0  0
  -25.9334  -11.6629   20.5753 N   0  0  0  0  0  0
  -22.0472  -12.8162   22.0465 N   0  0  0  0  0  0
  -25.4154  -15.1990   20.4218 N   0  0  0  0  0  0
  -31.7402  -14.9939   20.0659 O   0  0  0  0  0  0
  -21.6659   -6.8864   21.4215 O   0  0  0  0  0  0
  -22.3437  -14.5472   20.6715 O   0  0  0  0  0  0
  -24.6448  -31.8405   23.1850 C   0  0  0  0  0  0
  -25.9209  -32.4676   23.8250 C   0  0  1  0  0  0
  -27.2243  -27.1075   20.1678 C   0  0  0  0  0  0
  -25.5948  -33.8482   24.2168 N   0  0  0  0  0  0
  -23.4503  -30.4562   21.5313 C   0  0  2  0  0  0
  -24.9017  -28.8750   20.1095 C   0  0  0  0  0  0
  -22.7574  -29.4515   22.4862 C   0  0  0  0  0  0
  -18.0292  -28.1391   22.8482 C   0  0  0  0  0  0
  -24.1489  -36.7248   23.2645 C   0  0  0  0  0  0
  -26.0062  -30.7066   21.3860 C   0  0  0  0  0  0
  -26.0765  -29.3144   20.7309 C   0  0  0  0  0  0
  -27.2338  -28.4468   20.7421 C   0  0  0  0  0  0
  -26.0245  -26.7763   19.4975 C   0  0  0  0  0  0
  -24.8904  -27.6218   19.4769 C   0  0  0  0  0  0
  -23.6779  -29.7801   20.1519 C   0  0  0  0  0  0
  -25.4128  -36.3024   24.0314 C   0  0  1  0  0  0
  -20.5911  -28.3716   23.1246 C   0  0  2  0  0  0
  -20.6781  -26.9413   22.5420 C   0  0  0  0  0  0
  -19.5761  -26.6369   21.5222 C   0  0  0  0  0  0
  -18.1939  -26.7934   22.1624 C   0  0  0  0  0  0
  -19.1556  -28.8877   23.2849 C   0  0  0  0  0  0
  -18.9467  -30.1473   23.8870 C   0  0  0  0  0  0
  -17.6466  -30.6594   24.0555 C   0  0  0  0  0  0
  -25.9084  -34.9399   23.5054 C   0  0  0  0  0  0
  -16.5354  -29.9084   23.6337 C   0  0  0  0  0  0
  -16.7279  -28.6497   23.0366 C   0  0  0  0  0  0
  -26.4527  -31.6556   25.0709 C   0  0  0  0  0  0
  -25.3712  -31.3746   26.1405 C   0  0  0  0  0  0
  -27.0393  -30.2951   24.6296 C   0  0  0  0  0  0
  -27.6052  -32.4329   25.7503 C   0  0  0  0  0  0
  -27.5577  -37.1780   24.8464 C   0  0  0  0  0  0
  -21.4268  -29.3032   22.3609 N   0  0  0  0  0  0
  -26.4290  -37.3743   23.9405 N   0  0  0  0  0  0
  -24.7202  -31.0237   22.0893 N   0  0  0  0  0  0
  -23.4210  -28.8080   23.3035 O   0  0  0  0  0  0
  -28.2924  -26.1376   20.2951 O   0  0  0  0  0  0
  -26.5678  -34.8899   22.4638 O   0  0  0  0  0  0
  -23.5564  -32.1292   23.7060 O   0  0  0  0  0  0
  -29.8510  -17.6926   19.9806 C   0  0  0  0  0  0
  -29.8192  -16.4390   20.6740 C   0  0  0  0  0  0
  -26.5340  -18.9459   19.2853 C   0  0  0  0  0  0
  -27.3554  -22.9936   21.6750 C   0  0  0  0  0  0
  -29.6875  -23.7876   21.8449 C   0  0  0  0  0  0
  -27.5266  -20.1198   19.2502 C   0  0  0  0  0  0
  -29.2428  -21.7274   20.3380 C   0  0  0  0  0  0
  -28.3014  -24.6181   19.8826 C   0  0  0  0  0  0
  -28.5137  -20.2000   20.4362 C   0  0  2  0  0  0
  -28.6295  -23.2581   20.8546 C   0  0  0  0  0  0
  -29.1218  -16.8074   21.8367 N   0  0  0  0  0  0
  -28.7392  -18.0787   21.8359 N   0  0  0  0  0  0
  -29.1480  -18.7396   20.7052 N   0  0  0  0  0  0
  -31.4673  -12.7341   19.2240 H   0  0  0  0  0  0
  -30.4012  -11.6554   20.0679 H   0  0  0  0  0  0
  -29.8547  -11.7418   17.6096 H   0  0  0  0  0  0
  -29.6206  -13.4722   17.7111 H   0  0  0  0  0  0
  -27.9442  -11.2897   18.9791 H   0  0  0  0  0  0
  -27.3976  -12.4754   17.8210 H   0  0  0  0  0  0
  -27.5850  -14.2671   19.4169 H   0  0  0  0  0  0
  -28.7478  -12.3523   21.4907 H   0  0  0  0  0  0
  -28.3550  -14.0382   21.7424 H   0  0  0  0  0  0
  -25.2775   -9.5708   22.4736 H   0  0  0  0  0  0
  -24.0030   -7.4626   22.7437 H   0  0  0  0  0  0
  -21.0851   -8.8715   19.8937 H   0  0  0  0  0  0
  -22.3655  -10.9639   19.6135 H   0  0  0  0  0  0
  -21.2008   -7.6139   23.9702 H   0  0  0  0  0  0
  -21.1497   -6.0509   25.9080 H   0  0  0  0  0  0
  -22.0612   -2.7582   23.2817 H   0  0  0  0  0  0
  -22.4127  -11.9828   22.4832 H   0  0  0  0  0  0
  -21.1059  -13.1101   22.2650 H   0  0  0  0  0  0
  -24.6634  -15.8644   20.5558 H   0  0  0  0  0  0
  -26.2905  -15.6384   20.1645 H   0  0  0  0  0  0
  -26.7273  -32.5266   23.0975 H   0  0  0  0  0  0
  -25.0062  -33.9592   25.0294 H   0  0  0  0  0  0
  -22.7545  -31.2825   21.3738 H   0  0  0  0  0  0
  -23.3759  -35.9569   23.3291 H   0  0  0  0  0  0
  -24.3571  -36.8897   22.2061 H   0  0  0  0  0  0
  -23.7230  -37.6433   23.6695 H   0  0  0  0  0  0
  -26.1641  -31.4581   20.6113 H   0  0  0  0  0  0
  -26.8758  -30.7607   22.0286 H   0  0  0  0  0  0
  -28.1267  -28.7790   21.2526 H   0  0  0  0  0  0
  -25.9177  -25.8207   19.0102 H   0  0  0  0  0  0
  -23.9945  -27.2814   18.9757 H   0  0  0  0  0  0
  -23.8134  -30.5520   19.3932 H   0  0  0  0  0  0
  -22.7937  -29.2202   19.8442 H   0  0  0  0  0  0
  -25.1315  -36.1855   25.0809 H   0  0  0  0  0  0
  -20.9998  -28.3297   24.1372 H   0  0  0  0  0  0
  -20.5674  -26.2319   23.3635 H   0  0  0  0  0  0
  -21.6643  -26.7425   22.1211 H   0  0  0  0  0  0
  -19.6923  -25.6270   21.1264 H   0  0  0  0  0  0
  -19.6712  -27.3165   20.6741 H   0  0  0  0  0  0
  -17.4217  -26.6686   21.4013 H   0  0  0  0  0  0
  -18.0323  -26.0074   22.9015 H   0  0  0  0  0  0
  -19.7946  -30.7288   24.2230 H   0  0  0  0  0  0
  -17.5022  -31.6279   24.5141 H   0  0  0  0  0  0
  -15.5355  -30.2980   23.7683 H   0  0  0  0  0  0
  -15.8669  -28.0804   22.7114 H   0  0  0  0  0  0
  -24.5901  -30.7083   25.7725 H   0  0  0  0  0  0
  -24.8893  -32.2925   26.4781 H   0  0  0  0  0  0
  -25.8001  -30.8956   27.0215 H   0  0  0  0  0  0
  -26.3011  -29.6676   24.1293 H   0  0  0  0  0  0
  -27.3986  -29.7250   25.4871 H   0  0  0  0  0  0
  -27.8925  -30.4174   23.9624 H   0  0  0  0  0  0
  -27.2637  -33.3645   26.2023 H   0  0  0  0  0  0
  -28.3905  -32.6860   25.0371 H   0  0  0  0  0  0
  -28.0676  -31.8494   26.5474 H   0  0  0  0  0  0
  -28.2583  -38.0088   24.7514 H   0  0  0  0  0  0
  -28.1084  -36.2615   24.6291 H   0  0  0  0  0  0
  -27.2291  -37.1422   25.8866 H   0  0  0  0  0  0
  -20.9481  -29.8730   21.6770 H   0  0  0  0  0  0
  -26.0154  -38.2806   24.1418 H   0  0  0  0  0  0
  -30.2832  -17.9034   19.0117 H   0  0  0  0  0  0
  -25.8157  -19.0185   18.4671 H   0  0  0  0  0  0
  -25.9697  -18.9342   20.2182 H   0  0  0  0  0  0
  -27.0367  -17.9851   19.1828 H   0  0  0  0  0  0
  -27.5433  -22.2874   22.4854 H   0  0  0  0  0  0
  -26.5586  -22.5853   21.0543 H   0  0  0  0  0  0
  -26.9763  -23.9081   22.1336 H   0  0  0  0  0  0
  -29.9082  -23.0668   22.6335 H   0  0  0  0  0  0
  -29.3543  -24.7038   22.3356 H   0  0  0  0  0  0
  -30.6239  -24.0170   21.3377 H   0  0  0  0  0  0
  -26.9550  -21.0489   19.2046 H   0  0  0  0  0  0
  -28.0949  -20.0760   18.3198 H   0  0  0  0  0  0
  -29.5644  -21.8624   19.3054 H   0  0  0  0  0  0
  -30.1916  -21.5840   20.8557 H   0  0  0  0  0  0
  -27.3984  -24.3838   19.3238 H   0  0  0  0  0  0
  -29.0766  -24.5975   19.1167 H   0  0  0  0  0  0
  -27.8798  -20.3251   21.3133 H   0  0  0  0  0  0
  1 25  1  0  0  0
  1 30  2  0  0  0
  1 72  1  0  0  0
  2  3  1  0  0  0
  2 25  1  0  0  0
  2 84  1  0  0  0
  2 85  1  0  0  0
  3  4  1  0  0  0
  3 86  1  0  0  0
  3 87  1  0  0  0
  4  5  1  0  0  0
  4 88  1  0  0  0
  4 89  1  0  0  0
  5  6  1  0  0  0
  5 26  1  0  0  0
  5 90  1  0  0  0
  6 25  1  0  0  0
  6 91  1  0  0  0
  6 92  1  0  0  0
  7  8  2  0  0  0
  7 26  1  0  0  0
  7 29  1  0  0  0
  8  9  1  0  0  0
  8 22  1  0  0  0
  9 10  1  0  0  0
  9 27  2  0  0  0
 10 11  2  0  0  0
 10 15  1  0  0  0
 11 12  1  0  0  0
 11 93  1  0  0  0
 12 13  2  0  0  0
 12 94  1  0  0  0
 13 14  1  0  0  0
 13 31  1  0  0  0
 14 15  2  0  0  0
 14 95  1  0  0  0
 15 96  1  0  0  0
 16 17  2  0  0  0
 16 21  1  0  0  0
 16 31  1  0  0  0
 17 18  1  0  0  0
 17 97  1  0  0  0
 18 19  2  0  0  0
 18 98  1  0  0  0
 19 20  1  0  0  0
 19 24  1  0  0  0
 20 21  2  0  0  0
 20 99  1  0  0  0
 21 23  1  0  0  0
 22 28  1  0  0  0
 22 32  2  0  0  0
 26 27  1  0  0  0
 28100  1  0  0  0
 28101  1  0  0  0
 29102  1  0  0  0
 29103  1  0  0  0
 33 34  1  0  0  0
 33 66  1  0  0  0
 33 70  2  0  0  0
 34 36  1  0  0  0
 34 59  1  0  0  0
 34104  1  0  0  0
 35 44  2  0  0  0
 35 45  1  0  0  0
 35 68  1  0  0  0
 36 56  1  0  0  0
 36105  1  0  0  0
 37 39  1  0  0  0
 37 47  1  0  0  0
 37 66  1  0  0  0
 37106  1  0  0  0
 38 43  2  0  0  0
 38 46  1  0  0  0
 38 47  1  0  0  0
 39 64  1  0  0  0
 39 67  2  0  0  0
 40 52  1  0  0  0
 40 53  2  0  0  0
 40 58  1  0  0  0
 41107  1  0  0  0
 41108  1  0  0  0
 41109  1  0  0  0
 41 48  1  0  0  0
 42 43  1  0  0  0
 42 66  1  0  0  0
 42110  1  0  0  0
 42111  1  0  0  0
 43 44  1  0  0  0
 44112  1  0  0  0
 45 46  2  0  0  0
 45113  1  0  0  0
 46114  1  0  0  0
 47115  1  0  0  0
 47116  1  0  0  0
 48 56  1  0  0  0
 48 65  1  0  0  0
 48117  1  0  0  0
 49 50  1  0  0  0
 49 53  1  0  0  0
 49 64  1  0  0  0
 49118  1  0  0  0
 50 51  1  0  0  0
 50119  1  0  0  0
 50120  1  0  0  0
 51 52  1  0  0  0
 51121  1  0  0  0
 51122  1  0  0  0
 52123  1  0  0  0
 52124  1  0  0  0
 53 54  1  0  0  0
 54 55  2  0  0  0
 54125  1  0  0  0
 55 57  1  0  0  0
 55126  1  0  0  0
 56 69  2  0  0  0
 57 58  2  0  0  0
 57127  1  0  0  0
 58128  1  0  0  0
 59 60  1  0  0  0
 59 61  1  0  0  0
 59 62  1  0  0  0
 60129  1  0  0  0
 60130  1  0  0  0
 60131  1  0  0  0
 61132  1  0  0  0
 61133  1  0  0  0
 61134  1  0  0  0
 62135  1  0  0  0
 62136  1  0  0  0
 62137  1  0  0  0
 63 65  1  0  0  0
 63138  1  0  0  0
 63139  1  0  0  0
 63140  1  0  0  0
 64141  1  0  0  0
 65142  1  0  0  0
 68 78  1  0  0  0
 71 72  2  0  0  0
 71 83  1  0  0  0
 71143  1  0  0  0
 72 81  1  0  0  0
 73 76  1  0  0  0
 73144  1  0  0  0
 73145  1  0  0  0
 73146  1  0  0  0
 74147  1  0  0  0
 74148  1  0  0  0
 74149  1  0  0  0
 74 80  1  0  0  0
 75 80  1  0  0  0
 75150  1  0  0  0
 75151  1  0  0  0
 75152  1  0  0  0
 76153  1  0  0  0
 76154  1  0  0  0
 76 79  1  0  0  0
 77 79  1  0  0  0
 77 80  1  0  0  0
 77155  1  0  0  0
 77156  1  0  0  0
 78 80  1  0  0  0
 78157  1  0  0  0
 78158  1  0  0  0
 79 83  1  0  0  0
 79159  1  0  0  0
 81 82  2  0  0  0
 82 83  1  0  0  0
M  ISO  4   1 100  68 101  72 100  78 101
M  END
> <chiral flag>
0

> <version>
0

> <s_m_source_file>
/data/baiqing/PycharmProjects/Reinvent-master-3.2/result/LINK_invent/BTK/process_docking_weight1_custom_sum_contain_oxygen_bond_distance_aromatic_linkinvent_7_9_3/rearranged_h_0087.sdf

> <i_m_source_file_index>
71

> <r_mmod_Potential_Energy-OPLS-2005>
782.528686523438

> <r_mmod_Stretch_Energy-OPLS-2005>
314.783843994141

> <r_mmod_Bend_Energy-OPLS-2005>
336.930999755859

> <r_mmod_Torsional_Energy-OPLS-2005>
257.711456298828

> <r_mmod_Improper_Torsional_Energy-OPLS-2005>
5.05299949645996

> <r_mmod_Van_der_Waal_Energy-OPLS-2005>
104.152305603027

> <r_mmod_Electrostatic_Energy-OPLS-2005>
-258.920043945312

> <r_mmod_Solvation_Energy-OPLS-2005>
-190.701171875

> <b_mmod_Minimization_Converged-OPLS-2005>
0

> <r_mmod_RMS_Derivative-OPLS-2005>
2.60832810401917

$$$$
72
                    3D
 Structure written by MMmdl.
172180  0  0  1  0            999 V2000
  -30.7036  -14.4069   20.5562 C   0  0  0  0  0  0
  -30.4220  -12.2544   19.4188 C   0  0  0  0  0  0
  -29.4978  -12.4950   18.2050 C   0  0  0  0  0  0
  -28.0152  -12.3688   18.6097 C   0  0  0  0  0  0
  -27.6671  -13.1937   19.8786 C   0  0  2  0  0  0
  -28.7055  -12.9403   20.9988 C   0  0  0  0  0  0
  -25.2611  -13.8138   20.5660 C   0  0  0  0  0  0
  -24.1840  -13.0435   20.9159 C   0  0  0  0  0  0
  -24.6374  -11.6895   20.8725 C   0  0  0  0  0  0
  -23.9024  -10.4289   21.0388 C   0  0  0  0  0  0
  -24.3587   -9.4214   21.9175 C   0  0  0  0  0  0
  -23.6276   -8.2242   22.0753 C   0  0  0  0  0  0
  -22.4259   -8.0278   21.3546 C   0  0  0  0  0  0
  -21.9883   -9.0244   20.4644 C   0  0  0  0  0  0
  -22.7193  -10.2130   20.3045 C   0  0  0  0  0  0
  -21.6856   -6.0728   22.5273 C   0  0  0  0  0  0
  -21.4014   -6.5629   23.8206 C   0  0  0  0  0  0
  -21.3662   -5.6779   24.9168 C   0  0  0  0  0  0
  -21.6041   -4.3040   24.7221 C   0  0  0  0  0  0
  -21.8820   -3.8134   23.4342 C   0  0  0  0  0  0
  -21.9190   -4.6953   22.3399 C   0  0  0  0  0  0
  -22.7858  -13.5250   21.1813 C   0  0  0  0  0  0
  -22.1659   -4.2136   21.0979 F   0  0  0  0  0  0
  -21.5638   -3.4528   25.7735 F   0  0  0  0  0  0
  -30.0507  -13.2228   20.4598 N   0  0  0  0  0  0
  -26.3043  -12.9282   20.3358 N   0  0  0  0  0  0
  -25.9304  -11.6452   20.5753 N   0  0  0  0  0  0
  -22.0471  -12.8284   22.0378 N   0  0  0  0  0  0
  -25.4327  -15.1851   20.4095 N   0  0  0  0  0  0
  -31.8183  -14.6211   20.0701 O   0  0  0  0  0  0
  -21.6637   -6.8868   21.4234 O   0  0  0  0  0  0
  -22.3542  -14.5558   20.6650 O   0  0  0  0  0  0
  -24.6082  -31.8733   23.2110 C   0  0  0  0  0  0
  -25.9015  -32.4833   23.8397 C   0  0  1  0  0  0
  -27.2385  -27.4873   20.0879 C   0  0  0  0  0  0
  -25.5911  -33.8632   24.2350 N   0  0  0  0  0  0
  -23.3930  -30.4962   21.5494 C   0  0  2  0  0  0
  -24.8430  -28.9651   20.1141 C   0  0  0  0  0  0
  -22.7375  -29.4694   22.4992 C   0  0  0  0  0  0
  -18.0279  -28.1348   22.8471 C   0  0  0  0  0  0
  -24.1493  -36.7318   23.2632 C   0  0  0  0  0  0
  -25.9143  -30.8510   21.3605 C   0  0  0  0  0  0
  -25.9953  -29.4877   20.7138 C   0  0  0  0  0  0
  -27.1965  -28.7513   20.7077 C   0  0  0  0  0  0
  -26.0796  -26.9723   19.4742 C   0  0  0  0  0  0
  -24.8750  -27.7027   19.4936 C   0  0  0  0  0  0
  -23.6010  -29.8252   20.1646 C   0  0  0  0  0  0
  -25.4108  -36.3114   24.0340 C   0  0  1  0  0  0
  -20.5852  -28.3671   23.1322 C   0  0  2  0  0  0
  -20.6782  -26.9411   22.5436 C   0  0  0  0  0  0
  -19.5782  -26.6356   21.5239 C   0  0  0  0  0  0
  -18.1947  -26.7882   22.1632 C   0  0  0  0  0  0
  -19.1513  -28.8817   23.2883 C   0  0  0  0  0  0
  -18.9441  -30.1423   23.8876 C   0  0  0  0  0  0
  -17.6441  -30.6562   24.0521 C   0  0  0  0  0  0
  -25.9032  -34.9479   23.5146 C   0  0  0  0  0  0
  -16.5338  -29.9047   23.6290 C   0  0  0  0  0  0
  -16.7268  -28.6471   23.0308 C   0  0  0  0  0  0
  -26.4466  -31.6583   25.0693 C   0  0  0  0  0  0
  -25.3751  -31.3692   26.1462 C   0  0  0  0  0  0
  -27.0288  -30.3028   24.6019 C   0  0  0  0  0  0
  -27.6050  -32.4289   25.7444 C   0  0  0  0  0  0
  -27.5582  -37.1806   24.8459 C   0  0  0  0  0  0
  -21.4112  -29.3037   22.3723 N   0  0  0  0  0  0
  -26.4301  -37.3786   23.9402 N   0  0  0  0  0  0
  -24.6554  -31.0870   22.0996 N   0  0  0  0  0  0
  -23.4161  -28.8264   23.3040 O   0  0  0  0  0  0
  -28.4006  -26.7621   20.0836 O   0  0  0  0  0  0
  -26.5578  -34.8920   22.4690 O   0  0  0  0  0  0
  -23.5291  -32.1481   23.7537 O   0  0  0  0  0  0
  -28.6710  -21.2418   21.1642 C   0  0  0  0  0  0
  -27.7226  -22.1790   21.6472 C   0  0  0  0  0  0
  -28.0187  -20.1207   20.7407 C   0  0  0  0  0  0
  -26.4902  -21.5950   21.5298 C   0  0  0  0  0  0
  -25.1369  -22.1460   21.8666 C   0  0  0  0  0  0
  -29.4970  -19.3130   18.9048 C   0  0  0  0  0  0
  -30.4151  -18.4994   21.8712 C   0  0  0  0  0  0
  -28.2107  -17.3546   22.0795 C   0  0  0  0  0  0
  -25.5889  -19.3916   20.6496 C   0  0  0  0  0  0
  -28.0498  -23.5718   22.1143 C   0  0  0  0  0  0
  -28.0026  -24.5365   20.9244 C   0  0  0  0  0  0
  -29.8498  -16.6737   20.2547 C   0  0  0  0  0  0
  -28.5467  -25.9347   21.2350 C   0  0  0  0  0  0
  -28.5896  -18.8865   20.0797 C   0  0  1  0  0  0
  -29.2631  -17.8612   21.0661 C   0  0  0  0  0  0
  -26.6603  -20.3290   20.9719 N   0  0  0  0  0  0
  -29.9345  -15.4093   20.9841 N   0  0  0  0  0  0
  -31.4709  -12.3368   19.1250 H   0  0  0  0  0  0
  -30.3009  -11.2380   19.7986 H   0  0  0  0  0  0
  -29.7303  -11.7843   17.4097 H   0  0  0  0  0  0
  -29.6807  -13.4887   17.7914 H   0  0  0  0  0  0
  -27.8107  -11.3134   18.7877 H   0  0  0  0  0  0
  -27.3723  -12.6608   17.7779 H   0  0  0  0  0  0
  -27.7238  -14.2444   19.5977 H   0  0  0  0  0  0
  -28.6597  -11.9008   21.3267 H   0  0  0  0  0  0
  -28.4754  -13.5293   21.8880 H   0  0  0  0  0  0
  -25.2740   -9.5692   22.4744 H   0  0  0  0  0  0
  -23.9989   -7.4633   22.7485 H   0  0  0  0  0  0
  -21.0807   -8.8740   19.8972 H   0  0  0  0  0  0
  -22.3633  -10.9662   19.6147 H   0  0  0  0  0  0
  -21.2008   -7.6139   23.9711 H   0  0  0  0  0  0
  -21.1486   -6.0506   25.9071 H   0  0  0  0  0  0
  -22.0601   -2.7600   23.2837 H   0  0  0  0  0  0
  -22.4072  -11.9964   22.4822 H   0  0  0  0  0  0
  -21.1090  -13.1337   22.2571 H   0  0  0  0  0  0
  -24.6613  -15.8336   20.5126 H   0  0  0  0  0  0
  -26.2778  -15.6229   20.0688 H   0  0  0  0  0  0
  -26.7079  -32.5555   23.1161 H   0  0  0  0  0  0
  -25.0080  -33.9790   25.0511 H   0  0  0  0  0  0
  -22.6752  -31.3079   21.4103 H   0  0  0  0  0  0
  -23.3748  -35.9660   23.3311 H   0  0  0  0  0  0
  -24.3576  -36.8903   22.2036 H   0  0  0  0  0  0
  -23.7260  -37.6532   23.6636 H   0  0  0  0  0  0
  -26.0168  -31.6186   20.5912 H   0  0  0  0  0  0
  -26.8021  -30.9089   21.9756 H   0  0  0  0  0  0
  -28.0875  -29.1479   21.1713 H   0  0  0  0  0  0
  -26.1084  -26.0116   18.9801 H   0  0  0  0  0  0
  -23.9906  -27.2970   19.0237 H   0  0  0  0  0  0
  -23.7004  -30.5959   19.3987 H   0  0  0  0  0  0
  -22.7288  -29.2365   19.8751 H   0  0  0  0  0  0
  -25.1276  -36.1977   25.0831 H   0  0  0  0  0  0
  -20.9941  -28.3274   24.1446 H   0  0  0  0  0  0
  -20.5716  -26.2294   23.3640 H   0  0  0  0  0  0
  -21.6646  -26.7460   22.1201 H   0  0  0  0  0  0
  -19.6975  -25.6266   21.1301 H   0  0  0  0  0  0
  -19.6750  -27.3144   20.6760 H   0  0  0  0  0  0
  -17.4219  -26.6590   21.4030 H   0  0  0  0  0  0
  -18.0371  -26.0027   22.9035 H   0  0  0  0  0  0
  -19.7921  -30.7248   24.2216 H   0  0  0  0  0  0
  -17.5001  -31.6260   24.5098 H   0  0  0  0  0  0
  -15.5332  -30.2945   23.7595 H   0  0  0  0  0  0
  -15.8687  -28.0792   22.6983 H   0  0  0  0  0  0
  -24.5917  -30.7035   25.7814 H   0  0  0  0  0  0
  -24.8959  -32.2855   26.4913 H   0  0  0  0  0  0
  -25.8128  -30.8861   27.0208 H   0  0  0  0  0  0
  -26.2816  -29.6780   24.1109 H   0  0  0  0  0  0
  -27.4116  -29.7246   25.4436 H   0  0  0  0  0  0
  -27.8619  -30.4332   23.9114 H   0  0  0  0  0  0
  -27.2673  -33.3571   26.2064 H   0  0  0  0  0  0
  -28.3844  -32.6878   25.0267 H   0  0  0  0  0  0
  -28.0742  -31.8391   26.5323 H   0  0  0  0  0  0
  -28.2607  -38.0098   24.7496 H   0  0  0  0  0  0
  -28.1076  -36.2622   24.6308 H   0  0  0  0  0  0
  -27.2289  -37.1475   25.8863 H   0  0  0  0  0  0
  -20.9270  -29.8777   21.6958 H   0  0  0  0  0  0
  -26.0199  -38.2865   24.1412 H   0  0  0  0  0  0
  -29.7406  -21.3887   21.0967 H   0  0  0  0  0  0
  -25.1909  -23.2030   22.1268 H   0  0  0  0  0  0
  -24.6978  -21.6187   22.7140 H   0  0  0  0  0  0
  -24.4536  -22.0598   21.0212 H   0  0  0  0  0  0
  -28.9552  -19.9745   18.2282 H   0  0  0  0  0  0
  -29.8284  -18.4702   18.3000 H   0  0  0  0  0  0
  -30.3820  -19.8505   19.2429 H   0  0  0  0  0  0
  -30.9078  -17.7620   22.5055 H   0  0  0  0  0  0
  -30.0628  -19.2974   22.5248 H   0  0  0  0  0  0
  -31.1793  -18.9207   21.2181 H   0  0  0  0  0  0
  -28.6522  -16.7129   22.8421 H   0  0  0  0  0  0
  -27.4229  -16.7877   21.5874 H   0  0  0  0  0  0
  -27.7369  -18.1768   22.6153 H   0  0  0  0  0  0
  -25.8199  -18.4007   21.0365 H   0  0  0  0  0  0
  -25.4692  -19.3267   19.5680 H   0  0  0  0  0  0
  -24.6429  -19.7008   21.0903 H   0  0  0  0  0  0
  -29.0443  -23.5674   22.5615 H   0  0  0  0  0  0
  -27.3561  -23.8836   22.8960 H   0  0  0  0  0  0
  -26.9717  -24.5906   20.5757 H   0  0  0  0  0  0
  -28.5859  -24.1270   20.0974 H   0  0  0  0  0  0
  -30.8198  -16.9476   19.8344 H   0  0  0  0  0  0
  -29.2098  -16.4712   19.3945 H   0  0  0  0  0  0
  -29.6059  -25.8769   21.4903 H   0  0  0  0  0  0
  -28.0425  -26.3559   22.1088 H   0  0  0  0  0  0
  -27.7672  -18.3540   19.6039 H   0  0  0  0  0  0
  -29.0876  -15.1238   21.4505 H   0  0  0  0  0  0
  1 25  1  0  0  0
  1 30  2  0  0  0
  1 87  1  0  0  0
  2  3  1  0  0  0
  2 25  1  0  0  0
  2 88  1  0  0  0
  2 89  1  0  0  0
  3  4  1  0  0  0
  3 90  1  0  0  0
  3 91  1  0  0  0
  4  5  1  0  0  0
  4 92  1  0  0  0
  4 93  1  0  0  0
  5  6  1  0  0  0
  5 26  1  0  0  0
  5 94  1  0  0  0
  6 25  1  0  0  0
  6 95  1  0  0  0
  6 96  1  0  0  0
  7  8  2  0  0  0
  7 26  1  0  0  0
  7 29  1  0  0  0
  8  9  1  0  0  0
  8 22  1  0  0  0
  9 10  1  0  0  0
  9 27  2  0  0  0
 10 11  2  0  0  0
 10 15  1  0  0  0
 11 12  1  0  0  0
 11 97  1  0  0  0
 12 13  2  0  0  0
 12 98  1  0  0  0
 13 14  1  0  0  0
 13 31  1  0  0  0
 14 15  2  0  0  0
 14 99  1  0  0  0
 15100  1  0  0  0
 16 17  2  0  0  0
 16 21  1  0  0  0
 16 31  1  0  0  0
 17 18  1  0  0  0
 17101  1  0  0  0
 18 19  2  0  0  0
 18102  1  0  0  0
 19 20  1  0  0  0
 19 24  1  0  0  0
 20 21  2  0  0  0
 20103  1  0  0  0
 21 23  1  0  0  0
 22 28  1  0  0  0
 22 32  2  0  0  0
 26 27  1  0  0  0
 28104  1  0  0  0
 28105  1  0  0  0
 29106  1  0  0  0
 29107  1  0  0  0
 33 34  1  0  0  0
 33 66  1  0  0  0
 33 70  2  0  0  0
 34 36  1  0  0  0
 34 59  1  0  0  0
 34108  1  0  0  0
 35 44  2  0  0  0
 35 45  1  0  0  0
 35 68  1  0  0  0
 36 56  1  0  0  0
 36109  1  0  0  0
 37 39  1  0  0  0
 37 47  1  0  0  0
 37 66  1  0  0  0
 37110  1  0  0  0
 38 43  2  0  0  0
 38 46  1  0  0  0
 38 47  1  0  0  0
 39 64  1  0  0  0
 39 67  2  0  0  0
 40 52  1  0  0  0
 40 53  2  0  0  0
 40 58  1  0  0  0
 41111  1  0  0  0
 41112  1  0  0  0
 41113  1  0  0  0
 41 48  1  0  0  0
 42 43  1  0  0  0
 42 66  1  0  0  0
 42114  1  0  0  0
 42115  1  0  0  0
 43 44  1  0  0  0
 44116  1  0  0  0
 45 46  2  0  0  0
 45117  1  0  0  0
 46118  1  0  0  0
 47119  1  0  0  0
 47120  1  0  0  0
 48 56  1  0  0  0
 48 65  1  0  0  0
 48121  1  0  0  0
 49 50  1  0  0  0
 49 53  1  0  0  0
 49 64  1  0  0  0
 49122  1  0  0  0
 50 51  1  0  0  0
 50123  1  0  0  0
 50124  1  0  0  0
 51 52  1  0  0  0
 51125  1  0  0  0
 51126  1  0  0  0
 52127  1  0  0  0
 52128  1  0  0  0
 53 54  1  0  0  0
 54 55  2  0  0  0
 54129  1  0  0  0
 55 57  1  0  0  0
 55130  1  0  0  0
 56 69  2  0  0  0
 57 58  2  0  0  0
 57131  1  0  0  0
 58132  1  0  0  0
 59 60  1  0  0  0
 59 61  1  0  0  0
 59 62  1  0  0  0
 60133  1  0  0  0
 60134  1  0  0  0
 60135  1  0  0  0
 61136  1  0  0  0
 61137  1  0  0  0
 61138  1  0  0  0
 62139  1  0  0  0
 62140  1  0  0  0
 62141  1  0  0  0
 63 65  1  0  0  0
 63142  1  0  0  0
 63143  1  0  0  0
 63144  1  0  0  0
 64145  1  0  0  0
 65146  1  0  0  0
 68 83  1  0  0  0
 71 72  1  0  0  0
 71 73  2  0  0  0
 71147  1  0  0  0
 72 74  2  0  0  0
 72 80  1  0  0  0
 73 84  1  0  0  0
 73 86  1  0  0  0
 74 75  1  0  0  0
 74 86  1  0  0  0
 75148  1  0  0  0
 75149  1  0  0  0
 75150  1  0  0  0
 76151  1  0  0  0
 76152  1  0  0  0
 76153  1  0  0  0
 76 84  1  0  0  0
 77154  1  0  0  0
 77155  1  0  0  0
 77156  1  0  0  0
 77 85  1  0  0  0
 78 85  1  0  0  0
 78157  1  0  0  0
 78158  1  0  0  0
 78159  1  0  0  0
 79 86  1  0  0  0
 79160  1  0  0  0
 79161  1  0  0  0
 79162  1  0  0  0
 80 81  1  0  0  0
 80163  1  0  0  0
 80164  1  0  0  0
 81 83  1  0  0  0
 81165  1  0  0  0
 81166  1  0  0  0
 82 85  1  0  0  0
 82 87  1  0  0  0
 82167  1  0  0  0
 82168  1  0  0  0
 83169  1  0  0  0
 83170  1  0  0  0
 84 85  1  0  0  0
 84171  1  0  0  0
 87172  1  0  0  0
M  ISO  4   1 100  68 101  83 101  87 100
M  END
> <chiral flag>
0

> <version>
0

> <s_m_source_file>
/data/baiqing/PycharmProjects/Reinvent-master-3.2/result/LINK_invent/BTK/process_docking_weight1_custom_sum_contain_oxygen_bond_distance_aromatic_linkinvent_7_9_3/rearranged_h_0087.sdf

> <i_m_source_file_index>
72

> <r_mmod_Potential_Energy-OPLS-2005>
-101.511688232422

> <r_mmod_Stretch_Energy-OPLS-2005>
34.0967483520508

> <r_mmod_Bend_Energy-OPLS-2005>
100.766296386719

> <r_mmod_Torsional_Energy-OPLS-2005>
277.227783203125

> <r_mmod_Improper_Torsional_Energy-OPLS-2005>
9.33716678619385

> <r_mmod_Van_der_Waal_Energy-OPLS-2005>
132.483047485352

> <r_mmod_Electrostatic_Energy-OPLS-2005>
-464.353210449219

> <r_mmod_Solvation_Energy-OPLS-2005>
-200.007919311523

> <b_mmod_Minimization_Converged-OPLS-2005>
0

> <r_mmod_RMS_Derivative-OPLS-2005>
2.9326343536377

$$$$
73
                    3D
 Structure written by MMmdl.
165173  0  0  1  0            999 V2000
  -30.7204  -14.6552   20.2654 C   0  0  0  0  0  0
  -30.4209  -12.3477   19.4889 C   0  0  0  0  0  0
  -29.5104  -12.3717   18.2455 C   0  0  0  0  0  0
  -28.0233  -12.3050   18.6545 C   0  0  0  0  0  0
  -27.6362  -13.2131   19.8604 C   0  0  2  0  0  0
  -28.7141  -13.2246   20.9690 C   0  0  0  0  0  0
  -25.2555  -13.8098   20.5851 C   0  0  0  0  0  0
  -24.1798  -13.0407   20.9250 C   0  0  0  0  0  0
  -24.6352  -11.6852   20.8812 C   0  0  0  0  0  0
  -23.9022  -10.4272   21.0435 C   0  0  0  0  0  0
  -24.3572   -9.4205   21.9204 C   0  0  0  0  0  0
  -23.6280   -8.2239   22.0763 C   0  0  0  0  0  0
  -22.4291   -8.0248   21.3534 C   0  0  0  0  0  0
  -21.9903   -9.0229   20.4652 C   0  0  0  0  0  0
  -22.7204  -10.2122   20.3078 C   0  0  0  0  0  0
  -21.6864   -6.0709   22.5261 C   0  0  0  0  0  0
  -21.4008   -6.5625   23.8180 C   0  0  0  0  0  0
  -21.3653   -5.6797   24.9149 C   0  0  0  0  0  0
  -21.6035   -4.3055   24.7232 C   0  0  0  0  0  0
  -21.8818   -3.8132   23.4372 C   0  0  0  0  0  0
  -21.9206   -4.6939   22.3410 C   0  0  0  0  0  0
  -22.7821  -13.5225   21.1839 C   0  0  0  0  0  0
  -22.1675   -4.2113   21.1006 F   0  0  0  0  0  0
  -21.5640   -3.4543   25.7767 F   0  0  0  0  0  0
  -30.0244  -13.4761   20.3496 N   0  0  0  0  0  0
  -26.2980  -12.9234   20.3559 N   0  0  0  0  0  0
  -25.9307  -11.6412   20.5959 N   0  0  0  0  0  0
  -22.0459  -12.8232   22.0366 N   0  0  0  0  0  0
  -25.4291  -15.1834   20.4264 N   0  0  0  0  0  0
  -31.9387  -14.5926   20.1370 O   0  0  0  0  0  0
  -21.6655   -6.8858   21.4223 O   0  0  0  0  0  0
  -22.3551  -14.5563   20.6706 O   0  0  0  0  0  0
  -24.6276  -31.8589   23.2015 C   0  0  0  0  0  0
  -25.9102  -32.4791   23.8379 C   0  0  1  0  0  0
  -27.2491  -27.3612   20.1275 C   0  0  0  0  0  0
  -25.5896  -33.8580   24.2303 N   0  0  0  0  0  0
  -23.4236  -30.4764   21.5478 C   0  0  2  0  0  0
  -24.8710  -28.9370   20.1132 C   0  0  0  0  0  0
  -22.7499  -29.4593   22.4988 C   0  0  0  0  0  0
  -18.0260  -28.1360   22.8495 C   0  0  0  0  0  0
  -24.1482  -36.7351   23.2646 C   0  0  0  0  0  0
  -25.9580  -30.8061   21.3623 C   0  0  0  0  0  0
  -26.0336  -29.4321   20.7172 C   0  0  0  0  0  0
  -27.2245  -28.6550   20.7131 C   0  0  0  0  0  0
  -26.0606  -26.9048   19.5055 C   0  0  0  0  0  0
  -24.8843  -27.6754   19.4971 C   0  0  0  0  0  0
  -23.6329  -29.8061   20.1639 C   0  0  0  0  0  0
  -25.4094  -36.3119   24.0349 C   0  0  1  0  0  0
  -20.5876  -28.3670   23.1303 C   0  0  2  0  0  0
  -20.6754  -26.9380   22.5448 C   0  0  0  0  0  0
  -19.5725  -26.6357   21.5252 C   0  0  0  0  0  0
  -18.1896  -26.7897   22.1651 C   0  0  0  0  0  0
  -19.1517  -28.8838   23.2884 C   0  0  0  0  0  0
  -18.9437  -30.1438   23.8903 C   0  0  0  0  0  0
  -17.6437  -30.6567   24.0557 C   0  0  0  0  0  0
  -25.9032  -34.9464   23.5148 C   0  0  0  0  0  0
  -16.5326  -29.9081   23.6310 C   0  0  0  0  0  0
  -16.7246  -28.6494   23.0343 C   0  0  0  0  0  0
  -26.4450  -31.6597   25.0768 C   0  0  0  0  0  0
  -25.3701  -31.3741   26.1543 C   0  0  0  0  0  0
  -27.0273  -30.3026   24.6174 C   0  0  0  0  0  0
  -27.6015  -32.4327   25.7535 C   0  0  0  0  0  0
  -27.5567  -37.1830   24.8451 C   0  0  0  0  0  0
  -21.4211  -29.3026   22.3732 N   0  0  0  0  0  0
  -26.4274  -37.3806   23.9402 N   0  0  0  0  0  0
  -24.6893  -31.0639   22.0950 N   0  0  0  0  0  0
  -23.4204  -28.8116   23.3061 O   0  0  0  0  0  0
  -28.3912  -26.5568   20.1972 O   0  0  0  0  0  0
  -26.5620  -34.8943   22.4727 O   0  0  0  0  0  0
  -23.5439  -32.1332   23.7360 O   0  0  0  0  0  0
  -29.9756  -20.4895   22.0922 C   0  0  0  0  0  0
  -29.9882  -19.7801   19.4627 C   0  0  0  0  0  0
  -30.2724  -19.1419   21.7628 C   0  0  0  0  0  0
  -30.3371  -18.7716   20.4001 C   0  0  0  0  0  0
  -29.6835  -21.4411   21.0862 C   0  0  0  0  0  0
  -30.5326  -18.1507   22.8849 C   0  0  0  0  0  0
  -28.0433  -16.9756   18.5319 C   0  0  0  0  0  0
  -32.4298  -17.3513   20.2737 C   0  0  0  0  0  0
  -29.2283  -22.8781   21.4932 C   0  0  0  0  0  0
  -29.2585  -16.0316   18.6308 C   0  0  0  0  0  0
  -29.3589  -24.1242   20.5129 C   0  0  0  0  0  0
  -28.1988  -25.1113   20.0605 C   0  0  0  0  0  0
  -30.9353  -17.4172   19.9020 C   0  0  2  0  0  0
  -30.0321  -16.0788   19.9944 C   0  0  2  0  0  0
  -29.6566  -21.0596   19.7881 N   0  0  0  0  0  0
  -31.4690  -12.3934   19.1836 H   0  0  0  0  0  0
  -30.3105  -11.4101   20.0344 H   0  0  0  0  0  0
  -29.7488  -11.5154   17.6153 H   0  0  0  0  0  0
  -29.7141  -13.2402   17.6243 H   0  0  0  0  0  0
  -27.8257  -11.2639   18.9118 H   0  0  0  0  0  0
  -27.3853  -12.5251   17.7983 H   0  0  0  0  0  0
  -27.5457  -14.2223   19.4921 H   0  0  0  0  0  0
  -28.7404  -12.2745   21.5025 H   0  0  0  0  0  0
  -28.4954  -13.9942   21.7113 H   0  0  0  0  0  0
  -25.2705   -9.5696   22.4784 H   0  0  0  0  0  0
  -23.9975   -7.4646   22.7494 H   0  0  0  0  0  0
  -21.0825   -8.8743   19.8988 H   0  0  0  0  0  0
  -22.3624  -10.9666   19.6213 H   0  0  0  0  0  0
  -21.1970   -7.6128   23.9656 H   0  0  0  0  0  0
  -21.1482   -6.0547   25.9045 H   0  0  0  0  0  0
  -22.0605   -2.7605   23.2892 H   0  0  0  0  0  0
  -22.4094  -11.9881   22.4703 H   0  0  0  0  0  0
  -21.1071  -13.1236   22.2544 H   0  0  0  0  0  0
  -24.6746  -15.8488   20.5434 H   0  0  0  0  0  0
  -26.2926  -15.6132   20.1193 H   0  0  0  0  0  0
  -26.7230  -32.5459   23.1195 H   0  0  0  0  0  0
  -24.9996  -33.9720   25.0419 H   0  0  0  0  0  0
  -22.7174  -31.2950   21.4012 H   0  0  0  0  0  0
  -23.3725  -35.9708   23.3303 H   0  0  0  0  0  0
  -24.3578  -36.8955   22.2059 H   0  0  0  0  0  0
  -23.7248  -37.6568   23.6651 H   0  0  0  0  0  0
  -26.0767  -31.5487   20.5732 H   0  0  0  0  0  0
  -26.8494  -30.8679   21.9770 H   0  0  0  0  0  0
  -28.1185  -29.0305   21.1912 H   0  0  0  0  0  0
  -26.0142  -25.9405   19.0217 H   0  0  0  0  0  0
  -23.9982  -27.2822   19.0173 H   0  0  0  0  0  0
  -23.7462  -30.5766   19.4009 H   0  0  0  0  0  0
  -22.7602  -29.2202   19.8713 H   0  0  0  0  0  0
  -25.1253  -36.2010   25.0837 H   0  0  0  0  0  0
  -20.9938  -28.3245   24.1436 H   0  0  0  0  0  0
  -20.5656  -26.2271   23.3652 H   0  0  0  0  0  0
  -21.6609  -26.7387   22.1230 H   0  0  0  0  0  0
  -19.6878  -25.6286   21.1243 H   0  0  0  0  0  0
  -19.6662  -27.3209   20.6817 H   0  0  0  0  0  0
  -17.4169  -26.6650   21.4046 H   0  0  0  0  0  0
  -18.0261  -26.0042   22.9043 H   0  0  0  0  0  0
  -19.7914  -30.7227   24.2299 H   0  0  0  0  0  0
  -17.4992  -31.6245   24.5155 H   0  0  0  0  0  0
  -15.5335  -30.2985   23.7620 H   0  0  0  0  0  0
  -15.8640  -28.0816   22.7067 H   0  0  0  0  0  0
  -24.5884  -30.7060   25.7918 H   0  0  0  0  0  0
  -24.8913  -32.2913   26.4971 H   0  0  0  0  0  0
  -25.8080  -30.8959   27.0318 H   0  0  0  0  0  0
  -26.2838  -29.6835   24.1166 H   0  0  0  0  0  0
  -27.3941  -29.7220   25.4637 H   0  0  0  0  0  0
  -27.8700  -30.4333   23.9399 H   0  0  0  0  0  0
  -27.2607  -33.3596   26.2152 H   0  0  0  0  0  0
  -28.3801  -32.6918   25.0357 H   0  0  0  0  0  0
  -28.0718  -31.8450   26.5428 H   0  0  0  0  0  0
  -28.2595  -38.0113   24.7460 H   0  0  0  0  0  0
  -28.1045  -36.2640   24.6300 H   0  0  0  0  0  0
  -27.2292  -37.1503   25.8857 H   0  0  0  0  0  0
  -20.9420  -29.8773   21.6942 H   0  0  0  0  0  0
  -26.0179  -38.2896   24.1376 H   0  0  0  0  0  0
  -29.9490  -20.7893   23.1303 H   0  0  0  0  0  0
  -30.0149  -19.5650   18.4028 H   0  0  0  0  0  0
  -30.1868  -17.1540   22.6207 H   0  0  0  0  0  0
  -29.9983  -18.4405   23.7896 H   0  0  0  0  0  0
  -31.5936  -18.0972   23.1301 H   0  0  0  0  0  0
  -28.2859  -17.8989   18.0028 H   0  0  0  0  0  0
  -27.6680  -17.2559   19.5150 H   0  0  0  0  0  0
  -27.2263  -16.5100   17.9815 H   0  0  0  0  0  0
  -32.9157  -18.3206   20.1490 H   0  0  0  0  0  0
  -32.9718  -16.6816   19.6058 H   0  0  0  0  0  0
  -32.5929  -17.0096   21.2916 H   0  0  0  0  0  0
  -29.8119  -23.0858   22.3959 H   0  0  0  0  0  0
  -28.1960  -22.7981   21.8439 H   0  0  0  0  0  0
  -29.9243  -16.2187   17.7875 H   0  0  0  0  0  0
  -28.9433  -15.0340   18.3827 H   0  0  0  0  0  0
  -29.2070  -24.6899   21.4344 H   0  0  0  0  0  0
  -28.7879  -23.4422   19.8839 H   0  0  0  0  0  0
  -27.2987  -24.8259   20.6162 H   0  0  0  0  0  0
  -27.9705  -24.9607   19.0017 H   0  0  0  0  0  0
  -31.0473  -17.6131   18.8364 H   0  0  0  0  0  0
  -29.3315  -16.1937   20.8180 H   0  0  0  0  0  0
  1 25  1  0  0  0
  1 30  2  0  0  0
  1 84  1  0  0  0
  2  3  1  0  0  0
  2 25  1  0  0  0
  2 86  1  0  0  0
  2 87  1  0  0  0
  3  4  1  0  0  0
  3 88  1  0  0  0
  3 89  1  0  0  0
  4  5  1  0  0  0
  4 90  1  0  0  0
  4 91  1  0  0  0
  5  6  1  0  0  0
  5 26  1  0  0  0
  5 92  1  0  0  0
  6 25  1  0  0  0
  6 93  1  0  0  0
  6 94  1  0  0  0
  7  8  2  0  0  0
  7 26  1  0  0  0
  7 29  1  0  0  0
  8  9  1  0  0  0
  8 22  1  0  0  0
  9 10  1  0  0  0
  9 27  2  0  0  0
 10 11  2  0  0  0
 10 15  1  0  0  0
 11 12  1  0  0  0
 11 95  1  0  0  0
 12 13  2  0  0  0
 12 96  1  0  0  0
 13 14  1  0  0  0
 13 31  1  0  0  0
 14 15  2  0  0  0
 14 97  1  0  0  0
 15 98  1  0  0  0
 16 17  2  0  0  0
 16 21  1  0  0  0
 16 31  1  0  0  0
 17 18  1  0  0  0
 17 99  1  0  0  0
 18 19  2  0  0  0
 18100  1  0  0  0
 19 20  1  0  0  0
 19 24  1  0  0  0
 20 21  2  0  0  0
 20101  1  0  0  0
 21 23  1  0  0  0
 22 28  1  0  0  0
 22 32  2  0  0  0
 26 27  1  0  0  0
 28102  1  0  0  0
 28103  1  0  0  0
 29104  1  0  0  0
 29105  1  0  0  0
 33 34  1  0  0  0
 33 66  1  0  0  0
 33 70  2  0  0  0
 34 36  1  0  0  0
 34 59  1  0  0  0
 34106  1  0  0  0
 35 44  2  0  0  0
 35 45  1  0  0  0
 35 68  1  0  0  0
 36 56  1  0  0  0
 36107  1  0  0  0
 37 39  1  0  0  0
 37 47  1  0  0  0
 37 66  1  0  0  0
 37108  1  0  0  0
 38 43  2  0  0  0
 38 46  1  0  0  0
 38 47  1  0  0  0
 39 64  1  0  0  0
 39 67  2  0  0  0
 40 52  1  0  0  0
 40 53  2  0  0  0
 40 58  1  0  0  0
 41109  1  0  0  0
 41110  1  0  0  0
 41111  1  0  0  0
 41 48  1  0  0  0
 42 43  1  0  0  0
 42 66  1  0  0  0
 42112  1  0  0  0
 42113  1  0  0  0
 43 44  1  0  0  0
 44114  1  0  0  0
 45 46  2  0  0  0
 45115  1  0  0  0
 46116  1  0  0  0
 47117  1  0  0  0
 47118  1  0  0  0
 48 56  1  0  0  0
 48 65  1  0  0  0
 48119  1  0  0  0
 49 50  1  0  0  0
 49 53  1  0  0  0
 49 64  1  0  0  0
 49120  1  0  0  0
 50 51  1  0  0  0
 50121  1  0  0  0
 50122  1  0  0  0
 51 52  1  0  0  0
 51123  1  0  0  0
 51124  1  0  0  0
 52125  1  0  0  0
 52126  1  0  0  0
 53 54  1  0  0  0
 54 55  2  0  0  0
 54127  1  0  0  0
 55 57  1  0  0  0
 55128  1  0  0  0
 56 69  2  0  0  0
 57 58  2  0  0  0
 57129  1  0  0  0
 58130  1  0  0  0
 59 60  1  0  0  0
 59 61  1  0  0  0
 59 62  1  0  0  0
 60131  1  0  0  0
 60132  1  0  0  0
 60133  1  0  0  0
 61134  1  0  0  0
 61135  1  0  0  0
 61136  1  0  0  0
 62137  1  0  0  0
 62138  1  0  0  0
 62139  1  0  0  0
 63 65  1  0  0  0
 63140  1  0  0  0
 63141  1  0  0  0
 63142  1  0  0  0
 64143  1  0  0  0
 65144  1  0  0  0
 68 82  1  0  0  0
 71 73  2  0  0  0
 71 75  1  0  0  0
 71145  1  0  0  0
 72 74  2  0  0  0
 72 85  1  0  0  0
 72146  1  0  0  0
 73 74  1  0  0  0
 73 76  1  0  0  0
 74 83  1  0  0  0
 75 79  1  0  0  0
 75 85  2  0  0  0
 76147  1  0  0  0
 76148  1  0  0  0
 76149  1  0  0  0
 77 80  1  0  0  0
 77150  1  0  0  0
 77151  1  0  0  0
 77152  1  0  0  0
 78153  1  0  0  0
 78154  1  0  0  0
 78155  1  0  0  0
 78 83  1  0  0  0
 79 81  1  0  0  0
 79156  1  0  0  0
 79157  1  0  0  0
 80158  1  0  0  0
 80159  1  0  0  0
 80 84  1  0  0  0
 81 82  1  0  0  0
 81160  1  0  0  0
 81161  1  0  0  0
 82162  1  0  0  0
 82163  1  0  0  0
 83 84  1  0  0  0
 83164  1  0  0  0
 84165  1  0  0  0
M  ISO  4   1 100  68 101  82 101  84 100
M  END
> <chiral flag>
0

> <version>
0

> <s_m_source_file>
/data/baiqing/PycharmProjects/Reinvent-master-3.2/result/LINK_invent/BTK/process_docking_weight1_custom_sum_contain_oxygen_bond_distance_aromatic_linkinvent_7_9_3/rearranged_h_0087.sdf

> <i_m_source_file_index>
73

> <r_mmod_Potential_Energy-OPLS-2005>
346.735473632812

> <r_mmod_Stretch_Energy-OPLS-2005>
78.7688140869141

> <r_mmod_Bend_Energy-OPLS-2005>
385.036102294922

> <r_mmod_Torsional_Energy-OPLS-2005>
238.381225585938

> <r_mmod_Improper_Torsional_Energy-OPLS-2005>
8.42393112182617

> <r_mmod_Van_der_Waal_Energy-OPLS-2005>
185.761123657227

> <r_mmod_Electrostatic_Energy-OPLS-2005>
-421.027374267578

> <r_mmod_Solvation_Energy-OPLS-2005>
-197.862213134766

> <b_mmod_Minimization_Converged-OPLS-2005>
0

> <r_mmod_RMS_Derivative-OPLS-2005>
5.59614276885986

$$$$
74
                    3D
 Structure written by MMmdl.
164172  0  0  1  0            999 V2000
  -30.6160  -14.7090   20.4854 C   0  0  0  0  0  0
  -30.4381  -12.4401   19.4471 C   0  0  0  0  0  0
  -29.5064  -12.5089   18.2182 C   0  0  0  0  0  0
  -28.0309  -12.3392   18.6327 C   0  0  0  0  0  0
  -27.6425  -13.2266   19.8446 C   0  0  2  0  0  0
  -28.6915  -13.1378   20.9717 C   0  0  0  0  0  0
  -25.2516  -13.8197   20.5688 C   0  0  0  0  0  0
  -24.1816  -13.0436   20.9223 C   0  0  0  0  0  0
  -24.6396  -11.6915   20.8724 C   0  0  0  0  0  0
  -23.9067  -10.4304   21.0390 C   0  0  0  0  0  0
  -24.3628   -9.4219   21.9162 C   0  0  0  0  0  0
  -23.6309   -8.2252   22.0730 C   0  0  0  0  0  0
  -22.4281   -8.0299   21.3539 C   0  0  0  0  0  0
  -21.9922   -9.0261   20.4632 C   0  0  0  0  0  0
  -22.7242  -10.2136   20.3042 C   0  0  0  0  0  0
  -21.6865   -6.0736   22.5279 C   0  0  0  0  0  0
  -21.4020   -6.5633   23.8212 C   0  0  0  0  0  0
  -21.3668   -5.6783   24.9171 C   0  0  0  0  0  0
  -21.6056   -4.3046   24.7224 C   0  0  0  0  0  0
  -21.8825   -3.8143   23.4340 C   0  0  0  0  0  0
  -21.9196   -4.6963   22.3395 C   0  0  0  0  0  0
  -22.7834  -13.5209   21.1908 C   0  0  0  0  0  0
  -22.1666   -4.2146   21.0973 F   0  0  0  0  0  0
  -21.5630   -3.4528   25.7732 F   0  0  0  0  0  0
  -29.9928  -13.4886   20.3882 N   0  0  0  0  0  0
  -26.2939  -12.9390   20.3241 N   0  0  0  0  0  0
  -25.9319  -11.6533   20.5711 N   0  0  0  0  0  0
  -22.0480  -12.8179   22.0456 N   0  0  0  0  0  0
  -25.4175  -15.1938   20.4135 N   0  0  0  0  0  0
  -31.8160  -14.8243   20.2259 O   0  0  0  0  0  0
  -21.6653   -6.8884   21.4242 O   0  0  0  0  0  0
  -22.3501  -14.5502   20.6745 O   0  0  0  0  0  0
  -24.6320  -31.8530   23.1996 C   0  0  0  0  0  0
  -25.9148  -32.4747   23.8341 C   0  0  1  0  0  0
  -27.2245  -27.2708   20.1180 C   0  0  0  0  0  0
  -25.5961  -33.8555   24.2277 N   0  0  0  0  0  0
  -23.4268  -30.4784   21.5416 C   0  0  2  0  0  0
  -24.8743  -28.9293   20.1063 C   0  0  0  0  0  0
  -22.7499  -29.4613   22.4909 C   0  0  0  0  0  0
  -18.0305  -28.1354   22.8482 C   0  0  0  0  0  0
  -24.1497  -36.7284   23.2644 C   0  0  0  0  0  0
  -25.9710  -30.7709   21.3733 C   0  0  0  0  0  0
  -26.0450  -29.3949   20.7167 C   0  0  0  0  0  0
  -27.2215  -28.5777   20.7127 C   0  0  0  0  0  0
  -26.0251  -26.8753   19.4768 C   0  0  0  0  0  0
  -24.8691  -27.6786   19.4758 C   0  0  0  0  0  0
  -23.6409  -29.8111   20.1589 C   0  0  0  0  0  0
  -25.4125  -36.3075   24.0329 C   0  0  1  0  0  0
  -20.5911  -28.3698   23.1245 C   0  0  2  0  0  0
  -20.6789  -26.9413   22.5382 C   0  0  0  0  0  0
  -19.5769  -26.6360   21.5189 C   0  0  0  0  0  0
  -18.1951  -26.7907   22.1595 C   0  0  0  0  0  0
  -19.1556  -28.8843   23.2866 C   0  0  0  0  0  0
  -18.9478  -30.1446   23.8879 C   0  0  0  0  0  0
  -17.6474  -30.6565   24.0574 C   0  0  0  0  0  0
  -25.9057  -34.9433   23.5101 C   0  0  0  0  0  0
  -16.5370  -29.9058   23.6333 C   0  0  0  0  0  0
  -16.7294  -28.6462   23.0366 C   0  0  0  0  0  0
  -26.4545  -31.6562   25.0706 C   0  0  0  0  0  0
  -25.3781  -31.3630   26.1419 C   0  0  0  0  0  0
  -27.0407  -30.3007   24.6152 C   0  0  0  0  0  0
  -27.6126  -32.4279   25.7442 C   0  0  0  0  0  0
  -27.5583  -37.1800   24.8475 C   0  0  0  0  0  0
  -21.4205  -29.3056   22.3633 N   0  0  0  0  0  0
  -26.4311  -37.3766   23.9404 N   0  0  0  0  0  0
  -24.6958  -31.0525   22.0949 N   0  0  0  0  0  0
  -23.4192  -28.8148   23.3011 O   0  0  0  0  0  0
  -28.3262  -26.3806   20.1760 O   0  0  0  0  0  0
  -26.5627  -34.8900   22.4659 O   0  0  0  0  0  0
  -23.5471  -32.1341   23.7292 O   0  0  0  0  0  0
  -29.4088  -19.7502   20.6562 C   0  0  0  0  0  0
  -29.4061  -20.9128   19.7961 C   0  0  0  0  0  0
  -30.0673  -20.7248   18.5470 C   0  0  0  0  0  0
  -30.0064  -18.4925   20.2670 C   0  0  0  0  0  0
  -30.6910  -19.4723   18.2689 C   0  0  0  0  0  0
  -31.5033  -19.2220   17.0068 C   0  0  0  0  0  0
  -29.2486  -22.6790   15.2394 C   0  0  0  0  0  0
  -28.5427  -22.2220   20.0989 C   0  0  0  0  0  0
  -30.1023  -21.8285   17.4864 C   0  0  0  0  0  0
  -30.1467  -17.2106   21.1787 C   0  0  0  0  0  0
  -29.0833  -21.6293   16.3484 C   0  0  0  0  0  0
  -29.1076  -23.7279   20.3034 C   0  0  0  0  0  0
  -28.0755  -24.9190   19.9505 C   0  0  0  0  0  0
  -30.6388  -18.3991   19.0854 N   0  0  0  0  0  0
  -29.8169  -15.8073   20.7038 N   0  0  0  0  0  0
  -31.4723  -12.5865   19.1318 H   0  0  0  0  0  0
  -30.4005  -11.4548   19.9128 H   0  0  0  0  0  0
  -29.7803  -11.7469   17.4877 H   0  0  0  0  0  0
  -29.6420  -13.4674   17.7152 H   0  0  0  0  0  0
  -27.8709  -11.2871   18.8731 H   0  0  0  0  0  0
  -27.3812  -12.5589   17.7860 H   0  0  0  0  0  0
  -27.6387  -14.2520   19.4758 H   0  0  0  0  0  0
  -28.7276  -12.1323   21.3919 H   0  0  0  0  0  0
  -28.4325  -13.8088   21.7923 H   0  0  0  0  0  0
  -25.2758   -9.5704   22.4748 H   0  0  0  0  0  0
  -24.0037   -7.4636   22.7418 H   0  0  0  0  0  0
  -21.0863   -8.8761   19.8927 H   0  0  0  0  0  0
  -22.3680  -10.9681   19.6170 H   0  0  0  0  0  0
  -21.2005   -7.6140   23.9723 H   0  0  0  0  0  0
  -21.1491   -6.0498   25.9075 H   0  0  0  0  0  0
  -22.0595   -2.7609   23.2832 H   0  0  0  0  0  0
  -22.4094  -11.9832   22.4844 H   0  0  0  0  0  0
  -21.1100  -13.1177   22.2666 H   0  0  0  0  0  0
  -24.6402  -15.8381   20.5225 H   0  0  0  0  0  0
  -26.2527  -15.6453   20.0647 H   0  0  0  0  0  0
  -26.7188  -32.5423   23.1064 H   0  0  0  0  0  0
  -25.0171  -33.9696   25.0464 H   0  0  0  0  0  0
  -22.7260  -31.3032   21.3982 H   0  0  0  0  0  0
  -23.3762  -35.9612   23.3284 H   0  0  0  0  0  0
  -24.3617  -36.8918   22.2067 H   0  0  0  0  0  0
  -23.7198  -37.6461   23.6671 H   0  0  0  0  0  0
  -26.1051  -31.5298   20.6009 H   0  0  0  0  0  0
  -26.8495  -30.8237   22.0045 H   0  0  0  0  0  0
  -28.1162  -28.9283   21.2053 H   0  0  0  0  0  0
  -25.9381  -25.9220   18.9766 H   0  0  0  0  0  0
  -23.9746  -27.3200   18.9856 H   0  0  0  0  0  0
  -23.7483  -30.5807   19.3949 H   0  0  0  0  0  0
  -22.7623  -29.2332   19.8669 H   0  0  0  0  0  0
  -25.1283  -36.1954   25.0818 H   0  0  0  0  0  0
  -21.0036  -28.3274   24.1355 H   0  0  0  0  0  0
  -20.5678  -26.2312   23.3583 H   0  0  0  0  0  0
  -21.6655  -26.7410   22.1193 H   0  0  0  0  0  0
  -19.6943  -25.6269   21.1211 H   0  0  0  0  0  0
  -19.6698  -27.3174   20.6725 H   0  0  0  0  0  0
  -17.4222  -26.6679   21.3990 H   0  0  0  0  0  0
  -18.0377  -26.0015   22.8953 H   0  0  0  0  0  0
  -19.7959  -30.7284   24.2209 H   0  0  0  0  0  0
  -17.5024  -31.6244   24.5181 H   0  0  0  0  0  0
  -15.5369  -30.2961   23.7636 H   0  0  0  0  0  0
  -15.8696  -28.0766   22.7106 H   0  0  0  0  0  0
  -24.6021  -30.6931   25.7695 H   0  0  0  0  0  0
  -24.8907  -32.2752   26.4874 H   0  0  0  0  0  0
  -25.8125  -30.8773   27.0169 H   0  0  0  0  0  0
  -26.2961  -29.6706   24.1284 H   0  0  0  0  0  0
  -27.4236  -29.7326   25.4640 H   0  0  0  0  0  0
  -27.8767  -30.4293   23.9272 H   0  0  0  0  0  0
  -27.2809  -33.3621   26.1973 H   0  0  0  0  0  0
  -28.3944  -32.6759   25.0251 H   0  0  0  0  0  0
  -28.0793  -31.8414   26.5370 H   0  0  0  0  0  0
  -28.2604  -38.0106   24.7560 H   0  0  0  0  0  0
  -28.1071  -36.2640   24.6252 H   0  0  0  0  0  0
  -27.2318  -37.1379   25.8887 H   0  0  0  0  0  0
  -20.9402  -29.8758   21.6808 H   0  0  0  0  0  0
  -26.0195  -38.2834   24.1427 H   0  0  0  0  0  0
  -28.9219  -19.8176   21.6202 H   0  0  0  0  0  0
  -32.2400  -20.0095   16.8434 H   0  0  0  0  0  0
  -30.8600  -19.1373   16.1326 H   0  0  0  0  0  0
  -32.0674  -18.2914   17.0812 H   0  0  0  0  0  0
  -28.5361  -22.5147   14.4310 H   0  0  0  0  0  0
  -30.2466  -22.6491   14.7976 H   0  0  0  0  0  0
  -29.0821  -23.6872   15.6234 H   0  0  0  0  0  0
  -27.9192  -21.9970   20.9634 H   0  0  0  0  0  0
  -27.8374  -22.2692   19.2685 H   0  0  0  0  0  0
  -31.1104  -21.9012   17.0817 H   0  0  0  0  0  0
  -29.9254  -22.8032   17.9250 H   0  0  0  0  0  0
  -29.5290  -17.3860   22.0606 H   0  0  0  0  0  0
  -31.1726  -17.2033   21.5508 H   0  0  0  0  0  0
  -29.1726  -20.6342   15.9084 H   0  0  0  0  0  0
  -28.0704  -21.6915   16.7487 H   0  0  0  0  0  0
  -30.0196  -23.8840   19.7328 H   0  0  0  0  0  0
  -29.4200  -23.8264   21.3433 H   0  0  0  0  0  0
  -27.1600  -24.6666   20.4859 H   0  0  0  0  0  0
  -27.8431  -24.8067   18.8903 H   0  0  0  0  0  0
  -28.8301  -15.6021   20.7105 H   0  0  0  0  0  0
  1 25  1  0  0  0
  1 30  2  0  0  0
  1 85  1  0  0  0
  2  3  1  0  0  0
  2 25  1  0  0  0
  2 86  1  0  0  0
  2 87  1  0  0  0
  3  4  1  0  0  0
  3 88  1  0  0  0
  3 89  1  0  0  0
  4  5  1  0  0  0
  4 90  1  0  0  0
  4 91  1  0  0  0
  5  6  1  0  0  0
  5 26  1  0  0  0
  5 92  1  0  0  0
  6 25  1  0  0  0
  6 93  1  0  0  0
  6 94  1  0  0  0
  7  8  2  0  0  0
  7 26  1  0  0  0
  7 29  1  0  0  0
  8  9  1  0  0  0
  8 22  1  0  0  0
  9 10  1  0  0  0
  9 27  2  0  0  0
 10 11  2  0  0  0
 10 15  1  0  0  0
 11 12  1  0  0  0
 11 95  1  0  0  0
 12 13  2  0  0  0
 12 96  1  0  0  0
 13 14  1  0  0  0
 13 31  1  0  0  0
 14 15  2  0  0  0
 14 97  1  0  0  0
 15 98  1  0  0  0
 16 17  2  0  0  0
 16 21  1  0  0  0
 16 31  1  0  0  0
 17 18  1  0  0  0
 17 99  1  0  0  0
 18 19  2  0  0  0
 18100  1  0  0  0
 19 20  1  0  0  0
 19 24  1  0  0  0
 20 21  2  0  0  0
 20101  1  0  0  0
 21 23  1  0  0  0
 22 28  1  0  0  0
 22 32  2  0  0  0
 26 27  1  0  0  0
 28102  1  0  0  0
 28103  1  0  0  0
 29104  1  0  0  0
 29105  1  0  0  0
 33 34  1  0  0  0
 33 66  1  0  0  0
 33 70  2  0  0  0
 34 36  1  0  0  0
 34 59  1  0  0  0
 34106  1  0  0  0
 35 44  2  0  0  0
 35 45  1  0  0  0
 35 68  1  0  0  0
 36 56  1  0  0  0
 36107  1  0  0  0
 37 39  1  0  0  0
 37 47  1  0  0  0
 37 66  1  0  0  0
 37108  1  0  0  0
 38 43  2  0  0  0
 38 46  1  0  0  0
 38 47  1  0  0  0
 39 64  1  0  0  0
 39 67  2  0  0  0
 40 52  1  0  0  0
 40 53  2  0  0  0
 40 58  1  0  0  0
 41109  1  0  0  0
 41110  1  0  0  0
 41111  1  0  0  0
 41 48  1  0  0  0
 42 43  1  0  0  0
 42 66  1  0  0  0
 42112  1  0  0  0
 42113  1  0  0  0
 43 44  1  0  0  0
 44114  1  0  0  0
 45 46  2  0  0  0
 45115  1  0  0  0
 46116  1  0  0  0
 47117  1  0  0  0
 47118  1  0  0  0
 48 56  1  0  0  0
 48 65  1  0  0  0
 48119  1  0  0  0
 49 50  1  0  0  0
 49 53  1  0  0  0
 49 64  1  0  0  0
 49120  1  0  0  0
 50 51  1  0  0  0
 50121  1  0  0  0
 50122  1  0  0  0
 51 52  1  0  0  0
 51123  1  0  0  0
 51124  1  0  0  0
 52125  1  0  0  0
 52126  1  0  0  0
 53 54  1  0  0  0
 54 55  2  0  0  0
 54127  1  0  0  0
 55 57  1  0  0  0
 55128  1  0  0  0
 56 69  2  0  0  0
 57 58  2  0  0  0
 57129  1  0  0  0
 58130  1  0  0  0
 59 60  1  0  0  0
 59 61  1  0  0  0
 59 62  1  0  0  0
 60131  1  0  0  0
 60132  1  0  0  0
 60133  1  0  0  0
 61134  1  0  0  0
 61135  1  0  0  0
 61136  1  0  0  0
 62137  1  0  0  0
 62138  1  0  0  0
 62139  1  0  0  0
 63 65  1  0  0  0
 63140  1  0  0  0
 63141  1  0  0  0
 63142  1  0  0  0
 64143  1  0  0  0
 65144  1  0  0  0
 68 83  1  0  0  0
 71 72  2  0  0  0
 71 74  1  0  0  0
 71145  1  0  0  0
 72 73  1  0  0  0
 72 78  1  0  0  0
 73 75  2  0  0  0
 73 79  1  0  0  0
 74 80  1  0  0  0
 74 84  2  0  0  0
 75 76  1  0  0  0
 75 84  1  0  0  0
 76146  1  0  0  0
 76147  1  0  0  0
 76148  1  0  0  0
 77 81  1  0  0  0
 77149  1  0  0  0
 77150  1  0  0  0
 77151  1  0  0  0
 78 82  1  0  0  0
 78152  1  0  0  0
 78153  1  0  0  0
 79 81  1  0  0  0
 79154  1  0  0  0
 79155  1  0  0  0
 80 85  1  0  0  0
 80156  1  0  0  0
 80157  1  0  0  0
 81158  1  0  0  0
 81159  1  0  0  0
 82 83  1  0  0  0
 82160  1  0  0  0
 82161  1  0  0  0
 83162  1  0  0  0
 83163  1  0  0  0
 85164  1  0  0  0
M  ISO  4   1 100  68 101  83 101  85 100
M  END
> <chiral flag>
0

> <version>
0

> <s_m_source_file>
/data/baiqing/PycharmProjects/Reinvent-master-3.2/result/LINK_invent/BTK/process_docking_weight1_custom_sum_contain_oxygen_bond_distance_aromatic_linkinvent_7_9_3/rearranged_h_0087.sdf

> <i_m_source_file_index>
74

> <r_mmod_Potential_Energy-OPLS-2005>
-149.878112792969

> <r_mmod_Stretch_Energy-OPLS-2005>
109.805641174316

> <r_mmod_Bend_Energy-OPLS-2005>
170.396377563477

> <r_mmod_Torsional_Energy-OPLS-2005>
214.202667236328

> <r_mmod_Improper_Torsional_Energy-OPLS-2005>
5.6126708984375

> <r_mmod_Van_der_Waal_Energy-OPLS-2005>
145.05403137207

> <r_mmod_Electrostatic_Energy-OPLS-2005>
-638.982727050781

> <r_mmod_Solvation_Energy-OPLS-2005>
-232.539962768555

> <b_mmod_Minimization_Converged-OPLS-2005>
0

> <r_mmod_RMS_Derivative-OPLS-2005>
3.56372213363647

$$$$
75
                    3D
 Structure written by MMmdl.
163171  0  0  1  0            999 V2000
  -30.5223  -14.9049   20.4183 C   0  0  0  0  0  0
  -30.4495  -12.5544   19.4868 C   0  0  0  0  0  0
  -29.5214  -12.5231   18.2487 C   0  0  0  0  0  0
  -28.0544  -12.3068   18.6687 C   0  0  0  0  0  0
  -27.6348  -13.2294   19.8419 C   0  0  2  0  0  0
  -28.6800  -13.2252   20.9788 C   0  0  0  0  0  0
  -25.2483  -13.8166   20.5711 C   0  0  0  0  0  0
  -24.1783  -13.0415   20.9224 C   0  0  0  0  0  0
  -24.6388  -11.6894   20.8757 C   0  0  0  0  0  0
  -23.9068  -10.4276   21.0413 C   0  0  0  0  0  0
  -24.3616   -9.4195   21.9190 C   0  0  0  0  0  0
  -23.6287   -8.2237   22.0758 C   0  0  0  0  0  0
  -22.4269   -8.0283   21.3551 C   0  0  0  0  0  0
  -21.9904   -9.0256   20.4653 C   0  0  0  0  0  0
  -22.7241  -10.2129   20.3060 C   0  0  0  0  0  0
  -21.6850   -6.0737   22.5285 C   0  0  0  0  0  0
  -21.4015   -6.5639   23.8220 C   0  0  0  0  0  0
  -21.3656   -5.6790   24.9180 C   0  0  0  0  0  0
  -21.6045   -4.3054   24.7227 C   0  0  0  0  0  0
  -21.8816   -3.8148   23.4347 C   0  0  0  0  0  0
  -21.9192   -4.6966   22.3405 C   0  0  0  0  0  0
  -22.7810  -13.5211   21.1882 C   0  0  0  0  0  0
  -22.1660   -4.2154   21.0982 F   0  0  0  0  0  0
  -21.5626   -3.4535   25.7736 F   0  0  0  0  0  0
  -29.9642  -13.6315   20.3897 N   0  0  0  0  0  0
  -26.2899  -12.9371   20.3238 N   0  0  0  0  0  0
  -25.9313  -11.6520   20.5737 N   0  0  0  0  0  0
  -22.0451  -12.8206   22.0439 N   0  0  0  0  0  0
  -25.4120  -15.1902   20.4185 N   0  0  0  0  0  0
  -31.7203  -15.0222   20.1361 O   0  0  0  0  0  0
  -21.6638   -6.8880   21.4246 O   0  0  0  0  0  0
  -22.3507  -14.5519   20.6728 O   0  0  0  0  0  0
  -24.6398  -31.8453   23.1875 C   0  0  0  0  0  0
  -25.9188  -32.4692   23.8255 C   0  0  1  0  0  0
  -27.2338  -27.1721   20.1364 C   0  0  0  0  0  0
  -25.5952  -33.8499   24.2186 N   0  0  0  0  0  0
  -23.4409  -30.4629   21.5321 C   0  0  2  0  0  0
  -24.8897  -28.8891   20.1072 C   0  0  0  0  0  0
  -22.7545  -29.4552   22.4868 C   0  0  0  0  0  0
  -18.0298  -28.1399   22.8480 C   0  0  0  0  0  0
  -24.1496  -36.7249   23.2643 C   0  0  0  0  0  0
  -25.9916  -30.7310   21.3779 C   0  0  0  0  0  0
  -26.0628  -29.3446   20.7184 C   0  0  0  0  0  0
  -27.2283  -28.4996   20.7176 C   0  0  0  0  0  0
  -26.0254  -26.7943   19.5128 C   0  0  0  0  0  0
  -24.8812  -27.6252   19.4940 C   0  0  0  0  0  0
  -23.6641  -29.7883   20.1513 C   0  0  0  0  0  0
  -25.4124  -36.3026   24.0318 C   0  0  1  0  0  0
  -20.5909  -28.3710   23.1252 C   0  0  2  0  0  0
  -20.6782  -26.9417   22.5414 C   0  0  0  0  0  0
  -19.5758  -26.6388   21.5216 C   0  0  0  0  0  0
  -18.1939  -26.7938   22.1629 C   0  0  0  0  0  0
  -19.1555  -28.8871   23.2859 C   0  0  0  0  0  0
  -18.9479  -30.1469   23.8880 C   0  0  0  0  0  0
  -17.6477  -30.6590   24.0564 C   0  0  0  0  0  0
  -25.9072  -34.9400   23.5055 C   0  0  0  0  0  0
  -16.5364  -29.9091   23.6340 C   0  0  0  0  0  0
  -16.7285  -28.6516   23.0348 C   0  0  0  0  0  0
  -26.4535  -31.6556   25.0687 C   0  0  0  0  0  0
  -25.3740  -31.3734   26.1398 C   0  0  0  0  0  0
  -27.0400  -30.2958   24.6243 C   0  0  0  0  0  0
  -27.6074  -32.4313   25.7472 C   0  0  0  0  0  0
  -27.5572  -37.1779   24.8468 C   0  0  0  0  0  0
  -21.4239  -29.3039   22.3626 N   0  0  0  0  0  0
  -26.4284  -37.3741   23.9413 N   0  0  0  0  0  0
  -24.7100  -31.0348   22.0880 N   0  0  0  0  0  0
  -23.4203  -28.8119   23.3019 O   0  0  0  0  0  0
  -28.3508  -26.2772   20.2598 O   0  0  0  0  0  0
  -26.5664  -34.8904   22.4639 O   0  0  0  0  0  0
  -23.5528  -32.1317   23.7127 O   0  0  0  0  0  0
  -28.6224  -19.5353   19.2827 C   0  0  0  0  0  0
  -28.7848  -18.1025   19.3866 C   0  0  0  0  0  0
  -29.3078  -20.4435   20.1384 C   0  0  0  0  0  0
  -29.6661  -17.5078   20.3576 C   0  0  0  0  0  0
  -28.0836  -15.8572   16.2635 C   0  0  0  0  0  0
  -30.2000  -25.1176   19.5854 C   0  0  0  0  0  0
  -28.1848  -24.8192   18.1951 C   0  0  0  0  0  0
  -28.0042  -17.2350   18.4100 C   0  0  0  0  0  0
  -29.4074  -22.0546   19.8253 C   0  0  0  0  0  0
  -28.8828  -16.6904   17.2728 C   0  0  0  0  0  0
  -28.5074  -23.3666   20.3544 C   0  0  0  0  0  0
  -28.6781  -24.8879   19.6535 C   0  0  0  0  0  0
  -30.1435  -19.8185   21.0460 N   0  0  0  0  0  0
  -30.2980  -18.4476   21.1541 N   0  0  0  0  0  0
  -29.6491  -16.0022   20.5683 N   0  0  0  0  0  0
  -31.4820  -12.7216   19.1764 H   0  0  0  0  0  0
  -30.4426  -11.5921   20.0012 H   0  0  0  0  0  0
  -29.8330  -11.7369   17.5593 H   0  0  0  0  0  0
  -29.6110  -13.4619   17.7005 H   0  0  0  0  0  0
  -27.9501  -11.2630   18.9681 H   0  0  0  0  0  0
  -27.3901  -12.4471   17.8153 H   0  0  0  0  0  0
  -27.6052  -14.2311   19.4210 H   0  0  0  0  0  0
  -28.7551  -12.2375   21.4351 H   0  0  0  0  0  0
  -28.3841  -13.9075   21.7774 H   0  0  0  0  0  0
  -25.2767   -9.5668   22.4759 H   0  0  0  0  0  0
  -24.0000   -7.4625   22.7466 H   0  0  0  0  0  0
  -21.0841   -8.8778   19.8952 H   0  0  0  0  0  0
  -22.3711  -10.9670   19.6164 H   0  0  0  0  0  0
  -21.2010   -7.6146   23.9721 H   0  0  0  0  0  0
  -21.1479   -6.0523   25.9082 H   0  0  0  0  0  0
  -22.0596   -2.7609   23.2848 H   0  0  0  0  0  0
  -22.4072  -11.9875   22.4838 H   0  0  0  0  0  0
  -21.1070  -13.1239   22.2638 H   0  0  0  0  0  0
  -24.6305  -15.8274   20.5303 H   0  0  0  0  0  0
  -26.2402  -15.6444   20.0659 H   0  0  0  0  0  0
  -26.7249  -32.5319   23.0982 H   0  0  0  0  0  0
  -25.0087  -33.9614   25.0325 H   0  0  0  0  0  0
  -22.7411  -31.2866   21.3777 H   0  0  0  0  0  0
  -23.3759  -35.9579   23.3296 H   0  0  0  0  0  0
  -24.3576  -36.8891   22.2057 H   0  0  0  0  0  0
  -23.7253  -37.6445   23.6685 H   0  0  0  0  0  0
  -26.1412  -31.4884   20.6073 H   0  0  0  0  0  0
  -26.8633  -30.7807   22.0184 H   0  0  0  0  0  0
  -28.1241  -28.8458   21.2140 H   0  0  0  0  0  0
  -25.9190  -25.8141   19.0829 H   0  0  0  0  0  0
  -23.9776  -27.2621   19.0239 H   0  0  0  0  0  0
  -23.7975  -30.5617   19.3938 H   0  0  0  0  0  0
  -22.7799  -29.2277   19.8431 H   0  0  0  0  0  0
  -25.1311  -36.1846   25.0809 H   0  0  0  0  0  0
  -20.9992  -28.3300   24.1376 H   0  0  0  0  0  0
  -20.5679  -26.2318   23.3627 H   0  0  0  0  0  0
  -21.6648  -26.7431   22.1209 H   0  0  0  0  0  0
  -19.6918  -25.6298   21.1248 H   0  0  0  0  0  0
  -19.6697  -27.3198   20.6745 H   0  0  0  0  0  0
  -17.4207  -26.6676   21.4036 H   0  0  0  0  0  0
  -18.0336  -26.0086   22.9029 H   0  0  0  0  0  0
  -19.7953  -30.7290   24.2236 H   0  0  0  0  0  0
  -17.5032  -31.6271   24.5172 H   0  0  0  0  0  0
  -15.5365  -30.2988   23.7677 H   0  0  0  0  0  0
  -15.8683  -28.0835   22.7058 H   0  0  0  0  0  0
  -24.5927  -30.7064   25.7734 H   0  0  0  0  0  0
  -24.8921  -32.2910   26.4780 H   0  0  0  0  0  0
  -25.8047  -30.8949   27.0202 H   0  0  0  0  0  0
  -26.3003  -29.6671   24.1271 H   0  0  0  0  0  0
  -27.4057  -29.7262   25.4798 H   0  0  0  0  0  0
  -27.8889  -30.4206   23.9516 H   0  0  0  0  0  0
  -27.2678  -33.3636   26.1991 H   0  0  0  0  0  0
  -28.3918  -32.6830   25.0322 H   0  0  0  0  0  0
  -28.0702  -31.8471   26.5436 H   0  0  0  0  0  0
  -28.2587  -38.0079   24.7508 H   0  0  0  0  0  0
  -28.1070  -36.2606   24.6299 H   0  0  0  0  0  0
  -27.2287  -37.1427   25.8872 H   0  0  0  0  0  0
  -20.9441  -29.8735   21.6797 H   0  0  0  0  0  0
  -26.0146  -38.2806   24.1425 H   0  0  0  0  0  0
  -28.0004  -19.9440   18.4998 H   0  0  0  0  0  0
  -28.7239  -15.5063   15.4531 H   0  0  0  0  0  0
  -27.2786  -16.4442   15.8189 H   0  0  0  0  0  0
  -27.6389  -14.9802   16.7348 H   0  0  0  0  0  0
  -30.7136  -24.3412   19.0196 H   0  0  0  0  0  0
  -30.6388  -25.1397   20.5836 H   0  0  0  0  0  0
  -30.4418  -26.0643   19.0998 H   0  0  0  0  0  0
  -28.7974  -24.1393   17.6025 H   0  0  0  0  0  0
  -28.2275  -25.7939   17.7083 H   0  0  0  0  0  0
  -27.1679  -24.4393   18.1219 H   0  0  0  0  0  0
  -27.1864  -17.8192   17.9865 H   0  0  0  0  0  0
  -27.5265  -16.4213   18.9489 H   0  0  0  0  0  0
  -29.3809  -22.1032   18.7372 H   0  0  0  0  0  0
  -30.4413  -22.2927   20.0737 H   0  0  0  0  0  0
  -29.3607  -17.5221   16.7534 H   0  0  0  0  0  0
  -29.6896  -16.0812   17.6801 H   0  0  0  0  0  0
  -28.6904  -23.4673   21.4245 H   0  0  0  0  0  0
  -27.4544  -23.0944   20.2801 H   0  0  0  0  0  0
  -28.7144  -15.6668   20.7247 H   0  0  0  0  0  0
  1 25  1  0  0  0
  1 30  2  0  0  0
  1 85  1  0  0  0
  2  3  1  0  0  0
  2 25  1  0  0  0
  2 86  1  0  0  0
  2 87  1  0  0  0
  3  4  1  0  0  0
  3 88  1  0  0  0
  3 89  1  0  0  0
  4  5  1  0  0  0
  4 90  1  0  0  0
  4 91  1  0  0  0
  5  6  1  0  0  0
  5 26  1  0  0  0
  5 92  1  0  0  0
  6 25  1  0  0  0
  6 93  1  0  0  0
  6 94  1  0  0  0
  7  8  2  0  0  0
  7 26  1  0  0  0
  7 29  1  0  0  0
  8  9  1  0  0  0
  8 22  1  0  0  0
  9 10  1  0  0  0
  9 27  2  0  0  0
 10 11  2  0  0  0
 10 15  1  0  0  0
 11 12  1  0  0  0
 11 95  1  0  0  0
 12 13  2  0  0  0
 12 96  1  0  0  0
 13 14  1  0  0  0
 13 31  1  0  0  0
 14 15  2  0  0  0
 14 97  1  0  0  0
 15 98  1  0  0  0
 16 17  2  0  0  0
 16 21  1  0  0  0
 16 31  1  0  0  0
 17 18  1  0  0  0
 17 99  1  0  0  0
 18 19  2  0  0  0
 18100  1  0  0  0
 19 20  1  0  0  0
 19 24  1  0  0  0
 20 21  2  0  0  0
 20101  1  0  0  0
 21 23  1  0  0  0
 22 28  1  0  0  0
 22 32  2  0  0  0
 26 27  1  0  0  0
 28102  1  0  0  0
 28103  1  0  0  0
 29104  1  0  0  0
 29105  1  0  0  0
 33 34  1  0  0  0
 33 66  1  0  0  0
 33 70  2  0  0  0
 34 36  1  0  0  0
 34 59  1  0  0  0
 34106  1  0  0  0
 35 44  2  0  0  0
 35 45  1  0  0  0
 35 68  1  0  0  0
 36 56  1  0  0  0
 36107  1  0  0  0
 37 39  1  0  0  0
 37 47  1  0  0  0
 37 66  1  0  0  0
 37108  1  0  0  0
 38 43  2  0  0  0
 38 46  1  0  0  0
 38 47  1  0  0  0
 39 64  1  0  0  0
 39 67  2  0  0  0
 40 52  1  0  0  0
 40 53  2  0  0  0
 40 58  1  0  0  0
 41109  1  0  0  0
 41110  1  0  0  0
 41111  1  0  0  0
 41 48  1  0  0  0
 42 43  1  0  0  0
 42 66  1  0  0  0
 42112  1  0  0  0
 42113  1  0  0  0
 43 44  1  0  0  0
 44114  1  0  0  0
 45 46  2  0  0  0
 45115  1  0  0  0
 46116  1  0  0  0
 47117  1  0  0  0
 47118  1  0  0  0
 48 56  1  0  0  0
 48 65  1  0  0  0
 48119  1  0  0  0
 49 50  1  0  0  0
 49 53  1  0  0  0
 49 64  1  0  0  0
 49120  1  0  0  0
 50 51  1  0  0  0
 50121  1  0  0  0
 50122  1  0  0  0
 51 52  1  0  0  0
 51123  1  0  0  0
 51124  1  0  0  0
 52125  1  0  0  0
 52126  1  0  0  0
 53 54  1  0  0  0
 54 55  2  0  0  0
 54127  1  0  0  0
 55 57  1  0  0  0
 55128  1  0  0  0
 56 69  2  0  0  0
 57 58  2  0  0  0
 57129  1  0  0  0
 58130  1  0  0  0
 59 60  1  0  0  0
 59 61  1  0  0  0
 59 62  1  0  0  0
 60131  1  0  0  0
 60132  1  0  0  0
 60133  1  0  0  0
 61134  1  0  0  0
 61135  1  0  0  0
 61136  1  0  0  0
 62137  1  0  0  0
 62138  1  0  0  0
 62139  1  0  0  0
 63 65  1  0  0  0
 63140  1  0  0  0
 63141  1  0  0  0
 63142  1  0  0  0
 64143  1  0  0  0
 65144  1  0  0  0
 68 82  1  0  0  0
 71 72  2  0  0  0
 71 73  1  0  0  0
 71145  1  0  0  0
 72 74  1  0  0  0
 72 78  1  0  0  0
 73 79  1  0  0  0
 73 83  2  0  0  0
 74 84  2  0  0  0
 74 85  1  0  0  0
 75 80  1  0  0  0
 75146  1  0  0  0
 75147  1  0  0  0
 75148  1  0  0  0
 76149  1  0  0  0
 76150  1  0  0  0
 76151  1  0  0  0
 76 82  1  0  0  0
 77 82  1  0  0  0
 77152  1  0  0  0
 77153  1  0  0  0
 77154  1  0  0  0
 78 80  1  0  0  0
 78155  1  0  0  0
 78156  1  0  0  0
 79 81  1  0  0  0
 79157  1  0  0  0
 79158  1  0  0  0
 80159  1  0  0  0
 80160  1  0  0  0
 81 82  1  0  0  0
 81161  1  0  0  0
 81162  1  0  0  0
 83 84  1  0  0  0
 85163  1  0  0  0
M  ISO  4   1 100  68 101  82 101  85 100
M  END
> <chiral flag>
0

> <version>
0

> <s_m_source_file>
/data/baiqing/PycharmProjects/Reinvent-master-3.2/result/LINK_invent/BTK/process_docking_weight1_custom_sum_contain_oxygen_bond_distance_aromatic_linkinvent_7_9_3/rearranged_h_0087.sdf

> <i_m_source_file_index>
75

> <r_mmod_Potential_Energy-OPLS-2005>
387.430633544922

> <r_mmod_Stretch_Energy-OPLS-2005>
215.652526855469

> <r_mmod_Bend_Energy-OPLS-2005>
307.055023193359

> <r_mmod_Torsional_Energy-OPLS-2005>
235.858062744141

> <r_mmod_Improper_Torsional_Energy-OPLS-2005>
8.61869525909424

> <r_mmod_Van_der_Waal_Energy-OPLS-2005>
120.190574645996

> <r_mmod_Electrostatic_Energy-OPLS-2005>
-423.432037353516

> <r_mmod_Solvation_Energy-OPLS-2005>
-235.50244140625

> <b_mmod_Minimization_Converged-OPLS-2005>
0

> <r_mmod_RMS_Derivative-OPLS-2005>
1.45432269573212

$$$$
76
                    3D
 Structure written by MMmdl.
182190  0  0  1  0            999 V2000
  -30.7802  -14.4614   20.5428 C   0  0  0  0  0  0
  -30.3970  -12.3011   19.4228 C   0  0  0  0  0  0
  -29.4808  -12.4822   18.2011 C   0  0  0  0  0  0
  -28.0022  -12.3495   18.6045 C   0  0  0  0  0  0
  -27.6483  -13.1877   19.8615 C   0  0  2  0  0  0
  -28.7047  -13.0256   20.9859 C   0  0  0  0  0  0
  -25.2559  -13.8064   20.5632 C   0  0  0  0  0  0
  -24.1815  -13.0380   20.9159 C   0  0  0  0  0  0
  -24.6341  -11.6833   20.8751 C   0  0  0  0  0  0
  -23.8994  -10.4236   21.0415 C   0  0  0  0  0  0
  -24.3552   -9.4168   21.9202 C   0  0  0  0  0  0
  -23.6230   -8.2206   22.0782 C   0  0  0  0  0  0
  -22.4231   -8.0231   21.3544 C   0  0  0  0  0  0
  -21.9853   -9.0206   20.4656 C   0  0  0  0  0  0
  -22.7167  -10.2089   20.3064 C   0  0  0  0  0  0
  -21.6851   -6.0668   22.5246 C   0  0  0  0  0  0
  -21.4010   -6.5586   23.8175 C   0  0  0  0  0  0
  -21.3673   -5.6763   24.9147 C   0  0  0  0  0  0
  -21.6067   -4.3031   24.7231 C   0  0  0  0  0  0
  -21.8813   -3.8091   23.4359 C   0  0  0  0  0  0
  -21.9197   -4.6887   22.3392 C   0  0  0  0  0  0
  -22.7857  -13.5223   21.1756 C   0  0  0  0  0  0
  -22.1653   -4.2059   21.0982 F   0  0  0  0  0  0
  -21.5662   -3.4528   25.7757 F   0  0  0  0  0  0
  -30.0232  -13.3312   20.4099 N   0  0  0  0  0  0
  -26.2955  -12.9177   20.3326 N   0  0  0  0  0  0
  -25.9263  -11.6356   20.5779 N   0  0  0  0  0  0
  -22.0491  -12.8312   22.0354 N   0  0  0  0  0  0
  -25.4352  -15.1780   20.3948 N   0  0  0  0  0  0
  -31.9302  -14.4779   20.1112 O   0  0  0  0  0  0
  -21.6636   -6.8812   21.4201 O   0  0  0  0  0  0
  -22.3575  -14.5499   20.6518 O   0  0  0  0  0  0
  -24.6132  -31.8713   23.2155 C   0  0  0  0  0  0
  -25.9053  -32.4841   23.8431 C   0  0  1  0  0  0
  -27.2305  -27.4631   20.0694 C   0  0  0  0  0  0
  -25.5908  -33.8635   24.2349 N   0  0  0  0  0  0
  -23.3989  -30.5011   21.5521 C   0  0  2  0  0  0
  -24.8411  -28.9767   20.1128 C   0  0  0  0  0  0
  -22.7410  -29.4690   22.4959 C   0  0  0  0  0  0
  -18.0297  -28.1406   22.8508 C   0  0  0  0  0  0
  -24.1500  -36.7353   23.2630 C   0  0  0  0  0  0
  -25.9285  -30.8438   21.3650 C   0  0  0  0  0  0
  -26.0013  -29.4828   20.7075 C   0  0  0  0  0  0
  -27.1955  -28.7304   20.6873 C   0  0  0  0  0  0
  -26.0439  -26.9692   19.4713 C   0  0  0  0  0  0
  -24.8542  -27.7157   19.4971 C   0  0  0  0  0  0
  -23.6085  -29.8473   20.1615 C   0  0  0  0  0  0
  -25.4113  -36.3121   24.0334 C   0  0  1  0  0  0
  -20.5887  -28.3686   23.1328 C   0  0  2  0  0  0
  -20.6784  -26.9422   22.5422 C   0  0  0  0  0  0
  -19.5747  -26.6404   21.5238 C   0  0  0  0  0  0
  -18.1930  -26.7956   22.1644 C   0  0  0  0  0  0
  -19.1546  -28.8862   23.2923 C   0  0  0  0  0  0
  -18.9458  -30.1471   23.8934 C   0  0  0  0  0  0
  -17.6451  -30.6596   24.0592 C   0  0  0  0  0  0
  -25.9038  -34.9480   23.5134 C   0  0  0  0  0  0
  -16.5350  -29.9101   23.6340 C   0  0  0  0  0  0
  -16.7282  -28.6536   23.0332 C   0  0  0  0  0  0
  -26.4464  -31.6616   25.0756 C   0  0  0  0  0  0
  -25.3709  -31.3717   26.1484 C   0  0  0  0  0  0
  -27.0295  -30.3072   24.6117 C   0  0  0  0  0  0
  -27.6066  -32.4299   25.7502 C   0  0  0  0  0  0
  -27.5594  -37.1830   24.8451 C   0  0  0  0  0  0
  -21.4135  -29.3062   22.3729 N   0  0  0  0  0  0
  -26.4308  -37.3799   23.9399 N   0  0  0  0  0  0
  -24.6659  -31.0856   22.1035 N   0  0  0  0  0  0
  -23.4215  -28.8222   23.2962 O   0  0  0  0  0  0
  -28.4195  -26.7606   20.0987 O   0  0  0  0  0  0
  -26.5584  -34.8911   22.4685 O   0  0  0  0  0  0
  -23.5341  -32.1461   23.7577 O   0  0  0  0  0  0
  -28.3566  -19.7901   23.1045 C   0  0  0  0  0  0
  -29.2601  -21.4154   21.5694 C   0  0  0  0  0  0
  -29.4641  -20.3013   22.3969 C   0  0  0  0  0  0
  -27.0962  -20.3947   22.9154 C   0  0  0  0  0  0
  -27.9634  -21.9204   21.4064 C   0  0  0  0  0  0
  -25.1734  -18.7561   22.7776 C   0  0  0  0  0  0
  -28.8888  -16.5869   19.3140 C   0  0  0  0  0  0
  -31.8821  -19.7941   20.1349 C   0  0  0  0  0  0
  -26.9092  -24.9473   21.8843 C   0  0  0  0  0  0
  -32.9532  -17.1397   20.3448 C   0  0  0  0  0  0
  -30.8333  -19.6414   22.4665 C   0  0  0  0  0  0
  -25.8583  -19.8531   23.6039 C   0  0  0  0  0  0
  -27.7127  -23.0379   20.4168 C   0  0  0  0  0  0
  -29.0008  -16.2169   20.8098 C   0  0  0  0  0  0
  -31.1424  -16.3822   22.0666 C   0  0  0  0  0  0
  -28.4155  -25.3683   19.7812 C   0  0  0  0  0  0
  -31.1933  -18.8679   21.1657 C   0  0  2  0  0  0
  -28.0402  -24.4402   20.9661 C   0  0  1  0  0  0
  -31.9986  -17.5665   21.4766 C   0  0  2  0  0  0
  -26.8980  -21.4281   22.0707 N   0  0  0  0  0  0
  -30.2823  -15.5716   21.1608 N   0  0  0  0  0  0
  -31.4407  -12.3521   19.1077 H   0  0  0  0  0  0
  -30.2784  -11.3049   19.8505 H   0  0  0  0  0  0
  -29.7214  -11.7478   17.4321 H   0  0  0  0  0  0
  -29.6556  -13.4641   17.7599 H   0  0  0  0  0  0
  -27.7854  -11.2957   18.7777 H   0  0  0  0  0  0
  -27.3702  -12.6494   17.7683 H   0  0  0  0  0  0
  -27.6552  -14.2155   19.5183 H   0  0  0  0  0  0
  -28.7024  -12.0007   21.3589 H   0  0  0  0  0  0
  -28.4845  -13.6388   21.8577 H   0  0  0  0  0  0
  -25.2687   -9.5655   22.4808 H   0  0  0  0  0  0
  -23.9910   -7.4595   22.7532 H   0  0  0  0  0  0
  -21.0782   -8.8691   19.8985 H   0  0  0  0  0  0
  -22.3574  -10.9622   19.6199 H   0  0  0  0  0  0
  -21.1976   -7.6092   23.9635 H   0  0  0  0  0  0
  -21.1541   -6.0514   25.9047 H   0  0  0  0  0  0
  -22.0600   -2.7548   23.2883 H   0  0  0  0  0  0
  -22.4034  -11.9955   22.4773 H   0  0  0  0  0  0
  -21.1110  -13.1399   22.2494 H   0  0  0  0  0  0
  -24.6757  -15.8397   20.5089 H   0  0  0  0  0  0
  -26.2775  -15.6079   20.0375 H   0  0  0  0  0  0
  -26.7129  -32.5562   23.1195 H   0  0  0  0  0  0
  -25.0087  -33.9812   25.0512 H   0  0  0  0  0  0
  -22.6884  -31.3198   21.4196 H   0  0  0  0  0  0
  -23.3742  -35.9704   23.3285 H   0  0  0  0  0  0
  -24.3613  -36.8988   22.2050 H   0  0  0  0  0  0
  -23.7281  -37.6566   23.6655 H   0  0  0  0  0  0
  -26.0399  -31.6105   20.5980 H   0  0  0  0  0  0
  -26.8169  -30.8954   21.9806 H   0  0  0  0  0  0
  -28.0914  -29.1134   21.1577 H   0  0  0  0  0  0
  -25.9931  -26.0072   18.9890 H   0  0  0  0  0  0
  -23.9594  -27.3196   19.0379 H   0  0  0  0  0  0
  -23.7298  -30.6301   19.4114 H   0  0  0  0  0  0
  -22.7282  -29.2781   19.8567 H   0  0  0  0  0  0
  -25.1284  -36.1991   25.0830 H   0  0  0  0  0  0
  -21.0028  -28.3250   24.1426 H   0  0  0  0  0  0
  -20.5758  -26.2277   23.3597 H   0  0  0  0  0  0
  -21.6638  -26.7495   22.1158 H   0  0  0  0  0  0
  -19.6901  -25.6324   21.1251 H   0  0  0  0  0  0
  -19.6688  -27.3224   20.6778 H   0  0  0  0  0  0
  -17.4209  -26.6758   21.4027 H   0  0  0  0  0  0
  -18.0296  -26.0088   22.9028 H   0  0  0  0  0  0
  -19.7919  -30.7302   24.2303 H   0  0  0  0  0  0
  -17.4991  -31.6274   24.5187 H   0  0  0  0  0  0
  -15.5356  -30.2996   23.7631 H   0  0  0  0  0  0
  -15.8694  -28.0875   22.6974 H   0  0  0  0  0  0
  -24.5878  -30.7086   25.7795 H   0  0  0  0  0  0
  -24.8894  -32.2865   26.4934 H   0  0  0  0  0  0
  -25.8021  -30.8862   27.0245 H   0  0  0  0  0  0
  -26.2865  -29.6835   24.1141 H   0  0  0  0  0  0
  -27.4060  -29.7297   25.4569 H   0  0  0  0  0  0
  -27.8680  -30.4416   23.9285 H   0  0  0  0  0  0
  -27.2739  -33.3583   26.2131 H   0  0  0  0  0  0
  -28.3832  -32.6876   25.0299 H   0  0  0  0  0  0
  -28.0764  -31.8383   26.5351 H   0  0  0  0  0  0
  -28.2580  -38.0156   24.7517 H   0  0  0  0  0  0
  -28.1120  -36.2690   24.6238 H   0  0  0  0  0  0
  -27.2325  -37.1440   25.8856 H   0  0  0  0  0  0
  -20.9276  -29.8826   21.6994 H   0  0  0  0  0  0
  -26.0198  -38.2887   24.1360 H   0  0  0  0  0  0
  -28.4620  -18.9375   23.7622 H   0  0  0  0  0  0
  -30.0735  -21.8707   21.0300 H   0  0  0  0  0  0
  -24.2732  -18.3932   23.2745 H   0  0  0  0  0  0
  -25.8396  -17.9067   22.6267 H   0  0  0  0  0  0
  -24.8862  -19.1319   21.7941 H   0  0  0  0  0  0
  -27.9079  -17.0115   19.0995 H   0  0  0  0  0  0
  -29.0232  -15.7296   18.6560 H   0  0  0  0  0  0
  -29.6269  -17.3300   19.0209 H   0  0  0  0  0  0
  -31.2735  -20.6500   19.8622 H   0  0  0  0  0  0
  -32.0537  -19.2852   19.1864 H   0  0  0  0  0  0
  -32.8337  -20.1770   20.4997 H   0  0  0  0  0  0
  -26.7715  -24.2838   22.7387 H   0  0  0  0  0  0
  -25.9586  -24.9950   21.3563 H   0  0  0  0  0  0
  -27.1290  -25.9353   22.2882 H   0  0  0  0  0  0
  -33.5612  -16.2907   20.6571 H   0  0  0  0  0  0
  -33.6706  -17.9147   20.0755 H   0  0  0  0  0  0
  -32.4077  -16.8654   19.4412 H   0  0  0  0  0  0
  -30.8372  -18.9734   23.3285 H   0  0  0  0  0  0
  -31.5902  -20.3940   22.6907 H   0  0  0  0  0  0
  -25.1538  -20.6708   23.7647 H   0  0  0  0  0  0
  -26.1250  -19.4791   24.5935 H   0  0  0  0  0  0
  -26.6826  -22.9921   20.0594 H   0  0  0  0  0  0
  -28.3283  -22.8281   19.5397 H   0  0  0  0  0  0
  -28.1585  -15.6121   21.1243 H   0  0  0  0  0  0
  -28.8602  -17.1283   21.3905 H   0  0  0  0  0  0
  -30.5157  -16.7539   22.8754 H   0  0  0  0  0  0
  -31.8272  -15.6958   22.5693 H   0  0  0  0  0  0
  -27.8402  -25.1430   18.8842 H   0  0  0  0  0  0
  -29.4389  -25.1247   19.4893 H   0  0  0  0  0  0
  -30.2609  -18.5732   20.6985 H   0  0  0  0  0  0
  -28.9377  -24.3645   21.5812 H   0  0  0  0  0  0
  -32.6823  -17.8503   22.2794 H   0  0  0  0  0  0
  1 25  1  0  0  0
  1 30  2  0  0  0
  1 91  1  0  0  0
  2  3  1  0  0  0
  2 25  1  0  0  0
  2 92  1  0  0  0
  2 93  1  0  0  0
  3  4  1  0  0  0
  3 94  1  0  0  0
  3 95  1  0  0  0
  4  5  1  0  0  0
  4 96  1  0  0  0
  4 97  1  0  0  0
  5  6  1  0  0  0
  5 26  1  0  0  0
  5 98  1  0  0  0
  6 25  1  0  0  0
  6 99  1  0  0  0
  6100  1  0  0  0
  7  8  2  0  0  0
  7 26  1  0  0  0
  7 29  1  0  0  0
  8  9  1  0  0  0
  8 22  1  0  0  0
  9 10  1  0  0  0
  9 27  2  0  0  0
 10 11  2  0  0  0
 10 15  1  0  0  0
 11 12  1  0  0  0
 11101  1  0  0  0
 12 13  2  0  0  0
 12102  1  0  0  0
 13 14  1  0  0  0
 13 31  1  0  0  0
 14 15  2  0  0  0
 14103  1  0  0  0
 15104  1  0  0  0
 16 17  2  0  0  0
 16 21  1  0  0  0
 16 31  1  0  0  0
 17 18  1  0  0  0
 17105  1  0  0  0
 18 19  2  0  0  0
 18106  1  0  0  0
 19 20  1  0  0  0
 19 24  1  0  0  0
 20 21  2  0  0  0
 20107  1  0  0  0
 21 23  1  0  0  0
 22 28  1  0  0  0
 22 32  2  0  0  0
 26 27  1  0  0  0
 28108  1  0  0  0
 28109  1  0  0  0
 29110  1  0  0  0
 29111  1  0  0  0
 33 34  1  0  0  0
 33 66  1  0  0  0
 33 70  2  0  0  0
 34 36  1  0  0  0
 34 59  1  0  0  0
 34112  1  0  0  0
 35 44  2  0  0  0
 35 45  1  0  0  0
 35 68  1  0  0  0
 36 56  1  0  0  0
 36113  1  0  0  0
 37 39  1  0  0  0
 37 47  1  0  0  0
 37 66  1  0  0  0
 37114  1  0  0  0
 38 43  2  0  0  0
 38 46  1  0  0  0
 38 47  1  0  0  0
 39 64  1  0  0  0
 39 67  2  0  0  0
 40 52  1  0  0  0
 40 53  2  0  0  0
 40 58  1  0  0  0
 41115  1  0  0  0
 41116  1  0  0  0
 41117  1  0  0  0
 41 48  1  0  0  0
 42 43  1  0  0  0
 42 66  1  0  0  0
 42118  1  0  0  0
 42119  1  0  0  0
 43 44  1  0  0  0
 44120  1  0  0  0
 45 46  2  0  0  0
 45121  1  0  0  0
 46122  1  0  0  0
 47123  1  0  0  0
 47124  1  0  0  0
 48 56  1  0  0  0
 48 65  1  0  0  0
 48125  1  0  0  0
 49 50  1  0  0  0
 49 53  1  0  0  0
 49 64  1  0  0  0
 49126  1  0  0  0
 50 51  1  0  0  0
 50127  1  0  0  0
 50128  1  0  0  0
 51 52  1  0  0  0
 51129  1  0  0  0
 51130  1  0  0  0
 52131  1  0  0  0
 52132  1  0  0  0
 53 54  1  0  0  0
 54 55  2  0  0  0
 54133  1  0  0  0
 55 57  1  0  0  0
 55134  1  0  0  0
 56 69  2  0  0  0
 57 58  2  0  0  0
 57135  1  0  0  0
 58136  1  0  0  0
 59 60  1  0  0  0
 59 61  1  0  0  0
 59 62  1  0  0  0
 60137  1  0  0  0
 60138  1  0  0  0
 60139  1  0  0  0
 61140  1  0  0  0
 61141  1  0  0  0
 61142  1  0  0  0
 62143  1  0  0  0
 62144  1  0  0  0
 62145  1  0  0  0
 63 65  1  0  0  0
 63146  1  0  0  0
 63147  1  0  0  0
 63148  1  0  0  0
 64149  1  0  0  0
 65150  1  0  0  0
 68 86  1  0  0  0
 71 73  2  0  0  0
 71 74  1  0  0  0
 71151  1  0  0  0
 72 73  1  0  0  0
 72 75  2  0  0  0
 72152  1  0  0  0
 73 81  1  0  0  0
 74 82  1  0  0  0
 74 90  2  0  0  0
 75 83  1  0  0  0
 75 90  1  0  0  0
 76 82  1  0  0  0
 76153  1  0  0  0
 76154  1  0  0  0
 76155  1  0  0  0
 77 84  1  0  0  0
 77156  1  0  0  0
 77157  1  0  0  0
 77158  1  0  0  0
 78159  1  0  0  0
 78160  1  0  0  0
 78161  1  0  0  0
 78 87  1  0  0  0
 79162  1  0  0  0
 79163  1  0  0  0
 79164  1  0  0  0
 79 88  1  0  0  0
 80165  1  0  0  0
 80166  1  0  0  0
 80167  1  0  0  0
 80 89  1  0  0  0
 81 87  1  0  0  0
 81168  1  0  0  0
 81169  1  0  0  0
 82170  1  0  0  0
 82171  1  0  0  0
 83 88  1  0  0  0
 83172  1  0  0  0
 83173  1  0  0  0
 84 91  1  0  0  0
 84174  1  0  0  0
 84175  1  0  0  0
 85 89  1  0  0  0
 85 91  1  0  0  0
 85176  1  0  0  0
 85177  1  0  0  0
 86 88  1  0  0  0
 86178  1  0  0  0
 86179  1  0  0  0
 87 89  1  0  0  0
 87180  1  0  0  0
 88181  1  0  0  0
 89182  1  0  0  0
M  ISO  4   1 100  68 101  86 101  91 100
M  END
> <chiral flag>
0

> <version>
0

> <s_m_source_file>
/data/baiqing/PycharmProjects/Reinvent-master-3.2/result/LINK_invent/BTK/process_docking_weight1_custom_sum_contain_oxygen_bond_distance_aromatic_linkinvent_7_9_3/rearranged_h_0087.sdf

> <i_m_source_file_index>
76

> <r_mmod_Potential_Energy-OPLS-2005>
48.0608596801758

> <r_mmod_Stretch_Energy-OPLS-2005>
43.2944107055664

> <r_mmod_Bend_Energy-OPLS-2005>
135.576126098633

> <r_mmod_Torsional_Energy-OPLS-2005>
296.035003662109

> <r_mmod_Improper_Torsional_Energy-OPLS-2005>
2.25351047515869

> <r_mmod_Van_der_Waal_Energy-OPLS-2005>
171.361068725586

> <r_mmod_Electrostatic_Energy-OPLS-2005>
-433.009307861328

> <r_mmod_Solvation_Energy-OPLS-2005>
-188.090805053711

> <b_mmod_Minimization_Converged-OPLS-2005>
0

> <r_mmod_RMS_Derivative-OPLS-2005>
4.01592826843262

$$$$
77
                    3D
 Structure written by MMmdl.
172180  0  0  1  0            999 V2000
  -30.6011  -14.7205   20.4838 C   0  0  0  0  0  0
  -30.4338  -12.4382   19.4826 C   0  0  0  0  0  0
  -29.5119  -12.5145   18.2440 C   0  0  0  0  0  0
  -28.0380  -12.3353   18.6569 C   0  0  0  0  0  0
  -27.6478  -13.2259   19.8669 C   0  0  2  0  0  0
  -28.6896  -13.1325   21.0053 C   0  0  0  0  0  0
  -25.2531  -13.8177   20.5703 C   0  0  0  0  0  0
  -24.1818  -13.0433   20.9214 C   0  0  0  0  0  0
  -24.6403  -11.6913   20.8772 C   0  0  0  0  0  0
  -23.9078  -10.4293   21.0423 C   0  0  0  0  0  0
  -24.3627   -9.4210   21.9200 C   0  0  0  0  0  0
  -23.6305   -8.2244   22.0755 C   0  0  0  0  0  0
  -22.4285   -8.0286   21.3552 C   0  0  0  0  0  0
  -21.9922   -9.0257   20.4652 C   0  0  0  0  0  0
  -22.7251  -10.2141   20.3067 C   0  0  0  0  0  0
  -21.6846   -6.0745   22.5277 C   0  0  0  0  0  0
  -21.4018   -6.5649   23.8217 C   0  0  0  0  0  0
  -21.3662   -5.6802   24.9179 C   0  0  0  0  0  0
  -21.6034   -4.3061   24.7225 C   0  0  0  0  0  0
  -21.8823   -3.8155   23.4348 C   0  0  0  0  0  0
  -21.9200   -4.6971   22.3407 C   0  0  0  0  0  0
  -22.7846  -13.5225   21.1865 C   0  0  0  0  0  0
  -22.1664   -4.2159   21.0981 F   0  0  0  0  0  0
  -21.5622   -3.4538   25.7738 F   0  0  0  0  0  0
  -29.9959  -13.4854   20.4347 N   0  0  0  0  0  0
  -26.2970  -12.9380   20.3359 N   0  0  0  0  0  0
  -25.9340  -11.6525   20.5803 N   0  0  0  0  0  0
  -22.0497  -12.8210   22.0421 N   0  0  0  0  0  0
  -25.4223  -15.1894   20.4071 N   0  0  0  0  0  0
  -31.7663  -14.8556   20.1007 O   0  0  0  0  0  0
  -21.6644   -6.8890   21.4245 O   0  0  0  0  0  0
  -22.3537  -14.5547   20.6730 O   0  0  0  0  0  0
  -24.6320  -31.8527   23.1979 C   0  0  0  0  0  0
  -25.9141  -32.4732   23.8325 C   0  0  1  0  0  0
  -27.2283  -27.2526   20.1337 C   0  0  0  0  0  0
  -25.5921  -33.8529   24.2256 N   0  0  0  0  0  0
  -23.4288  -30.4770   21.5398 C   0  0  2  0  0  0
  -24.8778  -28.9197   20.1116 C   0  0  0  0  0  0
  -22.7486  -29.4613   22.4891 C   0  0  0  0  0  0
  -18.0296  -28.1363   22.8454 C   0  0  0  0  0  0
  -24.1481  -36.7297   23.2636 C   0  0  0  0  0  0
  -25.9741  -30.7640   21.3795 C   0  0  0  0  0  0
  -26.0498  -29.3859   20.7220 C   0  0  0  0  0  0
  -27.2260  -28.5670   20.7189 C   0  0  0  0  0  0
  -26.0313  -26.8573   19.4921 C   0  0  0  0  0  0
  -24.8757  -27.6640   19.4831 C   0  0  0  0  0  0
  -23.6490  -29.8075   20.1572 C   0  0  0  0  0  0
  -25.4107  -36.3067   24.0325 C   0  0  1  0  0  0
  -20.5895  -28.3698   23.1225 C   0  0  2  0  0  0
  -20.6774  -26.9406   22.5376 C   0  0  0  0  0  0
  -19.5759  -26.6358   21.5159 C   0  0  0  0  0  0
  -18.1940  -26.7899   22.1577 C   0  0  0  0  0  0
  -19.1548  -28.8837   23.2836 C   0  0  0  0  0  0
  -18.9469  -30.1428   23.8868 C   0  0  0  0  0  0
  -17.6472  -30.6557   24.0548 C   0  0  0  0  0  0
  -25.9043  -34.9426   23.5092 C   0  0  0  0  0  0
  -16.5365  -29.9062   23.6307 C   0  0  0  0  0  0
  -16.7279  -28.6471   23.0342 C   0  0  0  0  0  0
  -26.4499  -31.6560   25.0709 C   0  0  0  0  0  0
  -25.3711  -31.3705   26.1425 C   0  0  0  0  0  0
  -27.0364  -30.2972   24.6206 C   0  0  0  0  0  0
  -27.6054  -32.4313   25.7479 C   0  0  0  0  0  0
  -27.5586  -37.1800   24.8453 C   0  0  0  0  0  0
  -21.4204  -29.3055   22.3618 N   0  0  0  0  0  0
  -26.4292  -37.3764   23.9404 N   0  0  0  0  0  0
  -24.6976  -31.0489   22.0956 N   0  0  0  0  0  0
  -23.4159  -28.8138   23.3001 O   0  0  0  0  0  0
  -28.3260  -26.3567   20.1978 O   0  0  0  0  0  0
  -26.5623  -34.8892   22.4667 O   0  0  0  0  0  0
  -23.5479  -32.1362   23.7274 O   0  0  0  0  0  0
  -29.2496  -21.2200   21.2235 C   0  0  0  0  0  0
  -29.2183  -19.9534   20.6145 C   0  0  0  0  0  0
  -29.0373  -21.6233   19.0722 C   0  0  0  0  0  0
  -27.7339  -19.6971   14.9851 C   0  0  0  0  0  0
  -30.1278  -20.2601   15.5458 C   0  0  0  0  0  0
  -27.7015  -18.0365   21.1578 C   0  0  0  0  0  0
  -29.6783  -18.4536   22.6088 C   0  0  0  0  0  0
  -29.0316  -22.2632   17.7096 C   0  0  0  0  0  0
  -28.1869  -21.5685   16.6160 C   0  0  0  0  0  0
  -29.2759  -23.7967   20.4450 C   0  0  0  0  0  0
  -30.0293  -17.2960   20.3841 C   0  0  0  0  0  0
  -28.0838  -24.8632   20.1562 C   0  0  0  0  0  0
  -28.6858  -20.2047   16.0788 C   0  0  0  0  0  0
  -29.1847  -18.4520   21.1516 C   0  0  0  0  0  0
  -29.1290  -22.2488   20.2680 N   0  0  0  0  0  0
  -29.0613  -20.2884   19.2913 N   0  3  0  0  0  0
  -29.8101  -15.8231   20.7540 N   0  0  0  0  0  0
  -31.4770  -12.5589   19.1862 H   0  0  0  0  0  0
  -30.3696  -11.4531   19.9475 H   0  0  0  0  0  0
  -29.7902  -11.7509   17.5157 H   0  0  0  0  0  0
  -29.6403  -13.4770   17.7465 H   0  0  0  0  0  0
  -27.8966  -11.2848   18.9143 H   0  0  0  0  0  0
  -27.3771  -12.5324   17.8113 H   0  0  0  0  0  0
  -27.6525  -14.2526   19.5010 H   0  0  0  0  0  0
  -28.7183  -12.1273   21.4283 H   0  0  0  0  0  0
  -28.4275  -13.7974   21.8298 H   0  0  0  0  0  0
  -25.2763   -9.5674   22.4781 H   0  0  0  0  0  0
  -24.0009   -7.4626   22.7466 H   0  0  0  0  0  0
  -21.0852   -8.8796   19.8951 H   0  0  0  0  0  0
  -22.3724  -10.9692   19.6181 H   0  0  0  0  0  0
  -21.2020   -7.6151   23.9728 H   0  0  0  0  0  0
  -21.1469   -6.0525   25.9086 H   0  0  0  0  0  0
  -22.0603   -2.7611   23.2847 H   0  0  0  0  0  0
  -22.4124  -11.9853   22.4759 H   0  0  0  0  0  0
  -21.1134  -13.1247   22.2668 H   0  0  0  0  0  0
  -24.6442  -15.8344   20.4963 H   0  0  0  0  0  0
  -26.2569  -15.6249   20.0380 H   0  0  0  0  0  0
  -26.7195  -32.5407   23.1065 H   0  0  0  0  0  0
  -25.0039  -33.9621   25.0391 H   0  0  0  0  0  0
  -22.7265  -31.3005   21.3926 H   0  0  0  0  0  0
  -23.3741  -35.9634   23.3292 H   0  0  0  0  0  0
  -24.3576  -36.8929   22.2052 H   0  0  0  0  0  0
  -23.7223  -37.6485   23.6686 H   0  0  0  0  0  0
  -26.1121  -31.5234   20.6101 H   0  0  0  0  0  0
  -26.8513  -30.8178   22.0118 H   0  0  0  0  0  0
  -28.1209  -28.9212   21.2121 H   0  0  0  0  0  0
  -25.9593  -25.9015   18.9953 H   0  0  0  0  0  0
  -23.9805  -27.3054   18.9933 H   0  0  0  0  0  0
  -23.7684  -30.5815   19.3966 H   0  0  0  0  0  0
  -22.7680  -29.2371   19.8584 H   0  0  0  0  0  0
  -25.1280  -36.1939   25.0818 H   0  0  0  0  0  0
  -20.9962  -28.3307   24.1359 H   0  0  0  0  0  0
  -20.5605  -26.2318   23.3594 H   0  0  0  0  0  0
  -21.6654  -26.7393   22.1211 H   0  0  0  0  0  0
  -19.6922  -25.6252   21.1219 H   0  0  0  0  0  0
  -19.6712  -27.3132   20.6658 H   0  0  0  0  0  0
  -17.4197  -26.6599   21.4001 H   0  0  0  0  0  0
  -18.0405  -26.0040   22.8983 H   0  0  0  0  0  0
  -19.7956  -30.7215   24.2251 H   0  0  0  0  0  0
  -17.5053  -31.6242   24.5134 H   0  0  0  0  0  0
  -15.5373  -30.2964   23.7644 H   0  0  0  0  0  0
  -15.8676  -28.0771   22.7100 H   0  0  0  0  0  0
  -24.5903  -30.7011   25.7774 H   0  0  0  0  0  0
  -24.8845  -32.2848   26.4826 H   0  0  0  0  0  0
  -25.8008  -30.8905   27.0220 H   0  0  0  0  0  0
  -26.2939  -29.6706   24.1228 H   0  0  0  0  0  0
  -27.4042  -29.7247   25.4738 H   0  0  0  0  0  0
  -27.8826  -30.4244   23.9455 H   0  0  0  0  0  0
  -27.2666  -33.3651   26.2004 H   0  0  0  0  0  0
  -28.3893  -32.6825   25.0316 H   0  0  0  0  0  0
  -28.0700  -31.8464   26.5432 H   0  0  0  0  0  0
  -28.2584  -38.0124   24.7539 H   0  0  0  0  0  0
  -28.1114  -36.2645   24.6261 H   0  0  0  0  0  0
  -27.2303  -37.1418   25.8858 H   0  0  0  0  0  0
  -20.9404  -29.8806   21.6850 H   0  0  0  0  0  0
  -26.0184  -38.2839   24.1424 H   0  0  0  0  0  0
  -29.3590  -21.4583   22.2729 H   0  0  0  0  0  0
  -28.0321  -18.7123   14.6231 H   0  0  0  0  0  0
  -27.7215  -20.3738   14.1301 H   0  0  0  0  0  0
  -26.7105  -19.6133   15.3559 H   0  0  0  0  0  0
  -30.4225  -19.2956   15.1296 H   0  0  0  0  0  0
  -30.8454  -20.4955   16.3319 H   0  0  0  0  0  0
  -30.2407  -21.0071   14.7593 H   0  0  0  0  0  0
  -27.1068  -18.7227   21.7618 H   0  0  0  0  0  0
  -27.5519  -17.0409   21.5766 H   0  0  0  0  0  0
  -27.2821  -18.0376   20.1520 H   0  0  0  0  0  0
  -29.0749  -19.1051   23.2422 H   0  0  0  0  0  0
  -30.7129  -18.7923   22.6680 H   0  0  0  0  0  0
  -29.6373  -17.4532   23.0429 H   0  0  0  0  0  0
  -30.0736  -22.3697   17.4090 H   0  0  0  0  0  0
  -28.6505  -23.2700   17.8343 H   0  0  0  0  0  0
  -28.1324  -22.2532   15.7692 H   0  0  0  0  0  0
  -27.1588  -21.4719   16.9699 H   0  0  0  0  0  0
  -29.6291  -23.9560   21.4649 H   0  0  0  0  0  0
  -30.1236  -24.0759   19.8174 H   0  0  0  0  0  0
  -31.0937  -17.5193   20.4714 H   0  0  0  0  0  0
  -29.8079  -17.3656   19.3192 H   0  0  0  0  0  0
  -27.2930  -24.6522   20.8779 H   0  0  0  0  0  0
  -27.6639  -24.6265   19.1817 H   0  0  0  0  0  0
  -28.6593  -19.4619   16.8744 H   0  0  0  0  0  0
  -28.9877  -19.6057   18.5473 H   0  0  0  0  0  0
  -28.8845  -15.6000   21.0877 H   0  0  0  0  0  0
  1 25  1  0  0  0
  1 30  2  0  0  0
  1 87  1  0  0  0
  2  3  1  0  0  0
  2 25  1  0  0  0
  2 88  1  0  0  0
  2 89  1  0  0  0
  3  4  1  0  0  0
  3 90  1  0  0  0
  3 91  1  0  0  0
  4  5  1  0  0  0
  4 92  1  0  0  0
  4 93  1  0  0  0
  5  6  1  0  0  0
  5 26  1  0  0  0
  5 94  1  0  0  0
  6 25  1  0  0  0
  6 95  1  0  0  0
  6 96  1  0  0  0
  7  8  2  0  0  0
  7 26  1  0  0  0
  7 29  1  0  0  0
  8  9  1  0  0  0
  8 22  1  0  0  0
  9 10  1  0  0  0
  9 27  2  0  0  0
 10 11  2  0  0  0
 10 15  1  0  0  0
 11 12  1  0  0  0
 11 97  1  0  0  0
 12 13  2  0  0  0
 12 98  1  0  0  0
 13 14  1  0  0  0
 13 31  1  0  0  0
 14 15  2  0  0  0
 14 99  1  0  0  0
 15100  1  0  0  0
 16 17  2  0  0  0
 16 21  1  0  0  0
 16 31  1  0  0  0
 17 18  1  0  0  0
 17101  1  0  0  0
 18 19  2  0  0  0
 18102  1  0  0  0
 19 20  1  0  0  0
 19 24  1  0  0  0
 20 21  2  0  0  0
 20103  1  0  0  0
 21 23  1  0  0  0
 22 28  1  0  0  0
 22 32  2  0  0  0
 26 27  1  0  0  0
 28104  1  0  0  0
 28105  1  0  0  0
 29106  1  0  0  0
 29107  1  0  0  0
 33 34  1  0  0  0
 33 66  1  0  0  0
 33 70  2  0  0  0
 34 36  1  0  0  0
 34 59  1  0  0  0
 34108  1  0  0  0
 35 44  2  0  0  0
 35 45  1  0  0  0
 35 68  1  0  0  0
 36 56  1  0  0  0
 36109  1  0  0  0
 37 39  1  0  0  0
 37 47  1  0  0  0
 37 66  1  0  0  0
 37110  1  0  0  0
 38 43  2  0  0  0
 38 46  1  0  0  0
 38 47  1  0  0  0
 39 64  1  0  0  0
 39 67  2  0  0  0
 40 52  1  0  0  0
 40 53  2  0  0  0
 40 58  1  0  0  0
 41111  1  0  0  0
 41112  1  0  0  0
 41113  1  0  0  0
 41 48  1  0  0  0
 42 43  1  0  0  0
 42 66  1  0  0  0
 42114  1  0  0  0
 42115  1  0  0  0
 43 44  1  0  0  0
 44116  1  0  0  0
 45 46  2  0  0  0
 45117  1  0  0  0
 46118  1  0  0  0
 47119  1  0  0  0
 47120  1  0  0  0
 48 56  1  0  0  0
 48 65  1  0  0  0
 48121  1  0  0  0
 49 50  1  0  0  0
 49 53  1  0  0  0
 49 64  1  0  0  0
 49122  1  0  0  0
 50 51  1  0  0  0
 50123  1  0  0  0
 50124  1  0  0  0
 51 52  1  0  0  0
 51125  1  0  0  0
 51126  1  0  0  0
 52127  1  0  0  0
 52128  1  0  0  0
 53 54  1  0  0  0
 54 55  2  0  0  0
 54129  1  0  0  0
 55 57  1  0  0  0
 55130  1  0  0  0
 56 69  2  0  0  0
 57 58  2  0  0  0
 57131  1  0  0  0
 58132  1  0  0  0
 59 60  1  0  0  0
 59 61  1  0  0  0
 59 62  1  0  0  0
 60133  1  0  0  0
 60134  1  0  0  0
 60135  1  0  0  0
 61136  1  0  0  0
 61137  1  0  0  0
 61138  1  0  0  0
 62139  1  0  0  0
 62140  1  0  0  0
 62141  1  0  0  0
 63 65  1  0  0  0
 63142  1  0  0  0
 63143  1  0  0  0
 63144  1  0  0  0
 64145  1  0  0  0
 65146  1  0  0  0
 68 82  1  0  0  0
 71 72  2  0  0  0
 71 85  1  0  0  0
 71147  1  0  0  0
 72 84  1  0  0  0
 72 86  1  0  0  0
 73 78  1  0  0  0
 73 85  1  0  0  0
 73 86  2  0  0  0
 74148  1  0  0  0
 74149  1  0  0  0
 74150  1  0  0  0
 74 83  1  0  0  0
 75 83  1  0  0  0
 75151  1  0  0  0
 75152  1  0  0  0
 75153  1  0  0  0
 76154  1  0  0  0
 76155  1  0  0  0
 76156  1  0  0  0
 76 84  1  0  0  0
 77 84  1  0  0  0
 77157  1  0  0  0
 77158  1  0  0  0
 77159  1  0  0  0
 78 79  1  0  0  0
 78160  1  0  0  0
 78161  1  0  0  0
 79 83  1  0  0  0
 79162  1  0  0  0
 79163  1  0  0  0
 80 82  1  0  0  0
 80 85  1  0  0  0
 80164  1  0  0  0
 80165  1  0  0  0
 81 84  1  0  0  0
 81 87  1  0  0  0
 81166  1  0  0  0
 81167  1  0  0  0
 82168  1  0  0  0
 82169  1  0  0  0
 83170  1  0  0  0
 86171  1  0  0  0
 87172  1  0  0  0
M  CHG  1  86   1
M  ISO  4   1 100  68 101  82 101  87 100
M  END
> <chiral flag>
0

> <version>
0

> <s_m_source_file>
/data/baiqing/PycharmProjects/Reinvent-master-3.2/result/LINK_invent/BTK/process_docking_weight1_custom_sum_contain_oxygen_bond_distance_aromatic_linkinvent_7_9_3/rearranged_h_0087.sdf

> <i_m_source_file_index>
77

> <r_mmod_Potential_Energy-OPLS-2005>
54.2748680114746

> <r_mmod_Stretch_Energy-OPLS-2005>
131.384948730469

> <r_mmod_Bend_Energy-OPLS-2005>
173.481887817383

> <r_mmod_Torsional_Energy-OPLS-2005>
250.037200927734

> <r_mmod_Improper_Torsional_Energy-OPLS-2005>
7.1862530708313

> <r_mmod_Van_der_Waal_Energy-OPLS-2005>
112.512535095215

> <r_mmod_Electrostatic_Energy-OPLS-2005>
-289.149993896484

> <r_mmod_Solvation_Energy-OPLS-2005>
-411.981231689453

> <b_mmod_Minimization_Converged-OPLS-2005>
0

> <r_mmod_RMS_Derivative-OPLS-2005>
2.71291351318359

$$$$
78
                    3D
 Structure written by MMmdl.
170178  0  0  1  0            999 V2000
  -30.6335  -14.7282   20.4392 C   0  0  0  0  0  0
  -30.4246  -12.4430   19.4704 C   0  0  0  0  0  0
  -29.5087  -12.5015   18.2295 C   0  0  0  0  0  0
  -28.0326  -12.3333   18.6410 C   0  0  0  0  0  0
  -27.6374  -13.2312   19.8445 C   0  0  2  0  0  0
  -28.6837  -13.1808   20.9779 C   0  0  0  0  0  0
  -25.2487  -13.8044   20.5700 C   0  0  0  0  0  0
  -24.1782  -13.0329   20.9215 C   0  0  0  0  0  0
  -24.6403  -11.6826   20.8753 C   0  0  0  0  0  0
  -23.9082  -10.4223   21.0417 C   0  0  0  0  0  0
  -24.3620   -9.4146   21.9209 C   0  0  0  0  0  0
  -23.6277   -8.2198   22.0772 C   0  0  0  0  0  0
  -22.4260   -8.0257   21.3554 C   0  0  0  0  0  0
  -21.9909   -9.0232   20.4654 C   0  0  0  0  0  0
  -22.7254  -10.2097   20.3066 C   0  0  0  0  0  0
  -21.6836   -6.0725   22.5282 C   0  0  0  0  0  0
  -21.4004   -6.5629   23.8218 C   0  0  0  0  0  0
  -21.3666   -5.6783   24.9183 C   0  0  0  0  0  0
  -21.6049   -4.3046   24.7230 C   0  0  0  0  0  0
  -21.8816   -3.8140   23.4348 C   0  0  0  0  0  0
  -21.9190   -4.6957   22.3405 C   0  0  0  0  0  0
  -22.7817  -13.5162   21.1865 C   0  0  0  0  0  0
  -22.1657   -4.2144   21.0981 F   0  0  0  0  0  0
  -21.5642   -3.4530   25.7744 F   0  0  0  0  0  0
  -29.9820  -13.5178   20.3860 N   0  0  0  0  0  0
  -26.2931  -12.9314   20.3277 N   0  0  0  0  0  0
  -25.9342  -11.6454   20.5754 N   0  0  0  0  0  0
  -22.0459  -12.8187   22.0446 N   0  0  0  0  0  0
  -25.4135  -15.1694   20.4116 N   0  0  0  0  0  0
  -31.8430  -14.7702   20.2067 O   0  0  0  0  0  0
  -21.6609   -6.8867   21.4248 O   0  0  0  0  0  0
  -22.3532  -14.5477   20.6700 O   0  0  0  0  0  0
  -24.6281  -31.8589   23.1985 C   0  0  0  0  0  0
  -25.9120  -32.4774   23.8330 C   0  0  1  0  0  0
  -27.2374  -27.3050   20.1316 C   0  0  0  0  0  0
  -25.5922  -33.8573   24.2264 N   0  0  0  0  0  0
  -23.4232  -30.4774   21.5426 C   0  0  2  0  0  0
  -24.8748  -28.9230   20.1171 C   0  0  0  0  0  0
  -22.7491  -29.4608   22.4940 C   0  0  0  0  0  0
  -18.0300  -28.1383   22.8481 C   0  0  0  0  0  0
  -24.1488  -36.7291   23.2640 C   0  0  0  0  0  0
  -25.9644  -30.7836   21.3723 C   0  0  0  0  0  0
  -26.0422  -29.4066   20.7218 C   0  0  0  0  0  0
  -27.2273  -28.6102   20.7154 C   0  0  0  0  0  0
  -26.0507  -26.8743   19.5010 C   0  0  0  0  0  0
  -24.8819  -27.6618   19.4965 C   0  0  0  0  0  0
  -23.6424  -29.8050   20.1615 C   0  0  0  0  0  0
  -25.4112  -36.3084   24.0337 C   0  0  1  0  0  0
  -20.5895  -28.3698   23.1299 C   0  0  2  0  0  0
  -20.6799  -26.9422   22.5423 C   0  0  0  0  0  0
  -19.5767  -26.6371   21.5229 C   0  0  0  0  0  0
  -18.1951  -26.7923   22.1638 C   0  0  0  0  0  0
  -19.1545  -28.8863   23.2875 C   0  0  0  0  0  0
  -18.9451  -30.1460   23.8883 C   0  0  0  0  0  0
  -17.6448  -30.6581   24.0555 C   0  0  0  0  0  0
  -25.9045  -34.9454   23.5102 C   0  0  0  0  0  0
  -16.5344  -29.9077   23.6313 C   0  0  0  0  0  0
  -16.7288  -28.6503   23.0330 C   0  0  0  0  0  0
  -26.4490  -31.6587   25.0703 C   0  0  0  0  0  0
  -25.3713  -31.3730   26.1420 C   0  0  0  0  0  0
  -27.0340  -30.3015   24.6154 C   0  0  0  0  0  0
  -27.6056  -32.4317   25.7474 C   0  0  0  0  0  0
  -27.5580  -37.1803   24.8466 C   0  0  0  0  0  0
  -21.4195  -29.3057   22.3696 N   0  0  0  0  0  0
  -26.4291  -37.3779   23.9411 N   0  0  0  0  0  0
  -24.6908  -31.0577   22.0948 N   0  0  0  0  0  0
  -23.4209  -28.8166   23.3033 O   0  0  0  0  0  0
  -28.3576  -26.4560   20.1345 O   0  0  0  0  0  0
  -26.5621  -34.8922   22.4667 O   0  0  0  0  0  0
  -23.5438  -32.1392   23.7302 O   0  0  0  0  0  0
  -29.7834  -19.9213   20.5665 C   0  0  0  0  0  0
  -28.8666  -21.0348   20.4910 C   0  0  0  0  0  0
  -27.5289  -20.6896   20.1612 C   0  0  0  0  0  0
  -29.3735  -18.5552   20.3524 C   0  0  0  0  0  0
  -27.2001  -19.3188   19.9386 C   0  0  0  0  0  0
  -26.1071  -22.2673   18.7121 C   0  0  0  0  0  0
  -25.1049  -18.3371   20.9388 C   0  0  0  0  0  0
  -25.6774  -17.9171   18.4466 C   0  0  0  0  0  0
  -30.9987  -17.4272   18.8331 C   0  0  0  0  0  0
  -29.2673  -22.5083   20.9340 C   0  0  0  0  0  0
  -26.4396  -21.7667   20.1288 C   0  0  0  0  0  0
  -29.0428  -23.8452   20.0541 C   0  0  0  0  0  0
  -28.1959  -25.0714   20.6589 C   0  0  0  0  0  0
  -25.7649  -18.8658   19.6556 C   0  0  0  0  0  0
  -30.3776  -17.3306   20.2442 C   0  0  2  0  0  0
  -28.0885  -18.2948   20.0507 N   0  0  0  0  0  0
  -29.8949  -15.8996   20.4973 N   0  0  0  0  0  0
  -31.4682  -12.5538   19.1699 H   0  0  0  0  0  0
  -30.3543  -11.4700   19.9595 H   0  0  0  0  0  0
  -29.7885  -11.7269   17.5140 H   0  0  0  0  0  0
  -29.6428  -13.4563   17.7170 H   0  0  0  0  0  0
  -27.8844  -11.2844   18.8981 H   0  0  0  0  0  0
  -27.3778  -12.5334   17.7916 H   0  0  0  0  0  0
  -27.6243  -14.2520   19.4611 H   0  0  0  0  0  0
  -28.7163  -12.1913   21.4368 H   0  0  0  0  0  0
  -28.4238  -13.8829   21.7720 H   0  0  0  0  0  0
  -25.2769   -9.5603   22.4787 H   0  0  0  0  0  0
  -23.9970   -7.4585   22.7495 H   0  0  0  0  0  0
  -21.0844   -8.8769   19.8947 H   0  0  0  0  0  0
  -22.3748  -10.9647   19.6168 H   0  0  0  0  0  0
  -21.1979   -7.6133   23.9725 H   0  0  0  0  0  0
  -21.1501   -6.0506   25.9090 H   0  0  0  0  0  0
  -22.0589   -2.7602   23.2843 H   0  0  0  0  0  0
  -22.4083  -11.9876   22.4878 H   0  0  0  0  0  0
  -21.1084  -13.1234   22.2635 H   0  0  0  0  0  0
  -24.6400  -15.8144   20.5198 H   0  0  0  0  0  0
  -26.2663  -15.6225   20.1114 H   0  0  0  0  0  0
  -26.7199  -32.5451   23.1092 H   0  0  0  0  0  0
  -25.0079  -33.9705   25.0419 H   0  0  0  0  0  0
  -22.7164  -31.2968   21.3954 H   0  0  0  0  0  0
  -23.3749  -35.9624   23.3305 H   0  0  0  0  0  0
  -24.3575  -36.8902   22.2047 H   0  0  0  0  0  0
  -23.7232  -37.6496   23.6654 H   0  0  0  0  0  0
  -26.0904  -31.5406   20.5968 H   0  0  0  0  0  0
  -26.8474  -30.8409   21.9970 H   0  0  0  0  0  0
  -28.1250  -28.9792   21.1910 H   0  0  0  0  0  0
  -26.0259  -25.9124   19.0088 H   0  0  0  0  0  0
  -23.9916  -27.2863   19.0110 H   0  0  0  0  0  0
  -23.7622  -30.5774   19.4010 H   0  0  0  0  0  0
  -22.7638  -29.2326   19.8609 H   0  0  0  0  0  0
  -25.1291  -36.1939   25.0831 H   0  0  0  0  0  0
  -20.9967  -28.3272   24.1422 H   0  0  0  0  0  0
  -20.5712  -26.2303   23.3627 H   0  0  0  0  0  0
  -21.6661  -26.7459   22.1193 H   0  0  0  0  0  0
  -19.6943  -25.6276   21.1269 H   0  0  0  0  0  0
  -19.6702  -27.3181   20.6758 H   0  0  0  0  0  0
  -17.4220  -26.6663   21.4044 H   0  0  0  0  0  0
  -18.0341  -26.0077   22.9045 H   0  0  0  0  0  0
  -19.7923  -30.7287   24.2253 H   0  0  0  0  0  0
  -17.4990  -31.6255   24.5153 H   0  0  0  0  0  0
  -15.5337  -30.2967   23.7631 H   0  0  0  0  0  0
  -15.8696  -28.0819   22.7026 H   0  0  0  0  0  0
  -24.5892  -30.7081   25.7735 H   0  0  0  0  0  0
  -24.8893  -32.2894   26.4833 H   0  0  0  0  0  0
  -25.8014  -30.8907   27.0202 H   0  0  0  0  0  0
  -26.2920  -29.6758   24.1177 H   0  0  0  0  0  0
  -27.4047  -29.7273   25.4656 H   0  0  0  0  0  0
  -27.8781  -30.4316   23.9378 H   0  0  0  0  0  0
  -27.2687  -33.3623   26.2051 H   0  0  0  0  0  0
  -28.3861  -32.6860   25.0293 H   0  0  0  0  0  0
  -28.0728  -31.8433   26.5377 H   0  0  0  0  0  0
  -28.2606  -38.0096   24.7508 H   0  0  0  0  0  0
  -28.1068  -36.2621   24.6302 H   0  0  0  0  0  0
  -27.2294  -37.1460   25.8871 H   0  0  0  0  0  0
  -20.9373  -29.8798   21.6922 H   0  0  0  0  0  0
  -26.0175  -38.2862   24.1396 H   0  0  0  0  0  0
  -30.8214  -20.1121   20.8031 H   0  0  0  0  0  0
  -25.3667  -23.0664   18.7532 H   0  0  0  0  0  0
  -25.6989  -21.4814   18.0787 H   0  0  0  0  0  0
  -26.9794  -22.6611   18.1960 H   0  0  0  0  0  0
  -25.6961  -17.5431   21.3912 H   0  0  0  0  0  0
  -24.0965  -17.9665   20.7531 H   0  0  0  0  0  0
  -25.0365  -19.1291   21.6853 H   0  0  0  0  0  0
  -26.0807  -18.4014   17.5566 H   0  0  0  0  0  0
  -24.6452  -17.6415   18.2322 H   0  0  0  0  0  0
  -26.2440  -16.9998   18.5984 H   0  0  0  0  0  0
  -31.4213  -18.4176   18.6617 H   0  0  0  0  0  0
  -30.2423  -17.2608   18.0650 H   0  0  0  0  0  0
  -31.8070  -16.7189   18.6686 H   0  0  0  0  0  0
  -30.3306  -22.4682   21.1699 H   0  0  0  0  0  0
  -28.8026  -22.6652   21.9074 H   0  0  0  0  0  0
  -26.7174  -22.6051   20.7588 H   0  0  0  0  0  0
  -25.5366  -21.3979   20.6146 H   0  0  0  0  0  0
  -28.6915  -23.5930   19.0584 H   0  0  0  0  0  0
  -30.0408  -24.2439   19.8720 H   0  0  0  0  0  0
  -28.4544  -25.1444   21.7149 H   0  0  0  0  0  0
  -27.1442  -24.7891   20.6615 H   0  0  0  0  0  0
  -25.1611  -19.7120   19.3430 H   0  0  0  0  0  0
  -31.1680  -17.5184   20.9725 H   0  0  0  0  0  0
  -28.8997  -15.8167   20.6390 H   0  0  0  0  0  0
  1 25  1  0  0  0
  1 30  2  0  0  0
  1 87  1  0  0  0
  2  3  1  0  0  0
  2 25  1  0  0  0
  2 88  1  0  0  0
  2 89  1  0  0  0
  3  4  1  0  0  0
  3 90  1  0  0  0
  3 91  1  0  0  0
  4  5  1  0  0  0
  4 92  1  0  0  0
  4 93  1  0  0  0
  5  6  1  0  0  0
  5 26  1  0  0  0
  5 94  1  0  0  0
  6 25  1  0  0  0
  6 95  1  0  0  0
  6 96  1  0  0  0
  7  8  2  0  0  0
  7 26  1  0  0  0
  7 29  1  0  0  0
  8  9  1  0  0  0
  8 22  1  0  0  0
  9 10  1  0  0  0
  9 27  2  0  0  0
 10 11  2  0  0  0
 10 15  1  0  0  0
 11 12  1  0  0  0
 11 97  1  0  0  0
 12 13  2  0  0  0
 12 98  1  0  0  0
 13 14  1  0  0  0
 13 31  1  0  0  0
 14 15  2  0  0  0
 14 99  1  0  0  0
 15100  1  0  0  0
 16 17  2  0  0  0
 16 21  1  0  0  0
 16 31  1  0  0  0
 17 18  1  0  0  0
 17101  1  0  0  0
 18 19  2  0  0  0
 18102  1  0  0  0
 19 20  1  0  0  0
 19 24  1  0  0  0
 20 21  2  0  0  0
 20103  1  0  0  0
 21 23  1  0  0  0
 22 28  1  0  0  0
 22 32  2  0  0  0
 26 27  1  0  0  0
 28104  1  0  0  0
 28105  1  0  0  0
 29106  1  0  0  0
 29107  1  0  0  0
 33 34  1  0  0  0
 33 66  1  0  0  0
 33 70  2  0  0  0
 34 36  1  0  0  0
 34 59  1  0  0  0
 34108  1  0  0  0
 35 44  2  0  0  0
 35 45  1  0  0  0
 35 68  1  0  0  0
 36 56  1  0  0  0
 36109  1  0  0  0
 37 39  1  0  0  0
 37 47  1  0  0  0
 37 66  1  0  0  0
 37110  1  0  0  0
 38 43  2  0  0  0
 38 46  1  0  0  0
 38 47  1  0  0  0
 39 64  1  0  0  0
 39 67  2  0  0  0
 40 52  1  0  0  0
 40 53  2  0  0  0
 40 58  1  0  0  0
 41111  1  0  0  0
 41112  1  0  0  0
 41113  1  0  0  0
 41 48  1  0  0  0
 42 43  1  0  0  0
 42 66  1  0  0  0
 42114  1  0  0  0
 42115  1  0  0  0
 43 44  1  0  0  0
 44116  1  0  0  0
 45 46  2  0  0  0
 45117  1  0  0  0
 46118  1  0  0  0
 47119  1  0  0  0
 47120  1  0  0  0
 48 56  1  0  0  0
 48 65  1  0  0  0
 48121  1  0  0  0
 49 50  1  0  0  0
 49 53  1  0  0  0
 49 64  1  0  0  0
 49122  1  0  0  0
 50 51  1  0  0  0
 50123  1  0  0  0
 50124  1  0  0  0
 51 52  1  0  0  0
 51125  1  0  0  0
 51126  1  0  0  0
 52127  1  0  0  0
 52128  1  0  0  0
 53 54  1  0  0  0
 54 55  2  0  0  0
 54129  1  0  0  0
 55 57  1  0  0  0
 55130  1  0  0  0
 56 69  2  0  0  0
 57 58  2  0  0  0
 57131  1  0  0  0
 58132  1  0  0  0
 59 60  1  0  0  0
 59 61  1  0  0  0
 59 62  1  0  0  0
 60133  1  0  0  0
 60134  1  0  0  0
 60135  1  0  0  0
 61136  1  0  0  0
 61137  1  0  0  0
 61138  1  0  0  0
 62139  1  0  0  0
 62140  1  0  0  0
 62141  1  0  0  0
 63 65  1  0  0  0
 63142  1  0  0  0
 63143  1  0  0  0
 63144  1  0  0  0
 64145  1  0  0  0
 65146  1  0  0  0
 68 83  1  0  0  0
 71 72  2  0  0  0
 71 74  1  0  0  0
 71147  1  0  0  0
 72 73  1  0  0  0
 72 80  1  0  0  0
 73 75  2  0  0  0
 73 81  1  0  0  0
 74 85  1  0  0  0
 74 86  2  0  0  0
 75 84  1  0  0  0
 75 86  1  0  0  0
 76 81  1  0  0  0
 76148  1  0  0  0
 76149  1  0  0  0
 76150  1  0  0  0
 77151  1  0  0  0
 77152  1  0  0  0
 77153  1  0  0  0
 77 84  1  0  0  0
 78 84  1  0  0  0
 78154  1  0  0  0
 78155  1  0  0  0
 78156  1  0  0  0
 79157  1  0  0  0
 79158  1  0  0  0
 79159  1  0  0  0
 79 85  1  0  0  0
 80 82  1  0  0  0
 80160  1  0  0  0
 80161  1  0  0  0
 81162  1  0  0  0
 81163  1  0  0  0
 82 83  1  0  0  0
 82164  1  0  0  0
 82165  1  0  0  0
 83166  1  0  0  0
 83167  1  0  0  0
 84168  1  0  0  0
 85 87  1  0  0  0
 85169  1  0  0  0
 87170  1  0  0  0
M  ISO  4   1 100  68 101  83 101  87 100
M  END
> <chiral flag>
0

> <version>
0

> <s_m_source_file>
/data/baiqing/PycharmProjects/Reinvent-master-3.2/result/LINK_invent/BTK/process_docking_weight1_custom_sum_contain_oxygen_bond_distance_aromatic_linkinvent_7_9_3/rearranged_h_0087.sdf

> <i_m_source_file_index>
78

> <r_mmod_Potential_Energy-OPLS-2005>
-165.608535766602

> <r_mmod_Stretch_Energy-OPLS-2005>
106.19327545166

> <r_mmod_Bend_Energy-OPLS-2005>
163.644271850586

> <r_mmod_Torsional_Energy-OPLS-2005>
221.525634765625

> <r_mmod_Improper_Torsional_Energy-OPLS-2005>
7.48225975036621

> <r_mmod_Van_der_Waal_Energy-OPLS-2005>
142.706756591797

> <r_mmod_Electrostatic_Energy-OPLS-2005>
-685.701477050781

> <r_mmod_Solvation_Energy-OPLS-2005>
-193.349212646484

> <b_mmod_Minimization_Converged-OPLS-2005>
0

> <r_mmod_RMS_Derivative-OPLS-2005>
1.73508739471436

$$$$
79
                    3D
 Structure written by MMmdl.
157165  0  0  1  0            999 V2000
  -30.6989  -14.4402   20.5519 C   0  0  0  0  0  0
  -30.4203  -12.2848   19.4115 C   0  0  0  0  0  0
  -29.4892  -12.4976   18.1991 C   0  0  0  0  0  0
  -28.0081  -12.3734   18.6107 C   0  0  0  0  0  0
  -27.6611  -13.2011   19.8778 C   0  0  2  0  0  0
  -28.7062  -12.9576   20.9895 C   0  0  0  0  0  0
  -25.2595  -13.8149   20.5698 C   0  0  0  0  0  0
  -24.1833  -13.0432   20.9165 C   0  0  0  0  0  0
  -24.6377  -11.6899   20.8728 C   0  0  0  0  0  0
  -23.9041  -10.4284   21.0400 C   0  0  0  0  0  0
  -24.3595   -9.4204   21.9179 C   0  0  0  0  0  0
  -23.6277   -8.2238   22.0746 C   0  0  0  0  0  0
  -22.4258   -8.0268   21.3541 C   0  0  0  0  0  0
  -21.9891   -9.0242   20.4647 C   0  0  0  0  0  0
  -22.7215  -10.2125   20.3053 C   0  0  0  0  0  0
  -21.6853   -6.0726   22.5276 C   0  0  0  0  0  0
  -21.4019   -6.5631   23.8209 C   0  0  0  0  0  0
  -21.3663   -5.6784   24.9171 C   0  0  0  0  0  0
  -21.6044   -4.3045   24.7223 C   0  0  0  0  0  0
  -21.8822   -3.8137   23.4343 C   0  0  0  0  0  0
  -21.9197   -4.6954   22.3401 C   0  0  0  0  0  0
  -22.7859  -13.5236   21.1829 C   0  0  0  0  0  0
  -22.1662   -4.2142   21.0977 F   0  0  0  0  0  0
  -21.5631   -3.4529   25.7737 F   0  0  0  0  0  0
  -30.0300  -13.2650   20.4332 N   0  0  0  0  0  0
  -26.3021  -12.9308   20.3394 N   0  0  0  0  0  0
  -25.9303  -11.6472   20.5766 N   0  0  0  0  0  0
  -22.0492  -12.8248   22.0399 N   0  0  0  0  0  0
  -25.4368  -15.1864   20.4154 N   0  0  0  0  0  0
  -31.8558  -14.6011   20.1630 O   0  0  0  0  0  0
  -21.6626   -6.8866   21.4236 O   0  0  0  0  0  0
  -22.3547  -14.5544   20.6675 O   0  0  0  0  0  0
  -24.6111  -31.8697   23.2118 C   0  0  0  0  0  0
  -25.9015  -32.4832   23.8406 C   0  0  1  0  0  0
  -27.2371  -27.4603   20.0962 C   0  0  0  0  0  0
  -25.5895  -33.8629   24.2347 N   0  0  0  0  0  0
  -23.3995  -30.4904   21.5510 C   0  0  2  0  0  0
  -24.8486  -28.9550   20.1189 C   0  0  0  0  0  0
  -22.7399  -29.4654   22.5005 C   0  0  0  0  0  0
  -18.0276  -28.1366   22.8491 C   0  0  0  0  0  0
  -24.1483  -36.7325   23.2635 C   0  0  0  0  0  0
  -25.9243  -30.8407   21.3622 C   0  0  0  0  0  0
  -26.0038  -29.4731   20.7187 C   0  0  0  0  0  0
  -27.2027  -28.7296   20.7112 C   0  0  0  0  0  0
  -26.0742  -26.9518   19.4852 C   0  0  0  0  0  0
  -24.8761  -27.6911   19.5011 C   0  0  0  0  0  0
  -23.6091  -29.8186   20.1666 C   0  0  0  0  0  0
  -25.4103  -36.3122   24.0341 C   0  0  1  0  0  0
  -20.5862  -28.3651   23.1329 C   0  0  2  0  0  0
  -20.6771  -26.9388   22.5418 C   0  0  0  0  0  0
  -19.5754  -26.6372   21.5214 C   0  0  0  0  0  0
  -18.1931  -26.7916   22.1622 C   0  0  0  0  0  0
  -19.1524  -28.8825   23.2916 C   0  0  0  0  0  0
  -18.9452  -30.1433   23.8921 C   0  0  0  0  0  0
  -17.6452  -30.6571   24.0568 C   0  0  0  0  0  0
  -25.9027  -34.9483   23.5140 C   0  0  0  0  0  0
  -16.5345  -29.9080   23.6317 C   0  0  0  0  0  0
  -16.7268  -28.6500   23.0329 C   0  0  0  0  0  0
  -26.4465  -31.6593   25.0715 C   0  0  0  0  0  0
  -25.3754  -31.3686   26.1479 C   0  0  0  0  0  0
  -27.0282  -30.3041   24.6056 C   0  0  0  0  0  0
  -27.6059  -32.4298   25.7473 C   0  0  0  0  0  0
  -27.5584  -37.1816   24.8468 C   0  0  0  0  0  0
  -21.4130  -29.3034   22.3748 N   0  0  0  0  0  0
  -26.4295  -37.3801   23.9411 N   0  0  0  0  0  0
  -24.6632  -31.0814   22.1007 N   0  0  0  0  0  0
  -23.4182  -28.8185   23.3030 O   0  0  0  0  0  0
  -28.3987  -26.7324   20.0555 O   0  0  0  0  0  0
  -26.5580  -34.8930   22.4695 O   0  0  0  0  0  0
  -23.5313  -32.1431   23.7530 O   0  0  0  0  0  0
  -28.2947  -20.9280   22.2944 C   0  0  0  0  0  0
  -26.3247  -21.8875   21.3025 C   0  0  0  0  0  0
  -27.6062  -22.0827   21.8623 C   0  0  0  0  0  0
  -27.6524  -19.6801   22.1412 C   0  0  0  0  0  0
  -28.2069  -23.4734   22.0564 C   0  0  0  0  0  0
  -28.3065  -18.3838   22.5966 C   0  0  0  0  0  0
  -27.9826  -24.4574   20.8890 C   0  0  0  0  0  0
  -28.8348  -17.5521   21.4156 C   0  0  0  0  0  0
  -29.4461  -16.1963   21.8169 C   0  0  0  0  0  0
  -28.5829  -25.8512   21.1633 C   0  0  0  0  0  0
  -25.7642  -20.6587   21.1721 N   0  0  0  0  0  0
  -26.4177  -19.5689   21.5904 N   0  0  0  0  0  0
  -29.9179  -15.5253   20.6088 N   0  0  0  0  0  0
  -31.4640  -12.3856   19.1094 H   0  0  0  0  0  0
  -30.3198  -11.2717   19.8032 H   0  0  0  0  0  0
  -29.7191  -11.7755   17.4146 H   0  0  0  0  0  0
  -29.6678  -13.4837   17.7674 H   0  0  0  0  0  0
  -27.8045  -11.3172   18.7910 H   0  0  0  0  0  0
  -27.3612  -12.6699   17.7841 H   0  0  0  0  0  0
  -27.7095  -14.2520   19.5936 H   0  0  0  0  0  0
  -28.6806  -11.9152   21.3086 H   0  0  0  0  0  0
  -28.4872  -13.5347   21.8837 H   0  0  0  0  0  0
  -25.2740   -9.5686   22.4752 H   0  0  0  0  0  0
  -24.0000   -7.4627   22.7458 H   0  0  0  0  0  0
  -21.0826   -8.8747   19.8951 H   0  0  0  0  0  0
  -22.3661  -10.9658   19.6163 H   0  0  0  0  0  0
  -21.2007   -7.6139   23.9710 H   0  0  0  0  0  0
  -21.1489   -6.0514   25.9076 H   0  0  0  0  0  0
  -22.0603   -2.7599   23.2840 H   0  0  0  0  0  0
  -22.4097  -11.9922   22.4817 H   0  0  0  0  0  0
  -21.1107  -13.1279   22.2580 H   0  0  0  0  0  0
  -24.6852  -15.8535   20.5485 H   0  0  0  0  0  0
  -26.3109  -15.6212   20.1486 H   0  0  0  0  0  0
  -26.7084  -32.5555   23.1177 H   0  0  0  0  0  0
  -25.0071  -33.9798   25.0510 H   0  0  0  0  0  0
  -22.6851  -31.3042   21.4095 H   0  0  0  0  0  0
  -23.3740  -35.9663   23.3310 H   0  0  0  0  0  0
  -24.3581  -36.8924   22.2049 H   0  0  0  0  0  0
  -23.7241  -37.6539   23.6631 H   0  0  0  0  0  0
  -26.0274  -31.5996   20.5848 H   0  0  0  0  0  0
  -26.8163  -30.9033   21.9740 H   0  0  0  0  0  0
  -28.0983  -29.1266   21.1688 H   0  0  0  0  0  0
  -26.0973  -25.9892   18.9939 H   0  0  0  0  0  0
  -23.9899  -27.2898   19.0286 H   0  0  0  0  0  0
  -23.7154  -30.5893   19.4021 H   0  0  0  0  0  0
  -22.7355  -29.2337   19.8728 H   0  0  0  0  0  0
  -25.1275  -36.1996   25.0834 H   0  0  0  0  0  0
  -20.9954  -28.3211   24.1450 H   0  0  0  0  0  0
  -20.5682  -26.2252   23.3598 H   0  0  0  0  0  0
  -21.6638  -26.7437   22.1202 H   0  0  0  0  0  0
  -19.6909  -25.6285   21.1243 H   0  0  0  0  0  0
  -19.6694  -27.3178   20.6737 H   0  0  0  0  0  0
  -17.4201  -26.6655   21.4022 H   0  0  0  0  0  0
  -18.0336  -26.0050   22.9014 H   0  0  0  0  0  0
  -19.7924  -30.7244   24.2306 H   0  0  0  0  0  0
  -17.5006  -31.6245   24.5180 H   0  0  0  0  0  0
  -15.5347  -30.2990   23.7632 H   0  0  0  0  0  0
  -15.8667  -28.0834   22.7023 H   0  0  0  0  0  0
  -24.5919  -30.7039   25.7827 H   0  0  0  0  0  0
  -24.8952  -32.2834   26.4958 H   0  0  0  0  0  0
  -25.8130  -30.8837   27.0215 H   0  0  0  0  0  0
  -26.2803  -29.6815   24.1132 H   0  0  0  0  0  0
  -27.4095  -29.7263   25.4485 H   0  0  0  0  0  0
  -27.8621  -30.4373   23.9159 H   0  0  0  0  0  0
  -27.2692  -33.3585   26.2089 H   0  0  0  0  0  0
  -28.3848  -32.6876   25.0286 H   0  0  0  0  0  0
  -28.0741  -31.8389   26.5353 H   0  0  0  0  0  0
  -28.2613  -38.0103   24.7510 H   0  0  0  0  0  0
  -28.1069  -36.2638   24.6292 H   0  0  0  0  0  0
  -27.2304  -37.1470   25.8872 H   0  0  0  0  0  0
  -20.9290  -29.8783   21.6994 H   0  0  0  0  0  0
  -26.0192  -38.2885   24.1401 H   0  0  0  0  0  0
  -29.2742  -20.9926   22.7472 H   0  0  0  0  0  0
  -25.7227  -22.7157   20.9627 H   0  0  0  0  0  0
  -29.2784  -23.3727   22.2355 H   0  0  0  0  0  0
  -27.7855  -23.8898   22.9727 H   0  0  0  0  0  0
  -27.5730  -17.8068   23.1608 H   0  0  0  0  0  0
  -29.1186  -18.6084   23.2894 H   0  0  0  0  0  0
  -26.9162  -24.5685   20.7036 H   0  0  0  0  0  0
  -28.4191  -24.0489   19.9762 H   0  0  0  0  0  0
  -29.5739  -18.1437   20.8731 H   0  0  0  0  0  0
  -28.0156  -17.3760   20.7166 H   0  0  0  0  0  0
  -28.7006  -15.6019   22.3413 H   0  0  0  0  0  0
  -30.2794  -16.3459   22.5066 H   0  0  0  0  0  0
  -29.6549  -25.7590   21.3390 H   0  0  0  0  0  0
  -28.1629  -26.2779   22.0771 H   0  0  0  0  0  0
  -30.2771  -16.2116   19.9620 H   0  0  0  0  0  0
  1 25  1  0  0  0
  1 30  2  0  0  0
  1 83  1  0  0  0
  2  3  1  0  0  0
  2 25  1  0  0  0
  2 84  1  0  0  0
  2 85  1  0  0  0
  3  4  1  0  0  0
  3 86  1  0  0  0
  3 87  1  0  0  0
  4  5  1  0  0  0
  4 88  1  0  0  0
  4 89  1  0  0  0
  5  6  1  0  0  0
  5 26  1  0  0  0
  5 90  1  0  0  0
  6 25  1  0  0  0
  6 91  1  0  0  0
  6 92  1  0  0  0
  7  8  2  0  0  0
  7 26  1  0  0  0
  7 29  1  0  0  0
  8  9  1  0  0  0
  8 22  1  0  0  0
  9 10  1  0  0  0
  9 27  2  0  0  0
 10 11  2  0  0  0
 10 15  1  0  0  0
 11 12  1  0  0  0
 11 93  1  0  0  0
 12 13  2  0  0  0
 12 94  1  0  0  0
 13 14  1  0  0  0
 13 31  1  0  0  0
 14 15  2  0  0  0
 14 95  1  0  0  0
 15 96  1  0  0  0
 16 17  2  0  0  0
 16 21  1  0  0  0
 16 31  1  0  0  0
 17 18  1  0  0  0
 17 97  1  0  0  0
 18 19  2  0  0  0
 18 98  1  0  0  0
 19 20  1  0  0  0
 19 24  1  0  0  0
 20 21  2  0  0  0
 20 99  1  0  0  0
 21 23  1  0  0  0
 22 28  1  0  0  0
 22 32  2  0  0  0
 26 27  1  0  0  0
 28100  1  0  0  0
 28101  1  0  0  0
 29102  1  0  0  0
 29103  1  0  0  0
 33 34  1  0  0  0
 33 66  1  0  0  0
 33 70  2  0  0  0
 34 36  1  0  0  0
 34 59  1  0  0  0
 34104  1  0  0  0
 35 44  2  0  0  0
 35 45  1  0  0  0
 35 68  1  0  0  0
 36 56  1  0  0  0
 36105  1  0  0  0
 37 39  1  0  0  0
 37 47  1  0  0  0
 37 66  1  0  0  0
 37106  1  0  0  0
 38 43  2  0  0  0
 38 46  1  0  0  0
 38 47  1  0  0  0
 39 64  1  0  0  0
 39 67  2  0  0  0
 40 52  1  0  0  0
 40 53  2  0  0  0
 40 58  1  0  0  0
 41107  1  0  0  0
 41108  1  0  0  0
 41109  1  0  0  0
 41 48  1  0  0  0
 42 43  1  0  0  0
 42 66  1  0  0  0
 42110  1  0  0  0
 42111  1  0  0  0
 43 44  1  0  0  0
 44112  1  0  0  0
 45 46  2  0  0  0
 45113  1  0  0  0
 46114  1  0  0  0
 47115  1  0  0  0
 47116  1  0  0  0
 48 56  1  0  0  0
 48 65  1  0  0  0
 48117  1  0  0  0
 49 50  1  0  0  0
 49 53  1  0  0  0
 49 64  1  0  0  0
 49118  1  0  0  0
 50 51  1  0  0  0
 50119  1  0  0  0
 50120  1  0  0  0
 51 52  1  0  0  0
 51121  1  0  0  0
 51122  1  0  0  0
 52123  1  0  0  0
 52124  1  0  0  0
 53 54  1  0  0  0
 54 55  2  0  0  0
 54125  1  0  0  0
 55 57  1  0  0  0
 55126  1  0  0  0
 56 69  2  0  0  0
 57 58  2  0  0  0
 57127  1  0  0  0
 58128  1  0  0  0
 59 60  1  0  0  0
 59 61  1  0  0  0
 59 62  1  0  0  0
 60129  1  0  0  0
 60130  1  0  0  0
 60131  1  0  0  0
 61132  1  0  0  0
 61133  1  0  0  0
 61134  1  0  0  0
 62135  1  0  0  0
 62136  1  0  0  0
 62137  1  0  0  0
 63 65  1  0  0  0
 63138  1  0  0  0
 63139  1  0  0  0
 63140  1  0  0  0
 64141  1  0  0  0
 65142  1  0  0  0
 68 80  1  0  0  0
 71 73  2  0  0  0
 71 74  1  0  0  0
 71143  1  0  0  0
 72 73  1  0  0  0
 72 81  2  0  0  0
 72144  1  0  0  0
 73 75  1  0  0  0
 74 76  1  0  0  0
 74 82  2  0  0  0
 75 77  1  0  0  0
 75145  1  0  0  0
 75146  1  0  0  0
 76 78  1  0  0  0
 76147  1  0  0  0
 76148  1  0  0  0
 77 80  1  0  0  0
 77149  1  0  0  0
 77150  1  0  0  0
 78 79  1  0  0  0
 78151  1  0  0  0
 78152  1  0  0  0
 79 83  1  0  0  0
 79153  1  0  0  0
 79154  1  0  0  0
 80155  1  0  0  0
 80156  1  0  0  0
 81 82  1  0  0  0
 83157  1  0  0  0
M  ISO  4   1 100  68 101  80 101  83 100
M  END
> <chiral flag>
0

> <version>
0

> <s_m_source_file>
/data/baiqing/PycharmProjects/Reinvent-master-3.2/result/LINK_invent/BTK/process_docking_weight1_custom_sum_contain_oxygen_bond_distance_aromatic_linkinvent_7_9_3/rearranged_h_0087.sdf

> <i_m_source_file_index>
79

> <r_mmod_Potential_Energy-OPLS-2005>
12.8761930465698

> <r_mmod_Stretch_Energy-OPLS-2005>
32.5105590820312

> <r_mmod_Bend_Energy-OPLS-2005>
100.634216308594

> <r_mmod_Torsional_Energy-OPLS-2005>
272.163940429688

> <r_mmod_Improper_Torsional_Energy-OPLS-2005>
20.7485466003418

> <r_mmod_Van_der_Waal_Energy-OPLS-2005>
144.831497192383

> <r_mmod_Electrostatic_Energy-OPLS-2005>
-342.718658447266

> <r_mmod_Solvation_Energy-OPLS-2005>
-226.799362182617

> <b_mmod_Minimization_Converged-OPLS-2005>
0

> <r_mmod_RMS_Derivative-OPLS-2005>
1.30608928203583

$$$$
80
                    3D
 Structure written by MMmdl.
159167  0  0  1  0            999 V2000
  -30.5951  -14.7424   20.4733 C   0  0  0  0  0  0
  -30.4318  -12.4570   19.4663 C   0  0  0  0  0  0
  -29.5048  -12.5054   18.2317 C   0  0  0  0  0  0
  -28.0313  -12.3267   18.6480 C   0  0  0  0  0  0
  -27.6385  -13.2266   19.8494 C   0  0  2  0  0  0
  -28.6836  -13.1490   20.9823 C   0  0  0  0  0  0
  -25.2491  -13.8166   20.5681 C   0  0  0  0  0  0
  -24.1777  -13.0406   20.9177 C   0  0  0  0  0  0
  -24.6371  -11.6885   20.8740 C   0  0  0  0  0  0
  -23.9047  -10.4268   21.0408 C   0  0  0  0  0  0
  -24.3601   -9.4190   21.9190 C   0  0  0  0  0  0
  -23.6276   -8.2224   22.0771 C   0  0  0  0  0  0
  -22.4263   -8.0262   21.3553 C   0  0  0  0  0  0
  -21.9893   -9.0226   20.4658 C   0  0  0  0  0  0
  -22.7216  -10.2105   20.3061 C   0  0  0  0  0  0
  -21.6850   -6.0711   22.5266 C   0  0  0  0  0  0
  -21.4016   -6.5629   23.8193 C   0  0  0  0  0  0
  -21.3666   -5.6794   24.9164 C   0  0  0  0  0  0
  -21.6039   -4.3052   24.7225 C   0  0  0  0  0  0
  -21.8820   -3.8133   23.4354 C   0  0  0  0  0  0
  -21.9189   -4.6940   22.3402 C   0  0  0  0  0  0
  -22.7806  -13.5201   21.1823 C   0  0  0  0  0  0
  -22.1657   -4.2120   21.0979 F   0  0  0  0  0  0
  -21.5633   -3.4546   25.7747 F   0  0  0  0  0  0
  -29.9792  -13.5143   20.3982 N   0  0  0  0  0  0
  -26.2911  -12.9363   20.3273 N   0  0  0  0  0  0
  -25.9301  -11.6511   20.5755 N   0  0  0  0  0  0
  -22.0463  -12.8199   22.0401 N   0  0  0  0  0  0
  -25.4166  -15.1892   20.4115 N   0  0  0  0  0  0
  -31.7891  -14.8488   20.1779 O   0  0  0  0  0  0
  -21.6640   -6.8851   21.4226 O   0  0  0  0  0  0
  -22.3484  -14.5490   20.6654 O   0  0  0  0  0  0
  -24.6292  -31.8549   23.1952 C   0  0  0  0  0  0
  -25.9134  -32.4732   23.8285 C   0  0  1  0  0  0
  -27.2260  -27.2653   20.1330 C   0  0  0  0  0  0
  -25.5947  -33.8525   24.2229 N   0  0  0  0  0  0
  -23.4246  -30.4749   21.5380 C   0  0  2  0  0  0
  -24.8708  -28.9167   20.1096 C   0  0  0  0  0  0
  -22.7481  -29.4601   22.4901 C   0  0  0  0  0  0
  -18.0299  -28.1346   22.8496 C   0  0  0  0  0  0
  -24.1494  -36.7276   23.2632 C   0  0  0  0  0  0
  -25.9666  -30.7706   21.3701 C   0  0  0  0  0  0
  -26.0396  -29.3917   20.7158 C   0  0  0  0  0  0
  -27.2133  -28.5780   20.7156 C   0  0  0  0  0  0
  -26.0237  -26.8412   19.5278 C   0  0  0  0  0  0
  -24.8678  -27.6480   19.5080 C   0  0  0  0  0  0
  -23.6402  -29.8008   20.1551 C   0  0  0  0  0  0
  -25.4127  -36.3042   24.0302 C   0  0  1  0  0  0
  -20.5899  -28.3675   23.1262 C   0  0  2  0  0  0
  -20.6799  -26.9386   22.5408 C   0  0  0  0  0  0
  -19.5768  -26.6352   21.5204 C   0  0  0  0  0  0
  -18.1941  -26.7900   22.1607 C   0  0  0  0  0  0
  -19.1553  -28.8833   23.2870 C   0  0  0  0  0  0
  -18.9473  -30.1438   23.8877 C   0  0  0  0  0  0
  -17.6474  -30.6568   24.0552 C   0  0  0  0  0  0
  -25.9053  -34.9412   23.5065 C   0  0  0  0  0  0
  -16.5367  -29.9065   23.6323 C   0  0  0  0  0  0
  -16.7287  -28.6473   23.0362 C   0  0  0  0  0  0
  -26.4523  -31.6567   25.0681 C   0  0  0  0  0  0
  -25.3754  -31.3719   26.1409 C   0  0  0  0  0  0
  -27.0398  -30.2993   24.6171 C   0  0  0  0  0  0
  -27.6050  -32.4341   25.7438 C   0  0  0  0  0  0
  -27.5570  -37.1789   24.8455 C   0  0  0  0  0  0
  -21.4193  -29.3033   22.3651 N   0  0  0  0  0  0
  -26.4287  -37.3755   23.9399 N   0  0  0  0  0  0
  -24.6921  -31.0521   22.0915 N   0  0  0  0  0  0
  -23.4195  -28.8130   23.2979 O   0  0  0  0  0  0
  -28.3745  -26.4452   20.1975 O   0  0  0  0  0  0
  -26.5609  -34.8889   22.4626 O   0  0  0  0  0  0
  -23.5453  -32.1390   23.7265 O   0  0  0  0  0  0
  -27.7067  -21.2311   22.3123 C   0  0  0  0  0  0
  -27.4995  -19.9557   22.8863 C   0  0  0  0  0  0
  -28.4587  -21.0347   21.1830 C   0  0  0  0  0  0
  -26.6675  -19.6008   24.0850 C   0  0  0  0  0  0
  -28.1651  -24.8266   18.2420 C   0  0  0  0  0  0
  -28.8031  -22.2350   20.2299 C   0  0  0  0  0  0
  -28.2386  -23.7226   20.6181 C   0  0  0  0  0  0
  -29.4430  -18.6046   20.2587 C   0  0  0  0  0  0
  -30.2260  -17.3274   20.9168 C   0  0  0  0  0  0
  -28.5565  -25.0255   19.7169 C   0  0  2  0  0  0
  -28.1205  -19.0126   22.2107 N   0  0  0  0  0  0
  -28.7535  -19.6070   21.1673 N   0  0  0  0  0  0
  -29.8106  -15.8667   20.6973 N   0  0  0  0  0  0
  -31.4721  -12.5889   19.1639 H   0  0  0  0  0  0
  -30.3828  -11.4803   19.9486 H   0  0  0  0  0  0
  -29.7872  -11.7322   17.5153 H   0  0  0  0  0  0
  -29.6271  -13.4589   17.7171 H   0  0  0  0  0  0
  -27.8912  -11.2772   18.9126 H   0  0  0  0  0  0
  -27.3713  -12.5182   17.8010 H   0  0  0  0  0  0
  -27.6332  -14.2495   19.4715 H   0  0  0  0  0  0
  -28.7246  -12.1428   21.4022 H   0  0  0  0  0  0
  -28.4195  -13.8155   21.8058 H   0  0  0  0  0  0
  -25.2740   -9.5663   22.4776 H   0  0  0  0  0  0
  -23.9966   -7.4629   22.7515 H   0  0  0  0  0  0
  -21.0819   -8.8738   19.8987 H   0  0  0  0  0  0
  -22.3662  -10.9637   19.6182 H   0  0  0  0  0  0
  -21.2018   -7.6140   23.9679 H   0  0  0  0  0  0
  -21.1493   -6.0540   25.9063 H   0  0  0  0  0  0
  -22.0601   -2.7591   23.2864 H   0  0  0  0  0  0
  -22.4102  -11.9863   22.4765 H   0  0  0  0  0  0
  -21.1101  -13.1246   22.2646 H   0  0  0  0  0  0
  -24.6491  -15.8416   20.5342 H   0  0  0  0  0  0
  -26.2634  -15.6354   20.0834 H   0  0  0  0  0  0
  -26.7185  -32.5395   23.1001 H   0  0  0  0  0  0
  -25.0176  -33.9643   25.0437 H   0  0  0  0  0  0
  -22.7218  -31.2966   21.3878 H   0  0  0  0  0  0
  -23.3738  -35.9619   23.3297 H   0  0  0  0  0  0
  -24.3575  -36.8921   22.2045 H   0  0  0  0  0  0
  -23.7277  -37.6481   23.6689 H   0  0  0  0  0  0
  -26.1000  -31.5284   20.5972 H   0  0  0  0  0  0
  -26.8463  -30.8224   22.0013 H   0  0  0  0  0  0
  -28.1082  -28.9409   21.2022 H   0  0  0  0  0  0
  -25.9402  -25.8600   19.0964 H   0  0  0  0  0  0
  -23.9669  -27.2677   19.0453 H   0  0  0  0  0  0
  -23.7581  -30.5736   19.3945 H   0  0  0  0  0  0
  -22.7627  -29.2252   19.8534 H   0  0  0  0  0  0
  -25.1312  -36.1858   25.0791 H   0  0  0  0  0  0
  -20.9989  -28.3227   24.1378 H   0  0  0  0  0  0
  -20.5704  -26.2255   23.3606 H   0  0  0  0  0  0
  -21.6664  -26.7410   22.1182 H   0  0  0  0  0  0
  -19.6919  -25.6258   21.1233 H   0  0  0  0  0  0
  -19.6695  -27.3151   20.6730 H   0  0  0  0  0  0
  -17.4229  -26.6670   21.3993 H   0  0  0  0  0  0
  -18.0326  -26.0004   22.8971 H   0  0  0  0  0  0
  -19.7953  -30.7261   24.2212 H   0  0  0  0  0  0
  -17.5039  -31.6243   24.5152 H   0  0  0  0  0  0
  -15.5376  -30.2970   23.7659 H   0  0  0  0  0  0
  -15.8683  -28.0790   22.7093 H   0  0  0  0  0  0
  -24.5928  -30.7065   25.7753 H   0  0  0  0  0  0
  -24.8944  -32.2892   26.4804 H   0  0  0  0  0  0
  -25.8043  -30.8933   27.0220 H   0  0  0  0  0  0
  -26.2977  -29.6698   24.1244 H   0  0  0  0  0  0
  -27.4165  -29.7277   25.4669 H   0  0  0  0  0  0
  -27.8814  -30.4284   23.9356 H   0  0  0  0  0  0
  -27.2632  -33.3665   26.1939 H   0  0  0  0  0  0
  -28.3860  -32.6868   25.0253 H   0  0  0  0  0  0
  -28.0720  -31.8551   26.5418 H   0  0  0  0  0  0
  -28.2582  -38.0094   24.7528 H   0  0  0  0  0  0
  -28.1064  -36.2622   24.6265 H   0  0  0  0  0  0
  -27.2271  -37.1440   25.8850 H   0  0  0  0  0  0
  -20.9349  -29.8761   21.6873 H   0  0  0  0  0  0
  -26.0143  -38.2806   24.1443 H   0  0  0  0  0  0
  -27.3066  -22.1684   22.6706 H   0  0  0  0  0  0
  -25.8049  -18.9964   23.8006 H   0  0  0  0  0  0
  -26.2871  -20.4968   24.5765 H   0  0  0  0  0  0
  -27.2381  -19.0342   24.8215 H   0  0  0  0  0  0
  -28.8275  -24.1022   17.7661 H   0  0  0  0  0  0
  -28.2422  -25.7537   17.6740 H   0  0  0  0  0  0
  -27.1548  -24.4340   18.1337 H   0  0  0  0  0  0
  -28.4497  -21.9855   19.2292 H   0  0  0  0  0  0
  -29.8884  -22.2926   20.1380 H   0  0  0  0  0  0
  -28.6060  -23.9484   21.6197 H   0  0  0  0  0  0
  -27.1539  -23.6632   20.7193 H   0  0  0  0  0  0
  -28.7058  -18.2470   19.5387 H   0  0  0  0  0  0
  -30.1621  -19.1732   19.6677 H   0  0  0  0  0  0
  -30.2939  -17.4773   21.9947 H   0  0  0  0  0  0
  -31.2611  -17.4048   20.5824 H   0  0  0  0  0  0
  -29.6463  -25.0069   19.6809 H   0  0  0  0  0  0
  -28.8299  -15.6753   20.8369 H   0  0  0  0  0  0
  1 25  1  0  0  0
  1 30  2  0  0  0
  1 83  1  0  0  0
  2  3  1  0  0  0
  2 25  1  0  0  0
  2 84  1  0  0  0
  2 85  1  0  0  0
  3  4  1  0  0  0
  3 86  1  0  0  0
  3 87  1  0  0  0
  4  5  1  0  0  0
  4 88  1  0  0  0
  4 89  1  0  0  0
  5  6  1  0  0  0
  5 26  1  0  0  0
  5 90  1  0  0  0
  6 25  1  0  0  0
  6 91  1  0  0  0
  6 92  1  0  0  0
  7  8  2  0  0  0
  7 26  1  0  0  0
  7 29  1  0  0  0
  8  9  1  0  0  0
  8 22  1  0  0  0
  9 10  1  0  0  0
  9 27  2  0  0  0
 10 11  2  0  0  0
 10 15  1  0  0  0
 11 12  1  0  0  0
 11 93  1  0  0  0
 12 13  2  0  0  0
 12 94  1  0  0  0
 13 14  1  0  0  0
 13 31  1  0  0  0
 14 15  2  0  0  0
 14 95  1  0  0  0
 15 96  1  0  0  0
 16 17  2  0  0  0
 16 21  1  0  0  0
 16 31  1  0  0  0
 17 18  1  0  0  0
 17 97  1  0  0  0
 18 19  2  0  0  0
 18 98  1  0  0  0
 19 20  1  0  0  0
 19 24  1  0  0  0
 20 21  2  0  0  0
 20 99  1  0  0  0
 21 23  1  0  0  0
 22 28  1  0  0  0
 22 32  2  0  0  0
 26 27  1  0  0  0
 28100  1  0  0  0
 28101  1  0  0  0
 29102  1  0  0  0
 29103  1  0  0  0
 33 34  1  0  0  0
 33 66  1  0  0  0
 33 70  2  0  0  0
 34 36  1  0  0  0
 34 59  1  0  0  0
 34104  1  0  0  0
 35 44  2  0  0  0
 35 45  1  0  0  0
 35 68  1  0  0  0
 36 56  1  0  0  0
 36105  1  0  0  0
 37 39  1  0  0  0
 37 47  1  0  0  0
 37 66  1  0  0  0
 37106  1  0  0  0
 38 43  2  0  0  0
 38 46  1  0  0  0
 38 47  1  0  0  0
 39 64  1  0  0  0
 39 67  2  0  0  0
 40 52  1  0  0  0
 40 53  2  0  0  0
 40 58  1  0  0  0
 41107  1  0  0  0
 41108  1  0  0  0
 41109  1  0  0  0
 41 48  1  0  0  0
 42 43  1  0  0  0
 42 66  1  0  0  0
 42110  1  0  0  0
 42111  1  0  0  0
 43 44  1  0  0  0
 44112  1  0  0  0
 45 46  2  0  0  0
 45113  1  0  0  0
 46114  1  0  0  0
 47115  1  0  0  0
 47116  1  0  0  0
 48 56  1  0  0  0
 48 65  1  0  0  0
 48117  1  0  0  0
 49 50  1  0  0  0
 49 53  1  0  0  0
 49 64  1  0  0  0
 49118  1  0  0  0
 50 51  1  0  0  0
 50119  1  0  0  0
 50120  1  0  0  0
 51 52  1  0  0  0
 51121  1  0  0  0
 51122  1  0  0  0
 52123  1  0  0  0
 52124  1  0  0  0
 53 54  1  0  0  0
 54 55  2  0  0  0
 54125  1  0  0  0
 55 57  1  0  0  0
 55126  1  0  0  0
 56 69  2  0  0  0
 57 58  2  0  0  0
 57127  1  0  0  0
 58128  1  0  0  0
 59 60  1  0  0  0
 59 61  1  0  0  0
 59 62  1  0  0  0
 60129  1  0  0  0
 60130  1  0  0  0
 60131  1  0  0  0
 61132  1  0  0  0
 61133  1  0  0  0
 61134  1  0  0  0
 62135  1  0  0  0
 62136  1  0  0  0
 62137  1  0  0  0
 63 65  1  0  0  0
 63138  1  0  0  0
 63139  1  0  0  0
 63140  1  0  0  0
 64141  1  0  0  0
 65142  1  0  0  0
 68 80  1  0  0  0
 71 72  1  0  0  0
 71 73  2  0  0  0
 71143  1  0  0  0
 72 74  1  0  0  0
 72 81  2  0  0  0
 73 76  1  0  0  0
 73 82  1  0  0  0
 74144  1  0  0  0
 74145  1  0  0  0
 74146  1  0  0  0
 75147  1  0  0  0
 75148  1  0  0  0
 75149  1  0  0  0
 75 80  1  0  0  0
 76 77  1  0  0  0
 76150  1  0  0  0
 76151  1  0  0  0
 77 80  1  0  0  0
 77152  1  0  0  0
 77153  1  0  0  0
 78 79  1  0  0  0
 78 82  1  0  0  0
 78154  1  0  0  0
 78155  1  0  0  0
 79 83  1  0  0  0
 79156  1  0  0  0
 79157  1  0  0  0
 80158  1  0  0  0
 81 82  1  0  0  0
 83159  1  0  0  0
M  ISO  4   1 100  68 101  80 101  83 100
M  END
> <chiral flag>
0

> <version>
0

> <s_m_source_file>
/data/baiqing/PycharmProjects/Reinvent-master-3.2/result/LINK_invent/BTK/process_docking_weight1_custom_sum_contain_oxygen_bond_distance_aromatic_linkinvent_7_9_3/rearranged_h_0087.sdf

> <i_m_source_file_index>
80

> <r_mmod_Potential_Energy-OPLS-2005>
128.717300415039

> <r_mmod_Stretch_Energy-OPLS-2005>
132.348220825195

> <r_mmod_Bend_Energy-OPLS-2005>
225.140472412109

> <r_mmod_Torsional_Energy-OPLS-2005>
216.346420288086

> <r_mmod_Improper_Torsional_Energy-OPLS-2005>
4.39182996749878

> <r_mmod_Van_der_Waal_Energy-OPLS-2005>
113.220230102539

> <r_mmod_Electrostatic_Energy-OPLS-2005>
-428.471466064453

> <r_mmod_Solvation_Energy-OPLS-2005>
-214.104110717773

> <b_mmod_Minimization_Converged-OPLS-2005>
0

> <r_mmod_RMS_Derivative-OPLS-2005>
2.5283088684082

$$$$
81
                    3D
 Structure written by MMmdl.
174182  0  0  1  0            999 V2000
  -30.6166  -14.6101   20.5095 C   0  0  0  0  0  0
  -30.4338  -12.3831   19.4279 C   0  0  0  0  0  0
  -29.5002  -12.5296   18.2054 C   0  0  0  0  0  0
  -28.0214  -12.3687   18.6129 C   0  0  0  0  0  0
  -27.6515  -13.2135   19.8606 C   0  0  2  0  0  0
  -28.6980  -13.0445   20.9866 C   0  0  0  0  0  0
  -25.2574  -13.8132   20.5665 C   0  0  0  0  0  0
  -24.1833  -13.0391   20.9155 C   0  0  0  0  0  0
  -24.6385  -11.6873   20.8682 C   0  0  0  0  0  0
  -23.9037  -10.4272   21.0377 C   0  0  0  0  0  0
  -24.3598   -9.4202   21.9165 C   0  0  0  0  0  0
  -23.6296   -8.2222   22.0747 C   0  0  0  0  0  0
  -22.4288   -8.0240   21.3528 C   0  0  0  0  0  0
  -21.9911   -9.0193   20.4627 C   0  0  0  0  0  0
  -22.7211  -10.2092   20.3032 C   0  0  0  0  0  0
  -21.6857   -6.0704   22.5253 C   0  0  0  0  0  0
  -21.4025   -6.5615   23.8180 C   0  0  0  0  0  0
  -21.3671   -5.6792   24.9156 C   0  0  0  0  0  0
  -21.6049   -4.3041   24.7220 C   0  0  0  0  0  0
  -21.8829   -3.8116   23.4351 C   0  0  0  0  0  0
  -21.9213   -4.6937   22.3410 C   0  0  0  0  0  0
  -22.7875  -13.5185   21.1852 C   0  0  0  0  0  0
  -22.1695   -4.2109   21.0994 F   0  0  0  0  0  0
  -21.5642   -3.4540   25.7740 F   0  0  0  0  0  0
  -30.0124  -13.3874   20.4218 N   0  0  0  0  0  0
  -26.2985  -12.9315   20.3291 N   0  0  0  0  0  0
  -25.9304  -11.6458   20.5671 N   0  0  0  0  0  0
  -22.0573  -12.8121   22.0402 N   0  0  0  0  0  0
  -25.4271  -15.1851   20.4114 N   0  0  0  0  0  0
  -31.7831  -14.7892   20.1466 O   0  0  0  0  0  0
  -21.6658   -6.8832   21.4207 O   0  0  0  0  0  0
  -22.3558  -14.5511   20.6743 O   0  0  0  0  0  0
  -24.6253  -31.8613   23.2016 C   0  0  0  0  0  0
  -25.9114  -32.4783   23.8326 C   0  0  1  0  0  0
  -27.2384  -27.3654   20.0899 C   0  0  0  0  0  0
  -25.5960  -33.8582   24.2271 N   0  0  0  0  0  0
  -23.4157  -30.4866   21.5441 C   0  0  2  0  0  0
  -24.8570  -28.9370   20.1145 C   0  0  0  0  0  0
  -22.7450  -29.4651   22.4931 C   0  0  0  0  0  0
  -18.0299  -28.1388   22.8495 C   0  0  0  0  0  0
  -24.1512  -36.7290   23.2635 C   0  0  0  0  0  0
  -25.9521  -30.8083   21.3578 C   0  0  0  0  0  0
  -26.0258  -29.4386   20.6998 C   0  0  0  0  0  0
  -27.2159  -28.6669   20.6685 C   0  0  0  0  0  0
  -26.0310  -26.8725   19.5569 C   0  0  0  0  0  0
  -24.8585  -27.6561   19.5369 C   0  0  0  0  0  0
  -23.6269  -29.8192   20.1593 C   0  0  0  0  0  0
  -25.4133  -36.3071   24.0330 C   0  0  1  0  0  0
  -20.5896  -28.3679   23.1295 C   0  0  2  0  0  0
  -20.6799  -26.9408   22.5400 C   0  0  0  0  0  0
  -19.5767  -26.6386   21.5213 C   0  0  0  0  0  0
  -18.1949  -26.7937   22.1625 C   0  0  0  0  0  0
  -19.1551  -28.8853   23.2898 C   0  0  0  0  0  0
  -18.9467  -30.1463   23.8892 C   0  0  0  0  0  0
  -17.6460  -30.6585   24.0570 C   0  0  0  0  0  0
  -25.9074  -34.9453   23.5088 C   0  0  0  0  0  0
  -16.5361  -29.9086   23.6332 C   0  0  0  0  0  0
  -16.7287  -28.6515   23.0331 C   0  0  0  0  0  0
  -26.4496  -31.6567   25.0670 C   0  0  0  0  0  0
  -25.3742  -31.3674   26.1388 C   0  0  0  0  0  0
  -27.0340  -30.3019   24.6056 C   0  0  0  0  0  0
  -27.6058  -32.4277   25.7463 C   0  0  0  0  0  0
  -27.5597  -37.1811   24.8473 C   0  0  0  0  0  0
  -21.4167  -29.3037   22.3676 N   0  0  0  0  0  0
  -26.4314  -37.3766   23.9409 N   0  0  0  0  0  0
  -24.6844  -31.0677   22.0925 N   0  0  0  0  0  0
  -23.4194  -28.8204   23.3000 O   0  0  0  0  0  0
  -28.4289  -26.6396   20.0920 O   0  0  0  0  0  0
  -26.5616  -34.8922   22.4637 O   0  0  0  0  0  0
  -23.5438  -32.1378   23.7410 O   0  0  0  0  0  0
  -29.5835  -17.9278   19.6337 C   0  0  0  0  0  0
  -29.2450  -17.7670   22.0702 C   0  0  0  0  0  0
  -29.7383  -19.4867   19.7803 C   0  0  0  0  0  0
  -30.0296  -17.1314   20.8930 C   0  0  1  0  0  0
  -29.3812  -19.3243   22.1956 C   0  0  2  0  0  0
  -28.5997  -19.8055   23.4397 C   0  0  0  0  0  0
  -28.8222  -26.6424   17.2307 C   0  0  0  0  0  0
  -27.2010  -24.6663   17.3510 C   0  0  0  0  0  0
  -30.4934  -22.7811   19.4225 C   0  0  0  0  0  0
  -28.3874  -24.0277   20.2932 C   0  0  0  0  0  0
  -29.0227  -21.5913   21.1287 C   0  0  0  0  0  0
  -28.4975  -25.2932   17.8995 C   0  0  0  0  0  0
  -29.0359  -22.6122   19.9094 C   0  0  2  0  0  0
  -28.6850  -25.3407   19.4497 C   0  0  1  0  0  0
  -29.7873  -15.6497   20.8260 N   0  0  0  0  0  0
  -28.9955  -20.0709   20.9409 N   0  3  1  0  0  0
  -31.4752  -12.5098   19.1263 H   0  0  0  0  0  0
  -30.3608  -11.3800   19.8501 H   0  0  0  0  0  0
  -29.7579  -11.8022   17.4362 H   0  0  0  0  0  0
  -29.6472  -13.5119   17.7526 H   0  0  0  0  0  0
  -27.8368  -11.3120   18.8108 H   0  0  0  0  0  0
  -27.3723  -12.6349   17.7749 H   0  0  0  0  0  0
  -27.6696  -14.2540   19.5337 H   0  0  0  0  0  0
  -28.7072  -12.0168   21.3544 H   0  0  0  0  0  0
  -28.4485  -13.6651   21.8478 H   0  0  0  0  0  0
  -25.2736   -9.5692   22.4734 H   0  0  0  0  0  0
  -24.0008   -7.4625   22.7473 H   0  0  0  0  0  0
  -21.0852   -8.8672   19.8938 H   0  0  0  0  0  0
  -22.3635  -10.9610   19.6138 H   0  0  0  0  0  0
  -21.2005   -7.6124   23.9658 H   0  0  0  0  0  0
  -21.1514   -6.0537   25.9056 H   0  0  0  0  0  0
  -22.0614   -2.7573   23.2865 H   0  0  0  0  0  0
  -22.4263  -11.9753   22.4703 H   0  0  0  0  0  0
  -21.1173  -13.1053   22.2626 H   0  0  0  0  0  0
  -24.6524  -15.8308   20.5084 H   0  0  0  0  0  0
  -26.2586  -15.6227   20.0368 H   0  0  0  0  0  0
  -26.7167  -32.5458   23.1071 H   0  0  0  0  0  0
  -25.0171  -33.9708   25.0457 H   0  0  0  0  0  0
  -22.7089  -31.3065   21.4031 H   0  0  0  0  0  0
  -23.3784  -35.9615   23.3282 H   0  0  0  0  0  0
  -24.3607  -36.8928   22.2053 H   0  0  0  0  0  0
  -23.7262  -37.6491   23.6659 H   0  0  0  0  0  0
  -26.0750  -31.5737   20.5909 H   0  0  0  0  0  0
  -26.8370  -30.8541   21.9816 H   0  0  0  0  0  0
  -28.1238  -29.0685   21.0976 H   0  0  0  0  0  0
  -25.9695  -25.8659   19.1900 H   0  0  0  0  0  0
  -23.9528  -27.2514   19.1059 H   0  0  0  0  0  0
  -23.7562  -30.5988   19.4063 H   0  0  0  0  0  0
  -22.7433  -29.2550   19.8531 H   0  0  0  0  0  0
  -25.1315  -36.1926   25.0828 H   0  0  0  0  0  0
  -21.0000  -28.3257   24.1410 H   0  0  0  0  0  0
  -20.5741  -26.2268   23.3580 H   0  0  0  0  0  0
  -21.6663  -26.7463   22.1165 H   0  0  0  0  0  0
  -19.6927  -25.6299   21.1241 H   0  0  0  0  0  0
  -19.6730  -27.3192   20.6746 H   0  0  0  0  0  0
  -17.4218  -26.6695   21.4025 H   0  0  0  0  0  0
  -18.0354  -26.0072   22.9011 H   0  0  0  0  0  0
  -19.7937  -30.7306   24.2233 H   0  0  0  0  0  0
  -17.5011  -31.6260   24.5173 H   0  0  0  0  0  0
  -15.5357  -30.2980   23.7655 H   0  0  0  0  0  0
  -15.8696  -28.0855   22.6996 H   0  0  0  0  0  0
  -24.5929  -30.7017   25.7699 H   0  0  0  0  0  0
  -24.8914  -32.2826   26.4815 H   0  0  0  0  0  0
  -25.8075  -30.8841   27.0145 H   0  0  0  0  0  0
  -26.2883  -29.6761   24.1140 H   0  0  0  0  0  0
  -27.4154  -29.7270   25.4496 H   0  0  0  0  0  0
  -27.8685  -30.4343   23.9173 H   0  0  0  0  0  0
  -27.2669  -33.3570   26.2042 H   0  0  0  0  0  0
  -28.3883  -32.6835   25.0310 H   0  0  0  0  0  0
  -28.0683  -31.8378   26.5379 H   0  0  0  0  0  0
  -28.2595  -38.0124   24.7525 H   0  0  0  0  0  0
  -28.1120  -36.2656   24.6309 H   0  0  0  0  0  0
  -27.2305  -37.1459   25.8871 H   0  0  0  0  0  0
  -20.9332  -29.8730   21.6876 H   0  0  0  0  0  0
  -26.0202  -38.2855   24.1386 H   0  0  0  0  0  0
  -30.1741  -17.5997   18.7776 H   0  0  0  0  0  0
  -28.5453  -17.6895   19.3937 H   0  0  0  0  0  0
  -29.5839  -17.3047   22.9970 H   0  0  0  0  0  0
  -28.1884  -17.5045   21.9938 H   0  0  0  0  0  0
  -29.3999  -19.9673   18.8630 H   0  0  0  0  0  0
  -30.7994  -19.7112   19.8827 H   0  0  0  0  0  0
  -31.0980  -17.2987   21.0462 H   0  0  0  0  0  0
  -30.4350  -19.5316   22.3843 H   0  0  0  0  0  0
  -27.5240  -19.7470   23.2816 H   0  0  0  0  0  0
  -28.8453  -20.8332   23.7121 H   0  0  0  0  0  0
  -28.8410  -19.2011   24.3136 H   0  0  0  0  0  0
  -29.0063  -26.5260   16.1620 H   0  0  0  0  0  0
  -29.7151  -27.0897   17.6680 H   0  0  0  0  0  0
  -28.0133  -27.3637   17.3565 H   0  0  0  0  0  0
  -27.3799  -24.2088   16.3764 H   0  0  0  0  0  0
  -26.4156  -25.4018   17.1879 H   0  0  0  0  0  0
  -26.8149  -23.8828   18.0041 H   0  0  0  0  0  0
  -30.5651  -23.2000   18.4213 H   0  0  0  0  0  0
  -31.0275  -21.8367   19.3797 H   0  0  0  0  0  0
  -31.0646  -23.4223   20.0952 H   0  0  0  0  0  0
  -28.7251  -24.2632   21.3025 H   0  0  0  0  0  0
  -27.3073  -23.9040   20.3866 H   0  0  0  0  0  0
  -28.1405  -21.8329   21.7235 H   0  0  0  0  0  0
  -29.8689  -21.8414   21.7715 H   0  0  0  0  0  0
  -29.2721  -24.6225   17.5379 H   0  0  0  0  0  0
  -28.4385  -22.1933   19.0980 H   0  0  0  0  0  0
  -29.7724  -25.3877   19.5209 H   0  0  0  0  0  0
  -28.8493  -15.3538   21.0531 H   0  0  0  0  0  0
  -28.0244  -19.8572   20.7583 H   0  0  0  0  0  0
  1 25  1  0  0  0
  1 30  2  0  0  0
  1 85  1  0  0  0
  2  3  1  0  0  0
  2 25  1  0  0  0
  2 87  1  0  0  0
  2 88  1  0  0  0
  3  4  1  0  0  0
  3 89  1  0  0  0
  3 90  1  0  0  0
  4  5  1  0  0  0
  4 91  1  0  0  0
  4 92  1  0  0  0
  5  6  1  0  0  0
  5 26  1  0  0  0
  5 93  1  0  0  0
  6 25  1  0  0  0
  6 94  1  0  0  0
  6 95  1  0  0  0
  7  8  2  0  0  0
  7 26  1  0  0  0
  7 29  1  0  0  0
  8  9  1  0  0  0
  8 22  1  0  0  0
  9 10  1  0  0  0
  9 27  2  0  0  0
 10 11  2  0  0  0
 10 15  1  0  0  0
 11 12  1  0  0  0
 11 96  1  0  0  0
 12 13  2  0  0  0
 12 97  1  0  0  0
 13 14  1  0  0  0
 13 31  1  0  0  0
 14 15  2  0  0  0
 14 98  1  0  0  0
 15 99  1  0  0  0
 16 17  2  0  0  0
 16 21  1  0  0  0
 16 31  1  0  0  0
 17 18  1  0  0  0
 17100  1  0  0  0
 18 19  2  0  0  0
 18101  1  0  0  0
 19 20  1  0  0  0
 19 24  1  0  0  0
 20 21  2  0  0  0
 20102  1  0  0  0
 21 23  1  0  0  0
 22 28  1  0  0  0
 22 32  2  0  0  0
 26 27  1  0  0  0
 28103  1  0  0  0
 28104  1  0  0  0
 29105  1  0  0  0
 29106  1  0  0  0
 33 34  1  0  0  0
 33 66  1  0  0  0
 33 70  2  0  0  0
 34 36  1  0  0  0
 34 59  1  0  0  0
 34107  1  0  0  0
 35 44  2  0  0  0
 35 45  1  0  0  0
 35 68  1  0  0  0
 36 56  1  0  0  0
 36108  1  0  0  0
 37 39  1  0  0  0
 37 47  1  0  0  0
 37 66  1  0  0  0
 37109  1  0  0  0
 38 43  2  0  0  0
 38 46  1  0  0  0
 38 47  1  0  0  0
 39 64  1  0  0  0
 39 67  2  0  0  0
 40 52  1  0  0  0
 40 53  2  0  0  0
 40 58  1  0  0  0
 41110  1  0  0  0
 41111  1  0  0  0
 41112  1  0  0  0
 41 48  1  0  0  0
 42 43  1  0  0  0
 42 66  1  0  0  0
 42113  1  0  0  0
 42114  1  0  0  0
 43 44  1  0  0  0
 44115  1  0  0  0
 45 46  2  0  0  0
 45116  1  0  0  0
 46117  1  0  0  0
 47118  1  0  0  0
 47119  1  0  0  0
 48 56  1  0  0  0
 48 65  1  0  0  0
 48120  1  0  0  0
 49 50  1  0  0  0
 49 53  1  0  0  0
 49 64  1  0  0  0
 49121  1  0  0  0
 50 51  1  0  0  0
 50122  1  0  0  0
 50123  1  0  0  0
 51 52  1  0  0  0
 51124  1  0  0  0
 51125  1  0  0  0
 52126  1  0  0  0
 52127  1  0  0  0
 53 54  1  0  0  0
 54 55  2  0  0  0
 54128  1  0  0  0
 55 57  1  0  0  0
 55129  1  0  0  0
 56 69  2  0  0  0
 57 58  2  0  0  0
 57130  1  0  0  0
 58131  1  0  0  0
 59 60  1  0  0  0
 59 61  1  0  0  0
 59 62  1  0  0  0
 60132  1  0  0  0
 60133  1  0  0  0
 60134  1  0  0  0
 61135  1  0  0  0
 61136  1  0  0  0
 61137  1  0  0  0
 62138  1  0  0  0
 62139  1  0  0  0
 62140  1  0  0  0
 63 65  1  0  0  0
 63141  1  0  0  0
 63142  1  0  0  0
 63143  1  0  0  0
 64144  1  0  0  0
 65145  1  0  0  0
 68 84  1  0  0  0
 71 73  1  0  0  0
 71 74  1  0  0  0
 71146  1  0  0  0
 71147  1  0  0  0
 72 74  1  0  0  0
 72 75  1  0  0  0
 72148  1  0  0  0
 72149  1  0  0  0
 73 86  1  0  0  0
 73150  1  0  0  0
 73151  1  0  0  0
 74 85  1  0  0  0
 74152  1  0  0  0
 75 76  1  0  0  0
 75 86  1  0  0  0
 75153  1  0  0  0
 76154  1  0  0  0
 76155  1  0  0  0
 76156  1  0  0  0
 77157  1  0  0  0
 77158  1  0  0  0
 77159  1  0  0  0
 77 82  1  0  0  0
 78 82  1  0  0  0
 78160  1  0  0  0
 78161  1  0  0  0
 78162  1  0  0  0
 79163  1  0  0  0
 79164  1  0  0  0
 79165  1  0  0  0
 79 83  1  0  0  0
 80 83  1  0  0  0
 80166  1  0  0  0
 80167  1  0  0  0
 80 84  1  0  0  0
 81 83  1  0  0  0
 81168  1  0  0  0
 81169  1  0  0  0
 81 86  1  0  0  0
 82 84  1  0  0  0
 82170  1  0  0  0
 83171  1  0  0  0
 84172  1  0  0  0
 85173  1  0  0  0
 86174  1  0  0  0
M  CHG  1  86   1
M  ISO  4   1 100  68 101  84 101  85 100
M  END
> <chiral flag>
0

> <version>
0

> <s_m_source_file>
/data/baiqing/PycharmProjects/Reinvent-master-3.2/result/LINK_invent/BTK/process_docking_weight1_custom_sum_contain_oxygen_bond_distance_aromatic_linkinvent_7_9_3/rearranged_h_0087.sdf

> <i_m_source_file_index>
81

> <r_mmod_Potential_Energy-OPLS-2005>
60.3934860229492

> <r_mmod_Stretch_Energy-OPLS-2005>
75.9799194335938

> <r_mmod_Bend_Energy-OPLS-2005>
196.810897827148

> <r_mmod_Torsional_Energy-OPLS-2005>
264.046722412109

> <r_mmod_Improper_Torsional_Energy-OPLS-2005>
4.70188140869141

> <r_mmod_Van_der_Waal_Energy-OPLS-2005>
128.548263549805

> <r_mmod_Electrostatic_Energy-OPLS-2005>
-209.303909301758

> <r_mmod_Solvation_Energy-OPLS-2005>
-434.013122558594

> <b_mmod_Minimization_Converged-OPLS-2005>
0

> <r_mmod_RMS_Derivative-OPLS-2005>
3.70474314689636

$$$$
82
                    3D
 Structure written by MMmdl.
164172  0  0  1  0            999 V2000
  -30.6752  -14.5021   20.5606 C   0  0  0  0  0  0
  -30.4230  -12.3233   19.4217 C   0  0  0  0  0  0
  -29.4938  -12.5084   18.2037 C   0  0  0  0  0  0
  -28.0149  -12.3640   18.6154 C   0  0  0  0  0  0
  -27.6566  -13.2073   19.8686 C   0  0  2  0  0  0
  -28.6979  -12.9995   20.9907 C   0  0  0  0  0  0
  -25.2575  -13.8162   20.5676 C   0  0  0  0  0  0
  -24.1829  -13.0431   20.9171 C   0  0  0  0  0  0
  -24.6391  -11.6898   20.8720 C   0  0  0  0  0  0
  -23.9056  -10.4286   21.0394 C   0  0  0  0  0  0
  -24.3614   -9.4206   21.9176 C   0  0  0  0  0  0
  -23.6288   -8.2242   22.0751 C   0  0  0  0  0  0
  -22.4272   -8.0279   21.3541 C   0  0  0  0  0  0
  -21.9896   -9.0247   20.4644 C   0  0  0  0  0  0
  -22.7225  -10.2128   20.3052 C   0  0  0  0  0  0
  -21.6856   -6.0731   22.5275 C   0  0  0  0  0  0
  -21.4016   -6.5634   23.8211 C   0  0  0  0  0  0
  -21.3661   -5.6788   24.9174 C   0  0  0  0  0  0
  -21.6051   -4.3050   24.7229 C   0  0  0  0  0  0
  -21.8817   -3.8142   23.4347 C   0  0  0  0  0  0
  -21.9196   -4.6957   22.3402 C   0  0  0  0  0  0
  -22.7861  -13.5225   21.1852 C   0  0  0  0  0  0
  -22.1658   -4.2137   21.0979 F   0  0  0  0  0  0
  -21.5639   -3.4537   25.7746 F   0  0  0  0  0  0
  -30.0235  -13.3135   20.4340 N   0  0  0  0  0  0
  -26.2993  -12.9327   20.3329 N   0  0  0  0  0  0
  -25.9307  -11.6484   20.5723 N   0  0  0  0  0  0
  -22.0514  -12.8209   22.0415 N   0  0  0  0  0  0
  -25.4316  -15.1885   20.4113 N   0  0  0  0  0  0
  -31.8122  -14.6887   20.1192 O   0  0  0  0  0  0
  -21.6638   -6.8874   21.4237 O   0  0  0  0  0  0
  -22.3540  -14.5540   20.6721 O   0  0  0  0  0  0
  -24.6150  -31.8661   23.2079 C   0  0  0  0  0  0
  -25.9037  -32.4813   23.8381 C   0  0  1  0  0  0
  -27.2403  -27.4093   20.0962 C   0  0  0  0  0  0
  -25.5893  -33.8615   24.2307 N   0  0  0  0  0  0
  -23.4048  -30.4877   21.5485 C   0  0  2  0  0  0
  -24.8513  -28.9481   20.1149 C   0  0  0  0  0  0
  -22.7415  -29.4641   22.4979 C   0  0  0  0  0  0
  -18.0275  -28.1376   22.8491 C   0  0  0  0  0  0
  -24.1491  -36.7305   23.2634 C   0  0  0  0  0  0
  -25.9350  -30.8212   21.3672 C   0  0  0  0  0  0
  -26.0100  -29.4534   20.7141 C   0  0  0  0  0  0
  -27.2007  -28.6889   20.7051 C   0  0  0  0  0  0
  -26.0536  -26.9166   19.5046 C   0  0  0  0  0  0
  -24.8686  -27.6796   19.5099 C   0  0  0  0  0  0
  -23.6147  -29.8181   20.1635 C   0  0  0  0  0  0
  -25.4112  -36.3103   24.0330 C   0  0  1  0  0  0
  -20.5865  -28.3659   23.1309 C   0  0  2  0  0  0
  -20.6770  -26.9398   22.5403 C   0  0  0  0  0  0
  -19.5745  -26.6385   21.5205 C   0  0  0  0  0  0
  -18.1928  -26.7921   22.1627 C   0  0  0  0  0  0
  -19.1526  -28.8837   23.2900 C   0  0  0  0  0  0
  -18.9454  -30.1444   23.8908 C   0  0  0  0  0  0
  -17.6456  -30.6586   24.0559 C   0  0  0  0  0  0
  -25.9040  -34.9472   23.5117 C   0  0  0  0  0  0
  -16.5346  -29.9084   23.6327 C   0  0  0  0  0  0
  -16.7265  -28.6500   23.0350 C   0  0  0  0  0  0
  -26.4455  -31.6605   25.0724 C   0  0  0  0  0  0
  -25.3706  -31.3723   26.1461 C   0  0  0  0  0  0
  -27.0276  -30.3040   24.6119 C   0  0  0  0  0  0
  -27.6044  -32.4310   25.7484 C   0  0  0  0  0  0
  -27.5584  -37.1803   24.8459 C   0  0  0  0  0  0
  -21.4143  -29.3025   22.3720 N   0  0  0  0  0  0
  -26.4293  -37.3791   23.9409 N   0  0  0  0  0  0
  -24.6696  -31.0737   22.0993 N   0  0  0  0  0  0
  -23.4179  -28.8187   23.3030 O   0  0  0  0  0  0
  -28.4310  -26.6991   20.1322 O   0  0  0  0  0  0
  -26.5605  -34.8924   22.4682 O   0  0  0  0  0  0
  -23.5338  -32.1424   23.7459 O   0  0  0  0  0  0
  -29.3897  -20.5075   19.9740 C   0  0  0  0  0  0
  -29.9433  -21.8142   19.8864 C   0  0  0  0  0  0
  -31.3125  -21.9647   20.2441 C   0  0  0  0  0  0
  -30.1950  -19.4116   20.3770 C   0  0  0  0  0  0
  -32.0186  -20.8233   20.7000 C   0  0  0  0  0  0
  -33.4678  -20.8864   21.1506 C   0  0  0  0  0  0
  -32.7092  -23.4283   18.6951 C   0  0  0  0  0  0
  -29.1312  -22.9649   19.2497 C   0  0  0  0  0  0
  -32.0543  -23.2948   20.0776 C   0  0  0  0  0  0
  -29.7305  -17.9435   20.2454 C   0  0  0  0  0  0
  -28.6914  -24.1700   20.1437 C   0  0  0  0  0  0
  -30.3579  -16.9267   21.2548 C   0  0  0  0  0  0
  -28.6399  -25.5087   19.3436 C   0  0  0  0  0  0
  -31.4809  -19.5887   20.7367 N   0  0  0  0  0  0
  -29.9412  -15.5153   21.0685 N   0  0  0  0  0  0
  -31.4674  -12.4286   19.1223 H   0  0  0  0  0  0
  -30.3285  -11.3143   19.8266 H   0  0  0  0  0  0
  -29.7366  -11.7823   17.4268 H   0  0  0  0  0  0
  -29.6562  -13.4937   17.7630 H   0  0  0  0  0  0
  -27.8277  -11.3079   18.8129 H   0  0  0  0  0  0
  -27.3644  -12.6346   17.7826 H   0  0  0  0  0  0
  -27.6949  -14.2529   19.5622 H   0  0  0  0  0  0
  -28.6820  -11.9654   21.3381 H   0  0  0  0  0  0
  -28.4550  -13.6034   21.8661 H   0  0  0  0  0  0
  -25.2769   -9.5686   22.4733 H   0  0  0  0  0  0
  -24.0007   -7.4637   22.7467 H   0  0  0  0  0  0
  -21.0830   -8.8759   19.8943 H   0  0  0  0  0  0
  -22.3684  -10.9660   19.6156 H   0  0  0  0  0  0
  -21.1997   -7.6143   23.9709 H   0  0  0  0  0  0
  -21.1492   -6.0521   25.9077 H   0  0  0  0  0  0
  -22.0597   -2.7600   23.2854 H   0  0  0  0  0  0
  -22.4130  -11.9849   22.4766 H   0  0  0  0  0  0
  -21.1143  -13.1239   22.2647 H   0  0  0  0  0  0
  -24.6686  -15.8474   20.5261 H   0  0  0  0  0  0
  -26.2870  -15.6258   20.0923 H   0  0  0  0  0  0
  -26.7104  -32.5515   23.1141 H   0  0  0  0  0  0
  -25.0046  -33.9781   25.0455 H   0  0  0  0  0  0
  -22.6941  -31.3045   21.4078 H   0  0  0  0  0  0
  -23.3762  -35.9627   23.3288 H   0  0  0  0  0  0
  -24.3586  -36.8932   22.2050 H   0  0  0  0  0  0
  -23.7232  -37.6501   23.6659 H   0  0  0  0  0  0
  -26.0531  -31.5867   20.5993 H   0  0  0  0  0  0
  -26.8200  -30.8721   21.9898 H   0  0  0  0  0  0
  -28.0951  -29.0760   21.1728 H   0  0  0  0  0  0
  -26.0103  -25.9385   19.0515 H   0  0  0  0  0  0
  -23.9735  -27.2799   19.0535 H   0  0  0  0  0  0
  -23.7250  -30.5918   19.4028 H   0  0  0  0  0  0
  -22.7388  -29.2378   19.8680 H   0  0  0  0  0  0
  -25.1294  -36.1960   25.0822 H   0  0  0  0  0  0
  -20.9960  -28.3220   24.1428 H   0  0  0  0  0  0
  -20.5689  -26.2263   23.3584 H   0  0  0  0  0  0
  -21.6637  -26.7454   22.1181 H   0  0  0  0  0  0
  -19.6908  -25.6302   21.1225 H   0  0  0  0  0  0
  -19.6682  -27.3205   20.6743 H   0  0  0  0  0  0
  -17.4191  -26.6653   21.4039 H   0  0  0  0  0  0
  -18.0349  -26.0065   22.9029 H   0  0  0  0  0  0
  -19.7931  -30.7257   24.2285 H   0  0  0  0  0  0
  -17.5013  -31.6273   24.5147 H   0  0  0  0  0  0
  -15.5348  -30.2990   23.7650 H   0  0  0  0  0  0
  -15.8663  -28.0825   22.7059 H   0  0  0  0  0  0
  -24.5903  -30.7042   25.7795 H   0  0  0  0  0  0
  -24.8863  -32.2879   26.4868 H   0  0  0  0  0  0
  -25.8041  -30.8927   27.0245 H   0  0  0  0  0  0
  -26.2826  -29.6830   24.1132 H   0  0  0  0  0  0
  -27.3984  -29.7253   25.4589 H   0  0  0  0  0  0
  -27.8692  -30.4348   23.9313 H   0  0  0  0  0  0
  -27.2692  -33.3621   26.2063 H   0  0  0  0  0  0
  -28.3856  -32.6841   25.0305 H   0  0  0  0  0  0
  -28.0703  -31.8422   26.5394 H   0  0  0  0  0  0
  -28.2590  -38.0112   24.7532 H   0  0  0  0  0  0
  -28.1093  -36.2647   24.6259 H   0  0  0  0  0  0
  -27.2303  -37.1420   25.8860 H   0  0  0  0  0  0
  -20.9309  -29.8735   21.6932 H   0  0  0  0  0  0
  -26.0181  -38.2864   24.1433 H   0  0  0  0  0  0
  -28.3736  -20.3286   19.6485 H   0  0  0  0  0  0
  -33.5580  -21.4934   22.0517 H   0  0  0  0  0  0
  -34.1021  -21.3189   20.3780 H   0  0  0  0  0  0
  -33.8612  -19.8954   21.3802 H   0  0  0  0  0  0
  -33.2684  -24.3613   18.6217 H   0  0  0  0  0  0
  -31.9690  -23.4288   17.8957 H   0  0  0  0  0  0
  -33.4052  -22.6132   18.4966 H   0  0  0  0  0  0
  -28.2463  -22.5509   18.7650 H   0  0  0  0  0  0
  -29.7325  -23.3392   18.4224 H   0  0  0  0  0  0
  -32.8169  -23.3998   20.8491 H   0  0  0  0  0  0
  -31.3967  -24.1430   20.2409 H   0  0  0  0  0  0
  -29.9526  -17.6233   19.2272 H   0  0  0  0  0  0
  -28.6441  -17.9203   20.3414 H   0  0  0  0  0  0
  -29.3822  -24.2936   20.9761 H   0  0  0  0  0  0
  -27.7253  -23.9565   20.6026 H   0  0  0  0  0  0
  -30.0942  -17.2255   22.2693 H   0  0  0  0  0  0
  -31.4458  -16.9867   21.2034 H   0  0  0  0  0  0
  -27.9717  -25.4289   18.4880 H   0  0  0  0  0  0
  -29.6234  -25.6530   18.8940 H   0  0  0  0  0  0
  -29.0092  -15.2723   21.3709 H   0  0  0  0  0  0
  1 25  1  0  0  0
  1 30  2  0  0  0
  1 85  1  0  0  0
  2  3  1  0  0  0
  2 25  1  0  0  0
  2 86  1  0  0  0
  2 87  1  0  0  0
  3  4  1  0  0  0
  3 88  1  0  0  0
  3 89  1  0  0  0
  4  5  1  0  0  0
  4 90  1  0  0  0
  4 91  1  0  0  0
  5  6  1  0  0  0
  5 26  1  0  0  0
  5 92  1  0  0  0
  6 25  1  0  0  0
  6 93  1  0  0  0
  6 94  1  0  0  0
  7  8  2  0  0  0
  7 26  1  0  0  0
  7 29  1  0  0  0
  8  9  1  0  0  0
  8 22  1  0  0  0
  9 10  1  0  0  0
  9 27  2  0  0  0
 10 11  2  0  0  0
 10 15  1  0  0  0
 11 12  1  0  0  0
 11 95  1  0  0  0
 12 13  2  0  0  0
 12 96  1  0  0  0
 13 14  1  0  0  0
 13 31  1  0  0  0
 14 15  2  0  0  0
 14 97  1  0  0  0
 15 98  1  0  0  0
 16 17  2  0  0  0
 16 21  1  0  0  0
 16 31  1  0  0  0
 17 18  1  0  0  0
 17 99  1  0  0  0
 18 19  2  0  0  0
 18100  1  0  0  0
 19 20  1  0  0  0
 19 24  1  0  0  0
 20 21  2  0  0  0
 20101  1  0  0  0
 21 23  1  0  0  0
 22 28  1  0  0  0
 22 32  2  0  0  0
 26 27  1  0  0  0
 28102  1  0  0  0
 28103  1  0  0  0
 29104  1  0  0  0
 29105  1  0  0  0
 33 34  1  0  0  0
 33 66  1  0  0  0
 33 70  2  0  0  0
 34 36  1  0  0  0
 34 59  1  0  0  0
 34106  1  0  0  0
 35 44  2  0  0  0
 35 45  1  0  0  0
 35 68  1  0  0  0
 36 56  1  0  0  0
 36107  1  0  0  0
 37 39  1  0  0  0
 37 47  1  0  0  0
 37 66  1  0  0  0
 37108  1  0  0  0
 38 43  2  0  0  0
 38 46  1  0  0  0
 38 47  1  0  0  0
 39 64  1  0  0  0
 39 67  2  0  0  0
 40 52  1  0  0  0
 40 53  2  0  0  0
 40 58  1  0  0  0
 41109  1  0  0  0
 41110  1  0  0  0
 41111  1  0  0  0
 41 48  1  0  0  0
 42 43  1  0  0  0
 42 66  1  0  0  0
 42112  1  0  0  0
 42113  1  0  0  0
 43 44  1  0  0  0
 44114  1  0  0  0
 45 46  2  0  0  0
 45115  1  0  0  0
 46116  1  0  0  0
 47117  1  0  0  0
 47118  1  0  0  0
 48 56  1  0  0  0
 48 65  1  0  0  0
 48119  1  0  0  0
 49 50  1  0  0  0
 49 53  1  0  0  0
 49 64  1  0  0  0
 49120  1  0  0  0
 50 51  1  0  0  0
 50121  1  0  0  0
 50122  1  0  0  0
 51 52  1  0  0  0
 51123  1  0  0  0
 51124  1  0  0  0
 52125  1  0  0  0
 52126  1  0  0  0
 53 54  1  0  0  0
 54 55  2  0  0  0
 54127  1  0  0  0
 55 57  1  0  0  0
 55128  1  0  0  0
 56 69  2  0  0  0
 57 58  2  0  0  0
 57129  1  0  0  0
 58130  1  0  0  0
 59 60  1  0  0  0
 59 61  1  0  0  0
 59 62  1  0  0  0
 60131  1  0  0  0
 60132  1  0  0  0
 60133  1  0  0  0
 61134  1  0  0  0
 61135  1  0  0  0
 61136  1  0  0  0
 62137  1  0  0  0
 62138  1  0  0  0
 62139  1  0  0  0
 63 65  1  0  0  0
 63140  1  0  0  0
 63141  1  0  0  0
 63142  1  0  0  0
 64143  1  0  0  0
 65144  1  0  0  0
 68 83  1  0  0  0
 71 72  2  0  0  0
 71 74  1  0  0  0
 71145  1  0  0  0
 72 73  1  0  0  0
 72 78  1  0  0  0
 73 75  2  0  0  0
 73 79  1  0  0  0
 74 80  1  0  0  0
 74 84  2  0  0  0
 75 76  1  0  0  0
 75 84  1  0  0  0
 76146  1  0  0  0
 76147  1  0  0  0
 76148  1  0  0  0
 77 79  1  0  0  0
 77149  1  0  0  0
 77150  1  0  0  0
 77151  1  0  0  0
 78 81  1  0  0  0
 78152  1  0  0  0
 78153  1  0  0  0
 79154  1  0  0  0
 79155  1  0  0  0
 80 82  1  0  0  0
 80156  1  0  0  0
 80157  1  0  0  0
 81 83  1  0  0  0
 81158  1  0  0  0
 81159  1  0  0  0
 82 85  1  0  0  0
 82160  1  0  0  0
 82161  1  0  0  0
 83162  1  0  0  0
 83163  1  0  0  0
 85164  1  0  0  0
M  ISO  4   1 100  68 101  83 101  85 100
M  END
> <chiral flag>
0

> <version>
0

> <s_m_source_file>
/data/baiqing/PycharmProjects/Reinvent-master-3.2/result/LINK_invent/BTK/process_docking_weight1_custom_sum_contain_oxygen_bond_distance_aromatic_linkinvent_7_9_3/rearranged_h_0087.sdf

> <i_m_source_file_index>
82

> <r_mmod_Potential_Energy-OPLS-2005>
-214.046813964844

> <r_mmod_Stretch_Energy-OPLS-2005>
45.826171875

> <r_mmod_Bend_Energy-OPLS-2005>
115.026817321777

> <r_mmod_Torsional_Energy-OPLS-2005>
199.084747314453

> <r_mmod_Improper_Torsional_Energy-OPLS-2005>
4.79788494110107

> <r_mmod_Van_der_Waal_Energy-OPLS-2005>
156.318939208984

> <r_mmod_Electrostatic_Energy-OPLS-2005>
-524.633666992188

> <r_mmod_Solvation_Energy-OPLS-2005>
-227.216705322266

> <b_mmod_Minimization_Converged-OPLS-2005>
0

> <r_mmod_RMS_Derivative-OPLS-2005>
1.12040603160858

$$$$
83
                    3D
 Structure written by MMmdl.
155163  0  0  1  0            999 V2000
  -30.5650  -14.8742   20.4396 C   0  0  0  0  0  0
  -30.4412  -12.5420   19.4817 C   0  0  0  0  0  0
  -29.5170  -12.5226   18.2433 C   0  0  0  0  0  0
  -28.0484  -12.3189   18.6633 C   0  0  0  0  0  0
  -27.6351  -13.2400   19.8414 C   0  0  2  0  0  0
  -28.6809  -13.2335   20.9761 C   0  0  0  0  0  0
  -25.2489  -13.8199   20.5704 C   0  0  0  0  0  0
  -24.1796  -13.0432   20.9216 C   0  0  0  0  0  0
  -24.6404  -11.6913   20.8756 C   0  0  0  0  0  0
  -23.9084  -10.4287   21.0411 C   0  0  0  0  0  0
  -24.3631   -9.4203   21.9190 C   0  0  0  0  0  0
  -23.6300   -8.2240   22.0760 C   0  0  0  0  0  0
  -22.4280   -8.0284   21.3550 C   0  0  0  0  0  0
  -21.9922   -9.0260   20.4650 C   0  0  0  0  0  0
  -22.7257  -10.2136   20.3060 C   0  0  0  0  0  0
  -21.6855   -6.0738   22.5279 C   0  0  0  0  0  0
  -21.4015   -6.5642   23.8213 C   0  0  0  0  0  0
  -21.3658   -5.6796   24.9175 C   0  0  0  0  0  0
  -21.6045   -4.3060   24.7226 C   0  0  0  0  0  0
  -21.8819   -3.8149   23.4349 C   0  0  0  0  0  0
  -21.9194   -4.6964   22.3403 C   0  0  0  0  0  0
  -22.7819  -13.5211   21.1872 C   0  0  0  0  0  0
  -22.1663   -4.2151   21.0981 F   0  0  0  0  0  0
  -21.5627   -3.4542   25.7739 F   0  0  0  0  0  0
  -29.9638  -13.6259   20.3792 N   0  0  0  0  0  0
  -26.2913  -12.9419   20.3254 N   0  0  0  0  0  0
  -25.9334  -11.6555   20.5741 N   0  0  0  0  0  0
  -22.0472  -12.8199   22.0431 N   0  0  0  0  0  0
  -25.4154  -15.1929   20.4114 N   0  0  0  0  0  0
  -31.7687  -14.9602   20.1793 O   0  0  0  0  0  0
  -21.6642   -6.8883   21.4243 O   0  0  0  0  0  0
  -22.3500  -14.5516   20.6721 O   0  0  0  0  0  0
  -24.6399  -31.8484   23.1921 C   0  0  0  0  0  0
  -25.9185  -32.4720   23.8299 C   0  0  1  0  0  0
  -27.2141  -27.1748   20.1511 C   0  0  0  0  0  0
  -25.5949  -33.8524   24.2215 N   0  0  0  0  0  0
  -23.4420  -30.4698   21.5367 C   0  0  2  0  0  0
  -24.8926  -28.9033   20.1117 C   0  0  0  0  0  0
  -22.7545  -29.4582   22.4874 C   0  0  0  0  0  0
  -18.0304  -28.1396   22.8477 C   0  0  0  0  0  0
  -24.1491  -36.7265   23.2641 C   0  0  0  0  0  0
  -25.9961  -30.7337   21.3872 C   0  0  0  0  0  0
  -26.0695  -29.3482   20.7300 C   0  0  0  0  0  0
  -27.2362  -28.4993   20.7350 C   0  0  0  0  0  0
  -26.0195  -26.8283   19.4853 C   0  0  0  0  0  0
  -24.8774  -27.6540   19.4747 C   0  0  0  0  0  0
  -23.6675  -29.8015   20.1553 C   0  0  0  0  0  0
  -25.4123  -36.3047   24.0317 C   0  0  1  0  0  0
  -20.5912  -28.3730   23.1238 C   0  0  2  0  0  0
  -20.6795  -26.9437   22.5403 C   0  0  0  0  0  0
  -19.5771  -26.6385   21.5212 C   0  0  0  0  0  0
  -18.1951  -26.7934   22.1623 C   0  0  0  0  0  0
  -19.1559  -28.8879   23.2852 C   0  0  0  0  0  0
  -18.9473  -30.1475   23.8878 C   0  0  0  0  0  0
  -17.6469  -30.6593   24.0556 C   0  0  0  0  0  0
  -25.9070  -34.9422   23.5074 C   0  0  0  0  0  0
  -16.5363  -29.9082   23.6333 C   0  0  0  0  0  0
  -16.7288  -28.6500   23.0356 C   0  0  0  0  0  0
  -26.4518  -31.6574   25.0725 C   0  0  0  0  0  0
  -25.3710  -31.3753   26.1424 C   0  0  0  0  0  0
  -27.0380  -30.2974   24.6282 C   0  0  0  0  0  0
  -27.6052  -32.4335   25.7512 C   0  0  0  0  0  0
  -27.5578  -37.1793   24.8466 C   0  0  0  0  0  0
  -21.4240  -29.3068   22.3614 N   0  0  0  0  0  0
  -26.4291  -37.3754   23.9407 N   0  0  0  0  0  0
  -24.7120  -31.0375   22.0939 N   0  0  0  0  0  0
  -23.4200  -28.8123   23.3010 O   0  0  0  0  0  0
  -28.2415  -26.1743   20.1876 O   0  0  0  0  0  0
  -26.5650  -34.8909   22.4649 O   0  0  0  0  0  0
  -23.5527  -32.1345   23.7160 O   0  0  0  0  0  0
  -29.3768  -22.8012   19.6529 C   0  0  0  0  0  0
  -29.6912  -21.3858   19.5281 C   0  0  0  0  0  0
  -28.4220  -23.2959   20.5981 C   0  0  0  0  0  0
  -29.0942  -20.3686   20.3450 C   0  0  0  0  0  0
  -27.8952  -22.2034   21.3841 C   0  0  0  0  0  0
  -25.4029  -22.2667   21.8679 C   0  0  0  0  0  0
  -27.8712  -24.8323   20.8347 C   0  0  0  0  0  0
  -29.1254  -18.7476   20.0571 C   0  0  0  0  0  0
  -26.8186  -22.4464   22.4352 C   0  0  0  0  0  0
  -30.0808  -17.5649   20.7343 C   0  0  0  0  0  0
  -28.2094  -20.8569   21.2620 N   0  0  0  0  0  0
  -29.7705  -16.0282   20.5936 N   0  0  0  0  0  0
  -31.4764  -12.6950   19.1730 H   0  0  0  0  0  0
  -30.4208  -11.5808   19.9972 H   0  0  0  0  0  0
  -29.8219  -11.7349   17.5528 H   0  0  0  0  0  0
  -29.6153  -13.4627   17.6984 H   0  0  0  0  0  0
  -27.9345  -11.2746   18.9567 H   0  0  0  0  0  0
  -27.3853  -12.4709   17.8111 H   0  0  0  0  0  0
  -27.6092  -14.2492   19.4300 H   0  0  0  0  0  0
  -28.7516  -12.2493   21.4413 H   0  0  0  0  0  0
  -28.3953  -13.9286   21.7670 H   0  0  0  0  0  0
  -25.2777   -9.5678   22.4766 H   0  0  0  0  0  0
  -24.0007   -7.4633   22.7481 H   0  0  0  0  0  0
  -21.0853   -8.8783   19.8958 H   0  0  0  0  0  0
  -22.3718  -10.9677   19.6171 H   0  0  0  0  0  0
  -21.2009   -7.6151   23.9717 H   0  0  0  0  0  0
  -21.1479   -6.0527   25.9079 H   0  0  0  0  0  0
  -22.0599   -2.7610   23.2848 H   0  0  0  0  0  0
  -22.4094  -11.9854   22.4802 H   0  0  0  0  0  0
  -21.1092  -13.1220   22.2645 H   0  0  0  0  0  0
  -24.6421  -15.8404   20.5177 H   0  0  0  0  0  0
  -26.2514  -15.6348   20.0527 H   0  0  0  0  0  0
  -26.7254  -32.5338   23.1036 H   0  0  0  0  0  0
  -25.0081  -33.9646   25.0352 H   0  0  0  0  0  0
  -22.7433  -31.2947   21.3843 H   0  0  0  0  0  0
  -23.3756  -35.9595   23.3296 H   0  0  0  0  0  0
  -24.3578  -36.8903   22.2057 H   0  0  0  0  0  0
  -23.7242  -37.6460   23.6680 H   0  0  0  0  0  0
  -26.1481  -31.4898   20.6156 H   0  0  0  0  0  0
  -26.8680  -30.7838   22.0279 H   0  0  0  0  0  0
  -28.1333  -28.8320   21.2385 H   0  0  0  0  0  0
  -25.9512  -25.8703   18.9890 H   0  0  0  0  0  0
  -23.9807  -27.3085   18.9785 H   0  0  0  0  0  0
  -23.8016  -30.5768   19.4002 H   0  0  0  0  0  0
  -22.7832  -29.2419   19.8451 H   0  0  0  0  0  0
  -25.1310  -36.1886   25.0810 H   0  0  0  0  0  0
  -21.0009  -28.3320   24.1358 H   0  0  0  0  0  0
  -20.5690  -26.2343   23.3619 H   0  0  0  0  0  0
  -21.6664  -26.7448   22.1203 H   0  0  0  0  0  0
  -19.6940  -25.6287   21.1263 H   0  0  0  0  0  0
  -19.6706  -27.3177   20.6727 H   0  0  0  0  0  0
  -17.4223  -26.6669   21.4025 H   0  0  0  0  0  0
  -18.0353  -26.0080   22.9024 H   0  0  0  0  0  0
  -19.7947  -30.7300   24.2240 H   0  0  0  0  0  0
  -17.5022  -31.6271   24.5163 H   0  0  0  0  0  0
  -15.5361  -30.2977   23.7666 H   0  0  0  0  0  0
  -15.8690  -28.0806   22.7086 H   0  0  0  0  0  0
  -24.5893  -30.7097   25.7744 H   0  0  0  0  0  0
  -24.8892  -32.2932   26.4804 H   0  0  0  0  0  0
  -25.7998  -30.8957   27.0232 H   0  0  0  0  0  0
  -26.2990  -29.6705   24.1275 H   0  0  0  0  0  0
  -27.3991  -29.7264   25.4847 H   0  0  0  0  0  0
  -27.8902  -30.4218   23.9595 H   0  0  0  0  0  0
  -27.2642  -33.3648   26.2048 H   0  0  0  0  0  0
  -28.3887  -32.6877   25.0359 H   0  0  0  0  0  0
  -28.0693  -31.8488   26.5466 H   0  0  0  0  0  0
  -28.2592  -38.0091   24.7510 H   0  0  0  0  0  0
  -28.1077  -36.2623   24.6299 H   0  0  0  0  0  0
  -27.2295  -37.1446   25.8867 H   0  0  0  0  0  0
  -20.9441  -29.8771   21.6790 H   0  0  0  0  0  0
  -26.0162  -38.2827   24.1403 H   0  0  0  0  0  0
  -29.8526  -23.5025   18.9830 H   0  0  0  0  0  0
  -30.3697  -21.0797   18.7426 H   0  0  0  0  0  0
  -25.2600  -21.2541   21.4897 H   0  0  0  0  0  0
  -25.2107  -22.9561   21.0459 H   0  0  0  0  0  0
  -24.6500  -22.4449   22.6356 H   0  0  0  0  0  0
  -28.0850  -25.0267   21.8858 H   0  0  0  0  0  0
  -26.7878  -24.7337   20.7991 H   0  0  0  0  0  0
  -29.2495  -18.6556   18.9781 H   0  0  0  0  0  0
  -28.0978  -18.4271   20.2278 H   0  0  0  0  0  0
  -26.9207  -23.4287   22.8914 H   0  0  0  0  0  0
  -26.9632  -21.7434   23.2571 H   0  0  0  0  0  0
  -30.0888  -17.7535   21.8085 H   0  0  0  0  0  0
  -31.1088  -17.7328   20.4118 H   0  0  0  0  0  0
  -28.7943  -15.8050   20.7147 H   0  0  0  0  0  0
  1 25  1  0  0  0
  1 30  2  0  0  0
  1 82  1  0  0  0
  2  3  1  0  0  0
  2 25  1  0  0  0
  2 83  1  0  0  0
  2 84  1  0  0  0
  3  4  1  0  0  0
  3 85  1  0  0  0
  3 86  1  0  0  0
  4  5  1  0  0  0
  4 87  1  0  0  0
  4 88  1  0  0  0
  5  6  1  0  0  0
  5 26  1  0  0  0
  5 89  1  0  0  0
  6 25  1  0  0  0
  6 90  1  0  0  0
  6 91  1  0  0  0
  7  8  2  0  0  0
  7 26  1  0  0  0
  7 29  1  0  0  0
  8  9  1  0  0  0
  8 22  1  0  0  0
  9 10  1  0  0  0
  9 27  2  0  0  0
 10 11  2  0  0  0
 10 15  1  0  0  0
 11 12  1  0  0  0
 11 92  1  0  0  0
 12 13  2  0  0  0
 12 93  1  0  0  0
 13 14  1  0  0  0
 13 31  1  0  0  0
 14 15  2  0  0  0
 14 94  1  0  0  0
 15 95  1  0  0  0
 16 17  2  0  0  0
 16 21  1  0  0  0
 16 31  1  0  0  0
 17 18  1  0  0  0
 17 96  1  0  0  0
 18 19  2  0  0  0
 18 97  1  0  0  0
 19 20  1  0  0  0
 19 24  1  0  0  0
 20 21  2  0  0  0
 20 98  1  0  0  0
 21 23  1  0  0  0
 22 28  1  0  0  0
 22 32  2  0  0  0
 26 27  1  0  0  0
 28 99  1  0  0  0
 28100  1  0  0  0
 29101  1  0  0  0
 29102  1  0  0  0
 33 34  1  0  0  0
 33 66  1  0  0  0
 33 70  2  0  0  0
 34 36  1  0  0  0
 34 59  1  0  0  0
 34103  1  0  0  0
 35 44  2  0  0  0
 35 45  1  0  0  0
 35 68  1  0  0  0
 36 56  1  0  0  0
 36104  1  0  0  0
 37 39  1  0  0  0
 37 47  1  0  0  0
 37 66  1  0  0  0
 37105  1  0  0  0
 38 43  2  0  0  0
 38 46  1  0  0  0
 38 47  1  0  0  0
 39 64  1  0  0  0
 39 67  2  0  0  0
 40 52  1  0  0  0
 40 53  2  0  0  0
 40 58  1  0  0  0
 41106  1  0  0  0
 41107  1  0  0  0
 41108  1  0  0  0
 41 48  1  0  0  0
 42 43  1  0  0  0
 42 66  1  0  0  0
 42109  1  0  0  0
 42110  1  0  0  0
 43 44  1  0  0  0
 44111  1  0  0  0
 45 46  2  0  0  0
 45112  1  0  0  0
 46113  1  0  0  0
 47114  1  0  0  0
 47115  1  0  0  0
 48 56  1  0  0  0
 48 65  1  0  0  0
 48116  1  0  0  0
 49 50  1  0  0  0
 49 53  1  0  0  0
 49 64  1  0  0  0
 49117  1  0  0  0
 50 51  1  0  0  0
 50118  1  0  0  0
 50119  1  0  0  0
 51 52  1  0  0  0
 51120  1  0  0  0
 51121  1  0  0  0
 52122  1  0  0  0
 52123  1  0  0  0
 53 54  1  0  0  0
 54 55  2  0  0  0
 54124  1  0  0  0
 55 57  1  0  0  0
 55125  1  0  0  0
 56 69  2  0  0  0
 57 58  2  0  0  0
 57126  1  0  0  0
 58127  1  0  0  0
 59 60  1  0  0  0
 59 61  1  0  0  0
 59 62  1  0  0  0
 60128  1  0  0  0
 60129  1  0  0  0
 60130  1  0  0  0
 61131  1  0  0  0
 61132  1  0  0  0
 61133  1  0  0  0
 62134  1  0  0  0
 62135  1  0  0  0
 62136  1  0  0  0
 63 65  1  0  0  0
 63137  1  0  0  0
 63138  1  0  0  0
 63139  1  0  0  0
 64140  1  0  0  0
 65141  1  0  0  0
 68 77  1  0  0  0
 71 72  2  0  0  0
 71 73  1  0  0  0
 71142  1  0  0  0
 72 74  1  0  0  0
 72143  1  0  0  0
 73 75  2  0  0  0
 73 77  1  0  0  0
 74 78  1  0  0  0
 74 81  2  0  0  0
 75 79  1  0  0  0
 75 81  1  0  0  0
 76 79  1  0  0  0
 76144  1  0  0  0
 76145  1  0  0  0
 76146  1  0  0  0
 77147  1  0  0  0
 77148  1  0  0  0
 78 80  1  0  0  0
 78149  1  0  0  0
 78150  1  0  0  0
 79151  1  0  0  0
 79152  1  0  0  0
 80 82  1  0  0  0
 80153  1  0  0  0
 80154  1  0  0  0
 82155  1  0  0  0
M  ISO  4   1 100  68 101  77 101  82 100
M  END
> <chiral flag>
0

> <version>
0

> <s_m_source_file>
/data/baiqing/PycharmProjects/Reinvent-master-3.2/result/LINK_invent/BTK/process_docking_weight1_custom_sum_contain_oxygen_bond_distance_aromatic_linkinvent_7_9_3/rearranged_h_0087.sdf

> <i_m_source_file_index>
83

> <r_mmod_Potential_Energy-OPLS-2005>
261.046905517578

> <r_mmod_Stretch_Energy-OPLS-2005>
200.500701904297

> <r_mmod_Bend_Energy-OPLS-2005>
254.447647094727

> <r_mmod_Torsional_Energy-OPLS-2005>
223.786376953125

> <r_mmod_Improper_Torsional_Energy-OPLS-2005>
6.2089409828186

> <r_mmod_Van_der_Waal_Energy-OPLS-2005>
135.115264892578

> <r_mmod_Electrostatic_Energy-OPLS-2005>
-493.775177001953

> <r_mmod_Solvation_Energy-OPLS-2005>
-221.814498901367

> <b_mmod_Minimization_Converged-OPLS-2005>
0

> <r_mmod_RMS_Derivative-OPLS-2005>
0.821112394332886

$$$$
84
                    3D
 Structure written by MMmdl.
175183  0  0  1  0            999 V2000
  -30.6714  -14.4651   20.5759 C   0  0  0  0  0  0
  -30.4335  -12.3199   19.3958 C   0  0  0  0  0  0
  -29.4734  -12.4978   18.2012 C   0  0  0  0  0  0
  -27.9978  -12.3687   18.6190 C   0  0  0  0  0  0
  -27.6625  -13.1932   19.8817 C   0  0  2  0  0  0
  -28.7105  -12.9400   20.9882 C   0  0  0  0  0  0
  -25.2562  -13.8078   20.5585 C   0  0  0  0  0  0
  -24.1871  -13.0384   20.9230 C   0  0  0  0  0  0
  -24.6383  -11.6831   20.8783 C   0  0  0  0  0  0
  -23.9070  -10.4212   21.0445 C   0  0  0  0  0  0
  -24.3631   -9.4131   21.9206 C   0  0  0  0  0  0
  -23.6315   -8.2168   22.0752 C   0  0  0  0  0  0
  -22.4282   -8.0240   21.3535 C   0  0  0  0  0  0
  -21.9919   -9.0223   20.4631 C   0  0  0  0  0  0
  -22.7250  -10.2097   20.3053 C   0  0  0  0  0  0
  -21.6841   -6.0729   22.5266 C   0  0  0  0  0  0
  -21.3990   -6.5645   23.8188 C   0  0  0  0  0  0
  -21.3647   -5.6793   24.9159 C   0  0  0  0  0  0
  -21.6085   -4.3069   24.7210 C   0  0  0  0  0  0
  -21.8833   -3.8142   23.4329 C   0  0  0  0  0  0
  -21.9178   -4.6965   22.3373 C   0  0  0  0  0  0
  -22.7877  -13.5191   21.1899 C   0  0  0  0  0  0
  -22.1662   -4.2162   21.0961 F   0  0  0  0  0  0
  -21.5633   -3.4525   25.7713 F   0  0  0  0  0  0
  -30.0418  -13.2663   20.4442 N   0  0  0  0  0  0
  -26.3045  -12.9221   20.3414 N   0  0  0  0  0  0
  -25.9321  -11.6412   20.5863 N   0  0  0  0  0  0
  -22.0504  -12.8129   22.0443 N   0  0  0  0  0  0
  -25.4218  -15.1743   20.3762 N   0  0  0  0  0  0
  -31.7955  -14.7013   20.1258 O   0  0  0  0  0  0
  -21.6621   -6.8865   21.4213 O   0  0  0  0  0  0
  -22.3520  -14.5460   20.6754 O   0  0  0  0  0  0
  -24.6194  -31.8684   23.2094 C   0  0  0  0  0  0
  -25.9067  -32.4842   23.8371 C   0  0  1  0  0  0
  -27.2056  -27.4281   20.0834 C   0  0  0  0  0  0
  -25.5892  -33.8612   24.2319 N   0  0  0  0  0  0
  -23.3994  -30.5014   21.5537 C   0  0  2  0  0  0
  -24.8351  -28.9713   20.1079 C   0  0  0  0  0  0
  -22.7399  -29.4685   22.5008 C   0  0  0  0  0  0
  -18.0281  -28.1382   22.8437 C   0  0  0  0  0  0
  -24.1495  -36.7362   23.2642 C   0  0  0  0  0  0
  -25.9286  -30.8366   21.3546 C   0  0  0  0  0  0
  -25.9982  -29.4713   20.7036 C   0  0  0  0  0  0
  -27.1890  -28.7101   20.6825 C   0  0  0  0  0  0
  -26.0218  -26.9509   19.4718 C   0  0  0  0  0  0
  -24.8446  -27.7173   19.4825 C   0  0  0  0  0  0
  -23.5997  -29.8414   20.1639 C   0  0  0  0  0  0
  -25.4098  -36.3117   24.0347 C   0  0  1  0  0  0
  -20.5855  -28.3718   23.1366 C   0  0  2  0  0  0
  -20.6718  -26.9422   22.5592 C   0  0  0  0  0  0
  -19.5829  -26.6374   21.5249 C   0  0  0  0  0  0
  -18.1892  -26.8008   22.1421 C   0  0  0  0  0  0
  -19.1523  -28.8832   23.2912 C   0  0  0  0  0  0
  -18.9462  -30.1342   23.9072 C   0  0  0  0  0  0
  -17.6484  -30.6498   24.0675 C   0  0  0  0  0  0
  -25.9010  -34.9486   23.5148 C   0  0  0  0  0  0
  -16.5388  -29.9115   23.6265 C   0  0  0  0  0  0
  -16.7268  -28.6532   23.0289 C   0  0  0  0  0  0
  -26.4448  -31.6605   25.0702 C   0  0  0  0  0  0
  -25.3713  -31.3699   26.1463 C   0  0  0  0  0  0
  -27.0276  -30.3062   24.6040 C   0  0  0  0  0  0
  -27.6045  -32.4273   25.7503 C   0  0  0  0  0  0
  -27.5578  -37.1833   24.8456 C   0  0  0  0  0  0
  -21.4126  -29.3096   22.3824 N   0  0  0  0  0  0
  -26.4290  -37.3797   23.9406 N   0  0  0  0  0  0
  -24.6694  -31.0781   22.1004 N   0  0  0  0  0  0
  -23.4245  -28.8175   23.2965 O   0  0  0  0  0  0
  -28.3559  -26.6609   20.1312 O   0  0  0  0  0  0
  -26.5589  -34.8926   22.4709 O   0  0  0  0  0  0
  -23.5382  -32.1429   23.7480 O   0  0  0  0  0  0
  -29.3590  -20.0398   22.1530 C   0  0  0  0  0  0
  -28.7196  -18.8377   22.2190 C   0  0  0  0  0  0
  -27.3090  -19.1123   22.2308 C   0  0  0  0  0  0
  -27.1555  -20.4878   22.2811 C   0  0  0  0  0  0
  -25.1559  -21.2428   23.7219 C   0  0  0  0  0  0
  -24.9866  -18.3805   21.3890 C   0  0  0  0  0  0
  -25.9284  -17.4515   23.5902 C   0  0  0  0  0  0
  -29.4853  -17.4561   19.7035 C   0  0  0  0  0  0
  -29.3891  -17.4805   22.3141 C   0  0  0  0  0  0
  -25.9040  -21.3426   22.3815 C   0  0  0  0  0  0
  -29.1368  -22.9490   20.7203 C   0  0  0  0  0  0
  -29.3939  -24.4680   20.5996 C   0  0  0  0  0  0
  -28.8129  -22.4687   22.1507 C   0  0  0  0  0  0
  -28.1406  -25.2379   20.1613 C   0  0  0  0  0  0
  -26.2451  -18.0227   22.1960 C   0  0  0  0  0  0
  -30.0320  -16.8867   21.0306 C   0  0  1  0  0  0
  -28.4298  -21.0547   22.1891 N   0  0  0  0  0  0
  -29.8758  -15.4241   21.0711 N   0  0  0  0  0  0
  -31.4574  -12.4721   19.0606 H   0  0  0  0  0  0
  -30.3939  -11.2991   19.7781 H   0  0  0  0  0  0
  -29.6954  -11.7519   17.4415 H   0  0  0  0  0  0
  -29.6371  -13.4713   17.7353 H   0  0  0  0  0  0
  -27.7939  -11.3128   18.8055 H   0  0  0  0  0  0
  -27.3450  -12.6626   17.7982 H   0  0  0  0  0  0
  -27.7046  -14.2453   19.5959 H   0  0  0  0  0  0
  -28.6923  -11.8941   21.3025 H   0  0  0  0  0  0
  -28.4667  -13.5007   21.8865 H   0  0  0  0  0  0
  -25.2784   -9.5629   22.4770 H   0  0  0  0  0  0
  -24.0054   -7.4540   22.7433 H   0  0  0  0  0  0
  -21.0884   -8.8778   19.8888 H   0  0  0  0  0  0
  -22.3791  -10.9666   19.6175 H   0  0  0  0  0  0
  -21.1957   -7.6147   23.9707 H   0  0  0  0  0  0
  -21.1483   -6.0509   25.9075 H   0  0  0  0  0  0
  -22.0625   -2.7607   23.2805 H   0  0  0  0  0  0
  -22.4210  -11.9847   22.4848 H   0  0  0  0  0  0
  -21.1092  -13.1064   22.2564 H   0  0  0  0  0  0
  -24.6491  -15.8207   20.4892 H   0  0  0  0  0  0
  -26.2669  -15.6143   20.0400 H   0  0  0  0  0  0
  -26.7174  -32.5534   23.1178 H   0  0  0  0  0  0
  -25.0013  -33.9765   25.0444 H   0  0  0  0  0  0
  -22.6923  -31.3230   21.4212 H   0  0  0  0  0  0
  -23.3726  -35.9731   23.3309 H   0  0  0  0  0  0
  -24.3601  -36.8965   22.2055 H   0  0  0  0  0  0
  -23.7261  -37.6588   23.6627 H   0  0  0  0  0  0
  -26.0203  -31.5956   20.5770 H   0  0  0  0  0  0
  -26.8325  -30.9083   21.9509 H   0  0  0  0  0  0
  -28.0943  -29.0876   21.1423 H   0  0  0  0  0  0
  -25.9749  -25.9891   18.9816 H   0  0  0  0  0  0
  -23.9490  -27.3367   19.0095 H   0  0  0  0  0  0
  -23.7042  -30.6173   19.4021 H   0  0  0  0  0  0
  -22.7241  -29.2576   19.8717 H   0  0  0  0  0  0
  -25.1260  -36.2031   25.0841 H   0  0  0  0  0  0
  -20.9923  -28.3326   24.1435 H   0  0  0  0  0  0
  -21.6692  -26.7342   22.1720 H   0  0  0  0  0  0
  -20.5433  -26.2487   23.3957 H   0  0  0  0  0  0
  -19.6922  -25.6292   21.1289 H   0  0  0  0  0  0
  -19.7054  -27.3085   20.6736 H   0  0  0  0  0  0
  -17.4324  -26.7061   21.3614 H   0  0  0  0  0  0
  -17.9965  -25.9977   22.8555 H   0  0  0  0  0  0
  -19.7978  -30.6993   24.2696 H   0  0  0  0  0  0
  -17.5057  -31.6094   24.5425 H   0  0  0  0  0  0
  -15.5401  -30.3083   23.7499 H   0  0  0  0  0  0
  -15.8648  -28.0970   22.6927 H   0  0  0  0  0  0
  -24.5891  -30.7056   25.7778 H   0  0  0  0  0  0
  -24.8903  -32.2857   26.4907 H   0  0  0  0  0  0
  -25.8053  -30.8847   27.0227 H   0  0  0  0  0  0
  -26.2808  -29.6868   24.1079 H   0  0  0  0  0  0
  -27.4085  -29.7237   25.4443 H   0  0  0  0  0  0
  -27.8608  -30.4431   23.9151 H   0  0  0  0  0  0
  -27.2687  -33.3545   26.2168 H   0  0  0  0  0  0
  -28.3832  -32.6896   25.0324 H   0  0  0  0  0  0
  -28.0752  -31.8328   26.5359 H   0  0  0  0  0  0
  -28.2613  -38.0125   24.7481 H   0  0  0  0  0  0
  -28.1063  -36.2652   24.6296 H   0  0  0  0  0  0
  -27.2298  -37.1486   25.8864 H   0  0  0  0  0  0
  -20.9241  -29.8954   21.7229 H   0  0  0  0  0  0
  -26.0210  -38.2906   24.1358 H   0  0  0  0  0  0
  -30.4179  -20.2701   22.1139 H   0  0  0  0  0  0
  -24.2405  -21.8409   23.7044 H   0  0  0  0  0  0
  -25.7629  -21.5930   24.5604 H   0  0  0  0  0  0
  -24.8543  -20.2177   23.9237 H   0  0  0  0  0  0
  -25.2412  -18.8360   20.4313 H   0  0  0  0  0  0
  -24.3189  -19.0438   21.9259 H   0  0  0  0  0  0
  -24.3983  -17.4869   21.1815 H   0  0  0  0  0  0
  -26.7405  -16.8206   23.9486 H   0  0  0  0  0  0
  -25.0361  -16.8236   23.5781 H   0  0  0  0  0  0
  -25.7705  -18.2332   24.3276 H   0  0  0  0  0  0
  -30.0326  -17.0566   18.8473 H   0  0  0  0  0  0
  -28.4305  -17.2244   19.5595 H   0  0  0  0  0  0
  -29.5817  -18.5438   19.6635 H   0  0  0  0  0  0
  -28.6450  -16.7861   22.7061 H   0  0  0  0  0  0
  -30.1472  -17.5565   23.0967 H   0  0  0  0  0  0
  -25.2077  -21.0670   21.5912 H   0  0  0  0  0  0
  -26.1033  -22.3976   22.1965 H   0  0  0  0  0  0
  -30.0368  -22.4260   20.3889 H   0  0  0  0  0  0
  -28.3408  -22.6598   20.0298 H   0  0  0  0  0  0
  -30.1672  -24.6369   19.8457 H   0  0  0  0  0  0
  -29.7898  -24.8654   21.5380 H   0  0  0  0  0  0
  -28.0636  -23.0919   22.6395 H   0  0  0  0  0  0
  -29.7109  -22.5826   22.7581 H   0  0  0  0  0  0
  -27.3132  -24.9927   20.8354 H   0  0  0  0  0  0
  -27.8535  -24.8779   19.1721 H   0  0  0  0  0  0
  -26.7056  -17.2110   21.6337 H   0  0  0  0  0  0
  -31.0958  -17.1205   21.0563 H   0  0  0  0  0  0
  -28.9837  -15.0846   21.4013 H   0  0  0  0  0  0
  1 25  1  0  0  0
  1 30  2  0  0  0
  1 88  1  0  0  0
  2  3  1  0  0  0
  2 25  1  0  0  0
  2 89  1  0  0  0
  2 90  1  0  0  0
  3  4  1  0  0  0
  3 91  1  0  0  0
  3 92  1  0  0  0
  4  5  1  0  0  0
  4 93  1  0  0  0
  4 94  1  0  0  0
  5  6  1  0  0  0
  5 26  1  0  0  0
  5 95  1  0  0  0
  6 25  1  0  0  0
  6 96  1  0  0  0
  6 97  1  0  0  0
  7  8  2  0  0  0
  7 26  1  0  0  0
  7 29  1  0  0  0
  8  9  1  0  0  0
  8 22  1  0  0  0
  9 10  1  0  0  0
  9 27  2  0  0  0
 10 11  2  0  0  0
 10 15  1  0  0  0
 11 12  1  0  0  0
 11 98  1  0  0  0
 12 13  2  0  0  0
 12 99  1  0  0  0
 13 14  1  0  0  0
 13 31  1  0  0  0
 14 15  2  0  0  0
 14100  1  0  0  0
 15101  1  0  0  0
 16 17  2  0  0  0
 16 21  1  0  0  0
 16 31  1  0  0  0
 17 18  1  0  0  0
 17102  1  0  0  0
 18 19  2  0  0  0
 18103  1  0  0  0
 19 20  1  0  0  0
 19 24  1  0  0  0
 20 21  2  0  0  0
 20104  1  0  0  0
 21 23  1  0  0  0
 22 28  1  0  0  0
 22 32  2  0  0  0
 26 27  1  0  0  0
 28105  1  0  0  0
 28106  1  0  0  0
 29107  1  0  0  0
 29108  1  0  0  0
 33 34  1  0  0  0
 33 66  1  0  0  0
 33 70  2  0  0  0
 34 36  1  0  0  0
 34 59  1  0  0  0
 34109  1  0  0  0
 35 44  2  0  0  0
 35 45  1  0  0  0
 35 68  1  0  0  0
 36 56  1  0  0  0
 36110  1  0  0  0
 37 39  1  0  0  0
 37 47  1  0  0  0
 37 66  1  0  0  0
 37111  1  0  0  0
 38 43  2  0  0  0
 38 46  1  0  0  0
 38 47  1  0  0  0
 39 64  1  0  0  0
 39 67  2  0  0  0
 40 52  1  0  0  0
 40 53  2  0  0  0
 40 58  1  0  0  0
 41112  1  0  0  0
 41113  1  0  0  0
 41114  1  0  0  0
 41 48  1  0  0  0
 42 43  1  0  0  0
 42 66  1  0  0  0
 42115  1  0  0  0
 42116  1  0  0  0
 43 44  1  0  0  0
 44117  1  0  0  0
 45 46  2  0  0  0
 45118  1  0  0  0
 46119  1  0  0  0
 47120  1  0  0  0
 47121  1  0  0  0
 48 56  1  0  0  0
 48 65  1  0  0  0
 48122  1  0  0  0
 49 50  1  0  0  0
 49 53  1  0  0  0
 49 64  1  0  0  0
 49123  1  0  0  0
 50 51  1  0  0  0
 50124  1  0  0  0
 50125  1  0  0  0
 51 52  1  0  0  0
 51126  1  0  0  0
 51127  1  0  0  0
 52128  1  0  0  0
 52129  1  0  0  0
 53 54  1  0  0  0
 54 55  2  0  0  0
 54130  1  0  0  0
 55 57  1  0  0  0
 55131  1  0  0  0
 56 69  2  0  0  0
 57 58  2  0  0  0
 57132  1  0  0  0
 58133  1  0  0  0
 59 60  1  0  0  0
 59 61  1  0  0  0
 59 62  1  0  0  0
 60134  1  0  0  0
 60135  1  0  0  0
 60136  1  0  0  0
 61137  1  0  0  0
 61138  1  0  0  0
 61139  1  0  0  0
 62140  1  0  0  0
 62141  1  0  0  0
 62142  1  0  0  0
 63 65  1  0  0  0
 63143  1  0  0  0
 63144  1  0  0  0
 63145  1  0  0  0
 64146  1  0  0  0
 65147  1  0  0  0
 68 84  1  0  0  0
 71 72  2  0  0  0
 71 87  1  0  0  0
 71148  1  0  0  0
 72 73  1  0  0  0
 72 79  1  0  0  0
 73 74  2  0  0  0
 73 85  1  0  0  0
 74 80  1  0  0  0
 74 87  1  0  0  0
 75 80  1  0  0  0
 75149  1  0  0  0
 75150  1  0  0  0
 75151  1  0  0  0
 76152  1  0  0  0
 76153  1  0  0  0
 76154  1  0  0  0
 76 85  1  0  0  0
 77 85  1  0  0  0
 77155  1  0  0  0
 77156  1  0  0  0
 77157  1  0  0  0
 78158  1  0  0  0
 78159  1  0  0  0
 78160  1  0  0  0
 78 86  1  0  0  0
 79 86  1  0  0  0
 79161  1  0  0  0
 79162  1  0  0  0
 80163  1  0  0  0
 80164  1  0  0  0
 81 82  1  0  0  0
 81 83  1  0  0  0
 81165  1  0  0  0
 81166  1  0  0  0
 82 84  1  0  0  0
 82167  1  0  0  0
 82168  1  0  0  0
 83 87  1  0  0  0
 83169  1  0  0  0
 83170  1  0  0  0
 84171  1  0  0  0
 84172  1  0  0  0
 85173  1  0  0  0
 86 88  1  0  0  0
 86174  1  0  0  0
 88175  1  0  0  0
M  ISO  4   1 100  68 101  84 101  88 100
M  END
> <chiral flag>
0

> <version>
0

> <s_m_source_file>
/data/baiqing/PycharmProjects/Reinvent-master-3.2/result/LINK_invent/BTK/process_docking_weight1_custom_sum_contain_oxygen_bond_distance_aromatic_linkinvent_7_9_3/rearranged_h_0087.sdf

> <i_m_source_file_index>
84

> <r_mmod_Potential_Energy-OPLS-2005>
-81.3242034912109

> <r_mmod_Stretch_Energy-OPLS-2005>
36.8256492614746

> <r_mmod_Bend_Energy-OPLS-2005>
110.897064208984

> <r_mmod_Torsional_Energy-OPLS-2005>
238.640258789062

> <r_mmod_Improper_Torsional_Energy-OPLS-2005>
4.74550294876099

> <r_mmod_Van_der_Waal_Energy-OPLS-2005>
124.190048217773

> <r_mmod_Electrostatic_Energy-OPLS-2005>
-418.795104980469

> <r_mmod_Solvation_Energy-OPLS-2005>
-193.33366394043

> <b_mmod_Minimization_Converged-OPLS-2005>
0

> <r_mmod_RMS_Derivative-OPLS-2005>
9.18196105957031

$$$$
85
                    3D
 Structure written by MMmdl.
152160  0  0  1  0            999 V2000
  -30.7144  -14.5474   20.5091 C   0  0  0  0  0  0
  -30.4044  -12.3402   19.4503 C   0  0  0  0  0  0
  -29.4933  -12.4887   18.2161 C   0  0  0  0  0  0
  -28.0171  -12.3423   18.6280 C   0  0  0  0  0  0
  -27.6473  -13.2215   19.8547 C   0  0  2  0  0  0
  -28.6892  -13.1017   20.9892 C   0  0  0  0  0  0
  -25.2532  -13.8184   20.5676 C   0  0  0  0  0  0
  -24.1808  -13.0447   20.9182 C   0  0  0  0  0  0
  -24.6376  -11.6915   20.8735 C   0  0  0  0  0  0
  -23.9054  -10.4292   21.0392 C   0  0  0  0  0  0
  -24.3616   -9.4206   21.9168 C   0  0  0  0  0  0
  -23.6290   -8.2245   22.0759 C   0  0  0  0  0  0
  -22.4273   -8.0272   21.3550 C   0  0  0  0  0  0
  -21.9900   -9.0241   20.4652 C   0  0  0  0  0  0
  -22.7224  -10.2120   20.3044 C   0  0  0  0  0  0
  -21.6854   -6.0720   22.5273 C   0  0  0  0  0  0
  -21.4016   -6.5636   23.8202 C   0  0  0  0  0  0
  -21.3664   -5.6792   24.9168 C   0  0  0  0  0  0
  -21.6052   -4.3054   24.7223 C   0  0  0  0  0  0
  -21.8820   -3.8135   23.4346 C   0  0  0  0  0  0
  -21.9195   -4.6949   22.3398 C   0  0  0  0  0  0
  -22.7835  -13.5237   21.1850 C   0  0  0  0  0  0
  -22.1661   -4.2130   21.0977 F   0  0  0  0  0  0
  -21.5629   -3.4545   25.7740 F   0  0  0  0  0  0
  -30.0091  -13.3838   20.4132 N   0  0  0  0  0  0
  -26.2959  -12.9381   20.3290 N   0  0  0  0  0  0
  -25.9308  -11.6529   20.5763 N   0  0  0  0  0  0
  -22.0489  -12.8228   22.0407 N   0  0  0  0  0  0
  -25.4225  -15.1910   20.4104 N   0  0  0  0  0  0
  -31.8871  -14.6157   20.1372 O   0  0  0  0  0  0
  -21.6649   -6.8862   21.4234 O   0  0  0  0  0  0
  -22.3524  -14.5547   20.6695 O   0  0  0  0  0  0
  -24.6178  -31.8655   23.2061 C   0  0  0  0  0  0
  -25.9055  -32.4814   23.8375 C   0  0  1  0  0  0
  -27.2278  -27.3920   20.1168 C   0  0  0  0  0  0
  -25.5883  -33.8611   24.2312 N   0  0  0  0  0  0
  -23.4083  -30.4885   21.5470 C   0  0  2  0  0  0
  -24.8552  -28.9465   20.1144 C   0  0  0  0  0  0
  -22.7421  -29.4670   22.4975 C   0  0  0  0  0  0
  -18.0271  -28.1386   22.8476 C   0  0  0  0  0  0
  -24.1481  -36.7318   23.2641 C   0  0  0  0  0  0
  -25.9393  -30.8221   21.3602 C   0  0  0  0  0  0
  -26.0185  -29.4524   20.7087 C   0  0  0  0  0  0
  -27.2113  -28.6867   20.6965 C   0  0  0  0  0  0
  -26.0487  -26.9124   19.5082 C   0  0  0  0  0  0
  -24.8678  -27.6798   19.5060 C   0  0  0  0  0  0
  -23.6194  -29.8179   20.1630 C   0  0  0  0  0  0
  -25.4100  -36.3114   24.0344 C   0  0  1  0  0  0
  -20.5860  -28.3697   23.1309 C   0  0  2  0  0  0
  -20.6766  -26.9430   22.5423 C   0  0  0  0  0  0
  -19.5760  -26.6407   21.5204 C   0  0  0  0  0  0
  -18.1929  -26.7938   22.1599 C   0  0  0  0  0  0
  -19.1513  -28.8853   23.2888 C   0  0  0  0  0  0
  -18.9435  -30.1455   23.8900 C   0  0  0  0  0  0
  -17.6435  -30.6591   24.0551 C   0  0  0  0  0  0
  -25.9028  -34.9475   23.5132 C   0  0  0  0  0  0
  -16.5331  -29.9087   23.6314 C   0  0  0  0  0  0
  -16.7254  -28.6506   23.0330 C   0  0  0  0  0  0
  -26.4468  -31.6597   25.0713 C   0  0  0  0  0  0
  -25.3725  -31.3707   26.1458 C   0  0  0  0  0  0
  -27.0290  -30.3037   24.6089 C   0  0  0  0  0  0
  -27.6048  -32.4302   25.7475 C   0  0  0  0  0  0
  -27.5580  -37.1813   24.8469 C   0  0  0  0  0  0
  -21.4141  -29.3076   22.3723 N   0  0  0  0  0  0
  -26.4291  -37.3796   23.9414 N   0  0  0  0  0  0
  -24.6743  -31.0730   22.0968 N   0  0  0  0  0  0
  -23.4173  -28.8220   23.3039 O   0  0  0  0  0  0
  -28.3697  -26.6077   20.1433 O   0  0  0  0  0  0
  -26.5606  -34.8930   22.4704 O   0  0  0  0  0  0
  -23.5364  -32.1409   23.7443 O   0  0  0  0  0  0
  -30.4481  -19.5785   20.7110 C   0  0  0  0  0  0
  -29.9419  -18.3078   20.8346 C   0  0  0  0  0  0
  -30.7416  -17.0047   20.8623 C   0  0  0  0  0  0
  -28.3409  -22.6452   19.8986 C   0  0  0  0  0  0
  -28.6072  -24.1583   19.5594 C   0  0  0  0  0  0
  -29.3656  -21.9211   20.8277 C   0  0  0  0  0  0
  -28.2142  -25.2378   20.6116 C   0  0  0  0  0  0
  -28.5581  -18.4345   20.9830 N   0  0  0  0  0  0
  -28.2274  -19.7045   20.9691 N   0  0  0  0  0  0
  -29.3611  -20.4368   20.7920 N   0  0  0  0  0  0
  -30.0550  -15.6852   20.8468 N   0  0  0  0  0  0
  -31.4528  -12.4109   19.1563 H   0  0  0  0  0  0
  -30.2878  -11.3522   19.8985 H   0  0  0  0  0  0
  -29.7460  -11.7382   17.4665 H   0  0  0  0  0  0
  -29.6547  -13.4589   17.7434 H   0  0  0  0  0  0
  -27.8482  -11.2904   18.8625 H   0  0  0  0  0  0
  -27.3636  -12.5731   17.7851 H   0  0  0  0  0  0
  -27.6635  -14.2540   19.5047 H   0  0  0  0  0  0
  -28.6737  -12.1036   21.4305 H   0  0  0  0  0  0
  -28.4530  -13.7947   21.7981 H   0  0  0  0  0  0
  -25.2756   -9.5696   22.4741 H   0  0  0  0  0  0
  -23.9992   -7.4654   22.7501 H   0  0  0  0  0  0
  -21.0818   -8.8757   19.8975 H   0  0  0  0  0  0
  -22.3666  -10.9657   19.6156 H   0  0  0  0  0  0
  -21.2010   -7.6143   23.9694 H   0  0  0  0  0  0
  -21.1489   -6.0530   25.9070 H   0  0  0  0  0  0
  -22.0593   -2.7597   23.2857 H   0  0  0  0  0  0
  -22.4119  -11.9893   22.4789 H   0  0  0  0  0  0
  -21.1107  -13.1248   22.2620 H   0  0  0  0  0  0
  -24.6596  -15.8463   20.5394 H   0  0  0  0  0  0
  -26.2790  -15.6390   20.1101 H   0  0  0  0  0  0
  -26.7128  -32.5516   23.1141 H   0  0  0  0  0  0
  -24.9994  -33.9766   25.0430 H   0  0  0  0  0  0
  -22.6994  -31.3066   21.4045 H   0  0  0  0  0  0
  -23.3739  -35.9657   23.3311 H   0  0  0  0  0  0
  -24.3582  -36.8921   22.2057 H   0  0  0  0  0  0
  -23.7235  -37.6526   23.6643 H   0  0  0  0  0  0
  -26.0476  -31.5840   20.5873 H   0  0  0  0  0  0
  -26.8283  -30.8824   21.9760 H   0  0  0  0  0  0
  -28.1106  -29.0737   21.1548 H   0  0  0  0  0  0
  -26.0375  -25.9378   19.0404 H   0  0  0  0  0  0
  -23.9741  -27.2866   19.0418 H   0  0  0  0  0  0
  -23.7341  -30.5902   19.4022 H   0  0  0  0  0  0
  -22.7411  -29.2430   19.8638 H   0  0  0  0  0  0
  -25.1278  -36.1984   25.0839 H   0  0  0  0  0  0
  -20.9939  -28.3272   24.1436 H   0  0  0  0  0  0
  -20.5669  -26.2305   23.3614 H   0  0  0  0  0  0
  -21.6642  -26.7482   22.1228 H   0  0  0  0  0  0
  -19.6937  -25.6328   21.1215 H   0  0  0  0  0  0
  -19.6701  -27.3231   20.6748 H   0  0  0  0  0  0
  -17.4215  -26.6686   21.3982 H   0  0  0  0  0  0
  -18.0319  -26.0071   22.8981 H   0  0  0  0  0  0
  -19.7909  -30.7273   24.2268 H   0  0  0  0  0  0
  -17.4986  -31.6277   24.5140 H   0  0  0  0  0  0
  -15.5327  -30.2993   23.7624 H   0  0  0  0  0  0
  -15.8652  -28.0836   22.7025 H   0  0  0  0  0  0
  -24.5913  -30.7034   25.7799 H   0  0  0  0  0  0
  -24.8892  -32.2856   26.4892 H   0  0  0  0  0  0
  -25.8078  -30.8895   27.0223 H   0  0  0  0  0  0
  -26.2835  -29.6817   24.1115 H   0  0  0  0  0  0
  -27.4027  -29.7262   25.4555 H   0  0  0  0  0  0
  -27.8687  -30.4361   23.9261 H   0  0  0  0  0  0
  -27.2686  -33.3600   26.2073 H   0  0  0  0  0  0
  -28.3847  -32.6853   25.0288 H   0  0  0  0  0  0
  -28.0715  -31.8395   26.5367 H   0  0  0  0  0  0
  -28.2611  -38.0096   24.7505 H   0  0  0  0  0  0
  -28.1059  -36.2629   24.6300 H   0  0  0  0  0  0
  -27.2304  -37.1478   25.8874 H   0  0  0  0  0  0
  -20.9304  -29.8808   21.6952 H   0  0  0  0  0  0
  -26.0186  -38.2882   24.1390 H   0  0  0  0  0  0
  -31.4659  -19.9345   20.6032 H   0  0  0  0  0  0
  -31.4284  -17.0455   20.0148 H   0  0  0  0  0  0
  -31.3857  -17.0140   21.7423 H   0  0  0  0  0  0
  -28.3422  -22.1056   18.9501 H   0  0  0  0  0  0
  -27.3320  -22.5265   20.2956 H   0  0  0  0  0  0
  -29.6557  -24.2857   19.2897 H   0  0  0  0  0  0
  -28.0481  -24.3896   18.6519 H   0  0  0  0  0  0
  -29.2149  -22.2364   21.8610 H   0  0  0  0  0  0
  -30.3725  -22.2456   20.5618 H   0  0  0  0  0  0
  -28.8593  -25.1193   21.4823 H   0  0  0  0  0  0
  -27.2040  -25.0514   20.9808 H   0  0  0  0  0  0
  -29.0729  -15.6544   21.0734 H   0  0  0  0  0  0
  1 25  1  0  0  0
  1 30  2  0  0  0
  1 81  1  0  0  0
  2  3  1  0  0  0
  2 25  1  0  0  0
  2 82  1  0  0  0
  2 83  1  0  0  0
  3  4  1  0  0  0
  3 84  1  0  0  0
  3 85  1  0  0  0
  4  5  1  0  0  0
  4 86  1  0  0  0
  4 87  1  0  0  0
  5  6  1  0  0  0
  5 26  1  0  0  0
  5 88  1  0  0  0
  6 25  1  0  0  0
  6 89  1  0  0  0
  6 90  1  0  0  0
  7  8  2  0  0  0
  7 26  1  0  0  0
  7 29  1  0  0  0
  8  9  1  0  0  0
  8 22  1  0  0  0
  9 10  1  0  0  0
  9 27  2  0  0  0
 10 11  2  0  0  0
 10 15  1  0  0  0
 11 12  1  0  0  0
 11 91  1  0  0  0
 12 13  2  0  0  0
 12 92  1  0  0  0
 13 14  1  0  0  0
 13 31  1  0  0  0
 14 15  2  0  0  0
 14 93  1  0  0  0
 15 94  1  0  0  0
 16 17  2  0  0  0
 16 21  1  0  0  0
 16 31  1  0  0  0
 17 18  1  0  0  0
 17 95  1  0  0  0
 18 19  2  0  0  0
 18 96  1  0  0  0
 19 20  1  0  0  0
 19 24  1  0  0  0
 20 21  2  0  0  0
 20 97  1  0  0  0
 21 23  1  0  0  0
 22 28  1  0  0  0
 22 32  2  0  0  0
 26 27  1  0  0  0
 28 98  1  0  0  0
 28 99  1  0  0  0
 29100  1  0  0  0
 29101  1  0  0  0
 33 34  1  0  0  0
 33 66  1  0  0  0
 33 70  2  0  0  0
 34 36  1  0  0  0
 34 59  1  0  0  0
 34102  1  0  0  0
 35 44  2  0  0  0
 35 45  1  0  0  0
 35 68  1  0  0  0
 36 56  1  0  0  0
 36103  1  0  0  0
 37 39  1  0  0  0
 37 47  1  0  0  0
 37 66  1  0  0  0
 37104  1  0  0  0
 38 43  2  0  0  0
 38 46  1  0  0  0
 38 47  1  0  0  0
 39 64  1  0  0  0
 39 67  2  0  0  0
 40 52  1  0  0  0
 40 53  2  0  0  0
 40 58  1  0  0  0
 41105  1  0  0  0
 41106  1  0  0  0
 41107  1  0  0  0
 41 48  1  0  0  0
 42 43  1  0  0  0
 42 66  1  0  0  0
 42108  1  0  0  0
 42109  1  0  0  0
 43 44  1  0  0  0
 44110  1  0  0  0
 45 46  2  0  0  0
 45111  1  0  0  0
 46112  1  0  0  0
 47113  1  0  0  0
 47114  1  0  0  0
 48 56  1  0  0  0
 48 65  1  0  0  0
 48115  1  0  0  0
 49 50  1  0  0  0
 49 53  1  0  0  0
 49 64  1  0  0  0
 49116  1  0  0  0
 50 51  1  0  0  0
 50117  1  0  0  0
 50118  1  0  0  0
 51 52  1  0  0  0
 51119  1  0  0  0
 51120  1  0  0  0
 52121  1  0  0  0
 52122  1  0  0  0
 53 54  1  0  0  0
 54 55  2  0  0  0
 54123  1  0  0  0
 55 57  1  0  0  0
 55124  1  0  0  0
 56 69  2  0  0  0
 57 58  2  0  0  0
 57125  1  0  0  0
 58126  1  0  0  0
 59 60  1  0  0  0
 59 61  1  0  0  0
 59 62  1  0  0  0
 60127  1  0  0  0
 60128  1  0  0  0
 60129  1  0  0  0
 61130  1  0  0  0
 61131  1  0  0  0
 61132  1  0  0  0
 62133  1  0  0  0
 62134  1  0  0  0
 62135  1  0  0  0
 63 65  1  0  0  0
 63136  1  0  0  0
 63137  1  0  0  0
 63138  1  0  0  0
 64139  1  0  0  0
 65140  1  0  0  0
 68 77  1  0  0  0
 71 72  2  0  0  0
 71 80  1  0  0  0
 71141  1  0  0  0
 72 73  1  0  0  0
 72 78  1  0  0  0
 73 81  1  0  0  0
 73142  1  0  0  0
 73143  1  0  0  0
 74 75  1  0  0  0
 74 76  1  0  0  0
 74144  1  0  0  0
 74145  1  0  0  0
 75 77  1  0  0  0
 75146  1  0  0  0
 75147  1  0  0  0
 76 80  1  0  0  0
 76148  1  0  0  0
 76149  1  0  0  0
 77150  1  0  0  0
 77151  1  0  0  0
 78 79  2  0  0  0
 79 80  1  0  0  0
 81152  1  0  0  0
M  ISO  4   1 100  68 101  77 101  81 100
M  END
> <chiral flag>
0

> <version>
0

> <s_m_source_file>
/data/baiqing/PycharmProjects/Reinvent-master-3.2/result/LINK_invent/BTK/process_docking_weight1_custom_sum_contain_oxygen_bond_distance_aromatic_linkinvent_7_9_3/rearranged_h_0087.sdf

> <i_m_source_file_index>
85

> <r_mmod_Potential_Energy-OPLS-2005>
-141.358261108398

> <r_mmod_Stretch_Energy-OPLS-2005>
46.505443572998

> <r_mmod_Bend_Energy-OPLS-2005>
116.943572998047

> <r_mmod_Torsional_Energy-OPLS-2005>
224.917083740234

> <r_mmod_Improper_Torsional_Energy-OPLS-2005>
4.05688333511353

> <r_mmod_Van_der_Waal_Energy-OPLS-2005>
124.516975402832

> <r_mmod_Electrostatic_Energy-OPLS-2005>
-470.176544189453

> <r_mmod_Solvation_Energy-OPLS-2005>
-216.419952392578

> <b_mmod_Minimization_Converged-OPLS-2005>
0

> <r_mmod_RMS_Derivative-OPLS-2005>
1.67415070533752

$$$$
86
                    3D
 Structure written by MMmdl.
164172  0  0  1  0            999 V2000
  -30.6239  -14.7403   20.4989 C   0  0  0  0  0  0
  -30.4310  -12.4641   19.4569 C   0  0  0  0  0  0
  -29.5066  -12.5359   18.2213 C   0  0  0  0  0  0
  -28.0277  -12.3742   18.6222 C   0  0  0  0  0  0
  -27.6411  -13.2441   19.8485 C   0  0  2  0  0  0
  -28.6902  -13.1538   20.9768 C   0  0  0  0  0  0
  -25.2494  -13.8222   20.5673 C   0  0  0  0  0  0
  -24.1794  -13.0428   20.9218 C   0  0  0  0  0  0
  -24.6411  -11.6924   20.8711 C   0  0  0  0  0  0
  -23.9081  -10.4290   21.0356 C   0  0  0  0  0  0
  -24.3640   -9.4203   21.9142 C   0  0  0  0  0  0
  -23.6327   -8.2224   22.0725 C   0  0  0  0  0  0
  -22.4296   -8.0262   21.3532 C   0  0  0  0  0  0
  -21.9917   -9.0230   20.4622 C   0  0  0  0  0  0
  -22.7234  -10.2128   20.3013 C   0  0  0  0  0  0
  -21.6878   -6.0732   22.5275 C   0  0  0  0  0  0
  -21.4026   -6.5632   23.8209 C   0  0  0  0  0  0
  -21.3671   -5.6780   24.9174 C   0  0  0  0  0  0
  -21.6045   -4.3043   24.7213 C   0  0  0  0  0  0
  -21.8822   -3.8135   23.4336 C   0  0  0  0  0  0
  -21.9209   -4.6960   22.3394 C   0  0  0  0  0  0
  -22.7821  -13.5189   21.1889 C   0  0  0  0  0  0
  -22.1674   -4.2138   21.0977 F   0  0  0  0  0  0
  -21.5634   -3.4525   25.7730 F   0  0  0  0  0  0
  -29.9903  -13.5182   20.4011 N   0  0  0  0  0  0
  -26.2936  -12.9450   20.3271 N   0  0  0  0  0  0
  -25.9356  -11.6582   20.5720 N   0  0  0  0  0  0
  -22.0517  -12.8158   22.0479 N   0  0  0  0  0  0
  -25.4116  -15.1943   20.4092 N   0  0  0  0  0  0
  -31.8134  -14.8437   20.1935 O   0  0  0  0  0  0
  -21.6663   -6.8859   21.4231 O   0  0  0  0  0  0
  -22.3460  -14.5478   20.6754 O   0  0  0  0  0  0
  -24.6331  -31.8548   23.1971 C   0  0  0  0  0  0
  -25.9154  -32.4761   23.8334 C   0  0  1  0  0  0
  -27.2373  -27.2702   20.1190 C   0  0  0  0  0  0
  -25.5933  -33.8556   24.2257 N   0  0  0  0  0  0
  -23.4307  -30.4757   21.5401 C   0  0  2  0  0  0
  -24.8815  -28.9188   20.1145 C   0  0  0  0  0  0
  -22.7516  -29.4589   22.4883 C   0  0  0  0  0  0
  -18.0299  -28.1374   22.8474 C   0  0  0  0  0  0
  -24.1496  -36.7298   23.2631 C   0  0  0  0  0  0
  -25.9757  -30.7711   21.3737 C   0  0  0  0  0  0
  -26.0535  -29.3915   20.7171 C   0  0  0  0  0  0
  -27.2349  -28.5799   20.7049 C   0  0  0  0  0  0
  -26.0460  -26.8723   19.4752 C   0  0  0  0  0  0
  -24.8810  -27.6653   19.4835 C   0  0  0  0  0  0
  -23.6521  -29.8060   20.1597 C   0  0  0  0  0  0
  -25.4103  -36.3051   24.0323 C   0  0  1  0  0  0
  -20.5907  -28.3683   23.1272 C   0  0  2  0  0  0
  -20.6753  -26.9394   22.5400 C   0  0  0  0  0  0
  -19.5727  -26.6357   21.5210 C   0  0  0  0  0  0
  -18.1922  -26.7908   22.1627 C   0  0  0  0  0  0
  -19.1554  -28.8847   23.2864 C   0  0  0  0  0  0
  -18.9461  -30.1443   23.8891 C   0  0  0  0  0  0
  -17.6455  -30.6571   24.0562 C   0  0  0  0  0  0
  -25.9044  -34.9436   23.5083 C   0  0  0  0  0  0
  -16.5352  -29.9064   23.6325 C   0  0  0  0  0  0
  -16.7281  -28.6488   23.0340 C   0  0  0  0  0  0
  -26.4512  -31.6572   25.0719 C   0  0  0  0  0  0
  -25.3742  -31.3731   26.1453 C   0  0  0  0  0  0
  -27.0362  -30.2981   24.6207 C   0  0  0  0  0  0
  -27.6048  -32.4317   25.7505 C   0  0  0  0  0  0
  -27.5579  -37.1787   24.8439 C   0  0  0  0  0  0
  -21.4217  -29.3042   22.3665 N   0  0  0  0  0  0
  -26.4263  -37.3759   23.9424 N   0  0  0  0  0  0
  -24.6992  -31.0516   22.0944 N   0  0  0  0  0  0
  -23.4220  -28.8111   23.2963 O   0  0  0  0  0  0
  -28.3327  -26.3735   20.1388 O   0  0  0  0  0  0
  -26.5618  -34.8925   22.4652 O   0  0  0  0  0  0
  -23.5487  -32.1335   23.7281 O   0  0  0  0  0  0
  -28.3520  -23.2632   18.0676 C   0  0  0  0  0  0
  -27.7278  -22.5402   17.0498 C   0  0  0  0  0  0
  -28.7754  -22.6292   19.2614 C   0  0  0  0  0  0
  -27.5384  -21.1755   17.2586 C   0  0  0  0  0  0
  -28.7629  -21.1506   19.2792 C   0  0  0  0  0  0
  -26.6803  -20.3314   16.3482 C   0  0  0  0  0  0
  -27.9879  -19.8886   21.2992 C   0  0  0  0  0  0
  -28.8802  -17.8277   18.7801 C   0  0  0  0  0  0
  -29.1023  -23.6975   20.3693 C   0  0  0  0  0  0
  -30.1677  -17.3566   20.9605 C   0  0  0  0  0  0
  -28.0702  -24.9465   20.5418 C   0  0  0  0  0  0
  -29.1951  -20.0400   20.3623 C   0  0  1  0  0  0
  -29.7162  -18.5120   19.8905 C   0  0  2  0  0  0
  -28.0568  -20.5371   18.3104 N   0  0  0  0  0  0
  -29.8464  -15.8624   20.7526 N   0  0  0  0  0  0
  -31.4698  -12.5999   19.1493 H   0  0  0  0  0  0
  -30.3761  -11.4773   19.9225 H   0  0  0  0  0  0
  -29.7799  -11.7729   17.4899 H   0  0  0  0  0  0
  -29.6438  -13.5018   17.7303 H   0  0  0  0  0  0
  -27.8519  -11.3198   18.8366 H   0  0  0  0  0  0
  -27.3816  -12.6231   17.7778 H   0  0  0  0  0  0
  -27.6356  -14.2740   19.4901 H   0  0  0  0  0  0
  -28.7243  -12.1400   21.3818 H   0  0  0  0  0  0
  -28.4265  -13.8151   21.8036 H   0  0  0  0  0  0
  -25.2800   -9.5701   22.4701 H   0  0  0  0  0  0
  -24.0067   -7.4607   22.7433 H   0  0  0  0  0  0
  -21.0835   -8.8724   19.8936 H   0  0  0  0  0  0
  -22.3654  -10.9656   19.6113 H   0  0  0  0  0  0
  -21.2016   -7.6141   23.9715 H   0  0  0  0  0  0
  -21.1503   -6.0511   25.9083 H   0  0  0  0  0  0
  -22.0601   -2.7590   23.2844 H   0  0  0  0  0  0
  -22.4223  -11.9853   22.4849 H   0  0  0  0  0  0
  -21.1109  -13.1100   22.2693 H   0  0  0  0  0  0
  -24.6316  -15.8360   20.4983 H   0  0  0  0  0  0
  -26.2554  -15.6445   20.0804 H   0  0  0  0  0  0
  -26.7226  -32.5415   23.1085 H   0  0  0  0  0  0
  -25.0086  -33.9699   25.0412 H   0  0  0  0  0  0
  -22.7264  -31.2967   21.3878 H   0  0  0  0  0  0
  -23.3755  -35.9631   23.3231 H   0  0  0  0  0  0
  -24.3600  -36.8981   22.2054 H   0  0  0  0  0  0
  -23.7266  -37.6488   23.6701 H   0  0  0  0  0  0
  -26.1120  -31.5315   20.6045 H   0  0  0  0  0  0
  -26.8553  -30.8262   22.0033 H   0  0  0  0  0  0
  -28.1328  -28.9388   21.1840 H   0  0  0  0  0  0
  -26.0092  -25.9286   18.9539 H   0  0  0  0  0  0
  -23.9848  -27.3077   18.9973 H   0  0  0  0  0  0
  -23.7858  -30.5819   19.4044 H   0  0  0  0  0  0
  -22.7716  -29.2429   19.8466 H   0  0  0  0  0  0
  -25.1289  -36.1853   25.0810 H   0  0  0  0  0  0
  -21.0029  -28.3242   24.1383 H   0  0  0  0  0  0
  -20.5618  -26.2302   23.3611 H   0  0  0  0  0  0
  -21.6621  -26.7365   22.1220 H   0  0  0  0  0  0
  -19.6885  -25.6271   21.1242 H   0  0  0  0  0  0
  -19.6661  -27.3161   20.6748 H   0  0  0  0  0  0
  -17.4178  -26.6666   21.4036 H   0  0  0  0  0  0
  -18.0312  -26.0053   22.9034 H   0  0  0  0  0  0
  -19.7931  -30.7258   24.2271 H   0  0  0  0  0  0
  -17.5003  -31.6262   24.5146 H   0  0  0  0  0  0
  -15.5353  -30.2961   23.7645 H   0  0  0  0  0  0
  -15.8679  -28.0817   22.7046 H   0  0  0  0  0  0
  -24.5906  -30.7083   25.7799 H   0  0  0  0  0  0
  -24.8970  -32.2918   26.4876 H   0  0  0  0  0  0
  -25.8081  -30.8914   27.0229 H   0  0  0  0  0  0
  -26.2960  -29.6714   24.1227 H   0  0  0  0  0  0
  -27.4023  -29.7244   25.4732 H   0  0  0  0  0  0
  -27.8834  -30.4224   23.9460 H   0  0  0  0  0  0
  -27.2630  -33.3602   26.2088 H   0  0  0  0  0  0
  -28.3879  -32.6909   25.0366 H   0  0  0  0  0  0
  -28.0707  -31.8453   26.5434 H   0  0  0  0  0  0
  -28.2531  -38.0151   24.7576 H   0  0  0  0  0  0
  -28.1157  -36.2701   24.6137 H   0  0  0  0  0  0
  -27.2334  -37.1257   25.8845 H   0  0  0  0  0  0
  -20.9385  -29.8834   21.6944 H   0  0  0  0  0  0
  -26.0131  -38.2813   24.1479 H   0  0  0  0  0  0
  -28.4204  -24.3361   17.9512 H   0  0  0  0  0  0
  -27.3365  -23.0413   16.1756 H   0  0  0  0  0  0
  -25.7162  -20.8157   16.2058 H   0  0  0  0  0  0
  -26.4967  -19.3542   16.7978 H   0  0  0  0  0  0
  -27.1513  -20.1810   15.3787 H   0  0  0  0  0  0
  -27.6567  -20.8631   21.6663 H   0  0  0  0  0  0
  -28.2096  -19.2612   22.1593 H   0  0  0  0  0  0
  -27.1469  -19.4469   20.7604 H   0  0  0  0  0  0
  -29.0144  -18.3326   17.8275 H   0  0  0  0  0  0
  -27.8194  -17.8189   19.0288 H   0  0  0  0  0  0
  -29.1866  -16.8051   18.5673 H   0  0  0  0  0  0
  -29.1387  -23.1502   21.3116 H   0  0  0  0  0  0
  -30.1108  -24.0796   20.2026 H   0  0  0  0  0  0
  -31.2405  -17.4470   21.1393 H   0  0  0  0  0  0
  -29.7314  -17.6117   21.9256 H   0  0  0  0  0  0
  -27.1028  -24.5981   20.1796 H   0  0  0  0  0  0
  -27.9044  -25.0363   21.6179 H   0  0  0  0  0  0
  -30.0084  -20.4956   20.9283 H   0  0  0  0  0  0
  -30.6529  -18.7355   19.3779 H   0  0  0  0  0  0
  -28.8695  -15.6444   20.8700 H   0  0  0  0  0  0
  1 25  1  0  0  0
  1 30  2  0  0  0
  1 85  1  0  0  0
  2  3  1  0  0  0
  2 25  1  0  0  0
  2 86  1  0  0  0
  2 87  1  0  0  0
  3  4  1  0  0  0
  3 88  1  0  0  0
  3 89  1  0  0  0
  4  5  1  0  0  0
  4 90  1  0  0  0
  4 91  1  0  0  0
  5  6  1  0  0  0
  5 26  1  0  0  0
  5 92  1  0  0  0
  6 25  1  0  0  0
  6 93  1  0  0  0
  6 94  1  0  0  0
  7  8  2  0  0  0
  7 26  1  0  0  0
  7 29  1  0  0  0
  8  9  1  0  0  0
  8 22  1  0  0  0
  9 10  1  0  0  0
  9 27  2  0  0  0
 10 11  2  0  0  0
 10 15  1  0  0  0
 11 12  1  0  0  0
 11 95  1  0  0  0
 12 13  2  0  0  0
 12 96  1  0  0  0
 13 14  1  0  0  0
 13 31  1  0  0  0
 14 15  2  0  0  0
 14 97  1  0  0  0
 15 98  1  0  0  0
 16 17  2  0  0  0
 16 21  1  0  0  0
 16 31  1  0  0  0
 17 18  1  0  0  0
 17 99  1  0  0  0
 18 19  2  0  0  0
 18100  1  0  0  0
 19 20  1  0  0  0
 19 24  1  0  0  0
 20 21  2  0  0  0
 20101  1  0  0  0
 21 23  1  0  0  0
 22 28  1  0  0  0
 22 32  2  0  0  0
 26 27  1  0  0  0
 28102  1  0  0  0
 28103  1  0  0  0
 29104  1  0  0  0
 29105  1  0  0  0
 33 34  1  0  0  0
 33 66  1  0  0  0
 33 70  2  0  0  0
 34 36  1  0  0  0
 34 59  1  0  0  0
 34106  1  0  0  0
 35 44  2  0  0  0
 35 45  1  0  0  0
 35 68  1  0  0  0
 36 56  1  0  0  0
 36107  1  0  0  0
 37 39  1  0  0  0
 37 47  1  0  0  0
 37 66  1  0  0  0
 37108  1  0  0  0
 38 43  2  0  0  0
 38 46  1  0  0  0
 38 47  1  0  0  0
 39 64  1  0  0  0
 39 67  2  0  0  0
 40 52  1  0  0  0
 40 53  2  0  0  0
 40 58  1  0  0  0
 41109  1  0  0  0
 41110  1  0  0  0
 41111  1  0  0  0
 41 48  1  0  0  0
 42 43  1  0  0  0
 42 66  1  0  0  0
 42112  1  0  0  0
 42113  1  0  0  0
 43 44  1  0  0  0
 44114  1  0  0  0
 45 46  2  0  0  0
 45115  1  0  0  0
 46116  1  0  0  0
 47117  1  0  0  0
 47118  1  0  0  0
 48 56  1  0  0  0
 48 65  1  0  0  0
 48119  1  0  0  0
 49 50  1  0  0  0
 49 53  1  0  0  0
 49 64  1  0  0  0
 49120  1  0  0  0
 50 51  1  0  0  0
 50121  1  0  0  0
 50122  1  0  0  0
 51 52  1  0  0  0
 51123  1  0  0  0
 51124  1  0  0  0
 52125  1  0  0  0
 52126  1  0  0  0
 53 54  1  0  0  0
 54 55  2  0  0  0
 54127  1  0  0  0
 55 57  1  0  0  0
 55128  1  0  0  0
 56 69  2  0  0  0
 57 58  2  0  0  0
 57129  1  0  0  0
 58130  1  0  0  0
 59 60  1  0  0  0
 59 61  1  0  0  0
 59 62  1  0  0  0
 60131  1  0  0  0
 60132  1  0  0  0
 60133  1  0  0  0
 61134  1  0  0  0
 61135  1  0  0  0
 61136  1  0  0  0
 62137  1  0  0  0
 62138  1  0  0  0
 62139  1  0  0  0
 63 65  1  0  0  0
 63140  1  0  0  0
 63141  1  0  0  0
 63142  1  0  0  0
 64143  1  0  0  0
 65144  1  0  0  0
 68 81  1  0  0  0
 71 72  2  0  0  0
 71 73  1  0  0  0
 71145  1  0  0  0
 72 74  1  0  0  0
 72146  1  0  0  0
 73 75  2  0  0  0
 73 79  1  0  0  0
 74 76  1  0  0  0
 74 84  2  0  0  0
 75 82  1  0  0  0
 75 84  1  0  0  0
 76147  1  0  0  0
 76148  1  0  0  0
 76149  1  0  0  0
 77150  1  0  0  0
 77151  1  0  0  0
 77152  1  0  0  0
 77 82  1  0  0  0
 78153  1  0  0  0
 78154  1  0  0  0
 78155  1  0  0  0
 78 83  1  0  0  0
 79 81  1  0  0  0
 79156  1  0  0  0
 79157  1  0  0  0
 80 83  1  0  0  0
 80 85  1  0  0  0
 80158  1  0  0  0
 80159  1  0  0  0
 81160  1  0  0  0
 81161  1  0  0  0
 82 83  1  0  0  0
 82162  1  0  0  0
 83163  1  0  0  0
 85164  1  0  0  0
M  ISO  4   1 100  68 101  81 101  85 100
M  END
> <chiral flag>
0

> <version>
0

> <s_m_source_file>
/data/baiqing/PycharmProjects/Reinvent-master-3.2/result/LINK_invent/BTK/process_docking_weight1_custom_sum_contain_oxygen_bond_distance_aromatic_linkinvent_7_9_3/rearranged_h_0087.sdf

> <i_m_source_file_index>
86

> <r_mmod_Potential_Energy-OPLS-2005>
114.777969360352

> <r_mmod_Stretch_Energy-OPLS-2005>
157.400299072266

> <r_mmod_Bend_Energy-OPLS-2005>
237.931716918945

> <r_mmod_Torsional_Energy-OPLS-2005>
254.313385009766

> <r_mmod_Improper_Torsional_Energy-OPLS-2005>
5.52797031402588

> <r_mmod_Van_der_Waal_Energy-OPLS-2005>
149.580810546875

> <r_mmod_Electrostatic_Energy-OPLS-2005>
-559.569885253906

> <r_mmod_Solvation_Energy-OPLS-2005>
-211.115585327148

> <b_mmod_Minimization_Converged-OPLS-2005>
0

> <r_mmod_RMS_Derivative-OPLS-2005>
4.89149761199951

$$$$
87
                    3D
 Structure written by MMmdl.
167175  0  0  1  0            999 V2000
  -30.6204  -14.7038   20.3993 C   0  0  0  0  0  0
  -30.4353  -12.4214   19.4434 C   0  0  0  0  0  0
  -29.5106  -12.4828   18.2036 C   0  0  0  0  0  0
  -28.0236  -12.3351   18.6094 C   0  0  0  0  0  0
  -27.6337  -13.2303   19.8213 C   0  0  2  0  0  0
  -28.6909  -13.1291   20.9439 C   0  0  0  0  0  0
  -25.2467  -13.8193   20.5667 C   0  0  0  0  0  0
  -24.1774  -13.0435   20.9266 C   0  0  0  0  0  0
  -24.6380  -11.6926   20.8755 C   0  0  0  0  0  0
  -23.9075  -10.4283   21.0394 C   0  0  0  0  0  0
  -24.3640   -9.4178   21.9133 C   0  0  0  0  0  0
  -23.6324   -8.2198   22.0686 C   0  0  0  0  0  0
  -22.4303   -8.0259   21.3507 C   0  0  0  0  0  0
  -21.9961   -9.0232   20.4602 C   0  0  0  0  0  0
  -22.7265  -10.2115   20.3018 C   0  0  0  0  0  0
  -21.6849   -6.0751   22.5293 C   0  0  0  0  0  0
  -21.3940   -6.5602   23.8230 C   0  0  0  0  0  0
  -21.3712   -5.6742   24.9196 C   0  0  0  0  0  0
  -21.6111   -4.3025   24.7207 C   0  0  0  0  0  0
  -21.8810   -3.8129   23.4320 C   0  0  0  0  0  0
  -21.9171   -4.6978   22.3399 C   0  0  0  0  0  0
  -22.7790  -13.5226   21.1935 C   0  0  0  0  0  0
  -22.1644   -4.2162   21.0963 F   0  0  0  0  0  0
  -21.5722   -3.4487   25.7719 F   0  0  0  0  0  0
  -29.9879  -13.4835   20.3585 N   0  0  0  0  0  0
  -26.2881  -12.9404   20.3134 N   0  0  0  0  0  0
  -25.9294  -11.6546   20.5635 N   0  0  0  0  0  0
  -22.0399  -12.8237   22.0518 N   0  0  0  0  0  0
  -25.4086  -15.1898   20.3991 N   0  0  0  0  0  0
  -31.8281  -14.7776   20.1679 O   0  0  0  0  0  0
  -21.6638   -6.8882   21.4248 O   0  0  0  0  0  0
  -22.3495  -14.5527   20.6775 O   0  0  0  0  0  0
  -24.6339  -31.8567   23.2008 C   0  0  0  0  0  0
  -25.9189  -32.4755   23.8303 C   0  0  1  0  0  0
  -27.2090  -27.2816   20.0725 C   0  0  0  0  0  0
  -25.5990  -33.8575   24.2211 N   0  0  0  0  0  0
  -23.4239  -30.4824   21.5557 C   0  0  2  0  0  0
  -24.8540  -28.9195   20.1309 C   0  0  0  0  0  0
  -22.7486  -29.4630   22.5019 C   0  0  0  0  0  0
  -18.0306  -28.1398   22.8482 C   0  0  0  0  0  0
  -24.1494  -36.7232   23.2636 C   0  0  0  0  0  0
  -25.9659  -30.7747   21.3690 C   0  0  0  0  0  0
  -26.0370  -29.4010   20.7001 C   0  0  0  0  0  0
  -27.2206  -28.5962   20.6581 C   0  0  0  0  0  0
  -25.9824  -26.8446   19.5290 C   0  0  0  0  0  0
  -24.8203  -27.6371   19.5671 C   0  0  0  0  0  0
  -23.6341  -29.8168   20.1760 C   0  0  0  0  0  0
  -25.4136  -36.3036   24.0290 C   0  0  1  0  0  0
  -20.5890  -28.3694   23.1281 C   0  0  2  0  0  0
  -20.6800  -26.9426   22.5411 C   0  0  0  0  0  0
  -19.5788  -26.6394   21.5207 C   0  0  0  0  0  0
  -18.1947  -26.7950   22.1601 C   0  0  0  0  0  0
  -19.1543  -28.8865   23.2882 C   0  0  0  0  0  0
  -18.9486  -30.1473   23.8899 C   0  0  0  0  0  0
  -17.6481  -30.6617   24.0545 C   0  0  0  0  0  0
  -25.9112  -34.9433   23.5038 C   0  0  0  0  0  0
  -16.5377  -29.9104   23.6335 C   0  0  0  0  0  0
  -16.7281  -28.6510   23.0371 C   0  0  0  0  0  0
  -26.4538  -31.6599   25.0707 C   0  0  0  0  0  0
  -25.3745  -31.3823   26.1419 C   0  0  0  0  0  0
  -27.0386  -30.3001   24.6220 C   0  0  0  0  0  0
  -27.6056  -32.4389   25.7491 C   0  0  0  0  0  0
  -27.5572  -37.1753   24.8469 C   0  0  0  0  0  0
  -21.4194  -29.3051   22.3704 N   0  0  0  0  0  0
  -26.4282  -37.3748   23.9414 N   0  0  0  0  0  0
  -24.6951  -31.0530   22.0971 N   0  0  0  0  0  0
  -23.4166  -28.8206   23.3158 O   0  0  0  0  0  0
  -28.3252  -26.4205   20.0774 O   0  0  0  0  0  0
  -26.5704  -34.8912   22.4623 O   0  0  0  0  0  0
  -23.5533  -32.1404   23.7325 O   0  0  0  0  0  0
  -30.3823  -22.6522   19.6843 C   0  0  0  0  0  0
  -28.6260  -21.0064   19.7833 C   0  0  0  0  0  0
  -28.9951  -22.4153   19.7772 C   0  0  0  0  0  0
  -31.2806  -21.5721   19.5233 C   0  0  0  0  0  0
  -29.6090  -19.9485   19.6902 C   0  0  0  0  0  0
  -33.2673  -21.7664   17.9423 C   0  0  0  0  0  0
  -25.8087  -23.0009   21.1521 C   0  0  0  0  0  0
  -31.6158  -17.6390   20.7949 C   0  0  0  0  0  0
  -32.7783  -21.8019   19.3954 C   0  0  0  0  0  0
  -29.3331  -18.3796   19.6347 C   0  0  0  0  0  0
  -27.1950  -23.6849   21.2274 C   0  0  0  0  0  0
  -28.3635  -25.1274   19.3120 C   0  0  0  0  0  0
  -27.9740  -23.6465   19.8808 C   0  0  1  0  0  0
  -30.1084  -17.3331   20.6182 C   0  0  1  0  0  0
  -30.8985  -20.2827   19.4905 N   0  0  0  0  0  0
  -29.8193  -15.8321   20.4718 N   0  0  0  0  0  0
  -31.4826  -12.5462   19.1517 H   0  0  0  0  0  0
  -30.3829  -11.4482   19.9303 H   0  0  0  0  0  0
  -29.7766  -11.6844   17.5132 H   0  0  0  0  0  0
  -29.6641  -13.4247   17.6665 H   0  0  0  0  0  0
  -27.8556  -11.2863   18.8653 H   0  0  0  0  0  0
  -27.3781  -12.5377   17.7516 H   0  0  0  0  0  0
  -27.6291  -14.2546   19.4457 H   0  0  0  0  0  0
  -28.7186  -12.1042   21.3248 H   0  0  0  0  0  0
  -28.4424  -13.7739   21.7891 H   0  0  0  0  0  0
  -25.2806   -9.5640   22.4692 H   0  0  0  0  0  0
  -24.0081   -7.4548   22.7366 H   0  0  0  0  0  0
  -21.0897   -8.8737   19.8884 H   0  0  0  0  0  0
  -22.3725  -10.9655   19.6110 H   0  0  0  0  0  0
  -21.1803   -7.6079   23.9746 H   0  0  0  0  0  0
  -21.1617   -6.0444   25.9124 H   0  0  0  0  0  0
  -22.0555   -2.7587   23.2796 H   0  0  0  0  0  0
  -22.4053  -12.0019   22.5089 H   0  0  0  0  0  0
  -21.0920  -13.1127   22.2527 H   0  0  0  0  0  0
  -24.6230  -15.8281   20.4827 H   0  0  0  0  0  0
  -26.2235  -15.6250   19.9915 H   0  0  0  0  0  0
  -26.7246  -32.5365   23.1055 H   0  0  0  0  0  0
  -25.0049  -33.9729   25.0284 H   0  0  0  0  0  0
  -22.7231  -31.3081   21.4170 H   0  0  0  0  0  0
  -23.3775  -35.9540   23.3321 H   0  0  0  0  0  0
  -24.3562  -36.8879   22.2046 H   0  0  0  0  0  0
  -23.7255  -37.6426   23.6685 H   0  0  0  0  0  0
  -26.1122  -31.5446   20.6141 H   0  0  0  0  0  0
  -26.8406  -30.8072   22.0065 H   0  0  0  0  0  0
  -28.1365  -28.9812   21.0870 H   0  0  0  0  0  0
  -25.8842  -25.8534   19.1155 H   0  0  0  0  0  0
  -23.8874  -27.2299   19.2004 H   0  0  0  0  0  0
  -23.7853  -30.5980   19.4319 H   0  0  0  0  0  0
  -22.7398  -29.2763   19.8572 H   0  0  0  0  0  0
  -25.1329  -36.1832   25.0771 H   0  0  0  0  0  0
  -20.9932  -28.3274   24.1424 H   0  0  0  0  0  0
  -20.5707  -26.2300   23.3619 H   0  0  0  0  0  0
  -21.6663  -26.7480   22.1209 H   0  0  0  0  0  0
  -19.6952  -25.6291   21.1286 H   0  0  0  0  0  0
  -19.6766  -27.3165   20.6711 H   0  0  0  0  0  0
  -17.4231  -26.6711   21.4003 H   0  0  0  0  0  0
  -18.0357  -26.0086   22.8980 H   0  0  0  0  0  0
  -19.7967  -30.7270   24.2262 H   0  0  0  0  0  0
  -17.5064  -31.6301   24.5148 H   0  0  0  0  0  0
  -15.5380  -30.3014   23.7686 H   0  0  0  0  0  0
  -15.8677  -28.0829   22.7102 H   0  0  0  0  0  0
  -24.5818  -30.7322   25.7721 H   0  0  0  0  0  0
  -24.9079  -32.3052   26.4844 H   0  0  0  0  0  0
  -25.7976  -30.8929   27.0194 H   0  0  0  0  0  0
  -26.2971  -29.6767   24.1217 H   0  0  0  0  0  0
  -27.4051  -29.7258   25.4741 H   0  0  0  0  0  0
  -27.8849  -30.4291   23.9469 H   0  0  0  0  0  0
  -27.2568  -33.3625   26.2123 H   0  0  0  0  0  0
  -28.3790  -32.7116   25.0305 H   0  0  0  0  0  0
  -28.0816  -31.8554   26.5381 H   0  0  0  0  0  0
  -28.2580  -38.0059   24.7497 H   0  0  0  0  0  0
  -28.1080  -36.2588   24.6305 H   0  0  0  0  0  0
  -27.2285  -37.1388   25.8875 H   0  0  0  0  0  0
  -20.9412  -29.8690   21.6818 H   0  0  0  0  0  0
  -26.0144  -38.2793   24.1510 H   0  0  0  0  0  0
  -30.7808  -23.6557   19.7244 H   0  0  0  0  0  0
  -27.5844  -20.7267   19.8423 H   0  0  0  0  0  0
  -33.1792  -20.7621   17.5299 H   0  0  0  0  0  0
  -34.3189  -22.0516   17.8908 H   0  0  0  0  0  0
  -32.7023  -22.4433   17.3011 H   0  0  0  0  0  0
  -25.3019  -22.9582   22.1163 H   0  0  0  0  0  0
  -25.8864  -21.9821   20.7785 H   0  0  0  0  0  0
  -25.1440  -23.5256   20.4686 H   0  0  0  0  0  0
  -31.7915  -18.6444   21.1808 H   0  0  0  0  0  0
  -32.1662  -17.5493   19.8541 H   0  0  0  0  0  0
  -32.0891  -16.9812   21.5222 H   0  0  0  0  0  0
  -33.2960  -21.0290   19.9700 H   0  0  0  0  0  0
  -33.0486  -22.7488   19.8611 H   0  0  0  0  0  0
  -29.5347  -18.0767   18.6049 H   0  0  0  0  0  0
  -28.2563  -18.2415   19.7612 H   0  0  0  0  0  0
  -27.7929  -23.2477   22.0307 H   0  0  0  0  0  0
  -27.0282  -24.7213   21.5210 H   0  0  0  0  0  0
  -27.8043  -25.2689   18.3891 H   0  0  0  0  0  0
  -29.3711  -25.0719   18.9011 H   0  0  0  0  0  0
  -27.2350  -23.3355   19.1391 H   0  0  0  0  0  0
  -29.6920  -17.5543   21.6035 H   0  0  0  0  0  0
  -28.8378  -15.6023   20.5080 H   0  0  0  0  0  0
  1 25  1  0  0  0
  1 30  2  0  0  0
  1 86  1  0  0  0
  2  3  1  0  0  0
  2 25  1  0  0  0
  2 87  1  0  0  0
  2 88  1  0  0  0
  3  4  1  0  0  0
  3 89  1  0  0  0
  3 90  1  0  0  0
  4  5  1  0  0  0
  4 91  1  0  0  0
  4 92  1  0  0  0
  5  6  1  0  0  0
  5 26  1  0  0  0
  5 93  1  0  0  0
  6 25  1  0  0  0
  6 94  1  0  0  0
  6 95  1  0  0  0
  7  8  2  0  0  0
  7 26  1  0  0  0
  7 29  1  0  0  0
  8  9  1  0  0  0
  8 22  1  0  0  0
  9 10  1  0  0  0
  9 27  2  0  0  0
 10 11  2  0  0  0
 10 15  1  0  0  0
 11 12  1  0  0  0
 11 96  1  0  0  0
 12 13  2  0  0  0
 12 97  1  0  0  0
 13 14  1  0  0  0
 13 31  1  0  0  0
 14 15  2  0  0  0
 14 98  1  0  0  0
 15 99  1  0  0  0
 16 17  2  0  0  0
 16 21  1  0  0  0
 16 31  1  0  0  0
 17 18  1  0  0  0
 17100  1  0  0  0
 18 19  2  0  0  0
 18101  1  0  0  0
 19 20  1  0  0  0
 19 24  1  0  0  0
 20 21  2  0  0  0
 20102  1  0  0  0
 21 23  1  0  0  0
 22 28  1  0  0  0
 22 32  2  0  0  0
 26 27  1  0  0  0
 28103  1  0  0  0
 28104  1  0  0  0
 29105  1  0  0  0
 29106  1  0  0  0
 33 34  1  0  0  0
 33 66  1  0  0  0
 33 70  2  0  0  0
 34 36  1  0  0  0
 34 59  1  0  0  0
 34107  1  0  0  0
 35 44  2  0  0  0
 35 45  1  0  0  0
 35 68  1  0  0  0
 36 56  1  0  0  0
 36108  1  0  0  0
 37 39  1  0  0  0
 37 47  1  0  0  0
 37 66  1  0  0  0
 37109  1  0  0  0
 38 43  2  0  0  0
 38 46  1  0  0  0
 38 47  1  0  0  0
 39 64  1  0  0  0
 39 67  2  0  0  0
 40 52  1  0  0  0
 40 53  2  0  0  0
 40 58  1  0  0  0
 41110  1  0  0  0
 41111  1  0  0  0
 41112  1  0  0  0
 41 48  1  0  0  0
 42 43  1  0  0  0
 42 66  1  0  0  0
 42113  1  0  0  0
 42114  1  0  0  0
 43 44  1  0  0  0
 44115  1  0  0  0
 45 46  2  0  0  0
 45116  1  0  0  0
 46117  1  0  0  0
 47118  1  0  0  0
 47119  1  0  0  0
 48 56  1  0  0  0
 48 65  1  0  0  0
 48120  1  0  0  0
 49 50  1  0  0  0
 49 53  1  0  0  0
 49 64  1  0  0  0
 49121  1  0  0  0
 50 51  1  0  0  0
 50122  1  0  0  0
 50123  1  0  0  0
 51 52  1  0  0  0
 51124  1  0  0  0
 51125  1  0  0  0
 52126  1  0  0  0
 52127  1  0  0  0
 53 54  1  0  0  0
 54 55  2  0  0  0
 54128  1  0  0  0
 55 57  1  0  0  0
 55129  1  0  0  0
 56 69  2  0  0  0
 57 58  2  0  0  0
 57130  1  0  0  0
 58131  1  0  0  0
 59 60  1  0  0  0
 59 61  1  0  0  0
 59 62  1  0  0  0
 60132  1  0  0  0
 60133  1  0  0  0
 60134  1  0  0  0
 61135  1  0  0  0
 61136  1  0  0  0
 61137  1  0  0  0
 62138  1  0  0  0
 62139  1  0  0  0
 62140  1  0  0  0
 63 65  1  0  0  0
 63141  1  0  0  0
 63142  1  0  0  0
 63143  1  0  0  0
 64144  1  0  0  0
 65145  1  0  0  0
 68 82  1  0  0  0
 71 73  2  0  0  0
 71 74  1  0  0  0
 71146  1  0  0  0
 72 73  1  0  0  0
 72 75  2  0  0  0
 72147  1  0  0  0
 73 83  1  0  0  0
 74 79  1  0  0  0
 74 85  2  0  0  0
 75 80  1  0  0  0
 75 85  1  0  0  0
 76 79  1  0  0  0
 76148  1  0  0  0
 76149  1  0  0  0
 76150  1  0  0  0
 77 81  1  0  0  0
 77151  1  0  0  0
 77152  1  0  0  0
 77153  1  0  0  0
 78154  1  0  0  0
 78155  1  0  0  0
 78156  1  0  0  0
 78 84  1  0  0  0
 79157  1  0  0  0
 79158  1  0  0  0
 80 84  1  0  0  0
 80159  1  0  0  0
 80160  1  0  0  0
 81161  1  0  0  0
 81162  1  0  0  0
 81 83  1  0  0  0
 82 83  1  0  0  0
 82163  1  0  0  0
 82164  1  0  0  0
 83165  1  0  0  0
 84 86  1  0  0  0
 84166  1  0  0  0
 86167  1  0  0  0
M  ISO  4   1 100  68 101  82 101  86 100
M  END
> <chiral flag>
0

> <version>
0

> <s_m_source_file>
/data/baiqing/PycharmProjects/Reinvent-master-3.2/result/LINK_invent/BTK/process_docking_weight1_custom_sum_contain_oxygen_bond_distance_aromatic_linkinvent_7_9_3/rearranged_h_0087.sdf

> <i_m_source_file_index>
87

> <r_mmod_Potential_Energy-OPLS-2005>
114.372497558594

> <r_mmod_Stretch_Energy-OPLS-2005>
126.012718200684

> <r_mmod_Bend_Energy-OPLS-2005>
195.446685791016

> <r_mmod_Torsional_Energy-OPLS-2005>
219.987213134766

> <r_mmod_Improper_Torsional_Energy-OPLS-2005>
6.29897356033325

> <r_mmod_Van_der_Waal_Energy-OPLS-2005>
144.151809692383

> <r_mmod_Electrostatic_Energy-OPLS-2005>
-437.892486572266

> <r_mmod_Solvation_Energy-OPLS-2005>
-213.895095825195

> <b_mmod_Minimization_Converged-OPLS-2005>
0

> <r_mmod_RMS_Derivative-OPLS-2005>
8.4940824508667

$$$$
88
                    3D
 Structure written by MMmdl.
176184  0  0  1  0            999 V2000
  -30.7254  -14.3566   20.5660 C   0  0  0  0  0  0
  -30.4201  -12.2259   19.3975 C   0  0  0  0  0  0
  -29.4890  -12.4993   18.1972 C   0  0  0  0  0  0
  -28.0073  -12.3816   18.6103 C   0  0  0  0  0  0
  -27.6730  -13.1892   19.8913 C   0  0  2  0  0  0
  -28.7155  -12.9029   21.0010 C   0  0  0  0  0  0
  -25.2612  -13.8063   20.5628 C   0  0  0  0  0  0
  -24.1862  -13.0396   20.9224 C   0  0  0  0  0  0
  -24.6400  -11.6863   20.8772 C   0  0  0  0  0  0
  -23.9055  -10.4276   21.0418 C   0  0  0  0  0  0
  -24.3608   -9.4192   21.9202 C   0  0  0  0  0  0
  -23.6276   -8.2225   22.0743 C   0  0  0  0  0  0
  -22.4256   -8.0281   21.3536 C   0  0  0  0  0  0
  -21.9898   -9.0249   20.4640 C   0  0  0  0  0  0
  -22.7221  -10.2132   20.3078 C   0  0  0  0  0  0
  -21.6872   -6.0730   22.5270 C   0  0  0  0  0  0
  -21.3999   -6.5635   23.8198 C   0  0  0  0  0  0
  -21.3643   -5.6783   24.9167 C   0  0  0  0  0  0
  -21.6081   -4.3052   24.7218 C   0  0  0  0  0  0
  -21.8820   -3.8148   23.4329 C   0  0  0  0  0  0
  -21.9175   -4.6956   22.3387 C   0  0  0  0  0  0
  -22.7878  -13.5215   21.1836 C   0  0  0  0  0  0
  -22.1674   -4.2146   21.0957 F   0  0  0  0  0  0
  -21.5629   -3.4534   25.7728 F   0  0  0  0  0  0
  -30.0665  -13.1781   20.4600 N   0  0  0  0  0  0
  -26.3068  -12.9241   20.3425 N   0  0  0  0  0  0
  -25.9329  -11.6410   20.5814 N   0  0  0  0  0  0
  -22.0548  -12.8199   22.0404 N   0  0  0  0  0  0
  -25.4260  -15.1734   20.3636 N   0  0  0  0  0  0
  -31.8184  -14.6009   20.0464 O   0  0  0  0  0  0
  -21.6631   -6.8874   21.4233 O   0  0  0  0  0  0
  -22.3609  -14.5540   20.6683 O   0  0  0  0  0  0
  -24.6101  -31.8656   23.2140 C   0  0  0  0  0  0
  -25.9008  -32.4820   23.8385 C   0  0  1  0  0  0
  -27.2563  -27.4725   20.0740 C   0  0  0  0  0  0
  -25.5896  -33.8622   24.2304 N   0  0  0  0  0  0
  -23.3965  -30.4883   21.5518 C   0  0  2  0  0  0
  -24.8458  -28.9489   20.1246 C   0  0  0  0  0  0
  -22.7374  -29.4624   22.5012 C   0  0  0  0  0  0
  -18.0240  -28.1410   22.8460 C   0  0  0  0  0  0
  -24.1501  -36.7343   23.2641 C   0  0  0  0  0  0
  -25.9180  -30.8495   21.3522 C   0  0  0  0  0  0
  -26.0016  -29.4801   20.7122 C   0  0  0  0  0  0
  -27.2035  -28.7430   20.6864 C   0  0  0  0  0  0
  -26.0762  -26.9336   19.5105 C   0  0  0  0  0  0
  -24.8765  -27.6735   19.5356 C   0  0  0  0  0  0
  -23.6056  -29.8136   20.1693 C   0  0  0  0  0  0
  -25.4120  -36.3121   24.0326 C   0  0  1  0  0  0
  -20.5822  -28.3636   23.1395 C   0  0  2  0  0  0
  -20.6741  -26.9378   22.5486 C   0  0  0  0  0  0
  -19.5741  -26.6402   21.5256 C   0  0  0  0  0  0
  -18.1883  -26.7944   22.1602 C   0  0  0  0  0  0
  -19.1487  -28.8840   23.2920 C   0  0  0  0  0  0
  -18.9425  -30.1432   23.8947 C   0  0  0  0  0  0
  -17.6435  -30.6614   24.0558 C   0  0  0  0  0  0
  -25.9044  -34.9480   23.5129 C   0  0  0  0  0  0
  -16.5316  -29.9114   23.6323 C   0  0  0  0  0  0
  -16.7234  -28.6539   23.0330 C   0  0  0  0  0  0
  -26.4485  -31.6602   25.0694 C   0  0  0  0  0  0
  -25.3792  -31.3653   26.1473 C   0  0  0  0  0  0
  -27.0288  -30.3056   24.6001 C   0  0  0  0  0  0
  -27.6087  -32.4302   25.7452 C   0  0  0  0  0  0
  -27.5572  -37.1795   24.8449 C   0  0  0  0  0  0
  -21.4106  -29.3005   22.3807 N   0  0  0  0  0  0
  -26.4294  -37.3803   23.9406 N   0  0  0  0  0  0
  -24.6605  -31.0804   22.1019 N   0  0  0  0  0  0
  -23.4140  -28.8123   23.3039 O   0  0  0  0  0  0
  -28.5003  -26.8841   20.0267 O   0  0  0  0  0  0
  -26.5601  -34.8917   22.4672 O   0  0  0  0  0  0
  -23.5305  -32.1383   23.7589 O   0  0  0  0  0  0
  -27.8125  -22.1174   20.0190 C   0  0  0  0  0  0
  -25.6058  -22.9256   20.5573 C   0  0  0  0  0  0
  -26.9961  -23.0414   20.7039 C   0  0  0  0  0  0
  -27.2302  -21.1172   19.2151 C   0  0  0  0  0  0
  -25.8092  -21.0475   19.2016 C   0  0  0  0  0  0
  -29.2084  -21.0376   17.6005 C   0  0  0  0  0  0
  -24.4575  -20.4309   17.1526 C   0  0  0  0  0  0
  -23.9422  -19.3490   19.4012 C   0  0  0  0  0  0
  -27.5636  -24.1561   21.5723 C   0  0  0  0  0  0
  -28.8776  -24.7541   21.0453 C   0  0  0  0  0  0
  -29.7353  -16.5317   20.2609 C   0  0  0  0  0  0
  -28.4474  -17.2194   20.7560 C   0  0  0  0  0  0
  -28.8331  -19.1025   19.1561 C   0  0  0  0  0  0
  -28.7006  -25.5118   19.7206 C   0  0  0  0  0  0
  -28.1400  -20.2211   18.3519 C   0  0  1  0  0  0
  -25.0280  -19.9459   18.4885 C   0  0  0  0  0  0
  -25.0314  -21.9579   19.8260 N   0  0  0  0  0  0
  -29.9708  -15.3354   21.0520 N   0  0  0  0  0  0
  -27.8718  -18.1955   19.8056 N   0  3  0  0  0  0
  -31.4644  -12.3037   19.0906 H   0  0  0  0  0  0
  -30.2893  -11.2000   19.7469 H   0  0  0  0  0  0
  -29.6944  -11.7953   17.3889 H   0  0  0  0  0  0
  -29.6869  -13.4928   17.7955 H   0  0  0  0  0  0
  -27.7885  -11.3250   18.7709 H   0  0  0  0  0  0
  -27.3652  -12.6998   17.7890 H   0  0  0  0  0  0
  -27.7362  -14.2462   19.6324 H   0  0  0  0  0  0
  -28.6578  -11.8559   21.3011 H   0  0  0  0  0  0
  -28.4942  -13.4654   21.9105 H   0  0  0  0  0  0
  -25.2769   -9.5661   22.4755 H   0  0  0  0  0  0
  -23.9999   -7.4621   22.7440 H   0  0  0  0  0  0
  -21.0856   -8.8755   19.8920 H   0  0  0  0  0  0
  -22.3690  -10.9672   19.6188 H   0  0  0  0  0  0
  -21.1992   -7.6148   23.9694 H   0  0  0  0  0  0
  -21.1481   -6.0526   25.9065 H   0  0  0  0  0  0
  -22.0610   -2.7610   23.2824 H   0  0  0  0  0  0
  -22.4160  -11.9831   22.4733 H   0  0  0  0  0  0
  -21.1161  -13.1183   22.2649 H   0  0  0  0  0  0
  -24.5546  -15.6900   20.3160 H   0  0  0  0  0  0
  -26.0363  -15.4029   19.5924 H   0  0  0  0  0  0
  -26.7035  -32.5579   23.1121 H   0  0  0  0  0  0
  -25.0033  -33.9762   25.0448 H   0  0  0  0  0  0
  -22.6856  -31.3043   21.4070 H   0  0  0  0  0  0
  -23.3757  -35.9676   23.3320 H   0  0  0  0  0  0
  -24.3564  -36.8997   22.2053 H   0  0  0  0  0  0
  -23.7284  -37.6557   23.6670 H   0  0  0  0  0  0
  -26.0006  -31.6059   20.5698 H   0  0  0  0  0  0
  -26.8172  -30.9259   21.9503 H   0  0  0  0  0  0
  -28.1040  -29.1491   21.1260 H   0  0  0  0  0  0
  -26.0555  -25.9653   19.0347 H   0  0  0  0  0  0
  -23.9828  -27.2509   19.0972 H   0  0  0  0  0  0
  -23.7147  -30.5874   19.4096 H   0  0  0  0  0  0
  -22.7277  -29.2362   19.8718 H   0  0  0  0  0  0
  -25.1283  -36.1958   25.0814 H   0  0  0  0  0  0
  -20.9858  -28.3208   24.1534 H   0  0  0  0  0  0
  -20.5721  -26.2196   23.3643 H   0  0  0  0  0  0
  -21.6589  -26.7499   22.1201 H   0  0  0  0  0  0
  -19.6944  -25.6337   21.1251 H   0  0  0  0  0  0
  -19.6746  -27.3230   20.6816 H   0  0  0  0  0  0
  -17.4167  -26.6711   21.3991 H   0  0  0  0  0  0
  -18.0240  -26.0111   22.9033 H   0  0  0  0  0  0
  -19.7911  -30.7232   24.2335 H   0  0  0  0  0  0
  -17.5005  -31.6288   24.5161 H   0  0  0  0  0  0
  -15.5318  -30.3041   23.7708 H   0  0  0  0  0  0
  -15.8603  -28.0936   22.7004 H   0  0  0  0  0  0
  -24.5993  -30.6962   25.7845 H   0  0  0  0  0  0
  -24.8926  -32.2767   26.4957 H   0  0  0  0  0  0
  -25.8189  -30.8829   27.0211 H   0  0  0  0  0  0
  -26.2732  -29.6801   24.1223 H   0  0  0  0  0  0
  -27.4292  -29.7315   25.4381 H   0  0  0  0  0  0
  -27.8487  -30.4452   23.8939 H   0  0  0  0  0  0
  -27.2753  -33.3641   26.1986 H   0  0  0  0  0  0
  -28.3909  -32.6788   25.0275 H   0  0  0  0  0  0
  -28.0706  -31.8423   26.5397 H   0  0  0  0  0  0
  -28.2557  -38.0114   24.7466 H   0  0  0  0  0  0
  -28.1066  -36.2619   24.6274 H   0  0  0  0  0  0
  -27.2248  -37.1483   25.8840 H   0  0  0  0  0  0
  -20.9256  -29.8738   21.7047 H   0  0  0  0  0  0
  -26.0190  -38.2869   24.1461 H   0  0  0  0  0  0
  -28.8882  -22.1733   20.0957 H   0  0  0  0  0  0
  -24.9335  -23.6131   21.0495 H   0  0  0  0  0  0
  -28.7753  -21.8929   17.0814 H   0  0  0  0  0  0
  -29.7094  -20.4234   16.8511 H   0  0  0  0  0  0
  -29.9858  -21.4057   18.2700 H   0  0  0  0  0  0
  -25.2524  -20.8182   16.5123 H   0  0  0  0  0  0
  -23.7290  -21.2292   17.2978 H   0  0  0  0  0  0
  -23.9578  -19.6191   16.6223 H   0  0  0  0  0  0
  -24.3669  -19.0401   20.3603 H   0  0  0  0  0  0
  -23.4718  -18.4811   18.9419 H   0  0  0  0  0  0
  -23.1513  -20.0676   19.6139 H   0  0  0  0  0  0
  -27.6904  -23.7756   22.5868 H   0  0  0  0  0  0
  -26.8231  -24.9562   21.6443 H   0  0  0  0  0  0
  -29.6393  -23.9824   20.9370 H   0  0  0  0  0  0
  -29.2865  -25.4335   21.7938 H   0  0  0  0  0  0
  -30.6009  -17.1951   20.3154 H   0  0  0  0  0  0
  -29.6375  -16.2383   19.2114 H   0  0  0  0  0  0
  -28.6537  -17.7274   21.6976 H   0  0  0  0  0  0
  -27.6824  -16.4735   20.9751 H   0  0  0  0  0  0
  -29.4958  -19.5292   19.9109 H   0  0  0  0  0  0
  -29.4595  -18.5158   18.4807 H   0  0  0  0  0  0
  -27.9495  -25.0716   19.0714 H   0  0  0  0  0  0
  -29.6328  -25.4547   19.1560 H   0  0  0  0  0  0
  -27.5494  -19.7680   17.5569 H   0  0  0  0  0  0
  -25.6951  -19.1138   18.2754 H   0  0  0  0  0  0
  -29.1810  -15.0121   21.5887 H   0  0  0  0  0  0
  -27.2043  -18.7521   20.3164 H   0  0  0  0  0  0
  -27.3847  -17.6911   19.0832 H   0  0  0  0  0  0
  1 25  1  0  0  0
  1 30  2  0  0  0
  1 88  1  0  0  0
  2  3  1  0  0  0
  2 25  1  0  0  0
  2 90  1  0  0  0
  2 91  1  0  0  0
  3  4  1  0  0  0
  3 92  1  0  0  0
  3 93  1  0  0  0
  4  5  1  0  0  0
  4 94  1  0  0  0
  4 95  1  0  0  0
  5  6  1  0  0  0
  5 26  1  0  0  0
  5 96  1  0  0  0
  6 25  1  0  0  0
  6 97  1  0  0  0
  6 98  1  0  0  0
  7  8  2  0  0  0
  7 26  1  0  0  0
  7 29  1  0  0  0
  8  9  1  0  0  0
  8 22  1  0  0  0
  9 10  1  0  0  0
  9 27  2  0  0  0
 10 11  2  0  0  0
 10 15  1  0  0  0
 11 12  1  0  0  0
 11 99  1  0  0  0
 12 13  2  0  0  0
 12100  1  0  0  0
 13 14  1  0  0  0
 13 31  1  0  0  0
 14 15  2  0  0  0
 14101  1  0  0  0
 15102  1  0  0  0
 16 17  2  0  0  0
 16 21  1  0  0  0
 16 31  1  0  0  0
 17 18  1  0  0  0
 17103  1  0  0  0
 18 19  2  0  0  0
 18104  1  0  0  0
 19 20  1  0  0  0
 19 24  1  0  0  0
 20 21  2  0  0  0
 20105  1  0  0  0
 21 23  1  0  0  0
 22 28  1  0  0  0
 22 32  2  0  0  0
 26 27  1  0  0  0
 28106  1  0  0  0
 28107  1  0  0  0
 29108  1  0  0  0
 29109  1  0  0  0
 33 34  1  0  0  0
 33 66  1  0  0  0
 33 70  2  0  0  0
 34 36  1  0  0  0
 34 59  1  0  0  0
 34110  1  0  0  0
 35 44  2  0  0  0
 35 45  1  0  0  0
 35 68  1  0  0  0
 36 56  1  0  0  0
 36111  1  0  0  0
 37 39  1  0  0  0
 37 47  1  0  0  0
 37 66  1  0  0  0
 37112  1  0  0  0
 38 43  2  0  0  0
 38 46  1  0  0  0
 38 47  1  0  0  0
 39 64  1  0  0  0
 39 67  2  0  0  0
 40 52  1  0  0  0
 40 53  2  0  0  0
 40 58  1  0  0  0
 41113  1  0  0  0
 41114  1  0  0  0
 41115  1  0  0  0
 41 48  1  0  0  0
 42 43  1  0  0  0
 42 66  1  0  0  0
 42116  1  0  0  0
 42117  1  0  0  0
 43 44  1  0  0  0
 44118  1  0  0  0
 45 46  2  0  0  0
 45119  1  0  0  0
 46120  1  0  0  0
 47121  1  0  0  0
 47122  1  0  0  0
 48 56  1  0  0  0
 48 65  1  0  0  0
 48123  1  0  0  0
 49 50  1  0  0  0
 49 53  1  0  0  0
 49 64  1  0  0  0
 49124  1  0  0  0
 50 51  1  0  0  0
 50125  1  0  0  0
 50126  1  0  0  0
 51 52  1  0  0  0
 51127  1  0  0  0
 51128  1  0  0  0
 52129  1  0  0  0
 52130  1  0  0  0
 53 54  1  0  0  0
 54 55  2  0  0  0
 54131  1  0  0  0
 55 57  1  0  0  0
 55132  1  0  0  0
 56 69  2  0  0  0
 57 58  2  0  0  0
 57133  1  0  0  0
 58134  1  0  0  0
 59 60  1  0  0  0
 59 61  1  0  0  0
 59 62  1  0  0  0
 60135  1  0  0  0
 60136  1  0  0  0
 60137  1  0  0  0
 61138  1  0  0  0
 61139  1  0  0  0
 61140  1  0  0  0
 62141  1  0  0  0
 62142  1  0  0  0
 62143  1  0  0  0
 63 65  1  0  0  0
 63144  1  0  0  0
 63145  1  0  0  0
 63146  1  0  0  0
 64147  1  0  0  0
 65148  1  0  0  0
 68 84  1  0  0  0
 71 73  2  0  0  0
 71 74  1  0  0  0
 71149  1  0  0  0
 72 73  1  0  0  0
 72 87  2  0  0  0
 72150  1  0  0  0
 73 79  1  0  0  0
 74 75  2  0  0  0
 74 85  1  0  0  0
 75 86  1  0  0  0
 75 87  1  0  0  0
 76151  1  0  0  0
 76152  1  0  0  0
 76153  1  0  0  0
 76 85  1  0  0  0
 77154  1  0  0  0
 77155  1  0  0  0
 77156  1  0  0  0
 77 86  1  0  0  0
 78 86  1  0  0  0
 78157  1  0  0  0
 78158  1  0  0  0
 78159  1  0  0  0
 79 80  1  0  0  0
 79160  1  0  0  0
 79161  1  0  0  0
 80 84  1  0  0  0
 80162  1  0  0  0
 80163  1  0  0  0
 81 82  1  0  0  0
 81 88  1  0  0  0
 81164  1  0  0  0
 81165  1  0  0  0
 82 89  1  0  0  0
 82166  1  0  0  0
 82167  1  0  0  0
 83 85  1  0  0  0
 83 89  1  0  0  0
 83168  1  0  0  0
 83169  1  0  0  0
 84170  1  0  0  0
 84171  1  0  0  0
 85172  1  0  0  0
 86173  1  0  0  0
 88174  1  0  0  0
 89175  1  0  0  0
 89176  1  0  0  0
M  CHG  1  89   1
M  ISO  4   1 100  68 101  84 101  88 100
M  END
> <chiral flag>
0

> <version>
0

> <s_m_source_file>
/data/baiqing/PycharmProjects/Reinvent-master-3.2/result/LINK_invent/BTK/process_docking_weight1_custom_sum_contain_oxygen_bond_distance_aromatic_linkinvent_7_9_3/rearranged_h_0087.sdf

> <i_m_source_file_index>
88

> <r_mmod_Potential_Energy-OPLS-2005>
-408.681365966797

> <r_mmod_Stretch_Energy-OPLS-2005>
34.2895126342773

> <r_mmod_Bend_Energy-OPLS-2005>
110.382553100586

> <r_mmod_Torsional_Energy-OPLS-2005>
254.115875244141

> <r_mmod_Improper_Torsional_Energy-OPLS-2005>
15.0494775772095

> <r_mmod_Van_der_Waal_Energy-OPLS-2005>
153.619705200195

> <r_mmod_Electrostatic_Energy-OPLS-2005>
-500.085601806641

> <r_mmod_Solvation_Energy-OPLS-2005>
-487.825500488281

> <b_mmod_Minimization_Converged-OPLS-2005>
0

> <r_mmod_RMS_Derivative-OPLS-2005>
5.33031558990479

$$$$
89
                    3D
 Structure written by MMmdl.
173181  0  0  1  0            999 V2000
  -30.7329  -14.6422   20.4614 C   0  0  0  0  0  0
  -30.4012  -12.3920   19.4819 C   0  0  0  0  0  0
  -29.5182  -12.4762   18.2114 C   0  0  0  0  0  0
  -28.0295  -12.7977   18.5041 C   0  0  0  0  0  0
  -27.7058  -12.7557   20.0017 C   0  0  2  0  0  0
  -28.7158  -13.2619   21.0379 C   0  0  0  0  0  0
  -25.3039  -13.7600   20.5550 C   0  0  0  0  0  0
  -24.1833  -13.0431   20.9217 C   0  0  0  0  0  0
  -24.5698  -11.6762   20.8986 C   0  0  0  0  0  0
  -23.8389  -10.4306   21.0656 C   0  0  0  0  0  0
  -24.3200   -9.4240   21.9296 C   0  0  0  0  0  0
  -23.6106   -8.2167   22.0758 C   0  0  0  0  0  0
  -22.4114   -8.0158   21.3521 C   0  0  0  0  0  0
  -21.9620   -9.0076   20.4635 C   0  0  0  0  0  0
  -22.6722  -10.2073   20.3145 C   0  0  0  0  0  0
  -21.6798   -6.0670   22.5291 C   0  0  0  0  0  0
  -21.3932   -6.5619   23.8187 C   0  0  0  0  0  0
  -21.3657   -5.6789   24.9179 C   0  0  0  0  0  0
  -21.6062   -4.3054   24.7240 C   0  0  0  0  0  0
  -21.8813   -3.8129   23.4363 C   0  0  0  0  0  0
  -21.9191   -4.6938   22.3414 C   0  0  0  0  0  0
  -22.7942  -13.5513   21.1878 C   0  0  0  0  0  0
  -22.1664   -4.2131   21.0981 F   0  0  0  0  0  0
  -21.5696   -3.4542   25.7749 F   0  0  0  0  0  0
  -30.0140  -13.4874   20.3925 N   0  0  0  0  0  0
  -26.2997  -12.7892   20.3792 N   0  0  0  0  0  0
  -25.8312  -11.5585   20.6104 N   0  0  0  0  0  0
  -22.0429  -12.8518   22.0372 N   0  0  0  0  0  0
  -25.5551  -15.1136   20.3561 N   0  0  0  0  0  0
  -31.9107  -14.7008   20.1151 O   0  0  0  0  0  0
  -21.6571   -6.8723   21.4213 O   0  0  0  0  0  0
  -22.3818  -14.5886   20.6752 O   0  0  0  0  0  0
  -24.6189  -31.8628   23.2074 C   0  0  0  0  0  0
  -25.9065  -32.4799   23.8383 C   0  0  1  0  0  0
  -27.2531  -27.4026   20.0695 C   0  0  0  0  0  0
  -25.5899  -33.8601   24.2300 N   0  0  0  0  0  0
  -23.4108  -30.4849   21.5492 C   0  0  2  0  0  0
  -24.8587  -28.9461   20.1091 C   0  0  0  0  0  0
  -22.7441  -29.4629   22.4994 C   0  0  0  0  0  0
  -18.0272  -28.1384   22.8496 C   0  0  0  0  0  0
  -24.1477  -36.7305   23.2643 C   0  0  0  0  0  0
  -25.9455  -30.8114   21.3689 C   0  0  0  0  0  0
  -26.0206  -29.4466   20.7092 C   0  0  0  0  0  0
  -27.2121  -28.6796   20.6884 C   0  0  0  0  0  0
  -26.0581  -26.9153   19.4856 C   0  0  0  0  0  0
  -24.8744  -27.6800   19.4993 C   0  0  0  0  0  0
  -23.6202  -29.8152   20.1642 C   0  0  0  0  0  0
  -25.4101  -36.3103   24.0332 C   0  0  1  0  0  0
  -20.5872  -28.3661   23.1310 C   0  0  2  0  0  0
  -20.6753  -26.9386   22.5415 C   0  0  0  0  0  0
  -19.5738  -26.6381   21.5218 C   0  0  0  0  0  0
  -18.1925  -26.7929   22.1626 C   0  0  0  0  0  0
  -19.1526  -28.8848   23.2902 C   0  0  0  0  0  0
  -18.9447  -30.1460   23.8907 C   0  0  0  0  0  0
  -17.6452  -30.6588   24.0571 C   0  0  0  0  0  0
  -25.9032  -34.9467   23.5125 C   0  0  0  0  0  0
  -16.5344  -29.9092   23.6330 C   0  0  0  0  0  0
  -16.7265  -28.6510   23.0348 C   0  0  0  0  0  0
  -26.4472  -31.6619   25.0750 C   0  0  0  0  0  0
  -25.3721  -31.3732   26.1487 C   0  0  0  0  0  0
  -27.0299  -30.3050   24.6170 C   0  0  0  0  0  0
  -27.6039  -32.4353   25.7506 C   0  0  0  0  0  0
  -27.5574  -37.1805   24.8463 C   0  0  0  0  0  0
  -21.4160  -29.3024   22.3713 N   0  0  0  0  0  0
  -26.4289  -37.3788   23.9411 N   0  0  0  0  0  0
  -24.6780  -31.0676   22.0999 N   0  0  0  0  0  0
  -23.4189  -28.8171   23.3055 O   0  0  0  0  0  0
  -28.4364  -26.6695   20.1095 O   0  0  0  0  0  0
  -26.5608  -34.8925   22.4690 O   0  0  0  0  0  0
  -23.5361  -32.1411   23.7427 O   0  0  0  0  0  0
  -29.2372  -17.7332   18.6842 C   0  0  0  0  0  0
  -28.8559  -18.6297   17.6692 C   0  0  0  0  0  0
  -29.3718  -19.9637   17.7166 C   0  0  0  0  0  0
  -30.0143  -18.1679   19.7623 C   0  0  0  0  0  0
  -29.9886  -20.4004   18.9394 C   0  0  0  0  0  0
  -30.5587  -20.3887   15.5121 C   0  0  0  0  0  0
  -27.6671  -18.5702   15.2444 C   0  0  0  0  0  0
  -26.4437  -18.0703   17.3841 C   0  0  0  0  0  0
  -30.6881  -23.8273   17.6786 C   0  0  0  0  0  0
  -29.4090  -20.8123   16.4468 C   0  0  0  0  0  0
  -30.4128  -21.8668   19.3250 C   0  0  0  0  0  0
  -30.5408  -17.1673   20.8224 C   0  0  0  0  0  0
  -29.3211  -24.2955   19.7554 C   0  0  0  0  0  0
  -28.7333  -25.6241   19.1448 C   0  0  0  0  0  0
  -27.8142  -18.0450   16.6877 C   0  0  0  0  0  0
  -29.7380  -23.1769   18.7223 C   0  0  1  0  0  0
  -30.3188  -19.4876   19.9026 N   0  0  0  0  0  0
  -30.0378  -15.7672   20.7531 N   0  0  0  0  0  0
  -31.4598  -12.4231   19.2170 H   0  0  0  0  0  0
  -30.2488  -11.4411   19.9987 H   0  0  0  0  0  0
  -29.5825  -11.5310   17.6783 H   0  0  0  0  0  0
  -29.9204  -13.2283   17.5315 H   0  0  0  0  0  0
  -27.3837  -12.1115   17.9512 H   0  0  0  0  0  0
  -27.7959  -13.7928   18.1234 H   0  0  0  0  0  0
  -27.9659  -11.6988   20.1130 H   0  0  0  0  0  0
  -28.8614  -12.5180   21.8240 H   0  0  0  0  0  0
  -28.3296  -14.1442   21.5446 H   0  0  0  0  0  0
  -25.2324   -9.5828   22.4851 H   0  0  0  0  0  0
  -23.9967   -7.4525   22.7334 H   0  0  0  0  0  0
  -21.0632   -8.8386   19.8853 H   0  0  0  0  0  0
  -22.3091  -10.9606   19.6283 H   0  0  0  0  0  0
  -21.1808   -7.6104   23.9681 H   0  0  0  0  0  0
  -21.1537   -6.0529   25.9070 H   0  0  0  0  0  0
  -22.0613   -2.7592   23.2850 H   0  0  0  0  0  0
  -22.3883  -12.0099   22.4808 H   0  0  0  0  0  0
  -21.1073  -13.1629   22.2532 H   0  0  0  0  0  0
  -26.4300  -15.4658   19.9917 H   0  0  0  0  0  0
  -24.8257  -15.8183   20.3663 H   0  0  0  0  0  0
  -26.7152  -32.5478   23.1142 H   0  0  0  0  0  0
  -25.0032  -33.9776   25.0440 H   0  0  0  0  0  0
  -22.7027  -31.3045   21.4096 H   0  0  0  0  0  0
  -23.3742  -35.9639   23.3316 H   0  0  0  0  0  0
  -24.3570  -36.8912   22.2059 H   0  0  0  0  0  0
  -23.7235  -37.6509   23.6657 H   0  0  0  0  0  0
  -26.0728  -31.5821   20.6073 H   0  0  0  0  0  0
  -26.8273  -30.8556   21.9965 H   0  0  0  0  0  0
  -28.1083  -29.0648   21.1528 H   0  0  0  0  0  0
  -26.0035  -25.9325   19.0401 H   0  0  0  0  0  0
  -23.9778  -27.2841   19.0405 H   0  0  0  0  0  0
  -23.7250  -30.5927   19.4065 H   0  0  0  0  0  0
  -22.7418  -29.2365   19.8684 H   0  0  0  0  0  0
  -25.1283  -36.1964   25.0828 H   0  0  0  0  0  0
  -20.9968  -28.3240   24.1439 H   0  0  0  0  0  0
  -20.5652  -26.2280   23.3619 H   0  0  0  0  0  0
  -21.6627  -26.7425   22.1226 H   0  0  0  0  0  0
  -19.6889  -25.6302   21.1252 H   0  0  0  0  0  0
  -19.6684  -27.3194   20.6763 H   0  0  0  0  0  0
  -17.4188  -26.6696   21.4031 H   0  0  0  0  0  0
  -18.0303  -26.0073   22.9021 H   0  0  0  0  0  0
  -19.7922  -30.7272   24.2278 H   0  0  0  0  0  0
  -17.5001  -31.6263   24.5163 H   0  0  0  0  0  0
  -15.5344  -30.2987   23.7645 H   0  0  0  0  0  0
  -15.8667  -28.0831   22.7045 H   0  0  0  0  0  0
  -24.5905  -30.7061   25.7834 H   0  0  0  0  0  0
  -24.8890  -32.2875   26.4935 H   0  0  0  0  0  0
  -25.8063  -30.8916   27.0255 H   0  0  0  0  0  0
  -26.2855  -29.6824   24.1181 H   0  0  0  0  0  0
  -27.3999  -29.7284   25.4661 H   0  0  0  0  0  0
  -27.8729  -30.4359   23.9376 H   0  0  0  0  0  0
  -27.2659  -33.3651   26.2080 H   0  0  0  0  0  0
  -28.3829  -32.6907   25.0322 H   0  0  0  0  0  0
  -28.0715  -31.8485   26.5414 H   0  0  0  0  0  0
  -28.2594  -38.0097   24.7503 H   0  0  0  0  0  0
  -28.1062  -36.2629   24.6290 H   0  0  0  0  0  0
  -27.2293  -37.1457   25.8866 H   0  0  0  0  0  0
  -20.9337  -29.8744   21.6922 H   0  0  0  0  0  0
  -26.0169  -38.2863   24.1420 H   0  0  0  0  0  0
  -28.9211  -16.7003   18.6310 H   0  0  0  0  0  0
  -31.5411  -20.6058   15.9347 H   0  0  0  0  0  0
  -30.5010  -20.9209   14.5650 H   0  0  0  0  0  0
  -30.5548  -19.3220   15.2917 H   0  0  0  0  0  0
  -27.1031  -19.5004   15.1828 H   0  0  0  0  0  0
  -27.0777  -17.8617   14.6621 H   0  0  0  0  0  0
  -28.6127  -18.6858   14.7157 H   0  0  0  0  0  0
  -26.4721  -17.5364   18.3327 H   0  0  0  0  0  0
  -25.6759  -17.6005   16.7699 H   0  0  0  0  0  0
  -26.1227  -19.0891   17.6070 H   0  0  0  0  0  0
  -31.1819  -23.1091   17.0245 H   0  0  0  0  0  0
  -31.4827  -24.3964   18.1652 H   0  0  0  0  0  0
  -30.1499  -24.5114   17.0262 H   0  0  0  0  0  0
  -29.5281  -21.8556   16.6336 H   0  0  0  0  0  0
  -28.4534  -20.8198   15.9455 H   0  0  0  0  0  0
  -31.4950  -21.9332   19.2027 H   0  0  0  0  0  0
  -30.2674  -21.9276   20.4047 H   0  0  0  0  0  0
  -30.2942  -17.5530   21.8144 H   0  0  0  0  0  0
  -31.6304  -17.1664   20.7647 H   0  0  0  0  0  0
  -28.5895  -23.8745   20.4434 H   0  0  0  0  0  0
  -30.1896  -24.5601   20.3572 H   0  0  0  0  0  0
  -27.9191  -25.3932   18.4607 H   0  0  0  0  0  0
  -29.4995  -26.0717   18.5103 H   0  0  0  0  0  0
  -28.0930  -16.9979   16.5621 H   0  0  0  0  0  0
  -28.7959  -22.8766   18.2638 H   0  0  0  0  0  0
  -29.0525  -15.6580   20.9234 H   0  0  0  0  0  0
  1 25  1  0  0  0
  1 30  2  0  0  0
  1 88  1  0  0  0
  2  3  1  0  0  0
  2 25  1  0  0  0
  2 89  1  0  0  0
  2 90  1  0  0  0
  3  4  1  0  0  0
  3 91  1  0  0  0
  3 92  1  0  0  0
  4  5  1  0  0  0
  4 93  1  0  0  0
  4 94  1  0  0  0
  5  6  1  0  0  0
  5 26  1  0  0  0
  5 95  1  0  0  0
  6 25  1  0  0  0
  6 96  1  0  0  0
  6 97  1  0  0  0
  7  8  2  0  0  0
  7 26  1  0  0  0
  7 29  1  0  0  0
  8  9  1  0  0  0
  8 22  1  0  0  0
  9 10  1  0  0  0
  9 27  2  0  0  0
 10 11  2  0  0  0
 10 15  1  0  0  0
 11 12  1  0  0  0
 11 98  1  0  0  0
 12 13  2  0  0  0
 12 99  1  0  0  0
 13 14  1  0  0  0
 13 31  1  0  0  0
 14 15  2  0  0  0
 14100  1  0  0  0
 15101  1  0  0  0
 16 17  2  0  0  0
 16 21  1  0  0  0
 16 31  1  0  0  0
 17 18  1  0  0  0
 17102  1  0  0  0
 18 19  2  0  0  0
 18103  1  0  0  0
 19 20  1  0  0  0
 19 24  1  0  0  0
 20 21  2  0  0  0
 20104  1  0  0  0
 21 23  1  0  0  0
 22 28  1  0  0  0
 22 32  2  0  0  0
 26 27  1  0  0  0
 28105  1  0  0  0
 28106  1  0  0  0
 29107  1  0  0  0
 29108  1  0  0  0
 33 34  1  0  0  0
 33 66  1  0  0  0
 33 70  2  0  0  0
 34 36  1  0  0  0
 34 59  1  0  0  0
 34109  1  0  0  0
 35 44  2  0  0  0
 35 45  1  0  0  0
 35 68  1  0  0  0
 36 56  1  0  0  0
 36110  1  0  0  0
 37 39  1  0  0  0
 37 47  1  0  0  0
 37 66  1  0  0  0
 37111  1  0  0  0
 38 43  2  0  0  0
 38 46  1  0  0  0
 38 47  1  0  0  0
 39 64  1  0  0  0
 39 67  2  0  0  0
 40 52  1  0  0  0
 40 53  2  0  0  0
 40 58  1  0  0  0
 41112  1  0  0  0
 41113  1  0  0  0
 41114  1  0  0  0
 41 48  1  0  0  0
 42 43  1  0  0  0
 42 66  1  0  0  0
 42115  1  0  0  0
 42116  1  0  0  0
 43 44  1  0  0  0
 44117  1  0  0  0
 45 46  2  0  0  0
 45118  1  0  0  0
 46119  1  0  0  0
 47120  1  0  0  0
 47121  1  0  0  0
 48 56  1  0  0  0
 48 65  1  0  0  0
 48122  1  0  0  0
 49 50  1  0  0  0
 49 53  1  0  0  0
 49 64  1  0  0  0
 49123  1  0  0  0
 50 51  1  0  0  0
 50124  1  0  0  0
 50125  1  0  0  0
 51 52  1  0  0  0
 51126  1  0  0  0
 51127  1  0  0  0
 52128  1  0  0  0
 52129  1  0  0  0
 53 54  1  0  0  0
 54 55  2  0  0  0
 54130  1  0  0  0
 55 57  1  0  0  0
 55131  1  0  0  0
 56 69  2  0  0  0
 57 58  2  0  0  0
 57132  1  0  0  0
 58133  1  0  0  0
 59 60  1  0  0  0
 59 61  1  0  0  0
 59 62  1  0  0  0
 60134  1  0  0  0
 60135  1  0  0  0
 60136  1  0  0  0
 61137  1  0  0  0
 61138  1  0  0  0
 61139  1  0  0  0
 62140  1  0  0  0
 62141  1  0  0  0
 62142  1  0  0  0
 63 65  1  0  0  0
 63143  1  0  0  0
 63144  1  0  0  0
 63145  1  0  0  0
 64146  1  0  0  0
 65147  1  0  0  0
 68 84  1  0  0  0
 71 72  2  0  0  0
 71 74  1  0  0  0
 71148  1  0  0  0
 72 73  1  0  0  0
 72 85  1  0  0  0
 73 75  2  0  0  0
 73 80  1  0  0  0
 74 82  1  0  0  0
 74 87  2  0  0  0
 75 81  1  0  0  0
 75 87  1  0  0  0
 76 80  1  0  0  0
 76149  1  0  0  0
 76150  1  0  0  0
 76151  1  0  0  0
 77152  1  0  0  0
 77153  1  0  0  0
 77154  1  0  0  0
 77 85  1  0  0  0
 78 85  1  0  0  0
 78155  1  0  0  0
 78156  1  0  0  0
 78157  1  0  0  0
 79158  1  0  0  0
 79159  1  0  0  0
 79160  1  0  0  0
 79 86  1  0  0  0
 80161  1  0  0  0
 80162  1  0  0  0
 81 86  1  0  0  0
 81163  1  0  0  0
 81164  1  0  0  0
 82 88  1  0  0  0
 82165  1  0  0  0
 82166  1  0  0  0
 83 84  1  0  0  0
 83 86  1  0  0  0
 83167  1  0  0  0
 83168  1  0  0  0
 84169  1  0  0  0
 84170  1  0  0  0
 85171  1  0  0  0
 86172  1  0  0  0
 88173  1  0  0  0
M  ISO  4   1 100  68 101  84 101  88 100
M  END
> <chiral flag>
0

> <version>
0

> <s_m_source_file>
/data/baiqing/PycharmProjects/Reinvent-master-3.2/result/LINK_invent/BTK/process_docking_weight1_custom_sum_contain_oxygen_bond_distance_aromatic_linkinvent_7_9_3/rearranged_h_0087.sdf

> <i_m_source_file_index>
89

> <r_mmod_Potential_Energy-OPLS-2005>
-10.567346572876

> <r_mmod_Stretch_Energy-OPLS-2005>
67.518928527832

> <r_mmod_Bend_Energy-OPLS-2005>
221.457275390625

> <r_mmod_Torsional_Energy-OPLS-2005>
262.607482910156

> <r_mmod_Improper_Torsional_Energy-OPLS-2005>
4.8481240272522

> <r_mmod_Van_der_Waal_Energy-OPLS-2005>
182.360473632812

> <r_mmod_Electrostatic_Energy-OPLS-2005>
-630.570007324219

> <r_mmod_Solvation_Energy-OPLS-2005>
-215.603454589844

> <b_mmod_Minimization_Converged-OPLS-2005>
0

> <r_mmod_RMS_Derivative-OPLS-2005>
7.09568357467651

$$$$
90
                    3D
 Structure written by MMmdl.
162170  0  0  1  0            999 V2000
  -30.6933  -14.5549   20.5126 C   0  0  0  0  0  0
  -30.4245  -12.3446   19.4439 C   0  0  0  0  0  0
  -29.5035  -12.4903   18.2143 C   0  0  0  0  0  0
  -28.0246  -12.3491   18.6302 C   0  0  0  0  0  0
  -27.6558  -13.2176   19.8647 C   0  0  2  0  0  0
  -28.7023  -13.0735   20.9931 C   0  0  0  0  0  0
  -25.2571  -13.8169   20.5703 C   0  0  0  0  0  0
  -24.1843  -13.0445   20.9182 C   0  0  0  0  0  0
  -24.6408  -11.6908   20.8751 C   0  0  0  0  0  0
  -23.9081  -10.4284   21.0415 C   0  0  0  0  0  0
  -24.3617   -9.4185   21.9194 C   0  0  0  0  0  0
  -23.6271   -8.2234   22.0770 C   0  0  0  0  0  0
  -22.4255   -8.0286   21.3553 C   0  0  0  0  0  0
  -21.9903   -9.0268   20.4661 C   0  0  0  0  0  0
  -22.7253  -10.2134   20.3066 C   0  0  0  0  0  0
  -21.6851   -6.0728   22.5284 C   0  0  0  0  0  0
  -21.4018   -6.5635   23.8222 C   0  0  0  0  0  0
  -21.3654   -5.6789   24.9181 C   0  0  0  0  0  0
  -21.6029   -4.3051   24.7228 C   0  0  0  0  0  0
  -21.8819   -3.8136   23.4353 C   0  0  0  0  0  0
  -21.9181   -4.6953   22.3403 C   0  0  0  0  0  0
  -22.7866  -13.5233   21.1834 C   0  0  0  0  0  0
  -22.1653   -4.2134   21.0986 F   0  0  0  0  0  0
  -21.5609   -3.4540   25.7742 F   0  0  0  0  0  0
  -30.0235  -13.3707   20.4206 N   0  0  0  0  0  0
  -26.3012  -12.9364   20.3344 N   0  0  0  0  0  0
  -25.9335  -11.6515   20.5769 N   0  0  0  0  0  0
  -22.0492  -12.8260   22.0400 N   0  0  0  0  0  0
  -25.4260  -15.1901   20.4120 N   0  0  0  0  0  0
  -31.8599  -14.6787   20.1320 O   0  0  0  0  0  0
  -21.6629   -6.8884   21.4255 O   0  0  0  0  0  0
  -22.3572  -14.5545   20.6675 O   0  0  0  0  0  0
  -24.6165  -31.8669   23.2091 C   0  0  0  0  0  0
  -25.9044  -32.4812   23.8398 C   0  0  1  0  0  0
  -27.2319  -27.3972   20.1208 C   0  0  0  0  0  0
  -25.5892  -33.8616   24.2341 N   0  0  0  0  0  0
  -23.4103  -30.4877   21.5488 C   0  0  2  0  0  0
  -24.8616  -28.9532   20.1155 C   0  0  0  0  0  0
  -22.7449  -29.4633   22.4982 C   0  0  0  0  0  0
  -18.0282  -28.1338   22.8519 C   0  0  0  0  0  0
  -24.1486  -36.7308   23.2639 C   0  0  0  0  0  0
  -25.9426  -30.8209   21.3724 C   0  0  0  0  0  0
  -26.0213  -29.4518   20.7237 C   0  0  0  0  0  0
  -27.2116  -28.6802   20.7270 C   0  0  0  0  0  0
  -26.0632  -26.9414   19.4772 C   0  0  0  0  0  0
  -24.8785  -27.6975   19.4877 C   0  0  0  0  0  0
  -23.6241  -29.8189   20.1649 C   0  0  0  0  0  0
  -25.4105  -36.3116   24.0350 C   0  0  1  0  0  0
  -20.5883  -28.3641   23.1312 C   0  0  2  0  0  0
  -20.6761  -26.9367   22.5419 C   0  0  0  0  0  0
  -19.5727  -26.6356   21.5227 C   0  0  0  0  0  0
  -18.1913  -26.7888   22.1645 C   0  0  0  0  0  0
  -19.1533  -28.8812   23.2912 C   0  0  0  0  0  0
  -18.9449  -30.1417   23.8912 C   0  0  0  0  0  0
  -17.6444  -30.6549   24.0550 C   0  0  0  0  0  0
  -25.9029  -34.9476   23.5142 C   0  0  0  0  0  0
  -16.5343  -29.9045   23.6301 C   0  0  0  0  0  0
  -16.7270  -28.6454   23.0358 C   0  0  0  0  0  0
  -26.4469  -31.6579   25.0720 C   0  0  0  0  0  0
  -25.3727  -31.3679   26.1455 C   0  0  0  0  0  0
  -27.0310  -30.3022   24.6094 C   0  0  0  0  0  0
  -27.6053  -32.4298   25.7468 C   0  0  0  0  0  0
  -27.5587  -37.1805   24.8471 C   0  0  0  0  0  0
  -21.4170  -29.3012   22.3718 N   0  0  0  0  0  0
  -26.4305  -37.3789   23.9411 N   0  0  0  0  0  0
  -24.6744  -31.0753   22.1004 N   0  0  0  0  0  0
  -23.4212  -28.8165   23.3021 O   0  0  0  0  0  0
  -28.3563  -26.5835   20.1321 O   0  0  0  0  0  0
  -26.5586  -34.8919   22.4698 O   0  0  0  0  0  0
  -23.5347  -32.1441   23.7451 O   0  0  0  0  0  0
  -29.4607  -20.7256   21.1122 C   0  0  0  0  0  0
  -30.2879  -21.3173   19.2009 C   0  0  0  0  0  0
  -29.6541  -19.5838   20.3423 C   0  0  0  0  0  0
  -27.8227  -23.8703   19.3439 C   0  0  0  0  0  0
  -29.8455  -26.0159   21.8382 C   0  0  0  0  0  0
  -27.4314  -25.6931   22.3044 C   0  0  0  0  0  0
  -29.2630  -18.1202   20.6057 C   0  0  0  0  0  0
  -29.9059  -23.2753   20.7501 C   0  0  0  0  0  0
  -30.4156  -17.0670   20.7571 C   0  0  0  0  0  0
  -28.5460  -24.0627   20.6872 C   0  0  1  0  0  0
  -28.5144  -25.5830   21.1955 C   0  0  0  0  0  0
  -30.1861  -19.9894   19.1158 N   0  0  0  0  0  0
  -29.8697  -21.8417   20.3632 N   0  0  0  0  0  0
  -29.9609  -15.6459   20.8463 N   0  0  0  0  0  0
  -31.4715  -12.4345   19.1466 H   0  0  0  0  0  0
  -30.3208  -11.3524   19.8842 H   0  0  0  0  0  0
  -29.7525  -11.7354   17.4657 H   0  0  0  0  0  0
  -29.6625  -13.4572   17.7340 H   0  0  0  0  0  0
  -27.8490  -11.2971   18.8573 H   0  0  0  0  0  0
  -27.3709  -12.5956   17.7915 H   0  0  0  0  0  0
  -27.6779  -14.2542   19.5296 H   0  0  0  0  0  0
  -28.6969  -12.0604   21.3975 H   0  0  0  0  0  0
  -28.4655  -13.7311   21.8314 H   0  0  0  0  0  0
  -25.2760   -9.5635   22.4782 H   0  0  0  0  0  0
  -23.9952   -7.4627   22.7508 H   0  0  0  0  0  0
  -21.0810   -8.8802   19.8991 H   0  0  0  0  0  0
  -22.3710  -10.9677   19.6174 H   0  0  0  0  0  0
  -21.2053   -7.6152   23.9718 H   0  0  0  0  0  0
  -21.1468   -6.0526   25.9080 H   0  0  0  0  0  0
  -22.0603   -2.7598   23.2867 H   0  0  0  0  0  0
  -22.4054  -11.9902   22.4793 H   0  0  0  0  0  0
  -21.1127  -13.1359   22.2611 H   0  0  0  0  0  0
  -24.6592  -15.8444   20.5240 H   0  0  0  0  0  0
  -26.2712  -15.6288   20.0697 H   0  0  0  0  0  0
  -26.7111  -32.5524   23.1162 H   0  0  0  0  0  0
  -25.0058  -33.9781   25.0499 H   0  0  0  0  0  0
  -22.6991  -31.3029   21.4048 H   0  0  0  0  0  0
  -23.3752  -35.9634   23.3311 H   0  0  0  0  0  0
  -24.3584  -36.8907   22.2050 H   0  0  0  0  0  0
  -23.7232  -37.6517   23.6637 H   0  0  0  0  0  0
  -26.0621  -31.5809   20.5984 H   0  0  0  0  0  0
  -26.8303  -30.8762   21.9917 H   0  0  0  0  0  0
  -28.1045  -29.0522   21.2116 H   0  0  0  0  0  0
  -26.0544  -25.9962   18.9632 H   0  0  0  0  0  0
  -23.9931  -27.3101   19.0034 H   0  0  0  0  0  0
  -23.7296  -30.5886   19.4002 H   0  0  0  0  0  0
  -22.7527  -29.2298   19.8753 H   0  0  0  0  0  0
  -25.1280  -36.1995   25.0846 H   0  0  0  0  0  0
  -20.9989  -28.3184   24.1429 H   0  0  0  0  0  0
  -20.5639  -26.2246   23.3613 H   0  0  0  0  0  0
  -21.6627  -26.7361   22.1215 H   0  0  0  0  0  0
  -19.6861  -25.6279   21.1219 H   0  0  0  0  0  0
  -19.6639  -27.3197   20.6782 H   0  0  0  0  0  0
  -17.4183  -26.6674   21.4038 H   0  0  0  0  0  0
  -18.0274  -26.0015   22.9019 H   0  0  0  0  0  0
  -19.7924  -30.7235   24.2294 H   0  0  0  0  0  0
  -17.4985  -31.6233   24.5140 H   0  0  0  0  0  0
  -15.5337  -30.2933   23.7595 H   0  0  0  0  0  0
  -15.8687  -28.0748   22.7072 H   0  0  0  0  0  0
  -24.5909  -30.7024   25.7773 H   0  0  0  0  0  0
  -24.8893  -32.2822   26.4903 H   0  0  0  0  0  0
  -25.8059  -30.8834   27.0212 H   0  0  0  0  0  0
  -26.2867  -29.6769   24.1137 H   0  0  0  0  0  0
  -27.4088  -29.7260   25.4551 H   0  0  0  0  0  0
  -27.8691  -30.4359   23.9252 H   0  0  0  0  0  0
  -27.2701  -33.3610   26.2043 H   0  0  0  0  0  0
  -28.3837  -32.6834   25.0264 H   0  0  0  0  0  0
  -28.0731  -31.8412   26.5368 H   0  0  0  0  0  0
  -28.2618  -38.0091   24.7508 H   0  0  0  0  0  0
  -28.1073  -36.2622   24.6311 H   0  0  0  0  0  0
  -27.2298  -37.1473   25.8874 H   0  0  0  0  0  0
  -20.9332  -29.8786   21.6986 H   0  0  0  0  0  0
  -26.0201  -38.2875   24.1385 H   0  0  0  0  0  0
  -29.0550  -20.8366   22.1088 H   0  0  0  0  0  0
  -30.6814  -21.9281   18.3984 H   0  0  0  0  0  0
  -28.2433  -24.5095   18.5663 H   0  0  0  0  0  0
  -26.7650  -24.0944   19.4537 H   0  0  0  0  0  0
  -27.8624  -22.8402   18.9921 H   0  0  0  0  0  0
  -30.1022  -25.4004   22.7006 H   0  0  0  0  0  0
  -29.7956  -27.0505   22.1841 H   0  0  0  0  0  0
  -30.6710  -25.9630   21.1293 H   0  0  0  0  0  0
  -27.6400  -25.0054   23.1264 H   0  0  0  0  0  0
  -26.4405  -25.4414   21.9247 H   0  0  0  0  0  0
  -27.3790  -26.6912   22.7431 H   0  0  0  0  0  0
  -28.6109  -17.7894   19.7952 H   0  0  0  0  0  0
  -28.6405  -18.0803   21.5003 H   0  0  0  0  0  0
  -30.3118  -23.3174   21.7616 H   0  0  0  0  0  0
  -30.6401  -23.7724   20.1149 H   0  0  0  0  0  0
  -31.0936  -17.1724   19.9077 H   0  0  0  0  0  0
  -31.0077  -17.2997   21.6426 H   0  0  0  0  0  0
  -27.9387  -23.4949   21.3936 H   0  0  0  0  0  0
  -29.0000  -15.4763   21.1056 H   0  0  0  0  0  0
  1 25  1  0  0  0
  1 30  2  0  0  0
  1 84  1  0  0  0
  2  3  1  0  0  0
  2 25  1  0  0  0
  2 85  1  0  0  0
  2 86  1  0  0  0
  3  4  1  0  0  0
  3 87  1  0  0  0
  3 88  1  0  0  0
  4  5  1  0  0  0
  4 89  1  0  0  0
  4 90  1  0  0  0
  5  6  1  0  0  0
  5 26  1  0  0  0
  5 91  1  0  0  0
  6 25  1  0  0  0
  6 92  1  0  0  0
  6 93  1  0  0  0
  7  8  2  0  0  0
  7 26  1  0  0  0
  7 29  1  0  0  0
  8  9  1  0  0  0
  8 22  1  0  0  0
  9 10  1  0  0  0
  9 27  2  0  0  0
 10 11  2  0  0  0
 10 15  1  0  0  0
 11 12  1  0  0  0
 11 94  1  0  0  0
 12 13  2  0  0  0
 12 95  1  0  0  0
 13 14  1  0  0  0
 13 31  1  0  0  0
 14 15  2  0  0  0
 14 96  1  0  0  0
 15 97  1  0  0  0
 16 17  2  0  0  0
 16 21  1  0  0  0
 16 31  1  0  0  0
 17 18  1  0  0  0
 17 98  1  0  0  0
 18 19  2  0  0  0
 18 99  1  0  0  0
 19 20  1  0  0  0
 19 24  1  0  0  0
 20 21  2  0  0  0
 20100  1  0  0  0
 21 23  1  0  0  0
 22 28  1  0  0  0
 22 32  2  0  0  0
 26 27  1  0  0  0
 28101  1  0  0  0
 28102  1  0  0  0
 29103  1  0  0  0
 29104  1  0  0  0
 33 34  1  0  0  0
 33 66  1  0  0  0
 33 70  2  0  0  0
 34 36  1  0  0  0
 34 59  1  0  0  0
 34105  1  0  0  0
 35 44  2  0  0  0
 35 45  1  0  0  0
 35 68  1  0  0  0
 36 56  1  0  0  0
 36106  1  0  0  0
 37 39  1  0  0  0
 37 47  1  0  0  0
 37 66  1  0  0  0
 37107  1  0  0  0
 38 43  2  0  0  0
 38 46  1  0  0  0
 38 47  1  0  0  0
 39 64  1  0  0  0
 39 67  2  0  0  0
 40 52  1  0  0  0
 40 53  2  0  0  0
 40 58  1  0  0  0
 41108  1  0  0  0
 41109  1  0  0  0
 41110  1  0  0  0
 41 48  1  0  0  0
 42 43  1  0  0  0
 42 66  1  0  0  0
 42111  1  0  0  0
 42112  1  0  0  0
 43 44  1  0  0  0
 44113  1  0  0  0
 45 46  2  0  0  0
 45114  1  0  0  0
 46115  1  0  0  0
 47116  1  0  0  0
 47117  1  0  0  0
 48 56  1  0  0  0
 48 65  1  0  0  0
 48118  1  0  0  0
 49 50  1  0  0  0
 49 53  1  0  0  0
 49 64  1  0  0  0
 49119  1  0  0  0
 50 51  1  0  0  0
 50120  1  0  0  0
 50121  1  0  0  0
 51 52  1  0  0  0
 51122  1  0  0  0
 51123  1  0  0  0
 52124  1  0  0  0
 52125  1  0  0  0
 53 54  1  0  0  0
 54 55  2  0  0  0
 54126  1  0  0  0
 55 57  1  0  0  0
 55127  1  0  0  0
 56 69  2  0  0  0
 57 58  2  0  0  0
 57128  1  0  0  0
 58129  1  0  0  0
 59 60  1  0  0  0
 59 61  1  0  0  0
 59 62  1  0  0  0
 60130  1  0  0  0
 60131  1  0  0  0
 60132  1  0  0  0
 61133  1  0  0  0
 61134  1  0  0  0
 61135  1  0  0  0
 62136  1  0  0  0
 62137  1  0  0  0
 62138  1  0  0  0
 63 65  1  0  0  0
 63139  1  0  0  0
 63140  1  0  0  0
 63141  1  0  0  0
 64142  1  0  0  0
 65143  1  0  0  0
 68 81  1  0  0  0
 71 73  2  0  0  0
 71 83  1  0  0  0
 71144  1  0  0  0
 72 82  2  0  0  0
 72 83  1  0  0  0
 72145  1  0  0  0
 73 77  1  0  0  0
 73 82  1  0  0  0
 74146  1  0  0  0
 74147  1  0  0  0
 74148  1  0  0  0
 74 80  1  0  0  0
 75149  1  0  0  0
 75150  1  0  0  0
 75151  1  0  0  0
 75 81  1  0  0  0
 76 81  1  0  0  0
 76152  1  0  0  0
 76153  1  0  0  0
 76154  1  0  0  0
 77 79  1  0  0  0
 77155  1  0  0  0
 77156  1  0  0  0
 78 80  1  0  0  0
 78 83  1  0  0  0
 78157  1  0  0  0
 78158  1  0  0  0
 79 84  1  0  0  0
 79159  1  0  0  0
 79160  1  0  0  0
 80 81  1  0  0  0
 80161  1  0  0  0
 84162  1  0  0  0
M  ISO  4   1 100  68 101  81 101  84 100
M  END
> <chiral flag>
0

> <version>
0

> <s_m_source_file>
/data/baiqing/PycharmProjects/Reinvent-master-3.2/result/LINK_invent/BTK/process_docking_weight1_custom_sum_contain_oxygen_bond_distance_aromatic_linkinvent_7_9_3/rearranged_h_0087.sdf

> <i_m_source_file_index>
90

> <r_mmod_Potential_Energy-OPLS-2005>
-21.3765926361084

> <r_mmod_Stretch_Energy-OPLS-2005>
57.7124061584473

> <r_mmod_Bend_Energy-OPLS-2005>
130.03010559082

> <r_mmod_Torsional_Energy-OPLS-2005>
253.390701293945

> <r_mmod_Improper_Torsional_Energy-OPLS-2005>
4.90521049499512

> <r_mmod_Van_der_Waal_Energy-OPLS-2005>
127.18669128418

> <r_mmod_Electrostatic_Energy-OPLS-2005>
-396.199035644531

> <r_mmod_Solvation_Energy-OPLS-2005>
-224.861465454102

> <b_mmod_Minimization_Converged-OPLS-2005>
0

> <r_mmod_RMS_Derivative-OPLS-2005>
3.0723352432251

$$$$
91
                    3D
 Structure written by MMmdl.
174182  0  0  1  0            999 V2000
  -30.7268  -14.6701   20.3849 C   0  0  0  0  0  0
  -30.4064  -12.4000   19.4601 C   0  0  0  0  0  0
  -29.4879  -12.4520   18.2236 C   0  0  0  0  0  0
  -28.0248  -12.2425   18.6536 C   0  0  0  0  0  0
  -27.6179  -13.1762   19.8174 C   0  0  2  0  0  0
  -28.6783  -13.2291   20.9451 C   0  0  0  0  0  0
  -25.2470  -13.8036   20.5562 C   0  0  0  0  0  0
  -24.1756  -13.0367   20.9217 C   0  0  0  0  0  0
  -24.6311  -11.6849   20.8821 C   0  0  0  0  0  0
  -23.8989  -10.4261   21.0466 C   0  0  0  0  0  0
  -24.3559   -9.4177   21.9228 C   0  0  0  0  0  0
  -23.6244   -8.2213   22.0772 C   0  0  0  0  0  0
  -22.4239   -8.0256   21.3549 C   0  0  0  0  0  0
  -21.9868   -9.0234   20.4659 C   0  0  0  0  0  0
  -22.7182  -10.2121   20.3089 C   0  0  0  0  0  0
  -21.6843   -6.0715   22.5275 C   0  0  0  0  0  0
  -21.3988   -6.5623   23.8203 C   0  0  0  0  0  0
  -21.3649   -5.6781   24.9166 C   0  0  0  0  0  0
  -21.6044   -4.3042   24.7232 C   0  0  0  0  0  0
  -21.8828   -3.8131   23.4353 C   0  0  0  0  0  0
  -21.9189   -4.6942   22.3397 C   0  0  0  0  0  0
  -22.7801  -13.5217   21.1854 C   0  0  0  0  0  0
  -22.1667   -4.2123   21.0976 F   0  0  0  0  0  0
  -21.5634   -3.4531   25.7752 F   0  0  0  0  0  0
  -29.9951  -13.5051   20.3527 N   0  0  0  0  0  0
  -26.2831  -12.9113   20.3228 N   0  0  0  0  0  0
  -25.9205  -11.6346   20.5838 N   0  0  0  0  0  0
  -22.0430  -12.8244   22.0437 N   0  0  0  0  0  0
  -25.4079  -15.1717   20.3707 N   0  0  0  0  0  0
  -31.9498  -14.5830   20.2847 O   0  0  0  0  0  0
  -21.6616   -6.8848   21.4231 O   0  0  0  0  0  0
  -22.3500  -14.5508   20.6674 O   0  0  0  0  0  0
  -24.6181  -31.8645   23.2061 C   0  0  0  0  0  0
  -25.9060  -32.4799   23.8368 C   0  0  1  0  0  0
  -27.2382  -27.3866   20.1277 C   0  0  0  0  0  0
  -25.5883  -33.8595   24.2290 N   0  0  0  0  0  0
  -23.4100  -30.4826   21.5489 C   0  0  2  0  0  0
  -24.8601  -28.9393   20.1180 C   0  0  0  0  0  0
  -22.7426  -29.4608   22.4988 C   0  0  0  0  0  0
  -18.0273  -28.1338   22.8479 C   0  0  0  0  0  0
  -24.1503  -36.7316   23.2639 C   0  0  0  0  0  0
  -25.9399  -30.8174   21.3658 C   0  0  0  0  0  0
  -26.0210  -29.4475   20.7147 C   0  0  0  0  0  0
  -27.2164  -28.6825   20.7073 C   0  0  0  0  0  0
  -26.0611  -26.9009   19.5209 C   0  0  0  0  0  0
  -24.8773  -27.6688   19.5128 C   0  0  0  0  0  0
  -23.6229  -29.8109   20.1653 C   0  0  0  0  0  0
  -25.4119  -36.3100   24.0319 C   0  0  1  0  0  0
  -20.5855  -28.3640   23.1291 C   0  0  2  0  0  0
  -20.6768  -26.9363   22.5406 C   0  0  0  0  0  0
  -19.5756  -26.6341   21.5187 C   0  0  0  0  0  0
  -18.1932  -26.7886   22.1591 C   0  0  0  0  0  0
  -19.1523  -28.8806   23.2888 C   0  0  0  0  0  0
  -18.9449  -30.1403   23.8902 C   0  0  0  0  0  0
  -17.6460  -30.6560   24.0513 C   0  0  0  0  0  0
  -25.9034  -34.9454   23.5116 C   0  0  0  0  0  0
  -16.5356  -29.9038   23.6309 C   0  0  0  0  0  0
  -16.7269  -28.6456   23.0341 C   0  0  0  0  0  0
  -26.4469  -31.6589   25.0710 C   0  0  0  0  0  0
  -25.3709  -31.3683   26.1453 C   0  0  0  0  0  0
  -27.0326  -30.3035   24.6100 C   0  0  0  0  0  0
  -27.6052  -32.4305   25.7473 C   0  0  0  0  0  0
  -27.5590  -37.1813   24.8449 C   0  0  0  0  0  0
  -21.4159  -29.3015   22.3712 N   0  0  0  0  0  0
  -26.4309  -37.3776   23.9378 N   0  0  0  0  0  0
  -24.6745  -31.0684   22.0999 N   0  0  0  0  0  0
  -23.4176  -28.8164   23.3064 O   0  0  0  0  0  0
  -28.3929  -26.6190   20.1257 O   0  0  0  0  0  0
  -26.5620  -34.8924   22.4697 O   0  0  0  0  0  0
  -23.5363  -32.1384   23.7438 O   0  0  0  0  0  0
  -29.3785  -19.5911   21.1931 C   0  0  0  0  0  0
  -28.3122  -20.4641   21.5776 C   0  0  0  0  0  0
  -27.3239  -19.9177   22.4471 C   0  0  0  0  0  0
  -29.4228  -18.2516   21.6957 C   0  0  0  0  0  0
  -27.4854  -18.5988   22.9414 C   0  0  0  0  0  0
  -26.0805  -20.7181   22.8453 C   0  0  0  0  0  0
  -27.2444  -17.5014   25.2216 C   0  0  0  0  0  0
  -25.7327  -16.7982   23.2899 C   0  0  0  0  0  0
  -30.9620  -16.7208   18.9320 C   0  0  0  0  0  0
  -28.7095  -16.2708   19.7085 C   0  0  0  0  0  0
  -28.1259  -21.9350   21.0821 C   0  0  0  0  0  0
  -30.4886  -17.1786   21.3370 C   0  0  0  0  0  0
  -29.3001  -22.7690   20.5023 C   0  0  0  0  0  0
  -28.9067  -24.1500   19.8456 C   0  0  0  0  0  0
  -28.3304  -25.2997   20.7407 C   0  0  0  0  0  0
  -26.5218  -17.9443   23.9398 C   0  0  0  0  0  0
  -30.1763  -16.1635   20.1570 C   0  0  0  0  0  0
  -28.5010  -17.8023   22.5625 N   0  0  0  0  0  0
  -31.4481  -12.4697   19.1436 H   0  0  0  0  0  0
  -30.3165  -11.4406   19.9712 H   0  0  0  0  0  0
  -29.7784  -11.6877   17.5016 H   0  0  0  0  0  0
  -29.5955  -13.4114   17.7157 H   0  0  0  0  0  0
  -27.9191  -11.2022   18.9633 H   0  0  0  0  0  0
  -27.3524  -12.3780   17.8056 H   0  0  0  0  0  0
  -27.5265  -14.1278   19.3295 H   0  0  0  0  0  0
  -28.7069  -12.2826   21.4860 H   0  0  0  0  0  0
  -28.4228  -13.9932   21.6803 H   0  0  0  0  0  0
  -25.2708   -9.5660   22.4806 H   0  0  0  0  0  0
  -23.9962   -7.4598   22.7489 H   0  0  0  0  0  0
  -21.0804   -8.8750   19.8952 H   0  0  0  0  0  0
  -22.3649  -10.9666   19.6208 H   0  0  0  0  0  0
  -21.1965   -7.6137   23.9687 H   0  0  0  0  0  0
  -21.1459   -6.0523   25.9071 H   0  0  0  0  0  0
  -22.0615   -2.7595   23.2862 H   0  0  0  0  0  0
  -22.4051  -11.9928   22.4867 H   0  0  0  0  0  0
  -21.1054  -13.1289   22.2619 H   0  0  0  0  0  0
  -24.6370  -15.8199   20.4827 H   0  0  0  0  0  0
  -26.2635  -15.6198   20.0703 H   0  0  0  0  0  0
  -26.7138  -32.5510   23.1136 H   0  0  0  0  0  0
  -24.9993  -33.9731   25.0419 H   0  0  0  0  0  0
  -22.7009  -31.2999   21.4071 H   0  0  0  0  0  0
  -23.3747  -35.9666   23.3301 H   0  0  0  0  0  0
  -24.3590  -36.8943   22.2049 H   0  0  0  0  0  0
  -23.7264  -37.6524   23.6676 H   0  0  0  0  0  0
  -26.0515  -31.5851   20.5986 H   0  0  0  0  0  0
  -26.8245  -30.8722   21.9888 H   0  0  0  0  0  0
  -28.1166  -29.0686   21.1666 H   0  0  0  0  0  0
  -26.0565  -25.9244   19.0561 H   0  0  0  0  0  0
  -23.9845  -27.2683   19.0516 H   0  0  0  0  0  0
  -23.7345  -30.5830   19.4034 H   0  0  0  0  0  0
  -22.7491  -29.2308   19.8707 H   0  0  0  0  0  0
  -25.1303  -36.1980   25.0802 H   0  0  0  0  0  0
  -20.9925  -28.3230   24.1409 H   0  0  0  0  0  0
  -20.5635  -26.2237   23.3604 H   0  0  0  0  0  0
  -21.6648  -26.7393   22.1217 H   0  0  0  0  0  0
  -19.6917  -25.6247   21.1216 H   0  0  0  0  0  0
  -19.6710  -27.3144   20.6718 H   0  0  0  0  0  0
  -17.4196  -26.6598   21.4003 H   0  0  0  0  0  0
  -18.0347  -26.0015   22.8970 H   0  0  0  0  0  0
  -19.7947  -30.7173   24.2273 H   0  0  0  0  0  0
  -17.5041  -31.6233   24.5118 H   0  0  0  0  0  0
  -15.5354  -30.2946   23.7632 H   0  0  0  0  0  0
  -15.8659  -28.0765   22.7070 H   0  0  0  0  0  0
  -24.5902  -30.7012   25.7763 H   0  0  0  0  0  0
  -24.8869  -32.2833   26.4896 H   0  0  0  0  0  0
  -25.8053  -30.8850   27.0213 H   0  0  0  0  0  0
  -26.2883  -29.6767   24.1175 H   0  0  0  0  0  0
  -27.4111  -29.7310   25.4575 H   0  0  0  0  0  0
  -27.8706  -30.4346   23.9245 H   0  0  0  0  0  0
  -27.2691  -33.3605   26.2074 H   0  0  0  0  0  0
  -28.3868  -32.6846   25.0290 H   0  0  0  0  0  0
  -28.0714  -31.8382   26.5366 H   0  0  0  0  0  0
  -28.2600  -38.0124   24.7510 H   0  0  0  0  0  0
  -28.1104  -36.2648   24.6289 H   0  0  0  0  0  0
  -27.2293  -37.1460   25.8850 H   0  0  0  0  0  0
  -20.9320  -29.8758   21.6955 H   0  0  0  0  0  0
  -26.0214  -38.2850   24.1400 H   0  0  0  0  0  0
  -30.1393  -19.9326   20.5054 H   0  0  0  0  0  0
  -25.8570  -21.5677   22.2026 H   0  0  0  0  0  0
  -26.1811  -21.0835   23.8679 H   0  0  0  0  0  0
  -25.1888  -20.0941   22.7874 H   0  0  0  0  0  0
  -27.7465  -18.3483   25.6901 H   0  0  0  0  0  0
  -27.9978  -16.7380   25.0196 H   0  0  0  0  0  0
  -26.5367  -17.0936   25.9431 H   0  0  0  0  0  0
  -25.1632  -17.1633   22.4354 H   0  0  0  0  0  0
  -25.0283  -16.3499   23.9894 H   0  0  0  0  0  0
  -26.3956  -16.0085   22.9324 H   0  0  0  0  0  0
  -30.6168  -17.7168   18.6526 H   0  0  0  0  0  0
  -30.8497  -16.0809   18.0549 H   0  0  0  0  0  0
  -32.0327  -16.8118   19.1244 H   0  0  0  0  0  0
  -28.4225  -17.3028   19.5043 H   0  0  0  0  0  0
  -28.0296  -15.9144   20.4788 H   0  0  0  0  0  0
  -28.5558  -15.7630   18.7584 H   0  0  0  0  0  0
  -27.7752  -22.5240   21.9310 H   0  0  0  0  0  0
  -27.3118  -21.9264   20.3555 H   0  0  0  0  0  0
  -30.6784  -16.5999   22.2420 H   0  0  0  0  0  0
  -31.4314  -17.6981   21.1665 H   0  0  0  0  0  0
  -29.7856  -22.1723   19.7303 H   0  0  0  0  0  0
  -30.0543  -22.9231   21.2752 H   0  0  0  0  0  0
  -28.2155  -23.9715   19.0224 H   0  0  0  0  0  0
  -29.8102  -24.5383   19.3745 H   0  0  0  0  0  0
  -28.9139  -25.3568   21.6608 H   0  0  0  0  0  0
  -27.3162  -25.0460   21.0577 H   0  0  0  0  0  0
  -25.7881  -18.6689   24.2813 H   0  0  0  0  0  0
  1 25  1  0  0  0
  1 30  2  0  0  0
  1 87  1  0  0  0
  2  3  1  0  0  0
  2 25  1  0  0  0
  2 89  1  0  0  0
  2 90  1  0  0  0
  3  4  1  0  0  0
  3 91  1  0  0  0
  3 92  1  0  0  0
  4  5  1  0  0  0
  4 93  1  0  0  0
  4 94  1  0  0  0
  5  6  1  0  0  0
  5 26  1  0  0  0
  5 95  1  0  0  0
  6 25  1  0  0  0
  6 96  1  0  0  0
  6 97  1  0  0  0
  7  8  2  0  0  0
  7 26  1  0  0  0
  7 29  1  0  0  0
  8  9  1  0  0  0
  8 22  1  0  0  0
  9 10  1  0  0  0
  9 27  2  0  0  0
 10 11  2  0  0  0
 10 15  1  0  0  0
 11 12  1  0  0  0
 11 98  1  0  0  0
 12 13  2  0  0  0
 12 99  1  0  0  0
 13 14  1  0  0  0
 13 31  1  0  0  0
 14 15  2  0  0  0
 14100  1  0  0  0
 15101  1  0  0  0
 16 17  2  0  0  0
 16 21  1  0  0  0
 16 31  1  0  0  0
 17 18  1  0  0  0
 17102  1  0  0  0
 18 19  2  0  0  0
 18103  1  0  0  0
 19 20  1  0  0  0
 19 24  1  0  0  0
 20 21  2  0  0  0
 20104  1  0  0  0
 21 23  1  0  0  0
 22 28  1  0  0  0
 22 32  2  0  0  0
 26 27  1  0  0  0
 28105  1  0  0  0
 28106  1  0  0  0
 29107  1  0  0  0
 29108  1  0  0  0
 33 34  1  0  0  0
 33 66  1  0  0  0
 33 70  2  0  0  0
 34 36  1  0  0  0
 34 59  1  0  0  0
 34109  1  0  0  0
 35 44  2  0  0  0
 35 45  1  0  0  0
 35 68  1  0  0  0
 36 56  1  0  0  0
 36110  1  0  0  0
 37 39  1  0  0  0
 37 47  1  0  0  0
 37 66  1  0  0  0
 37111  1  0  0  0
 38 43  2  0  0  0
 38 46  1  0  0  0
 38 47  1  0  0  0
 39 64  1  0  0  0
 39 67  2  0  0  0
 40 52  1  0  0  0
 40 53  2  0  0  0
 40 58  1  0  0  0
 41112  1  0  0  0
 41113  1  0  0  0
 41114  1  0  0  0
 41 48  1  0  0  0
 42 43  1  0  0  0
 42 66  1  0  0  0
 42115  1  0  0  0
 42116  1  0  0  0
 43 44  1  0  0  0
 44117  1  0  0  0
 45 46  2  0  0  0
 45118  1  0  0  0
 46119  1  0  0  0
 47120  1  0  0  0
 47121  1  0  0  0
 48 56  1  0  0  0
 48 65  1  0  0  0
 48122  1  0  0  0
 49 50  1  0  0  0
 49 53  1  0  0  0
 49 64  1  0  0  0
 49123  1  0  0  0
 50 51  1  0  0  0
 50124  1  0  0  0
 50125  1  0  0  0
 51 52  1  0  0  0
 51126  1  0  0  0
 51127  1  0  0  0
 52128  1  0  0  0
 52129  1  0  0  0
 53 54  1  0  0  0
 54 55  2  0  0  0
 54130  1  0  0  0
 55 57  1  0  0  0
 55131  1  0  0  0
 56 69  2  0  0  0
 57 58  2  0  0  0
 57132  1  0  0  0
 58133  1  0  0  0
 59 60  1  0  0  0
 59 61  1  0  0  0
 59 62  1  0  0  0
 60134  1  0  0  0
 60135  1  0  0  0
 60136  1  0  0  0
 61137  1  0  0  0
 61138  1  0  0  0
 61139  1  0  0  0
 62140  1  0  0  0
 62141  1  0  0  0
 62142  1  0  0  0
 63 65  1  0  0  0
 63143  1  0  0  0
 63144  1  0  0  0
 63145  1  0  0  0
 64146  1  0  0  0
 65147  1  0  0  0
 68 85  1  0  0  0
 71 72  2  0  0  0
 71 74  1  0  0  0
 71148  1  0  0  0
 72 73  1  0  0  0
 72 81  1  0  0  0
 73 75  2  0  0  0
 73 76  1  0  0  0
 74 82  1  0  0  0
 74 88  2  0  0  0
 75 86  1  0  0  0
 75 88  1  0  0  0
 76149  1  0  0  0
 76150  1  0  0  0
 76151  1  0  0  0
 77152  1  0  0  0
 77153  1  0  0  0
 77154  1  0  0  0
 77 86  1  0  0  0
 78 86  1  0  0  0
 78155  1  0  0  0
 78156  1  0  0  0
 78157  1  0  0  0
 79158  1  0  0  0
 79159  1  0  0  0
 79160  1  0  0  0
 79 87  1  0  0  0
 80 87  1  0  0  0
 80161  1  0  0  0
 80162  1  0  0  0
 80163  1  0  0  0
 81 83  1  0  0  0
 81164  1  0  0  0
 81165  1  0  0  0
 82 87  1  0  0  0
 82166  1  0  0  0
 82167  1  0  0  0
 83 84  1  0  0  0
 83168  1  0  0  0
 83169  1  0  0  0
 84 85  1  0  0  0
 84170  1  0  0  0
 84171  1  0  0  0
 85172  1  0  0  0
 85173  1  0  0  0
 86174  1  0  0  0
M  ISO  4   1 100  68 101  85 101  87 100
M  END
> <chiral flag>
0

> <version>
0

> <s_m_source_file>
/data/baiqing/PycharmProjects/Reinvent-master-3.2/result/LINK_invent/BTK/process_docking_weight1_custom_sum_contain_oxygen_bond_distance_aromatic_linkinvent_7_9_3/rearranged_h_0087.sdf

> <i_m_source_file_index>
91

> <r_mmod_Potential_Energy-OPLS-2005>
-9.96103572845459

> <r_mmod_Stretch_Energy-OPLS-2005>
69.2922973632812

> <r_mmod_Bend_Energy-OPLS-2005>
164.965347290039

> <r_mmod_Torsional_Energy-OPLS-2005>
215.924789428711

> <r_mmod_Improper_Torsional_Energy-OPLS-2005>
8.80153751373291

> <r_mmod_Van_der_Waal_Energy-OPLS-2005>
159.776657104492

> <r_mmod_Electrostatic_Energy-OPLS-2005>
-511.922302246094

> <r_mmod_Solvation_Energy-OPLS-2005>
-181.049697875977

> <b_mmod_Minimization_Converged-OPLS-2005>
0

> <r_mmod_RMS_Derivative-OPLS-2005>
3.09097456932068

$$$$
92
                    3D
 Structure written by MMmdl.
160168  0  0  1  0            999 V2000
  -30.6248  -14.6861   20.4137 C   0  0  0  0  0  0
  -30.4329  -12.4013   19.4751 C   0  0  0  0  0  0
  -29.5140  -12.4874   18.2371 C   0  0  0  0  0  0
  -28.0368  -12.3254   18.6479 C   0  0  0  0  0  0
  -27.6472  -13.2245   19.8525 C   0  0  2  0  0  0
  -28.6933  -13.1402   20.9872 C   0  0  0  0  0  0
  -25.2546  -13.8200   20.5700 C   0  0  0  0  0  0
  -24.1822  -13.0444   20.9205 C   0  0  0  0  0  0
  -24.6401  -11.6930   20.8742 C   0  0  0  0  0  0
  -23.9065  -10.4314   21.0406 C   0  0  0  0  0  0
  -24.3617   -9.4227   21.9178 C   0  0  0  0  0  0
  -23.6300   -8.2255   22.0755 C   0  0  0  0  0  0
  -22.4275   -8.0294   21.3549 C   0  0  0  0  0  0
  -21.9913   -9.0261   20.4654 C   0  0  0  0  0  0
  -22.7235  -10.2146   20.3057 C   0  0  0  0  0  0
  -21.6854   -6.0743   22.5273 C   0  0  0  0  0  0
  -21.4018   -6.5643   23.8210 C   0  0  0  0  0  0
  -21.3650   -5.6791   24.9172 C   0  0  0  0  0  0
  -21.6046   -4.3059   24.7226 C   0  0  0  0  0  0
  -21.8817   -3.8148   23.4346 C   0  0  0  0  0  0
  -21.9199   -4.6972   22.3400 C   0  0  0  0  0  0
  -22.7846  -13.5238   21.1839 C   0  0  0  0  0  0
  -22.1664   -4.2159   21.0974 F   0  0  0  0  0  0
  -21.5620   -3.4534   25.7735 F   0  0  0  0  0  0
  -30.0062  -13.4614   20.4127 N   0  0  0  0  0  0
  -26.2960  -12.9391   20.3276 N   0  0  0  0  0  0
  -25.9333  -11.6545   20.5751 N   0  0  0  0  0  0
  -22.0462  -12.8269   22.0410 N   0  0  0  0  0  0
  -25.4218  -15.1923   20.4106 N   0  0  0  0  0  0
  -31.8154  -14.7831   20.1061 O   0  0  0  0  0  0
  -21.6629   -6.8894   21.4244 O   0  0  0  0  0  0
  -22.3545  -14.5532   20.6663 O   0  0  0  0  0  0
  -24.6325  -31.8555   23.2005 C   0  0  0  0  0  0
  -25.9167  -32.4741   23.8318 C   0  0  1  0  0  0
  -27.2248  -27.2747   20.1216 C   0  0  0  0  0  0
  -25.5975  -33.8540   24.2262 N   0  0  0  0  0  0
  -23.4274  -30.4813   21.5432 C   0  0  2  0  0  0
  -24.8736  -28.9303   20.1141 C   0  0  0  0  0  0
  -22.7490  -29.4615   22.4900 C   0  0  0  0  0  0
  -18.0293  -28.1398   22.8480 C   0  0  0  0  0  0
  -24.1500  -36.7272   23.2636 C   0  0  0  0  0  0
  -25.9730  -30.7728   21.3786 C   0  0  0  0  0  0
  -26.0478  -29.3963   20.7202 C   0  0  0  0  0  0
  -27.2258  -28.5821   20.7146 C   0  0  0  0  0  0
  -26.0230  -26.8778   19.4881 C   0  0  0  0  0  0
  -24.8651  -27.6756   19.4923 C   0  0  0  0  0  0
  -23.6470  -29.8182   20.1598 C   0  0  0  0  0  0
  -25.4120  -36.3045   24.0324 C   0  0  1  0  0  0
  -20.5903  -28.3720   23.1261 C   0  0  2  0  0  0
  -20.6797  -26.9427   22.5407 C   0  0  0  0  0  0
  -19.5764  -26.6399   21.5217 C   0  0  0  0  0  0
  -18.1942  -26.7946   22.1627 C   0  0  0  0  0  0
  -19.1549  -28.8867   23.2876 C   0  0  0  0  0  0
  -18.9470  -30.1471   23.8881 C   0  0  0  0  0  0
  -17.6474  -30.6596   24.0564 C   0  0  0  0  0  0
  -25.9058  -34.9417   23.5083 C   0  0  0  0  0  0
  -16.5361  -29.9084   23.6343 C   0  0  0  0  0  0
  -16.7281  -28.6512   23.0338 C   0  0  0  0  0  0
  -26.4533  -31.6558   25.0700 C   0  0  0  0  0  0
  -25.3755  -31.3740   26.1424 C   0  0  0  0  0  0
  -27.0390  -30.2967   24.6205 C   0  0  0  0  0  0
  -27.6073  -32.4299   25.7489 C   0  0  0  0  0  0
  -27.5572  -37.1790   24.8460 C   0  0  0  0  0  0
  -21.4195  -29.3061   22.3621 N   0  0  0  0  0  0
  -26.4291  -37.3750   23.9401 N   0  0  0  0  0  0
  -24.6957  -31.0540   22.0973 N   0  0  0  0  0  0
  -23.4182  -28.8140   23.3002 O   0  0  0  0  0  0
  -28.3203  -26.3814   20.1788 O   0  0  0  0  0  0
  -26.5608  -34.8895   22.4645 O   0  0  0  0  0  0
  -23.5485  -32.1356   23.7326 O   0  0  0  0  0  0
  -29.1200  -19.6289   19.8539 C   0  0  0  0  0  0
  -29.3938  -20.9361   20.3747 C   0  0  0  0  0  0
  -29.8867  -18.4998   20.2949 C   0  0  0  0  0  0
  -31.0817  -19.9562   21.6063 C   0  0  0  0  0  0
  -31.8157  -19.8214   24.0247 C   0  0  0  0  0  0
  -30.7911  -17.0251   18.4466 C   0  0  0  0  0  0
  -28.5450  -22.2310   20.0401 C   0  0  0  0  0  0
  -32.2223  -20.1470   22.5851 C   0  0  0  0  0  0
  -29.0774  -23.7318   20.2991 C   0  0  0  0  0  0
  -28.0484  -24.9225   19.9600 C   0  0  0  0  0  0
  -29.8086  -17.0715   19.6364 C   0  0  2  0  0  0
  -30.3821  -21.0493   21.2828 N   0  0  0  0  0  0
  -30.8770  -18.7094   21.1789 N   0  0  0  0  0  0
  -29.8084  -15.7923   20.4664 N   0  0  0  0  0  0
  -31.4758  -12.5055   19.1717 H   0  0  0  0  0  0
  -30.3601  -11.4217   19.9505 H   0  0  0  0  0  0
  -29.7861  -11.7177   17.5125 H   0  0  0  0  0  0
  -29.6565  -13.4464   17.7366 H   0  0  0  0  0  0
  -27.8848  -11.2783   18.9106 H   0  0  0  0  0  0
  -27.3848  -12.5245   17.7966 H   0  0  0  0  0  0
  -27.6470  -14.2459   19.4723 H   0  0  0  0  0  0
  -28.7088  -12.1406   21.4233 H   0  0  0  0  0  0
  -28.4420  -13.8278   21.7964 H   0  0  0  0  0  0
  -25.2755   -9.5694   22.4772 H   0  0  0  0  0  0
  -23.9999   -7.4642   22.7476 H   0  0  0  0  0  0
  -21.0837   -8.8791   19.8963 H   0  0  0  0  0  0
  -22.3686  -10.9694   19.6175 H   0  0  0  0  0  0
  -21.2011   -7.6146   23.9720 H   0  0  0  0  0  0
  -21.1465   -6.0516   25.9074 H   0  0  0  0  0  0
  -22.0608   -2.7612   23.2833 H   0  0  0  0  0  0
  -22.4056  -11.9934   22.4812 H   0  0  0  0  0  0
  -21.1072  -13.1318   22.2577 H   0  0  0  0  0  0
  -24.6498  -15.8400   20.5231 H   0  0  0  0  0  0
  -26.2605  -15.6347   20.0579 H   0  0  0  0  0  0
  -26.7210  -32.5397   23.1039 H   0  0  0  0  0  0
  -25.0146  -33.9670   25.0419 H   0  0  0  0  0  0
  -22.7225  -31.3020   21.3971 H   0  0  0  0  0  0
  -23.3753  -35.9617   23.3292 H   0  0  0  0  0  0
  -24.3589  -36.8891   22.2050 H   0  0  0  0  0  0
  -23.7265  -37.6478   23.6661 H   0  0  0  0  0  0
  -26.1134  -31.5319   20.6075 H   0  0  0  0  0  0
  -26.8519  -30.8195   22.0110 H   0  0  0  0  0  0
  -28.1215  -28.9346   21.2072 H   0  0  0  0  0  0
  -25.9299  -25.9239   18.9915 H   0  0  0  0  0  0
  -23.9670  -27.3012   19.0201 H   0  0  0  0  0  0
  -23.7721  -30.5939   19.4034 H   0  0  0  0  0  0
  -22.7623  -29.2566   19.8571 H   0  0  0  0  0  0
  -25.1304  -36.1878   25.0817 H   0  0  0  0  0  0
  -21.0020  -28.3324   24.1379 H   0  0  0  0  0  0
  -20.5737  -26.2308   23.3615 H   0  0  0  0  0  0
  -21.6657  -26.7467   22.1171 H   0  0  0  0  0  0
  -19.6929  -25.6315   21.1227 H   0  0  0  0  0  0
  -19.6715  -27.3223   20.6761 H   0  0  0  0  0  0
  -17.4217  -26.6688   21.4021 H   0  0  0  0  0  0
  -18.0331  -26.0093   22.9025 H   0  0  0  0  0  0
  -19.7942  -30.7296   24.2230 H   0  0  0  0  0  0
  -17.5024  -31.6273   24.5170 H   0  0  0  0  0  0
  -15.5358  -30.2980   23.7701 H   0  0  0  0  0  0
  -15.8679  -28.0849   22.7041 H   0  0  0  0  0  0
  -24.5930  -30.7074   25.7782 H   0  0  0  0  0  0
  -24.8952  -32.2927   26.4806 H   0  0  0  0  0  0
  -25.8081  -30.8952   27.0217 H   0  0  0  0  0  0
  -26.2989  -29.6685   24.1230 H   0  0  0  0  0  0
  -27.4061  -29.7266   25.4749 H   0  0  0  0  0  0
  -27.8864  -30.4229   23.9459 H   0  0  0  0  0  0
  -27.2669  -33.3600   26.2066 H   0  0  0  0  0  0
  -28.3914  -32.6859   25.0340 H   0  0  0  0  0  0
  -28.0715  -31.8405   26.5414 H   0  0  0  0  0  0
  -28.2583  -38.0089   24.7491 H   0  0  0  0  0  0
  -28.1060  -36.2611   24.6299 H   0  0  0  0  0  0
  -27.2271  -37.1461   25.8855 H   0  0  0  0  0  0
  -20.9360  -29.8731   21.6791 H   0  0  0  0  0  0
  -26.0148  -38.2810   24.1425 H   0  0  0  0  0  0
  -28.3378  -19.4953   19.1186 H   0  0  0  0  0  0
  -32.6460  -19.9964   24.7071 H   0  0  0  0  0  0
  -31.5168  -18.7776   24.1137 H   0  0  0  0  0  0
  -30.9756  -20.4437   24.3318 H   0  0  0  0  0  0
  -30.6096  -17.8505   17.7581 H   0  0  0  0  0  0
  -30.6961  -16.1064   17.8676 H   0  0  0  0  0  0
  -31.8233  -17.1050   18.7858 H   0  0  0  0  0  0
  -27.6085  -22.1164   20.5833 H   0  0  0  0  0  0
  -28.2712  -22.1602   18.9866 H   0  0  0  0  0  0
  -32.5724  -21.1773   22.5227 H   0  0  0  0  0  0
  -33.0639  -19.5223   22.2777 H   0  0  0  0  0  0
  -29.9984  -23.8753   19.7340 H   0  0  0  0  0  0
  -29.3586  -23.8104   21.3496 H   0  0  0  0  0  0
  -27.1374  -24.6851   20.5168 H   0  0  0  0  0  0
  -27.8059  -24.8093   18.9028 H   0  0  0  0  0  0
  -28.8163  -17.0550   19.1836 H   0  0  0  0  0  0
  -28.9017  -15.5899   20.8562 H   0  0  0  0  0  0
  1 25  1  0  0  0
  1 30  2  0  0  0
  1 84  1  0  0  0
  2  3  1  0  0  0
  2 25  1  0  0  0
  2 85  1  0  0  0
  2 86  1  0  0  0
  3  4  1  0  0  0
  3 87  1  0  0  0
  3 88  1  0  0  0
  4  5  1  0  0  0
  4 89  1  0  0  0
  4 90  1  0  0  0
  5  6  1  0  0  0
  5 26  1  0  0  0
  5 91  1  0  0  0
  6 25  1  0  0  0
  6 92  1  0  0  0
  6 93  1  0  0  0
  7  8  2  0  0  0
  7 26  1  0  0  0
  7 29  1  0  0  0
  8  9  1  0  0  0
  8 22  1  0  0  0
  9 10  1  0  0  0
  9 27  2  0  0  0
 10 11  2  0  0  0
 10 15  1  0  0  0
 11 12  1  0  0  0
 11 94  1  0  0  0
 12 13  2  0  0  0
 12 95  1  0  0  0
 13 14  1  0  0  0
 13 31  1  0  0  0
 14 15  2  0  0  0
 14 96  1  0  0  0
 15 97  1  0  0  0
 16 17  2  0  0  0
 16 21  1  0  0  0
 16 31  1  0  0  0
 17 18  1  0  0  0
 17 98  1  0  0  0
 18 19  2  0  0  0
 18 99  1  0  0  0
 19 20  1  0  0  0
 19 24  1  0  0  0
 20 21  2  0  0  0
 20100  1  0  0  0
 21 23  1  0  0  0
 22 28  1  0  0  0
 22 32  2  0  0  0
 26 27  1  0  0  0
 28101  1  0  0  0
 28102  1  0  0  0
 29103  1  0  0  0
 29104  1  0  0  0
 33 34  1  0  0  0
 33 66  1  0  0  0
 33 70  2  0  0  0
 34 36  1  0  0  0
 34 59  1  0  0  0
 34105  1  0  0  0
 35 44  2  0  0  0
 35 45  1  0  0  0
 35 68  1  0  0  0
 36 56  1  0  0  0
 36106  1  0  0  0
 37 39  1  0  0  0
 37 47  1  0  0  0
 37 66  1  0  0  0
 37107  1  0  0  0
 38 43  2  0  0  0
 38 46  1  0  0  0
 38 47  1  0  0  0
 39 64  1  0  0  0
 39 67  2  0  0  0
 40 52  1  0  0  0
 40 53  2  0  0  0
 40 58  1  0  0  0
 41108  1  0  0  0
 41109  1  0  0  0
 41110  1  0  0  0
 41 48  1  0  0  0
 42 43  1  0  0  0
 42 66  1  0  0  0
 42111  1  0  0  0
 42112  1  0  0  0
 43 44  1  0  0  0
 44113  1  0  0  0
 45 46  2  0  0  0
 45114  1  0  0  0
 46115  1  0  0  0
 47116  1  0  0  0
 47117  1  0  0  0
 48 56  1  0  0  0
 48 65  1  0  0  0
 48118  1  0  0  0
 49 50  1  0  0  0
 49 53  1  0  0  0
 49 64  1  0  0  0
 49119  1  0  0  0
 50 51  1  0  0  0
 50120  1  0  0  0
 50121  1  0  0  0
 51 52  1  0  0  0
 51122  1  0  0  0
 51123  1  0  0  0
 52124  1  0  0  0
 52125  1  0  0  0
 53 54  1  0  0  0
 54 55  2  0  0  0
 54126  1  0  0  0
 55 57  1  0  0  0
 55127  1  0  0  0
 56 69  2  0  0  0
 57 58  2  0  0  0
 57128  1  0  0  0
 58129  1  0  0  0
 59 60  1  0  0  0
 59 61  1  0  0  0
 59 62  1  0  0  0
 60130  1  0  0  0
 60131  1  0  0  0
 60132  1  0  0  0
 61133  1  0  0  0
 61134  1  0  0  0
 61135  1  0  0  0
 62136  1  0  0  0
 62137  1  0  0  0
 62138  1  0  0  0
 63 65  1  0  0  0
 63139  1  0  0  0
 63140  1  0  0  0
 63141  1  0  0  0
 64142  1  0  0  0
 65143  1  0  0  0
 68 80  1  0  0  0
 71 72  2  0  0  0
 71 73  1  0  0  0
 71144  1  0  0  0
 72 77  1  0  0  0
 72 82  1  0  0  0
 73 81  1  0  0  0
 73 83  2  0  0  0
 74 78  1  0  0  0
 74 82  2  0  0  0
 74 83  1  0  0  0
 75 78  1  0  0  0
 75145  1  0  0  0
 75146  1  0  0  0
 75147  1  0  0  0
 76148  1  0  0  0
 76149  1  0  0  0
 76150  1  0  0  0
 76 81  1  0  0  0
 77 79  1  0  0  0
 77151  1  0  0  0
 77152  1  0  0  0
 78153  1  0  0  0
 78154  1  0  0  0
 79 80  1  0  0  0
 79155  1  0  0  0
 79156  1  0  0  0
 80157  1  0  0  0
 80158  1  0  0  0
 81 84  1  0  0  0
 81159  1  0  0  0
 84160  1  0  0  0
M  ISO  4   1 100  68 101  80 101  84 100
M  END
> <chiral flag>
0

> <version>
0

> <s_m_source_file>
/data/baiqing/PycharmProjects/Reinvent-master-3.2/result/LINK_invent/BTK/process_docking_weight1_custom_sum_contain_oxygen_bond_distance_aromatic_linkinvent_7_9_3/rearranged_h_0087.sdf

> <i_m_source_file_index>
92

> <r_mmod_Potential_Energy-OPLS-2005>
-504.837310791016

> <r_mmod_Stretch_Energy-OPLS-2005>
97.3239135742188

> <r_mmod_Bend_Energy-OPLS-2005>
160.146087646484

> <r_mmod_Torsional_Energy-OPLS-2005>
203.117004394531

> <r_mmod_Improper_Torsional_Energy-OPLS-2005>
10.4443979263306

> <r_mmod_Van_der_Waal_Energy-OPLS-2005>
150.374404907227

> <r_mmod_Electrostatic_Energy-OPLS-2005>
-953.262634277344

> <r_mmod_Solvation_Energy-OPLS-2005>
-244.689239501953

> <b_mmod_Minimization_Converged-OPLS-2005>
0

> <r_mmod_RMS_Derivative-OPLS-2005>
3.22243547439575

$$$$
93
                    3D
 Structure written by MMmdl.
161169  0  0  1  0            999 V2000
  -30.6218  -14.7280   20.4660 C   0  0  0  0  0  0
  -30.4309  -12.4475   19.4647 C   0  0  0  0  0  0
  -29.5074  -12.5067   18.2285 C   0  0  0  0  0  0
  -28.0331  -12.3346   18.6430 C   0  0  0  0  0  0
  -27.6416  -13.2307   19.8484 C   0  0  2  0  0  0
  -28.6876  -13.1601   20.9816 C   0  0  0  0  0  0
  -25.2514  -13.8197   20.5687 C   0  0  0  0  0  0
  -24.1806  -13.0444   20.9208 C   0  0  0  0  0  0
  -24.6395  -11.6921   20.8745 C   0  0  0  0  0  0
  -23.9070  -10.4298   21.0409 C   0  0  0  0  0  0
  -24.3623   -9.4212   21.9185 C   0  0  0  0  0  0
  -23.6298   -8.2245   22.0755 C   0  0  0  0  0  0
  -22.4278   -8.0285   21.3547 C   0  0  0  0  0  0
  -21.9916   -9.0258   20.4647 C   0  0  0  0  0  0
  -22.7244  -10.2138   20.3057 C   0  0  0  0  0  0
  -21.6856   -6.0739   22.5278 C   0  0  0  0  0  0
  -21.4019   -6.5643   23.8211 C   0  0  0  0  0  0
  -21.3659   -5.6795   24.9172 C   0  0  0  0  0  0
  -21.6042   -4.3058   24.7224 C   0  0  0  0  0  0
  -21.8819   -3.8150   23.4346 C   0  0  0  0  0  0
  -21.9196   -4.6967   22.3403 C   0  0  0  0  0  0
  -22.7828  -13.5224   21.1869 C   0  0  0  0  0  0
  -22.1663   -4.2154   21.0980 F   0  0  0  0  0  0
  -21.5628   -3.4540   25.7737 F   0  0  0  0  0  0
  -29.9876  -13.5092   20.3964 N   0  0  0  0  0  0
  -26.2938  -12.9400   20.3268 N   0  0  0  0  0  0
  -25.9324  -11.6542   20.5743 N   0  0  0  0  0  0
  -22.0479  -12.8208   22.0423 N   0  0  0  0  0  0
  -25.4194  -15.1921   20.4090 N   0  0  0  0  0  0
  -31.8143  -14.8192   20.1634 O   0  0  0  0  0  0
  -21.6643   -6.8882   21.4240 O   0  0  0  0  0  0
  -22.3508  -14.5528   20.6718 O   0  0  0  0  0  0
  -24.6317  -31.8555   23.1986 C   0  0  0  0  0  0
  -25.9143  -32.4754   23.8330 C   0  0  1  0  0  0
  -27.2175  -27.2614   20.1250 C   0  0  0  0  0  0
  -25.5938  -33.8556   24.2252 N   0  0  0  0  0  0
  -23.4277  -30.4793   21.5425 C   0  0  2  0  0  0
  -24.8739  -28.9278   20.1100 C   0  0  0  0  0  0
  -22.7501  -29.4608   22.4911 C   0  0  0  0  0  0
  -18.0293  -28.1389   22.8486 C   0  0  0  0  0  0
  -24.1491  -36.7283   23.2639 C   0  0  0  0  0  0
  -25.9748  -30.7688   21.3782 C   0  0  0  0  0  0
  -26.0471  -29.3921   20.7181 C   0  0  0  0  0  0
  -27.2222  -28.5726   20.7126 C   0  0  0  0  0  0
  -26.0179  -26.8672   19.4885 C   0  0  0  0  0  0
  -24.8647  -27.6736   19.4842 C   0  0  0  0  0  0
  -23.6452  -29.8150   20.1582 C   0  0  0  0  0  0
  -25.4118  -36.3068   24.0324 C   0  0  1  0  0  0
  -20.5896  -28.3701   23.1268 C   0  0  2  0  0  0
  -20.6782  -26.9419   22.5407 C   0  0  0  0  0  0
  -19.5756  -26.6385   21.5213 C   0  0  0  0  0  0
  -18.1936  -26.7931   22.1625 C   0  0  0  0  0  0
  -19.1546  -28.8861   23.2871 C   0  0  0  0  0  0
  -18.9467  -30.1461   23.8892 C   0  0  0  0  0  0
  -17.6466  -30.6589   24.0561 C   0  0  0  0  0  0
  -25.9060  -34.9439   23.5091 C   0  0  0  0  0  0
  -16.5356  -29.9086   23.6332 C   0  0  0  0  0  0
  -16.7278  -28.6503   23.0355 C   0  0  0  0  0  0
  -26.4506  -31.6582   25.0723 C   0  0  0  0  0  0
  -25.3721  -31.3736   26.1436 C   0  0  0  0  0  0
  -27.0355  -30.2995   24.6219 C   0  0  0  0  0  0
  -27.6053  -32.4326   25.7501 C   0  0  0  0  0  0
  -27.5581  -37.1795   24.8462 C   0  0  0  0  0  0
  -21.4208  -29.3048   22.3654 N   0  0  0  0  0  0
  -26.4291  -37.3770   23.9409 N   0  0  0  0  0  0
  -24.6974  -31.0520   22.0960 N   0  0  0  0  0  0
  -23.4200  -28.8148   23.3011 O   0  0  0  0  0  0
  -28.3108  -26.3627   20.1841 O   0  0  0  0  0  0
  -26.5633  -34.8915   22.4660 O   0  0  0  0  0  0
  -23.5466  -32.1378   23.7280 O   0  0  0  0  0  0
  -28.3424  -21.7789   22.4593 C   0  0  0  0  0  0
  -28.7013  -19.0908   22.6151 C   0  0  0  0  0  0
  -28.8151  -21.1532   21.2817 C   0  0  0  0  0  0
  -29.0093  -19.6836   21.3660 C   0  0  0  0  0  0
  -28.1027  -21.0583   23.6334 C   0  0  0  0  0  0
  -27.5956  -21.7552   24.8783 C   0  0  0  0  0  0
  -29.9095  -19.1602   18.9791 C   0  0  0  0  0  0
  -28.9830  -22.1761   20.0827 C   0  0  0  0  0  0
  -29.1892  -23.7803   20.3541 C   0  0  0  0  0  0
  -30.3326  -17.3203   20.7634 C   0  0  0  0  0  0
  -28.0533  -24.8846   20.0438 C   0  0  0  0  0  0
  -29.3836  -18.5662   20.2923 C   0  0  1  0  0  0
  -28.2817  -19.7353   23.7159 N   0  0  0  0  0  0
  -29.8638  -15.8681   20.6805 N   0  0  0  0  0  0
  -31.4720  -12.5708   19.1618 H   0  0  0  0  0  0
  -30.3725  -11.4698   19.9454 H   0  0  0  0  0  0
  -29.7861  -11.7353   17.5093 H   0  0  0  0  0  0
  -29.6364  -13.4625   17.7178 H   0  0  0  0  0  0
  -27.8846  -11.2852   18.8992 H   0  0  0  0  0  0
  -27.3767  -12.5348   17.7954 H   0  0  0  0  0  0
  -27.6369  -14.2532   19.4703 H   0  0  0  0  0  0
  -28.7204  -12.1616   21.4194 H   0  0  0  0  0  0
  -28.4262  -13.8419   21.7926 H   0  0  0  0  0  0
  -25.2772   -9.5690   22.4754 H   0  0  0  0  0  0
  -24.0015   -7.4635   22.7472 H   0  0  0  0  0  0
  -21.0850   -8.8776   19.8949 H   0  0  0  0  0  0
  -22.3703  -10.9678   19.6165 H   0  0  0  0  0  0
  -21.2010   -7.6152   23.9716 H   0  0  0  0  0  0
  -21.1480   -6.0525   25.9076 H   0  0  0  0  0  0
  -22.0599   -2.7613   23.2843 H   0  0  0  0  0  0
  -22.4110  -11.9875   22.4811 H   0  0  0  0  0  0
  -21.1094  -13.1220   22.2633 H   0  0  0  0  0  0
  -24.6471  -15.8415   20.5116 H   0  0  0  0  0  0
  -26.2573  -15.6306   20.0497 H   0  0  0  0  0  0
  -26.7209  -32.5403   23.1070 H   0  0  0  0  0  0
  -25.0075  -33.9693   25.0391 H   0  0  0  0  0  0
  -22.7244  -31.3018   21.3974 H   0  0  0  0  0  0
  -23.3756  -35.9612   23.3293 H   0  0  0  0  0  0
  -24.3581  -36.8918   22.2055 H   0  0  0  0  0  0
  -23.7241  -37.6479   23.6673 H   0  0  0  0  0  0
  -26.1147  -31.5310   20.6103 H   0  0  0  0  0  0
  -26.8515  -30.8155   22.0126 H   0  0  0  0  0  0
  -28.1196  -28.9231   21.2029 H   0  0  0  0  0  0
  -25.9348  -25.9096   18.9981 H   0  0  0  0  0  0
  -23.9666  -27.3127   19.0019 H   0  0  0  0  0  0
  -23.7692  -30.5920   19.4031 H   0  0  0  0  0  0
  -22.7632  -29.2490   19.8531 H   0  0  0  0  0  0
  -25.1301  -36.1912   25.0816 H   0  0  0  0  0  0
  -20.9991  -28.3284   24.1387 H   0  0  0  0  0  0
  -20.5685  -26.2313   23.3613 H   0  0  0  0  0  0
  -21.6649  -26.7444   22.1200 H   0  0  0  0  0  0
  -19.6919  -25.6293   21.1248 H   0  0  0  0  0  0
  -19.6693  -27.3190   20.6739 H   0  0  0  0  0  0
  -17.4206  -26.6676   21.4028 H   0  0  0  0  0  0
  -18.0337  -26.0074   22.9023 H   0  0  0  0  0  0
  -19.7941  -30.7278   24.2260 H   0  0  0  0  0  0
  -17.5019  -31.6269   24.5164 H   0  0  0  0  0  0
  -15.5357  -30.2986   23.7658 H   0  0  0  0  0  0
  -15.8679  -28.0819   22.7076 H   0  0  0  0  0  0
  -24.5899  -30.7085   25.7760 H   0  0  0  0  0  0
  -24.8909  -32.2907   26.4842 H   0  0  0  0  0  0
  -25.8028  -30.8923   27.0224 H   0  0  0  0  0  0
  -26.2945  -29.6738   24.1232 H   0  0  0  0  0  0
  -27.4018  -29.7265   25.4748 H   0  0  0  0  0  0
  -27.8830  -30.4264   23.9479 H   0  0  0  0  0  0
  -27.2655  -33.3629   26.2064 H   0  0  0  0  0  0
  -28.3872  -32.6882   25.0337 H   0  0  0  0  0  0
  -28.0713  -31.8461   26.5429 H   0  0  0  0  0  0
  -28.2587  -38.0104   24.7520 H   0  0  0  0  0  0
  -28.1089  -36.2634   24.6274 H   0  0  0  0  0  0
  -27.2299  -37.1427   25.8864 H   0  0  0  0  0  0
  -20.9394  -29.8770   21.6858 H   0  0  0  0  0  0
  -26.0167  -38.2841   24.1415 H   0  0  0  0  0  0
  -28.1275  -22.8371   22.4826 H   0  0  0  0  0  0
  -28.7576  -18.0207   22.7463 H   0  0  0  0  0  0
  -26.6077  -22.1788   24.6974 H   0  0  0  0  0  0
  -28.2682  -22.5656   25.1591 H   0  0  0  0  0  0
  -27.5208  -21.0700   25.7234 H   0  0  0  0  0  0
  -29.1807  -19.8298   18.5232 H   0  0  0  0  0  0
  -30.1097  -18.3740   18.2503 H   0  0  0  0  0  0
  -30.8388  -19.7091   19.1326 H   0  0  0  0  0  0
  -28.1475  -22.0354   19.3965 H   0  0  0  0  0  0
  -29.8639  -21.8465   19.5342 H   0  0  0  0  0  0
  -30.0148  -24.0676   19.7027 H   0  0  0  0  0  0
  -29.6019  -23.9438   21.3489 H   0  0  0  0  0  0
  -30.6788  -17.4795   21.7841 H   0  0  0  0  0  0
  -31.2586  -17.3814   20.1889 H   0  0  0  0  0  0
  -27.1914  -24.6378   20.6654 H   0  0  0  0  0  0
  -27.7439  -24.7105   19.0130 H   0  0  0  0  0  0
  -28.4203  -18.1181   20.0442 H   0  0  0  0  0  0
  -28.8829  -15.7080   20.8523 H   0  0  0  0  0  0
  1 25  1  0  0  0
  1 30  2  0  0  0
  1 84  1  0  0  0
  2  3  1  0  0  0
  2 25  1  0  0  0
  2 85  1  0  0  0
  2 86  1  0  0  0
  3  4  1  0  0  0
  3 87  1  0  0  0
  3 88  1  0  0  0
  4  5  1  0  0  0
  4 89  1  0  0  0
  4 90  1  0  0  0
  5  6  1  0  0  0
  5 26  1  0  0  0
  5 91  1  0  0  0
  6 25  1  0  0  0
  6 92  1  0  0  0
  6 93  1  0  0  0
  7  8  2  0  0  0
  7 26  1  0  0  0
  7 29  1  0  0  0
  8  9  1  0  0  0
  8 22  1  0  0  0
  9 10  1  0  0  0
  9 27  2  0  0  0
 10 11  2  0  0  0
 10 15  1  0  0  0
 11 12  1  0  0  0
 11 94  1  0  0  0
 12 13  2  0  0  0
 12 95  1  0  0  0
 13 14  1  0  0  0
 13 31  1  0  0  0
 14 15  2  0  0  0
 14 96  1  0  0  0
 15 97  1  0  0  0
 16 17  2  0  0  0
 16 21  1  0  0  0
 16 31  1  0  0  0
 17 18  1  0  0  0
 17 98  1  0  0  0
 18 19  2  0  0  0
 18 99  1  0  0  0
 19 20  1  0  0  0
 19 24  1  0  0  0
 20 21  2  0  0  0
 20100  1  0  0  0
 21 23  1  0  0  0
 22 28  1  0  0  0
 22 32  2  0  0  0
 26 27  1  0  0  0
 28101  1  0  0  0
 28102  1  0  0  0
 29103  1  0  0  0
 29104  1  0  0  0
 33 34  1  0  0  0
 33 66  1  0  0  0
 33 70  2  0  0  0
 34 36  1  0  0  0
 34 59  1  0  0  0
 34105  1  0  0  0
 35 44  2  0  0  0
 35 45  1  0  0  0
 35 68  1  0  0  0
 36 56  1  0  0  0
 36106  1  0  0  0
 37 39  1  0  0  0
 37 47  1  0  0  0
 37 66  1  0  0  0
 37107  1  0  0  0
 38 43  2  0  0  0
 38 46  1  0  0  0
 38 47  1  0  0  0
 39 64  1  0  0  0
 39 67  2  0  0  0
 40 52  1  0  0  0
 40 53  2  0  0  0
 40 58  1  0  0  0
 41108  1  0  0  0
 41109  1  0  0  0
 41110  1  0  0  0
 41 48  1  0  0  0
 42 43  1  0  0  0
 42 66  1  0  0  0
 42111  1  0  0  0
 42112  1  0  0  0
 43 44  1  0  0  0
 44113  1  0  0  0
 45 46  2  0  0  0
 45114  1  0  0  0
 46115  1  0  0  0
 47116  1  0  0  0
 47117  1  0  0  0
 48 56  1  0  0  0
 48 65  1  0  0  0
 48118  1  0  0  0
 49 50  1  0  0  0
 49 53  1  0  0  0
 49 64  1  0  0  0
 49119  1  0  0  0
 50 51  1  0  0  0
 50120  1  0  0  0
 50121  1  0  0  0
 51 52  1  0  0  0
 51122  1  0  0  0
 51123  1  0  0  0
 52124  1  0  0  0
 52125  1  0  0  0
 53 54  1  0  0  0
 54 55  2  0  0  0
 54126  1  0  0  0
 55 57  1  0  0  0
 55127  1  0  0  0
 56 69  2  0  0  0
 57 58  2  0  0  0
 57128  1  0  0  0
 58129  1  0  0  0
 59 60  1  0  0  0
 59 61  1  0  0  0
 59 62  1  0  0  0
 60130  1  0  0  0
 60131  1  0  0  0
 60132  1  0  0  0
 61133  1  0  0  0
 61134  1  0  0  0
 61135  1  0  0  0
 62136  1  0  0  0
 62137  1  0  0  0
 62138  1  0  0  0
 63 65  1  0  0  0
 63139  1  0  0  0
 63140  1  0  0  0
 63141  1  0  0  0
 64142  1  0  0  0
 65143  1  0  0  0
 68 81  1  0  0  0
 71 73  2  0  0  0
 71 75  1  0  0  0
 71144  1  0  0  0
 72 74  2  0  0  0
 72 83  1  0  0  0
 72145  1  0  0  0
 73 74  1  0  0  0
 73 78  1  0  0  0
 74 82  1  0  0  0
 75 76  1  0  0  0
 75 83  2  0  0  0
 76146  1  0  0  0
 76147  1  0  0  0
 76148  1  0  0  0
 77149  1  0  0  0
 77150  1  0  0  0
 77151  1  0  0  0
 77 82  1  0  0  0
 78 79  1  0  0  0
 78152  1  0  0  0
 78153  1  0  0  0
 79 81  1  0  0  0
 79154  1  0  0  0
 79155  1  0  0  0
 80 82  1  0  0  0
 80 84  1  0  0  0
 80156  1  0  0  0
 80157  1  0  0  0
 81158  1  0  0  0
 81159  1  0  0  0
 82160  1  0  0  0
 84161  1  0  0  0
M  ISO  4   1 100  68 101  81 101  84 100
M  END
> <chiral flag>
0

> <version>
0

> <s_m_source_file>
/data/baiqing/PycharmProjects/Reinvent-master-3.2/result/LINK_invent/BTK/process_docking_weight1_custom_sum_contain_oxygen_bond_distance_aromatic_linkinvent_7_9_3/rearranged_h_0087.sdf

> <i_m_source_file_index>
93

> <r_mmod_Potential_Energy-OPLS-2005>
9.80354404449463

> <r_mmod_Stretch_Energy-OPLS-2005>
136.190887451172

> <r_mmod_Bend_Energy-OPLS-2005>
202.412551879883

> <r_mmod_Torsional_Energy-OPLS-2005>
235.897567749023

> <r_mmod_Improper_Torsional_Energy-OPLS-2005>
4.81102800369263

> <r_mmod_Van_der_Waal_Energy-OPLS-2005>
150.518493652344

> <r_mmod_Electrostatic_Energy-OPLS-2005>
-578.704284667969

> <r_mmod_Solvation_Energy-OPLS-2005>
-223.721832275391

> <b_mmod_Minimization_Converged-OPLS-2005>
0

> <r_mmod_RMS_Derivative-OPLS-2005>
0.48349666595459

$$$$
94
                    3D
 Structure written by MMmdl.
172180  0  0  1  0            999 V2000
  -30.5628  -14.8026   20.3936 C   0  0  0  0  0  0
  -30.4313  -12.4815   19.4607 C   0  0  0  0  0  0
  -29.5093  -12.4901   18.2237 C   0  0  0  0  0  0
  -28.0363  -12.3076   18.6448 C   0  0  0  0  0  0
  -27.6342  -13.2182   19.8344 C   0  0  2  0  0  0
  -28.6839  -13.1885   20.9661 C   0  0  0  0  0  0
  -25.2518  -13.8034   20.5746 C   0  0  0  0  0  0
  -24.1775  -13.0375   20.9191 C   0  0  0  0  0  0
  -24.6337  -11.6854   20.8762 C   0  0  0  0  0  0
  -23.9019  -10.4258   21.0431 C   0  0  0  0  0  0
  -24.3597   -9.4163   21.9182 C   0  0  0  0  0  0
  -23.6251   -8.2230   22.0775 C   0  0  0  0  0  0
  -22.4221   -8.0284   21.3565 C   0  0  0  0  0  0
  -21.9832   -9.0305   20.4743 C   0  0  0  0  0  0
  -22.7153  -10.2180   20.3142 C   0  0  0  0  0  0
  -21.6844   -6.0758   22.5274 C   0  0  0  0  0  0
  -21.3941   -6.5679   23.8184 C   0  0  0  0  0  0
  -21.3608   -5.6876   24.9162 C   0  0  0  0  0  0
  -21.6039   -4.3140   24.7278 C   0  0  0  0  0  0
  -21.8800   -3.8199   23.4403 C   0  0  0  0  0  0
  -21.9196   -4.6985   22.3450 C   0  0  0  0  0  0
  -22.7848  -13.5286   21.1860 C   0  0  0  0  0  0
  -22.1669   -4.2141   21.1028 F   0  0  0  0  0  0
  -21.5652   -3.4635   25.7796 F   0  0  0  0  0  0
  -29.9686  -13.5602   20.3597 N   0  0  0  0  0  0
  -26.2906  -12.9240   20.3187 N   0  0  0  0  0  0
  -25.9270  -11.6420   20.5737 N   0  0  0  0  0  0
  -22.0531  -12.8458   22.0558 N   0  0  0  0  0  0
  -25.4307  -15.1704   20.4320 N   0  0  0  0  0  0
  -31.7754  -14.9044   20.1852 O   0  0  0  0  0  0
  -21.6640   -6.8851   21.4212 O   0  0  0  0  0  0
  -22.3566  -14.5553   20.6604 O   0  0  0  0  0  0
  -24.6312  -31.8545   23.1953 C   0  0  0  0  0  0
  -25.9157  -32.4753   23.8294 C   0  0  1  0  0  0
  -27.2448  -27.2675   20.1213 C   0  0  0  0  0  0
  -25.5953  -33.8548   24.2245 N   0  0  0  0  0  0
  -23.4305  -30.4722   21.5424 C   0  0  2  0  0  0
  -24.8801  -28.9143   20.1103 C   0  0  0  0  0  0
  -22.7490  -29.4605   22.4936 C   0  0  0  0  0  0
  -18.0296  -28.1385   22.8476 C   0  0  0  0  0  0
  -24.1510  -36.7263   23.2631 C   0  0  0  0  0  0
  -25.9737  -30.7702   21.3712 C   0  0  0  0  0  0
  -26.0508  -29.3904   20.7155 C   0  0  0  0  0  0
  -27.2333  -28.5819   20.7048 C   0  0  0  0  0  0
  -26.0460  -26.8571   19.4939 C   0  0  0  0  0  0
  -24.8814  -27.6546   19.4888 C   0  0  0  0  0  0
  -23.6470  -29.7991   20.1597 C   0  0  0  0  0  0
  -25.4128  -36.3068   24.0333 C   0  0  1  0  0  0
  -20.5889  -28.3716   23.1243 C   0  0  2  0  0  0
  -20.6777  -26.9436   22.5394 C   0  0  0  0  0  0
  -19.5773  -26.6406   21.5183 C   0  0  0  0  0  0
  -18.1952  -26.7938   22.1600 C   0  0  0  0  0  0
  -19.1541  -28.8861   23.2870 C   0  0  0  0  0  0
  -18.9480  -30.1454   23.8919 C   0  0  0  0  0  0
  -17.6477  -30.6598   24.0551 C   0  0  0  0  0  0
  -25.9060  -34.9439   23.5088 C   0  0  0  0  0  0
  -16.5364  -29.9098   23.6311 C   0  0  0  0  0  0
  -16.7283  -28.6495   23.0358 C   0  0  0  0  0  0
  -26.4528  -31.6568   25.0672 C   0  0  0  0  0  0
  -25.3743  -31.3712   26.1379 C   0  0  0  0  0  0
  -27.0342  -30.2982   24.6125 C   0  0  0  0  0  0
  -27.6100  -32.4276   25.7454 C   0  0  0  0  0  0
  -27.5602  -37.1779   24.8476 C   0  0  0  0  0  0
  -21.4195  -29.3052   22.3642 N   0  0  0  0  0  0
  -26.4316  -37.3764   23.9414 N   0  0  0  0  0  0
  -24.6993  -31.0469   22.0955 N   0  0  0  0  0  0
  -23.4153  -28.8154   23.3076 O   0  0  0  0  0  0
  -28.3649  -26.4002   20.1857 O   0  0  0  0  0  0
  -26.5629  -34.8925   22.4661 O   0  0  0  0  0  0
  -23.5453  -32.1402   23.7212 O   0  0  0  0  0  0
  -27.5045  -21.4097   21.1659 C   0  0  0  0  0  0
  -28.6587  -21.1899   20.4616 C   0  0  0  0  0  0
  -27.3655  -19.4007   20.2646 C   0  0  0  0  0  0
  -24.2313  -16.6939   17.9035 C   0  0  0  0  0  0
  -23.2036  -18.9738   17.6460 C   0  0  0  0  0  0
  -29.8024  -18.3874   18.3348 C   0  0  0  0  0  0
  -29.5988  -22.3494   20.0259 C   0  0  0  0  0  0
  -26.6319  -18.3260   19.4996 C   0  0  0  0  0  0
  -29.3325  -23.8926   20.5151 C   0  0  0  0  0  0
  -25.1425  -18.7053   19.2369 C   0  0  0  0  0  0
  -30.0363  -17.4040   20.7836 C   0  0  0  0  0  0
  -28.2422  -24.9255   19.9062 C   0  0  0  0  0  0
  -24.5058  -18.2036   17.9195 C   0  0  0  0  0  0
  -29.7579  -18.7165   19.8316 C   0  0  2  0  0  0
  -28.6691  -19.7640   20.2206 N   0  0  0  0  0  0
  -26.7427  -20.2961   21.0301 N   0  3  0  0  0  0
  -29.7395  -15.9274   20.4519 N   0  0  0  0  0  0
  -31.4701  -12.6099   19.1579 H   0  0  0  0  0  0
  -30.3876  -11.5198   19.9718 H   0  0  0  0  0  0
  -29.7973  -11.7016   17.5293 H   0  0  0  0  0  0
  -29.6320  -13.4317   17.6883 H   0  0  0  0  0  0
  -27.9073  -11.2611   18.9241 H   0  0  0  0  0  0
  -27.3711  -12.4709   17.7953 H   0  0  0  0  0  0
  -27.6121  -14.2311   19.4357 H   0  0  0  0  0  0
  -28.7371  -12.1981   21.4215 H   0  0  0  0  0  0
  -28.4128  -13.8863   21.7623 H   0  0  0  0  0  0
  -25.2776   -9.5611   22.4747 H   0  0  0  0  0  0
  -23.9990   -7.4636   22.7513 H   0  0  0  0  0  0
  -21.0693   -8.8820   19.9184 H   0  0  0  0  0  0
  -22.3565  -10.9771   19.6335 H   0  0  0  0  0  0
  -21.1843   -7.6179   23.9634 H   0  0  0  0  0  0
  -21.1320   -6.0627   25.9036 H   0  0  0  0  0  0
  -22.0659   -2.7657   23.3012 H   0  0  0  0  0  0
  -22.4201  -12.0261   22.5179 H   0  0  0  0  0  0
  -21.1296  -13.1754   22.2957 H   0  0  0  0  0  0
  -24.6227  -15.7822   20.4077 H   0  0  0  0  0  0
  -26.2043  -15.5309   19.8936 H   0  0  0  0  0  0
  -26.7199  -32.5396   23.1008 H   0  0  0  0  0  0
  -25.0114  -33.9691   25.0395 H   0  0  0  0  0  0
  -22.7301  -31.2967   21.3939 H   0  0  0  0  0  0
  -23.3788  -35.9582   23.3279 H   0  0  0  0  0  0
  -24.3582  -36.8888   22.2046 H   0  0  0  0  0  0
  -23.7247  -37.6456   23.6643 H   0  0  0  0  0  0
  -26.1047  -31.5347   20.6019 H   0  0  0  0  0  0
  -26.8544  -30.8149   22.0029 H   0  0  0  0  0  0
  -28.1322  -28.9548   21.1771 H   0  0  0  0  0  0
  -25.9782  -25.8934   19.0131 H   0  0  0  0  0  0
  -23.9855  -27.2798   19.0106 H   0  0  0  0  0  0
  -23.7725  -30.5768   19.4057 H   0  0  0  0  0  0
  -22.7645  -29.2338   19.8555 H   0  0  0  0  0  0
  -25.1291  -36.1922   25.0824 H   0  0  0  0  0  0
  -20.9986  -28.3322   24.1358 H   0  0  0  0  0  0
  -20.5635  -26.2346   23.3602 H   0  0  0  0  0  0
  -21.6648  -26.7464   22.1199 H   0  0  0  0  0  0
  -19.6939  -25.6316   21.1233 H   0  0  0  0  0  0
  -19.6696  -27.3197   20.6687 H   0  0  0  0  0  0
  -17.4198  -26.6681   21.4020 H   0  0  0  0  0  0
  -18.0383  -26.0092   22.9009 H   0  0  0  0  0  0
  -19.7958  -30.7258   24.2309 H   0  0  0  0  0  0
  -17.5032  -31.6278   24.5163 H   0  0  0  0  0  0
  -15.5358  -30.2989   23.7627 H   0  0  0  0  0  0
  -15.8689  -28.0793   22.7076 H   0  0  0  0  0  0
  -24.5953  -30.7032   25.7702 H   0  0  0  0  0  0
  -24.8885  -32.2861   26.4767 H   0  0  0  0  0  0
  -25.8048  -30.8929   27.0179 H   0  0  0  0  0  0
  -26.2922  -29.6772   24.1094 H   0  0  0  0  0  0
  -27.3987  -29.7202   25.4624 H   0  0  0  0  0  0
  -27.8811  -30.4259   23.9381 H   0  0  0  0  0  0
  -27.2761  -33.3602   26.2016 H   0  0  0  0  0  0
  -28.3933  -32.6789   25.0292 H   0  0  0  0  0  0
  -28.0730  -31.8385   26.5382 H   0  0  0  0  0  0
  -28.2605  -38.0091   24.7516 H   0  0  0  0  0  0
  -28.1123  -36.2613   24.6306 H   0  0  0  0  0  0
  -27.2303  -37.1421   25.8879 H   0  0  0  0  0  0
  -20.9399  -29.8749   21.6818 H   0  0  0  0  0  0
  -26.0197  -38.2845   24.1406 H   0  0  0  0  0  0
  -27.1146  -22.3106   21.6186 H   0  0  0  0  0  0
  -23.7213  -16.3961   16.9865 H   0  0  0  0  0  0
  -23.5947  -16.3920   18.7365 H   0  0  0  0  0  0
  -25.1518  -16.1139   17.9489 H   0  0  0  0  0  0
  -22.7240  -18.6467   16.7229 H   0  0  0  0  0  0
  -23.3897  -20.0425   17.5394 H   0  0  0  0  0  0
  -22.4853  -18.8367   18.4556 H   0  0  0  0  0  0
  -30.8058  -18.0578   18.0583 H   0  0  0  0  0  0
  -29.5778  -19.2657   17.7277 H   0  0  0  0  0  0
  -29.1210  -17.5842   18.0639 H   0  0  0  0  0  0
  -29.6504  -22.3354   18.9364 H   0  0  0  0  0  0
  -30.6019  -22.0662   20.3536 H   0  0  0  0  0  0
  -26.7570  -17.3825   20.0188 H   0  0  0  0  0  0
  -27.1294  -18.2641   18.5374 H   0  0  0  0  0  0
  -30.2844  -24.3876   20.3249 H   0  0  0  0  0  0
  -29.2469  -23.9040   21.6034 H   0  0  0  0  0  0
  -24.5156  -18.4574   20.0964 H   0  0  0  0  0  0
  -25.0956  -19.7915   19.1505 H   0  0  0  0  0  0
  -29.5554  -17.6007   21.7424 H   0  0  0  0  0  0
  -31.0999  -17.4246   21.0255 H   0  0  0  0  0  0
  -27.2735  -24.5819   20.2639 H   0  0  0  0  0  0
  -28.2299  -24.8081   18.8229 H   0  0  0  0  0  0
  -25.1849  -18.4267   17.0951 H   0  0  0  0  0  0
  -30.6586  -19.3103   19.9838 H   0  0  0  0  0  0
  -25.7747  -20.2328   21.3221 H   0  0  0  0  0  0
  -28.7597  -15.6873   20.4814 H   0  0  0  0  0  0
  1 25  1  0  0  0
  1 30  2  0  0  0
  1 87  1  0  0  0
  2  3  1  0  0  0
  2 25  1  0  0  0
  2 88  1  0  0  0
  2 89  1  0  0  0
  3  4  1  0  0  0
  3 90  1  0  0  0
  3 91  1  0  0  0
  4  5  1  0  0  0
  4 92  1  0  0  0
  4 93  1  0  0  0
  5  6  1  0  0  0
  5 26  1  0  0  0
  5 94  1  0  0  0
  6 25  1  0  0  0
  6 95  1  0  0  0
  6 96  1  0  0  0
  7  8  2  0  0  0
  7 26  1  0  0  0
  7 29  1  0  0  0
  8  9  1  0  0  0
  8 22  1  0  0  0
  9 10  1  0  0  0
  9 27  2  0  0  0
 10 11  2  0  0  0
 10 15  1  0  0  0
 11 12  1  0  0  0
 11 97  1  0  0  0
 12 13  2  0  0  0
 12 98  1  0  0  0
 13 14  1  0  0  0
 13 31  1  0  0  0
 14 15  2  0  0  0
 14 99  1  0  0  0
 15100  1  0  0  0
 16 17  2  0  0  0
 16 21  1  0  0  0
 16 31  1  0  0  0
 17 18  1  0  0  0
 17101  1  0  0  0
 18 19  2  0  0  0
 18102  1  0  0  0
 19 20  1  0  0  0
 19 24  1  0  0  0
 20 21  2  0  0  0
 20103  1  0  0  0
 21 23  1  0  0  0
 22 28  1  0  0  0
 22 32  2  0  0  0
 26 27  1  0  0  0
 28104  1  0  0  0
 28105  1  0  0  0
 29106  1  0  0  0
 29107  1  0  0  0
 33 34  1  0  0  0
 33 66  1  0  0  0
 33 70  2  0  0  0
 34 36  1  0  0  0
 34 59  1  0  0  0
 34108  1  0  0  0
 35 44  2  0  0  0
 35 45  1  0  0  0
 35 68  1  0  0  0
 36 56  1  0  0  0
 36109  1  0  0  0
 37 39  1  0  0  0
 37 47  1  0  0  0
 37 66  1  0  0  0
 37110  1  0  0  0
 38 43  2  0  0  0
 38 46  1  0  0  0
 38 47  1  0  0  0
 39 64  1  0  0  0
 39 67  2  0  0  0
 40 52  1  0  0  0
 40 53  2  0  0  0
 40 58  1  0  0  0
 41111  1  0  0  0
 41112  1  0  0  0
 41113  1  0  0  0
 41 48  1  0  0  0
 42 43  1  0  0  0
 42 66  1  0  0  0
 42114  1  0  0  0
 42115  1  0  0  0
 43 44  1  0  0  0
 44116  1  0  0  0
 45 46  2  0  0  0
 45117  1  0  0  0
 46118  1  0  0  0
 47119  1  0  0  0
 47120  1  0  0  0
 48 56  1  0  0  0
 48 65  1  0  0  0
 48121  1  0  0  0
 49 50  1  0  0  0
 49 53  1  0  0  0
 49 64  1  0  0  0
 49122  1  0  0  0
 50 51  1  0  0  0
 50123  1  0  0  0
 50124  1  0  0  0
 51 52  1  0  0  0
 51125  1  0  0  0
 51126  1  0  0  0
 52127  1  0  0  0
 52128  1  0  0  0
 53 54  1  0  0  0
 54 55  2  0  0  0
 54129  1  0  0  0
 55 57  1  0  0  0
 55130  1  0  0  0
 56 69  2  0  0  0
 57 58  2  0  0  0
 57131  1  0  0  0
 58132  1  0  0  0
 59 60  1  0  0  0
 59 61  1  0  0  0
 59 62  1  0  0  0
 60133  1  0  0  0
 60134  1  0  0  0
 60135  1  0  0  0
 61136  1  0  0  0
 61137  1  0  0  0
 61138  1  0  0  0
 62139  1  0  0  0
 62140  1  0  0  0
 62141  1  0  0  0
 63 65  1  0  0  0
 63142  1  0  0  0
 63143  1  0  0  0
 63144  1  0  0  0
 64145  1  0  0  0
 65146  1  0  0  0
 68 82  1  0  0  0
 71 72  2  0  0  0
 71 86  1  0  0  0
 71147  1  0  0  0
 72 77  1  0  0  0
 72 85  1  0  0  0
 73 78  1  0  0  0
 73 85  1  0  0  0
 73 86  2  0  0  0
 74148  1  0  0  0
 74149  1  0  0  0
 74150  1  0  0  0
 74 83  1  0  0  0
 75 83  1  0  0  0
 75151  1  0  0  0
 75152  1  0  0  0
 75153  1  0  0  0
 76154  1  0  0  0
 76155  1  0  0  0
 76156  1  0  0  0
 76 84  1  0  0  0
 77 79  1  0  0  0
 77157  1  0  0  0
 77158  1  0  0  0
 78 80  1  0  0  0
 78159  1  0  0  0
 78160  1  0  0  0
 79 82  1  0  0  0
 79161  1  0  0  0
 79162  1  0  0  0
 80 83  1  0  0  0
 80163  1  0  0  0
 80164  1  0  0  0
 81 84  1  0  0  0
 81 87  1  0  0  0
 81165  1  0  0  0
 81166  1  0  0  0
 82167  1  0  0  0
 82168  1  0  0  0
 83169  1  0  0  0
 84 85  1  0  0  0
 84170  1  0  0  0
 86171  1  0  0  0
 87172  1  0  0  0
M  CHG  1  86   1
M  ISO  4   1 100  68 101  82 101  87 100
M  END
> <chiral flag>
0

> <version>
0

> <s_m_source_file>
/data/baiqing/PycharmProjects/Reinvent-master-3.2/result/LINK_invent/BTK/process_docking_weight1_custom_sum_contain_oxygen_bond_distance_aromatic_linkinvent_7_9_3/rearranged_h_0087.sdf

> <i_m_source_file_index>
94

> <r_mmod_Potential_Energy-OPLS-2005>
274.43115234375

> <r_mmod_Stretch_Energy-OPLS-2005>
147.562637329102

> <r_mmod_Bend_Energy-OPLS-2005>
228.914978027344

> <r_mmod_Torsional_Energy-OPLS-2005>
331.031585693359

> <r_mmod_Improper_Torsional_Energy-OPLS-2005>
9.09425640106201

> <r_mmod_Van_der_Waal_Energy-OPLS-2005>
104.51490020752

> <r_mmod_Electrostatic_Energy-OPLS-2005>
-226.753860473633

> <r_mmod_Solvation_Energy-OPLS-2005>
-422.035217285156

> <b_mmod_Minimization_Converged-OPLS-2005>
0

> <r_mmod_RMS_Derivative-OPLS-2005>
5.11077833175659

$$$$
95
                    3D
 Structure written by MMmdl.
181189  0  0  1  0            999 V2000
  -30.6272  -14.4607   20.6005 C   0  0  0  0  0  0
  -30.4450  -12.3003   19.4162 C   0  0  0  0  0  0
  -29.5033  -12.5051   18.2099 C   0  0  0  0  0  0
  -28.0235  -12.3453   18.6184 C   0  0  0  0  0  0
  -27.6678  -13.1781   19.8806 C   0  0  2  0  0  0
  -28.7012  -12.8963   20.9933 C   0  0  0  0  0  0
  -25.2623  -13.8114   20.5656 C   0  0  0  0  0  0
  -24.1849  -13.0438   20.9168 C   0  0  0  0  0  0
  -24.6356  -11.6892   20.8701 C   0  0  0  0  0  0
  -23.9038  -10.4293   21.0378 C   0  0  0  0  0  0
  -24.3597   -9.4240   21.9160 C   0  0  0  0  0  0
  -23.6292   -8.2279   22.0752 C   0  0  0  0  0  0
  -22.4266   -8.0290   21.3564 C   0  0  0  0  0  0
  -21.9888   -9.0260   20.4656 C   0  0  0  0  0  0
  -22.7211  -10.2139   20.3046 C   0  0  0  0  0  0
  -21.6841   -6.0738   22.5287 C   0  0  0  0  0  0
  -21.4004   -6.5648   23.8220 C   0  0  0  0  0  0
  -21.3671   -5.6802   24.9175 C   0  0  0  0  0  0
  -21.6047   -4.3064   24.7224 C   0  0  0  0  0  0
  -21.8834   -3.8153   23.4343 C   0  0  0  0  0  0
  -21.9204   -4.6964   22.3397 C   0  0  0  0  0  0
  -22.7877  -13.5234   21.1868 C   0  0  0  0  0  0
  -22.1660   -4.2145   21.0976 F   0  0  0  0  0  0
  -21.5645   -3.4556   25.7737 F   0  0  0  0  0  0
  -30.0364  -13.2438   20.4641 N   0  0  0  0  0  0
  -26.3031  -12.9222   20.3341 N   0  0  0  0  0  0
  -25.9261  -11.6407   20.5757 N   0  0  0  0  0  0
  -22.0546  -12.8187   22.0418 N   0  0  0  0  0  0
  -25.4397  -15.1830   20.4035 N   0  0  0  0  0  0
  -31.7206  -14.7562   20.0996 O   0  0  0  0  0  0
  -21.6665   -6.8868   21.4238 O   0  0  0  0  0  0
  -22.3557  -14.5569   20.6757 O   0  0  0  0  0  0
  -24.6061  -31.8701   23.2090 C   0  0  0  0  0  0
  -25.8976  -32.4791   23.8379 C   0  0  1  0  0  0
  -27.2431  -27.4579   20.0673 C   0  0  0  0  0  0
  -25.5837  -33.8594   24.2310 N   0  0  0  0  0  0
  -23.3949  -30.4933   21.5523 C   0  0  2  0  0  0
  -24.8429  -28.9633   20.1169 C   0  0  0  0  0  0
  -22.7369  -29.4684   22.5048 C   0  0  0  0  0  0
  -18.0289  -28.1384   22.8446 C   0  0  0  0  0  0
  -24.1507  -36.7331   23.2641 C   0  0  0  0  0  0
  -25.9230  -30.8364   21.3661 C   0  0  0  0  0  0
  -26.0000  -29.4737   20.7131 C   0  0  0  0  0  0
  -27.2000  -28.7283   20.6842 C   0  0  0  0  0  0
  -26.0495  -26.9457   19.5001 C   0  0  0  0  0  0
  -24.8604  -27.6951   19.5132 C   0  0  0  0  0  0
  -23.6017  -29.8227   20.1693 C   0  0  0  0  0  0
  -25.4120  -36.3115   24.0345 C   0  0  1  0  0  0
  -20.5851  -28.3661   23.1306 C   0  0  2  0  0  0
  -20.6772  -26.9442   22.5287 C   0  0  0  0  0  0
  -19.5760  -26.6447   21.5054 C   0  0  0  0  0  0
  -18.1964  -26.7982   22.1478 C   0  0  0  0  0  0
  -19.1530  -28.8828   23.2871 C   0  0  0  0  0  0
  -18.9464  -30.1440   23.8836 C   0  0  0  0  0  0
  -17.6488  -30.6593   24.0481 C   0  0  0  0  0  0
  -25.9031  -34.9467   23.5139 C   0  0  0  0  0  0
  -16.5392  -29.9100   23.6231 C   0  0  0  0  0  0
  -16.7304  -28.6521   23.0246 C   0  0  0  0  0  0
  -26.4433  -31.6543   25.0688 C   0  0  0  0  0  0
  -25.3722  -31.3584   26.1450 C   0  0  0  0  0  0
  -27.0276  -30.2998   24.6000 C   0  0  0  0  0  0
  -27.6013  -32.4266   25.7456 C   0  0  0  0  0  0
  -27.5590  -37.1824   24.8451 C   0  0  0  0  0  0
  -21.4089  -29.3109   22.3785 N   0  0  0  0  0  0
  -26.4310  -37.3805   23.9399 N   0  0  0  0  0  0
  -24.6587  -31.0832   22.0981 N   0  0  0  0  0  0
  -23.4117  -28.8224   23.3076 O   0  0  0  0  0  0
  -28.4631  -26.8086   20.0166 O   0  0  0  0  0  0
  -26.5620  -34.8909   22.4706 O   0  0  0  0  0  0
  -23.5271  -32.1451   23.7496 O   0  0  0  0  0  0
  -28.9037  -19.6563   21.0963 C   0  0  0  0  0  0
  -28.0956  -20.7537   20.9428 C   0  0  0  0  0  0
  -26.9234  -20.4366   21.6873 C   0  0  0  0  0  0
  -27.3775  -19.6144   22.7037 C   0  0  0  0  0  0
  -24.8178  -22.0712   22.1024 C   0  0  0  0  0  0
  -27.9083  -21.8123   18.6329 C   0  0  0  0  0  0
  -28.9439  -16.7855   23.5867 C   0  0  0  0  0  0
  -25.4807  -18.9183   24.2500 C   0  0  0  0  0  0
  -26.7701  -21.0713   24.6559 C   0  0  0  0  0  0
  -27.7823  -19.0228   25.2401 C   0  0  0  0  0  0
  -25.5011  -20.9116   21.3496 C   0  0  0  0  0  0
  -28.5498  -24.5341   20.8300 C   0  0  0  0  0  0
  -27.7117  -23.2496   20.7216 C   0  0  0  0  0  0
  -29.8496  -16.8243   21.2355 C   0  0  0  0  0  0
  -28.5606  -25.4428   19.5928 C   0  0  0  0  0  0
  -28.3636  -21.9914   20.0876 C   0  0  1  0  0  0
  -28.7115  -17.3534   22.1787 C   0  0  2  0  0  0
  -26.8542  -19.6034   24.1506 C   0  0  0  0  0  0
  -28.3629  -18.8130   22.0642 N   0  0  0  0  0  0
  -29.8271  -15.3533   21.2047 N   0  0  0  0  0  0
  -31.4863  -12.4362   19.1177 H   0  0  0  0  0  0
  -30.3791  -11.2764   19.7901 H   0  0  0  0  0  0
  -29.7544  -11.8042   17.4133 H   0  0  0  0  0  0
  -29.6583  -13.5023   17.7966 H   0  0  0  0  0  0
  -27.8429  -11.2878   18.8179 H   0  0  0  0  0  0
  -27.3680  -12.6131   17.7879 H   0  0  0  0  0  0
  -27.7334  -14.2307   19.6020 H   0  0  0  0  0  0
  -28.6760  -11.8405   21.2622 H   0  0  0  0  0  0
  -28.4451  -13.4179   21.9169 H   0  0  0  0  0  0
  -25.2757   -9.5734   22.4698 H   0  0  0  0  0  0
  -24.0043   -7.4667   22.7453 H   0  0  0  0  0  0
  -21.0847   -8.8776   19.8925 H   0  0  0  0  0  0
  -22.3696  -10.9671   19.6141 H   0  0  0  0  0  0
  -21.1980   -7.6149   23.9708 H   0  0  0  0  0  0
  -21.1471   -6.0529   25.9079 H   0  0  0  0  0  0
  -22.0591   -2.7612   23.2858 H   0  0  0  0  0  0
  -22.4190  -11.9798   22.4690 H   0  0  0  0  0  0
  -21.1153  -13.1154   22.2713 H   0  0  0  0  0  0
  -24.6714  -15.8361   20.5052 H   0  0  0  0  0  0
  -26.2890  -15.6232   20.0759 H   0  0  0  0  0  0
  -26.7013  -32.5494   23.1122 H   0  0  0  0  0  0
  -24.9914  -33.9743   25.0411 H   0  0  0  0  0  0
  -22.6794  -31.3074   21.4122 H   0  0  0  0  0  0
  -23.3761  -35.9675   23.3309 H   0  0  0  0  0  0
  -24.3592  -36.8938   22.2048 H   0  0  0  0  0  0
  -23.7289  -37.6547   23.6657 H   0  0  0  0  0  0
  -26.0411  -31.6013   20.5976 H   0  0  0  0  0  0
  -26.8089  -30.8773   21.9903 H   0  0  0  0  0  0
  -28.1006  -29.1386   21.1211 H   0  0  0  0  0  0
  -26.0007  -25.9841   19.0163 H   0  0  0  0  0  0
  -23.9684  -27.2934   19.0560 H   0  0  0  0  0  0
  -23.6980  -30.5950   19.4072 H   0  0  0  0  0  0
  -22.7305  -29.2308   19.8751 H   0  0  0  0  0  0
  -25.1318  -36.1972   25.0847 H   0  0  0  0  0  0
  -20.9926  -28.3131   24.1433 H   0  0  0  0  0  0
  -20.5817  -26.2202   23.3397 H   0  0  0  0  0  0
  -21.6628  -26.7570   22.0991 H   0  0  0  0  0  0
  -19.6883  -25.6402   21.0950 H   0  0  0  0  0  0
  -19.6640  -27.3293   20.6628 H   0  0  0  0  0  0
  -17.4302  -26.6969   21.3800 H   0  0  0  0  0  0
  -18.0318  -26.0010   22.8744 H   0  0  0  0  0  0
  -19.7952  -30.7270   24.2156 H   0  0  0  0  0  0
  -17.5107  -31.6254   24.5109 H   0  0  0  0  0  0
  -15.5426  -30.3052   23.7579 H   0  0  0  0  0  0
  -15.8691  -28.0864   22.6904 H   0  0  0  0  0  0
  -24.5944  -30.6862   25.7784 H   0  0  0  0  0  0
  -24.8865  -32.2712   26.4910 H   0  0  0  0  0  0
  -25.8124  -30.8769   27.0197 H   0  0  0  0  0  0
  -26.2802  -29.6741   24.1090 H   0  0  0  0  0  0
  -27.4124  -29.7194   25.4393 H   0  0  0  0  0  0
  -27.8604  -30.4330   23.9093 H   0  0  0  0  0  0
  -27.2614  -33.3549   26.2057 H   0  0  0  0  0  0
  -28.3820  -32.6823   25.0283 H   0  0  0  0  0  0
  -28.0681  -31.8375   26.5359 H   0  0  0  0  0  0
  -28.2626  -38.0111   24.7552 H   0  0  0  0  0  0
  -28.1088  -36.2654   24.6259 H   0  0  0  0  0  0
  -27.2297  -37.1459   25.8850 H   0  0  0  0  0  0
  -20.9235  -29.8786   21.6991 H   0  0  0  0  0  0
  -26.0197  -38.2902   24.1350 H   0  0  0  0  0  0
  -29.7969  -19.4028   20.5447 H   0  0  0  0  0  0
  -23.9071  -22.3601   21.5803 H   0  0  0  0  0  0
  -25.4236  -22.9702   22.1561 H   0  0  0  0  0  0
  -24.5039  -21.8008   23.1076 H   0  0  0  0  0  0
  -26.8216  -21.7802   18.5473 H   0  0  0  0  0  0
  -28.3057  -20.8897   18.2060 H   0  0  0  0  0  0
  -28.2575  -22.6428   18.0200 H   0  0  0  0  0  0
  -29.4314  -15.8123   23.5949 H   0  0  0  0  0  0
  -27.9937  -16.5936   24.0746 H   0  0  0  0  0  0
  -29.5992  -17.4240   24.1707 H   0  0  0  0  0  0
  -24.7241  -19.4217   23.6474 H   0  0  0  0  0  0
  -25.1156  -18.9094   25.2771 H   0  0  0  0  0  0
  -25.5386  -17.8799   23.9228 H   0  0  0  0  0  0
  -27.7624  -21.4559   24.8984 H   0  0  0  0  0  0
  -26.1673  -21.1556   25.5583 H   0  0  0  0  0  0
  -26.3977  -21.7949   23.9493 H   0  0  0  0  0  0
  -27.5990  -17.9763   25.4484 H   0  0  0  0  0  0
  -27.6051  -19.4775   26.2176 H   0  0  0  0  0  0
  -28.8359  -19.2041   25.0155 H   0  0  0  0  0  0
  -24.8460  -20.0418   21.4025 H   0  0  0  0  0  0
  -25.5131  -21.1787   20.2948 H   0  0  0  0  0  0
  -29.5684  -24.2996   21.1422 H   0  0  0  0  0  0
  -28.1268  -25.1131   21.6519 H   0  0  0  0  0  0
  -26.7380  -23.4577   20.2722 H   0  0  0  0  0  0
  -27.5071  -23.0084   21.7608 H   0  0  0  0  0  0
  -30.8275  -17.1817   21.5653 H   0  0  0  0  0  0
  -29.6970  -17.1557   20.2089 H   0  0  0  0  0  0
  -27.8273  -25.1420   18.8480 H   0  0  0  0  0  0
  -29.5198  -25.3255   19.0894 H   0  0  0  0  0  0
  -29.4478  -22.1235   20.0934 H   0  0  0  0  0  0
  -27.8112  -16.8560   21.8115 H   0  0  0  0  0  0
  -28.9891  -14.9417   21.5839 H   0  0  0  0  0  0
  1 25  1  0  0  0
  1 30  2  0  0  0
  1 90  1  0  0  0
  2  3  1  0  0  0
  2 25  1  0  0  0
  2 91  1  0  0  0
  2 92  1  0  0  0
  3  4  1  0  0  0
  3 93  1  0  0  0
  3 94  1  0  0  0
  4  5  1  0  0  0
  4 95  1  0  0  0
  4 96  1  0  0  0
  5  6  1  0  0  0
  5 26  1  0  0  0
  5 97  1  0  0  0
  6 25  1  0  0  0
  6 98  1  0  0  0
  6 99  1  0  0  0
  7  8  2  0  0  0
  7 26  1  0  0  0
  7 29  1  0  0  0
  8  9  1  0  0  0
  8 22  1  0  0  0
  9 10  1  0  0  0
  9 27  2  0  0  0
 10 11  2  0  0  0
 10 15  1  0  0  0
 11 12  1  0  0  0
 11100  1  0  0  0
 12 13  2  0  0  0
 12101  1  0  0  0
 13 14  1  0  0  0
 13 31  1  0  0  0
 14 15  2  0  0  0
 14102  1  0  0  0
 15103  1  0  0  0
 16 17  2  0  0  0
 16 21  1  0  0  0
 16 31  1  0  0  0
 17 18  1  0  0  0
 17104  1  0  0  0
 18 19  2  0  0  0
 18105  1  0  0  0
 19 20  1  0  0  0
 19 24  1  0  0  0
 20 21  2  0  0  0
 20106  1  0  0  0
 21 23  1  0  0  0
 22 28  1  0  0  0
 22 32  2  0  0  0
 26 27  1  0  0  0
 28107  1  0  0  0
 28108  1  0  0  0
 29109  1  0  0  0
 29110  1  0  0  0
 33 34  1  0  0  0
 33 66  1  0  0  0
 33 70  2  0  0  0
 34 36  1  0  0  0
 34 59  1  0  0  0
 34111  1  0  0  0
 35 44  2  0  0  0
 35 45  1  0  0  0
 35 68  1  0  0  0
 36 56  1  0  0  0
 36112  1  0  0  0
 37 39  1  0  0  0
 37 47  1  0  0  0
 37 66  1  0  0  0
 37113  1  0  0  0
 38 43  2  0  0  0
 38 46  1  0  0  0
 38 47  1  0  0  0
 39 64  1  0  0  0
 39 67  2  0  0  0
 40 52  1  0  0  0
 40 53  2  0  0  0
 40 58  1  0  0  0
 41114  1  0  0  0
 41115  1  0  0  0
 41116  1  0  0  0
 41 48  1  0  0  0
 42 43  1  0  0  0
 42 66  1  0  0  0
 42117  1  0  0  0
 42118  1  0  0  0
 43 44  1  0  0  0
 44119  1  0  0  0
 45 46  2  0  0  0
 45120  1  0  0  0
 46121  1  0  0  0
 47122  1  0  0  0
 47123  1  0  0  0
 48 56  1  0  0  0
 48 65  1  0  0  0
 48124  1  0  0  0
 49 50  1  0  0  0
 49 53  1  0  0  0
 49 64  1  0  0  0
 49125  1  0  0  0
 50 51  1  0  0  0
 50126  1  0  0  0
 50127  1  0  0  0
 51 52  1  0  0  0
 51128  1  0  0  0
 51129  1  0  0  0
 52130  1  0  0  0
 52131  1  0  0  0
 53 54  1  0  0  0
 54 55  2  0  0  0
 54132  1  0  0  0
 55 57  1  0  0  0
 55133  1  0  0  0
 56 69  2  0  0  0
 57 58  2  0  0  0
 57134  1  0  0  0
 58135  1  0  0  0
 59 60  1  0  0  0
 59 61  1  0  0  0
 59 62  1  0  0  0
 60136  1  0  0  0
 60137  1  0  0  0
 60138  1  0  0  0
 61139  1  0  0  0
 61140  1  0  0  0
 61141  1  0  0  0
 62142  1  0  0  0
 62143  1  0  0  0
 62144  1  0  0  0
 63 65  1  0  0  0
 63145  1  0  0  0
 63146  1  0  0  0
 63147  1  0  0  0
 64148  1  0  0  0
 65149  1  0  0  0
 68 85  1  0  0  0
 71 72  2  0  0  0
 71 89  1  0  0  0
 71150  1  0  0  0
 72 73  1  0  0  0
 72 86  1  0  0  0
 73 74  2  0  0  0
 73 81  1  0  0  0
 74 88  1  0  0  0
 74 89  1  0  0  0
 75 81  1  0  0  0
 75151  1  0  0  0
 75152  1  0  0  0
 75153  1  0  0  0
 76154  1  0  0  0
 76155  1  0  0  0
 76156  1  0  0  0
 76 86  1  0  0  0
 77157  1  0  0  0
 77158  1  0  0  0
 77159  1  0  0  0
 77 87  1  0  0  0
 78160  1  0  0  0
 78161  1  0  0  0
 78162  1  0  0  0
 78 88  1  0  0  0
 79 88  1  0  0  0
 79163  1  0  0  0
 79164  1  0  0  0
 79165  1  0  0  0
 80 88  1  0  0  0
 80166  1  0  0  0
 80167  1  0  0  0
 80168  1  0  0  0
 81169  1  0  0  0
 81170  1  0  0  0
 82 83  1  0  0  0
 82 85  1  0  0  0
 82171  1  0  0  0
 82172  1  0  0  0
 83 86  1  0  0  0
 83173  1  0  0  0
 83174  1  0  0  0
 84 87  1  0  0  0
 84 90  1  0  0  0
 84175  1  0  0  0
 84176  1  0  0  0
 85177  1  0  0  0
 85178  1  0  0  0
 86179  1  0  0  0
 87 89  1  0  0  0
 87180  1  0  0  0
 90181  1  0  0  0
M  ISO  4   1 100  68 101  85 101  90 100
M  END
> <chiral flag>
0

> <version>
0

> <s_m_source_file>
/data/baiqing/PycharmProjects/Reinvent-master-3.2/result/LINK_invent/BTK/process_docking_weight1_custom_sum_contain_oxygen_bond_distance_aromatic_linkinvent_7_9_3/rearranged_h_0087.sdf

> <i_m_source_file_index>
95

> <r_mmod_Potential_Energy-OPLS-2005>
127.942260742188

> <r_mmod_Stretch_Energy-OPLS-2005>
49.7910346984863

> <r_mmod_Bend_Energy-OPLS-2005>
187.092376708984

> <r_mmod_Torsional_Energy-OPLS-2005>
402.964080810547

> <r_mmod_Improper_Torsional_Energy-OPLS-2005>
5.11460971832275

> <r_mmod_Van_der_Waal_Energy-OPLS-2005>
159.43229675293

> <r_mmod_Electrostatic_Energy-OPLS-2005>
-499.289611816406

> <r_mmod_Solvation_Energy-OPLS-2005>
-190.985961914062

> <b_mmod_Minimization_Converged-OPLS-2005>
0

> <r_mmod_RMS_Derivative-OPLS-2005>
6.0807785987854

$$$$
96
                    3D
 Structure written by MMmdl.
175183  0  0  1  0            999 V2000
  -30.6797  -14.4543   20.5738 C   0  0  0  0  0  0
  -30.4294  -12.2918   19.4217 C   0  0  0  0  0  0
  -29.4990  -12.5083   18.2089 C   0  0  0  0  0  0
  -28.0187  -12.3681   18.6184 C   0  0  0  0  0  0
  -27.6674  -13.1976   19.8827 C   0  0  2  0  0  0
  -28.7063  -12.9487   21.0019 C   0  0  0  0  0  0
  -25.2617  -13.8144   20.5673 C   0  0  0  0  0  0
  -24.1852  -13.0438   20.9166 C   0  0  0  0  0  0
  -24.6391  -11.6895   20.8738 C   0  0  0  0  0  0
  -23.9050  -10.4286   21.0408 C   0  0  0  0  0  0
  -24.3610   -9.4203   21.9184 C   0  0  0  0  0  0
  -23.6290   -8.2239   22.0755 C   0  0  0  0  0  0
  -22.4270   -8.0281   21.3548 C   0  0  0  0  0  0
  -21.9901   -9.0249   20.4646 C   0  0  0  0  0  0
  -22.7227  -10.2128   20.3053 C   0  0  0  0  0  0
  -21.6849   -6.0738   22.5279 C   0  0  0  0  0  0
  -21.4014   -6.5641   23.8213 C   0  0  0  0  0  0
  -21.3659   -5.6794   24.9177 C   0  0  0  0  0  0
  -21.6044   -4.3055   24.7224 C   0  0  0  0  0  0
  -21.8817   -3.8149   23.4345 C   0  0  0  0  0  0
  -21.9190   -4.6967   22.3405 C   0  0  0  0  0  0
  -22.7874  -13.5246   21.1840 C   0  0  0  0  0  0
  -22.1659   -4.2154   21.0980 F   0  0  0  0  0  0
  -21.5628   -3.4536   25.7737 F   0  0  0  0  0  0
  -30.0426  -13.2585   20.4593 N   0  0  0  0  0  0
  -26.3050  -12.9289   20.3382 N   0  0  0  0  0  0
  -25.9316  -11.6458   20.5768 N   0  0  0  0  0  0
  -22.0512  -12.8236   22.0394 N   0  0  0  0  0  0
  -25.4350  -15.1862   20.4090 N   0  0  0  0  0  0
  -31.7877  -14.6853   20.0811 O   0  0  0  0  0  0
  -21.6635   -6.8880   21.4242 O   0  0  0  0  0  0
  -22.3559  -14.5556   20.6698 O   0  0  0  0  0  0
  -24.6126  -31.8684   23.2093 C   0  0  0  0  0  0
  -25.9015  -32.4831   23.8397 C   0  0  1  0  0  0
  -27.2439  -27.4486   20.1039 C   0  0  0  0  0  0
  -25.5882  -33.8637   24.2328 N   0  0  0  0  0  0
  -23.4004  -30.4889   21.5502 C   0  0  2  0  0  0
  -24.8494  -28.9503   20.1201 C   0  0  0  0  0  0
  -22.7402  -29.4659   22.5012 C   0  0  0  0  0  0
  -18.0268  -28.1369   22.8498 C   0  0  0  0  0  0
  -24.1489  -36.7313   23.2642 C   0  0  0  0  0  0
  -25.9268  -30.8393   21.3585 C   0  0  0  0  0  0
  -26.0064  -29.4716   20.7131 C   0  0  0  0  0  0
  -27.2068  -28.7291   20.7015 C   0  0  0  0  0  0
  -26.0761  -26.9383   19.5001 C   0  0  0  0  0  0
  -24.8785  -27.6820   19.5120 C   0  0  0  0  0  0
  -23.6091  -29.8141   20.1667 C   0  0  0  0  0  0
  -25.4110  -36.3125   24.0341 C   0  0  1  0  0  0
  -20.5863  -28.3643   23.1337 C   0  0  2  0  0  0
  -20.6766  -26.9376   22.5428 C   0  0  0  0  0  0
  -19.5743  -26.6374   21.5222 C   0  0  0  0  0  0
  -18.1915  -26.7920   22.1617 C   0  0  0  0  0  0
  -19.1519  -28.8822   23.2910 C   0  0  0  0  0  0
  -18.9444  -30.1429   23.8908 C   0  0  0  0  0  0
  -17.6447  -30.6582   24.0557 C   0  0  0  0  0  0
  -25.9034  -34.9491   23.5136 C   0  0  0  0  0  0
  -16.5338  -29.9081   23.6315 C   0  0  0  0  0  0
  -16.7256  -28.6496   23.0346 C   0  0  0  0  0  0
  -26.4444  -31.6609   25.0724 C   0  0  0  0  0  0
  -25.3720  -31.3710   26.1481 C   0  0  0  0  0  0
  -27.0259  -30.3065   24.6064 C   0  0  0  0  0  0
  -27.6042  -32.4315   25.7461 C   0  0  0  0  0  0
  -27.5583  -37.1816   24.8468 C   0  0  0  0  0  0
  -21.4132  -29.3019   22.3740 N   0  0  0  0  0  0
  -26.4299  -37.3807   23.9407 N   0  0  0  0  0  0
  -24.6654  -31.0811   22.0972 N   0  0  0  0  0  0
  -23.4182  -28.8217   23.3053 O   0  0  0  0  0  0
  -28.4257  -26.7397   20.0510 O   0  0  0  0  0  0
  -26.5612  -34.8930   22.4704 O   0  0  0  0  0  0
  -23.5325  -32.1412   23.7504 O   0  0  0  0  0  0
  -27.4845  -20.4852   21.3171 C   0  0  0  0  0  0
  -28.2632  -21.6594   21.1160 C   0  0  0  0  0  0
  -30.1996  -20.3729   21.3632 C   0  0  0  0  0  0
  -29.4106  -19.2124   21.6234 C   0  0  0  0  0  0
  -25.4289  -20.5779   22.7977 C   0  0  0  0  0  0
  -32.3207  -21.0905   22.5498 C   0  0  0  0  0  0
  -32.2649  -20.9618   20.0061 C   0  0  0  0  0  0
  -29.2307  -17.2354   23.2209 C   0  0  0  0  0  0
  -28.0124  -25.9600   22.4056 C   0  0  0  0  0  0
  -25.9630  -20.4716   21.3641 C   0  0  0  0  0  0
  -27.6081  -23.0477   20.9508 C   0  0  0  0  0  0
  -28.4956  -24.2488   20.4614 C   0  0  0  0  0  0
  -29.9853  -16.8641   20.7636 C   0  0  0  0  0  0
  -31.7292  -20.3772   21.3245 C   0  0  0  0  0  0
  -29.9610  -17.8170   21.9897 C   0  0  1  0  0  0
  -28.6745  -25.7039   21.0292 C   0  0  1  0  0  0
  -28.0582  -19.2821   21.5554 N   0  0  0  0  0  0
  -29.6181  -21.5848   21.1410 N   0  0  0  0  0  0
  -29.9177  -15.4307   21.0900 N   0  0  0  0  0  0
  -31.4746  -12.3968   19.1253 H   0  0  0  0  0  0
  -30.3303  -11.2743   19.8034 H   0  0  0  0  0  0
  -29.7384  -11.7945   17.4197 H   0  0  0  0  0  0
  -29.6700  -13.4995   17.7856 H   0  0  0  0  0  0
  -27.8268  -11.3107   18.8056 H   0  0  0  0  0  0
  -27.3694  -12.6514   17.7888 H   0  0  0  0  0  0
  -27.7195  -14.2491   19.5997 H   0  0  0  0  0  0
  -28.6754  -11.9046   21.3186 H   0  0  0  0  0  0
  -28.4673  -13.5249   21.8973 H   0  0  0  0  0  0
  -25.2757   -9.5679   22.4753 H   0  0  0  0  0  0
  -24.0001   -7.4628   22.7469 H   0  0  0  0  0  0
  -21.0835   -8.8764   19.8950 H   0  0  0  0  0  0
  -22.3689  -10.9668   19.6161 H   0  0  0  0  0  0
  -21.2006   -7.6146   23.9722 H   0  0  0  0  0  0
  -21.1485   -6.0520   25.9080 H   0  0  0  0  0  0
  -22.0599   -2.7610   23.2841 H   0  0  0  0  0  0
  -22.4118  -11.9885   22.4766 H   0  0  0  0  0  0
  -21.1137  -13.1268   22.2613 H   0  0  0  0  0  0
  -24.6726  -15.8440   20.5262 H   0  0  0  0  0  0
  -26.2942  -15.6267   20.1048 H   0  0  0  0  0  0
  -26.7088  -32.5536   23.1166 H   0  0  0  0  0  0
  -25.0069  -33.9798   25.0506 H   0  0  0  0  0  0
  -22.6886  -31.3047   21.4082 H   0  0  0  0  0  0
  -23.3758  -35.9642   23.3327 H   0  0  0  0  0  0
  -24.3592  -36.8907   22.2053 H   0  0  0  0  0  0
  -23.7230  -37.6521   23.6640 H   0  0  0  0  0  0
  -26.0426  -31.6000   20.5842 H   0  0  0  0  0  0
  -26.8155  -30.8964   21.9760 H   0  0  0  0  0  0
  -28.1043  -29.1332   21.1476 H   0  0  0  0  0  0
  -26.0945  -25.9752   19.0104 H   0  0  0  0  0  0
  -23.9910  -27.2771   19.0437 H   0  0  0  0  0  0
  -23.7109  -30.5867   19.4023 H   0  0  0  0  0  0
  -22.7342  -29.2290   19.8759 H   0  0  0  0  0  0
  -25.1293  -36.2003   25.0837 H   0  0  0  0  0  0
  -20.9937  -28.3193   24.1464 H   0  0  0  0  0  0
  -20.5690  -26.2225   23.3603 H   0  0  0  0  0  0
  -21.6632  -26.7440   22.1200 H   0  0  0  0  0  0
  -19.6892  -25.6295   21.1221 H   0  0  0  0  0  0
  -19.6696  -27.3203   20.6773 H   0  0  0  0  0  0
  -17.4193  -26.6673   21.4002 H   0  0  0  0  0  0
  -18.0291  -26.0072   22.9016 H   0  0  0  0  0  0
  -19.7927  -30.7237   24.2284 H   0  0  0  0  0  0
  -17.5011  -31.6265   24.5145 H   0  0  0  0  0  0
  -15.5340  -30.2982   23.7654 H   0  0  0  0  0  0
  -15.8652  -28.0810   22.7074 H   0  0  0  0  0  0
  -24.5848  -30.7113   25.7807 H   0  0  0  0  0  0
  -24.8960  -32.2873   26.4992 H   0  0  0  0  0  0
  -25.8063  -30.8809   27.0205 H   0  0  0  0  0  0
  -26.2785  -29.6848   24.1122 H   0  0  0  0  0  0
  -27.4074  -29.7267   25.4480 H   0  0  0  0  0  0
  -27.8594  -30.4419   23.9166 H   0  0  0  0  0  0
  -27.2689  -33.3609   26.2071 H   0  0  0  0  0  0
  -28.3814  -32.6889   25.0253 H   0  0  0  0  0  0
  -28.0750  -31.8427   26.5342 H   0  0  0  0  0  0
  -28.2624  -38.0098   24.7532 H   0  0  0  0  0  0
  -28.1057  -36.2637   24.6276 H   0  0  0  0  0  0
  -27.2310  -37.1459   25.8876 H   0  0  0  0  0  0
  -20.9283  -29.8731   21.6966 H   0  0  0  0  0  0
  -26.0191  -38.2891   24.1399 H   0  0  0  0  0  0
  -24.3401  -20.5281   22.8131 H   0  0  0  0  0  0
  -25.7280  -21.5183   23.2612 H   0  0  0  0  0  0
  -25.8067  -19.7637   23.4179 H   0  0  0  0  0  0
  -31.9992  -20.6095   23.4741 H   0  0  0  0  0  0
  -32.0062  -22.1342   22.5939 H   0  0  0  0  0  0
  -33.4105  -21.0713   22.5273 H   0  0  0  0  0  0
  -31.8649  -20.4188   19.1486 H   0  0  0  0  0  0
  -33.3523  -20.8982   19.9612 H   0  0  0  0  0  0
  -31.9938  -22.0123   19.8929 H   0  0  0  0  0  0
  -29.2482  -17.9436   24.0499 H   0  0  0  0  0  0
  -29.7034  -16.3197   23.5763 H   0  0  0  0  0  0
  -28.1869  -17.0075   23.0023 H   0  0  0  0  0  0
  -28.3677  -25.2478   23.1505 H   0  0  0  0  0  0
  -26.9271  -25.8690   22.3627 H   0  0  0  0  0  0
  -28.2526  -26.9558   22.7795 H   0  0  0  0  0  0
  -25.6133  -19.5380   20.9209 H   0  0  0  0  0  0
  -25.5341  -21.2560   20.7438 H   0  0  0  0  0  0
  -27.1089  -23.2893   21.8921 H   0  0  0  0  0  0
  -26.8085  -22.8905   20.2227 H   0  0  0  0  0  0
  -29.0712  -24.0023   21.3526 H   0  0  0  0  0  0
  -27.5122  -24.6765   20.2842 H   0  0  0  0  0  0
  -30.8436  -17.1000   20.1312 H   0  0  0  0  0  0
  -29.1082  -17.0610   20.1460 H   0  0  0  0  0  0
  -32.0937  -19.3534   21.3365 H   0  0  0  0  0  0
  -30.9869  -17.9202   22.3358 H   0  0  0  0  0  0
  -29.7453  -25.8447   21.2037 H   0  0  0  0  0  0
  -29.0470  -15.1189   21.4946 H   0  0  0  0  0  0
  1 25  1  0  0  0
  1 30  2  0  0  0
  1 89  1  0  0  0
  2  3  1  0  0  0
  2 25  1  0  0  0
  2 90  1  0  0  0
  2 91  1  0  0  0
  3  4  1  0  0  0
  3 92  1  0  0  0
  3 93  1  0  0  0
  4  5  1  0  0  0
  4 94  1  0  0  0
  4 95  1  0  0  0
  5  6  1  0  0  0
  5 26  1  0  0  0
  5 96  1  0  0  0
  6 25  1  0  0  0
  6 97  1  0  0  0
  6 98  1  0  0  0
  7  8  2  0  0  0
  7 26  1  0  0  0
  7 29  1  0  0  0
  8  9  1  0  0  0
  8 22  1  0  0  0
  9 10  1  0  0  0
  9 27  2  0  0  0
 10 11  2  0  0  0
 10 15  1  0  0  0
 11 12  1  0  0  0
 11 99  1  0  0  0
 12 13  2  0  0  0
 12100  1  0  0  0
 13 14  1  0  0  0
 13 31  1  0  0  0
 14 15  2  0  0  0
 14101  1  0  0  0
 15102  1  0  0  0
 16 17  2  0  0  0
 16 21  1  0  0  0
 16 31  1  0  0  0
 17 18  1  0  0  0
 17103  1  0  0  0
 18 19  2  0  0  0
 18104  1  0  0  0
 19 20  1  0  0  0
 19 24  1  0  0  0
 20 21  2  0  0  0
 20105  1  0  0  0
 21 23  1  0  0  0
 22 28  1  0  0  0
 22 32  2  0  0  0
 26 27  1  0  0  0
 28106  1  0  0  0
 28107  1  0  0  0
 29108  1  0  0  0
 29109  1  0  0  0
 33 34  1  0  0  0
 33 66  1  0  0  0
 33 70  2  0  0  0
 34 36  1  0  0  0
 34 59  1  0  0  0
 34110  1  0  0  0
 35 44  2  0  0  0
 35 45  1  0  0  0
 35 68  1  0  0  0
 36 56  1  0  0  0
 36111  1  0  0  0
 37 39  1  0  0  0
 37 47  1  0  0  0
 37 66  1  0  0  0
 37112  1  0  0  0
 38 43  2  0  0  0
 38 46  1  0  0  0
 38 47  1  0  0  0
 39 64  1  0  0  0
 39 67  2  0  0  0
 40 52  1  0  0  0
 40 53  2  0  0  0
 40 58  1  0  0  0
 41113  1  0  0  0
 41114  1  0  0  0
 41115  1  0  0  0
 41 48  1  0  0  0
 42 43  1  0  0  0
 42 66  1  0  0  0
 42116  1  0  0  0
 42117  1  0  0  0
 43 44  1  0  0  0
 44118  1  0  0  0
 45 46  2  0  0  0
 45119  1  0  0  0
 46120  1  0  0  0
 47121  1  0  0  0
 47122  1  0  0  0
 48 56  1  0  0  0
 48 65  1  0  0  0
 48123  1  0  0  0
 49 50  1  0  0  0
 49 53  1  0  0  0
 49 64  1  0  0  0
 49124  1  0  0  0
 50 51  1  0  0  0
 50125  1  0  0  0
 50126  1  0  0  0
 51 52  1  0  0  0
 51127  1  0  0  0
 51128  1  0  0  0
 52129  1  0  0  0
 52130  1  0  0  0
 53 54  1  0  0  0
 54 55  2  0  0  0
 54131  1  0  0  0
 55 57  1  0  0  0
 55132  1  0  0  0
 56 69  2  0  0  0
 57 58  2  0  0  0
 57133  1  0  0  0
 58134  1  0  0  0
 59 60  1  0  0  0
 59 61  1  0  0  0
 59 62  1  0  0  0
 60135  1  0  0  0
 60136  1  0  0  0
 60137  1  0  0  0
 61138  1  0  0  0
 61139  1  0  0  0
 61140  1  0  0  0
 62141  1  0  0  0
 62142  1  0  0  0
 62143  1  0  0  0
 63 65  1  0  0  0
 63144  1  0  0  0
 63145  1  0  0  0
 63146  1  0  0  0
 64147  1  0  0  0
 65148  1  0  0  0
 68 86  1  0  0  0
 71 72  2  0  0  0
 71 80  1  0  0  0
 71 87  1  0  0  0
 72 81  1  0  0  0
 72 88  1  0  0  0
 73 74  1  0  0  0
 73 84  1  0  0  0
 73 88  2  0  0  0
 74 85  1  0  0  0
 74 87  2  0  0  0
 75 80  1  0  0  0
 75149  1  0  0  0
 75150  1  0  0  0
 75151  1  0  0  0
 76152  1  0  0  0
 76153  1  0  0  0
 76154  1  0  0  0
 76 84  1  0  0  0
 77 84  1  0  0  0
 77155  1  0  0  0
 77156  1  0  0  0
 77157  1  0  0  0
 78158  1  0  0  0
 78159  1  0  0  0
 78160  1  0  0  0
 78 85  1  0  0  0
 79161  1  0  0  0
 79162  1  0  0  0
 79163  1  0  0  0
 79 86  1  0  0  0
 80164  1  0  0  0
 80165  1  0  0  0
 81 82  1  0  0  0
 81166  1  0  0  0
 81167  1  0  0  0
 82 86  1  0  0  0
 82168  1  0  0  0
 82169  1  0  0  0
 83 85  1  0  0  0
 83 89  1  0  0  0
 83170  1  0  0  0
 83171  1  0  0  0
 84172  1  0  0  0
 85173  1  0  0  0
 86174  1  0  0  0
 89175  1  0  0  0
M  ISO  4   1 100  68 101  86 101  89 100
M  END
> <chiral flag>
0

> <version>
0

> <s_m_source_file>
/data/baiqing/PycharmProjects/Reinvent-master-3.2/result/LINK_invent/BTK/process_docking_weight1_custom_sum_contain_oxygen_bond_distance_aromatic_linkinvent_7_9_3/rearranged_h_0087.sdf

> <i_m_source_file_index>
96

> <r_mmod_Potential_Energy-OPLS-2005>
209.068939208984

> <r_mmod_Stretch_Energy-OPLS-2005>
47.1493759155273

> <r_mmod_Bend_Energy-OPLS-2005>
346.832122802734

> <r_mmod_Torsional_Energy-OPLS-2005>
226.060638427734

> <r_mmod_Improper_Torsional_Energy-OPLS-2005>
5.96738290786743

> <r_mmod_Van_der_Waal_Energy-OPLS-2005>
173.620651245117

> <r_mmod_Electrostatic_Energy-OPLS-2005>
-399.530487060547

> <r_mmod_Solvation_Energy-OPLS-2005>
-200.774597167969

> <b_mmod_Minimization_Converged-OPLS-2005>
0

> <r_mmod_RMS_Derivative-OPLS-2005>
2.01808476448059

$$$$
97
                    3D
 Structure written by MMmdl.
167175  0  0  1  0            999 V2000
  -30.6614  -14.5342   20.4997 C   0  0  0  0  0  0
  -30.4273  -12.3267   19.4287 C   0  0  0  0  0  0
  -29.4973  -12.4880   18.2071 C   0  0  0  0  0  0
  -28.0150  -12.3514   18.6160 C   0  0  0  0  0  0
  -27.6529  -13.2077   19.8580 C   0  0  2  0  0  0
  -28.6987  -13.0259   20.9799 C   0  0  0  0  0  0
  -25.2584  -13.8156   20.5676 C   0  0  0  0  0  0
  -24.1845  -13.0440   20.9220 C   0  0  0  0  0  0
  -24.6384  -11.6900   20.8735 C   0  0  0  0  0  0
  -23.9032  -10.4292   21.0383 C   0  0  0  0  0  0
  -24.3594   -9.4212   21.9160 C   0  0  0  0  0  0
  -23.6296   -8.2225   22.0708 C   0  0  0  0  0  0
  -22.4274   -8.0260   21.3501 C   0  0  0  0  0  0
  -21.9905   -9.0236   20.4605 C   0  0  0  0  0  0
  -22.7208  -10.2131   20.3031 C   0  0  0  0  0  0
  -21.6855   -6.0733   22.5278 C   0  0  0  0  0  0
  -21.4001   -6.5631   23.8214 C   0  0  0  0  0  0
  -21.3667   -5.6783   24.9176 C   0  0  0  0  0  0
  -21.6056   -4.3048   24.7221 C   0  0  0  0  0  0
  -21.8818   -3.8141   23.4339 C   0  0  0  0  0  0
  -21.9189   -4.6959   22.3397 C   0  0  0  0  0  0
  -22.7861  -13.5218   21.1890 C   0  0  0  0  0  0
  -22.1654   -4.2138   21.0976 F   0  0  0  0  0  0
  -21.5645   -3.4528   25.7731 F   0  0  0  0  0  0
  -30.0203  -13.3366   20.4146 N   0  0  0  0  0  0
  -26.2985  -12.9310   20.3283 N   0  0  0  0  0  0
  -25.9303  -11.6478   20.5753 N   0  0  0  0  0  0
  -22.0506  -12.8191   22.0441 N   0  0  0  0  0  0
  -25.4351  -15.1878   20.4064 N   0  0  0  0  0  0
  -31.8553  -14.6703   20.2230 O   0  0  0  0  0  0
  -21.6626   -6.8865   21.4227 O   0  0  0  0  0  0
  -22.3518  -14.5509   20.6734 O   0  0  0  0  0  0
  -24.6158  -31.8636   23.2077 C   0  0  0  0  0  0
  -25.9031  -32.4806   23.8385 C   0  0  1  0  0  0
  -27.2464  -27.3985   20.1087 C   0  0  0  0  0  0
  -25.5892  -33.8608   24.2306 N   0  0  0  0  0  0
  -23.4088  -30.4840   21.5475 C   0  0  2  0  0  0
  -24.8593  -28.9444   20.1223 C   0  0  0  0  0  0
  -22.7426  -29.4615   22.4970 C   0  0  0  0  0  0
  -18.0270  -28.1365   22.8506 C   0  0  0  0  0  0
  -24.1492  -36.7301   23.2636 C   0  0  0  0  0  0
  -25.9407  -30.8199   21.3667 C   0  0  0  0  0  0
  -26.0221  -29.4504   20.7165 C   0  0  0  0  0  0
  -27.2150  -28.6855   20.7053 C   0  0  0  0  0  0
  -26.0554  -26.9174   19.5100 C   0  0  0  0  0  0
  -24.8721  -27.6779   19.5193 C   0  0  0  0  0  0
  -23.6234  -29.8130   20.1657 C   0  0  0  0  0  0
  -25.4117  -36.3093   24.0326 C   0  0  1  0  0  0
  -20.5865  -28.3654   23.1324 C   0  0  2  0  0  0
  -20.6765  -26.9388   22.5428 C   0  0  0  0  0  0
  -19.5742  -26.6371   21.5225 C   0  0  0  0  0  0
  -18.1915  -26.7917   22.1628 C   0  0  0  0  0  0
  -19.1521  -28.8831   23.2914 C   0  0  0  0  0  0
  -18.9446  -30.1437   23.8922 C   0  0  0  0  0  0
  -17.6447  -30.6584   24.0553 C   0  0  0  0  0  0
  -25.9039  -34.9459   23.5110 C   0  0  0  0  0  0
  -16.5339  -29.9083   23.6311 C   0  0  0  0  0  0
  -16.7259  -28.6488   23.0364 C   0  0  0  0  0  0
  -26.4470  -31.6602   25.0717 C   0  0  0  0  0  0
  -25.3745  -31.3724   26.1480 C   0  0  0  0  0  0
  -27.0278  -30.3032   24.6091 C   0  0  0  0  0  0
  -27.6044  -32.4334   25.7474 C   0  0  0  0  0  0
  -27.5582  -37.1808   24.8461 C   0  0  0  0  0  0
  -21.4150  -29.3015   22.3726 N   0  0  0  0  0  0
  -26.4297  -37.3783   23.9404 N   0  0  0  0  0  0
  -24.6732  -31.0713   22.0989 N   0  0  0  0  0  0
  -23.4185  -28.8133   23.3005 O   0  0  0  0  0  0
  -28.4189  -26.6518   20.1355 O   0  0  0  0  0  0
  -26.5598  -34.8908   22.4667 O   0  0  0  0  0  0
  -23.5339  -32.1390   23.7453 O   0  0  0  0  0  0
  -29.8732  -21.9502   20.7321 C   0  0  0  0  0  0
  -29.9836  -20.5802   20.3782 C   0  0  0  0  0  0
  -29.6383  -22.9326   19.7374 C   0  0  0  0  0  0
  -29.8198  -20.1984   19.0301 C   0  0  0  0  0  0
  -29.4822  -22.4574   18.4138 C   0  0  0  0  0  0
  -27.8797  -23.3675   16.6588 C   0  0  0  0  0  0
  -28.4935  -18.2014   18.1961 C   0  0  0  0  0  0
  -30.6559  -18.8173   17.1031 C   0  0  0  0  0  0
  -29.6580  -24.4437   20.0894 C   0  0  0  0  0  0
  -29.3144  -23.3667   17.2046 C   0  0  0  0  0  0
  -30.1414  -17.0617   20.6602 C   0  0  0  0  0  0
  -28.3282  -25.2306   19.8784 C   0  0  0  0  0  0
  -30.7261  -17.6787   19.3371 C   0  0  2  0  0  0
  -29.9119  -18.7354   18.4742 C   0  0  0  0  0  0
  -29.5239  -21.1428   18.1041 N   0  0  0  0  0  0
  -29.8452  -15.5993   20.6812 N   0  0  0  0  0  0
  -31.0308  -16.6551   18.5337 F   0  0  0  0  0  0
  -31.4714  -12.4347   19.1303 H   0  0  0  0  0  0
  -30.3392  -11.3260   19.8533 H   0  0  0  0  0  0
  -29.7453  -11.7441   17.4487 H   0  0  0  0  0  0
  -29.6619  -13.4629   17.7464 H   0  0  0  0  0  0
  -27.8230  -11.2990   18.8254 H   0  0  0  0  0  0
  -27.3664  -12.6117   17.7789 H   0  0  0  0  0  0
  -27.6835  -14.2475   19.5343 H   0  0  0  0  0  0
  -28.6843  -11.9975   21.3457 H   0  0  0  0  0  0
  -28.4687  -13.6525   21.8433 H   0  0  0  0  0  0
  -25.2745   -9.5698   22.4717 H   0  0  0  0  0  0
  -24.0034   -7.4603   22.7408 H   0  0  0  0  0  0
  -21.0834   -8.8738   19.8905 H   0  0  0  0  0  0
  -22.3658  -10.9659   19.6131 H   0  0  0  0  0  0
  -21.1970   -7.6137   23.9719 H   0  0  0  0  0  0
  -21.1497   -6.0503   25.9083 H   0  0  0  0  0  0
  -22.0593   -2.7601   23.2839 H   0  0  0  0  0  0
  -22.4133  -11.9890   22.4898 H   0  0  0  0  0  0
  -21.1093  -13.1164   22.2591 H   0  0  0  0  0  0
  -24.6752  -15.8498   20.5161 H   0  0  0  0  0  0
  -26.2824  -15.6179   20.0586 H   0  0  0  0  0  0
  -26.7083  -32.5513   23.1138 H   0  0  0  0  0  0
  -25.0085  -33.9789   25.0479 H   0  0  0  0  0  0
  -22.6982  -31.2998   21.4021 H   0  0  0  0  0  0
  -23.3750  -35.9639   23.3303 H   0  0  0  0  0  0
  -24.3577  -36.8910   22.2047 H   0  0  0  0  0  0
  -23.7253  -37.6507   23.6653 H   0  0  0  0  0  0
  -26.0536  -31.5825   20.5956 H   0  0  0  0  0  0
  -26.8280  -30.8779   21.9861 H   0  0  0  0  0  0
  -28.1095  -29.0695   21.1769 H   0  0  0  0  0  0
  -26.0091  -25.9495   19.0350 H   0  0  0  0  0  0
  -23.9745  -27.2766   19.0701 H   0  0  0  0  0  0
  -23.7413  -30.5821   19.4016 H   0  0  0  0  0  0
  -22.7496  -29.2314   19.8663 H   0  0  0  0  0  0
  -25.1303  -36.1950   25.0821 H   0  0  0  0  0  0
  -20.9963  -28.3213   24.1445 H   0  0  0  0  0  0
  -20.5675  -26.2252   23.3612 H   0  0  0  0  0  0
  -21.6634  -26.7434   22.1213 H   0  0  0  0  0  0
  -19.6900  -25.6287   21.1243 H   0  0  0  0  0  0
  -19.6685  -27.3190   20.6762 H   0  0  0  0  0  0
  -17.4199  -26.6688   21.4013 H   0  0  0  0  0  0
  -18.0294  -26.0051   22.9012 H   0  0  0  0  0  0
  -19.7924  -30.7243   24.2310 H   0  0  0  0  0  0
  -17.5002  -31.6267   24.5142 H   0  0  0  0  0  0
  -15.5342  -30.2992   23.7621 H   0  0  0  0  0  0
  -15.8659  -28.0800   22.7090 H   0  0  0  0  0  0
  -24.5912  -30.7071   25.7828 H   0  0  0  0  0  0
  -24.8957  -32.2894   26.4924 H   0  0  0  0  0  0
  -25.8124  -30.8903   27.0232 H   0  0  0  0  0  0
  -26.2800  -29.6821   24.1147 H   0  0  0  0  0  0
  -27.4027  -29.7247   25.4543 H   0  0  0  0  0  0
  -27.8653  -30.4320   23.9232 H   0  0  0  0  0  0
  -27.2646  -33.3626   26.2064 H   0  0  0  0  0  0
  -28.3850  -32.6918   25.0303 H   0  0  0  0  0  0
  -28.0715  -31.8458   26.5389 H   0  0  0  0  0  0
  -28.2611  -38.0093   24.7495 H   0  0  0  0  0  0
  -28.1070  -36.2625   24.6317 H   0  0  0  0  0  0
  -27.2294  -37.1485   25.8862 H   0  0  0  0  0  0
  -20.9307  -29.8750   21.6965 H   0  0  0  0  0  0
  -26.0175  -38.2852   24.1432 H   0  0  0  0  0  0
  -30.0137  -22.2444   21.7635 H   0  0  0  0  0  0
  -30.1963  -19.8495   21.1437 H   0  0  0  0  0  0
  -27.7848  -24.0603   15.8222 H   0  0  0  0  0  0
  -27.1588  -23.6611   17.4202 H   0  0  0  0  0  0
  -27.5941  -22.3742   16.3123 H   0  0  0  0  0  0
  -27.9627  -18.8539   17.5014 H   0  0  0  0  0  0
  -27.8968  -18.1403   19.1051 H   0  0  0  0  0  0
  -28.5242  -17.2075   17.7478 H   0  0  0  0  0  0
  -30.1422  -19.4578   16.3861 H   0  0  0  0  0  0
  -30.7387  -17.8554   16.5982 H   0  0  0  0  0  0
  -31.6639  -19.2131   17.2257 H   0  0  0  0  0  0
  -30.4496  -24.9098   19.5003 H   0  0  0  0  0  0
  -29.9726  -24.5610   21.1266 H   0  0  0  0  0  0
  -29.9972  -23.0251   16.4243 H   0  0  0  0  0  0
  -29.6381  -24.3826   17.4242 H   0  0  0  0  0  0
  -29.2342  -17.5957   20.9450 H   0  0  0  0  0  0
  -30.8426  -17.2576   21.4725 H   0  0  0  0  0  0
  -27.5584  -24.7905   20.5120 H   0  0  0  0  0  0
  -28.0099  -25.1140   18.8480 H   0  0  0  0  0  0
  -31.6908  -18.1303   19.5749 H   0  0  0  0  0  0
  -28.8800  -15.3579   20.8433 H   0  0  0  0  0  0
  1 25  1  0  0  0
  1 30  2  0  0  0
  1 86  1  0  0  0
  2  3  1  0  0  0
  2 25  1  0  0  0
  2 88  1  0  0  0
  2 89  1  0  0  0
  3  4  1  0  0  0
  3 90  1  0  0  0
  3 91  1  0  0  0
  4  5  1  0  0  0
  4 92  1  0  0  0
  4 93  1  0  0  0
  5  6  1  0  0  0
  5 26  1  0  0  0
  5 94  1  0  0  0
  6 25  1  0  0  0
  6 95  1  0  0  0
  6 96  1  0  0  0
  7  8  2  0  0  0
  7 26  1  0  0  0
  7 29  1  0  0  0
  8  9  1  0  0  0
  8 22  1  0  0  0
  9 10  1  0  0  0
  9 27  2  0  0  0
 10 11  2  0  0  0
 10 15  1  0  0  0
 11 12  1  0  0  0
 11 97  1  0  0  0
 12 13  2  0  0  0
 12 98  1  0  0  0
 13 14  1  0  0  0
 13 31  1  0  0  0
 14 15  2  0  0  0
 14 99  1  0  0  0
 15100  1  0  0  0
 16 17  2  0  0  0
 16 21  1  0  0  0
 16 31  1  0  0  0
 17 18  1  0  0  0
 17101  1  0  0  0
 18 19  2  0  0  0
 18102  1  0  0  0
 19 20  1  0  0  0
 19 24  1  0  0  0
 20 21  2  0  0  0
 20103  1  0  0  0
 21 23  1  0  0  0
 22 28  1  0  0  0
 22 32  2  0  0  0
 26 27  1  0  0  0
 28104  1  0  0  0
 28105  1  0  0  0
 29106  1  0  0  0
 29107  1  0  0  0
 33 34  1  0  0  0
 33 66  1  0  0  0
 33 70  2  0  0  0
 34 36  1  0  0  0
 34 59  1  0  0  0
 34108  1  0  0  0
 35 44  2  0  0  0
 35 45  1  0  0  0
 35 68  1  0  0  0
 36 56  1  0  0  0
 36109  1  0  0  0
 37 39  1  0  0  0
 37 47  1  0  0  0
 37 66  1  0  0  0
 37110  1  0  0  0
 38 43  2  0  0  0
 38 46  1  0  0  0
 38 47  1  0  0  0
 39 64  1  0  0  0
 39 67  2  0  0  0
 40 52  1  0  0  0
 40 53  2  0  0  0
 40 58  1  0  0  0
 41111  1  0  0  0
 41112  1  0  0  0
 41113  1  0  0  0
 41 48  1  0  0  0
 42 43  1  0  0  0
 42 66  1  0  0  0
 42114  1  0  0  0
 42115  1  0  0  0
 43 44  1  0  0  0
 44116  1  0  0  0
 45 46  2  0  0  0
 45117  1  0  0  0
 46118  1  0  0  0
 47119  1  0  0  0
 47120  1  0  0  0
 48 56  1  0  0  0
 48 65  1  0  0  0
 48121  1  0  0  0
 49 50  1  0  0  0
 49 53  1  0  0  0
 49 64  1  0  0  0
 49122  1  0  0  0
 50 51  1  0  0  0
 50123  1  0  0  0
 50124  1  0  0  0
 51 52  1  0  0  0
 51125  1  0  0  0
 51126  1  0  0  0
 52127  1  0  0  0
 52128  1  0  0  0
 53 54  1  0  0  0
 54 55  2  0  0  0
 54129  1  0  0  0
 55 57  1  0  0  0
 55130  1  0  0  0
 56 69  2  0  0  0
 57 58  2  0  0  0
 57131  1  0  0  0
 58132  1  0  0  0
 59 60  1  0  0  0
 59 61  1  0  0  0
 59 62  1  0  0  0
 60133  1  0  0  0
 60134  1  0  0  0
 60135  1  0  0  0
 61136  1  0  0  0
 61137  1  0  0  0
 61138  1  0  0  0
 62139  1  0  0  0
 62140  1  0  0  0
 62141  1  0  0  0
 63 65  1  0  0  0
 63142  1  0  0  0
 63143  1  0  0  0
 63144  1  0  0  0
 64145  1  0  0  0
 65146  1  0  0  0
 68 82  1  0  0  0
 71 72  2  0  0  0
 71 73  1  0  0  0
 71147  1  0  0  0
 72 74  1  0  0  0
 72148  1  0  0  0
 73 75  2  0  0  0
 73 79  1  0  0  0
 74 84  1  0  0  0
 74 85  2  0  0  0
 75 80  1  0  0  0
 75 85  1  0  0  0
 76 80  1  0  0  0
 76149  1  0  0  0
 76150  1  0  0  0
 76151  1  0  0  0
 77152  1  0  0  0
 77153  1  0  0  0
 77154  1  0  0  0
 77 84  1  0  0  0
 78 84  1  0  0  0
 78155  1  0  0  0
 78156  1  0  0  0
 78157  1  0  0  0
 79 82  1  0  0  0
 79158  1  0  0  0
 79159  1  0  0  0
 80160  1  0  0  0
 80161  1  0  0  0
 81 83  1  0  0  0
 81 86  1  0  0  0
 81162  1  0  0  0
 81163  1  0  0  0
 82164  1  0  0  0
 82165  1  0  0  0
 83 84  1  0  0  0
 83 87  1  0  0  0
 83166  1  0  0  0
 86167  1  0  0  0
M  ISO  4   1 100  68 101  82 101  86 100
M  END
> <chiral flag>
0

> <version>
0

> <s_m_source_file>
/data/baiqing/PycharmProjects/Reinvent-master-3.2/result/LINK_invent/BTK/process_docking_weight1_custom_sum_contain_oxygen_bond_distance_aromatic_linkinvent_7_9_3/rearranged_h_0087.sdf

> <i_m_source_file_index>
97

> <r_mmod_Potential_Energy-OPLS-2005>
-195.201095581055

> <r_mmod_Stretch_Energy-OPLS-2005>
55.0276374816895

> <r_mmod_Bend_Energy-OPLS-2005>
132.077560424805

> <r_mmod_Torsional_Energy-OPLS-2005>
215.302673339844

> <r_mmod_Improper_Torsional_Energy-OPLS-2005>
5.48680400848389

> <r_mmod_Van_der_Waal_Energy-OPLS-2005>
168.379669189453

> <r_mmod_Electrostatic_Energy-OPLS-2005>
-580.642883300781

> <r_mmod_Solvation_Energy-OPLS-2005>
-215.8203125

> <b_mmod_Minimization_Converged-OPLS-2005>
0

> <r_mmod_RMS_Derivative-OPLS-2005>
2.42287445068359

$$$$
98
                    3D
 Structure written by MMmdl.
163171  0  0  1  0            999 V2000
  -30.7154  -14.4566   20.5809 C   0  0  0  0  0  0
  -30.4174  -12.3011   19.4259 C   0  0  0  0  0  0
  -29.4964  -12.5064   18.2067 C   0  0  0  0  0  0
  -28.0162  -12.3741   18.6183 C   0  0  0  0  0  0
  -27.6613  -13.2124   19.8766 C   0  0  2  0  0  0
  -28.7003  -12.9928   20.9994 C   0  0  0  0  0  0
  -25.2560  -13.8169   20.5678 C   0  0  0  0  0  0
  -24.1826  -13.0431   20.9203 C   0  0  0  0  0  0
  -24.6399  -11.6911   20.8741 C   0  0  0  0  0  0
  -23.9065  -10.4294   21.0409 C   0  0  0  0  0  0
  -24.3612   -9.4208   21.9190 C   0  0  0  0  0  0
  -23.6287   -8.2241   22.0755 C   0  0  0  0  0  0
  -22.4268   -8.0281   21.3546 C   0  0  0  0  0  0
  -21.9906   -9.0257   20.4647 C   0  0  0  0  0  0
  -22.7237  -10.2140   20.3056 C   0  0  0  0  0  0
  -21.6857   -6.0737   22.5282 C   0  0  0  0  0  0
  -21.4019   -6.5637   23.8220 C   0  0  0  0  0  0
  -21.3656   -5.6791   24.9184 C   0  0  0  0  0  0
  -21.6038   -4.3052   24.7233 C   0  0  0  0  0  0
  -21.8817   -3.8143   23.4354 C   0  0  0  0  0  0
  -21.9194   -4.6963   22.3411 C   0  0  0  0  0  0
  -22.7849  -13.5228   21.1865 C   0  0  0  0  0  0
  -22.1656   -4.2143   21.0993 F   0  0  0  0  0  0
  -21.5630   -3.4535   25.7748 F   0  0  0  0  0  0
  -30.0338  -13.2873   20.4492 N   0  0  0  0  0  0
  -26.3015  -12.9359   20.3361 N   0  0  0  0  0  0
  -25.9325  -11.6510   20.5752 N   0  0  0  0  0  0
  -22.0476  -12.8224   22.0424 N   0  0  0  0  0  0
  -25.4228  -15.1880   20.4039 N   0  0  0  0  0  0
  -31.8329  -14.6381   20.0901 O   0  0  0  0  0  0
  -21.6632   -6.8878   21.4241 O   0  0  0  0  0  0
  -22.3534  -14.5533   20.6722 O   0  0  0  0  0  0
  -24.6159  -31.8687   23.2113 C   0  0  0  0  0  0
  -25.9038  -32.4832   23.8414 C   0  0  1  0  0  0
  -27.2238  -27.4114   20.0952 C   0  0  0  0  0  0
  -25.5902  -33.8638   24.2342 N   0  0  0  0  0  0
  -23.4049  -30.4947   21.5537 C   0  0  2  0  0  0
  -24.8486  -28.9682   20.1083 C   0  0  0  0  0  0
  -22.7436  -29.4653   22.4987 C   0  0  0  0  0  0
  -18.0286  -28.1373   22.8492 C   0  0  0  0  0  0
  -24.1493  -36.7315   23.2637 C   0  0  0  0  0  0
  -25.9378  -30.8270   21.3682 C   0  0  0  0  0  0
  -26.0128  -29.4631   20.7095 C   0  0  0  0  0  0
  -27.2022  -28.6939   20.6971 C   0  0  0  0  0  0
  -26.0394  -26.9509   19.4688 C   0  0  0  0  0  0
  -24.8593  -27.7136   19.4814 C   0  0  0  0  0  0
  -23.6127  -29.8372   20.1649 C   0  0  0  0  0  0
  -25.4117  -36.3127   24.0337 C   0  0  1  0  0  0
  -20.5879  -28.3663   23.1314 C   0  0  2  0  0  0
  -20.6783  -26.9399   22.5417 C   0  0  0  0  0  0
  -19.5758  -26.6381   21.5222 C   0  0  0  0  0  0
  -18.1934  -26.7923   22.1627 C   0  0  0  0  0  0
  -19.1535  -28.8838   23.2904 C   0  0  0  0  0  0
  -18.9450  -30.1445   23.8909 C   0  0  0  0  0  0
  -17.6449  -30.6577   24.0564 C   0  0  0  0  0  0
  -25.9036  -34.9485   23.5135 C   0  0  0  0  0  0
  -16.5345  -29.9075   23.6320 C   0  0  0  0  0  0
  -16.7272  -28.6498   23.0337 C   0  0  0  0  0  0
  -26.4463  -31.6609   25.0736 C   0  0  0  0  0  0
  -25.3725  -31.3687   26.1476 C   0  0  0  0  0  0
  -27.0281  -30.3059   24.6082 C   0  0  0  0  0  0
  -27.6063  -32.4319   25.7480 C   0  0  0  0  0  0
  -27.5588  -37.1812   24.8467 C   0  0  0  0  0  0
  -21.4162  -29.3024   22.3715 N   0  0  0  0  0  0
  -26.4308  -37.3802   23.9404 N   0  0  0  0  0  0
  -24.6722  -31.0768   22.1027 N   0  0  0  0  0  0
  -23.4204  -28.8188   23.3026 O   0  0  0  0  0  0
  -28.3779  -26.6416   20.1502 O   0  0  0  0  0  0
  -26.5593  -34.8922   22.4694 O   0  0  0  0  0  0
  -23.5338  -32.1462   23.7479 O   0  0  0  0  0  0
  -29.3954  -20.4672   20.7892 C   0  0  0  0  0  0
  -30.0187  -21.7396   20.6999 C   0  0  0  0  0  0
  -30.0748  -19.3932   21.4290 C   0  0  0  0  0  0
  -31.3169  -21.8297   21.2642 C   0  0  0  0  0  0
  -32.1773  -23.0737   21.1759 C   0  0  0  0  0  0
  -28.1956  -17.7856   20.7525 C   0  0  0  0  0  0
  -29.1258  -17.7225   23.0631 C   0  0  0  0  0  0
  -29.3063  -22.8767   19.9357 C   0  0  0  0  0  0
  -29.3577  -24.3357   20.4862 C   0  0  0  0  0  0
  -30.5208  -16.8788   21.1134 C   0  0  0  0  0  0
  -28.2470  -25.2287   19.8770 C   0  0  0  0  0  0
  -29.4882  -17.9577   21.5826 C   0  0  0  0  0  0
  -31.2922  -19.5989   21.9929 N   0  0  0  0  0  0
  -31.9013  -20.7847   21.9030 N   0  0  0  0  0  0
  -30.0497  -15.4774   21.1498 N   0  0  0  0  0  0
  -31.4653  -12.3844   19.1316 H   0  0  0  0  0  0
  -30.3043  -11.2902   19.8199 H   0  0  0  0  0  0
  -29.7329  -11.7766   17.4315 H   0  0  0  0  0  0
  -29.6765  -13.4889   17.7669 H   0  0  0  0  0  0
  -27.8219  -11.3187   18.8114 H   0  0  0  0  0  0
  -27.3696  -12.6522   17.7854 H   0  0  0  0  0  0
  -27.7075  -14.2617   19.5843 H   0  0  0  0  0  0
  -28.6685  -11.9577   21.3422 H   0  0  0  0  0  0
  -28.4637  -13.5966   21.8766 H   0  0  0  0  0  0
  -25.2761   -9.5679   22.4764 H   0  0  0  0  0  0
  -23.9996   -7.4628   22.7472 H   0  0  0  0  0  0
  -21.0839   -8.8784   19.8948 H   0  0  0  0  0  0
  -22.3705  -10.9680   19.6156 H   0  0  0  0  0  0
  -21.2007   -7.6142   23.9726 H   0  0  0  0  0  0
  -21.1476   -6.0520   25.9090 H   0  0  0  0  0  0
  -22.0594   -2.7600   23.2867 H   0  0  0  0  0  0
  -22.4070  -11.9884   22.4825 H   0  0  0  0  0  0
  -21.1080  -13.1245   22.2590 H   0  0  0  0  0  0
  -24.6515  -15.8377   20.5073 H   0  0  0  0  0  0
  -26.2596  -15.6234   20.0389 H   0  0  0  0  0  0
  -26.7102  -32.5525   23.1172 H   0  0  0  0  0  0
  -25.0085  -33.9821   25.0506 H   0  0  0  0  0  0
  -22.6934  -31.3121   21.4191 H   0  0  0  0  0  0
  -23.3761  -35.9638   23.3319 H   0  0  0  0  0  0
  -24.3595  -36.8910   22.2048 H   0  0  0  0  0  0
  -23.7231  -37.6521   23.6638 H   0  0  0  0  0  0
  -26.0511  -31.5938   20.6007 H   0  0  0  0  0  0
  -26.8265  -30.8791   21.9863 H   0  0  0  0  0  0
  -28.0997  -29.0706   21.1686 H   0  0  0  0  0  0
  -25.9953  -25.9983   18.9633 H   0  0  0  0  0  0
  -23.9671  -27.3328   19.0026 H   0  0  0  0  0  0
  -23.7189  -30.6187   19.4117 H   0  0  0  0  0  0
  -22.7355  -29.2600   19.8670 H   0  0  0  0  0  0
  -25.1290  -36.2009   25.0828 H   0  0  0  0  0  0
  -20.9971  -28.3219   24.1440 H   0  0  0  0  0  0
  -20.5726  -26.2257   23.3597 H   0  0  0  0  0  0
  -21.6645  -26.7468   22.1180 H   0  0  0  0  0  0
  -19.6925  -25.6300   21.1235 H   0  0  0  0  0  0
  -19.6697  -27.3207   20.6759 H   0  0  0  0  0  0
  -17.4213  -26.6687   21.4016 H   0  0  0  0  0  0
  -18.0323  -26.0060   22.9012 H   0  0  0  0  0  0
  -19.7925  -30.7266   24.2286 H   0  0  0  0  0  0
  -17.4998  -31.6262   24.5156 H   0  0  0  0  0  0
  -15.5345  -30.2971   23.7642 H   0  0  0  0  0  0
  -15.8681  -28.0828   22.7021 H   0  0  0  0  0  0
  -24.5926  -30.7008   25.7798 H   0  0  0  0  0  0
  -24.8868  -32.2816   26.4931 H   0  0  0  0  0  0
  -25.8067  -30.8856   27.0237 H   0  0  0  0  0  0
  -26.2802  -29.6842   24.1138 H   0  0  0  0  0  0
  -27.4077  -29.7268   25.4509 H   0  0  0  0  0  0
  -27.8634  -30.4404   23.9206 H   0  0  0  0  0  0
  -27.2729  -33.3637   26.2064 H   0  0  0  0  0  0
  -28.3853  -32.6851   25.0276 H   0  0  0  0  0  0
  -28.0752  -31.8435   26.5379 H   0  0  0  0  0  0
  -28.2612  -38.0105   24.7526 H   0  0  0  0  0  0
  -28.1083  -36.2637   24.6295 H   0  0  0  0  0  0
  -27.2306  -37.1463   25.8871 H   0  0  0  0  0  0
  -20.9328  -29.8739   21.6930 H   0  0  0  0  0  0
  -26.0208  -38.2884   24.1403 H   0  0  0  0  0  0
  -28.4200  -20.3255   20.3520 H   0  0  0  0  0  0
  -33.2061  -22.8637   21.4707 H   0  0  0  0  0  0
  -31.7965  -23.8510   21.8381 H   0  0  0  0  0  0
  -32.2035  -23.4504   20.1539 H   0  0  0  0  0  0
  -27.4125  -18.4643   21.0901 H   0  0  0  0  0  0
  -27.7845  -16.7809   20.8344 H   0  0  0  0  0  0
  -28.3762  -17.9785   19.6943 H   0  0  0  0  0  0
  -28.4015  -18.4615   23.4085 H   0  0  0  0  0  0
  -30.0034  -17.8013   23.7058 H   0  0  0  0  0  0
  -28.6954  -16.7346   23.2261 H   0  0  0  0  0  0
  -28.2562  -22.5936   19.8598 H   0  0  0  0  0  0
  -29.6808  -22.8742   18.9113 H   0  0  0  0  0  0
  -30.3246  -24.7871   20.2702 H   0  0  0  0  0  0
  -29.2423  -24.3334   21.5711 H   0  0  0  0  0  0
  -31.4239  -16.9374   21.7230 H   0  0  0  0  0  0
  -30.8280  -17.1137   20.0922 H   0  0  0  0  0  0
  -27.3057  -24.8434   20.2739 H   0  0  0  0  0  0
  -28.2209  -25.0934   18.7949 H   0  0  0  0  0  0
  -29.1357  -15.2893   21.5316 H   0  0  0  0  0  0
  1 25  1  0  0  0
  1 30  2  0  0  0
  1 85  1  0  0  0
  2  3  1  0  0  0
  2 25  1  0  0  0
  2 86  1  0  0  0
  2 87  1  0  0  0
  3  4  1  0  0  0
  3 88  1  0  0  0
  3 89  1  0  0  0
  4  5  1  0  0  0
  4 90  1  0  0  0
  4 91  1  0  0  0
  5  6  1  0  0  0
  5 26  1  0  0  0
  5 92  1  0  0  0
  6 25  1  0  0  0
  6 93  1  0  0  0
  6 94  1  0  0  0
  7  8  2  0  0  0
  7 26  1  0  0  0
  7 29  1  0  0  0
  8  9  1  0  0  0
  8 22  1  0  0  0
  9 10  1  0  0  0
  9 27  2  0  0  0
 10 11  2  0  0  0
 10 15  1  0  0  0
 11 12  1  0  0  0
 11 95  1  0  0  0
 12 13  2  0  0  0
 12 96  1  0  0  0
 13 14  1  0  0  0
 13 31  1  0  0  0
 14 15  2  0  0  0
 14 97  1  0  0  0
 15 98  1  0  0  0
 16 17  2  0  0  0
 16 21  1  0  0  0
 16 31  1  0  0  0
 17 18  1  0  0  0
 17 99  1  0  0  0
 18 19  2  0  0  0
 18100  1  0  0  0
 19 20  1  0  0  0
 19 24  1  0  0  0
 20 21  2  0  0  0
 20101  1  0  0  0
 21 23  1  0  0  0
 22 28  1  0  0  0
 22 32  2  0  0  0
 26 27  1  0  0  0
 28102  1  0  0  0
 28103  1  0  0  0
 29104  1  0  0  0
 29105  1  0  0  0
 33 34  1  0  0  0
 33 66  1  0  0  0
 33 70  2  0  0  0
 34 36  1  0  0  0
 34 59  1  0  0  0
 34106  1  0  0  0
 35 44  2  0  0  0
 35 45  1  0  0  0
 35 68  1  0  0  0
 36 56  1  0  0  0
 36107  1  0  0  0
 37 39  1  0  0  0
 37 47  1  0  0  0
 37 66  1  0  0  0
 37108  1  0  0  0
 38 43  2  0  0  0
 38 46  1  0  0  0
 38 47  1  0  0  0
 39 64  1  0  0  0
 39 67  2  0  0  0
 40 52  1  0  0  0
 40 53  2  0  0  0
 40 58  1  0  0  0
 41109  1  0  0  0
 41110  1  0  0  0
 41111  1  0  0  0
 41 48  1  0  0  0
 42 43  1  0  0  0
 42 66  1  0  0  0
 42112  1  0  0  0
 42113  1  0  0  0
 43 44  1  0  0  0
 44114  1  0  0  0
 45 46  2  0  0  0
 45115  1  0  0  0
 46116  1  0  0  0
 47117  1  0  0  0
 47118  1  0  0  0
 48 56  1  0  0  0
 48 65  1  0  0  0
 48119  1  0  0  0
 49 50  1  0  0  0
 49 53  1  0  0  0
 49 64  1  0  0  0
 49120  1  0  0  0
 50 51  1  0  0  0
 50121  1  0  0  0
 50122  1  0  0  0
 51 52  1  0  0  0
 51123  1  0  0  0
 51124  1  0  0  0
 52125  1  0  0  0
 52126  1  0  0  0
 53 54  1  0  0  0
 54 55  2  0  0  0
 54127  1  0  0  0
 55 57  1  0  0  0
 55128  1  0  0  0
 56 69  2  0  0  0
 57 58  2  0  0  0
 57129  1  0  0  0
 58130  1  0  0  0
 59 60  1  0  0  0
 59 61  1  0  0  0
 59 62  1  0  0  0
 60131  1  0  0  0
 60132  1  0  0  0
 60133  1  0  0  0
 61134  1  0  0  0
 61135  1  0  0  0
 61136  1  0  0  0
 62137  1  0  0  0
 62138  1  0  0  0
 62139  1  0  0  0
 63 65  1  0  0  0
 63140  1  0  0  0
 63141  1  0  0  0
 63142  1  0  0  0
 64143  1  0  0  0
 65144  1  0  0  0
 68 81  1  0  0  0
 71 72  2  0  0  0
 71 73  1  0  0  0
 71145  1  0  0  0
 72 74  1  0  0  0
 72 78  1  0  0  0
 73 82  1  0  0  0
 73 83  2  0  0  0
 74 75  1  0  0  0
 74 84  2  0  0  0
 75146  1  0  0  0
 75147  1  0  0  0
 75148  1  0  0  0
 76149  1  0  0  0
 76150  1  0  0  0
 76151  1  0  0  0
 76 82  1  0  0  0
 77 82  1  0  0  0
 77152  1  0  0  0
 77153  1  0  0  0
 77154  1  0  0  0
 78 79  1  0  0  0
 78155  1  0  0  0
 78156  1  0  0  0
 79 81  1  0  0  0
 79157  1  0  0  0
 79158  1  0  0  0
 80 82  1  0  0  0
 80 85  1  0  0  0
 80159  1  0  0  0
 80160  1  0  0  0
 81161  1  0  0  0
 81162  1  0  0  0
 83 84  1  0  0  0
 85163  1  0  0  0
M  ISO  4   1 100  68 101  81 101  85 100
M  END
> <chiral flag>
0

> <version>
0

> <s_m_source_file>
/data/baiqing/PycharmProjects/Reinvent-master-3.2/result/LINK_invent/BTK/process_docking_weight1_custom_sum_contain_oxygen_bond_distance_aromatic_linkinvent_7_9_3/rearranged_h_0087.sdf

> <i_m_source_file_index>
98

> <r_mmod_Potential_Energy-OPLS-2005>
-87.254020690918

> <r_mmod_Stretch_Energy-OPLS-2005>
46.489818572998

> <r_mmod_Bend_Energy-OPLS-2005>
113.088287353516

> <r_mmod_Torsional_Energy-OPLS-2005>
195.393173217773

> <r_mmod_Improper_Torsional_Energy-OPLS-2005>
3.7929310798645

> <r_mmod_Van_der_Waal_Energy-OPLS-2005>
166.956497192383

> <r_mmod_Electrostatic_Energy-OPLS-2005>
-396.953796386719

> <r_mmod_Solvation_Energy-OPLS-2005>
-231.140548706055

> <b_mmod_Minimization_Converged-OPLS-2005>
0

> <r_mmod_RMS_Derivative-OPLS-2005>
1.77644085884094

$$$$
