0
                    3D
 Structure written by MMmdl.
160168  0  0  1  0            999 V2000
  -30.6977  -14.4959   20.5450 C   0  0  0  0  0  0
  -30.4221  -12.3093   19.4413 C   0  0  0  0  0  0
  -29.5001  -12.4952   18.2169 C   0  0  0  0  0  0
  -28.0191  -12.3610   18.6242 C   0  0  0  0  0  0
  -27.6606  -13.2118   19.8727 C   0  0  2  0  0  0
  -28.7018  -13.0149   21.0000 C   0  0  0  0  0  0
  -25.2572  -13.8171   20.5679 C   0  0  0  0  0  0
  -24.1830  -13.0438   20.9174 C   0  0  0  0  0  0
  -24.6397  -11.6906   20.8724 C   0  0  0  0  0  0
  -23.9063  -10.4287   21.0390 C   0  0  0  0  0  0
  -24.3611   -9.4202   21.9173 C   0  0  0  0  0  0
  -23.6286   -8.2240   22.0750 C   0  0  0  0  0  0
  -22.4272   -8.0269   21.3535 C   0  0  0  0  0  0
  -21.9901   -9.0244   20.4643 C   0  0  0  0  0  0
  -22.7229  -10.2123   20.3049 C   0  0  0  0  0  0
  -21.6851   -6.0723   22.5275 C   0  0  0  0  0  0
  -21.4019   -6.5632   23.8202 C   0  0  0  0  0  0
  -21.3660   -5.6784   24.9170 C   0  0  0  0  0  0
  -21.6045   -4.3049   24.7221 C   0  0  0  0  0  0
  -21.8822   -3.8138   23.4343 C   0  0  0  0  0  0
  -21.9195   -4.6955   22.3398 C   0  0  0  0  0  0
  -22.7848  -13.5224   21.1827 C   0  0  0  0  0  0
  -22.1660   -4.2135   21.0973 F   0  0  0  0  0  0
  -21.5627   -3.4534   25.7736 F   0  0  0  0  0  0
  -30.0336  -13.3111   20.4481 N   0  0  0  0  0  0
  -26.3016  -12.9353   20.3350 N   0  0  0  0  0  0
  -25.9325  -11.6508   20.5751 N   0  0  0  0  0  0
  -22.0499  -12.8220   22.0397 N   0  0  0  0  0  0
  -25.4303  -15.1886   20.4083 N   0  0  0  0  0  0
  -31.8313  -14.6613   20.0870 O   0  0  0  0  0  0
  -21.6638   -6.8867   21.4235 O   0  0  0  0  0  0
  -22.3526  -14.5519   20.6663 O   0  0  0  0  0  0
  -24.6183  -31.8673   23.2104 C   0  0  0  0  0  0
  -25.9071  -32.4819   23.8402 C   0  0  1  0  0  0
  -27.2208  -27.3965   20.0963 C   0  0  0  0  0  0
  -25.5930  -33.8615   24.2333 N   0  0  0  0  0  0
  -23.4072  -30.4969   21.5508 C   0  0  2  0  0  0
  -24.8504  -28.9700   20.1081 C   0  0  0  0  0  0
  -22.7425  -29.4675   22.4951 C   0  0  0  0  0  0
  -18.0280  -28.1394   22.8505 C   0  0  0  0  0  0
  -24.1489  -36.7290   23.2633 C   0  0  0  0  0  0
  -25.9433  -30.8196   21.3743 C   0  0  0  0  0  0
  -26.0153  -29.4553   20.7151 C   0  0  0  0  0  0
  -27.2007  -28.6761   20.7109 C   0  0  0  0  0  0
  -26.0355  -26.9588   19.4518 C   0  0  0  0  0  0
  -24.8577  -27.7229   19.4709 C   0  0  0  0  0  0
  -23.6159  -29.8399   20.1618 C   0  0  0  0  0  0
  -25.4113  -36.3108   24.0341 C   0  0  1  0  0  0
  -20.5886  -28.3678   23.1303 C   0  0  2  0  0  0
  -20.6784  -26.9411   22.5414 C   0  0  0  0  0  0
  -19.5761  -26.6402   21.5212 C   0  0  0  0  0  0
  -18.1933  -26.7949   22.1620 C   0  0  0  0  0  0
  -19.1536  -28.8850   23.2909 C   0  0  0  0  0  0
  -18.9462  -30.1462   23.8915 C   0  0  0  0  0  0
  -17.6466  -30.6597   24.0575 C   0  0  0  0  0  0
  -25.9046  -34.9475   23.5128 C   0  0  0  0  0  0
  -16.5354  -29.9103   23.6341 C   0  0  0  0  0  0
  -16.7271  -28.6520   23.0362 C   0  0  0  0  0  0
  -26.4488  -31.6611   25.0738 C   0  0  0  0  0  0
  -25.3745  -31.3743   26.1480 C   0  0  0  0  0  0
  -27.0298  -30.3038   24.6145 C   0  0  0  0  0  0
  -27.6069  -32.4332   25.7494 C   0  0  0  0  0  0
  -27.5581  -37.1806   24.8466 C   0  0  0  0  0  0
  -21.4149  -29.3044   22.3690 N   0  0  0  0  0  0
  -26.4295  -37.3797   23.9412 N   0  0  0  0  0  0
  -24.6744  -31.0767   22.1016 N   0  0  0  0  0  0
  -23.4193  -28.8207   23.2989 O   0  0  0  0  0  0
  -28.3622  -26.5979   20.1541 O   0  0  0  0  0  0
  -26.5588  -34.8928   22.4677 O   0  0  0  0  0  0
  -23.5373  -32.1435   23.7491 O   0  0  0  0  0  0
  -28.9181  -20.4176   20.8467 C   0  0  0  0  0  0
  -29.8828  -19.4595   21.0912 C   0  0  0  0  0  0
  -30.8561  -21.3040   20.2478 C   0  0  0  0  0  0
  -31.9078  -22.2201   19.7113 C   0  0  0  0  0  0
  -28.3988  -17.7558   22.2120 C   0  0  0  0  0  0
  -29.2026  -24.1514   20.3500 C   0  0  0  0  0  0
  -28.8499  -22.7404   19.7756 C   0  0  0  0  0  0
  -30.2386  -16.9630   20.6022 C   0  0  0  0  0  0
  -28.1876  -25.1988   19.8116 C   0  0  0  0  0  0
  -29.8014  -18.0383   21.6451 C   0  0  1  0  0  0
  -29.5350  -21.5356   20.3224 N   0  0  0  0  0  0
  -31.0623  -20.0635   20.7208 N   0  3  0  0  0  0
  -29.9711  -15.5501   20.9703 N   0  0  0  0  0  0
  -31.4686  -12.3978   19.1444 H   0  0  0  0  0  0
  -30.3157  -11.3048   19.8531 H   0  0  0  0  0  0
  -29.7429  -11.7601   17.4481 H   0  0  0  0  0  0
  -29.6737  -13.4752   17.7696 H   0  0  0  0  0  0
  -27.8269  -11.3067   18.8276 H   0  0  0  0  0  0
  -27.3726  -12.6292   17.7874 H   0  0  0  0  0  0
  -27.6989  -14.2564   19.5612 H   0  0  0  0  0  0
  -28.6741  -11.9864   21.3624 H   0  0  0  0  0  0
  -28.4678  -13.6380   21.8641 H   0  0  0  0  0  0
  -25.2767   -9.5669   22.4735 H   0  0  0  0  0  0
  -23.9990   -7.4634   22.7473 H   0  0  0  0  0  0
  -21.0830   -8.8768   19.8949 H   0  0  0  0  0  0
  -22.3699  -10.9655   19.6144 H   0  0  0  0  0  0
  -21.2018   -7.6141   23.9700 H   0  0  0  0  0  0
  -21.1476   -6.0517   25.9065 H   0  0  0  0  0  0
  -22.0604   -2.7600   23.2849 H   0  0  0  0  0  0
  -22.4126  -11.9897   22.4806 H   0  0  0  0  0  0
  -21.1104  -13.1219   22.2573 H   0  0  0  0  0  0
  -24.6646  -15.8445   20.5154 H   0  0  0  0  0  0
  -26.2782  -15.6237   20.0682 H   0  0  0  0  0  0
  -26.7136  -32.5505   23.1155 H   0  0  0  0  0  0
  -25.0146  -33.9786   25.0530 H   0  0  0  0  0  0
  -22.6982  -31.3170   21.4169 H   0  0  0  0  0  0
  -23.3756  -35.9610   23.3307 H   0  0  0  0  0  0
  -24.3589  -36.8886   22.2043 H   0  0  0  0  0  0
  -23.7248  -37.6501   23.6632 H   0  0  0  0  0  0
  -26.0736  -31.5883   20.6113 H   0  0  0  0  0  0
  -26.8251  -30.8603   22.0020 H   0  0  0  0  0  0
  -28.0936  -29.0421   21.1989 H   0  0  0  0  0  0
  -25.9794  -26.0213   18.9207 H   0  0  0  0  0  0
  -23.9673  -27.3518   18.9836 H   0  0  0  0  0  0
  -23.7270  -30.6194   19.4072 H   0  0  0  0  0  0
  -22.7384  -29.2645   19.8618 H   0  0  0  0  0  0
  -25.1302  -36.1953   25.0837 H   0  0  0  0  0  0
  -20.9992  -28.3244   24.1420 H   0  0  0  0  0  0
  -20.5695  -26.2277   23.3600 H   0  0  0  0  0  0
  -21.6655  -26.7468   22.1202 H   0  0  0  0  0  0
  -19.6917  -25.6311   21.1241 H   0  0  0  0  0  0
  -19.6713  -27.3217   20.6747 H   0  0  0  0  0  0
  -17.4218  -26.6717   21.4005 H   0  0  0  0  0  0
  -18.0317  -26.0080   22.9006 H   0  0  0  0  0  0
  -19.7932  -30.7288   24.2276 H   0  0  0  0  0  0
  -17.5018  -31.6274   24.5184 H   0  0  0  0  0  0
  -15.5357  -30.3022   23.7649 H   0  0  0  0  0  0
  -15.8673  -28.0847   22.7073 H   0  0  0  0  0  0
  -24.5975  -30.7004   25.7859 H   0  0  0  0  0  0
  -24.8851  -32.2891   26.4825 H   0  0  0  0  0  0
  -25.8111  -30.9039   27.0301 H   0  0  0  0  0  0
  -26.2835  -29.6829   24.1167 H   0  0  0  0  0  0
  -27.4014  -29.7260   25.4617 H   0  0  0  0  0  0
  -27.8721  -30.4338   23.9343 H   0  0  0  0  0  0
  -27.2699  -33.3652   26.2045 H   0  0  0  0  0  0
  -28.3888  -32.6854   25.0320 H   0  0  0  0  0  0
  -28.0713  -31.8464   26.5426 H   0  0  0  0  0  0
  -28.2617  -38.0088   24.7514 H   0  0  0  0  0  0
  -28.1071  -36.2624   24.6301 H   0  0  0  0  0  0
  -27.2299  -37.1466   25.8871 H   0  0  0  0  0  0
  -20.9285  -29.8751   21.6915 H   0  0  0  0  0  0
  -26.0172  -38.2873   24.1416 H   0  0  0  0  0  0
  -27.8452  -20.3710   20.9803 H   0  0  0  0  0  0
  -31.5506  -22.6658   18.7831 H   0  0  0  0  0  0
  -32.8157  -21.6489   19.5182 H   0  0  0  0  0  0
  -32.1058  -22.9957   20.4513 H   0  0  0  0  0  0
  -28.1138  -18.5098   22.9463 H   0  0  0  0  0  0
  -28.3620  -16.7936   22.7217 H   0  0  0  0  0  0
  -27.6422  -17.7484   21.4283 H   0  0  0  0  0  0
  -30.2153  -24.4404   20.0718 H   0  0  0  0  0  0
  -29.1637  -24.1324   21.4396 H   0  0  0  0  0  0
  -29.0193  -22.7376   18.6987 H   0  0  0  0  0  0
  -27.7802  -22.5668   19.9034 H   0  0  0  0  0  0
  -31.2960  -17.1097   20.3743 H   0  0  0  0  0  0
  -29.7030  -17.1435   19.6695 H   0  0  0  0  0  0
  -27.2265  -24.8484   20.1908 H   0  0  0  0  0  0
  -28.1573  -25.1288   18.7233 H   0  0  0  0  0  0
  -30.4965  -17.9867   22.4840 H   0  0  0  0  0  0
  -31.9764  -19.6295   20.7794 H   0  0  0  0  0  0
  -29.0560  -15.3403   21.3400 H   0  0  0  0  0  0
  1 25  1  0  0  0
  1 30  2  0  0  0
  1 83  1  0  0  0
  2  3  1  0  0  0
  2 25  1  0  0  0
  2 84  1  0  0  0
  2 85  1  0  0  0
  3  4  1  0  0  0
  3 86  1  0  0  0
  3 87  1  0  0  0
  4  5  1  0  0  0
  4 88  1  0  0  0
  4 89  1  0  0  0
  5  6  1  0  0  0
  5 26  1  0  0  0
  5 90  1  0  0  0
  6 25  1  0  0  0
  6 91  1  0  0  0
  6 92  1  0  0  0
  7  8  2  0  0  0
  7 26  1  0  0  0
  7 29  1  0  0  0
  8  9  1  0  0  0
  8 22  1  0  0  0
  9 10  1  0  0  0
  9 27  2  0  0  0
 10 11  2  0  0  0
 10 15  1  0  0  0
 11 12  1  0  0  0
 11 93  1  0  0  0
 12 13  2  0  0  0
 12 94  1  0  0  0
 13 14  1  0  0  0
 13 31  1  0  0  0
 14 15  2  0  0  0
 14 95  1  0  0  0
 15 96  1  0  0  0
 16 17  2  0  0  0
 16 21  1  0  0  0
 16 31  1  0  0  0
 17 18  1  0  0  0
 17 97  1  0  0  0
 18 19  2  0  0  0
 18 98  1  0  0  0
 19 20  1  0  0  0
 19 24  1  0  0  0
 20 21  2  0  0  0
 20 99  1  0  0  0
 21 23  1  0  0  0
 22 28  1  0  0  0
 22 32  2  0  0  0
 26 27  1  0  0  0
 28100  1  0  0  0
 28101  1  0  0  0
 29102  1  0  0  0
 29103  1  0  0  0
 33 34  1  0  0  0
 33 66  1  0  0  0
 33 70  2  0  0  0
 34 36  1  0  0  0
 34 59  1  0  0  0
 34104  1  0  0  0
 35 44  2  0  0  0
 35 45  1  0  0  0
 35 68  1  0  0  0
 36 56  1  0  0  0
 36105  1  0  0  0
 37 39  1  0  0  0
 37 47  1  0  0  0
 37 66  1  0  0  0
 37106  1  0  0  0
 38 43  2  0  0  0
 38 46  1  0  0  0
 38 47  1  0  0  0
 39 64  1  0  0  0
 39 67  2  0  0  0
 40 52  1  0  0  0
 40 53  2  0  0  0
 40 58  1  0  0  0
 41107  1  0  0  0
 41108  1  0  0  0
 41109  1  0  0  0
 41 48  1  0  0  0
 42 43  1  0  0  0
 42 66  1  0  0  0
 42110  1  0  0  0
 42111  1  0  0  0
 43 44  1  0  0  0
 44112  1  0  0  0
 45 46  2  0  0  0
 45113  1  0  0  0
 46114  1  0  0  0
 47115  1  0  0  0
 47116  1  0  0  0
 48 56  1  0  0  0
 48 65  1  0  0  0
 48117  1  0  0  0
 49 50  1  0  0  0
 49 53  1  0  0  0
 49 64  1  0  0  0
 49118  1  0  0  0
 50 51  1  0  0  0
 50119  1  0  0  0
 50120  1  0  0  0
 51 52  1  0  0  0
 51121  1  0  0  0
 51122  1  0  0  0
 52123  1  0  0  0
 52124  1  0  0  0
 53 54  1  0  0  0
 54 55  2  0  0  0
 54125  1  0  0  0
 55 57  1  0  0  0
 55126  1  0  0  0
 56 69  2  0  0  0
 57 58  2  0  0  0
 57127  1  0  0  0
 58128  1  0  0  0
 59 60  1  0  0  0
 59 61  1  0  0  0
 59 62  1  0  0  0
 60129  1  0  0  0
 60130  1  0  0  0
 60131  1  0  0  0
 61132  1  0  0  0
 61133  1  0  0  0
 61134  1  0  0  0
 62135  1  0  0  0
 62136  1  0  0  0
 62137  1  0  0  0
 63 65  1  0  0  0
 63138  1  0  0  0
 63139  1  0  0  0
 63140  1  0  0  0
 64141  1  0  0  0
 65142  1  0  0  0
 68 79  1  0  0  0
 71 72  2  0  0  0
 71 81  1  0  0  0
 71143  1  0  0  0
 72 80  1  0  0  0
 72 82  1  0  0  0
 73 74  1  0  0  0
 73 81  1  0  0  0
 73 82  2  0  0  0
 74144  1  0  0  0
 74145  1  0  0  0
 74146  1  0  0  0
 75147  1  0  0  0
 75148  1  0  0  0
 75149  1  0  0  0
 75 80  1  0  0  0
 76 77  1  0  0  0
 76 79  1  0  0  0
 76150  1  0  0  0
 76151  1  0  0  0
 77 81  1  0  0  0
 77152  1  0  0  0
 77153  1  0  0  0
 78 80  1  0  0  0
 78 83  1  0  0  0
 78154  1  0  0  0
 78155  1  0  0  0
 79156  1  0  0  0
 79157  1  0  0  0
 80158  1  0  0  0
 82159  1  0  0  0
 83160  1  0  0  0
M  CHG  1  82   1
M  ISO  4   1 100  68 101  79 101  83 100
M  END
> <chiral flag>
0

> <version>
0

> <s_m_source_file>
/data/baiqing/PycharmProjects/Reinvent-master-3.2/result/LINK_invent/BTK/process_docking_weight1_custom_sum_contain_oxygen_bond_distance_aromatic_linkinvent_7_9_3/rearranged_h_0081.sdf

> <i_m_source_file_index>
1

> <r_mmod_Potential_Energy-OPLS-2005>
-144.11474609375

> <r_mmod_Stretch_Energy-OPLS-2005>
44.0784645080566

> <r_mmod_Bend_Energy-OPLS-2005>
108.734085083008

> <r_mmod_Torsional_Energy-OPLS-2005>
220.266860961914

> <r_mmod_Improper_Torsional_Energy-OPLS-2005>
6.33258628845215

> <r_mmod_Van_der_Waal_Energy-OPLS-2005>
135.613708496094

> <r_mmod_Electrostatic_Energy-OPLS-2005>
-256.242950439453

> <r_mmod_Solvation_Energy-OPLS-2005>
-423.406982421875

> <b_mmod_Minimization_Converged-OPLS-2005>
0

> <r_mmod_RMS_Derivative-OPLS-2005>
1.76767933368683

$$$$
1
                    3D
 Structure written by MMmdl.
171179  0  0  1  0            999 V2000
  -30.5345  -14.7981   20.4351 C   0  0  0  0  0  0
  -30.4433  -12.4796   19.4907 C   0  0  0  0  0  0
  -29.5221  -12.5216   18.2504 C   0  0  0  0  0  0
  -28.0460  -12.3348   18.6529 C   0  0  0  0  0  0
  -27.6454  -13.2239   19.8593 C   0  0  2  0  0  0
  -28.6851  -13.1466   20.9996 C   0  0  0  0  0  0
  -25.2528  -13.8183   20.5680 C   0  0  0  0  0  0
  -24.1807  -13.0440   20.9182 C   0  0  0  0  0  0
  -24.6384  -11.6916   20.8733 C   0  0  0  0  0  0
  -23.9051  -10.4308   21.0415 C   0  0  0  0  0  0
  -24.3619   -9.4225   21.9188 C   0  0  0  0  0  0
  -23.6311   -8.2252   22.0737 C   0  0  0  0  0  0
  -22.4291   -8.0282   21.3535 C   0  0  0  0  0  0
  -21.9928   -9.0251   20.4633 C   0  0  0  0  0  0
  -22.7228  -10.2142   20.3058 C   0  0  0  0  0  0
  -21.6865   -6.0746   22.5282 C   0  0  0  0  0  0
  -21.4012   -6.5651   23.8208 C   0  0  0  0  0  0
  -21.3669   -5.6792   24.9176 C   0  0  0  0  0  0
  -21.6046   -4.3060   24.7222 C   0  0  0  0  0  0
  -21.8819   -3.8154   23.4343 C   0  0  0  0  0  0
  -21.9196   -4.6975   22.3402 C   0  0  0  0  0  0
  -22.7831  -13.5232   21.1862 C   0  0  0  0  0  0
  -22.1651   -4.2165   21.0979 F   0  0  0  0  0  0
  -21.5652   -3.4533   25.7735 F   0  0  0  0  0  0
  -29.9882  -13.5296   20.4348 N   0  0  0  0  0  0
  -26.2948  -12.9355   20.3280 N   0  0  0  0  0  0
  -25.9305  -11.6514   20.5743 N   0  0  0  0  0  0
  -22.0476  -12.8210   22.0421 N   0  0  0  0  0  0
  -25.4286  -15.1917   20.4153 N   0  0  0  0  0  0
  -31.6870  -14.9676   20.0237 O   0  0  0  0  0  0
  -21.6646   -6.8886   21.4240 O   0  0  0  0  0  0
  -22.3508  -14.5534   20.6717 O   0  0  0  0  0  0
  -24.6317  -31.8529   23.1952 C   0  0  0  0  0  0
  -25.9142  -32.4739   23.8301 C   0  0  1  0  0  0
  -27.2124  -27.2375   20.1300 C   0  0  0  0  0  0
  -25.5935  -33.8544   24.2231 N   0  0  0  0  0  0
  -23.4281  -30.4728   21.5396 C   0  0  2  0  0  0
  -24.8723  -28.9120   20.1065 C   0  0  0  0  0  0
  -22.7495  -29.4583   22.4910 C   0  0  0  0  0  0
  -18.0288  -28.1387   22.8479 C   0  0  0  0  0  0
  -24.1496  -36.7275   23.2641 C   0  0  0  0  0  0
  -25.9730  -30.7554   21.3775 C   0  0  0  0  0  0
  -26.0420  -29.3761   20.7191 C   0  0  0  0  0  0
  -27.2112  -28.5501   20.7194 C   0  0  0  0  0  0
  -26.0215  -26.8414   19.4855 C   0  0  0  0  0  0
  -24.8686  -27.6556   19.4787 C   0  0  0  0  0  0
  -23.6456  -29.8041   20.1555 C   0  0  0  0  0  0
  -25.4128  -36.3061   24.0318 C   0  0  1  0  0  0
  -20.5890  -28.3698   23.1272 C   0  0  2  0  0  0
  -20.6778  -26.9419   22.5410 C   0  0  0  0  0  0
  -19.5760  -26.6383   21.5213 C   0  0  0  0  0  0
  -18.1936  -26.7927   22.1620 C   0  0  0  0  0  0
  -19.1539  -28.8862   23.2866 C   0  0  0  0  0  0
  -18.9461  -30.1461   23.8886 C   0  0  0  0  0  0
  -17.6464  -30.6588   24.0564 C   0  0  0  0  0  0
  -25.9068  -34.9432   23.5082 C   0  0  0  0  0  0
  -16.5352  -29.9088   23.6336 C   0  0  0  0  0  0
  -16.7272  -28.6503   23.0353 C   0  0  0  0  0  0
  -26.4506  -31.6569   25.0698 C   0  0  0  0  0  0
  -25.3721  -31.3722   26.1415 C   0  0  0  0  0  0
  -27.0350  -30.2979   24.6195 C   0  0  0  0  0  0
  -27.6061  -32.4311   25.7464 C   0  0  0  0  0  0
  -27.5580  -37.1800   24.8467 C   0  0  0  0  0  0
  -21.4202  -29.3039   22.3652 N   0  0  0  0  0  0
  -26.4302  -37.3762   23.9397 N   0  0  0  0  0  0
  -24.6965  -31.0472   22.0933 N   0  0  0  0  0  0
  -23.4187  -28.8144   23.3036 O   0  0  0  0  0  0
  -28.3229  -26.3655   20.2266 O   0  0  0  0  0  0
  -26.5646  -34.8911   22.4656 O   0  0  0  0  0  0
  -23.5470  -32.1366   23.7247 O   0  0  0  0  0  0
  -29.6854  -22.0781   18.8901 C   0  0  0  0  0  0
  -28.8927  -22.2178   20.0515 C   0  0  0  0  0  0
  -30.2443  -20.8131   18.8925 C   0  0  0  0  0  0
  -28.9318  -17.0956   18.6596 C   0  0  0  0  0  0
  -28.8611  -23.8752   21.9691 C   0  0  0  0  0  0
  -26.7149  -23.3459   20.7683 C   0  0  0  0  0  0
  -32.7227  -20.4278   18.7142 C   0  0  0  0  0  0
  -31.5186  -21.3898   16.7750 C   0  0  0  0  0  0
  -31.1940  -19.0134   17.3359 C   0  0  0  0  0  0
  -30.0742  -18.6608   20.5253 C   0  0  0  0  0  0
  -28.4004  -24.9454   19.7028 C   0  0  0  0  0  0
  -29.3262  -17.2527   20.1362 C   0  0  2  0  0  0
  -28.2280  -23.5802   20.6002 C   0  0  0  0  0  0
  -31.3797  -20.3999   17.9596 C   0  0  0  0  0  0
  -28.8767  -20.9807   20.6601 N   0  0  0  0  0  0
  -29.6913  -20.0682   19.9632 N   0  0  0  0  0  0
  -29.6770  -15.8574   20.7271 N   0  0  0  0  0  0
  -31.4821  -12.6265   19.1911 H   0  0  0  0  0  0
  -30.4047  -11.4978   19.9653 H   0  0  0  0  0  0
  -29.8150  -11.7475   17.5401 H   0  0  0  0  0  0
  -29.6462  -13.4755   17.7357 H   0  0  0  0  0  0
  -27.9055  -11.2839   18.9072 H   0  0  0  0  0  0
  -27.3917  -12.5327   17.8022 H   0  0  0  0  0  0
  -27.6403  -14.2466   19.4874 H   0  0  0  0  0  0
  -28.7281  -12.1379   21.4150 H   0  0  0  0  0  0
  -28.4034  -13.8041   21.8251 H   0  0  0  0  0  0
  -25.2761   -9.5718   22.4758 H   0  0  0  0  0  0
  -24.0036   -7.4653   22.7451 H   0  0  0  0  0  0
  -21.0859   -8.8747   19.8948 H   0  0  0  0  0  0
  -22.3661  -10.9680   19.6179 H   0  0  0  0  0  0
  -21.1968   -7.6153   23.9710 H   0  0  0  0  0  0
  -21.1504   -6.0529   25.9077 H   0  0  0  0  0  0
  -22.0590   -2.7619   23.2829 H   0  0  0  0  0  0
  -22.4081  -11.9864   22.4813 H   0  0  0  0  0  0
  -21.1100  -13.1226   22.2622 H   0  0  0  0  0  0
  -24.6718  -15.8548   20.5396 H   0  0  0  0  0  0
  -26.2832  -15.6279   20.0953 H   0  0  0  0  0  0
  -26.7191  -32.5373   23.1023 H   0  0  0  0  0  0
  -25.0074  -33.9677   25.0372 H   0  0  0  0  0  0
  -22.7255  -31.2958   21.3933 H   0  0  0  0  0  0
  -23.3758  -35.9612   23.3320 H   0  0  0  0  0  0
  -24.3579  -36.8888   22.2052 H   0  0  0  0  0  0
  -23.7257  -37.6482   23.6662 H   0  0  0  0  0  0
  -26.1177  -31.5150   20.6083 H   0  0  0  0  0  0
  -26.8485  -30.8020   22.0124 H   0  0  0  0  0  0
  -28.1069  -28.8992   21.2132 H   0  0  0  0  0  0
  -25.9464  -25.8781   19.0047 H   0  0  0  0  0  0
  -23.9706  -27.2980   18.9932 H   0  0  0  0  0  0
  -23.7742  -30.5799   19.4002 H   0  0  0  0  0  0
  -22.7613  -29.2411   19.8513 H   0  0  0  0  0  0
  -25.1319  -36.1905   25.0812 H   0  0  0  0  0  0
  -20.9975  -28.3283   24.1398 H   0  0  0  0  0  0
  -20.5690  -26.2309   23.3615 H   0  0  0  0  0  0
  -21.6646  -26.7454   22.1202 H   0  0  0  0  0  0
  -19.6929  -25.6292   21.1251 H   0  0  0  0  0  0
  -19.6704  -27.3188   20.6740 H   0  0  0  0  0  0
  -17.4211  -26.6669   21.4019 H   0  0  0  0  0  0
  -18.0340  -26.0067   22.9015 H   0  0  0  0  0  0
  -19.7940  -30.7276   24.2249 H   0  0  0  0  0  0
  -17.5022  -31.6270   24.5168 H   0  0  0  0  0  0
  -15.5358  -30.2993   23.7663 H   0  0  0  0  0  0
  -15.8667  -28.0827   22.7077 H   0  0  0  0  0  0
  -24.5895  -30.7081   25.7727 H   0  0  0  0  0  0
  -24.8919  -32.2895   26.4830 H   0  0  0  0  0  0
  -25.8027  -30.8890   27.0194 H   0  0  0  0  0  0
  -26.2925  -29.6715   24.1235 H   0  0  0  0  0  0
  -27.4040  -29.7254   25.4715 H   0  0  0  0  0  0
  -27.8806  -30.4243   23.9430 H   0  0  0  0  0  0
  -27.2674  -33.3619   26.2026 H   0  0  0  0  0  0
  -28.3874  -32.6858   25.0289 H   0  0  0  0  0  0
  -28.0729  -31.8447   26.5389 H   0  0  0  0  0  0
  -28.2614  -38.0081   24.7494 H   0  0  0  0  0  0
  -28.1063  -36.2612   24.6328 H   0  0  0  0  0  0
  -27.2292  -37.1484   25.8869 H   0  0  0  0  0  0
  -20.9393  -29.8732   21.6828 H   0  0  0  0  0  0
  -26.0180  -38.2840   24.1384 H   0  0  0  0  0  0
  -29.9071  -22.8758   18.1987 H   0  0  0  0  0  0
  -29.7557  -16.7235   18.0523 H   0  0  0  0  0  0
  -28.5769  -18.0373   18.2395 H   0  0  0  0  0  0
  -28.1184  -16.3781   18.5486 H   0  0  0  0  0  0
  -28.6992  -23.0527   22.6673 H   0  0  0  0  0  0
  -28.4396  -24.7746   22.4186 H   0  0  0  0  0  0
  -29.9359  -24.0235   21.8731 H   0  0  0  0  0  0
  -26.5094  -22.4993   21.4249 H   0  0  0  0  0  0
  -26.2429  -23.1352   19.8089 H   0  0  0  0  0  0
  -26.2212  -24.2204   21.1940 H   0  0  0  0  0  0
  -32.9439  -21.4258   19.0958 H   0  0  0  0  0  0
  -33.5475  -20.1353   18.0646 H   0  0  0  0  0  0
  -32.7348  -19.7518   19.5660 H   0  0  0  0  0  0
  -31.7655  -22.3991   17.1080 H   0  0  0  0  0  0
  -30.5973  -21.4502   16.1928 H   0  0  0  0  0  0
  -32.3128  -21.0959   16.0894 H   0  0  0  0  0  0
  -31.3076  -18.2290   18.0763 H   0  0  0  0  0  0
  -31.9490  -18.8166   16.5746 H   0  0  0  0  0  0
  -30.2202  -18.9219   16.8547 H   0  0  0  0  0  0
  -31.1308  -18.5151   20.3185 H   0  0  0  0  0  0
  -30.0381  -18.7541   21.6108 H   0  0  0  0  0  0
  -27.8245  -24.8506   18.7827 H   0  0  0  0  0  0
  -29.4308  -24.9114   19.3503 H   0  0  0  0  0  0
  -28.3556  -17.4177   20.6099 H   0  0  0  0  0  0
  -28.8877  -15.4903   21.2385 H   0  0  0  0  0  0
  1 25  1  0  0  0
  1 30  2  0  0  0
  1 87  1  0  0  0
  2  3  1  0  0  0
  2 25  1  0  0  0
  2 88  1  0  0  0
  2 89  1  0  0  0
  3  4  1  0  0  0
  3 90  1  0  0  0
  3 91  1  0  0  0
  4  5  1  0  0  0
  4 92  1  0  0  0
  4 93  1  0  0  0
  5  6  1  0  0  0
  5 26  1  0  0  0
  5 94  1  0  0  0
  6 25  1  0  0  0
  6 95  1  0  0  0
  6 96  1  0  0  0
  7  8  2  0  0  0
  7 26  1  0  0  0
  7 29  1  0  0  0
  8  9  1  0  0  0
  8 22  1  0  0  0
  9 10  1  0  0  0
  9 27  2  0  0  0
 10 11  2  0  0  0
 10 15  1  0  0  0
 11 12  1  0  0  0
 11 97  1  0  0  0
 12 13  2  0  0  0
 12 98  1  0  0  0
 13 14  1  0  0  0
 13 31  1  0  0  0
 14 15  2  0  0  0
 14 99  1  0  0  0
 15100  1  0  0  0
 16 17  2  0  0  0
 16 21  1  0  0  0
 16 31  1  0  0  0
 17 18  1  0  0  0
 17101  1  0  0  0
 18 19  2  0  0  0
 18102  1  0  0  0
 19 20  1  0  0  0
 19 24  1  0  0  0
 20 21  2  0  0  0
 20103  1  0  0  0
 21 23  1  0  0  0
 22 28  1  0  0  0
 22 32  2  0  0  0
 26 27  1  0  0  0
 28104  1  0  0  0
 28105  1  0  0  0
 29106  1  0  0  0
 29107  1  0  0  0
 33 34  1  0  0  0
 33 66  1  0  0  0
 33 70  2  0  0  0
 34 36  1  0  0  0
 34 59  1  0  0  0
 34108  1  0  0  0
 35 44  2  0  0  0
 35 45  1  0  0  0
 35 68  1  0  0  0
 36 56  1  0  0  0
 36109  1  0  0  0
 37 39  1  0  0  0
 37 47  1  0  0  0
 37 66  1  0  0  0
 37110  1  0  0  0
 38 43  2  0  0  0
 38 46  1  0  0  0
 38 47  1  0  0  0
 39 64  1  0  0  0
 39 67  2  0  0  0
 40 52  1  0  0  0
 40 53  2  0  0  0
 40 58  1  0  0  0
 41111  1  0  0  0
 41112  1  0  0  0
 41113  1  0  0  0
 41 48  1  0  0  0
 42 43  1  0  0  0
 42 66  1  0  0  0
 42114  1  0  0  0
 42115  1  0  0  0
 43 44  1  0  0  0
 44116  1  0  0  0
 45 46  2  0  0  0
 45117  1  0  0  0
 46118  1  0  0  0
 47119  1  0  0  0
 47120  1  0  0  0
 48 56  1  0  0  0
 48 65  1  0  0  0
 48121  1  0  0  0
 49 50  1  0  0  0
 49 53  1  0  0  0
 49 64  1  0  0  0
 49122  1  0  0  0
 50 51  1  0  0  0
 50123  1  0  0  0
 50124  1  0  0  0
 51 52  1  0  0  0
 51125  1  0  0  0
 51126  1  0  0  0
 52127  1  0  0  0
 52128  1  0  0  0
 53 54  1  0  0  0
 54 55  2  0  0  0
 54129  1  0  0  0
 55 57  1  0  0  0
 55130  1  0  0  0
 56 69  2  0  0  0
 57 58  2  0  0  0
 57131  1  0  0  0
 58132  1  0  0  0
 59 60  1  0  0  0
 59 61  1  0  0  0
 59 62  1  0  0  0
 60133  1  0  0  0
 60134  1  0  0  0
 60135  1  0  0  0
 61136  1  0  0  0
 61137  1  0  0  0
 61138  1  0  0  0
 62139  1  0  0  0
 62140  1  0  0  0
 62141  1  0  0  0
 63 65  1  0  0  0
 63142  1  0  0  0
 63143  1  0  0  0
 63144  1  0  0  0
 64145  1  0  0  0
 65146  1  0  0  0
 68 81  1  0  0  0
 71 72  1  0  0  0
 71 73  2  0  0  0
 71147  1  0  0  0
 72 83  1  0  0  0
 72 85  2  0  0  0
 73 84  1  0  0  0
 73 86  1  0  0  0
 74148  1  0  0  0
 74149  1  0  0  0
 74150  1  0  0  0
 74 82  1  0  0  0
 75151  1  0  0  0
 75152  1  0  0  0
 75153  1  0  0  0
 75 83  1  0  0  0
 76 83  1  0  0  0
 76154  1  0  0  0
 76155  1  0  0  0
 76156  1  0  0  0
 77157  1  0  0  0
 77158  1  0  0  0
 77159  1  0  0  0
 77 84  1  0  0  0
 78 84  1  0  0  0
 78160  1  0  0  0
 78161  1  0  0  0
 78162  1  0  0  0
 79 84  1  0  0  0
 79163  1  0  0  0
 79164  1  0  0  0
 79165  1  0  0  0
 80 82  1  0  0  0
 80 86  1  0  0  0
 80166  1  0  0  0
 80167  1  0  0  0
 81 83  1  0  0  0
 81168  1  0  0  0
 81169  1  0  0  0
 82 87  1  0  0  0
 82170  1  0  0  0
 85 86  1  0  0  0
 87171  1  0  0  0
M  ISO  4   1 100  68 101  81 101  87 100
M  END
> <chiral flag>
0

> <version>
0

> <s_m_source_file>
/data/baiqing/PycharmProjects/Reinvent-master-3.2/result/LINK_invent/BTK/process_docking_weight1_custom_sum_contain_oxygen_bond_distance_aromatic_linkinvent_7_9_3/rearranged_h_0081.sdf

> <i_m_source_file_index>
2

> <r_mmod_Potential_Energy-OPLS-2005>
275.011596679688

> <r_mmod_Stretch_Energy-OPLS-2005>
163.932159423828

> <r_mmod_Bend_Energy-OPLS-2005>
261.196746826172

> <r_mmod_Torsional_Energy-OPLS-2005>
228.251663208008

> <r_mmod_Improper_Torsional_Energy-OPLS-2005>
8.22180557250977

> <r_mmod_Van_der_Waal_Energy-OPLS-2005>
109.527030944824

> <r_mmod_Electrostatic_Energy-OPLS-2005>
-393.716766357422

> <r_mmod_Solvation_Energy-OPLS-2005>
-209.006683349609

> <b_mmod_Minimization_Converged-OPLS-2005>
0

> <r_mmod_RMS_Derivative-OPLS-2005>
2.27934885025024

$$$$
2
                    3D
 Structure written by MMmdl.
165173  0  0  1  0            999 V2000
  -30.6715  -14.4332   20.6248 C   0  0  0  0  0  0
  -30.4329  -12.3013   19.3978 C   0  0  0  0  0  0
  -29.4915  -12.5189   18.1948 C   0  0  0  0  0  0
  -28.0107  -12.3759   18.6061 C   0  0  0  0  0  0
  -27.6635  -13.1939   19.8791 C   0  0  2  0  0  0
  -28.7006  -12.9150   20.9883 C   0  0  0  0  0  0
  -25.2580  -13.8108   20.5622 C   0  0  0  0  0  0
  -24.1837  -13.0429   20.9175 C   0  0  0  0  0  0
  -24.6370  -11.6882   20.8751 C   0  0  0  0  0  0
  -23.9031  -10.4285   21.0411 C   0  0  0  0  0  0
  -24.3600   -9.4203   21.9188 C   0  0  0  0  0  0
  -23.6289   -8.2236   22.0758 C   0  0  0  0  0  0
  -22.4267   -8.0282   21.3555 C   0  0  0  0  0  0
  -21.9894   -9.0241   20.4650 C   0  0  0  0  0  0
  -22.7206  -10.2126   20.3055 C   0  0  0  0  0  0
  -21.6847   -6.0745   22.5289 C   0  0  0  0  0  0
  -21.4007   -6.5648   23.8223 C   0  0  0  0  0  0
  -21.3659   -5.6800   24.9188 C   0  0  0  0  0  0
  -21.6045   -4.3062   24.7233 C   0  0  0  0  0  0
  -21.8821   -3.8153   23.4356 C   0  0  0  0  0  0
  -21.9192   -4.6973   22.3408 C   0  0  0  0  0  0
  -22.7868  -13.5242   21.1855 C   0  0  0  0  0  0
  -22.1663   -4.2162   21.0985 F   0  0  0  0  0  0
  -21.5619   -3.4540   25.7741 F   0  0  0  0  0  0
  -30.0361  -13.2443   20.4540 N   0  0  0  0  0  0
  -26.3021  -12.9265   20.3363 N   0  0  0  0  0  0
  -25.9292  -11.6445   20.5797 N   0  0  0  0  0  0
  -22.0507  -12.8248   22.0406 N   0  0  0  0  0  0
  -25.4308  -15.1802   20.3878 N   0  0  0  0  0  0
  -31.7612  -14.7057   20.1103 O   0  0  0  0  0  0
  -21.6631   -6.8884   21.4249 O   0  0  0  0  0  0
  -22.3559  -14.5561   20.6708 O   0  0  0  0  0  0
  -24.6146  -31.8677   23.2119 C   0  0  0  0  0  0
  -25.9033  -32.4830   23.8407 C   0  0  1  0  0  0
  -27.2350  -27.4369   20.0909 C   0  0  0  0  0  0
  -25.5876  -33.8624   24.2332 N   0  0  0  0  0  0
  -23.4007  -30.4942   21.5525 C   0  0  2  0  0  0
  -24.8421  -28.9555   20.1235 C   0  0  0  0  0  0
  -22.7399  -29.4667   22.5002 C   0  0  0  0  0  0
  -18.0272  -28.1341   22.8515 C   0  0  0  0  0  0
  -24.1472  -36.7322   23.2648 C   0  0  0  0  0  0
  -25.9287  -30.8369   21.3605 C   0  0  0  0  0  0
  -26.0038  -29.4689   20.7127 C   0  0  0  0  0  0
  -27.1994  -28.7166   20.6926 C   0  0  0  0  0  0
  -26.0479  -26.9324   19.5114 C   0  0  0  0  0  0
  -24.8579  -27.6835   19.5267 C   0  0  0  0  0  0
  -23.6072  -29.8263   20.1675 C   0  0  0  0  0  0
  -25.4090  -36.3123   24.0356 C   0  0  1  0  0  0
  -20.5865  -28.3635   23.1310 C   0  0  2  0  0  0
  -20.6743  -26.9366   22.5414 C   0  0  0  0  0  0
  -19.5714  -26.6363   21.5208 C   0  0  0  0  0  0
  -18.1903  -26.7889   22.1634 C   0  0  0  0  0  0
  -19.1525  -28.8800   23.2918 C   0  0  0  0  0  0
  -18.9453  -30.1402   23.8933 C   0  0  0  0  0  0
  -17.6456  -30.6557   24.0556 C   0  0  0  0  0  0
  -25.9017  -34.9489   23.5143 C   0  0  0  0  0  0
  -16.5344  -29.9064   23.6313 C   0  0  0  0  0  0
  -16.7264  -28.6470   23.0364 C   0  0  0  0  0  0
  -26.4453  -31.6610   25.0735 C   0  0  0  0  0  0
  -25.3737  -31.3712   26.1501 C   0  0  0  0  0  0
  -27.0284  -30.3061   24.6092 C   0  0  0  0  0  0
  -27.6030  -32.4328   25.7492 C   0  0  0  0  0  0
  -27.5575  -37.1815   24.8470 C   0  0  0  0  0  0
  -21.4131  -29.3023   22.3732 N   0  0  0  0  0  0
  -26.4283  -37.3804   23.9422 N   0  0  0  0  0  0
  -24.6668  -31.0806   22.1001 N   0  0  0  0  0  0
  -23.4169  -28.8203   23.3044 O   0  0  0  0  0  0
  -28.4392  -26.7589   20.0700 O   0  0  0  0  0  0
  -26.5592  -34.8949   22.4711 O   0  0  0  0  0  0
  -23.5340  -32.1389   23.7537 O   0  0  0  0  0  0
  -27.2811  -19.9206   22.7116 C   0  0  0  0  0  0
  -28.2783  -20.7287   22.0958 C   0  0  0  0  0  0
  -27.5104  -18.6540   22.2654 C   0  0  0  0  0  0
  -26.7785  -17.3997   22.6104 C   0  0  0  0  0  0
  -27.5122  -22.7428   23.3694 C   0  0  0  0  0  0
  -29.9332  -22.4381   22.8707 C   0  0  0  0  0  0
  -28.2133  -24.5622   21.1269 C   0  0  0  0  0  0
  -28.3203  -23.0188   20.9803 C   0  0  0  0  0  0
  -29.2016  -17.6303   20.6382 C   0  0  0  0  0  0
  -30.1891  -16.7730   21.4748 C   0  0  0  0  0  0
  -28.4838  -25.3448   19.8307 C   0  0  0  0  0  0
  -28.5127  -22.2281   22.3085 C   0  0  0  0  0  0
  -29.0539  -19.9931   21.2962 N   0  0  0  0  0  0
  -28.5875  -18.7188   21.3999 N   0  0  0  0  0  0
  -29.9538  -15.3353   21.3128 N   0  0  0  0  0  0
  -31.4706  -12.4382   19.0866 H   0  0  0  0  0  0
  -30.3648  -11.2739   19.7602 H   0  0  0  0  0  0
  -29.7260  -11.8140   17.3956 H   0  0  0  0  0  0
  -29.6625  -13.5147   17.7821 H   0  0  0  0  0  0
  -27.8107  -11.3181   18.7847 H   0  0  0  0  0  0
  -27.3616  -12.6705   17.7804 H   0  0  0  0  0  0
  -27.7229  -14.2502   19.6136 H   0  0  0  0  0  0
  -28.6736  -11.8616   21.2679 H   0  0  0  0  0  0
  -28.4500  -13.4519   21.9042 H   0  0  0  0  0  0
  -25.2750   -9.5692   22.4757 H   0  0  0  0  0  0
  -24.0030   -7.4618   22.7439 H   0  0  0  0  0  0
  -21.0845   -8.8720   19.8932 H   0  0  0  0  0  0
  -22.3655  -10.9662   19.6158 H   0  0  0  0  0  0
  -21.1985   -7.6153   23.9729 H   0  0  0  0  0  0
  -21.1485   -6.0533   25.9092 H   0  0  0  0  0  0
  -22.0601   -2.7616   23.2849 H   0  0  0  0  0  0
  -22.4128  -11.9906   22.4795 H   0  0  0  0  0  0
  -21.1110  -13.1259   22.2600 H   0  0  0  0  0  0
  -24.6484  -15.8241   20.4257 H   0  0  0  0  0  0
  -26.2641  -15.5932   19.9913 H   0  0  0  0  0  0
  -26.7133  -32.5539   23.1202 H   0  0  0  0  0  0
  -25.0046  -33.9771   25.0492 H   0  0  0  0  0  0
  -22.6906  -31.3121   21.4134 H   0  0  0  0  0  0
  -23.3733  -35.9655   23.3315 H   0  0  0  0  0  0
  -24.3585  -36.8918   22.2064 H   0  0  0  0  0  0
  -23.7218  -37.6533   23.6640 H   0  0  0  0  0  0
  -26.0380  -31.6037   20.5916 H   0  0  0  0  0  0
  -26.8185  -30.8919   21.9762 H   0  0  0  0  0  0
  -28.0998  -29.1143   21.1400 H   0  0  0  0  0  0
  -26.0129  -25.9700   19.0277 H   0  0  0  0  0  0
  -23.9646  -27.2745   19.0742 H   0  0  0  0  0  0
  -23.7193  -30.5986   19.4047 H   0  0  0  0  0  0
  -22.7278  -29.2510   19.8729 H   0  0  0  0  0  0
  -25.1261  -36.2006   25.0852 H   0  0  0  0  0  0
  -20.9990  -28.3208   24.1412 H   0  0  0  0  0  0
  -20.5592  -26.2265   23.3617 H   0  0  0  0  0  0
  -21.6615  -26.7359   22.1226 H   0  0  0  0  0  0
  -19.6858  -25.6284   21.1210 H   0  0  0  0  0  0
  -19.6627  -27.3196   20.6756 H   0  0  0  0  0  0
  -17.4161  -26.6661   21.4043 H   0  0  0  0  0  0
  -18.0294  -26.0003   22.9003 H   0  0  0  0  0  0
  -19.7932  -30.7201   24.2327 H   0  0  0  0  0  0
  -17.5014  -31.6251   24.5127 H   0  0  0  0  0  0
  -15.5343  -30.2973   23.7598 H   0  0  0  0  0  0
  -15.8671  -28.0785   22.7070 H   0  0  0  0  0  0
  -24.5897  -30.7057   25.7865 H   0  0  0  0  0  0
  -24.8940  -32.2867   26.4975 H   0  0  0  0  0  0
  -25.8113  -30.8879   27.0246 H   0  0  0  0  0  0
  -26.2825  -29.6840   24.1129 H   0  0  0  0  0  0
  -27.4049  -29.7278   25.4539 H   0  0  0  0  0  0
  -27.8658  -30.4397   23.9241 H   0  0  0  0  0  0
  -27.2637  -33.3614   26.2096 H   0  0  0  0  0  0
  -28.3818  -32.6910   25.0303 H   0  0  0  0  0  0
  -28.0715  -31.8434   26.5383 H   0  0  0  0  0  0
  -28.2605  -38.0101   24.7514 H   0  0  0  0  0  0
  -28.1052  -36.2635   24.6280 H   0  0  0  0  0  0
  -27.2307  -37.1470   25.8878 H   0  0  0  0  0  0
  -20.9267  -29.8833   21.7048 H   0  0  0  0  0  0
  -26.0179  -38.2891   24.1404 H   0  0  0  0  0  0
  -26.5104  -20.2215   23.4052 H   0  0  0  0  0  0
  -27.3652  -16.5064   22.4016 H   0  0  0  0  0  0
  -25.8465  -17.3366   22.0505 H   0  0  0  0  0  0
  -26.5250  -17.3906   23.6704 H   0  0  0  0  0  0
  -27.6008  -22.1823   24.3005 H   0  0  0  0  0  0
  -26.4813  -22.6474   23.0273 H   0  0  0  0  0  0
  -27.6769  -23.7873   23.6289 H   0  0  0  0  0  0
  -30.0701  -21.8780   23.7960 H   0  0  0  0  0  0
  -30.1416  -23.4839   23.0955 H   0  0  0  0  0  0
  -30.6925  -22.0996   22.1667 H   0  0  0  0  0  0
  -28.9209  -24.9132   21.8754 H   0  0  0  0  0  0
  -27.2234  -24.8255   21.5029 H   0  0  0  0  0  0
  -29.1385  -22.7618   20.3070 H   0  0  0  0  0  0
  -27.4152  -22.6703   20.4828 H   0  0  0  0  0  0
  -28.3910  -17.0160   20.2437 H   0  0  0  0  0  0
  -29.7048  -18.0395   19.7610 H   0  0  0  0  0  0
  -30.0692  -16.9909   22.5367 H   0  0  0  0  0  0
  -31.2184  -17.0303   21.2204 H   0  0  0  0  0  0
  -29.4957  -25.1160   19.4922 H   0  0  0  0  0  0
  -27.8370  -25.0095   19.0241 H   0  0  0  0  0  0
  -29.0975  -14.9806   21.7111 H   0  0  0  0  0  0
  1 25  1  0  0  0
  1 30  2  0  0  0
  1 85  1  0  0  0
  2  3  1  0  0  0
  2 25  1  0  0  0
  2 86  1  0  0  0
  2 87  1  0  0  0
  3  4  1  0  0  0
  3 88  1  0  0  0
  3 89  1  0  0  0
  4  5  1  0  0  0
  4 90  1  0  0  0
  4 91  1  0  0  0
  5  6  1  0  0  0
  5 26  1  0  0  0
  5 92  1  0  0  0
  6 25  1  0  0  0
  6 93  1  0  0  0
  6 94  1  0  0  0
  7  8  2  0  0  0
  7 26  1  0  0  0
  7 29  1  0  0  0
  8  9  1  0  0  0
  8 22  1  0  0  0
  9 10  1  0  0  0
  9 27  2  0  0  0
 10 11  2  0  0  0
 10 15  1  0  0  0
 11 12  1  0  0  0
 11 95  1  0  0  0
 12 13  2  0  0  0
 12 96  1  0  0  0
 13 14  1  0  0  0
 13 31  1  0  0  0
 14 15  2  0  0  0
 14 97  1  0  0  0
 15 98  1  0  0  0
 16 17  2  0  0  0
 16 21  1  0  0  0
 16 31  1  0  0  0
 17 18  1  0  0  0
 17 99  1  0  0  0
 18 19  2  0  0  0
 18100  1  0  0  0
 19 20  1  0  0  0
 19 24  1  0  0  0
 20 21  2  0  0  0
 20101  1  0  0  0
 21 23  1  0  0  0
 22 28  1  0  0  0
 22 32  2  0  0  0
 26 27  1  0  0  0
 28102  1  0  0  0
 28103  1  0  0  0
 29104  1  0  0  0
 29105  1  0  0  0
 33 34  1  0  0  0
 33 66  1  0  0  0
 33 70  2  0  0  0
 34 36  1  0  0  0
 34 59  1  0  0  0
 34106  1  0  0  0
 35 44  2  0  0  0
 35 45  1  0  0  0
 35 68  1  0  0  0
 36 56  1  0  0  0
 36107  1  0  0  0
 37 39  1  0  0  0
 37 47  1  0  0  0
 37 66  1  0  0  0
 37108  1  0  0  0
 38 43  2  0  0  0
 38 46  1  0  0  0
 38 47  1  0  0  0
 39 64  1  0  0  0
 39 67  2  0  0  0
 40 52  1  0  0  0
 40 53  2  0  0  0
 40 58  1  0  0  0
 41109  1  0  0  0
 41110  1  0  0  0
 41111  1  0  0  0
 41 48  1  0  0  0
 42 43  1  0  0  0
 42 66  1  0  0  0
 42112  1  0  0  0
 42113  1  0  0  0
 43 44  1  0  0  0
 44114  1  0  0  0
 45 46  2  0  0  0
 45115  1  0  0  0
 46116  1  0  0  0
 47117  1  0  0  0
 47118  1  0  0  0
 48 56  1  0  0  0
 48 65  1  0  0  0
 48119  1  0  0  0
 49 50  1  0  0  0
 49 53  1  0  0  0
 49 64  1  0  0  0
 49120  1  0  0  0
 50 51  1  0  0  0
 50121  1  0  0  0
 50122  1  0  0  0
 51 52  1  0  0  0
 51123  1  0  0  0
 51124  1  0  0  0
 52125  1  0  0  0
 52126  1  0  0  0
 53 54  1  0  0  0
 54 55  2  0  0  0
 54127  1  0  0  0
 55 57  1  0  0  0
 55128  1  0  0  0
 56 69  2  0  0  0
 57 58  2  0  0  0
 57129  1  0  0  0
 58130  1  0  0  0
 59 60  1  0  0  0
 59 61  1  0  0  0
 59 62  1  0  0  0
 60131  1  0  0  0
 60132  1  0  0  0
 60133  1  0  0  0
 61134  1  0  0  0
 61135  1  0  0  0
 61136  1  0  0  0
 62137  1  0  0  0
 62138  1  0  0  0
 62139  1  0  0  0
 63 65  1  0  0  0
 63140  1  0  0  0
 63141  1  0  0  0
 63142  1  0  0  0
 64143  1  0  0  0
 65144  1  0  0  0
 68 81  1  0  0  0
 71 72  1  0  0  0
 71 73  2  0  0  0
 71145  1  0  0  0
 72 82  1  0  0  0
 72 83  2  0  0  0
 73 74  1  0  0  0
 73 84  1  0  0  0
 74146  1  0  0  0
 74147  1  0  0  0
 74148  1  0  0  0
 75149  1  0  0  0
 75150  1  0  0  0
 75151  1  0  0  0
 75 82  1  0  0  0
 76 82  1  0  0  0
 76152  1  0  0  0
 76153  1  0  0  0
 76154  1  0  0  0
 77 78  1  0  0  0
 77 81  1  0  0  0
 77155  1  0  0  0
 77156  1  0  0  0
 78 82  1  0  0  0
 78157  1  0  0  0
 78158  1  0  0  0
 79 80  1  0  0  0
 79 84  1  0  0  0
 79159  1  0  0  0
 79160  1  0  0  0
 80 85  1  0  0  0
 80161  1  0  0  0
 80162  1  0  0  0
 81163  1  0  0  0
 81164  1  0  0  0
 83 84  1  0  0  0
 85165  1  0  0  0
M  ISO  4   1 100  68 101  81 101  85 100
M  END
> <chiral flag>
0

> <version>
0

> <s_m_source_file>
/data/baiqing/PycharmProjects/Reinvent-master-3.2/result/LINK_invent/BTK/process_docking_weight1_custom_sum_contain_oxygen_bond_distance_aromatic_linkinvent_7_9_3/rearranged_h_0081.sdf

> <i_m_source_file_index>
3

> <r_mmod_Potential_Energy-OPLS-2005>
-156.861450195312

> <r_mmod_Stretch_Energy-OPLS-2005>
36.5454254150391

> <r_mmod_Bend_Energy-OPLS-2005>
105.977806091309

> <r_mmod_Torsional_Energy-OPLS-2005>
204.109146118164

> <r_mmod_Improper_Torsional_Energy-OPLS-2005>
3.46888518333435

> <r_mmod_Van_der_Waal_Energy-OPLS-2005>
132.456756591797

> <r_mmod_Electrostatic_Energy-OPLS-2005>
-438.297180175781

> <r_mmod_Solvation_Energy-OPLS-2005>
-211.401748657227

> <b_mmod_Minimization_Converged-OPLS-2005>
0

> <r_mmod_RMS_Derivative-OPLS-2005>
2.39112114906311

$$$$
3
                    3D
 Structure written by MMmdl.
164172  0  0  1  0            999 V2000
  -30.6796  -14.7395   20.3854 C   0  0  0  0  0  0
  -30.4339  -12.4639   19.4363 C   0  0  0  0  0  0
  -29.4896  -12.5082   18.2169 C   0  0  0  0  0  0
  -28.0289  -12.3172   18.6579 C   0  0  0  0  0  0
  -27.6396  -13.2263   19.8511 C   0  0  2  0  0  0
  -28.7037  -13.1834   20.9710 C   0  0  0  0  0  0
  -25.2528  -13.8253   20.5654 C   0  0  0  0  0  0
  -24.1827  -13.0468   20.9256 C   0  0  0  0  0  0
  -24.6396  -11.6932   20.8787 C   0  0  0  0  0  0
  -23.9045  -10.4257   21.0429 C   0  0  0  0  0  0
  -24.3540   -9.4129   21.9223 C   0  0  0  0  0  0
  -23.6210   -8.2133   22.0753 C   0  0  0  0  0  0
  -22.4205   -8.0211   21.3517 C   0  0  0  0  0  0
  -21.9827   -9.0238   20.4676 C   0  0  0  0  0  0
  -22.7168  -10.2134   20.3111 C   0  0  0  0  0  0
  -21.6812   -6.0600   22.5247 C   0  0  0  0  0  0
  -21.3983   -6.5517   23.8184 C   0  0  0  0  0  0
  -21.3677   -5.6727   24.9196 C   0  0  0  0  0  0
  -21.6054   -4.2971   24.7261 C   0  0  0  0  0  0
  -21.8857   -3.8013   23.4393 C   0  0  0  0  0  0
  -21.9177   -4.6813   22.3412 C   0  0  0  0  0  0
  -22.7873  -13.5279   21.1872 C   0  0  0  0  0  0
  -22.1688   -4.1995   21.0987 F   0  0  0  0  0  0
  -21.5683   -3.4490   25.7792 F   0  0  0  0  0  0
  -29.9992  -13.5355   20.3651 N   0  0  0  0  0  0
  -26.2953  -12.9412   20.3370 N   0  0  0  0  0  0
  -25.9327  -11.6588   20.5889 N   0  0  0  0  0  0
  -22.0420  -12.8300   22.0401 N   0  0  0  0  0  0
  -25.4315  -15.1915   20.3838 N   0  0  0  0  0  0
  -31.8991  -14.6722   20.2469 O   0  0  0  0  0  0
  -21.6589   -6.8753   21.4202 O   0  0  0  0  0  0
  -22.3551  -14.5511   20.6624 O   0  0  0  0  0  0
  -24.6214  -31.8529   23.1956 C   0  0  0  0  0  0
  -25.9052  -32.4746   23.8298 C   0  0  1  0  0  0
  -27.2469  -27.3021   20.1304 C   0  0  0  0  0  0
  -25.5850  -33.8552   24.2218 N   0  0  0  0  0  0
  -23.4196  -30.4677   21.5399 C   0  0  2  0  0  0
  -24.8765  -28.9108   20.1306 C   0  0  0  0  0  0
  -22.7430  -29.4601   22.4976 C   0  0  0  0  0  0
  -18.0249  -28.1377   22.8452 C   0  0  0  0  0  0
  -24.1495  -36.7329   23.2642 C   0  0  0  0  0  0
  -25.9574  -30.7818   21.3678 C   0  0  0  0  0  0
  -26.0442  -29.3988   20.7287 C   0  0  0  0  0  0
  -27.2312  -28.6033   20.7215 C   0  0  0  0  0  0
  -26.0500  -26.8659   19.5099 C   0  0  0  0  0  0
  -24.8810  -27.6450   19.5210 C   0  0  0  0  0  0
  -23.6386  -29.7824   20.1668 C   0  0  0  0  0  0
  -25.4119  -36.3072   24.0307 C   0  0  1  0  0  0
  -20.5826  -28.3686   23.1273 C   0  0  2  0  0  0
  -20.6760  -26.9413   22.5407 C   0  0  0  0  0  0
  -19.5769  -26.6379   21.5178 C   0  0  0  0  0  0
  -18.1932  -26.7900   22.1587 C   0  0  0  0  0  0
  -19.1502  -28.8840   23.2837 C   0  0  0  0  0  0
  -18.9461  -30.1436   23.8870 C   0  0  0  0  0  0
  -17.6471  -30.6588   24.0553 C   0  0  0  0  0  0
  -25.9044  -34.9437   23.5078 C   0  0  0  0  0  0
  -16.5353  -29.9085   23.6334 C   0  0  0  0  0  0
  -16.7248  -28.6508   23.0340 C   0  0  0  0  0  0
  -26.4459  -31.6539   25.0653 C   0  0  0  0  0  0
  -25.3685  -31.3665   26.1375 C   0  0  0  0  0  0
  -27.0305  -30.2957   24.6104 C   0  0  0  0  0  0
  -27.6019  -32.4272   25.7425 C   0  0  0  0  0  0
  -27.5577  -37.1803   24.8452 C   0  0  0  0  0  0
  -21.4150  -29.3039   22.3689 N   0  0  0  0  0  0
  -26.4286  -37.3767   23.9389 N   0  0  0  0  0  0
  -24.6866  -31.0498   22.0929 N   0  0  0  0  0  0
  -23.4127  -28.8173   23.3105 O   0  0  0  0  0  0
  -28.3819  -26.4656   20.1262 O   0  0  0  0  0  0
  -26.5665  -34.8905   22.4686 O   0  0  0  0  0  0
  -23.5366  -32.1375   23.7244 O   0  0  0  0  0  0
  -29.9661  -19.9213   20.0225 C   0  0  0  0  0  0
  -29.8653  -21.2931   20.4926 C   0  0  0  0  0  0
  -30.7281  -18.9467   20.7660 C   0  0  0  0  0  0
  -30.5522  -21.5404   21.7151 C   0  0  0  0  0  0
  -30.4644  -22.8309   22.5061 C   0  0  0  0  0  0
  -32.1501  -17.5254   19.2028 C   0  0  0  0  0  0
  -29.4963  -16.3411   18.7695 C   0  0  0  0  0  0
  -28.8688  -16.5197   21.1941 C   0  0  0  0  0  0
  -29.0247  -22.3997   19.7262 C   0  0  0  0  0  0
  -29.3352  -23.9849   19.8306 C   0  0  0  0  0  0
  -28.2179  -25.0016   20.3506 C   0  0  0  0  0  0
  -31.1066  -17.4564   20.3420 C   0  0  2  0  0  0
  -30.0376  -16.2325   20.2227 C   0  0  0  0  0  0
  -31.3961  -19.3588   21.8768 N   0  0  0  0  0  0
  -31.3123  -20.6058   22.3340 N   0  0  0  0  0  0
  -31.4639  -12.5780   19.0892 H   0  0  0  0  0  0
  -30.3967  -11.4908   19.9253 H   0  0  0  0  0  0
  -29.7670  -11.7444   17.4872 H   0  0  0  0  0  0
  -29.5970  -13.4637   17.7075 H   0  0  0  0  0  0
  -27.9204  -11.2760   18.9623 H   0  0  0  0  0  0
  -27.3708  -12.4883   17.8020 H   0  0  0  0  0  0
  -27.6074  -14.2284   19.4449 H   0  0  0  0  0  0
  -28.7325  -12.1793   21.4024 H   0  0  0  0  0  0
  -28.4838  -13.8456   21.8105 H   0  0  0  0  0  0
  -25.2641   -9.5524   22.4899 H   0  0  0  0  0  0
  -23.9873   -7.4432   22.7414 H   0  0  0  0  0  0
  -21.0772   -8.8735   19.8949 H   0  0  0  0  0  0
  -22.3603  -10.9693   19.6247 H   0  0  0  0  0  0
  -21.1987   -7.6031   23.9643 H   0  0  0  0  0  0
  -21.1505   -6.0472   25.9115 H   0  0  0  0  0  0
  -22.0619   -2.7451   23.2959 H   0  0  0  0  0  0
  -22.3958  -11.9909   22.4694 H   0  0  0  0  0  0
  -21.1048  -13.1408   22.2506 H   0  0  0  0  0  0
  -24.6841  -15.8719   20.4831 H   0  0  0  0  0  0
  -26.2943  -15.5879   20.0266 H   0  0  0  0  0  0
  -26.7102  -32.5474   23.1045 H   0  0  0  0  0  0
  -24.9842  -33.9689   25.0242 H   0  0  0  0  0  0
  -22.7156  -31.2863   21.3826 H   0  0  0  0  0  0
  -23.3722  -35.9686   23.3281 H   0  0  0  0  0  0
  -24.3619  -36.9030   22.2076 H   0  0  0  0  0  0
  -23.7306  -37.6537   23.6714 H   0  0  0  0  0  0
  -26.0581  -31.5273   20.5794 H   0  0  0  0  0  0
  -26.8424  -30.8633   21.9866 H   0  0  0  0  0  0
  -28.1286  -28.9665   21.2058 H   0  0  0  0  0  0
  -25.9923  -25.9131   19.0080 H   0  0  0  0  0  0
  -23.9834  -27.2552   19.0616 H   0  0  0  0  0  0
  -23.7500  -30.5408   19.3921 H   0  0  0  0  0  0
  -22.7638  -29.1959   19.8776 H   0  0  0  0  0  0
  -25.1303  -36.1924   25.0791 H   0  0  0  0  0  0
  -20.9856  -28.3271   24.1420 H   0  0  0  0  0  0
  -20.5643  -26.2299   23.3605 H   0  0  0  0  0  0
  -21.6638  -26.7468   22.1239 H   0  0  0  0  0  0
  -19.6973  -25.6280   21.1251 H   0  0  0  0  0  0
  -19.6717  -27.3137   20.6662 H   0  0  0  0  0  0
  -17.4192  -26.6563   21.4008 H   0  0  0  0  0  0
  -18.0400  -26.0027   22.8991 H   0  0  0  0  0  0
  -19.7948  -30.7217   24.2234 H   0  0  0  0  0  0
  -17.5063  -31.6267   24.5147 H   0  0  0  0  0  0
  -15.5357  -30.3021   23.7685 H   0  0  0  0  0  0
  -15.8628  -28.0849   22.7071 H   0  0  0  0  0  0
  -24.5837  -30.7047   25.7701 H   0  0  0  0  0  0
  -24.8851  -32.2797   26.4820 H   0  0  0  0  0  0
  -25.7961  -30.8816   27.0149 H   0  0  0  0  0  0
  -26.2851  -29.6685   24.1178 H   0  0  0  0  0  0
  -27.4069  -29.7260   25.4619 H   0  0  0  0  0  0
  -27.8685  -30.4256   23.9250 H   0  0  0  0  0  0
  -27.2626  -33.3588   26.1965 H   0  0  0  0  0  0
  -28.3807  -32.6809   25.0218 H   0  0  0  0  0  0
  -28.0657  -31.8395   26.5359 H   0  0  0  0  0  0
  -28.2558  -38.0127   24.7514 H   0  0  0  0  0  0
  -28.1105  -36.2670   24.6236 H   0  0  0  0  0  0
  -27.2300  -37.1413   25.8849 H   0  0  0  0  0  0
  -20.9336  -29.8784   21.6920 H   0  0  0  0  0  0
  -26.0175  -38.2843   24.1373 H   0  0  0  0  0  0
  -29.4684  -19.6259   19.1050 H   0  0  0  0  0  0
  -31.2666  -23.5197   22.2216 H   0  0  0  0  0  0
  -30.5174  -22.6444   23.5828 H   0  0  0  0  0  0
  -29.5007  -23.3033   22.3431 H   0  0  0  0  0  0
  -33.0432  -18.0509   19.5413 H   0  0  0  0  0  0
  -31.7820  -18.0400   18.3164 H   0  0  0  0  0  0
  -32.4754  -16.5364   18.8874 H   0  0  0  0  0  0
  -30.1912  -15.8817   18.0640 H   0  0  0  0  0  0
  -29.3468  -17.3747   18.4495 H   0  0  0  0  0  0
  -28.5418  -15.8506   18.6188 H   0  0  0  0  0  0
  -28.4508  -17.5111   20.9861 H   0  0  0  0  0  0
  -28.0429  -15.8199   21.0758 H   0  0  0  0  0  0
  -29.1758  -16.5109   22.2422 H   0  0  0  0  0  0
  -27.9574  -22.2084   19.8808 H   0  0  0  0  0  0
  -29.1674  -22.1485   18.6688 H   0  0  0  0  0  0
  -29.5805  -24.3182   18.8214 H   0  0  0  0  0  0
  -30.2571  -24.1649   20.3699 H   0  0  0  0  0  0
  -27.2756  -24.6269   19.9643 H   0  0  0  0  0  0
  -28.1420  -24.8756   21.4310 H   0  0  0  0  0  0
  -31.7106  -17.1158   21.1898 H   0  0  0  0  0  0
  1 25  1  0  0  0
  1 30  2  0  0  0
  1 83  1  0  0  0
  2  3  1  0  0  0
  2 25  1  0  0  0
  2 86  1  0  0  0
  2 87  1  0  0  0
  3  4  1  0  0  0
  3 88  1  0  0  0
  3 89  1  0  0  0
  4  5  1  0  0  0
  4 90  1  0  0  0
  4 91  1  0  0  0
  5  6  1  0  0  0
  5 26  1  0  0  0
  5 92  1  0  0  0
  6 25  1  0  0  0
  6 93  1  0  0  0
  6 94  1  0  0  0
  7  8  2  0  0  0
  7 26  1  0  0  0
  7 29  1  0  0  0
  8  9  1  0  0  0
  8 22  1  0  0  0
  9 10  1  0  0  0
  9 27  2  0  0  0
 10 11  2  0  0  0
 10 15  1  0  0  0
 11 12  1  0  0  0
 11 95  1  0  0  0
 12 13  2  0  0  0
 12 96  1  0  0  0
 13 14  1  0  0  0
 13 31  1  0  0  0
 14 15  2  0  0  0
 14 97  1  0  0  0
 15 98  1  0  0  0
 16 17  2  0  0  0
 16 21  1  0  0  0
 16 31  1  0  0  0
 17 18  1  0  0  0
 17 99  1  0  0  0
 18 19  2  0  0  0
 18100  1  0  0  0
 19 20  1  0  0  0
 19 24  1  0  0  0
 20 21  2  0  0  0
 20101  1  0  0  0
 21 23  1  0  0  0
 22 28  1  0  0  0
 22 32  2  0  0  0
 26 27  1  0  0  0
 28102  1  0  0  0
 28103  1  0  0  0
 29104  1  0  0  0
 29105  1  0  0  0
 33 34  1  0  0  0
 33 66  1  0  0  0
 33 70  2  0  0  0
 34 36  1  0  0  0
 34 59  1  0  0  0
 34106  1  0  0  0
 35 44  2  0  0  0
 35 45  1  0  0  0
 35 68  1  0  0  0
 36 56  1  0  0  0
 36107  1  0  0  0
 37 39  1  0  0  0
 37 47  1  0  0  0
 37 66  1  0  0  0
 37108  1  0  0  0
 38 43  2  0  0  0
 38 46  1  0  0  0
 38 47  1  0  0  0
 39 64  1  0  0  0
 39 67  2  0  0  0
 40 52  1  0  0  0
 40 53  2  0  0  0
 40 58  1  0  0  0
 41109  1  0  0  0
 41110  1  0  0  0
 41111  1  0  0  0
 41 48  1  0  0  0
 42 43  1  0  0  0
 42 66  1  0  0  0
 42112  1  0  0  0
 42113  1  0  0  0
 43 44  1  0  0  0
 44114  1  0  0  0
 45 46  2  0  0  0
 45115  1  0  0  0
 46116  1  0  0  0
 47117  1  0  0  0
 47118  1  0  0  0
 48 56  1  0  0  0
 48 65  1  0  0  0
 48119  1  0  0  0
 49 50  1  0  0  0
 49 53  1  0  0  0
 49 64  1  0  0  0
 49120  1  0  0  0
 50 51  1  0  0  0
 50121  1  0  0  0
 50122  1  0  0  0
 51 52  1  0  0  0
 51123  1  0  0  0
 51124  1  0  0  0
 52125  1  0  0  0
 52126  1  0  0  0
 53 54  1  0  0  0
 54 55  2  0  0  0
 54127  1  0  0  0
 55 57  1  0  0  0
 55128  1  0  0  0
 56 69  2  0  0  0
 57 58  2  0  0  0
 57129  1  0  0  0
 58130  1  0  0  0
 59 60  1  0  0  0
 59 61  1  0  0  0
 59 62  1  0  0  0
 60131  1  0  0  0
 60132  1  0  0  0
 60133  1  0  0  0
 61134  1  0  0  0
 61135  1  0  0  0
 61136  1  0  0  0
 62137  1  0  0  0
 62138  1  0  0  0
 62139  1  0  0  0
 63 65  1  0  0  0
 63140  1  0  0  0
 63141  1  0  0  0
 63142  1  0  0  0
 64143  1  0  0  0
 65144  1  0  0  0
 68 81  1  0  0  0
 71 72  2  0  0  0
 71 73  1  0  0  0
 71145  1  0  0  0
 72 74  1  0  0  0
 72 79  1  0  0  0
 73 82  1  0  0  0
 73 84  2  0  0  0
 74 75  1  0  0  0
 74 85  2  0  0  0
 75146  1  0  0  0
 75147  1  0  0  0
 75148  1  0  0  0
 76149  1  0  0  0
 76150  1  0  0  0
 76151  1  0  0  0
 76 82  1  0  0  0
 77152  1  0  0  0
 77153  1  0  0  0
 77154  1  0  0  0
 77 83  1  0  0  0
 78 83  1  0  0  0
 78155  1  0  0  0
 78156  1  0  0  0
 78157  1  0  0  0
 79 80  1  0  0  0
 79158  1  0  0  0
 79159  1  0  0  0
 80 81  1  0  0  0
 80160  1  0  0  0
 80161  1  0  0  0
 81162  1  0  0  0
 81163  1  0  0  0
 82 83  1  0  0  0
 82164  1  0  0  0
 84 85  1  0  0  0
M  ISO  4   1 100  68 101  81 101  83 100
M  END
> <chiral flag>
0

> <version>
0

> <s_m_source_file>
/data/baiqing/PycharmProjects/Reinvent-master-3.2/result/LINK_invent/BTK/process_docking_weight1_custom_sum_contain_oxygen_bond_distance_aromatic_linkinvent_7_9_3/rearranged_h_0081.sdf

> <i_m_source_file_index>
4

> <r_mmod_Potential_Energy-OPLS-2005>
286.918304443359

> <r_mmod_Stretch_Energy-OPLS-2005>
124.286018371582

> <r_mmod_Bend_Energy-OPLS-2005>
203.333099365234

> <r_mmod_Torsional_Energy-OPLS-2005>
230.691986083984

> <r_mmod_Improper_Torsional_Energy-OPLS-2005>
8.85583114624023

> <r_mmod_Van_der_Waal_Energy-OPLS-2005>
161.140411376953

> <r_mmod_Electrostatic_Energy-OPLS-2005>
-307.565979003906

> <r_mmod_Solvation_Energy-OPLS-2005>
-211.80322265625

> <b_mmod_Minimization_Converged-OPLS-2005>
0

> <r_mmod_RMS_Derivative-OPLS-2005>
10.5864877700806

$$$$
4
                    3D
 Structure written by MMmdl.
162171  0  0  1  0            999 V2000
  -30.5291  -14.9367   20.4183 C   0  0  0  0  0  0
  -30.4452  -12.5799   19.4807 C   0  0  0  0  0  0
  -29.5137  -12.5354   18.2484 C   0  0  0  0  0  0
  -28.0426  -12.3320   18.6643 C   0  0  0  0  0  0
  -27.6281  -13.2400   19.8490 C   0  0  2  0  0  0
  -28.6805  -13.2551   20.9784 C   0  0  0  0  0  0
  -25.2371  -13.7863   20.5820 C   0  0  0  0  0  0
  -24.1705  -13.0160   20.9312 C   0  0  0  0  0  0
  -24.6405  -11.6707   20.8816 C   0  0  0  0  0  0
  -23.9114  -10.4118   21.0427 C   0  0  0  0  0  0
  -24.3626   -9.4038   21.9213 C   0  0  0  0  0  0
  -23.6255   -8.2117   22.0771 C   0  0  0  0  0  0
  -22.4240   -8.0209   21.3553 C   0  0  0  0  0  0
  -21.9895   -9.0194   20.4672 C   0  0  0  0  0  0
  -22.7278  -10.2034   20.3081 C   0  0  0  0  0  0
  -21.6818   -6.0693   22.5285 C   0  0  0  0  0  0
  -21.3985   -6.5614   23.8211 C   0  0  0  0  0  0
  -21.3653   -5.6783   24.9180 C   0  0  0  0  0  0
  -21.6039   -4.3045   24.7239 C   0  0  0  0  0  0
  -21.8822   -3.8125   23.4372 C   0  0  0  0  0  0
  -21.9174   -4.6925   22.3414 C   0  0  0  0  0  0
  -22.7739  -13.5022   21.1908 C   0  0  0  0  0  0
  -22.1646   -4.2110   21.0994 F   0  0  0  0  0  0
  -21.5638   -3.4541   25.7758 F   0  0  0  0  0  0
  -29.9585  -13.6655   20.3776 N   0  0  0  0  0  0
  -26.2888  -12.9249   20.3364 N   0  0  0  0  0  0
  -25.9357  -11.6381   20.5816 N   0  0  0  0  0  0
  -22.0363  -12.8076   22.0485 N   0  0  0  0  0  0
  -25.3738  -15.1430   20.4212 N   0  0  0  0  0  0
  -31.7357  -15.0249   20.1585 O   0  0  0  0  0  0
  -21.6586   -6.8825   21.4243 O   0  0  0  0  0  0
  -22.3494  -14.5361   20.6757 O   0  0  0  0  0  0
  -24.6372  -31.8496   23.1898 C   0  0  0  0  0  0
  -25.9177  -32.4709   23.8270 C   0  0  1  0  0  0
  -27.2456  -27.2057   20.1637 C   0  0  0  0  0  0
  -25.5976  -33.8509   24.2211 N   0  0  0  0  0  0
  -23.4377  -30.4635   21.5341 C   0  0  2  0  0  0
  -24.8948  -28.8889   20.1209 C   0  0  0  0  0  0
  -22.7508  -29.4557   22.4883 C   0  0  0  0  0  0
  -18.0298  -28.1371   22.8471 C   0  0  0  0  0  0
  -24.1482  -36.7252   23.2633 C   0  0  0  0  0  0
  -25.9857  -30.7467   21.3761 C   0  0  0  0  0  0
  -26.0663  -29.3579   20.7302 C   0  0  0  0  0  0
  -27.2439  -28.5341   20.7302 C   0  0  0  0  0  0
  -26.0503  -26.8101   19.5285 C   0  0  0  0  0  0
  -24.8956  -27.6257   19.5054 C   0  0  0  0  0  0
  -23.6648  -29.7822   20.1572 C   0  0  0  0  0  0
  -25.4118  -36.3036   24.0309 C   0  0  1  0  0  0
  -20.5912  -28.3668   23.1267 C   0  0  2  0  0  0
  -20.6783  -26.9381   22.5409 C   0  0  0  0  0  0
  -19.5758  -26.6364   21.5210 C   0  0  0  0  0  0
  -18.1937  -26.7921   22.1599 C   0  0  0  0  0  0
  -19.1559  -28.8821   23.2878 C   0  0  0  0  0  0
  -18.9503  -30.1429   23.8885 C   0  0  0  0  0  0
  -17.6506  -30.6567   24.0537 C   0  0  0  0  0  0
  -25.9064  -34.9412   23.5051 C   0  0  0  0  0  0
  -16.5383  -29.9077   23.6323 C   0  0  0  0  0  0
  -16.7290  -28.6495   23.0347 C   0  0  0  0  0  0
  -26.4538  -31.6556   25.0680 C   0  0  0  0  0  0
  -25.3729  -31.3754   26.1384 C   0  0  0  0  0  0
  -27.0400  -30.2962   24.6211 C   0  0  0  0  0  0
  -27.6062  -32.4318   25.7472 C   0  0  0  0  0  0
  -27.5569  -37.1796   24.8463 C   0  0  0  0  0  0
  -21.4215  -29.3027   22.3638 N   0  0  0  0  0  0
  -26.4288  -37.3757   23.9404 N   0  0  0  0  0  0
  -24.7051  -31.0418   22.0887 N   0  0  0  0  0  0
  -23.4175  -28.8111   23.3008 O   0  0  0  0  0  0
  -28.3549  -26.3079   20.1326 O   0  0  0  0  0  0
  -26.5635  -34.8917   22.4620 O   0  0  0  0  0  0
  -23.5520  -32.1345   23.7188 O   0  0  0  0  0  0
  -28.4449  -19.7952   20.1966 C   0  0  0  0  0  0
  -30.6276  -19.8017   20.9919 C   0  0  0  0  0  0
  -28.5175  -18.3547   20.1336 C   0  0  0  0  0  0
  -29.4803  -20.6155   20.6866 C   0  0  0  0  0  0
  -29.7004  -17.5939   20.4960 C   0  0  0  0  0  0
  -25.2468  -18.0405   18.8796 C   0  0  0  0  0  0
  -25.8726  -18.1923   20.2678 C   0  0  0  0  0  0
  -26.6609  -18.0115   18.2879 C   0  0  0  0  0  0
  -27.2213  -17.7022   19.6850 C   0  0  0  0  0  0
  -28.3266  -22.1656   22.3482 C   0  0  0  0  0  0
  -28.7996  -23.4572   20.1473 C   0  0  0  0  0  0
  -28.3115  -24.9232   20.7781 C   0  0  0  0  0  0
  -29.2563  -22.1822   21.1190 C   0  0  2  0  0  0
  -30.7356  -18.4116   20.8895 N   0  0  0  0  0  0
  -29.6642  -16.0594   20.5159 N   0  0  0  0  0  0
  -31.4741  -12.7505   19.1598 H   0  0  0  0  0  0
  -30.4436  -11.6192   19.9979 H   0  0  0  0  0  0
  -29.8165  -11.7445   17.5625 H   0  0  0  0  0  0
  -29.6116  -13.4690   17.6924 H   0  0  0  0  0  0
  -27.9055  -11.2837   18.9351 H   0  0  0  0  0  0
  -27.3823  -12.5015   17.8145 H   0  0  0  0  0  0
  -27.5880  -14.2488   19.4381 H   0  0  0  0  0  0
  -28.7649  -12.2748   21.4488 H   0  0  0  0  0  0
  -28.3816  -13.9497   21.7666 H   0  0  0  0  0  0
  -25.2748   -9.5449   22.4853 H   0  0  0  0  0  0
  -23.9904   -7.4465   22.7481 H   0  0  0  0  0  0
  -21.0813   -8.8723   19.9020 H   0  0  0  0  0  0
  -22.3717  -10.9586   19.6231 H   0  0  0  0  0  0
  -21.1976   -7.6122   23.9684 H   0  0  0  0  0  0
  -21.1485   -6.0534   25.9077 H   0  0  0  0  0  0
  -22.0620   -2.7591   23.2900 H   0  0  0  0  0  0
  -22.3968  -11.9747   22.4900 H   0  0  0  0  0  0
  -21.1047  -13.1215   22.2819 H   0  0  0  0  0  0
  -24.5599  -15.7458   20.4718 H   0  0  0  0  0  0
  -26.1542  -15.5785   19.9553 H   0  0  0  0  0  0
  -26.7235  -32.5358   23.1001 H   0  0  0  0  0  0
  -25.0138  -33.9621   25.0373 H   0  0  0  0  0  0
  -22.7357  -31.2863   21.3793 H   0  0  0  0  0  0
  -23.3737  -35.9589   23.3286 H   0  0  0  0  0  0
  -24.3561  -36.8889   22.2048 H   0  0  0  0  0  0
  -23.7260  -37.6455   23.6673 H   0  0  0  0  0  0
  -26.1284  -31.5018   20.6014 H   0  0  0  0  0  0
  -26.8584  -30.8034   22.0154 H   0  0  0  0  0  0
  -28.1452  -28.8992   21.2048 H   0  0  0  0  0  0
  -26.0090  -25.8404   19.0508 H   0  0  0  0  0  0
  -24.0039  -27.2600   19.0162 H   0  0  0  0  0  0
  -23.7939  -30.5501   19.3946 H   0  0  0  0  0  0
  -22.7830  -29.2176   19.8493 H   0  0  0  0  0  0
  -25.1315  -36.1843   25.0807 H   0  0  0  0  0  0
  -20.9992  -28.3235   24.1387 H   0  0  0  0  0  0
  -20.5640  -26.2289   23.3620 H   0  0  0  0  0  0
  -21.6641  -26.7364   22.1196 H   0  0  0  0  0  0
  -19.6916  -25.6262   21.1269 H   0  0  0  0  0  0
  -19.6718  -27.3148   20.6726 H   0  0  0  0  0  0
  -17.4218  -26.6664   21.3985 H   0  0  0  0  0  0
  -18.0339  -26.0045   22.8975 H   0  0  0  0  0  0
  -19.7991  -30.7235   24.2251 H   0  0  0  0  0  0
  -17.5099  -31.6230   24.5158 H   0  0  0  0  0  0
  -15.5401  -30.3002   23.7663 H   0  0  0  0  0  0
  -15.8687  -28.0802   22.7093 H   0  0  0  0  0  0
  -24.5884  -30.7131   25.7704 H   0  0  0  0  0  0
  -24.8952  -32.2952   26.4772 H   0  0  0  0  0  0
  -25.8028  -30.8955   27.0181 H   0  0  0  0  0  0
  -26.3018  -29.6677   24.1224 H   0  0  0  0  0  0
  -27.4036  -29.7274   25.4774 H   0  0  0  0  0  0
  -27.8902  -30.4189   23.9491 H   0  0  0  0  0  0
  -27.2626  -33.3609   26.2033 H   0  0  0  0  0  0
  -28.3894  -32.6901   25.0321 H   0  0  0  0  0  0
  -28.0692  -31.8450   26.5417 H   0  0  0  0  0  0
  -28.2605  -38.0082   24.7504 H   0  0  0  0  0  0
  -28.1060  -36.2617   24.6296 H   0  0  0  0  0  0
  -27.2283  -37.1442   25.8871 H   0  0  0  0  0  0
  -20.9416  -29.8792   21.6872 H   0  0  0  0  0  0
  -26.0129  -38.2819   24.1432 H   0  0  0  0  0  0
  -27.5311  -20.3056   19.9337 H   0  0  0  0  0  0
  -31.4997  -20.2788   21.4112 H   0  0  0  0  0  0
  -24.6411  -18.8972   18.5787 H   0  0  0  0  0  0
  -24.7061  -17.1040   18.7392 H   0  0  0  0  0  0
  -25.4538  -17.5715   21.0573 H   0  0  0  0  0  0
  -25.8371  -19.2318   20.5892 H   0  0  0  0  0  0
  -26.9703  -18.9842   17.9036 H   0  0  0  0  0  0
  -26.8314  -17.2215   17.5549 H   0  0  0  0  0  0
  -27.3045  -16.6269   19.7948 H   0  0  0  0  0  0
  -28.6567  -21.4317   23.0860 H   0  0  0  0  0  0
  -27.3001  -21.9158   22.0744 H   0  0  0  0  0  0
  -28.3060  -23.1309   22.8556 H   0  0  0  0  0  0
  -29.6231  -23.6546   19.4624 H   0  0  0  0  0  0
  -27.9857  -23.1126   19.5096 H   0  0  0  0  0  0
  -28.9404  -25.0611   21.6571 H   0  0  0  0  0  0
  -27.3108  -24.7848   21.1894 H   0  0  0  0  0  0
  -30.2334  -22.4876   21.5007 H   0  0  0  0  0  0
  -28.7181  -15.7296   20.5823 H   0  0  0  0  0  0
  1 25  1  0  0  0
  1 30  2  0  0  0
  1 85  1  0  0  0
  2  3  1  0  0  0
  2 25  1  0  0  0
  2 86  1  0  0  0
  2 87  1  0  0  0
  3  4  1  0  0  0
  3 88  1  0  0  0
  3 89  1  0  0  0
  4  5  1  0  0  0
  4 90  1  0  0  0
  4 91  1  0  0  0
  5  6  1  0  0  0
  5 26  1  0  0  0
  5 92  1  0  0  0
  6 25  1  0  0  0
  6 93  1  0  0  0
  6 94  1  0  0  0
  7  8  2  0  0  0
  7 26  1  0  0  0
  7 29  1  0  0  0
  8  9  1  0  0  0
  8 22  1  0  0  0
  9 10  1  0  0  0
  9 27  2  0  0  0
 10 11  2  0  0  0
 10 15  1  0  0  0
 11 12  1  0  0  0
 11 95  1  0  0  0
 12 13  2  0  0  0
 12 96  1  0  0  0
 13 14  1  0  0  0
 13 31  1  0  0  0
 14 15  2  0  0  0
 14 97  1  0  0  0
 15 98  1  0  0  0
 16 17  2  0  0  0
 16 21  1  0  0  0
 16 31  1  0  0  0
 17 18  1  0  0  0
 17 99  1  0  0  0
 18 19  2  0  0  0
 18100  1  0  0  0
 19 20  1  0  0  0
 19 24  1  0  0  0
 20 21  2  0  0  0
 20101  1  0  0  0
 21 23  1  0  0  0
 22 28  1  0  0  0
 22 32  2  0  0  0
 26 27  1  0  0  0
 28102  1  0  0  0
 28103  1  0  0  0
 29104  1  0  0  0
 29105  1  0  0  0
 33 34  1  0  0  0
 33 66  1  0  0  0
 33 70  2  0  0  0
 34 36  1  0  0  0
 34 59  1  0  0  0
 34106  1  0  0  0
 35 44  2  0  0  0
 35 45  1  0  0  0
 35 68  1  0  0  0
 36 56  1  0  0  0
 36107  1  0  0  0
 37 39  1  0  0  0
 37 47  1  0  0  0
 37 66  1  0  0  0
 37108  1  0  0  0
 38 43  2  0  0  0
 38 46  1  0  0  0
 38 47  1  0  0  0
 39 64  1  0  0  0
 39 67  2  0  0  0
 40 52  1  0  0  0
 40 53  2  0  0  0
 40 58  1  0  0  0
 41109  1  0  0  0
 41110  1  0  0  0
 41111  1  0  0  0
 41 48  1  0  0  0
 42 43  1  0  0  0
 42 66  1  0  0  0
 42112  1  0  0  0
 42113  1  0  0  0
 43 44  1  0  0  0
 44114  1  0  0  0
 45 46  2  0  0  0
 45115  1  0  0  0
 46116  1  0  0  0
 47117  1  0  0  0
 47118  1  0  0  0
 48 56  1  0  0  0
 48 65  1  0  0  0
 48119  1  0  0  0
 49 50  1  0  0  0
 49 53  1  0  0  0
 49 64  1  0  0  0
 49120  1  0  0  0
 50 51  1  0  0  0
 50121  1  0  0  0
 50122  1  0  0  0
 51 52  1  0  0  0
 51123  1  0  0  0
 51124  1  0  0  0
 52125  1  0  0  0
 52126  1  0  0  0
 53 54  1  0  0  0
 54 55  2  0  0  0
 54127  1  0  0  0
 55 57  1  0  0  0
 55128  1  0  0  0
 56 69  2  0  0  0
 57 58  2  0  0  0
 57129  1  0  0  0
 58130  1  0  0  0
 59 60  1  0  0  0
 59 61  1  0  0  0
 59 62  1  0  0  0
 60131  1  0  0  0
 60132  1  0  0  0
 60133  1  0  0  0
 61134  1  0  0  0
 61135  1  0  0  0
 61136  1  0  0  0
 62137  1  0  0  0
 62138  1  0  0  0
 62139  1  0  0  0
 63 65  1  0  0  0
 63140  1  0  0  0
 63141  1  0  0  0
 63142  1  0  0  0
 64143  1  0  0  0
 65144  1  0  0  0
 68 82  1  0  0  0
 71 73  2  0  0  0
 71 74  1  0  0  0
 71145  1  0  0  0
 72 74  2  0  0  0
 72 84  1  0  0  0
 72146  1  0  0  0
 73 75  1  0  0  0
 73 79  1  0  0  0
 74 83  1  0  0  0
 75 84  2  0  0  0
 75 85  1  0  0  0
 76 77  1  0  0  0
 76 78  1  0  0  0
 76147  1  0  0  0
 76148  1  0  0  0
 77 79  1  0  0  0
 77149  1  0  0  0
 77150  1  0  0  0
 78 79  1  0  0  0
 78151  1  0  0  0
 78152  1  0  0  0
 79153  1  0  0  0
 80154  1  0  0  0
 80155  1  0  0  0
 80156  1  0  0  0
 80 83  1  0  0  0
 81 82  1  0  0  0
 81 83  1  0  0  0
 81157  1  0  0  0
 81158  1  0  0  0
 82159  1  0  0  0
 82160  1  0  0  0
 83161  1  0  0  0
 85162  1  0  0  0
M  ISO  4   1 100  68 101  82 101  85 100
M  END
> <chiral flag>
0

> <version>
0

> <s_m_source_file>
/data/baiqing/PycharmProjects/Reinvent-master-3.2/result/LINK_invent/BTK/process_docking_weight1_custom_sum_contain_oxygen_bond_distance_aromatic_linkinvent_7_9_3/rearranged_h_0081.sdf

> <i_m_source_file_index>
5

> <r_mmod_Potential_Energy-OPLS-2005>
375.932739257812

> <r_mmod_Stretch_Energy-OPLS-2005>
201.850326538086

> <r_mmod_Bend_Energy-OPLS-2005>
268.304901123047

> <r_mmod_Torsional_Energy-OPLS-2005>
280.582275390625

> <r_mmod_Improper_Torsional_Energy-OPLS-2005>
8.84424114227295

> <r_mmod_Van_der_Waal_Energy-OPLS-2005>
138.163558959961

> <r_mmod_Electrostatic_Energy-OPLS-2005>
-457.827026367188

> <r_mmod_Solvation_Energy-OPLS-2005>
-220.188674926758

> <b_mmod_Minimization_Converged-OPLS-2005>
0

> <r_mmod_RMS_Derivative-OPLS-2005>
3.56238269805908

$$$$
5
                    3D
 Structure written by MMmdl.
171179  0  0  1  0            999 V2000
  -30.7356  -14.3931   20.6651 C   0  0  0  0  0  0
  -30.4343  -12.2776   19.4285 C   0  0  0  0  0  0
  -29.5014  -12.4852   18.2190 C   0  0  0  0  0  0
  -28.0238  -12.3462   18.6313 C   0  0  0  0  0  0
  -27.6720  -13.1935   19.8807 C   0  0  2  0  0  0
  -28.7037  -12.9419   21.0052 C   0  0  0  0  0  0
  -25.2677  -13.8166   20.5745 C   0  0  0  0  0  0
  -24.1869  -13.0454   20.9192 C   0  0  0  0  0  0
  -24.6386  -11.6924   20.8703 C   0  0  0  0  0  0
  -23.9039  -10.4302   21.0390 C   0  0  0  0  0  0
  -24.3592   -9.4235   21.9179 C   0  0  0  0  0  0
  -23.6277   -8.2271   22.0743 C   0  0  0  0  0  0
  -22.4270   -8.0278   21.3534 C   0  0  0  0  0  0
  -21.9885   -9.0251   20.4656 C   0  0  0  0  0  0
  -22.7192  -10.2141   20.3059 C   0  0  0  0  0  0
  -21.6851   -6.0743   22.5286 C   0  0  0  0  0  0
  -21.4015   -6.5643   23.8220 C   0  0  0  0  0  0
  -21.3657   -5.6783   24.9179 C   0  0  0  0  0  0
  -21.6042   -4.3047   24.7219 C   0  0  0  0  0  0
  -21.8815   -3.8151   23.4337 C   0  0  0  0  0  0
  -21.9194   -4.6975   22.3398 C   0  0  0  0  0  0
  -22.7892  -13.5292   21.1818 C   0  0  0  0  0  0
  -22.1659   -4.2152   21.0976 F   0  0  0  0  0  0
  -21.5627   -3.4531   25.7742 F   0  0  0  0  0  0
  -30.0573  -13.2295   20.4841 N   0  0  0  0  0  0
  -26.3069  -12.9279   20.3373 N   0  0  0  0  0  0
  -25.9301  -11.6453   20.5717 N   0  0  0  0  0  0
  -22.0512  -12.8287   22.0379 N   0  0  0  0  0  0
  -25.4464  -15.1858   20.4246 N   0  0  0  0  0  0
  -31.7499  -14.7025   20.0321 O   0  0  0  0  0  0
  -21.6625   -6.8889   21.4243 O   0  0  0  0  0  0
  -22.3586  -14.5592   20.6672 O   0  0  0  0  0  0
  -24.6146  -31.8702   23.2032 C   0  0  0  0  0  0
  -25.9029  -32.4837   23.8356 C   0  0  1  0  0  0
  -27.2234  -27.4408   20.1191 C   0  0  0  0  0  0
  -25.5907  -33.8635   24.2341 N   0  0  0  0  0  0
  -23.3974  -30.4880   21.5441 C   0  0  2  0  0  0
  -24.8425  -28.9401   20.1224 C   0  0  0  0  0  0
  -22.7415  -29.4709   22.5041 C   0  0  0  0  0  0
  -18.0265  -28.1354   22.8474 C   0  0  0  0  0  0
  -24.1478  -36.7355   23.2624 C   0  0  0  0  0  0
  -25.9128  -30.8482   21.3306 C   0  0  0  0  0  0
  -25.9967  -29.4665   20.7197 C   0  0  0  0  0  0
  -27.1932  -28.7152   20.7260 C   0  0  0  0  0  0
  -26.0678  -26.9431   19.4850 C   0  0  0  0  0  0
  -24.8693  -27.6782   19.5043 C   0  0  0  0  0  0
  -23.5994  -29.7985   20.1659 C   0  0  0  0  0  0
  -25.4093  -36.3139   24.0350 C   0  0  1  0  0  0
  -20.5858  -28.3707   23.1267 C   0  0  2  0  0  0
  -20.6830  -26.9426   22.5431 C   0  0  0  0  0  0
  -19.5757  -26.6221   21.5346 C   0  0  0  0  0  0
  -18.1951  -26.7799   22.1792 C   0  0  0  0  0  0
  -19.1512  -28.8868   23.2815 C   0  0  0  0  0  0
  -18.9458  -30.1480   23.8818 C   0  0  0  0  0  0
  -17.6478  -30.6616   24.0481 C   0  0  0  0  0  0
  -25.9045  -34.9495   23.5159 C   0  0  0  0  0  0
  -16.5361  -29.9110   23.6265 C   0  0  0  0  0  0
  -16.7273  -28.6500   23.0340 C   0  0  0  0  0  0
  -26.4484  -31.6565   25.0631 C   0  0  0  0  0  0
  -25.3774  -31.3673   26.1413 C   0  0  0  0  0  0
  -27.0285  -30.3032   24.5880 C   0  0  0  0  0  0
  -27.6095  -32.4233   25.7378 C   0  0  0  0  0  0
  -27.5590  -37.1824   24.8465 C   0  0  0  0  0  0
  -21.4149  -29.3065   22.3712 N   0  0  0  0  0  0
  -26.4287  -37.3806   23.9421 N   0  0  0  0  0  0
  -24.6623  -31.0830   22.0889 N   0  0  0  0  0  0
  -23.4171  -28.8280   23.3130 O   0  0  0  0  0  0
  -28.3496  -26.6571   20.1159 O   0  0  0  0  0  0
  -26.5572  -34.8948   22.4695 O   0  0  0  0  0  0
  -23.5350  -32.1409   23.7466 O   0  0  0  0  0  0
  -27.1312  -21.9968   22.5627 C   0  0  0  0  0  0
  -26.3661  -20.8608   22.5701 C   0  0  0  0  0  0
  -25.0755  -22.5746   21.9379 C   0  0  0  0  0  0
  -21.5025  -23.2881   20.4349 C   0  0  0  0  0  0
  -26.6996  -19.4346   22.8602 C   0  0  0  0  0  0
  -23.8110  -23.3320   21.6126 C   0  0  0  0  0  0
  -22.8507  -22.5825   20.6593 C   0  0  0  0  0  0
  -28.2619  -24.6387   21.5949 C   0  0  0  0  0  0
  -28.7245  -17.1454   21.8646 C   0  0  0  0  0  0
  -26.7589  -24.4426   21.9345 C   0  0  0  0  0  0
  -30.1311  -16.6787   21.4363 C   0  0  0  0  0  0
  -28.2663  -18.4883   21.2675 C   0  0  0  0  0  0
  -28.7108  -26.1135   21.3938 C   0  0  0  0  0  0
  -26.3377  -23.0314   22.1232 N   0  0  0  0  0  0
  -25.1176  -21.2550   22.1681 N   0  3  0  0  0  0
  -30.1805  -15.2236   21.5557 N   0  0  0  0  0  0
  -26.8637  -18.7050   21.6107 N   0  0  0  0  0  0
  -31.4789  -12.3860   19.1330 H   0  0  0  0  0  0
  -30.3430  -11.2610   19.8142 H   0  0  0  0  0  0
  -29.7402  -11.7568   17.4446 H   0  0  0  0  0  0
  -29.6765  -13.4678   17.7831 H   0  0  0  0  0  0
  -27.8450  -11.2904   18.8408 H   0  0  0  0  0  0
  -27.3715  -12.6012   17.7949 H   0  0  0  0  0  0
  -27.7326  -14.2428   19.5881 H   0  0  0  0  0  0
  -28.6594  -11.9020   21.3306 H   0  0  0  0  0  0
  -28.4371  -13.5211   21.8892 H   0  0  0  0  0  0
  -25.2742   -9.5701   22.4741 H   0  0  0  0  0  0
  -23.9989   -7.4651   22.7454 H   0  0  0  0  0  0
  -21.0840   -8.8783   19.8968 H   0  0  0  0  0  0
  -22.3662  -10.9686   19.6157 H   0  0  0  0  0  0
  -21.2007   -7.6148   23.9725 H   0  0  0  0  0  0
  -21.1479   -6.0515   25.9079 H   0  0  0  0  0  0
  -22.0594   -2.7614   23.2838 H   0  0  0  0  0  0
  -22.4081  -11.9953   22.4805 H   0  0  0  0  0  0
  -21.1118  -13.1345   22.2559 H   0  0  0  0  0  0
  -24.6910  -15.8499   20.5501 H   0  0  0  0  0  0
  -26.3064  -15.6149   20.1067 H   0  0  0  0  0  0
  -26.7122  -32.5560   23.1146 H   0  0  0  0  0  0
  -25.0072  -33.9761   25.0520 H   0  0  0  0  0  0
  -22.6833  -31.3017   21.4000 H   0  0  0  0  0  0
  -23.3722  -35.9706   23.3293 H   0  0  0  0  0  0
  -24.3561  -36.8922   22.2026 H   0  0  0  0  0  0
  -23.7259  -37.6583   23.6615 H   0  0  0  0  0  0
  -25.9586  -31.5739   20.5140 H   0  0  0  0  0  0
  -26.8244  -30.9637   21.9023 H   0  0  0  0  0  0
  -28.0881  -29.1081   21.1856 H   0  0  0  0  0  0
  -26.0909  -25.9734   19.0051 H   0  0  0  0  0  0
  -23.9832  -27.2727   19.0332 H   0  0  0  0  0  0
  -23.6877  -30.5515   19.3836 H   0  0  0  0  0  0
  -22.7266  -29.2003   19.8989 H   0  0  0  0  0  0
  -25.1263  -36.2000   25.0841 H   0  0  0  0  0  0
  -20.9896  -28.3326   24.1417 H   0  0  0  0  0  0
  -20.5874  -26.2377   23.3678 H   0  0  0  0  0  0
  -21.6678  -26.7531   22.1161 H   0  0  0  0  0  0
  -19.6921  -25.6043   21.1644 H   0  0  0  0  0  0
  -19.6621  -27.2787   20.6662 H   0  0  0  0  0  0
  -17.4149  -26.6278   21.4307 H   0  0  0  0  0  0
  -18.0480  -26.0069   22.9387 H   0  0  0  0  0  0
  -19.7970  -30.7283   24.2148 H   0  0  0  0  0  0
  -17.5072  -31.6322   24.5019 H   0  0  0  0  0  0
  -15.5380  -30.3063   23.7577 H   0  0  0  0  0  0
  -15.8654  -28.0804   22.7155 H   0  0  0  0  0  0
  -24.5974  -30.6966   25.7809 H   0  0  0  0  0  0
  -24.8941  -32.2812   26.4861 H   0  0  0  0  0  0
  -25.8140  -30.8882   27.0180 H   0  0  0  0  0  0
  -26.2755  -29.6775   24.1067 H   0  0  0  0  0  0
  -27.4270  -29.7263   25.4242 H   0  0  0  0  0  0
  -27.8469  -30.4430   23.8811 H   0  0  0  0  0  0
  -27.2779  -33.3532   26.2026 H   0  0  0  0  0  0
  -28.3863  -32.6766   25.0149 H   0  0  0  0  0  0
  -28.0821  -31.8290   26.5207 H   0  0  0  0  0  0
  -28.2637  -38.0104   24.7498 H   0  0  0  0  0  0
  -28.1050  -36.2617   24.6299 H   0  0  0  0  0  0
  -27.2302  -37.1507   25.8870 H   0  0  0  0  0  0
  -20.9363  -29.8704   21.6830 H   0  0  0  0  0  0
  -26.0191  -38.2892   24.1378 H   0  0  0  0  0  0
  -28.1692  -22.1164   22.8203 H   0  0  0  0  0  0
  -20.8558  -22.6850   19.7908 H   0  0  0  0  0  0
  -21.6204  -24.2649   19.9604 H   0  0  0  0  0  0
  -20.9625  -23.4355   21.3723 H   0  0  0  0  0  0
  -25.8876  -18.9878   23.4369 H   0  0  0  0  0  0
  -27.5865  -19.3734   23.4918 H   0  0  0  0  0  0
  -24.0718  -24.3066   21.2076 H   0  0  0  0  0  0
  -23.3168  -23.5081   22.5683 H   0  0  0  0  0  0
  -23.3416  -22.4246   19.6975 H   0  0  0  0  0  0
  -22.6363  -21.5875   21.0533 H   0  0  0  0  0  0
  -28.5320  -24.0422   20.7200 H   0  0  0  0  0  0
  -28.8550  -24.2420   22.4206 H   0  0  0  0  0  0
  -28.6798  -17.1840   22.9549 H   0  0  0  0  0  0
  -28.0011  -16.3871   21.5605 H   0  0  0  0  0  0
  -26.1712  -24.8517   21.1181 H   0  0  0  0  0  0
  -26.5034  -24.9881   22.8435 H   0  0  0  0  0  0
  -30.9037  -17.1402   22.0517 H   0  0  0  0  0  0
  -30.3257  -16.9786   20.4054 H   0  0  0  0  0  0
  -28.3357  -18.4324   20.1802 H   0  0  0  0  0  0
  -28.8997  -19.3221   21.5762 H   0  0  0  0  0  0
  -28.3664  -26.7308   22.2263 H   0  0  0  0  0  0
  -29.8008  -26.1613   21.4509 H   0  0  0  0  0  0
  -24.3315  -20.6230   22.0473 H   0  0  0  0  0  0
  -29.4711  -14.8076   22.1394 H   0  0  0  0  0  0
  -26.3592  -17.8249   21.6612 H   0  0  0  0  0  0
  1 25  1  0  0  0
  1 30  2  0  0  0
  1 86  1  0  0  0
  2  3  1  0  0  0
  2 25  1  0  0  0
  2 88  1  0  0  0
  2 89  1  0  0  0
  3  4  1  0  0  0
  3 90  1  0  0  0
  3 91  1  0  0  0
  4  5  1  0  0  0
  4 92  1  0  0  0
  4 93  1  0  0  0
  5  6  1  0  0  0
  5 26  1  0  0  0
  5 94  1  0  0  0
  6 25  1  0  0  0
  6 95  1  0  0  0
  6 96  1  0  0  0
  7  8  2  0  0  0
  7 26  1  0  0  0
  7 29  1  0  0  0
  8  9  1  0  0  0
  8 22  1  0  0  0
  9 10  1  0  0  0
  9 27  2  0  0  0
 10 11  2  0  0  0
 10 15  1  0  0  0
 11 12  1  0  0  0
 11 97  1  0  0  0
 12 13  2  0  0  0
 12 98  1  0  0  0
 13 14  1  0  0  0
 13 31  1  0  0  0
 14 15  2  0  0  0
 14 99  1  0  0  0
 15100  1  0  0  0
 16 17  2  0  0  0
 16 21  1  0  0  0
 16 31  1  0  0  0
 17 18  1  0  0  0
 17101  1  0  0  0
 18 19  2  0  0  0
 18102  1  0  0  0
 19 20  1  0  0  0
 19 24  1  0  0  0
 20 21  2  0  0  0
 20103  1  0  0  0
 21 23  1  0  0  0
 22 28  1  0  0  0
 22 32  2  0  0  0
 26 27  1  0  0  0
 28104  1  0  0  0
 28105  1  0  0  0
 29106  1  0  0  0
 29107  1  0  0  0
 33 34  1  0  0  0
 33 66  1  0  0  0
 33 70  2  0  0  0
 34 36  1  0  0  0
 34 59  1  0  0  0
 34108  1  0  0  0
 35 44  2  0  0  0
 35 45  1  0  0  0
 35 68  1  0  0  0
 36 56  1  0  0  0
 36109  1  0  0  0
 37 39  1  0  0  0
 37 47  1  0  0  0
 37 66  1  0  0  0
 37110  1  0  0  0
 38 43  2  0  0  0
 38 46  1  0  0  0
 38 47  1  0  0  0
 39 64  1  0  0  0
 39 67  2  0  0  0
 40 52  1  0  0  0
 40 53  2  0  0  0
 40 58  1  0  0  0
 41111  1  0  0  0
 41112  1  0  0  0
 41113  1  0  0  0
 41 48  1  0  0  0
 42 43  1  0  0  0
 42 66  1  0  0  0
 42114  1  0  0  0
 42115  1  0  0  0
 43 44  1  0  0  0
 44116  1  0  0  0
 45 46  2  0  0  0
 45117  1  0  0  0
 46118  1  0  0  0
 47119  1  0  0  0
 47120  1  0  0  0
 48 56  1  0  0  0
 48 65  1  0  0  0
 48121  1  0  0  0
 49 50  1  0  0  0
 49 53  1  0  0  0
 49 64  1  0  0  0
 49122  1  0  0  0
 50 51  1  0  0  0
 50123  1  0  0  0
 50124  1  0  0  0
 51 52  1  0  0  0
 51125  1  0  0  0
 51126  1  0  0  0
 52127  1  0  0  0
 52128  1  0  0  0
 53 54  1  0  0  0
 54 55  2  0  0  0
 54129  1  0  0  0
 55 57  1  0  0  0
 55130  1  0  0  0
 56 69  2  0  0  0
 57 58  2  0  0  0
 57131  1  0  0  0
 58132  1  0  0  0
 59 60  1  0  0  0
 59 61  1  0  0  0
 59 62  1  0  0  0
 60133  1  0  0  0
 60134  1  0  0  0
 60135  1  0  0  0
 61136  1  0  0  0
 61137  1  0  0  0
 61138  1  0  0  0
 62139  1  0  0  0
 62140  1  0  0  0
 62141  1  0  0  0
 63 65  1  0  0  0
 63142  1  0  0  0
 63143  1  0  0  0
 63144  1  0  0  0
 64145  1  0  0  0
 65146  1  0  0  0
 68 83  1  0  0  0
 71 72  2  0  0  0
 71 84  1  0  0  0
 71147  1  0  0  0
 72 75  1  0  0  0
 72 85  1  0  0  0
 73 76  1  0  0  0
 73 84  1  0  0  0
 73 85  2  0  0  0
 74 77  1  0  0  0
 74148  1  0  0  0
 74149  1  0  0  0
 74150  1  0  0  0
 75 87  1  0  0  0
 75151  1  0  0  0
 75152  1  0  0  0
 76 77  1  0  0  0
 76153  1  0  0  0
 76154  1  0  0  0
 77155  1  0  0  0
 77156  1  0  0  0
 78 80  1  0  0  0
 78 83  1  0  0  0
 78157  1  0  0  0
 78158  1  0  0  0
 79 81  1  0  0  0
 79 82  1  0  0  0
 79159  1  0  0  0
 79160  1  0  0  0
 80 84  1  0  0  0
 80161  1  0  0  0
 80162  1  0  0  0
 81 86  1  0  0  0
 81163  1  0  0  0
 81164  1  0  0  0
 82 87  1  0  0  0
 82165  1  0  0  0
 82166  1  0  0  0
 83167  1  0  0  0
 83168  1  0  0  0
 85169  1  0  0  0
 86170  1  0  0  0
 87171  1  0  0  0
M  CHG  1  85   1
M  ISO  4   1 100  68 101  83 101  86 100
M  END
> <chiral flag>
0

> <version>
0

> <s_m_source_file>
/data/baiqing/PycharmProjects/Reinvent-master-3.2/result/LINK_invent/BTK/process_docking_weight1_custom_sum_contain_oxygen_bond_distance_aromatic_linkinvent_7_9_3/rearranged_h_0081.sdf

> <i_m_source_file_index>
6

> <r_mmod_Potential_Energy-OPLS-2005>
-107.226715087891

> <r_mmod_Stretch_Energy-OPLS-2005>
35.5799407958984

> <r_mmod_Bend_Energy-OPLS-2005>
98.2420196533203

> <r_mmod_Torsional_Energy-OPLS-2005>
270.033081054688

> <r_mmod_Improper_Torsional_Energy-OPLS-2005>
3.83031415939331

> <r_mmod_Van_der_Waal_Energy-OPLS-2005>
112.953109741211

> <r_mmod_Electrostatic_Energy-OPLS-2005>
-226.750961303711

> <r_mmod_Solvation_Energy-OPLS-2005>
-411.159301757812

> <b_mmod_Minimization_Converged-OPLS-2005>
0

> <r_mmod_RMS_Derivative-OPLS-2005>
6.37761449813843

$$$$
6
                    3D
 Structure written by MMmdl.
171179  0  0  1  0            999 V2000
  -30.6587  -14.5484   20.5043 C   0  0  0  0  0  0
  -30.4126  -12.3331   19.4554 C   0  0  0  0  0  0
  -29.5057  -12.5165   18.2205 C   0  0  0  0  0  0
  -28.0207  -12.3893   18.6179 C   0  0  0  0  0  0
  -27.6535  -13.2255   19.8761 C   0  0  2  0  0  0
  -28.6927  -13.0454   21.0048 C   0  0  0  0  0  0
  -25.2528  -13.8196   20.5756 C   0  0  0  0  0  0
  -24.1820  -13.0450   20.9215 C   0  0  0  0  0  0
  -24.6393  -11.6903   20.8733 C   0  0  0  0  0  0
  -23.9081  -10.4287   21.0396 C   0  0  0  0  0  0
  -24.3627   -9.4206   21.9174 C   0  0  0  0  0  0
  -23.6303   -8.2233   22.0734 C   0  0  0  0  0  0
  -22.4280   -8.0272   21.3532 C   0  0  0  0  0  0
  -21.9938   -9.0240   20.4614 C   0  0  0  0  0  0
  -22.7275  -10.2116   20.3027 C   0  0  0  0  0  0
  -21.6863   -6.0728   22.5269 C   0  0  0  0  0  0
  -21.4019   -6.5632   23.8209 C   0  0  0  0  0  0
  -21.3668   -5.6790   24.9173 C   0  0  0  0  0  0
  -21.6051   -4.3049   24.7226 C   0  0  0  0  0  0
  -21.8828   -3.8140   23.4347 C   0  0  0  0  0  0
  -21.9185   -4.6947   22.3402 C   0  0  0  0  0  0
  -22.7830  -13.5190   21.1904 C   0  0  0  0  0  0
  -22.1662   -4.2137   21.0978 F   0  0  0  0  0  0
  -21.5620   -3.4529   25.7737 F   0  0  0  0  0  0
  -30.0120  -13.3503   20.4392 N   0  0  0  0  0  0
  -26.2979  -12.9405   20.3364 N   0  0  0  0  0  0
  -25.9320  -11.6542   20.5751 N   0  0  0  0  0  0
  -22.0479  -12.8118   22.0402 N   0  0  0  0  0  0
  -25.4260  -15.1945   20.4222 N   0  0  0  0  0  0
  -31.8227  -14.6849   20.1147 O   0  0  0  0  0  0
  -21.6640   -6.8867   21.4241 O   0  0  0  0  0  0
  -22.3504  -14.5534   20.6806 O   0  0  0  0  0  0
  -24.6184  -31.8631   23.2052 C   0  0  0  0  0  0
  -25.9050  -32.4765   23.8351 C   0  0  1  0  0  0
  -27.2404  -27.4145   20.1044 C   0  0  0  0  0  0
  -25.5904  -33.8564   24.2293 N   0  0  0  0  0  0
  -23.4119  -30.4869   21.5401 C   0  0  2  0  0  0
  -24.8582  -28.9460   20.1134 C   0  0  0  0  0  0
  -22.7423  -29.4670   22.4914 C   0  0  0  0  0  0
  -18.0261  -28.1369   22.8444 C   0  0  0  0  0  0
  -24.1506  -36.7297   23.2648 C   0  0  0  0  0  0
  -25.9460  -30.8198   21.3666 C   0  0  0  0  0  0
  -26.0210  -29.4575   20.7071 C   0  0  0  0  0  0
  -27.2182  -28.7004   20.6931 C   0  0  0  0  0  0
  -26.0630  -26.9260   19.4989 C   0  0  0  0  0  0
  -24.8741  -27.6757   19.5143 C   0  0  0  0  0  0
  -23.6198  -29.8124   20.1610 C   0  0  0  0  0  0
  -25.4116  -36.3097   24.0355 C   0  0  1  0  0  0
  -20.5879  -28.3708   23.1261 C   0  0  2  0  0  0
  -20.6802  -26.9426   22.5396 C   0  0  0  0  0  0
  -19.5768  -26.6409   21.5204 C   0  0  0  0  0  0
  -18.1912  -26.7924   22.1574 C   0  0  0  0  0  0
  -19.1518  -28.8833   23.2840 C   0  0  0  0  0  0
  -18.9451  -30.1410   23.8889 C   0  0  0  0  0  0
  -17.6473  -30.6575   24.0553 C   0  0  0  0  0  0
  -25.9050  -34.9445   23.5132 C   0  0  0  0  0  0
  -16.5344  -29.9092   23.6326 C   0  0  0  0  0  0
  -16.7257  -28.6501   23.0345 C   0  0  0  0  0  0
  -26.4417  -31.6558   25.0703 C   0  0  0  0  0  0
  -25.3624  -31.3650   26.1408 C   0  0  0  0  0  0
  -27.0271  -30.2997   24.6140 C   0  0  0  0  0  0
  -27.6010  -32.4259   25.7436 C   0  0  0  0  0  0
  -27.5572  -37.1806   24.8472 C   0  0  0  0  0  0
  -21.4139  -29.3076   22.3630 N   0  0  0  0  0  0
  -26.4323  -37.3777   23.9379 N   0  0  0  0  0  0
  -24.6733  -31.0785   22.0900 N   0  0  0  0  0  0
  -23.4157  -28.8231   23.2996 O   0  0  0  0  0  0
  -28.3813  -26.6354   20.1276 O   0  0  0  0  0  0
  -26.5654  -34.8930   22.4727 O   0  0  0  0  0  0
  -23.5371  -32.1374   23.7469 O   0  0  0  0  0  0
  -28.5174  -22.1542   22.6548 C   0  0  0  0  0  0
  -29.2101  -21.1471   23.3780 C   0  0  0  0  0  0
  -28.8088  -21.8920   21.3354 C   0  0  0  0  0  0
  -28.5715  -19.6079   25.2273 C   0  0  0  0  0  0
  -25.5097  -21.7052   23.1811 C   0  0  0  0  0  0
  -27.6249  -23.1996   23.2802 C   0  0  0  0  0  0
  -29.2777  -20.9215   24.8604 C   0  0  0  0  0  0
  -28.4251  -22.6999   20.0997 C   0  0  0  0  0  0
  -26.4403  -22.5763   24.0404 C   0  0  0  0  0  0
  -28.9394  -24.1794   19.9575 C   0  0  0  0  0  0
  -29.2367  -18.1543   20.5395 C   0  0  0  0  0  0
  -29.7655  -19.6279   20.2963 C   0  0  0  0  0  0
  -30.3509  -17.0484   20.6103 C   0  0  0  0  0  0
  -28.2162  -25.3240   20.7205 C   0  0  0  0  0  0
  -29.7724  -20.2618   22.5881 N   0  0  0  0  0  0
  -29.4134  -20.6118   21.3400 N   0  0  0  0  0  0
  -29.9029  -15.6379   20.7971 N   0  0  0  0  0  0
  -31.4683  -12.4087   19.1877 H   0  0  0  0  0  0
  -30.2795  -11.3341   19.8755 H   0  0  0  0  0  0
  -29.7534  -11.7771   17.4596 H   0  0  0  0  0  0
  -29.6858  -13.4943   17.7676 H   0  0  0  0  0  0
  -27.8168  -11.3359   18.8045 H   0  0  0  0  0  0
  -27.3883  -12.6846   17.7802 H   0  0  0  0  0  0
  -27.6812  -14.2730   19.5731 H   0  0  0  0  0  0
  -28.6778  -12.0204   21.3794 H   0  0  0  0  0  0
  -28.4652  -13.6786   21.8644 H   0  0  0  0  0  0
  -25.2767   -9.5663   22.4760 H   0  0  0  0  0  0
  -23.9995   -7.4615   22.7463 H   0  0  0  0  0  0
  -21.0866   -8.8791   19.8893 H   0  0  0  0  0  0
  -22.3782  -10.9657   19.6108 H   0  0  0  0  0  0
  -21.2043   -7.6140   23.9725 H   0  0  0  0  0  0
  -21.1479   -6.0505   25.9083 H   0  0  0  0  0  0
  -22.0603   -2.7593   23.2860 H   0  0  0  0  0  0
  -22.4083  -11.9705   22.4685 H   0  0  0  0  0  0
  -21.1064  -13.1048   22.2590 H   0  0  0  0  0  0
  -24.6742  -15.8602   20.5682 H   0  0  0  0  0  0
  -26.2823  -15.6302   20.1061 H   0  0  0  0  0  0
  -26.7143  -32.5480   23.1137 H   0  0  0  0  0  0
  -25.0032  -33.9678   25.0423 H   0  0  0  0  0  0
  -22.7061  -31.3051   21.3935 H   0  0  0  0  0  0
  -23.3788  -35.9617   23.3316 H   0  0  0  0  0  0
  -24.3625  -36.8914   22.2065 H   0  0  0  0  0  0
  -23.7241  -37.6500   23.6656 H   0  0  0  0  0  0
  -26.0977  -31.5923   20.6107 H   0  0  0  0  0  0
  -26.8191  -30.8517   22.0089 H   0  0  0  0  0  0
  -28.1146  -29.0841   21.1556 H   0  0  0  0  0  0
  -26.0697  -25.9511   19.0293 H   0  0  0  0  0  0
  -23.9811  -27.2583   19.0656 H   0  0  0  0  0  0
  -23.7196  -30.5783   19.3918 H   0  0  0  0  0  0
  -22.7449  -29.2251   19.8767 H   0  0  0  0  0  0
  -25.1288  -36.1985   25.0858 H   0  0  0  0  0  0
  -20.9927  -28.3340   24.1393 H   0  0  0  0  0  0
  -20.5776  -26.2239   23.3556 H   0  0  0  0  0  0
  -21.6633  -26.7535   22.1081 H   0  0  0  0  0  0
  -19.6976  -25.6345   21.1171 H   0  0  0  0  0  0
  -19.6758  -27.3268   20.6779 H   0  0  0  0  0  0
  -17.4199  -26.6662   21.3948 H   0  0  0  0  0  0
  -18.0271  -26.0072   22.8951 H   0  0  0  0  0  0
  -19.7941  -30.7164   24.2281 H   0  0  0  0  0  0
  -17.5062  -31.6273   24.5132 H   0  0  0  0  0  0
  -15.5334  -30.2995   23.7701 H   0  0  0  0  0  0
  -15.8622  -28.0836   22.7093 H   0  0  0  0  0  0
  -24.5950  -30.6804   25.7768 H   0  0  0  0  0  0
  -24.8591  -32.2741   26.4700 H   0  0  0  0  0  0
  -25.7942  -30.8991   27.0268 H   0  0  0  0  0  0
  -26.2879  -29.6760   24.1102 H   0  0  0  0  0  0
  -27.3917  -29.7217   25.4647 H   0  0  0  0  0  0
  -27.8734  -30.4306   23.9402 H   0  0  0  0  0  0
  -27.2725  -33.3650   26.1896 H   0  0  0  0  0  0
  -28.3837  -32.6662   25.0218 H   0  0  0  0  0  0
  -28.0632  -31.8413   26.5407 H   0  0  0  0  0  0
  -28.2580  -38.0112   24.7569 H   0  0  0  0  0  0
  -28.1082  -36.2654   24.6272 H   0  0  0  0  0  0
  -27.2286  -37.1433   25.8876 H   0  0  0  0  0  0
  -20.9298  -29.8795   21.6832 H   0  0  0  0  0  0
  -26.0216  -38.2854   24.1377 H   0  0  0  0  0  0
  -28.5296  -19.4618   26.3027 H   0  0  0  0  0  0
  -29.0952  -18.7525   24.7945 H   0  0  0  0  0  0
  -27.5498  -19.5937   24.8463 H   0  0  0  0  0  0
  -24.6821  -21.3332   23.7871 H   0  0  0  0  0  0
  -26.0298  -20.8387   22.7736 H   0  0  0  0  0  0
  -25.0900  -22.2618   22.3434 H   0  0  0  0  0  0
  -27.1883  -23.8566   22.5461 H   0  0  0  0  0  0
  -28.1864  -23.8539   23.9467 H   0  0  0  0  0  0
  -28.8271  -21.7589   25.3913 H   0  0  0  0  0  0
  -30.3127  -20.9166   25.2008 H   0  0  0  0  0  0
  -27.3395  -22.6993   19.9895 H   0  0  0  0  0  0
  -28.8060  -22.1774   19.2235 H   0  0  0  0  0  0
  -26.7841  -21.9723   24.8746 H   0  0  0  0  0  0
  -25.8687  -23.3777   24.5020 H   0  0  0  0  0  0
  -28.8016  -24.4246   18.9058 H   0  0  0  0  0  0
  -30.0118  -24.2380   20.1515 H   0  0  0  0  0  0
  -28.5712  -17.9055   19.7092 H   0  0  0  0  0  0
  -28.6128  -18.1164   21.4351 H   0  0  0  0  0  0
  -29.4287  -19.9942   19.3269 H   0  0  0  0  0  0
  -30.8531  -19.5962   20.2428 H   0  0  0  0  0  0
  -31.0560  -17.2885   21.4089 H   0  0  0  0  0  0
  -30.9220  -17.0966   19.6799 H   0  0  0  0  0  0
  -28.6322  -25.3851   21.7256 H   0  0  0  0  0  0
  -27.1622  -25.0692   20.8349 H   0  0  0  0  0  0
  -28.9517  -15.4783   21.0975 H   0  0  0  0  0  0
  1 25  1  0  0  0
  1 30  2  0  0  0
  1 87  1  0  0  0
  2  3  1  0  0  0
  2 25  1  0  0  0
  2 88  1  0  0  0
  2 89  1  0  0  0
  3  4  1  0  0  0
  3 90  1  0  0  0
  3 91  1  0  0  0
  4  5  1  0  0  0
  4 92  1  0  0  0
  4 93  1  0  0  0
  5  6  1  0  0  0
  5 26  1  0  0  0
  5 94  1  0  0  0
  6 25  1  0  0  0
  6 95  1  0  0  0
  6 96  1  0  0  0
  7  8  2  0  0  0
  7 26  1  0  0  0
  7 29  1  0  0  0
  8  9  1  0  0  0
  8 22  1  0  0  0
  9 10  1  0  0  0
  9 27  2  0  0  0
 10 11  2  0  0  0
 10 15  1  0  0  0
 11 12  1  0  0  0
 11 97  1  0  0  0
 12 13  2  0  0  0
 12 98  1  0  0  0
 13 14  1  0  0  0
 13 31  1  0  0  0
 14 15  2  0  0  0
 14 99  1  0  0  0
 15100  1  0  0  0
 16 17  2  0  0  0
 16 21  1  0  0  0
 16 31  1  0  0  0
 17 18  1  0  0  0
 17101  1  0  0  0
 18 19  2  0  0  0
 18102  1  0  0  0
 19 20  1  0  0  0
 19 24  1  0  0  0
 20 21  2  0  0  0
 20103  1  0  0  0
 21 23  1  0  0  0
 22 28  1  0  0  0
 22 32  2  0  0  0
 26 27  1  0  0  0
 28104  1  0  0  0
 28105  1  0  0  0
 29106  1  0  0  0
 29107  1  0  0  0
 33 34  1  0  0  0
 33 66  1  0  0  0
 33 70  2  0  0  0
 34 36  1  0  0  0
 34 59  1  0  0  0
 34108  1  0  0  0
 35 44  2  0  0  0
 35 45  1  0  0  0
 35 68  1  0  0  0
 36 56  1  0  0  0
 36109  1  0  0  0
 37 39  1  0  0  0
 37 47  1  0  0  0
 37 66  1  0  0  0
 37110  1  0  0  0
 38 43  2  0  0  0
 38 46  1  0  0  0
 38 47  1  0  0  0
 39 64  1  0  0  0
 39 67  2  0  0  0
 40 52  1  0  0  0
 40 53  2  0  0  0
 40 58  1  0  0  0
 41111  1  0  0  0
 41112  1  0  0  0
 41113  1  0  0  0
 41 48  1  0  0  0
 42 43  1  0  0  0
 42 66  1  0  0  0
 42114  1  0  0  0
 42115  1  0  0  0
 43 44  1  0  0  0
 44116  1  0  0  0
 45 46  2  0  0  0
 45117  1  0  0  0
 46118  1  0  0  0
 47119  1  0  0  0
 47120  1  0  0  0
 48 56  1  0  0  0
 48 65  1  0  0  0
 48121  1  0  0  0
 49 50  1  0  0  0
 49 53  1  0  0  0
 49 64  1  0  0  0
 49122  1  0  0  0
 50 51  1  0  0  0
 50123  1  0  0  0
 50124  1  0  0  0
 51 52  1  0  0  0
 51125  1  0  0  0
 51126  1  0  0  0
 52127  1  0  0  0
 52128  1  0  0  0
 53 54  1  0  0  0
 54 55  2  0  0  0
 54129  1  0  0  0
 55 57  1  0  0  0
 55130  1  0  0  0
 56 69  2  0  0  0
 57 58  2  0  0  0
 57131  1  0  0  0
 58132  1  0  0  0
 59 60  1  0  0  0
 59 61  1  0  0  0
 59 62  1  0  0  0
 60133  1  0  0  0
 60134  1  0  0  0
 60135  1  0  0  0
 61136  1  0  0  0
 61137  1  0  0  0
 61138  1  0  0  0
 62139  1  0  0  0
 62140  1  0  0  0
 62141  1  0  0  0
 63 65  1  0  0  0
 63142  1  0  0  0
 63143  1  0  0  0
 63144  1  0  0  0
 64145  1  0  0  0
 65146  1  0  0  0
 68 84  1  0  0  0
 71 72  1  0  0  0
 71 73  2  0  0  0
 71 76  1  0  0  0
 72 77  1  0  0  0
 72 85  2  0  0  0
 73 78  1  0  0  0
 73 86  1  0  0  0
 74 77  1  0  0  0
 74147  1  0  0  0
 74148  1  0  0  0
 74149  1  0  0  0
 75 79  1  0  0  0
 75150  1  0  0  0
 75151  1  0  0  0
 75152  1  0  0  0
 76 79  1  0  0  0
 76153  1  0  0  0
 76154  1  0  0  0
 77155  1  0  0  0
 77156  1  0  0  0
 78 80  1  0  0  0
 78157  1  0  0  0
 78158  1  0  0  0
 79159  1  0  0  0
 79160  1  0  0  0
 80 84  1  0  0  0
 80161  1  0  0  0
 80162  1  0  0  0
 81 82  1  0  0  0
 81 83  1  0  0  0
 81163  1  0  0  0
 81164  1  0  0  0
 82 86  1  0  0  0
 82165  1  0  0  0
 82166  1  0  0  0
 83 87  1  0  0  0
 83167  1  0  0  0
 83168  1  0  0  0
 84169  1  0  0  0
 84170  1  0  0  0
 85 86  1  0  0  0
 87171  1  0  0  0
M  ISO  4   1 100  68 101  84 101  87 100
M  END
> <chiral flag>
0

> <version>
0

> <s_m_source_file>
/data/baiqing/PycharmProjects/Reinvent-master-3.2/result/LINK_invent/BTK/process_docking_weight1_custom_sum_contain_oxygen_bond_distance_aromatic_linkinvent_7_9_3/rearranged_h_0081.sdf

> <i_m_source_file_index>
7

> <r_mmod_Potential_Energy-OPLS-2005>
-53.2371406555176

> <r_mmod_Stretch_Energy-OPLS-2005>
50.5964317321777

> <r_mmod_Bend_Energy-OPLS-2005>
119.765464782715

> <r_mmod_Torsional_Energy-OPLS-2005>
256.991363525391

> <r_mmod_Improper_Torsional_Energy-OPLS-2005>
5.94782829284668

> <r_mmod_Van_der_Waal_Energy-OPLS-2005>
125.173820495605

> <r_mmod_Electrostatic_Energy-OPLS-2005>
-421.997985839844

> <r_mmod_Solvation_Energy-OPLS-2005>
-212.435821533203

> <b_mmod_Minimization_Converged-OPLS-2005>
0

> <r_mmod_RMS_Derivative-OPLS-2005>
6.95265293121338

$$$$
7
                    3D
 Structure written by MMmdl.
152160  0  0  1  0            999 V2000
  -30.4600  -15.2770   20.3798 C   0  0  0  0  0  0
  -30.4340  -12.8311   19.5271 C   0  0  0  0  0  0
  -29.5372  -12.5900   18.2882 C   0  0  0  0  0  0
  -28.0934  -12.3098   18.7273 C   0  0  0  0  0  0
  -27.6158  -13.2808   19.8361 C   0  0  2  0  0  0
  -28.6454  -13.4768   20.9696 C   0  0  0  0  0  0
  -25.2402  -13.8268   20.5833 C   0  0  0  0  0  0
  -24.1721  -13.0463   20.9303 C   0  0  0  0  0  0
  -24.6362  -11.6945   20.8761 C   0  0  0  0  0  0
  -23.9048  -10.4285   21.0390 C   0  0  0  0  0  0
  -24.3616   -9.4205   21.9182 C   0  0  0  0  0  0
  -23.6305   -8.2226   22.0718 C   0  0  0  0  0  0
  -22.4300   -8.0230   21.3499 C   0  0  0  0  0  0
  -21.9928   -9.0207   20.4605 C   0  0  0  0  0  0
  -22.7211  -10.2120   20.3043 C   0  0  0  0  0  0
  -21.6870   -6.0692   22.5247 C   0  0  0  0  0  0
  -21.4009   -6.5607   23.8180 C   0  0  0  0  0  0
  -21.3679   -5.6780   24.9162 C   0  0  0  0  0  0
  -21.6075   -4.3043   24.7242 C   0  0  0  0  0  0
  -21.8822   -3.8110   23.4356 C   0  0  0  0  0  0
  -21.9193   -4.6916   22.3396 C   0  0  0  0  0  0
  -22.7723  -13.5205   21.1976 C   0  0  0  0  0  0
  -22.1641   -4.2098   21.0977 F   0  0  0  0  0  0
  -21.5684   -3.4525   25.7755 F   0  0  0  0  0  0
  -29.8740  -13.9781   20.3326 N   0  0  0  0  0  0
  -26.2838  -12.9553   20.3289 N   0  0  0  0  0  0
  -25.9319  -11.6653   20.5716 N   0  0  0  0  0  0
  -22.0369  -12.8127   22.0495 N   0  0  0  0  0  0
  -25.4146  -15.1999   20.4345 N   0  0  0  0  0  0
  -31.6816  -15.2603   20.1768 O   0  0  0  0  0  0
  -21.6655   -6.8837   21.4201 O   0  0  0  0  0  0
  -22.3370  -14.5474   20.6773 O   0  0  0  0  0  0
  -24.6659  -31.8138   23.1620 C   0  0  0  0  0  0
  -25.9310  -32.4515   23.8110 C   0  0  1  0  0  0
  -27.2459  -26.8987   20.2210 C   0  0  0  0  0  0
  -25.5966  -33.8340   24.2000 N   0  0  0  0  0  0
  -23.4889  -30.4210   21.5090 C   0  0  2  0  0  0
  -24.9495  -28.7995   20.1140 C   0  0  0  0  0  0
  -22.7724  -29.4380   22.4711 C   0  0  0  0  0  0
  -18.0302  -28.1456   22.8402 C   0  0  0  0  0  0
  -24.1512  -36.7219   23.2651 C   0  0  0  0  0  0
  -26.0573  -30.6208   21.3932 C   0  0  0  0  0  0
  -26.1295  -29.2039   20.7488 C   0  0  0  0  0  0
  -27.2684  -28.2777   20.7698 C   0  0  0  0  0  0
  -26.0334  -26.6486   19.5383 C   0  0  0  0  0  0
  -24.9286  -27.5423   19.4860 C   0  0  0  0  0  0
  -23.7334  -29.7247   20.1405 C   0  0  0  0  0  0
  -25.4130  -36.2905   24.0264 C   0  0  1  0  0  0
  -20.5943  -28.3782   23.1153 C   0  0  2  0  0  0
  -20.6809  -26.9472   22.5394 C   0  0  0  0  0  0
  -19.5773  -26.6406   21.5229 C   0  0  0  0  0  0
  -18.1920  -26.7973   22.1605 C   0  0  0  0  0  0
  -19.1578  -28.8936   23.2746 C   0  0  0  0  0  0
  -18.9506  -30.1506   23.8790 C   0  0  0  0  0  0
  -17.6508  -30.6620   24.0547 C   0  0  0  0  0  0
  -25.9112  -34.9293   23.4919 C   0  0  0  0  0  0
  -16.5376  -29.9114   23.6361 C   0  0  0  0  0  0
  -16.7286  -28.6568   23.0303 C   0  0  0  0  0  0
  -26.4559  -31.6478   25.0667 C   0  0  0  0  0  0
  -25.3744  -31.3748   26.1370 C   0  0  0  0  0  0
  -27.0420  -30.2798   24.6445 C   0  0  0  0  0  0
  -27.5987  -32.4367   25.7484 C   0  0  0  0  0  0
  -27.5545  -37.1744   24.8446 C   0  0  0  0  0  0
  -21.4372  -29.3049   22.3505 N   0  0  0  0  0  0
  -26.4247  -37.3652   23.9414 N   0  0  0  0  0  0
  -24.7583  -30.9779   22.0790 N   0  0  0  0  0  0
  -23.4232  -28.7932   23.2962 O   0  0  0  0  0  0
  -28.2634  -25.7983   20.3112 O   0  0  0  0  0  0
  -26.5728  -34.8842   22.4556 O   0  0  0  0  0  0
  -23.5673  -32.1138   23.6654 O   0  0  0  0  0  0
  -29.5212  -21.3641   20.5221 C   0  0  0  0  0  0
  -29.1697  -22.8634   20.5614 C   0  0  0  0  0  0
  -29.4954  -24.5172   23.2748 C   0  0  0  0  0  0
  -29.0747  -19.6993   20.2857 C   0  0  0  0  0  0
  -28.0141  -24.1504   20.2834 C   0  0  0  0  0  0
  -30.4532  -24.5225   22.0575 C   0  0  0  0  0  0
  -30.0775  -18.2013   20.4466 C   0  0  0  0  0  0
  -30.8559  -21.2926   20.9297 N   0  0  0  0  0  0
  -31.2823  -22.4082   21.3826 N   0  0  0  0  0  0
  -30.2838  -23.3016   21.2828 N   0  0  0  0  0  0
  -29.7255  -16.5625   20.4603 N   0  0  0  0  0  0
  -31.4448  -13.0621   19.1932 H   0  0  0  0  0  0
  -30.5060  -11.9256   20.1349 H   0  0  0  0  0  0
  -29.9271  -11.7621   17.6954 H   0  0  0  0  0  0
  -29.5511  -13.4641   17.6382 H   0  0  0  0  0  0
  -28.0678  -11.2819   19.0826 H   0  0  0  0  0  0
  -27.4174  -12.3546   17.8768 H   0  0  0  0  0  0
  -27.5288  -14.2470   19.3374 H   0  0  0  0  0  0
  -28.8220  -12.5506   21.5216 H   0  0  0  0  0  0
  -28.2760  -14.2095   21.6950 H   0  0  0  0  0  0
  -25.2787   -9.5701   22.4747 H   0  0  0  0  0  0
  -24.0028   -7.4626   22.7427 H   0  0  0  0  0  0
  -21.0874   -8.8677   19.8895 H   0  0  0  0  0  0
  -22.3631  -10.9635   19.6137 H   0  0  0  0  0  0
  -21.1942   -7.6115   23.9670 H   0  0  0  0  0  0
  -21.1554   -6.0512   25.9062 H   0  0  0  0  0  0
  -22.0600   -2.7544   23.2873 H   0  0  0  0  0  0
  -22.4040  -11.9840   22.4945 H   0  0  0  0  0  0
  -21.0914  -13.0974   22.2664 H   0  0  0  0  0  0
  -24.6645  -15.8648   20.5804 H   0  0  0  0  0  0
  -26.2870  -15.6290   20.1507 H   0  0  0  0  0  0
  -26.7384  -32.5057   23.0823 H   0  0  0  0  0  0
  -25.0100  -33.9426   25.0121 H   0  0  0  0  0  0
  -22.7987  -31.2419   21.3157 H   0  0  0  0  0  0
  -23.3758  -35.9577   23.3253 H   0  0  0  0  0  0
  -24.3625  -36.8970   22.2102 H   0  0  0  0  0  0
  -23.7312  -37.6398   23.6767 H   0  0  0  0  0  0
  -26.2296  -31.3514   20.6007 H   0  0  0  0  0  0
  -26.9301  -30.6957   22.0332 H   0  0  0  0  0  0
  -28.1600  -28.5966   21.2864 H   0  0  0  0  0  0
  -25.9064  -25.6859   19.0650 H   0  0  0  0  0  0
  -24.0299  -27.2250   18.9728 H   0  0  0  0  0  0
  -23.8840  -30.4846   19.3729 H   0  0  0  0  0  0
  -22.8473  -29.1705   19.8286 H   0  0  0  0  0  0
  -25.1342  -36.1621   25.0735 H   0  0  0  0  0  0
  -20.9957  -28.3389   24.1323 H   0  0  0  0  0  0
  -20.5727  -26.2418   23.3651 H   0  0  0  0  0  0
  -21.6641  -26.7450   22.1173 H   0  0  0  0  0  0
  -19.6989  -25.6331   21.1250 H   0  0  0  0  0  0
  -19.6706  -27.3213   20.6762 H   0  0  0  0  0  0
  -17.4203  -26.6645   21.3996 H   0  0  0  0  0  0
  -18.0275  -26.0171   22.9063 H   0  0  0  0  0  0
  -19.7981  -30.7332   24.2115 H   0  0  0  0  0  0
  -17.5067  -31.6275   24.5207 H   0  0  0  0  0  0
  -15.5381  -30.2997   23.7826 H   0  0  0  0  0  0
  -15.8641  -28.0915   22.7033 H   0  0  0  0  0  0
  -24.5875  -30.7104   25.7775 H   0  0  0  0  0  0
  -24.9041  -32.2981   26.4739 H   0  0  0  0  0  0
  -25.8090  -30.8988   27.0165 H   0  0  0  0  0  0
  -26.3066  -29.6485   24.1445 H   0  0  0  0  0  0
  -27.3900  -29.7091   25.5075 H   0  0  0  0  0  0
  -27.9021  -30.3934   23.9854 H   0  0  0  0  0  0
  -27.2427  -33.3678   26.1873 H   0  0  0  0  0  0
  -28.3887  -32.6940   25.0431 H   0  0  0  0  0  0
  -28.0544  -31.8679   26.5589 H   0  0  0  0  0  0
  -28.2457  -38.0118   24.7462 H   0  0  0  0  0  0
  -28.1101  -36.2627   24.6237 H   0  0  0  0  0  0
  -27.2258  -37.1347   25.8839 H   0  0  0  0  0  0
  -20.9643  -29.8743   21.6639 H   0  0  0  0  0  0
  -26.0046  -38.2666   24.1494 H   0  0  0  0  0  0
  -29.7577  -25.2936   23.9945 H   0  0  0  0  0  0
  -29.5175  -23.5590   23.7999 H   0  0  0  0  0  0
  -28.4566  -24.6730   22.9841 H   0  0  0  0  0  0
  -28.6614  -19.6344   19.2811 H   0  0  0  0  0  0
  -28.2067  -19.5324   20.9232 H   0  0  0  0  0  0
  -27.2479  -23.9935   21.0424 H   0  0  0  0  0  0
  -27.5161  -23.9351   19.3388 H   0  0  0  0  0  0
  -31.4845  -24.5745   22.4142 H   0  0  0  0  0  0
  -30.3416  -25.3924   21.4152 H   0  0  0  0  0  0
  -30.6324  -18.3386   21.3775 H   0  0  0  0  0  0
  -30.8417  -18.3042   19.6732 H   0  0  0  0  0  0
  -28.7342  -16.4099   20.5733 H   0  0  0  0  0  0
  1 25  1  0  0  0
  1 30  2  0  0  0
  1 81  1  0  0  0
  2  3  1  0  0  0
  2 25  1  0  0  0
  2 82  1  0  0  0
  2 83  1  0  0  0
  3  4  1  0  0  0
  3 84  1  0  0  0
  3 85  1  0  0  0
  4  5  1  0  0  0
  4 86  1  0  0  0
  4 87  1  0  0  0
  5  6  1  0  0  0
  5 26  1  0  0  0
  5 88  1  0  0  0
  6 25  1  0  0  0
  6 89  1  0  0  0
  6 90  1  0  0  0
  7  8  2  0  0  0
  7 26  1  0  0  0
  7 29  1  0  0  0
  8  9  1  0  0  0
  8 22  1  0  0  0
  9 10  1  0  0  0
  9 27  2  0  0  0
 10 11  2  0  0  0
 10 15  1  0  0  0
 11 12  1  0  0  0
 11 91  1  0  0  0
 12 13  2  0  0  0
 12 92  1  0  0  0
 13 14  1  0  0  0
 13 31  1  0  0  0
 14 15  2  0  0  0
 14 93  1  0  0  0
 15 94  1  0  0  0
 16 17  2  0  0  0
 16 21  1  0  0  0
 16 31  1  0  0  0
 17 18  1  0  0  0
 17 95  1  0  0  0
 18 19  2  0  0  0
 18 96  1  0  0  0
 19 20  1  0  0  0
 19 24  1  0  0  0
 20 21  2  0  0  0
 20 97  1  0  0  0
 21 23  1  0  0  0
 22 28  1  0  0  0
 22 32  2  0  0  0
 26 27  1  0  0  0
 28 98  1  0  0  0
 28 99  1  0  0  0
 29100  1  0  0  0
 29101  1  0  0  0
 33 34  1  0  0  0
 33 66  1  0  0  0
 33 70  2  0  0  0
 34 36  1  0  0  0
 34 59  1  0  0  0
 34102  1  0  0  0
 35 44  2  0  0  0
 35 45  1  0  0  0
 35 68  1  0  0  0
 36 56  1  0  0  0
 36103  1  0  0  0
 37 39  1  0  0  0
 37 47  1  0  0  0
 37 66  1  0  0  0
 37104  1  0  0  0
 38 43  2  0  0  0
 38 46  1  0  0  0
 38 47  1  0  0  0
 39 64  1  0  0  0
 39 67  2  0  0  0
 40 52  1  0  0  0
 40 53  2  0  0  0
 40 58  1  0  0  0
 41105  1  0  0  0
 41106  1  0  0  0
 41107  1  0  0  0
 41 48  1  0  0  0
 42 43  1  0  0  0
 42 66  1  0  0  0
 42108  1  0  0  0
 42109  1  0  0  0
 43 44  1  0  0  0
 44110  1  0  0  0
 45 46  2  0  0  0
 45111  1  0  0  0
 46112  1  0  0  0
 47113  1  0  0  0
 47114  1  0  0  0
 48 56  1  0  0  0
 48 65  1  0  0  0
 48115  1  0  0  0
 49 50  1  0  0  0
 49 53  1  0  0  0
 49 64  1  0  0  0
 49116  1  0  0  0
 50 51  1  0  0  0
 50117  1  0  0  0
 50118  1  0  0  0
 51 52  1  0  0  0
 51119  1  0  0  0
 51120  1  0  0  0
 52121  1  0  0  0
 52122  1  0  0  0
 53 54  1  0  0  0
 54 55  2  0  0  0
 54123  1  0  0  0
 55 57  1  0  0  0
 55124  1  0  0  0
 56 69  2  0  0  0
 57 58  2  0  0  0
 57125  1  0  0  0
 58126  1  0  0  0
 59 60  1  0  0  0
 59 61  1  0  0  0
 59 62  1  0  0  0
 60127  1  0  0  0
 60128  1  0  0  0
 60129  1  0  0  0
 61130  1  0  0  0
 61131  1  0  0  0
 61132  1  0  0  0
 62133  1  0  0  0
 62134  1  0  0  0
 62135  1  0  0  0
 63 65  1  0  0  0
 63136  1  0  0  0
 63137  1  0  0  0
 63138  1  0  0  0
 64139  1  0  0  0
 65140  1  0  0  0
 68 75  1  0  0  0
 71 72  2  0  0  0
 71 74  1  0  0  0
 71 78  1  0  0  0
 72 75  1  0  0  0
 72 80  1  0  0  0
 73 76  1  0  0  0
 73141  1  0  0  0
 73142  1  0  0  0
 73143  1  0  0  0
 74 77  1  0  0  0
 74144  1  0  0  0
 74145  1  0  0  0
 75146  1  0  0  0
 75147  1  0  0  0
 76 80  1  0  0  0
 76148  1  0  0  0
 76149  1  0  0  0
 77 81  1  0  0  0
 77150  1  0  0  0
 77151  1  0  0  0
 78 79  2  0  0  0
 79 80  1  0  0  0
 81152  1  0  0  0
M  ISO  4   1 100  68 101  75 101  81 100
M  END
> <chiral flag>
0

> <version>
0

> <s_m_source_file>
/data/baiqing/PycharmProjects/Reinvent-master-3.2/result/LINK_invent/BTK/process_docking_weight1_custom_sum_contain_oxygen_bond_distance_aromatic_linkinvent_7_9_3/rearranged_h_0081.sdf

> <i_m_source_file_index>
8

> <r_mmod_Potential_Energy-OPLS-2005>
1354.58947753906

> <r_mmod_Stretch_Energy-OPLS-2005>
637.419006347656

> <r_mmod_Bend_Energy-OPLS-2005>
460.333648681641

> <r_mmod_Torsional_Energy-OPLS-2005>
244.950088500977

> <r_mmod_Improper_Torsional_Energy-OPLS-2005>
4.17242193222046

> <r_mmod_Van_der_Waal_Energy-OPLS-2005>
107.655197143555

> <r_mmod_Electrostatic_Energy-OPLS-2005>
-359.713684082031

> <r_mmod_Solvation_Energy-OPLS-2005>
-226.786483764648

> <b_mmod_Minimization_Converged-OPLS-2005>
0

> <r_mmod_RMS_Derivative-OPLS-2005>
7.14543485641479

$$$$
8
                    3D
 Structure written by MMmdl.
156164  0  0  1  0            999 V2000
  -30.5764  -14.8220   20.5359 C   0  0  0  0  0  0
  -30.4497  -12.5250   19.4724 C   0  0  0  0  0  0
  -29.5155  -12.5475   18.2404 C   0  0  0  0  0  0
  -28.0443  -12.3470   18.6549 C   0  0  0  0  0  0
  -27.6483  -13.2330   19.8653 C   0  0  2  0  0  0
  -28.6969  -13.1343   20.9949 C   0  0  0  0  0  0
  -25.2504  -13.8168   20.5660 C   0  0  0  0  0  0
  -24.1805  -13.0419   20.9198 C   0  0  0  0  0  0
  -24.6408  -11.6902   20.8752 C   0  0  0  0  0  0
  -23.9079  -10.4283   21.0407 C   0  0  0  0  0  0
  -24.3624   -9.4198   21.9185 C   0  0  0  0  0  0
  -23.6293   -8.2238   22.0755 C   0  0  0  0  0  0
  -22.4276   -8.0279   21.3544 C   0  0  0  0  0  0
  -21.9916   -9.0254   20.4646 C   0  0  0  0  0  0
  -22.7250  -10.2128   20.3055 C   0  0  0  0  0  0
  -21.6852   -6.0736   22.5279 C   0  0  0  0  0  0
  -21.4012   -6.5639   23.8212 C   0  0  0  0  0  0
  -21.3658   -5.6792   24.9173 C   0  0  0  0  0  0
  -21.6045   -4.3055   24.7225 C   0  0  0  0  0  0
  -21.8819   -3.8146   23.4345 C   0  0  0  0  0  0
  -21.9191   -4.6964   22.3402 C   0  0  0  0  0  0
  -22.7825  -13.5204   21.1853 C   0  0  0  0  0  0
  -22.1660   -4.2149   21.0980 F   0  0  0  0  0  0
  -21.5628   -3.4539   25.7737 F   0  0  0  0  0  0
  -29.9861  -13.5663   20.4292 N   0  0  0  0  0  0
  -26.2971  -12.9395   20.3343 N   0  0  0  0  0  0
  -25.9351  -11.6535   20.5790 N   0  0  0  0  0  0
  -22.0475  -12.8199   22.0417 N   0  0  0  0  0  0
  -25.4130  -15.1875   20.3965 N   0  0  0  0  0  0
  -31.6947  -14.9714   20.0301 O   0  0  0  0  0  0
  -21.6637   -6.8879   21.4241 O   0  0  0  0  0  0
  -22.3507  -14.5509   20.6698 O   0  0  0  0  0  0
  -24.6377  -31.8486   23.1938 C   0  0  0  0  0  0
  -25.9175  -32.4717   23.8300 C   0  0  1  0  0  0
  -27.2229  -27.1986   20.1352 C   0  0  0  0  0  0
  -25.5945  -33.8523   24.2215 N   0  0  0  0  0  0
  -23.4381  -30.4702   21.5375 C   0  0  2  0  0  0
  -24.8881  -28.9100   20.1079 C   0  0  0  0  0  0
  -22.7538  -29.4567   22.4876 C   0  0  0  0  0  0
  -18.0299  -28.1397   22.8480 C   0  0  0  0  0  0
  -24.1489  -36.7265   23.2642 C   0  0  0  0  0  0
  -25.9899  -30.7410   21.3856 C   0  0  0  0  0  0
  -26.0620  -29.3587   20.7259 C   0  0  0  0  0  0
  -27.2287  -28.5161   20.7292 C   0  0  0  0  0  0
  -26.0258  -26.8430   19.4710 C   0  0  0  0  0  0
  -24.8794  -27.6627   19.4676 C   0  0  0  0  0  0
  -23.6613  -29.8037   20.1544 C   0  0  0  0  0  0
  -25.4116  -36.3040   24.0321 C   0  0  1  0  0  0
  -20.5908  -28.3713   23.1253 C   0  0  2  0  0  0
  -20.6788  -26.9422   22.5408 C   0  0  0  0  0  0
  -19.5762  -26.6382   21.5216 C   0  0  0  0  0  0
  -18.1940  -26.7936   22.1621 C   0  0  0  0  0  0
  -19.1554  -28.8871   23.2862 C   0  0  0  0  0  0
  -18.9474  -30.1471   23.8884 C   0  0  0  0  0  0
  -17.6474  -30.6596   24.0560 C   0  0  0  0  0  0
  -25.9064  -34.9419   23.5071 C   0  0  0  0  0  0
  -16.5364  -29.9088   23.6340 C   0  0  0  0  0  0
  -16.7283  -28.6508   23.0357 C   0  0  0  0  0  0
  -26.4518  -31.6574   25.0725 C   0  0  0  0  0  0
  -25.3716  -31.3761   26.1430 C   0  0  0  0  0  0
  -27.0388  -30.2976   24.6284 C   0  0  0  0  0  0
  -27.6051  -32.4338   25.7508 C   0  0  0  0  0  0
  -27.5574  -37.1784   24.8461 C   0  0  0  0  0  0
  -21.4235  -29.3049   22.3630 N   0  0  0  0  0  0
  -26.4276  -37.3753   23.9416 N   0  0  0  0  0  0
  -24.7078  -31.0396   22.0944 N   0  0  0  0  0  0
  -23.4207  -28.8108   23.3001 O   0  0  0  0  0  0
  -28.2932  -26.2511   20.2190 O   0  0  0  0  0  0
  -26.5642  -34.8909   22.4644 O   0  0  0  0  0  0
  -23.5510  -32.1329   23.7197 O   0  0  0  0  0  0
  -28.2596  -19.7243   21.1305 C   0  0  0  0  0  0
  -30.4361  -18.4755   20.0697 C   0  0  0  0  0  0
  -28.4921  -18.3348   21.4096 C   0  0  0  0  0  0
  -29.6152  -17.6149   20.8700 C   0  0  0  0  0  0
  -29.1144  -20.5025   20.3139 C   0  0  0  0  0  0
  -27.4949  -17.6515   22.3330 C   0  0  0  0  0  0
  -30.7606  -16.1952   22.6627 C   0  0  0  0  0  0
  -28.6659  -21.9719   19.7743 C   0  0  0  0  0  0
  -28.9556  -23.4653   20.4159 C   0  0  0  0  0  0
  -28.0612  -24.7667   19.9126 C   0  0  0  0  0  0
  -29.9405  -16.0835   21.3625 C   0  0  2  0  0  0
  -30.1961  -19.8244   19.7999 N   0  0  0  0  0  0
  -31.4823  -12.6836   19.1586 H   0  0  0  0  0  0
  -30.4389  -11.5412   19.9444 H   0  0  0  0  0  0
  -29.8122  -11.7783   17.5263 H   0  0  0  0  0  0
  -29.6205  -13.5026   17.7234 H   0  0  0  0  0  0
  -27.9139  -11.2950   18.9117 H   0  0  0  0  0  0
  -27.3818  -12.5381   17.8102 H   0  0  0  0  0  0
  -27.6502  -14.2629   19.5074 H   0  0  0  0  0  0
  -28.7655  -12.1073   21.3569 H   0  0  0  0  0  0
  -28.3997  -13.7156   21.8654 H   0  0  0  0  0  0
  -25.2771   -9.5671   22.4758 H   0  0  0  0  0  0
  -23.9997   -7.4631   22.7477 H   0  0  0  0  0  0
  -21.0846   -8.8774   19.8954 H   0  0  0  0  0  0
  -22.3712  -10.9666   19.6160 H   0  0  0  0  0  0
  -21.2006   -7.6148   23.9714 H   0  0  0  0  0  0
  -21.1480   -6.0524   25.9076 H   0  0  0  0  0  0
  -22.0600   -2.7609   23.2846 H   0  0  0  0  0  0
  -22.4098  -11.9866   22.4811 H   0  0  0  0  0  0
  -21.1091  -13.1219   22.2624 H   0  0  0  0  0  0
  -24.6356  -15.8326   20.4856 H   0  0  0  0  0  0
  -26.2513  -15.6238   20.0352 H   0  0  0  0  0  0
  -26.7239  -32.5343   23.1030 H   0  0  0  0  0  0
  -25.0094  -33.9649   25.0361 H   0  0  0  0  0  0
  -22.7382  -31.2951   21.3875 H   0  0  0  0  0  0
  -23.3755  -35.9595   23.3286 H   0  0  0  0  0  0
  -24.3577  -36.8907   22.2059 H   0  0  0  0  0  0
  -23.7239  -37.6457   23.6685 H   0  0  0  0  0  0
  -26.1399  -31.4999   20.6164 H   0  0  0  0  0  0
  -26.8624  -30.7875   22.0256 H   0  0  0  0  0  0
  -28.1211  -28.8516   21.2389 H   0  0  0  0  0  0
  -25.9395  -25.8966   18.9591 H   0  0  0  0  0  0
  -23.9846  -27.3168   18.9686 H   0  0  0  0  0  0
  -23.7917  -30.5802   19.3998 H   0  0  0  0  0  0
  -22.7786  -29.2415   19.8450 H   0  0  0  0  0  0
  -25.1298  -36.1867   25.0813 H   0  0  0  0  0  0
  -21.0000  -28.3299   24.1375 H   0  0  0  0  0  0
  -20.5694  -26.2324   23.3620 H   0  0  0  0  0  0
  -21.6652  -26.7443   22.1198 H   0  0  0  0  0  0
  -19.6928  -25.6290   21.1258 H   0  0  0  0  0  0
  -19.6705  -27.3186   20.6743 H   0  0  0  0  0  0
  -17.4212  -26.6689   21.4021 H   0  0  0  0  0  0
  -18.0333  -26.0081   22.9018 H   0  0  0  0  0  0
  -19.7952  -30.7289   24.2246 H   0  0  0  0  0  0
  -17.5028  -31.6276   24.5160 H   0  0  0  0  0  0
  -15.5365  -30.2987   23.7678 H   0  0  0  0  0  0
  -15.8681  -28.0823   22.7083 H   0  0  0  0  0  0
  -24.5906  -30.7089   25.7761 H   0  0  0  0  0  0
  -24.8896  -32.2949   26.4786 H   0  0  0  0  0  0
  -25.8008  -30.8989   27.0247 H   0  0  0  0  0  0
  -26.3006  -29.6701   24.1276 H   0  0  0  0  0  0
  -27.3999  -29.7266   25.4849 H   0  0  0  0  0  0
  -27.8909  -30.4222   23.9599 H   0  0  0  0  0  0
  -27.2639  -33.3656   26.2029 H   0  0  0  0  0  0
  -28.3891  -32.6865   25.0358 H   0  0  0  0  0  0
  -28.0684  -31.8501   26.5469 H   0  0  0  0  0  0
  -28.2568  -38.0104   24.7522 H   0  0  0  0  0  0
  -28.1089  -36.2630   24.6256 H   0  0  0  0  0  0
  -27.2298  -37.1389   25.8866 H   0  0  0  0  0  0
  -20.9432  -29.8762   21.6817 H   0  0  0  0  0  0
  -26.0142  -38.2818   24.1434 H   0  0  0  0  0  0
  -27.3735  -20.2019   21.5280 H   0  0  0  0  0  0
  -31.3463  -18.0799   19.6436 H   0  0  0  0  0  0
  -26.7053  -18.3322   22.6512 H   0  0  0  0  0  0
  -27.9819  -17.2797   23.2337 H   0  0  0  0  0  0
  -27.0129  -16.8158   21.8306 H   0  0  0  0  0  0
  -30.2356  -16.7709   23.4239 H   0  0  0  0  0  0
  -31.7163  -16.6876   22.4803 H   0  0  0  0  0  0
  -30.9733  -15.2169   23.0966 H   0  0  0  0  0  0
  -27.5815  -21.9010   19.6893 H   0  0  0  0  0  0
  -29.0008  -22.0155   18.7379 H   0  0  0  0  0  0
  -30.0118  -23.6894   20.2665 H   0  0  0  0  0  0
  -28.8277  -23.3882   21.4954 H   0  0  0  0  0  0
  -27.0544  -24.5316   20.2576 H   0  0  0  0  0  0
  -28.0145  -24.7055   18.8249 H   0  0  0  0  0  0
  -28.9694  -15.7058   21.6516 H   0  0  0  0  0  0
  1 25  1  0  0  0
  1 30  2  0  0  0
  1 81  1  0  0  0
  2  3  1  0  0  0
  2 25  1  0  0  0
  2 83  1  0  0  0
  2 84  1  0  0  0
  3  4  1  0  0  0
  3 85  1  0  0  0
  3 86  1  0  0  0
  4  5  1  0  0  0
  4 87  1  0  0  0
  4 88  1  0  0  0
  5  6  1  0  0  0
  5 26  1  0  0  0
  5 89  1  0  0  0
  6 25  1  0  0  0
  6 90  1  0  0  0
  6 91  1  0  0  0
  7  8  2  0  0  0
  7 26  1  0  0  0
  7 29  1  0  0  0
  8  9  1  0  0  0
  8 22  1  0  0  0
  9 10  1  0  0  0
  9 27  2  0  0  0
 10 11  2  0  0  0
 10 15  1  0  0  0
 11 12  1  0  0  0
 11 92  1  0  0  0
 12 13  2  0  0  0
 12 93  1  0  0  0
 13 14  1  0  0  0
 13 31  1  0  0  0
 14 15  2  0  0  0
 14 94  1  0  0  0
 15 95  1  0  0  0
 16 17  2  0  0  0
 16 21  1  0  0  0
 16 31  1  0  0  0
 17 18  1  0  0  0
 17 96  1  0  0  0
 18 19  2  0  0  0
 18 97  1  0  0  0
 19 20  1  0  0  0
 19 24  1  0  0  0
 20 21  2  0  0  0
 20 98  1  0  0  0
 21 23  1  0  0  0
 22 28  1  0  0  0
 22 32  2  0  0  0
 26 27  1  0  0  0
 28 99  1  0  0  0
 28100  1  0  0  0
 29101  1  0  0  0
 29102  1  0  0  0
 33 34  1  0  0  0
 33 66  1  0  0  0
 33 70  2  0  0  0
 34 36  1  0  0  0
 34 59  1  0  0  0
 34103  1  0  0  0
 35 44  2  0  0  0
 35 45  1  0  0  0
 35 68  1  0  0  0
 36 56  1  0  0  0
 36104  1  0  0  0
 37 39  1  0  0  0
 37 47  1  0  0  0
 37 66  1  0  0  0
 37105  1  0  0  0
 38 43  2  0  0  0
 38 46  1  0  0  0
 38 47  1  0  0  0
 39 64  1  0  0  0
 39 67  2  0  0  0
 40 52  1  0  0  0
 40 53  2  0  0  0
 40 58  1  0  0  0
 41106  1  0  0  0
 41107  1  0  0  0
 41108  1  0  0  0
 41 48  1  0  0  0
 42 43  1  0  0  0
 42 66  1  0  0  0
 42109  1  0  0  0
 42110  1  0  0  0
 43 44  1  0  0  0
 44111  1  0  0  0
 45 46  2  0  0  0
 45112  1  0  0  0
 46113  1  0  0  0
 47114  1  0  0  0
 47115  1  0  0  0
 48 56  1  0  0  0
 48 65  1  0  0  0
 48116  1  0  0  0
 49 50  1  0  0  0
 49 53  1  0  0  0
 49 64  1  0  0  0
 49117  1  0  0  0
 50 51  1  0  0  0
 50118  1  0  0  0
 50119  1  0  0  0
 51 52  1  0  0  0
 51120  1  0  0  0
 51121  1  0  0  0
 52122  1  0  0  0
 52123  1  0  0  0
 53 54  1  0  0  0
 54 55  2  0  0  0
 54124  1  0  0  0
 55 57  1  0  0  0
 55125  1  0  0  0
 56 69  2  0  0  0
 57 58  2  0  0  0
 57126  1  0  0  0
 58127  1  0  0  0
 59 60  1  0  0  0
 59 61  1  0  0  0
 59 62  1  0  0  0
 60128  1  0  0  0
 60129  1  0  0  0
 60130  1  0  0  0
 61131  1  0  0  0
 61132  1  0  0  0
 61133  1  0  0  0
 62134  1  0  0  0
 62135  1  0  0  0
 62136  1  0  0  0
 63 65  1  0  0  0
 63137  1  0  0  0
 63138  1  0  0  0
 63139  1  0  0  0
 64140  1  0  0  0
 65141  1  0  0  0
 68 80  1  0  0  0
 71 73  2  0  0  0
 71 75  1  0  0  0
 71142  1  0  0  0
 72 74  2  0  0  0
 72 82  1  0  0  0
 72143  1  0  0  0
 73 74  1  0  0  0
 73 76  1  0  0  0
 74 81  1  0  0  0
 75 78  1  0  0  0
 75 82  2  0  0  0
 76144  1  0  0  0
 76145  1  0  0  0
 76146  1  0  0  0
 77147  1  0  0  0
 77148  1  0  0  0
 77149  1  0  0  0
 77 81  1  0  0  0
 78 79  1  0  0  0
 78150  1  0  0  0
 78151  1  0  0  0
 79 80  1  0  0  0
 79152  1  0  0  0
 79153  1  0  0  0
 80154  1  0  0  0
 80155  1  0  0  0
 81156  1  0  0  0
M  ISO  4   1 100  68 101  80 101  81 100
M  END
> <chiral flag>
0

> <version>
0

> <s_m_source_file>
/data/baiqing/PycharmProjects/Reinvent-master-3.2/result/LINK_invent/BTK/process_docking_weight1_custom_sum_contain_oxygen_bond_distance_aromatic_linkinvent_7_9_3/rearranged_h_0081.sdf

> <i_m_source_file_index>
9

> <r_mmod_Potential_Energy-OPLS-2005>
195.030792236328

> <r_mmod_Stretch_Energy-OPLS-2005>
186.525573730469

> <r_mmod_Bend_Energy-OPLS-2005>
249.568710327148

> <r_mmod_Torsional_Energy-OPLS-2005>
173.248992919922

> <r_mmod_Improper_Torsional_Energy-OPLS-2005>
5.09184312820435

> <r_mmod_Van_der_Waal_Energy-OPLS-2005>
141.560729980469

> <r_mmod_Electrostatic_Energy-OPLS-2005>
-473.936096191406

> <r_mmod_Solvation_Energy-OPLS-2005>
-210.404022216797

> <b_mmod_Minimization_Converged-OPLS-2005>
0

> <r_mmod_RMS_Derivative-OPLS-2005>
0.599330008029938

$$$$
9
                    3D
 Structure written by MMmdl.
157165  0  0  1  0            999 V2000
  -30.6209  -14.7074   20.4665 C   0  0  0  0  0  0
  -30.4293  -12.4314   19.4681 C   0  0  0  0  0  0
  -29.5072  -12.5011   18.2317 C   0  0  0  0  0  0
  -28.0324  -12.3315   18.6450 C   0  0  0  0  0  0
  -27.6425  -13.2274   19.8514 C   0  0  2  0  0  0
  -28.6862  -13.1471   20.9861 C   0  0  0  0  0  0
  -25.2515  -13.8192   20.5694 C   0  0  0  0  0  0
  -24.1804  -13.0441   20.9208 C   0  0  0  0  0  0
  -24.6386  -11.6917   20.8745 C   0  0  0  0  0  0
  -23.9062  -10.4296   21.0405 C   0  0  0  0  0  0
  -24.3616   -9.4213   21.9182 C   0  0  0  0  0  0
  -23.6295   -8.2246   22.0751 C   0  0  0  0  0  0
  -22.4276   -8.0281   21.3544 C   0  0  0  0  0  0
  -21.9911   -9.0253   20.4646 C   0  0  0  0  0  0
  -22.7236  -10.2135   20.3055 C   0  0  0  0  0  0
  -21.6854   -6.0736   22.5280 C   0  0  0  0  0  0
  -21.4015   -6.5639   23.8214 C   0  0  0  0  0  0
  -21.3662   -5.6792   24.9176 C   0  0  0  0  0  0
  -21.6043   -4.3055   24.7225 C   0  0  0  0  0  0
  -21.8819   -3.8147   23.4346 C   0  0  0  0  0  0
  -21.9195   -4.6964   22.3403 C   0  0  0  0  0  0
  -22.7827  -13.5225   21.1871 C   0  0  0  0  0  0
  -22.1662   -4.2150   21.0980 F   0  0  0  0  0  0
  -21.5630   -3.4538   25.7738 F   0  0  0  0  0  0
  -29.9898  -13.4885   20.4053 N   0  0  0  0  0  0
  -26.2936  -12.9391   20.3279 N   0  0  0  0  0  0
  -25.9313  -11.6537   20.5747 N   0  0  0  0  0  0
  -22.0472  -12.8216   22.0425 N   0  0  0  0  0  0
  -25.4205  -15.1916   20.4109 N   0  0  0  0  0  0
  -31.8089  -14.8067   20.1486 O   0  0  0  0  0  0
  -21.6642   -6.8877   21.4241 O   0  0  0  0  0  0
  -22.3513  -14.5531   20.6718 O   0  0  0  0  0  0
  -24.6286  -31.8559   23.1974 C   0  0  0  0  0  0
  -25.9119  -32.4756   23.8318 C   0  0  1  0  0  0
  -27.2227  -27.2840   20.1315 C   0  0  0  0  0  0
  -25.5923  -33.8558   24.2248 N   0  0  0  0  0  0
  -23.4235  -30.4767   21.5406 C   0  0  2  0  0  0
  -24.8695  -28.9195   20.1119 C   0  0  0  0  0  0
  -22.7482  -29.4604   22.4922 C   0  0  0  0  0  0
  -18.0287  -28.1387   22.8484 C   0  0  0  0  0  0
  -24.1490  -36.7287   23.2640 C   0  0  0  0  0  0
  -25.9653  -30.7771   21.3704 C   0  0  0  0  0  0
  -26.0383  -29.4001   20.7147 C   0  0  0  0  0  0
  -27.2178  -28.5956   20.7076 C   0  0  0  0  0  0
  -26.0306  -26.8534   19.5116 C   0  0  0  0  0  0
  -24.8694  -27.6543   19.4996 C   0  0  0  0  0  0
  -23.6394  -29.8052   20.1577 C   0  0  0  0  0  0
  -25.4116  -36.3070   24.0325 C   0  0  1  0  0  0
  -20.5887  -28.3693   23.1280 C   0  0  2  0  0  0
  -20.6776  -26.9415   22.5411 C   0  0  0  0  0  0
  -19.5753  -26.6385   21.5212 C   0  0  0  0  0  0
  -18.1932  -26.7929   22.1623 C   0  0  0  0  0  0
  -19.1539  -28.8857   23.2877 C   0  0  0  0  0  0
  -18.9462  -30.1458   23.8894 C   0  0  0  0  0  0
  -17.6462  -30.6588   24.0564 C   0  0  0  0  0  0
  -25.9055  -34.9441   23.5091 C   0  0  0  0  0  0
  -16.5354  -29.9087   23.6331 C   0  0  0  0  0  0
  -16.7274  -28.6505   23.0351 C   0  0  0  0  0  0
  -26.4496  -31.6580   25.0704 C   0  0  0  0  0  0
  -25.3724  -31.3727   26.1429 C   0  0  0  0  0  0
  -27.0347  -30.3002   24.6177 C   0  0  0  0  0  0
  -27.6048  -32.4323   25.7480 C   0  0  0  0  0  0
  -27.5578  -37.1799   24.8465 C   0  0  0  0  0  0
  -21.4193  -29.3040   22.3668 N   0  0  0  0  0  0
  -26.4292  -37.3768   23.9405 N   0  0  0  0  0  0
  -24.6915  -31.0544   22.0932 N   0  0  0  0  0  0
  -23.4194  -28.8155   23.3021 O   0  0  0  0  0  0
  -28.3532  -26.4492   20.1765 O   0  0  0  0  0  0
  -26.5632  -34.8918   22.4663 O   0  0  0  0  0  0
  -23.5443  -32.1370   23.7290 O   0  0  0  0  0  0
  -30.6940  -25.0830   20.6645 C   0  0  0  0  0  0
  -29.6094  -24.1932   20.4556 C   0  0  0  0  0  0
  -31.9716  -24.5897   20.9530 C   0  0  0  0  0  0
  -29.9499  -22.7585   20.5637 C   0  0  0  0  0  0
  -33.1341  -25.5292   21.1904 C   0  0  0  0  0  0
  -28.2574  -24.9497   20.1536 C   0  0  0  0  0  0
  -29.0846  -21.4276   20.4382 C   0  0  0  0  0  0
  -29.9076  -20.0109   20.5161 C   0  0  0  0  0  0
  -29.2774  -18.5246   20.5166 C   0  0  0  0  0  0
  -30.3242  -17.2921   20.5977 C   0  0  0  0  0  0
  -32.2245  -23.2739   21.0425 N   0  0  0  0  0  0
  -31.2348  -22.4061   20.8522 N   0  0  0  0  0  0
  -29.8586  -15.8431   20.6755 N   0  0  0  0  0  0
  -31.4714  -12.5511   19.1666 H   0  0  0  0  0  0
  -30.3666  -11.4516   19.9442 H   0  0  0  0  0  0
  -29.7841  -11.7318   17.5098 H   0  0  0  0  0  0
  -29.6401  -13.4588   17.7261 H   0  0  0  0  0  0
  -27.8840  -11.2820   18.9026 H   0  0  0  0  0  0
  -27.3761  -12.5313   17.7973 H   0  0  0  0  0  0
  -27.6417  -14.2514   19.4776 H   0  0  0  0  0  0
  -28.7132  -12.1469   21.4205 H   0  0  0  0  0  0
  -28.4279  -13.8274   21.7993 H   0  0  0  0  0  0
  -25.2758   -9.5695   22.4758 H   0  0  0  0  0  0
  -24.0010   -7.4637   22.7466 H   0  0  0  0  0  0
  -21.0845   -8.8767   19.8949 H   0  0  0  0  0  0
  -22.3688  -10.9673   19.6167 H   0  0  0  0  0  0
  -21.2002   -7.6147   23.9717 H   0  0  0  0  0  0
  -21.1485   -6.0521   25.9079 H   0  0  0  0  0  0
  -22.0596   -2.7609   23.2845 H   0  0  0  0  0  0
  -22.4090  -11.9882   22.4819 H   0  0  0  0  0  0
  -21.1086  -13.1236   22.2623 H   0  0  0  0  0  0
  -24.6504  -15.8428   20.5187 H   0  0  0  0  0  0
  -26.2637  -15.6330   20.0667 H   0  0  0  0  0  0
  -26.7184  -32.5412   23.1059 H   0  0  0  0  0  0
  -25.0060  -33.9695   25.0386 H   0  0  0  0  0  0
  -22.7189  -31.2979   21.3935 H   0  0  0  0  0  0
  -23.3751  -35.9621   23.3303 H   0  0  0  0  0  0
  -24.3578  -36.8911   22.2055 H   0  0  0  0  0  0
  -23.7248  -37.6488   23.6667 H   0  0  0  0  0  0
  -26.0989  -31.5379   20.6000 H   0  0  0  0  0  0
  -26.8448  -30.8275   22.0008 H   0  0  0  0  0  0
  -28.1174  -28.9617   21.1821 H   0  0  0  0  0  0
  -25.9803  -25.8833   19.0395 H   0  0  0  0  0  0
  -23.9725  -27.2811   19.0245 H   0  0  0  0  0  0
  -23.7614  -30.5789   19.3987 H   0  0  0  0  0  0
  -22.7582  -29.2361   19.8560 H   0  0  0  0  0  0
  -25.1301  -36.1915   25.0818 H   0  0  0  0  0  0
  -20.9979  -28.3271   24.1400 H   0  0  0  0  0  0
  -20.5677  -26.2304   23.3612 H   0  0  0  0  0  0
  -21.6645  -26.7442   22.1206 H   0  0  0  0  0  0
  -19.6917  -25.6295   21.1244 H   0  0  0  0  0  0
  -19.6693  -27.3194   20.6742 H   0  0  0  0  0  0
  -17.4202  -26.6673   21.4025 H   0  0  0  0  0  0
  -18.0335  -26.0072   22.9022 H   0  0  0  0  0  0
  -19.7940  -30.7274   24.2263 H   0  0  0  0  0  0
  -17.5018  -31.6268   24.5166 H   0  0  0  0  0  0
  -15.5354  -30.2990   23.7657 H   0  0  0  0  0  0
  -15.8673  -28.0826   22.7065 H   0  0  0  0  0  0
  -24.5897  -30.7080   25.7756 H   0  0  0  0  0  0
  -24.8921  -32.2898   26.4849 H   0  0  0  0  0  0
  -25.8045  -30.8905   27.0207 H   0  0  0  0  0  0
  -26.2926  -29.6743   24.1208 H   0  0  0  0  0  0
  -27.4046  -29.7269   25.4688 H   0  0  0  0  0  0
  -27.8792  -30.4284   23.9402 H   0  0  0  0  0  0
  -27.2649  -33.3622   26.2053 H   0  0  0  0  0  0
  -28.3861  -32.6888   25.0313 H   0  0  0  0  0  0
  -28.0714  -31.8455   26.5402 H   0  0  0  0  0  0
  -28.2597  -38.0094   24.7506 H   0  0  0  0  0  0
  -28.1074  -36.2625   24.6299 H   0  0  0  0  0  0
  -27.2296  -37.1456   25.8868 H   0  0  0  0  0  0
  -20.9376  -29.8755   21.6869 H   0  0  0  0  0  0
  -26.0171  -38.2843   24.1401 H   0  0  0  0  0  0
  -30.5761  -26.1546   20.6149 H   0  0  0  0  0  0
  -33.0750  -25.9514   22.1934 H   0  0  0  0  0  0
  -33.1151  -26.3490   20.4724 H   0  0  0  0  0  0
  -34.0901  -25.0147   21.0906 H   0  0  0  0  0  0
  -27.5144  -24.6266   20.8835 H   0  0  0  0  0  0
  -27.9065  -24.6256   19.1735 H   0  0  0  0  0  0
  -28.5320  -21.4750   19.4999 H   0  0  0  0  0  0
  -28.3368  -21.4484   21.2309 H   0  0  0  0  0  0
  -30.4990  -20.0440   21.4319 H   0  0  0  0  0  0
  -30.6372  -20.0299   19.7055 H   0  0  0  0  0  0
  -28.6692  -18.4061   19.6194 H   0  0  0  0  0  0
  -28.5846  -18.4487   21.3554 H   0  0  0  0  0  0
  -30.9652  -17.4539   21.4656 H   0  0  0  0  0  0
  -30.9898  -17.3698   19.7363 H   0  0  0  0  0  0
  -28.8844  -15.6877   20.8874 H   0  0  0  0  0  0
  1 25  1  0  0  0
  1 30  2  0  0  0
  1 83  1  0  0  0
  2  3  1  0  0  0
  2 25  1  0  0  0
  2 84  1  0  0  0
  2 85  1  0  0  0
  3  4  1  0  0  0
  3 86  1  0  0  0
  3 87  1  0  0  0
  4  5  1  0  0  0
  4 88  1  0  0  0
  4 89  1  0  0  0
  5  6  1  0  0  0
  5 26  1  0  0  0
  5 90  1  0  0  0
  6 25  1  0  0  0
  6 91  1  0  0  0
  6 92  1  0  0  0
  7  8  2  0  0  0
  7 26  1  0  0  0
  7 29  1  0  0  0
  8  9  1  0  0  0
  8 22  1  0  0  0
  9 10  1  0  0  0
  9 27  2  0  0  0
 10 11  2  0  0  0
 10 15  1  0  0  0
 11 12  1  0  0  0
 11 93  1  0  0  0
 12 13  2  0  0  0
 12 94  1  0  0  0
 13 14  1  0  0  0
 13 31  1  0  0  0
 14 15  2  0  0  0
 14 95  1  0  0  0
 15 96  1  0  0  0
 16 17  2  0  0  0
 16 21  1  0  0  0
 16 31  1  0  0  0
 17 18  1  0  0  0
 17 97  1  0  0  0
 18 19  2  0  0  0
 18 98  1  0  0  0
 19 20  1  0  0  0
 19 24  1  0  0  0
 20 21  2  0  0  0
 20 99  1  0  0  0
 21 23  1  0  0  0
 22 28  1  0  0  0
 22 32  2  0  0  0
 26 27  1  0  0  0
 28100  1  0  0  0
 28101  1  0  0  0
 29102  1  0  0  0
 29103  1  0  0  0
 33 34  1  0  0  0
 33 66  1  0  0  0
 33 70  2  0  0  0
 34 36  1  0  0  0
 34 59  1  0  0  0
 34104  1  0  0  0
 35 44  2  0  0  0
 35 45  1  0  0  0
 35 68  1  0  0  0
 36 56  1  0  0  0
 36105  1  0  0  0
 37 39  1  0  0  0
 37 47  1  0  0  0
 37 66  1  0  0  0
 37106  1  0  0  0
 38 43  2  0  0  0
 38 46  1  0  0  0
 38 47  1  0  0  0
 39 64  1  0  0  0
 39 67  2  0  0  0
 40 52  1  0  0  0
 40 53  2  0  0  0
 40 58  1  0  0  0
 41107  1  0  0  0
 41108  1  0  0  0
 41109  1  0  0  0
 41 48  1  0  0  0
 42 43  1  0  0  0
 42 66  1  0  0  0
 42110  1  0  0  0
 42111  1  0  0  0
 43 44  1  0  0  0
 44112  1  0  0  0
 45 46  2  0  0  0
 45113  1  0  0  0
 46114  1  0  0  0
 47115  1  0  0  0
 47116  1  0  0  0
 48 56  1  0  0  0
 48 65  1  0  0  0
 48117  1  0  0  0
 49 50  1  0  0  0
 49 53  1  0  0  0
 49 64  1  0  0  0
 49118  1  0  0  0
 50 51  1  0  0  0
 50119  1  0  0  0
 50120  1  0  0  0
 51 52  1  0  0  0
 51121  1  0  0  0
 51122  1  0  0  0
 52123  1  0  0  0
 52124  1  0  0  0
 53 54  1  0  0  0
 54 55  2  0  0  0
 54125  1  0  0  0
 55 57  1  0  0  0
 55126  1  0  0  0
 56 69  2  0  0  0
 57 58  2  0  0  0
 57127  1  0  0  0
 58128  1  0  0  0
 59 60  1  0  0  0
 59 61  1  0  0  0
 59 62  1  0  0  0
 60129  1  0  0  0
 60130  1  0  0  0
 60131  1  0  0  0
 61132  1  0  0  0
 61133  1  0  0  0
 61134  1  0  0  0
 62135  1  0  0  0
 62136  1  0  0  0
 62137  1  0  0  0
 63 65  1  0  0  0
 63138  1  0  0  0
 63139  1  0  0  0
 63140  1  0  0  0
 64141  1  0  0  0
 65142  1  0  0  0
 68 76  1  0  0  0
 71 72  2  0  0  0
 71 73  1  0  0  0
 71143  1  0  0  0
 72 74  1  0  0  0
 72 76  1  0  0  0
 73 75  1  0  0  0
 73 81  2  0  0  0
 74 77  1  0  0  0
 74 82  2  0  0  0
 75144  1  0  0  0
 75145  1  0  0  0
 75146  1  0  0  0
 76147  1  0  0  0
 76148  1  0  0  0
 77 78  1  0  0  0
 77149  1  0  0  0
 77150  1  0  0  0
 78 79  1  0  0  0
 78151  1  0  0  0
 78152  1  0  0  0
 79 80  1  0  0  0
 79153  1  0  0  0
 79154  1  0  0  0
 80 83  1  0  0  0
 80155  1  0  0  0
 80156  1  0  0  0
 81 82  1  0  0  0
 83157  1  0  0  0
M  ISO  4   1 100  68 101  76 101  83 100
M  END
> <chiral flag>
0

> <version>
0

> <s_m_source_file>
/data/baiqing/PycharmProjects/Reinvent-master-3.2/result/LINK_invent/BTK/process_docking_weight1_custom_sum_contain_oxygen_bond_distance_aromatic_linkinvent_7_9_3/rearranged_h_0081.sdf

> <i_m_source_file_index>
10

> <r_mmod_Potential_Energy-OPLS-2005>
135.234390258789

> <r_mmod_Stretch_Energy-OPLS-2005>
124.005104064941

> <r_mmod_Bend_Energy-OPLS-2005>
189.434356689453

> <r_mmod_Torsional_Energy-OPLS-2005>
213.289459228516

> <r_mmod_Improper_Torsional_Energy-OPLS-2005>
4.66977596282959

> <r_mmod_Van_der_Waal_Energy-OPLS-2005>
150.139739990234

> <r_mmod_Electrostatic_Energy-OPLS-2005>
-379.560699462891

> <r_mmod_Solvation_Energy-OPLS-2005>
-235.429992675781

> <b_mmod_Minimization_Converged-OPLS-2005>
0

> <r_mmod_RMS_Derivative-OPLS-2005>
0.39617258310318

$$$$
10
                    3D
 Structure written by MMmdl.
169177  0  0  1  0            999 V2000
  -30.6687  -14.5338   20.5198 C   0  0  0  0  0  0
  -30.4287  -12.3180   19.4578 C   0  0  0  0  0  0
  -29.5066  -12.4926   18.2319 C   0  0  0  0  0  0
  -28.0290  -12.3400   18.6428 C   0  0  0  0  0  0
  -27.6619  -13.2065   19.8769 C   0  0  2  0  0  0
  -28.7028  -13.0251   21.0080 C   0  0  0  0  0  0
  -25.2591  -13.8169   20.5683 C   0  0  0  0  0  0
  -24.1840  -13.0428   20.9177 C   0  0  0  0  0  0
  -24.6399  -11.6909   20.8755 C   0  0  0  0  0  0
  -23.9057  -10.4289   21.0429 C   0  0  0  0  0  0
  -24.3612   -9.4211   21.9205 C   0  0  0  0  0  0
  -23.6291   -8.2246   22.0760 C   0  0  0  0  0  0
  -22.4276   -8.0286   21.3545 C   0  0  0  0  0  0
  -21.9918   -9.0265   20.4648 C   0  0  0  0  0  0
  -22.7242  -10.2143   20.3068 C   0  0  0  0  0  0
  -21.6849   -6.0740   22.5285 C   0  0  0  0  0  0
  -21.4013   -6.5640   23.8223 C   0  0  0  0  0  0
  -21.3660   -5.6794   24.9181 C   0  0  0  0  0  0
  -21.6046   -4.3058   24.7234 C   0  0  0  0  0  0
  -21.8815   -3.8149   23.4357 C   0  0  0  0  0  0
  -21.9186   -4.6964   22.3407 C   0  0  0  0  0  0
  -22.7867  -13.5242   21.1850 C   0  0  0  0  0  0
  -22.1656   -4.2153   21.0989 F   0  0  0  0  0  0
  -21.5625   -3.4536   25.7743 F   0  0  0  0  0  0
  -30.0356  -13.3269   20.4570 N   0  0  0  0  0  0
  -26.3022  -12.9334   20.3382 N   0  0  0  0  0  0
  -25.9327  -11.6495   20.5807 N   0  0  0  0  0  0
  -22.0500  -12.8232   22.0408 N   0  0  0  0  0  0
  -25.4315  -15.1879   20.4049 N   0  0  0  0  0  0
  -31.7980  -14.7202   20.0593 O   0  0  0  0  0  0
  -21.6634   -6.8891   21.4250 O   0  0  0  0  0  0
  -22.3554  -14.5550   20.6712 O   0  0  0  0  0  0
  -24.6198  -31.8622   23.2150 C   0  0  0  0  0  0
  -25.9070  -32.4785   23.8435 C   0  0  1  0  0  0
  -27.2142  -27.3870   20.1094 C   0  0  0  0  0  0
  -25.5899  -33.8594   24.2330 N   0  0  0  0  0  0
  -23.4084  -30.4893   21.5586 C   0  0  2  0  0  0
  -24.8506  -28.9589   20.1158 C   0  0  0  0  0  0
  -22.7420  -29.4611   22.5016 C   0  0  0  0  0  0
  -18.0256  -28.1368   22.8479 C   0  0  0  0  0  0
  -24.1472  -36.7331   23.2633 C   0  0  0  0  0  0
  -25.9446  -30.8161   21.3776 C   0  0  0  0  0  0
  -26.0169  -29.4504   20.7184 C   0  0  0  0  0  0
  -27.2041  -28.6729   20.7093 C   0  0  0  0  0  0
  -26.0353  -26.9382   19.4707 C   0  0  0  0  0  0
  -24.8586  -27.7051   19.4857 C   0  0  0  0  0  0
  -23.6156  -29.8297   20.1702 C   0  0  0  0  0  0
  -25.4091  -36.3097   24.0308 C   0  0  1  0  0  0
  -20.5848  -28.3630   23.1328 C   0  0  2  0  0  0
  -20.6743  -26.9371   22.5413 C   0  0  0  0  0  0
  -19.5719  -26.6375   21.5198 C   0  0  0  0  0  0
  -18.1894  -26.7906   22.1608 C   0  0  0  0  0  0
  -19.1504  -28.8815   23.2890 C   0  0  0  0  0  0
  -18.9419  -30.1427   23.8878 C   0  0  0  0  0  0
  -17.6422  -30.6564   24.0543 C   0  0  0  0  0  0
  -25.9022  -34.9455   23.5115 C   0  0  0  0  0  0
  -16.5316  -29.9059   23.6323 C   0  0  0  0  0  0
  -16.7244  -28.6490   23.0339 C   0  0  0  0  0  0
  -26.4482  -31.6604   25.0782 C   0  0  0  0  0  0
  -25.3755  -31.3690   26.1535 C   0  0  0  0  0  0
  -27.0334  -30.3047   24.6194 C   0  0  0  0  0  0
  -27.6053  -32.4380   25.7518 C   0  0  0  0  0  0
  -27.5577  -37.1801   24.8437 C   0  0  0  0  0  0
  -21.4136  -29.2990   22.3742 N   0  0  0  0  0  0
  -26.4273  -37.3799   23.9393 N   0  0  0  0  0  0
  -24.6781  -31.0656   22.1096 N   0  0  0  0  0  0
  -23.4183  -28.8152   23.3063 O   0  0  0  0  0  0
  -28.3463  -26.5850   20.1456 O   0  0  0  0  0  0
  -26.5590  -34.8881   22.4689 O   0  0  0  0  0  0
  -23.5372  -32.1422   23.7477 O   0  0  0  0  0  0
  -30.0753  -20.4782   20.2771 C   0  0  0  0  0  0
  -28.3179  -21.2475   21.3809 C   0  0  0  0  0  0
  -29.2106  -21.6153   20.4141 C   0  0  0  0  0  0
  -29.6828  -19.4629   21.1231 C   0  0  0  0  0  0
  -30.2029  -22.9425   18.4685 C   0  0  0  0  0  0
  -26.4282  -19.9962   23.1602 C   0  0  0  0  0  0
  -28.5591  -19.2610   24.1952 C   0  0  0  0  0  0
  -27.3735  -17.8259   22.4411 C   0  0  0  0  0  0
  -30.3208  -18.0851   21.3463 C   0  0  0  0  0  0
  -29.3502  -24.2569   20.4882 C   0  0  0  0  0  0
  -29.9129  -16.9532   20.3525 C   0  0  0  0  0  0
  -28.1130  -25.2055   20.5466 C   0  0  0  0  0  0
  -29.1967  -22.9452   19.6308 C   0  0  2  0  0  0
  -27.7613  -19.2599   22.8730 C   0  0  0  0  0  0
  -28.5538  -19.9412   21.8145 N   0  0  0  0  0  0
  -29.8895  -15.5713   20.8986 N   0  0  0  0  0  0
  -31.4776  -12.4026   19.1682 H   0  0  0  0  0  0
  -30.3176  -11.3175   19.8789 H   0  0  0  0  0  0
  -29.7600  -11.7623   17.4621 H   0  0  0  0  0  0
  -29.6644  -13.4767   17.7859 H   0  0  0  0  0  0
  -27.8624  -11.2866   18.8734 H   0  0  0  0  0  0
  -27.3721  -12.5721   17.8037 H   0  0  0  0  0  0
  -27.6976  -14.2451   19.5477 H   0  0  0  0  0  0
  -28.6834  -12.0009   21.3831 H   0  0  0  0  0  0
  -28.4620  -13.6541   21.8664 H   0  0  0  0  0  0
  -25.2753   -9.5678   22.4783 H   0  0  0  0  0  0
  -23.9985   -7.4639   22.7478 H   0  0  0  0  0  0
  -21.0850   -8.8794   19.8957 H   0  0  0  0  0  0
  -22.3718  -10.9682   19.6172 H   0  0  0  0  0  0
  -21.2017   -7.6156   23.9729 H   0  0  0  0  0  0
  -21.1484   -6.0526   25.9088 H   0  0  0  0  0  0
  -22.0598   -2.7614   23.2855 H   0  0  0  0  0  0
  -22.4095  -11.9849   22.4731 H   0  0  0  0  0  0
  -21.1140  -13.1292   22.2655 H   0  0  0  0  0  0
  -24.6635  -15.8430   20.4982 H   0  0  0  0  0  0
  -26.2851  -15.6227   20.0803 H   0  0  0  0  0  0
  -26.7144  -32.5495   23.1199 H   0  0  0  0  0  0
  -24.9994  -33.9738   25.0445 H   0  0  0  0  0  0
  -22.7009  -31.3099   21.4247 H   0  0  0  0  0  0
  -23.3691  -35.9716   23.3310 H   0  0  0  0  0  0
  -24.3563  -36.8992   22.2054 H   0  0  0  0  0  0
  -23.7271  -37.6542   23.6679 H   0  0  0  0  0  0
  -26.0586  -31.5828   20.6104 H   0  0  0  0  0  0
  -26.8334  -30.8708   21.9948 H   0  0  0  0  0  0
  -28.1045  -29.0387   21.1849 H   0  0  0  0  0  0
  -26.0041  -25.9970   18.9401 H   0  0  0  0  0  0
  -23.9641  -27.3298   19.0056 H   0  0  0  0  0  0
  -23.7300  -30.6120   19.4197 H   0  0  0  0  0  0
  -22.7340  -29.2595   19.8706 H   0  0  0  0  0  0
  -25.1290  -36.1966   25.0801 H   0  0  0  0  0  0
  -20.9891  -28.3191   24.1468 H   0  0  0  0  0  0
  -20.5632  -26.2235   23.3599 H   0  0  0  0  0  0
  -21.6624  -26.7418   22.1224 H   0  0  0  0  0  0
  -19.6871  -25.6287   21.1231 H   0  0  0  0  0  0
  -19.6663  -27.3178   20.6725 H   0  0  0  0  0  0
  -17.4178  -26.6628   21.4002 H   0  0  0  0  0  0
  -18.0278  -26.0042   22.8993 H   0  0  0  0  0  0
  -19.7899  -30.7238   24.2248 H   0  0  0  0  0  0
  -17.4978  -31.6228   24.5169 H   0  0  0  0  0  0
  -15.5301  -30.2952   23.7664 H   0  0  0  0  0  0
  -15.8651  -28.0809   22.7067 H   0  0  0  0  0  0
  -24.5934  -30.7022   25.7879 H   0  0  0  0  0  0
  -24.8866  -32.2812   26.4978 H   0  0  0  0  0  0
  -25.8127  -30.8884   27.0299 H   0  0  0  0  0  0
  -26.2890  -29.6746   24.1296 H   0  0  0  0  0  0
  -27.4141  -29.7351   25.4684 H   0  0  0  0  0  0
  -27.8736  -30.4351   23.9375 H   0  0  0  0  0  0
  -27.2676  -33.3704   26.2064 H   0  0  0  0  0  0
  -28.3859  -32.6932   25.0343 H   0  0  0  0  0  0
  -28.0725  -31.8540   26.5441 H   0  0  0  0  0  0
  -28.2586  -38.0113   24.7552 H   0  0  0  0  0  0
  -28.1113  -36.2651   24.6240 H   0  0  0  0  0  0
  -27.2288  -37.1448   25.8839 H   0  0  0  0  0  0
  -20.9295  -29.8793   21.7026 H   0  0  0  0  0  0
  -26.0150  -38.2870   24.1440 H   0  0  0  0  0  0
  -30.9186  -20.4037   19.6021 H   0  0  0  0  0  0
  -27.5001  -21.8318   21.7792 H   0  0  0  0  0  0
  -30.0381  -22.0945   17.8026 H   0  0  0  0  0  0
  -31.2342  -22.8976   18.8247 H   0  0  0  0  0  0
  -30.0966  -23.8490   17.8687 H   0  0  0  0  0  0
  -25.8239  -19.4520   23.8866 H   0  0  0  0  0  0
  -25.8233  -20.1096   22.2590 H   0  0  0  0  0  0
  -26.5897  -20.9837   23.5903 H   0  0  0  0  0  0
  -28.0187  -18.7354   24.9823 H   0  0  0  0  0  0
  -28.7344  -20.2789   24.5442 H   0  0  0  0  0  0
  -29.5366  -18.7926   24.1122 H   0  0  0  0  0  0
  -26.4698  -17.4740   22.9397 H   0  0  0  0  0  0
  -28.1390  -17.0883   22.6763 H   0  0  0  0  0  0
  -27.1709  -17.7734   21.3724 H   0  0  0  0  0  0
  -30.1668  -17.7479   22.3659 H   0  0  0  0  0  0
  -31.4044  -18.2014   21.2811 H   0  0  0  0  0  0
  -29.6400  -23.9911   21.5056 H   0  0  0  0  0  0
  -30.1915  -24.8397   20.1120 H   0  0  0  0  0  0
  -30.5292  -17.0082   19.4534 H   0  0  0  0  0  0
  -28.8971  -17.1466   20.0051 H   0  0  0  0  0  0
  -27.7548  -25.2310   21.5777 H   0  0  0  0  0  0
  -27.3049  -24.7458   19.9843 H   0  0  0  0  0  0
  -28.2113  -22.9654   19.1621 H   0  0  0  0  0  0
  -29.0195  -15.2930   21.3263 H   0  0  0  0  0  0
  1 25  1  0  0  0
  1 30  2  0  0  0
  1 86  1  0  0  0
  2  3  1  0  0  0
  2 25  1  0  0  0
  2 87  1  0  0  0
  2 88  1  0  0  0
  3  4  1  0  0  0
  3 89  1  0  0  0
  3 90  1  0  0  0
  4  5  1  0  0  0
  4 91  1  0  0  0
  4 92  1  0  0  0
  5  6  1  0  0  0
  5 26  1  0  0  0
  5 93  1  0  0  0
  6 25  1  0  0  0
  6 94  1  0  0  0
  6 95  1  0  0  0
  7  8  2  0  0  0
  7 26  1  0  0  0
  7 29  1  0  0  0
  8  9  1  0  0  0
  8 22  1  0  0  0
  9 10  1  0  0  0
  9 27  2  0  0  0
 10 11  2  0  0  0
 10 15  1  0  0  0
 11 12  1  0  0  0
 11 96  1  0  0  0
 12 13  2  0  0  0
 12 97  1  0  0  0
 13 14  1  0  0  0
 13 31  1  0  0  0
 14 15  2  0  0  0
 14 98  1  0  0  0
 15 99  1  0  0  0
 16 17  2  0  0  0
 16 21  1  0  0  0
 16 31  1  0  0  0
 17 18  1  0  0  0
 17100  1  0  0  0
 18 19  2  0  0  0
 18101  1  0  0  0
 19 20  1  0  0  0
 19 24  1  0  0  0
 20 21  2  0  0  0
 20102  1  0  0  0
 21 23  1  0  0  0
 22 28  1  0  0  0
 22 32  2  0  0  0
 26 27  1  0  0  0
 28103  1  0  0  0
 28104  1  0  0  0
 29105  1  0  0  0
 29106  1  0  0  0
 33 34  1  0  0  0
 33 66  1  0  0  0
 33 70  2  0  0  0
 34 36  1  0  0  0
 34 59  1  0  0  0
 34107  1  0  0  0
 35 44  2  0  0  0
 35 45  1  0  0  0
 35 68  1  0  0  0
 36 56  1  0  0  0
 36108  1  0  0  0
 37 39  1  0  0  0
 37 47  1  0  0  0
 37 66  1  0  0  0
 37109  1  0  0  0
 38 43  2  0  0  0
 38 46  1  0  0  0
 38 47  1  0  0  0
 39 64  1  0  0  0
 39 67  2  0  0  0
 40 52  1  0  0  0
 40 53  2  0  0  0
 40 58  1  0  0  0
 41110  1  0  0  0
 41111  1  0  0  0
 41112  1  0  0  0
 41 48  1  0  0  0
 42 43  1  0  0  0
 42 66  1  0  0  0
 42113  1  0  0  0
 42114  1  0  0  0
 43 44  1  0  0  0
 44115  1  0  0  0
 45 46  2  0  0  0
 45116  1  0  0  0
 46117  1  0  0  0
 47118  1  0  0  0
 47119  1  0  0  0
 48 56  1  0  0  0
 48 65  1  0  0  0
 48120  1  0  0  0
 49 50  1  0  0  0
 49 53  1  0  0  0
 49 64  1  0  0  0
 49121  1  0  0  0
 50 51  1  0  0  0
 50122  1  0  0  0
 50123  1  0  0  0
 51 52  1  0  0  0
 51124  1  0  0  0
 51125  1  0  0  0
 52126  1  0  0  0
 52127  1  0  0  0
 53 54  1  0  0  0
 54 55  2  0  0  0
 54128  1  0  0  0
 55 57  1  0  0  0
 55129  1  0  0  0
 56 69  2  0  0  0
 57 58  2  0  0  0
 57130  1  0  0  0
 58131  1  0  0  0
 59 60  1  0  0  0
 59 61  1  0  0  0
 59 62  1  0  0  0
 60132  1  0  0  0
 60133  1  0  0  0
 60134  1  0  0  0
 61135  1  0  0  0
 61136  1  0  0  0
 61137  1  0  0  0
 62138  1  0  0  0
 62139  1  0  0  0
 62140  1  0  0  0
 63 65  1  0  0  0
 63141  1  0  0  0
 63142  1  0  0  0
 63143  1  0  0  0
 64144  1  0  0  0
 65145  1  0  0  0
 68 82  1  0  0  0
 71 73  1  0  0  0
 71 74  2  0  0  0
 71146  1  0  0  0
 72 73  2  0  0  0
 72 85  1  0  0  0
 72147  1  0  0  0
 73 83  1  0  0  0
 74 79  1  0  0  0
 74 85  1  0  0  0
 75148  1  0  0  0
 75149  1  0  0  0
 75150  1  0  0  0
 75 83  1  0  0  0
 76151  1  0  0  0
 76152  1  0  0  0
 76153  1  0  0  0
 76 84  1  0  0  0
 77 84  1  0  0  0
 77154  1  0  0  0
 77155  1  0  0  0
 77156  1  0  0  0
 78 84  1  0  0  0
 78157  1  0  0  0
 78158  1  0  0  0
 78159  1  0  0  0
 79 81  1  0  0  0
 79160  1  0  0  0
 79161  1  0  0  0
 80 82  1  0  0  0
 80 83  1  0  0  0
 80162  1  0  0  0
 80163  1  0  0  0
 81 86  1  0  0  0
 81164  1  0  0  0
 81165  1  0  0  0
 82166  1  0  0  0
 82167  1  0  0  0
 83168  1  0  0  0
 84 85  1  0  0  0
 86169  1  0  0  0
M  ISO  4   1 100  68 101  82 101  86 100
M  END
> <chiral flag>
0

> <version>
0

> <s_m_source_file>
/data/baiqing/PycharmProjects/Reinvent-master-3.2/result/LINK_invent/BTK/process_docking_weight1_custom_sum_contain_oxygen_bond_distance_aromatic_linkinvent_7_9_3/rearranged_h_0081.sdf

> <i_m_source_file_index>
11

> <r_mmod_Potential_Energy-OPLS-2005>
-3.80258560180664

> <r_mmod_Stretch_Energy-OPLS-2005>
52.2028923034668

> <r_mmod_Bend_Energy-OPLS-2005>
118.06746673584

> <r_mmod_Torsional_Energy-OPLS-2005>
300.600006103516

> <r_mmod_Improper_Torsional_Energy-OPLS-2005>
7.22117614746094

> <r_mmod_Van_der_Waal_Energy-OPLS-2005>
136.863891601562

> <r_mmod_Electrostatic_Energy-OPLS-2005>
-444.294860839844

> <r_mmod_Solvation_Energy-OPLS-2005>
-198.722412109375

> <b_mmod_Minimization_Converged-OPLS-2005>
0

> <r_mmod_RMS_Derivative-OPLS-2005>
3.42661476135254

$$$$
11
                    3D
 Structure written by MMmdl.
175183  0  0  1  0            999 V2000
  -30.7386  -14.4239   20.6330 C   0  0  0  0  0  0
  -30.4175  -12.3050   19.4080 C   0  0  0  0  0  0
  -29.4878  -12.5183   18.1980 C   0  0  0  0  0  0
  -28.0110  -12.3753   18.6124 C   0  0  0  0  0  0
  -27.6625  -13.2068   19.8758 C   0  0  2  0  0  0
  -28.7026  -12.9736   20.9939 C   0  0  0  0  0  0
  -25.2589  -13.8162   20.5671 C   0  0  0  0  0  0
  -24.1840  -13.0440   20.9167 C   0  0  0  0  0  0
  -24.6397  -11.6908   20.8727 C   0  0  0  0  0  0
  -23.9060  -10.4294   21.0401 C   0  0  0  0  0  0
  -24.3615   -9.4213   21.9182 C   0  0  0  0  0  0
  -23.6292   -8.2247   22.0756 C   0  0  0  0  0  0
  -22.4273   -8.0283   21.3547 C   0  0  0  0  0  0
  -21.9907   -9.0255   20.4645 C   0  0  0  0  0  0
  -22.7235  -10.2133   20.3053 C   0  0  0  0  0  0
  -21.6853   -6.0738   22.5283 C   0  0  0  0  0  0
  -21.4013   -6.5640   23.8218 C   0  0  0  0  0  0
  -21.3657   -5.6791   24.9175 C   0  0  0  0  0  0
  -21.6044   -4.3057   24.7223 C   0  0  0  0  0  0
  -21.8818   -3.8151   23.4346 C   0  0  0  0  0  0
  -21.9192   -4.6966   22.3404 C   0  0  0  0  0  0
  -22.7862  -13.5244   21.1833 C   0  0  0  0  0  0
  -22.1660   -4.2154   21.0980 F   0  0  0  0  0  0
  -21.5628   -3.4541   25.7737 F   0  0  0  0  0  0
  -30.0376  -13.2745   20.4474 N   0  0  0  0  0  0
  -26.3029  -12.9335   20.3358 N   0  0  0  0  0  0
  -25.9323  -11.6494   20.5755 N   0  0  0  0  0  0
  -22.0499  -12.8234   22.0383 N   0  0  0  0  0  0
  -25.4320  -15.1878   20.4093 N   0  0  0  0  0  0
  -31.8159  -14.6525   20.0769 O   0  0  0  0  0  0
  -21.6637   -6.8882   21.4247 O   0  0  0  0  0  0
  -22.3553  -14.5562   20.6693 O   0  0  0  0  0  0
  -24.6136  -31.8689   23.2099 C   0  0  0  0  0  0
  -25.9035  -32.4822   23.8392 C   0  0  1  0  0  0
  -27.2343  -27.4339   20.0878 C   0  0  0  0  0  0
  -25.5913  -33.8618   24.2333 N   0  0  0  0  0  0
  -23.3998  -30.4932   21.5493 C   0  0  2  0  0  0
  -24.8446  -28.9560   20.1144 C   0  0  0  0  0  0
  -22.7390  -29.4676   22.4981 C   0  0  0  0  0  0
  -18.0275  -28.1363   22.8499 C   0  0  0  0  0  0
  -24.1494  -36.7318   23.2640 C   0  0  0  0  0  0
  -25.9279  -30.8303   21.3635 C   0  0  0  0  0  0
  -26.0014  -29.4629   20.7159 C   0  0  0  0  0  0
  -27.1931  -28.7052   20.7076 C   0  0  0  0  0  0
  -26.0583  -26.9440   19.4759 C   0  0  0  0  0  0
  -24.8661  -27.6935   19.4981 C   0  0  0  0  0  0
  -23.6075  -29.8248   20.1637 C   0  0  0  0  0  0
  -25.4113  -36.3113   24.0340 C   0  0  1  0  0  0
  -20.5865  -28.3653   23.1317 C   0  0  2  0  0  0
  -20.6771  -26.9387   22.5413 C   0  0  0  0  0  0
  -19.5755  -26.6375   21.5207 C   0  0  0  0  0  0
  -18.1928  -26.7917   22.1611 C   0  0  0  0  0  0
  -19.1524  -28.8820   23.2918 C   0  0  0  0  0  0
  -18.9455  -30.1426   23.8930 C   0  0  0  0  0  0
  -17.6460  -30.6578   24.0560 C   0  0  0  0  0  0
  -25.9036  -34.9472   23.5128 C   0  0  0  0  0  0
  -16.5352  -29.9074   23.6324 C   0  0  0  0  0  0
  -16.7264  -28.6485   23.0358 C   0  0  0  0  0  0
  -26.4464  -31.6597   25.0718 C   0  0  0  0  0  0
  -25.3739  -31.3671   26.1472 C   0  0  0  0  0  0
  -27.0299  -30.3055   24.6061 C   0  0  0  0  0  0
  -27.6060  -32.4300   25.7472 C   0  0  0  0  0  0
  -27.5586  -37.1817   24.8466 C   0  0  0  0  0  0
  -21.4121  -29.3038   22.3728 N   0  0  0  0  0  0
  -26.4301  -37.3793   23.9402 N   0  0  0  0  0  0
  -24.6649  -31.0794   22.0994 N   0  0  0  0  0  0
  -23.4172  -28.8225   23.3023 O   0  0  0  0  0  0
  -28.4266  -26.7376   20.1161 O   0  0  0  0  0  0
  -26.5589  -34.8915   22.4683 O   0  0  0  0  0  0
  -23.5331  -32.1436   23.7503 O   0  0  0  0  0  0
  -29.3991  -19.8648   20.1845 C   0  0  0  0  0  0
  -29.6828  -18.7433   20.9316 C   0  0  0  0  0  0
  -27.8832  -19.7653   21.8019 C   0  0  0  0  0  0
  -29.0593  -24.0367   24.8859 C   0  0  0  0  0  0
  -32.1402  -18.4812   20.7889 C   0  0  0  0  0  0
  -26.6997  -19.9872   22.7096 C   0  0  0  0  0  0
  -27.7398  -23.3369   24.5465 C   0  0  0  0  0  0
  -26.6104  -21.3332   23.4669 C   0  0  0  0  0  0
  -27.9467  -21.9583   23.9032 C   0  0  0  0  0  0
  -28.5828  -22.9166   20.0766 C   0  0  0  0  0  0
  -27.8870  -24.2874   20.2755 C   0  0  0  0  0  0
  -27.6372  -21.6983   20.2254 C   0  0  0  0  0  0
  -30.8149  -16.5932   21.8606 C   0  0  0  0  0  0
  -28.5558  -25.4498   19.4984 C   0  0  0  0  0  0
  -30.8001  -17.7285   20.7878 C   0  0  1  0  0  0
  -28.3007  -20.4791   20.7372 N   0  0  0  0  0  0
  -28.7189  -18.7228   21.9090 N   0  3  0  0  0  0
  -30.1739  -15.3376   21.4401 N   0  0  0  0  0  0
  -31.4620  -12.4017   19.1049 H   0  0  0  0  0  0
  -30.3160  -11.2897   19.7934 H   0  0  0  0  0  0
  -29.7255  -11.8038   17.4094 H   0  0  0  0  0  0
  -29.6559  -13.5093   17.7731 H   0  0  0  0  0  0
  -27.8196  -11.3180   18.7993 H   0  0  0  0  0  0
  -27.3597  -12.6581   17.7846 H   0  0  0  0  0  0
  -27.7116  -14.2574   19.5898 H   0  0  0  0  0  0
  -28.6742  -11.9340   21.3227 H   0  0  0  0  0  0
  -28.4554  -13.5608   21.8787 H   0  0  0  0  0  0
  -25.2767   -9.5688   22.4751 H   0  0  0  0  0  0
  -24.0004   -7.4640   22.7480 H   0  0  0  0  0  0
  -21.0838   -8.8775   19.8951 H   0  0  0  0  0  0
  -22.3702  -10.9672   19.6154 H   0  0  0  0  0  0
  -21.2007   -7.6147   23.9722 H   0  0  0  0  0  0
  -21.1476   -6.0520   25.9077 H   0  0  0  0  0  0
  -22.0598   -2.7615   23.2845 H   0  0  0  0  0  0
  -22.4102  -11.9882   22.4762 H   0  0  0  0  0  0
  -21.1118  -13.1259   22.2587 H   0  0  0  0  0  0
  -24.6636  -15.8426   20.5072 H   0  0  0  0  0  0
  -26.2848  -15.6236   20.0816 H   0  0  0  0  0  0
  -26.7104  -32.5524   23.1152 H   0  0  0  0  0  0
  -25.0124  -33.9780   25.0519 H   0  0  0  0  0  0
  -22.6891  -31.3107   21.4094 H   0  0  0  0  0  0
  -23.3753  -35.9658   23.3312 H   0  0  0  0  0  0
  -24.3600  -36.8921   22.2056 H   0  0  0  0  0  0
  -23.7249  -37.6528   23.6644 H   0  0  0  0  0  0
  -26.0370  -31.5917   20.5895 H   0  0  0  0  0  0
  -26.8173  -30.8874   21.9789 H   0  0  0  0  0  0
  -28.0867  -29.0928   21.1768 H   0  0  0  0  0  0
  -26.0388  -25.9908   18.9724 H   0  0  0  0  0  0
  -23.9758  -27.2974   19.0296 H   0  0  0  0  0  0
  -23.7155  -30.5991   19.4034 H   0  0  0  0  0  0
  -22.7304  -29.2465   19.8686 H   0  0  0  0  0  0
  -25.1283  -36.1986   25.0835 H   0  0  0  0  0  0
  -20.9964  -28.3213   24.1435 H   0  0  0  0  0  0
  -20.5668  -26.2249   23.3592 H   0  0  0  0  0  0
  -21.6640  -26.7428   22.1211 H   0  0  0  0  0  0
  -19.6914  -25.6285   21.1240 H   0  0  0  0  0  0
  -19.6707  -27.3186   20.6743 H   0  0  0  0  0  0
  -17.4195  -26.6678   21.4008 H   0  0  0  0  0  0
  -18.0332  -26.0032   22.8979 H   0  0  0  0  0  0
  -19.7930  -30.7241   24.2312 H   0  0  0  0  0  0
  -17.5009  -31.6268   24.5141 H   0  0  0  0  0  0
  -15.5353  -30.2991   23.7629 H   0  0  0  0  0  0
  -15.8661  -28.0815   22.7072 H   0  0  0  0  0  0
  -24.5954  -30.6959   25.7816 H   0  0  0  0  0  0
  -24.8874  -32.2803   26.4916 H   0  0  0  0  0  0
  -25.8123  -30.8868   27.0234 H   0  0  0  0  0  0
  -26.2829  -29.6816   24.1141 H   0  0  0  0  0  0
  -27.4129  -29.7279   25.4487 H   0  0  0  0  0  0
  -27.8630  -30.4400   23.9156 H   0  0  0  0  0  0
  -27.2728  -33.3614   26.2054 H   0  0  0  0  0  0
  -28.3879  -32.6833   25.0300 H   0  0  0  0  0  0
  -28.0711  -31.8404   26.5380 H   0  0  0  0  0  0
  -28.2608  -38.0113   24.7515 H   0  0  0  0  0  0
  -28.1082  -36.2642   24.6295 H   0  0  0  0  0  0
  -27.2298  -37.1471   25.8870 H   0  0  0  0  0  0
  -20.9253  -29.8776   21.6982 H   0  0  0  0  0  0
  -26.0196  -38.2881   24.1382 H   0  0  0  0  0  0
  -29.8982  -20.2664   19.3134 H   0  0  0  0  0  0
  -28.8763  -25.0174   25.3270 H   0  0  0  0  0  0
  -29.6674  -24.1855   23.9924 H   0  0  0  0  0  0
  -29.6442  -23.4551   25.5993 H   0  0  0  0  0  0
  -32.1906  -19.2078   19.9777 H   0  0  0  0  0  0
  -32.9758  -17.7950   20.6520 H   0  0  0  0  0  0
  -32.2961  -19.0155   21.7264 H   0  0  0  0  0  0
  -26.7246  -19.1765   23.4382 H   0  0  0  0  0  0
  -25.8068  -19.8265   22.1049 H   0  0  0  0  0  0
  -27.1712  -23.9733   23.8667 H   0  0  0  0  0  0
  -27.1343  -23.2358   25.4486 H   0  0  0  0  0  0
  -25.9644  -21.1990   24.3354 H   0  0  0  0  0  0
  -26.0793  -22.0571   22.8507 H   0  0  0  0  0  0
  -28.4586  -21.2924   24.5994 H   0  0  0  0  0  0
  -28.6073  -22.0766   23.0444 H   0  0  0  0  0  0
  -29.4046  -22.8466   20.7912 H   0  0  0  0  0  0
  -29.0465  -22.8713   19.0906 H   0  0  0  0  0  0
  -27.8797  -24.5176   21.3419 H   0  0  0  0  0  0
  -26.8409  -24.2129   19.9819 H   0  0  0  0  0  0
  -27.1994  -21.4475   19.2591 H   0  0  0  0  0  0
  -26.7967  -21.9435   20.8636 H   0  0  0  0  0  0
  -30.4044  -16.9261   22.8132 H   0  0  0  0  0  0
  -31.8501  -16.3422   22.0994 H   0  0  0  0  0  0
  -28.2226  -25.4737   18.4597 H   0  0  0  0  0  0
  -29.6296  -25.2641   19.4497 H   0  0  0  0  0  0
  -30.6970  -17.2773   19.8002 H   0  0  0  0  0  0
  -28.6396  -18.0154   22.6295 H   0  0  0  0  0  0
  -29.2866  -15.0936   21.8544 H   0  0  0  0  0  0
  1 25  1  0  0  0
  1 30  2  0  0  0
  1 88  1  0  0  0
  2  3  1  0  0  0
  2 25  1  0  0  0
  2 89  1  0  0  0
  2 90  1  0  0  0
  3  4  1  0  0  0
  3 91  1  0  0  0
  3 92  1  0  0  0
  4  5  1  0  0  0
  4 93  1  0  0  0
  4 94  1  0  0  0
  5  6  1  0  0  0
  5 26  1  0  0  0
  5 95  1  0  0  0
  6 25  1  0  0  0
  6 96  1  0  0  0
  6 97  1  0  0  0
  7  8  2  0  0  0
  7 26  1  0  0  0
  7 29  1  0  0  0
  8  9  1  0  0  0
  8 22  1  0  0  0
  9 10  1  0  0  0
  9 27  2  0  0  0
 10 11  2  0  0  0
 10 15  1  0  0  0
 11 12  1  0  0  0
 11 98  1  0  0  0
 12 13  2  0  0  0
 12 99  1  0  0  0
 13 14  1  0  0  0
 13 31  1  0  0  0
 14 15  2  0  0  0
 14100  1  0  0  0
 15101  1  0  0  0
 16 17  2  0  0  0
 16 21  1  0  0  0
 16 31  1  0  0  0
 17 18  1  0  0  0
 17102  1  0  0  0
 18 19  2  0  0  0
 18103  1  0  0  0
 19 20  1  0  0  0
 19 24  1  0  0  0
 20 21  2  0  0  0
 20104  1  0  0  0
 21 23  1  0  0  0
 22 28  1  0  0  0
 22 32  2  0  0  0
 26 27  1  0  0  0
 28105  1  0  0  0
 28106  1  0  0  0
 29107  1  0  0  0
 29108  1  0  0  0
 33 34  1  0  0  0
 33 66  1  0  0  0
 33 70  2  0  0  0
 34 36  1  0  0  0
 34 59  1  0  0  0
 34109  1  0  0  0
 35 44  2  0  0  0
 35 45  1  0  0  0
 35 68  1  0  0  0
 36 56  1  0  0  0
 36110  1  0  0  0
 37 39  1  0  0  0
 37 47  1  0  0  0
 37 66  1  0  0  0
 37111  1  0  0  0
 38 43  2  0  0  0
 38 46  1  0  0  0
 38 47  1  0  0  0
 39 64  1  0  0  0
 39 67  2  0  0  0
 40 52  1  0  0  0
 40 53  2  0  0  0
 40 58  1  0  0  0
 41112  1  0  0  0
 41113  1  0  0  0
 41114  1  0  0  0
 41 48  1  0  0  0
 42 43  1  0  0  0
 42 66  1  0  0  0
 42115  1  0  0  0
 42116  1  0  0  0
 43 44  1  0  0  0
 44117  1  0  0  0
 45 46  2  0  0  0
 45118  1  0  0  0
 46119  1  0  0  0
 47120  1  0  0  0
 47121  1  0  0  0
 48 56  1  0  0  0
 48 65  1  0  0  0
 48122  1  0  0  0
 49 50  1  0  0  0
 49 53  1  0  0  0
 49 64  1  0  0  0
 49123  1  0  0  0
 50 51  1  0  0  0
 50124  1  0  0  0
 50125  1  0  0  0
 51 52  1  0  0  0
 51126  1  0  0  0
 51127  1  0  0  0
 52128  1  0  0  0
 52129  1  0  0  0
 53 54  1  0  0  0
 54 55  2  0  0  0
 54130  1  0  0  0
 55 57  1  0  0  0
 55131  1  0  0  0
 56 69  2  0  0  0
 57 58  2  0  0  0
 57132  1  0  0  0
 58133  1  0  0  0
 59 60  1  0  0  0
 59 61  1  0  0  0
 59 62  1  0  0  0
 60134  1  0  0  0
 60135  1  0  0  0
 60136  1  0  0  0
 61137  1  0  0  0
 61138  1  0  0  0
 61139  1  0  0  0
 62140  1  0  0  0
 62141  1  0  0  0
 62142  1  0  0  0
 63 65  1  0  0  0
 63143  1  0  0  0
 63144  1  0  0  0
 63145  1  0  0  0
 64146  1  0  0  0
 65147  1  0  0  0
 68 84  1  0  0  0
 71 72  2  0  0  0
 71 86  1  0  0  0
 71148  1  0  0  0
 72 85  1  0  0  0
 72 87  1  0  0  0
 73 76  1  0  0  0
 73 86  1  0  0  0
 73 87  2  0  0  0
 74 77  1  0  0  0
 74149  1  0  0  0
 74150  1  0  0  0
 74151  1  0  0  0
 75152  1  0  0  0
 75153  1  0  0  0
 75154  1  0  0  0
 75 85  1  0  0  0
 76 78  1  0  0  0
 76155  1  0  0  0
 76156  1  0  0  0
 77 79  1  0  0  0
 77157  1  0  0  0
 77158  1  0  0  0
 78 79  1  0  0  0
 78159  1  0  0  0
 78160  1  0  0  0
 79161  1  0  0  0
 79162  1  0  0  0
 80 81  1  0  0  0
 80 82  1  0  0  0
 80163  1  0  0  0
 80164  1  0  0  0
 81 84  1  0  0  0
 81165  1  0  0  0
 81166  1  0  0  0
 82 86  1  0  0  0
 82167  1  0  0  0
 82168  1  0  0  0
 83 85  1  0  0  0
 83 88  1  0  0  0
 83169  1  0  0  0
 83170  1  0  0  0
 84171  1  0  0  0
 84172  1  0  0  0
 85173  1  0  0  0
 87174  1  0  0  0
 88175  1  0  0  0
M  CHG  1  87   1
M  ISO  4   1 100  68 101  84 101  88 100
M  END
> <chiral flag>
0

> <version>
0

> <s_m_source_file>
/data/baiqing/PycharmProjects/Reinvent-master-3.2/result/LINK_invent/BTK/process_docking_weight1_custom_sum_contain_oxygen_bond_distance_aromatic_linkinvent_7_9_3/rearranged_h_0081.sdf

> <i_m_source_file_index>
12

> <r_mmod_Potential_Energy-OPLS-2005>
-95.6927261352539

> <r_mmod_Stretch_Energy-OPLS-2005>
37.0539436340332

> <r_mmod_Bend_Energy-OPLS-2005>
114.193397521973

> <r_mmod_Torsional_Energy-OPLS-2005>
247.090591430664

> <r_mmod_Improper_Torsional_Energy-OPLS-2005>
2.03295803070068

> <r_mmod_Van_der_Waal_Energy-OPLS-2005>
124.625640869141

> <r_mmod_Electrostatic_Energy-OPLS-2005>
-219.268966674805

> <r_mmod_Solvation_Energy-OPLS-2005>
-411.376525878906

> <b_mmod_Minimization_Converged-OPLS-2005>
0

> <r_mmod_RMS_Derivative-OPLS-2005>
1.33699822425842

$$$$
12
                    3D
 Structure written by MMmdl.
173181  0  0  1  0            999 V2000
  -30.5901  -14.7468   20.4702 C   0  0  0  0  0  0
  -30.4460  -12.4654   19.4486 C   0  0  0  0  0  0
  -29.5086  -12.5118   18.2198 C   0  0  0  0  0  0
  -28.0353  -12.3328   18.6390 C   0  0  0  0  0  0
  -27.6445  -13.2247   19.8471 C   0  0  2  0  0  0
  -28.6947  -13.1409   20.9758 C   0  0  0  0  0  0
  -25.2537  -13.8183   20.5683 C   0  0  0  0  0  0
  -24.1814  -13.0439   20.9208 C   0  0  0  0  0  0
  -24.6390  -11.6915   20.8757 C   0  0  0  0  0  0
  -23.9061  -10.4290   21.0433 C   0  0  0  0  0  0
  -24.3626   -9.4204   21.9200 C   0  0  0  0  0  0
  -23.6307   -8.2237   22.0761 C   0  0  0  0  0  0
  -22.4285   -8.0285   21.3560 C   0  0  0  0  0  0
  -21.9930   -9.0248   20.4644 C   0  0  0  0  0  0
  -22.7248  -10.2129   20.3061 C   0  0  0  0  0  0
  -21.6858   -6.0740   22.5289 C   0  0  0  0  0  0
  -21.4005   -6.5640   23.8217 C   0  0  0  0  0  0
  -21.3656   -5.6807   24.9178 C   0  0  0  0  0  0
  -21.6045   -4.3069   24.7236 C   0  0  0  0  0  0
  -21.8818   -3.8151   23.4362 C   0  0  0  0  0  0
  -21.9189   -4.6967   22.3412 C   0  0  0  0  0  0
  -22.7838  -13.5222   21.1893 C   0  0  0  0  0  0
  -22.1662   -4.2146   21.0997 F   0  0  0  0  0  0
  -21.5636   -3.4557   25.7746 F   0  0  0  0  0  0
  -29.9934  -13.5097   20.3911 N   0  0  0  0  0  0
  -26.2957  -12.9371   20.3264 N   0  0  0  0  0  0
  -25.9317  -11.6525   20.5738 N   0  0  0  0  0  0
  -22.0484  -12.8165   22.0428 N   0  0  0  0  0  0
  -25.4248  -15.1905   20.4097 N   0  0  0  0  0  0
  -31.7844  -14.8914   20.1962 O   0  0  0  0  0  0
  -21.6642   -6.8891   21.4258 O   0  0  0  0  0  0
  -22.3505  -14.5537   20.6772 O   0  0  0  0  0  0
  -24.6300  -31.8538   23.1984 C   0  0  0  0  0  0
  -25.9138  -32.4732   23.8326 C   0  0  1  0  0  0
  -27.2359  -27.2636   20.1282 C   0  0  0  0  0  0
  -25.5941  -33.8534   24.2240 N   0  0  0  0  0  0
  -23.4285  -30.4768   21.5414 C   0  0  2  0  0  0
  -24.8797  -28.9236   20.1111 C   0  0  0  0  0  0
  -22.7505  -29.4590   22.4902 C   0  0  0  0  0  0
  -18.0304  -28.1377   22.8492 C   0  0  0  0  0  0
  -24.1489  -36.7275   23.2649 C   0  0  0  0  0  0
  -25.9748  -30.7687   21.3787 C   0  0  0  0  0  0
  -26.0525  -29.3930   20.7169 C   0  0  0  0  0  0
  -27.2318  -28.5771   20.7122 C   0  0  0  0  0  0
  -26.0324  -26.8613   19.4979 C   0  0  0  0  0  0
  -24.8754  -27.6650   19.4927 C   0  0  0  0  0  0
  -23.6491  -29.8099   20.1587 C   0  0  0  0  0  0
  -25.4116  -36.3056   24.0332 C   0  0  1  0  0  0
  -20.5903  -28.3669   23.1252 C   0  0  2  0  0  0
  -20.6775  -26.9377   22.5403 C   0  0  0  0  0  0
  -19.5747  -26.6357   21.5219 C   0  0  0  0  0  0
  -18.1933  -26.7923   22.1628 C   0  0  0  0  0  0
  -19.1558  -28.8846   23.2866 C   0  0  0  0  0  0
  -18.9482  -30.1458   23.8864 C   0  0  0  0  0  0
  -17.6482  -30.6569   24.0567 C   0  0  0  0  0  0
  -25.9055  -34.9420   23.5078 C   0  0  0  0  0  0
  -16.5372  -29.9062   23.6342 C   0  0  0  0  0  0
  -16.7297  -28.6492   23.0360 C   0  0  0  0  0  0
  -26.4515  -31.6571   25.0719 C   0  0  0  0  0  0
  -25.3750  -31.3735   26.1451 C   0  0  0  0  0  0
  -27.0378  -30.2989   24.6220 C   0  0  0  0  0  0
  -27.6029  -32.4349   25.7508 C   0  0  0  0  0  0
  -27.5582  -37.1780   24.8467 C   0  0  0  0  0  0
  -21.4202  -29.3021   22.3626 N   0  0  0  0  0  0
  -26.4285  -37.3762   23.9415 N   0  0  0  0  0  0
  -24.6965  -31.0500   22.0956 N   0  0  0  0  0  0
  -23.4206  -28.8131   23.3002 O   0  0  0  0  0  0
  -28.3406  -26.3736   20.1921 O   0  0  0  0  0  0
  -26.5624  -34.8891   22.4647 O   0  0  0  0  0  0
  -23.5448  -32.1355   23.7280 O   0  0  0  0  0  0
  -27.7752  -19.6375   19.2784 C   0  0  0  0  0  0
  -27.4340  -22.0261   19.3728 C   0  0  0  0  0  0
  -26.9622  -20.7536   18.9952 C   0  0  0  0  0  0
  -29.0531  -19.7790   19.8497 C   0  0  0  0  0  0
  -28.6915  -22.1931   19.9798 C   0  0  0  0  0  0
  -31.4061  -18.7533   19.4436 C   0  0  0  0  0  0
  -25.8361  -19.7146   16.9868 C   0  0  0  0  0  0
  -24.9832  -21.8988   17.7971 C   0  0  0  0  0  0
  -24.6221  -19.8697   19.1970 C   0  0  0  0  0  0
  -30.4228  -23.9799   19.4538 C   0  0  0  0  0  0
  -29.5243  -23.7907   21.7981 C   0  0  0  0  0  0
  -29.9007  -17.3183   20.9896 C   0  0  0  0  0  0
  -28.1077  -24.9001   19.9738 C   0  0  0  0  0  0
  -29.9527  -18.4437   19.8323 C   0  0  1  0  0  0
  -25.6208  -20.5666   18.2573 C   0  0  0  0  0  0
  -29.1715  -23.6993   20.3013 C   0  0  0  0  0  0
  -29.4866  -21.0594   20.2165 N   0  0  0  0  0  0
  -29.7449  -15.8234   20.6705 N   0  0  0  0  0  0
  -31.4808  -12.6187   19.1376 H   0  0  0  0  0  0
  -30.4149  -11.4847   19.9255 H   0  0  0  0  0  0
  -29.7898  -11.7408   17.5002 H   0  0  0  0  0  0
  -29.6253  -13.4654   17.7023 H   0  0  0  0  0  0
  -27.8865  -11.2828   18.8933 H   0  0  0  0  0  0
  -27.3756  -12.5379   17.7949 H   0  0  0  0  0  0
  -27.6389  -14.2479   19.4728 H   0  0  0  0  0  0
  -28.7345  -12.1364   21.3988 H   0  0  0  0  0  0
  -28.4270  -13.8019   21.8012 H   0  0  0  0  0  0
  -25.2775   -9.5666   22.4768 H   0  0  0  0  0  0
  -24.0019   -7.4614   22.7462 H   0  0  0  0  0  0
  -21.0879   -8.8759   19.8923 H   0  0  0  0  0  0
  -22.3734  -10.9669   19.6156 H   0  0  0  0  0  0
  -21.1991   -7.6148   23.9720 H   0  0  0  0  0  0
  -21.1487   -6.0536   25.9090 H   0  0  0  0  0  0
  -22.0602   -2.7612   23.2864 H   0  0  0  0  0  0
  -22.4127  -11.9824   22.4777 H   0  0  0  0  0  0
  -21.1085  -13.1136   22.2634 H   0  0  0  0  0  0
  -24.6608  -15.8468   20.5228 H   0  0  0  0  0  0
  -26.2668  -15.6274   20.0586 H   0  0  0  0  0  0
  -26.7196  -32.5395   23.1058 H   0  0  0  0  0  0
  -25.0129  -33.9678   25.0416 H   0  0  0  0  0  0
  -22.7281  -31.3014   21.3930 H   0  0  0  0  0  0
  -23.3746  -35.9619   23.3305 H   0  0  0  0  0  0
  -24.3581  -36.8903   22.2068 H   0  0  0  0  0  0
  -23.7229  -37.6465   23.6669 H   0  0  0  0  0  0
  -26.1162  -31.5313   20.6114 H   0  0  0  0  0  0
  -26.8494  -30.8138   22.0150 H   0  0  0  0  0  0
  -28.1270  -28.9324   21.2055 H   0  0  0  0  0  0
  -25.9444  -25.8965   19.0238 H   0  0  0  0  0  0
  -23.9752  -27.2935   19.0208 H   0  0  0  0  0  0
  -23.7751  -30.5847   19.4014 H   0  0  0  0  0  0
  -22.7674  -29.2421   19.8529 H   0  0  0  0  0  0
  -25.1284  -36.1917   25.0823 H   0  0  0  0  0  0
  -21.0023  -28.3266   24.1362 H   0  0  0  0  0  0
  -20.5702  -26.2271   23.3620 H   0  0  0  0  0  0
  -21.6635  -26.7416   22.1177 H   0  0  0  0  0  0
  -19.6903  -25.6273   21.1238 H   0  0  0  0  0  0
  -19.6688  -27.3174   20.6764 H   0  0  0  0  0  0
  -17.4206  -26.6723   21.4023 H   0  0  0  0  0  0
  -18.0290  -26.0082   22.9026 H   0  0  0  0  0  0
  -19.7976  -30.7277   24.2207 H   0  0  0  0  0  0
  -17.5043  -31.6254   24.5153 H   0  0  0  0  0  0
  -15.5364  -30.2943   23.7671 H   0  0  0  0  0  0
  -15.8724  -28.0788   22.7072 H   0  0  0  0  0  0
  -24.5941  -30.7063   25.7791 H   0  0  0  0  0  0
  -24.8950  -32.2914   26.4840 H   0  0  0  0  0  0
  -25.8101  -30.8956   27.0244 H   0  0  0  0  0  0
  -26.2974  -29.6703   24.1260 H   0  0  0  0  0  0
  -27.4062  -29.7280   25.4752 H   0  0  0  0  0  0
  -27.8836  -30.4233   23.9465 H   0  0  0  0  0  0
  -27.2593  -33.3667   26.2016 H   0  0  0  0  0  0
  -28.3874  -32.6896   25.0369 H   0  0  0  0  0  0
  -28.0653  -31.8546   26.5496 H   0  0  0  0  0  0
  -28.2555  -38.0118   24.7521 H   0  0  0  0  0  0
  -28.1120  -36.2627   24.6274 H   0  0  0  0  0  0
  -27.2303  -37.1401   25.8876 H   0  0  0  0  0  0
  -20.9389  -29.8759   21.6837 H   0  0  0  0  0  0
  -26.0170  -38.2834   24.1447 H   0  0  0  0  0  0
  -27.4401  -18.6506   18.9908 H   0  0  0  0  0  0
  -26.8258  -22.8891   19.1667 H   0  0  0  0  0  0
  -31.4541  -19.2919   18.4975 H   0  0  0  0  0  0
  -31.9879  -17.8376   19.3311 H   0  0  0  0  0  0
  -31.8933  -19.3690   20.2000 H   0  0  0  0  0  0
  -26.5813  -20.1689   16.3310 H   0  0  0  0  0  0
  -24.9168  -19.6128   16.4095 H   0  0  0  0  0  0
  -26.1768  -18.7053   17.2081 H   0  0  0  0  0  0
  -25.6406  -22.4484   17.1214 H   0  0  0  0  0  0
  -24.7384  -22.5481   18.6377 H   0  0  0  0  0  0
  -24.0489  -21.7243   17.2628 H   0  0  0  0  0  0
  -24.9603  -18.8738   19.4831 H   0  0  0  0  0  0
  -23.6423  -19.7624   18.7312 H   0  0  0  0  0  0
  -24.4879  -20.4458   20.1132 H   0  0  0  0  0  0
  -31.2301  -23.2901   19.6988 H   0  0  0  0  0  0
  -30.7940  -24.9927   19.6118 H   0  0  0  0  0  0
  -30.2027  -23.8689   18.3917 H   0  0  0  0  0  0
  -30.2789  -23.0511   22.0717 H   0  0  0  0  0  0
  -28.6522  -23.6135   22.4256 H   0  0  0  0  0  0
  -29.9219  -24.7736   22.0553 H   0  0  0  0  0  0
  -29.0332  -17.5563   21.6077 H   0  0  0  0  0  0
  -30.7523  -17.4449   21.6605 H   0  0  0  0  0  0
  -27.2034  -24.6517   20.5310 H   0  0  0  0  0  0
  -27.8647  -24.8118   18.9142 H   0  0  0  0  0  0
  -29.5652  -17.9080   18.9646 H   0  0  0  0  0  0
  -28.7897  -15.5121   20.7537 H   0  0  0  0  0  0
  1 25  1  0  0  0
  1 30  2  0  0  0
  1 88  1  0  0  0
  2  3  1  0  0  0
  2 25  1  0  0  0
  2 89  1  0  0  0
  2 90  1  0  0  0
  3  4  1  0  0  0
  3 91  1  0  0  0
  3 92  1  0  0  0
  4  5  1  0  0  0
  4 93  1  0  0  0
  4 94  1  0  0  0
  5  6  1  0  0  0
  5 26  1  0  0  0
  5 95  1  0  0  0
  6 25  1  0  0  0
  6 96  1  0  0  0
  6 97  1  0  0  0
  7  8  2  0  0  0
  7 26  1  0  0  0
  7 29  1  0  0  0
  8  9  1  0  0  0
  8 22  1  0  0  0
  9 10  1  0  0  0
  9 27  2  0  0  0
 10 11  2  0  0  0
 10 15  1  0  0  0
 11 12  1  0  0  0
 11 98  1  0  0  0
 12 13  2  0  0  0
 12 99  1  0  0  0
 13 14  1  0  0  0
 13 31  1  0  0  0
 14 15  2  0  0  0
 14100  1  0  0  0
 15101  1  0  0  0
 16 17  2  0  0  0
 16 21  1  0  0  0
 16 31  1  0  0  0
 17 18  1  0  0  0
 17102  1  0  0  0
 18 19  2  0  0  0
 18103  1  0  0  0
 19 20  1  0  0  0
 19 24  1  0  0  0
 20 21  2  0  0  0
 20104  1  0  0  0
 21 23  1  0  0  0
 22 28  1  0  0  0
 22 32  2  0  0  0
 26 27  1  0  0  0
 28105  1  0  0  0
 28106  1  0  0  0
 29107  1  0  0  0
 29108  1  0  0  0
 33 34  1  0  0  0
 33 66  1  0  0  0
 33 70  2  0  0  0
 34 36  1  0  0  0
 34 59  1  0  0  0
 34109  1  0  0  0
 35 44  2  0  0  0
 35 45  1  0  0  0
 35 68  1  0  0  0
 36 56  1  0  0  0
 36110  1  0  0  0
 37 39  1  0  0  0
 37 47  1  0  0  0
 37 66  1  0  0  0
 37111  1  0  0  0
 38 43  2  0  0  0
 38 46  1  0  0  0
 38 47  1  0  0  0
 39 64  1  0  0  0
 39 67  2  0  0  0
 40 52  1  0  0  0
 40 53  2  0  0  0
 40 58  1  0  0  0
 41112  1  0  0  0
 41113  1  0  0  0
 41114  1  0  0  0
 41 48  1  0  0  0
 42 43  1  0  0  0
 42 66  1  0  0  0
 42115  1  0  0  0
 42116  1  0  0  0
 43 44  1  0  0  0
 44117  1  0  0  0
 45 46  2  0  0  0
 45118  1  0  0  0
 46119  1  0  0  0
 47120  1  0  0  0
 47121  1  0  0  0
 48 56  1  0  0  0
 48 65  1  0  0  0
 48122  1  0  0  0
 49 50  1  0  0  0
 49 53  1  0  0  0
 49 64  1  0  0  0
 49123  1  0  0  0
 50 51  1  0  0  0
 50124  1  0  0  0
 50125  1  0  0  0
 51 52  1  0  0  0
 51126  1  0  0  0
 51127  1  0  0  0
 52128  1  0  0  0
 52129  1  0  0  0
 53 54  1  0  0  0
 54 55  2  0  0  0
 54130  1  0  0  0
 55 57  1  0  0  0
 55131  1  0  0  0
 56 69  2  0  0  0
 57 58  2  0  0  0
 57132  1  0  0  0
 58133  1  0  0  0
 59 60  1  0  0  0
 59 61  1  0  0  0
 59 62  1  0  0  0
 60134  1  0  0  0
 60135  1  0  0  0
 60136  1  0  0  0
 61137  1  0  0  0
 61138  1  0  0  0
 61139  1  0  0  0
 62140  1  0  0  0
 62141  1  0  0  0
 62142  1  0  0  0
 63 65  1  0  0  0
 63143  1  0  0  0
 63144  1  0  0  0
 63145  1  0  0  0
 64146  1  0  0  0
 65147  1  0  0  0
 68 83  1  0  0  0
 71 73  2  0  0  0
 71 74  1  0  0  0
 71148  1  0  0  0
 72 73  1  0  0  0
 72 75  2  0  0  0
 72149  1  0  0  0
 73 85  1  0  0  0
 74 84  1  0  0  0
 74 87  2  0  0  0
 75 86  1  0  0  0
 75 87  1  0  0  0
 76150  1  0  0  0
 76151  1  0  0  0
 76152  1  0  0  0
 76 84  1  0  0  0
 77153  1  0  0  0
 77154  1  0  0  0
 77155  1  0  0  0
 77 85  1  0  0  0
 78 85  1  0  0  0
 78156  1  0  0  0
 78157  1  0  0  0
 78158  1  0  0  0
 79 85  1  0  0  0
 79159  1  0  0  0
 79160  1  0  0  0
 79161  1  0  0  0
 80162  1  0  0  0
 80163  1  0  0  0
 80164  1  0  0  0
 80 86  1  0  0  0
 81 86  1  0  0  0
 81165  1  0  0  0
 81166  1  0  0  0
 81167  1  0  0  0
 82 84  1  0  0  0
 82 88  1  0  0  0
 82168  1  0  0  0
 82169  1  0  0  0
 83 86  1  0  0  0
 83170  1  0  0  0
 83171  1  0  0  0
 84172  1  0  0  0
 88173  1  0  0  0
M  ISO  4   1 100  68 101  83 101  88 100
M  END
> <chiral flag>
0

> <version>
0

> <s_m_source_file>
/data/baiqing/PycharmProjects/Reinvent-master-3.2/result/LINK_invent/BTK/process_docking_weight1_custom_sum_contain_oxygen_bond_distance_aromatic_linkinvent_7_9_3/rearranged_h_0081.sdf

> <i_m_source_file_index>
13

> <r_mmod_Potential_Energy-OPLS-2005>
-0.351142913103104

> <r_mmod_Stretch_Energy-OPLS-2005>
140.647827148438

> <r_mmod_Bend_Energy-OPLS-2005>
207.372711181641

> <r_mmod_Torsional_Energy-OPLS-2005>
216.523468017578

> <r_mmod_Improper_Torsional_Energy-OPLS-2005>
5.47833824157715

> <r_mmod_Van_der_Waal_Energy-OPLS-2005>
146.517929077148

> <r_mmod_Electrostatic_Energy-OPLS-2005>
-596.295227050781

> <r_mmod_Solvation_Energy-OPLS-2005>
-207.210357666016

> <b_mmod_Minimization_Converged-OPLS-2005>
0

> <r_mmod_RMS_Derivative-OPLS-2005>
3.09597492218018

$$$$
13
                    3D
 Structure written by MMmdl.
176184  0  0  1  0            999 V2000
  -30.5819  -14.5558   20.3856 C   0  0  0  0  0  0
  -30.4329  -12.3143   19.3978 C   0  0  0  0  0  0
  -29.4827  -12.4440   18.1860 C   0  0  0  0  0  0
  -28.0084  -12.3026   18.6183 C   0  0  0  0  0  0
  -27.6424  -13.1713   19.8506 C   0  0  2  0  0  0
  -28.7046  -13.0335   20.9673 C   0  0  0  0  0  0
  -25.2549  -13.7895   20.5792 C   0  0  0  0  0  0
  -24.1757  -13.0224   20.9225 C   0  0  0  0  0  0
  -24.6345  -11.6734   20.8777 C   0  0  0  0  0  0
  -23.8972  -10.4169   21.0458 C   0  0  0  0  0  0
  -24.3535   -9.4096   21.9224 C   0  0  0  0  0  0
  -23.6219   -8.2134   22.0762 C   0  0  0  0  0  0
  -22.4210   -8.0202   21.3544 C   0  0  0  0  0  0
  -21.9836   -9.0159   20.4648 C   0  0  0  0  0  0
  -22.7160  -10.2039   20.3079 C   0  0  0  0  0  0
  -21.6816   -6.0686   22.5270 C   0  0  0  0  0  0
  -21.4001   -6.5612   23.8214 C   0  0  0  0  0  0
  -21.3663   -5.6793   24.9182 C   0  0  0  0  0  0
  -21.6033   -4.3045   24.7263 C   0  0  0  0  0  0
  -21.8819   -3.8111   23.4386 C   0  0  0  0  0  0
  -21.9173   -4.6904   22.3428 C   0  0  0  0  0  0
  -22.7818  -13.5140   21.1924 C   0  0  0  0  0  0
  -22.1638   -4.2120   21.0998 F   0  0  0  0  0  0
  -21.5639   -3.4515   25.7765 F   0  0  0  0  0  0
  -30.0156  -13.3267   20.3704 N   0  0  0  0  0  0
  -26.2944  -12.9065   20.3322 N   0  0  0  0  0  0
  -25.9273  -11.6287   20.5801 N   0  0  0  0  0  0
  -22.0387  -12.8164   22.0484 N   0  0  0  0  0  0
  -25.4121  -15.1550   20.4315 N   0  0  0  0  0  0
  -31.7939  -14.7742   20.3010 O   0  0  0  0  0  0
  -21.6551   -6.8809   21.4255 O   0  0  0  0  0  0
  -22.3541  -14.5495   20.6807 O   0  0  0  0  0  0
  -24.6050  -31.8728   23.2150 C   0  0  0  0  0  0
  -25.8976  -32.4840   23.8395 C   0  0  1  0  0  0
  -27.2080  -27.4521   20.0739 C   0  0  0  0  0  0
  -25.5845  -33.8654   24.2346 N   0  0  0  0  0  0
  -23.3873  -30.5085   21.5533 C   0  0  2  0  0  0
  -24.8273  -28.9707   20.1162 C   0  0  0  0  0  0
  -22.7325  -29.4778   22.5003 C   0  0  0  0  0  0
  -18.0274  -28.1177   22.8621 C   0  0  0  0  0  0
  -24.1491  -36.7312   23.2640 C   0  0  0  0  0  0
  -25.9224  -30.8378   21.3703 C   0  0  0  0  0  0
  -25.9883  -29.4744   20.7196 C   0  0  0  0  0  0
  -27.1788  -28.7130   20.7059 C   0  0  0  0  0  0
  -26.0251  -26.9675   19.4642 C   0  0  0  0  0  0
  -24.8351  -27.7170   19.4933 C   0  0  0  0  0  0
  -23.5926  -29.8373   20.1729 C   0  0  0  0  0  0
  -25.4106  -36.3102   24.0326 C   0  0  1  0  0  0
  -20.5888  -28.3700   23.1483 C   0  0  2  0  0  0
  -20.7056  -26.9373   22.5729 C   0  0  0  0  0  0
  -19.6024  -26.6567   21.5455 C   0  0  0  0  0  0
  -18.2236  -26.7611   22.2057 C   0  0  0  0  0  0
  -19.1459  -28.8785   23.2950 C   0  0  0  0  0  0
  -18.9190  -30.1405   23.8886 C   0  0  0  0  0  0
  -17.6136  -30.6418   24.0382 C   0  0  0  0  0  0
  -25.8983  -34.9476   23.5137 C   0  0  0  0  0  0
  -16.5095  -29.8850   23.6016 C   0  0  0  0  0  0
  -16.7213  -28.6157   23.0324 C   0  0  0  0  0  0
  -26.4402  -31.6601   25.0706 C   0  0  0  0  0  0
  -25.3718  -31.3677   26.1492 C   0  0  0  0  0  0
  -27.0294  -30.3058   24.6087 C   0  0  0  0  0  0
  -27.5985  -32.4304   25.7426 C   0  0  0  0  0  0
  -27.5587  -37.1788   24.8456 C   0  0  0  0  0  0
  -21.4065  -29.3075   22.3781 N   0  0  0  0  0  0
  -26.4293  -37.3771   23.9403 N   0  0  0  0  0  0
  -24.6559  -31.0847   22.1028 N   0  0  0  0  0  0
  -23.4102  -28.8406   23.3101 O   0  0  0  0  0  0
  -28.4003  -26.7582   20.0312 O   0  0  0  0  0  0
  -26.5553  -34.8880   22.4671 O   0  0  0  0  0  0
  -23.5279  -32.1500   23.7603 O   0  0  0  0  0  0
  -27.7424  -21.3502   21.0857 C   0  0  0  0  0  0
  -26.1867  -22.6875   19.8214 C   0  0  0  0  0  0
  -27.1057  -22.5881   20.8763 C   0  0  0  0  0  0
  -27.3822  -20.2426   20.2921 C   0  0  0  0  0  0
  -25.8834  -21.5561   19.0547 C   0  0  0  0  0  0
  -26.6133  -18.1591   21.4553 C   0  0  0  0  0  0
  -24.8130  -20.6452   16.8937 C   0  0  0  0  0  0
  -23.3673  -21.6422   18.7308 C   0  0  0  0  0  0
  -27.6796  -17.1894   18.7780 C   0  0  0  0  0  0
  -29.6293  -18.6816   18.9420 C   0  0  0  0  0  0
  -27.2343  -23.7305   21.8700 C   0  0  0  0  0  0
  -28.2124  -24.8784   21.5571 C   0  0  0  0  0  0
  -29.4646  -16.8454   20.6705 C   0  0  0  0  0  0
  -28.3495  -25.3305   20.0882 C   0  0  0  0  0  0
  -27.8093  -18.8291   20.7524 C   0  0  1  0  0  0
  -24.7341  -21.6714   18.0333 C   0  0  0  0  0  0
  -28.6307  -17.8746   19.7898 C   0  0  0  0  0  0
  -26.4383  -20.3386   19.3177 N   0  0  0  0  0  0
  -29.6619  -15.5036   20.1068 N   0  0  0  0  0  0
  -24.8267  -22.8730   17.4441 F   0  0  0  0  0  0
  -31.4733  -12.4532   19.0923 H   0  0  0  0  0  0
  -30.3512  -11.3173   19.8366 H   0  0  0  0  0  0
  -29.7230  -11.6897   17.4339 H   0  0  0  0  0  0
  -29.6200  -13.4027   17.6889 H   0  0  0  0  0  0
  -27.8412  -11.2466   18.8350 H   0  0  0  0  0  0
  -27.3409  -12.5289   17.7889 H   0  0  0  0  0  0
  -27.6274  -14.1929   19.4841 H   0  0  0  0  0  0
  -28.7165  -12.0290   21.3907 H   0  0  0  0  0  0
  -28.4887  -13.7176   21.7924 H   0  0  0  0  0  0
  -25.2697   -9.5542   22.4768 H   0  0  0  0  0  0
  -23.9900   -7.4526   22.7494 H   0  0  0  0  0  0
  -21.0751   -8.8685   19.8963 H   0  0  0  0  0  0
  -22.3650  -10.9564   19.6152 H   0  0  0  0  0  0
  -21.1998   -7.6124   23.9725 H   0  0  0  0  0  0
  -21.1491   -6.0511   25.9107 H   0  0  0  0  0  0
  -22.0599   -2.7569   23.2885 H   0  0  0  0  0  0
  -22.3919  -11.9809   22.4931 H   0  0  0  0  0  0
  -21.1025  -13.1295   22.2662 H   0  0  0  0  0  0
  -24.6468  -15.8012   20.5833 H   0  0  0  0  0  0
  -26.2859  -15.6086   20.1987 H   0  0  0  0  0  0
  -26.7067  -32.5537   23.1196 H   0  0  0  0  0  0
  -25.0036  -33.9841   25.0514 H   0  0  0  0  0  0
  -22.6669  -31.3216   21.4316 H   0  0  0  0  0  0
  -23.3753  -35.9651   23.3327 H   0  0  0  0  0  0
  -24.3635  -36.8903   22.2063 H   0  0  0  0  0  0
  -23.7236  -37.6500   23.6661 H   0  0  0  0  0  0
  -26.0282  -31.6158   20.6141 H   0  0  0  0  0  0
  -26.8119  -30.8936   21.9887 H   0  0  0  0  0  0
  -28.0727  -29.0781   21.1891 H   0  0  0  0  0  0
  -25.9972  -26.0296   18.9338 H   0  0  0  0  0  0
  -23.9331  -27.3323   19.0327 H   0  0  0  0  0  0
  -23.6733  -30.6077   19.4078 H   0  0  0  0  0  0
  -22.7179  -29.2518   19.8886 H   0  0  0  0  0  0
  -25.1295  -36.1989   25.0821 H   0  0  0  0  0  0
  -20.9883  -28.3478   24.1646 H   0  0  0  0  0  0
  -21.7049  -26.7419   22.1790 H   0  0  0  0  0  0
  -20.6016  -26.2248   23.3870 H   0  0  0  0  0  0
  -19.7342  -25.6747   21.0904 H   0  0  0  0  0  0
  -19.6864  -27.3883   20.7395 H   0  0  0  0  0  0
  -17.4571  -26.5825   21.4567 H   0  0  0  0  0  0
  -18.1073  -25.9868   22.9706 H   0  0  0  0  0  0
  -19.7436  -30.7466   24.2306 H   0  0  0  0  0  0
  -17.4440  -31.6095   24.4870 H   0  0  0  0  0  0
  -15.5026  -30.2626   23.7203 H   0  0  0  0  0  0
  -15.8765  -28.0138   22.7213 H   0  0  0  0  0  0
  -24.5848  -30.7048   25.7856 H   0  0  0  0  0  0
  -24.8945  -32.2835   26.4981 H   0  0  0  0  0  0
  -25.8099  -30.8822   27.0226 H   0  0  0  0  0  0
  -26.2883  -29.6751   24.1164 H   0  0  0  0  0  0
  -27.4143  -29.7307   25.4521 H   0  0  0  0  0  0
  -27.8640  -30.4412   23.9211 H   0  0  0  0  0  0
  -27.2610  -33.3592   26.2027 H   0  0  0  0  0  0
  -28.3726  -32.6879   25.0192 H   0  0  0  0  0  0
  -28.0728  -31.8416   26.5296 H   0  0  0  0  0  0
  -28.2548  -38.0114   24.7483 H   0  0  0  0  0  0
  -28.1114  -36.2638   24.6319 H   0  0  0  0  0  0
  -27.2290  -37.1458   25.8840 H   0  0  0  0  0  0
  -20.9222  -29.8468   21.6733 H   0  0  0  0  0  0
  -26.0205  -38.2830   24.1458 H   0  0  0  0  0  0
  -28.4158  -21.2287   21.9261 H   0  0  0  0  0  0
  -25.6615  -23.6125   19.6405 H   0  0  0  0  0  0
  -26.2549  -18.7714   22.2810 H   0  0  0  0  0  0
  -26.8572  -17.1776   21.8425 H   0  0  0  0  0  0
  -25.7809  -18.0458   20.7644 H   0  0  0  0  0  0
  -24.7292  -19.6246   17.2683 H   0  0  0  0  0  0
  -25.7521  -20.7318   16.3434 H   0  0  0  0  0  0
  -24.0179  -20.7964   16.1664 H   0  0  0  0  0  0
  -23.1981  -20.6950   19.2477 H   0  0  0  0  0  0
  -22.5609  -21.7907   18.0077 H   0  0  0  0  0  0
  -23.3031  -22.4426   19.4725 H   0  0  0  0  0  0
  -28.1321  -16.3479   18.2494 H   0  0  0  0  0  0
  -27.3467  -17.9060   18.0196 H   0  0  0  0  0  0
  -26.7692  -16.8200   19.2333 H   0  0  0  0  0  0
  -30.1695  -18.0138   18.2673 H   0  0  0  0  0  0
  -30.3428  -19.2252   19.5655 H   0  0  0  0  0  0
  -29.1118  -19.4216   18.3250 H   0  0  0  0  0  0
  -27.4674  -23.3013   22.8437 H   0  0  0  0  0  0
  -26.2411  -24.1585   22.0116 H   0  0  0  0  0  0
  -29.2042  -24.6195   21.9318 H   0  0  0  0  0  0
  -27.8982  -25.7222   22.1684 H   0  0  0  0  0  0
  -28.8876  -16.6143   21.5621 H   0  0  0  0  0  0
  -30.3980  -17.2667   21.0444 H   0  0  0  0  0  0
  -27.6176  -24.8818   19.4180 H   0  0  0  0  0  0
  -29.3001  -24.9555   19.7194 H   0  0  0  0  0  0
  -28.5079  -19.0326   21.5633 H   0  0  0  0  0  0
  -28.8044  -15.1095   19.7616 H   0  0  0  0  0  0
  1 25  1  0  0  0
  1 30  2  0  0  0
  1 89  1  0  0  0
  2  3  1  0  0  0
  2 25  1  0  0  0
  2 91  1  0  0  0
  2 92  1  0  0  0
  3  4  1  0  0  0
  3 93  1  0  0  0
  3 94  1  0  0  0
  4  5  1  0  0  0
  4 95  1  0  0  0
  4 96  1  0  0  0
  5  6  1  0  0  0
  5 26  1  0  0  0
  5 97  1  0  0  0
  6 25  1  0  0  0
  6 98  1  0  0  0
  6 99  1  0  0  0
  7  8  2  0  0  0
  7 26  1  0  0  0
  7 29  1  0  0  0
  8  9  1  0  0  0
  8 22  1  0  0  0
  9 10  1  0  0  0
  9 27  2  0  0  0
 10 11  2  0  0  0
 10 15  1  0  0  0
 11 12  1  0  0  0
 11100  1  0  0  0
 12 13  2  0  0  0
 12101  1  0  0  0
 13 14  1  0  0  0
 13 31  1  0  0  0
 14 15  2  0  0  0
 14102  1  0  0  0
 15103  1  0  0  0
 16 17  2  0  0  0
 16 21  1  0  0  0
 16 31  1  0  0  0
 17 18  1  0  0  0
 17104  1  0  0  0
 18 19  2  0  0  0
 18105  1  0  0  0
 19 20  1  0  0  0
 19 24  1  0  0  0
 20 21  2  0  0  0
 20106  1  0  0  0
 21 23  1  0  0  0
 22 28  1  0  0  0
 22 32  2  0  0  0
 26 27  1  0  0  0
 28107  1  0  0  0
 28108  1  0  0  0
 29109  1  0  0  0
 29110  1  0  0  0
 33 34  1  0  0  0
 33 66  1  0  0  0
 33 70  2  0  0  0
 34 36  1  0  0  0
 34 59  1  0  0  0
 34111  1  0  0  0
 35 44  2  0  0  0
 35 45  1  0  0  0
 35 68  1  0  0  0
 36 56  1  0  0  0
 36112  1  0  0  0
 37 39  1  0  0  0
 37 47  1  0  0  0
 37 66  1  0  0  0
 37113  1  0  0  0
 38 43  2  0  0  0
 38 46  1  0  0  0
 38 47  1  0  0  0
 39 64  1  0  0  0
 39 67  2  0  0  0
 40 52  1  0  0  0
 40 53  2  0  0  0
 40 58  1  0  0  0
 41114  1  0  0  0
 41115  1  0  0  0
 41116  1  0  0  0
 41 48  1  0  0  0
 42 43  1  0  0  0
 42 66  1  0  0  0
 42117  1  0  0  0
 42118  1  0  0  0
 43 44  1  0  0  0
 44119  1  0  0  0
 45 46  2  0  0  0
 45120  1  0  0  0
 46121  1  0  0  0
 47122  1  0  0  0
 47123  1  0  0  0
 48 56  1  0  0  0
 48 65  1  0  0  0
 48124  1  0  0  0
 49 50  1  0  0  0
 49 53  1  0  0  0
 49 64  1  0  0  0
 49125  1  0  0  0
 50 51  1  0  0  0
 50126  1  0  0  0
 50127  1  0  0  0
 51 52  1  0  0  0
 51128  1  0  0  0
 51129  1  0  0  0
 52130  1  0  0  0
 52131  1  0  0  0
 53 54  1  0  0  0
 54 55  2  0  0  0
 54132  1  0  0  0
 55 57  1  0  0  0
 55133  1  0  0  0
 56 69  2  0  0  0
 57 58  2  0  0  0
 57134  1  0  0  0
 58135  1  0  0  0
 59 60  1  0  0  0
 59 61  1  0  0  0
 59 62  1  0  0  0
 60136  1  0  0  0
 60137  1  0  0  0
 60138  1  0  0  0
 61139  1  0  0  0
 61140  1  0  0  0
 61141  1  0  0  0
 62142  1  0  0  0
 62143  1  0  0  0
 62144  1  0  0  0
 63 65  1  0  0  0
 63145  1  0  0  0
 63146  1  0  0  0
 63147  1  0  0  0
 64148  1  0  0  0
 65149  1  0  0  0
 68 84  1  0  0  0
 71 73  2  0  0  0
 71 74  1  0  0  0
 71150  1  0  0  0
 72 73  1  0  0  0
 72 75  2  0  0  0
 72151  1  0  0  0
 73 81  1  0  0  0
 74 85  1  0  0  0
 74 88  2  0  0  0
 75 86  1  0  0  0
 75 88  1  0  0  0
 76152  1  0  0  0
 76153  1  0  0  0
 76154  1  0  0  0
 76 85  1  0  0  0
 77155  1  0  0  0
 77156  1  0  0  0
 77157  1  0  0  0
 77 86  1  0  0  0
 78 86  1  0  0  0
 78158  1  0  0  0
 78159  1  0  0  0
 78160  1  0  0  0
 79161  1  0  0  0
 79162  1  0  0  0
 79163  1  0  0  0
 79 87  1  0  0  0
 80 87  1  0  0  0
 80164  1  0  0  0
 80165  1  0  0  0
 80166  1  0  0  0
 81 82  1  0  0  0
 81167  1  0  0  0
 81168  1  0  0  0
 82 84  1  0  0  0
 82169  1  0  0  0
 82170  1  0  0  0
 83 87  1  0  0  0
 83 89  1  0  0  0
 83171  1  0  0  0
 83172  1  0  0  0
 84173  1  0  0  0
 84174  1  0  0  0
 85 87  1  0  0  0
 85175  1  0  0  0
 86 90  1  0  0  0
 89176  1  0  0  0
M  ISO  4   1 100  68 101  84 101  89 100
M  END
> <chiral flag>
0

> <version>
0

> <s_m_source_file>
/data/baiqing/PycharmProjects/Reinvent-master-3.2/result/LINK_invent/BTK/process_docking_weight1_custom_sum_contain_oxygen_bond_distance_aromatic_linkinvent_7_9_3/rearranged_h_0081.sdf

> <i_m_source_file_index>
14

> <r_mmod_Potential_Energy-OPLS-2005>
-89.7082748413086

> <r_mmod_Stretch_Energy-OPLS-2005>
44.5452117919922

> <r_mmod_Bend_Energy-OPLS-2005>
140.893203735352

> <r_mmod_Torsional_Energy-OPLS-2005>
281.627227783203

> <r_mmod_Improper_Torsional_Energy-OPLS-2005>
16.0720100402832

> <r_mmod_Van_der_Waal_Energy-OPLS-2005>
163.120376586914

> <r_mmod_Electrostatic_Energy-OPLS-2005>
-578.83740234375

> <r_mmod_Solvation_Energy-OPLS-2005>
-194.935897827148

> <b_mmod_Minimization_Converged-OPLS-2005>
0

> <r_mmod_RMS_Derivative-OPLS-2005>
10.9234819412231

$$$$
14
                    3D
 Structure written by MMmdl.
160168  0  0  1  0            999 V2000
  -29.5540  -15.7742   20.6159 C   0  0  0  0  0  0
  -30.2898  -13.2778   19.6586 C   0  0  0  0  0  0
  -29.5351  -12.7398   18.3996 C   0  0  0  0  0  0
  -28.0963  -12.3025   18.7473 C   0  0  0  0  0  0
  -27.5031  -13.2514   19.8108 C   0  0  2  0  0  0
  -28.4148  -13.4754   21.0074 C   0  0  0  0  0  0
  -25.1892  -13.8098   20.5693 C   0  0  0  0  0  0
  -24.1365  -13.0363   20.9220 C   0  0  0  0  0  0
  -24.6009  -11.6821   20.8762 C   0  0  0  0  0  0
  -23.8853  -10.4234   21.0448 C   0  0  0  0  0  0
  -24.3496   -9.4173   21.9205 C   0  0  0  0  0  0
  -23.6231   -8.2168   22.0732 C   0  0  0  0  0  0
  -22.4181   -8.0227   21.3533 C   0  0  0  0  0  0
  -21.9798   -9.0180   20.4618 C   0  0  0  0  0  0
  -22.7070  -10.2067   20.3064 C   0  0  0  0  0  0
  -21.6839   -6.0721   22.5307 C   0  0  0  0  0  0
  -21.4000   -6.5641   23.8237 C   0  0  0  0  0  0
  -21.3614   -5.6789   24.9198 C   0  0  0  0  0  0
  -21.6036   -4.3062   24.7248 C   0  0  0  0  0  0
  -21.8809   -3.8141   23.4376 C   0  0  0  0  0  0
  -21.9176   -4.6956   22.3427 C   0  0  0  0  0  0
  -22.7455  -13.5166   21.2004 C   0  0  0  0  0  0
  -22.1674   -4.2150   21.1004 F   0  0  0  0  0  0
  -21.5591   -3.4537   25.7753 F   0  0  0  0  0  0
  -29.4292  -14.3174   20.4221 N   0  0  0  0  0  0
  -26.2000  -12.9209   20.2775 N   0  0  0  0  0  0
  -25.8811  -11.6385   20.5467 N   0  0  0  0  0  0
  -22.0171  -12.8180   22.0562 N   0  0  0  0  0  0
  -25.3742  -15.1882   20.4331 N   0  0  0  0  0  0
  -30.8006  -15.9358   20.5267 O   0  0  0  0  0  0
  -21.6580   -6.8823   21.4235 O   0  0  0  0  0  0
  -22.3169  -14.5495   20.6852 O   0  0  0  0  0  0
  -24.6722  -31.9176   23.1976 C   0  0  0  0  0  0
  -25.9505  -32.4981   23.8515 C   0  0  1  0  0  0
  -26.8444  -27.1671   20.2971 C   0  0  0  0  0  0
  -25.6267  -33.8722   24.2493 N   0  0  0  0  0  0
  -23.4948  -30.6205   21.4968 C   0  0  2  0  0  0
  -24.8730  -29.0731   19.9963 C   0  0  0  0  0  0
  -22.9728  -29.5682   22.4522 C   0  0  0  0  0  0
  -18.4154  -27.3599   23.1379 C   0  0  0  0  0  0
  -24.1508  -36.7305   23.2627 C   0  0  0  0  0  0
  -26.0206  -30.7942   21.4023 C   0  0  0  0  0  0
  -26.0148  -29.4228   20.7309 C   0  0  0  0  0  0
  -27.0282  -28.4449   20.9109 C   0  0  0  0  0  0
  -25.9541  -27.0368   19.2382 C   0  0  0  0  0  0
  -24.8635  -27.9127   19.2024 C   0  0  0  0  0  0
  -23.6819  -29.9984   20.0831 C   0  0  0  0  0  0
  -25.4140  -36.3154   24.0352 C   0  0  1  0  0  0
  -21.2486  -28.1238   22.8829 C   0  0  2  0  0  0
  -21.8149  -26.9820   21.2340 C   0  0  0  0  0  0
  -20.1824  -25.6303   20.7722 C   0  0  0  0  0  0
  -18.5939  -25.9543   22.0119 C   0  0  0  0  0  0
  -19.5922  -28.2848   23.5363 C   0  0  0  0  0  0
  -19.2302  -29.6294   23.9766 C   0  0  0  0  0  0
  -17.9169  -30.1741   24.0206 C   0  0  0  0  0  0
  -25.9158  -34.9553   23.5180 C   0  0  0  0  0  0
  -16.8486  -29.3710   23.5971 C   0  0  0  0  0  0
  -17.1105  -28.0295   23.1703 C   0  0  0  0  0  0
  -26.4596  -31.6578   25.0843 C   0  0  0  0  0  0
  -25.3712  -31.3666   26.1430 C   0  0  0  0  0  0
  -27.0372  -30.2959   24.6339 C   0  0  0  0  0  0
  -27.6165  -32.4159   25.7740 C   0  0  0  0  0  0
  -27.5592  -37.1849   24.8479 C   0  0  0  0  0  0
  -21.6698  -29.4117   22.4709 N   0  0  0  0  0  0
  -26.4306  -37.3830   23.9429 N   0  0  0  0  0  0
  -24.7487  -31.1598   22.0677 N   0  0  0  0  0  0
  -23.7359  -28.8909   23.1519 O   0  0  0  0  0  0
  -26.8313  -25.9638   20.9923 O   0  0  0  0  0  0
  -26.5525  -34.8977   22.4628 O   0  0  0  0  0  0
  -23.5834  -32.1861   23.7287 O   0  0  0  0  0  0
  -22.7692  -22.8569   22.2134 C   0  0  0  0  0  0
  -22.7788  -24.3783   22.2403 C   0  0  0  0  0  0
  -24.3826  -24.3356   21.8344 C   0  0  0  0  0  0
  -25.1024  -21.6593   21.6580 C   0  0  0  0  0  0
  -20.2537  -24.4071   23.4006 C   0  0  0  0  0  0
  -19.7488  -27.7893   21.1583 C   0  0  0  0  0  0
  -21.8101  -25.8597   24.2509 C   0  0  0  0  0  0
  -25.4028  -25.6948   21.7132 C   0  0  0  0  0  0
  -26.1401  -20.0277   21.0829 C   0  0  0  0  0  0
  -27.6353  -18.5716   21.3554 C   0  0  0  0  0  0
  -21.1384  -25.6088   22.8350 C   0  0  0  0  0  0
  -23.7219  -21.7369   21.9767 N   0  0  0  0  0  0
  -25.2725  -23.1073   21.5840 N   0  0  0  0  0  0
  -28.3790  -16.9278   20.7345 N   0  0  0  0  0  0
  -31.2357  -13.7189   19.3571 H   0  0  0  0  0  0
  -30.5694  -12.4471   20.3066 H   0  0  0  0  0  0
  -30.0837  -11.9232   17.9291 H   0  0  0  0  0  0
  -29.4853  -13.5428   17.6637 H   0  0  0  0  0  0
  -28.1174  -11.2804   19.1324 H   0  0  0  0  0  0
  -27.4675  -12.2841   17.8546 H   0  0  0  0  0  0
  -27.3797  -14.1944   19.2735 H   0  0  0  0  0  0
  -28.7655  -12.5327   21.4329 H   0  0  0  0  0  0
  -27.9071  -13.9998   21.8202 H   0  0  0  0  0  0
  -25.2661   -9.5687   22.4764 H   0  0  0  0  0  0
  -23.9977   -7.4545   22.7449 H   0  0  0  0  0  0
  -21.0731   -8.8675   19.8949 H   0  0  0  0  0  0
  -22.3541  -10.9599   19.6178 H   0  0  0  0  0  0
  -21.2007   -7.6149   23.9747 H   0  0  0  0  0  0
  -21.1443   -6.0522   25.9096 H   0  0  0  0  0  0
  -22.0618   -2.7608   23.2879 H   0  0  0  0  0  0
  -22.3831  -11.9857   22.4969 H   0  0  0  0  0  0
  -21.0783  -13.1173   22.2831 H   0  0  0  0  0  0
  -24.6401  -15.8622   20.6140 H   0  0  0  0  0  0
  -26.2465  -15.6169   20.1750 H   0  0  0  0  0  0
  -26.7639  -32.5582   23.1328 H   0  0  0  0  0  0
  -25.0549  -33.9852   25.0733 H   0  0  0  0  0  0
  -22.7600  -31.4250   21.4131 H   0  0  0  0  0  0
  -23.3806  -35.9594   23.3290 H   0  0  0  0  0  0
  -24.3623  -36.8906   22.2039 H   0  0  0  0  0  0
  -23.7212  -37.6501   23.6624 H   0  0  0  0  0  0
  -26.2408  -31.5478   20.6454 H   0  0  0  0  0  0
  -26.8754  -30.7846   22.0654 H   0  0  0  0  0  0
  -27.7595  -28.5846   21.6924 H   0  0  0  0  0  0
  -25.8708  -26.0963   18.7117 H   0  0  0  0  0  0
  -24.0268  -27.6893   18.5528 H   0  0  0  0  0  0
  -23.8440  -30.8017   19.3630 H   0  0  0  0  0  0
  -22.7731  -29.4975   19.7477 H   0  0  0  0  0  0
  -25.1307  -36.2037   25.0834 H   0  0  0  0  0  0
  -21.7603  -28.0618   23.8266 H   0  0  0  0  0  0
  -22.7875  -26.5451   21.3344 H   0  0  0  0  0  0
  -22.0568  -27.5537   20.3354 H   0  0  0  0  0  0
  -20.4805  -24.5818   20.7268 H   0  0  0  0  0  0
  -19.8763  -25.7311   19.7239 H   0  0  0  0  0  0
  -17.7702  -26.1268   21.3128 H   0  0  0  0  0  0
  -18.1478  -25.0631   22.4382 H   0  0  0  0  0  0
  -20.0337  -30.3084   24.2201 H   0  0  0  0  0  0
  -17.7488  -31.1956   24.3311 H   0  0  0  0  0  0
  -15.8398  -29.7631   23.5705 H   0  0  0  0  0  0
  -16.2687  -27.4701   22.7821 H   0  0  0  0  0  0
  -24.5941  -30.7040   25.7585 H   0  0  0  0  0  0
  -24.8873  -32.2796   26.4899 H   0  0  0  0  0  0
  -25.7949  -30.8726   27.0190 H   0  0  0  0  0  0
  -26.2993  -29.6828   24.1158 H   0  0  0  0  0  0
  -27.3742  -29.7106   25.4905 H   0  0  0  0  0  0
  -27.9040  -30.4131   23.9841 H   0  0  0  0  0  0
  -27.2856  -33.3477   26.2339 H   0  0  0  0  0  0
  -28.4084  -32.6644   25.0658 H   0  0  0  0  0  0
  -28.0691  -31.8185   26.5669 H   0  0  0  0  0  0
  -28.2636  -38.0113   24.7519 H   0  0  0  0  0  0
  -28.1066  -36.2665   24.6340 H   0  0  0  0  0  0
  -27.2308  -37.1530   25.8872 H   0  0  0  0  0  0
  -21.0538  -29.9868   21.9156 H   0  0  0  0  0  0
  -26.0217  -38.2920   24.1381 H   0  0  0  0  0  0
  -21.8072  -22.4213   22.4388 H   0  0  0  0  0  0
  -19.8206  -23.7813   22.6195 H   0  0  0  0  0  0
  -19.4672  -24.7409   24.0781 H   0  0  0  0  0  0
  -20.7979  -23.6611   23.9771 H   0  0  0  0  0  0
  -19.1012  -27.5319   20.3041 H   0  0  0  0  0  0
  -20.3257  -28.5053   20.5667 H   0  0  0  0  0  0
  -19.0806  -28.6238   21.4012 H   0  0  0  0  0  0
  -22.1497  -24.9537   24.7578 H   0  0  0  0  0  0
  -21.1655  -26.3629   24.9712 H   0  0  0  0  0  0
  -22.7698  -26.3704   24.1602 H   0  0  0  0  0  0
  -25.5701  -25.9984   22.7450 H   0  0  0  0  0  0
  -24.7554  -26.4869   21.3806 H   0  0  0  0  0  0
  -26.3433  -20.3131   20.0521 H   0  0  0  0  0  0
  -25.2861  -19.3582   20.9988 H   0  0  0  0  0  0
  -27.4339  -18.2626   22.3842 H   0  0  0  0  0  0
  -28.5341  -19.1731   21.4893 H   0  0  0  0  0  0
  -27.7768  -16.6706   19.9544 H   0  0  0  0  0  0
  1 25  1  0  0  0
  1 30  2  0  0  0
  1 84  1  0  0  0
  2  3  1  0  0  0
  2 25  1  0  0  0
  2 85  1  0  0  0
  2 86  1  0  0  0
  3  4  1  0  0  0
  3 87  1  0  0  0
  3 88  1  0  0  0
  4  5  1  0  0  0
  4 89  1  0  0  0
  4 90  1  0  0  0
  5  6  1  0  0  0
  5 26  1  0  0  0
  5 91  1  0  0  0
  6 25  1  0  0  0
  6 92  1  0  0  0
  6 93  1  0  0  0
  7  8  2  0  0  0
  7 26  1  0  0  0
  7 29  1  0  0  0
  8  9  1  0  0  0
  8 22  1  0  0  0
  9 10  1  0  0  0
  9 27  2  0  0  0
 10 11  2  0  0  0
 10 15  1  0  0  0
 11 12  1  0  0  0
 11 94  1  0  0  0
 12 13  2  0  0  0
 12 95  1  0  0  0
 13 14  1  0  0  0
 13 31  1  0  0  0
 14 15  2  0  0  0
 14 96  1  0  0  0
 15 97  1  0  0  0
 16 17  2  0  0  0
 16 21  1  0  0  0
 16 31  1  0  0  0
 17 18  1  0  0  0
 17 98  1  0  0  0
 18 19  2  0  0  0
 18 99  1  0  0  0
 19 20  1  0  0  0
 19 24  1  0  0  0
 20 21  2  0  0  0
 20100  1  0  0  0
 21 23  1  0  0  0
 22 28  1  0  0  0
 22 32  2  0  0  0
 26 27  1  0  0  0
 28101  1  0  0  0
 28102  1  0  0  0
 29103  1  0  0  0
 29104  1  0  0  0
 33 34  1  0  0  0
 33 66  1  0  0  0
 33 70  2  0  0  0
 34 36  1  0  0  0
 34 59  1  0  0  0
 34105  1  0  0  0
 35 44  2  0  0  0
 35 45  1  0  0  0
 35 68  1  0  0  0
 36 56  1  0  0  0
 36106  1  0  0  0
 37 39  1  0  0  0
 37 47  1  0  0  0
 37 66  1  0  0  0
 37107  1  0  0  0
 38 43  2  0  0  0
 38 46  1  0  0  0
 38 47  1  0  0  0
 39 64  1  0  0  0
 39 67  2  0  0  0
 40 52  1  0  0  0
 40 53  2  0  0  0
 40 58  1  0  0  0
 41108  1  0  0  0
 41109  1  0  0  0
 41110  1  0  0  0
 41 48  1  0  0  0
 42 43  1  0  0  0
 42 66  1  0  0  0
 42111  1  0  0  0
 42112  1  0  0  0
 43 44  1  0  0  0
 44113  1  0  0  0
 45 46  2  0  0  0
 45114  1  0  0  0
 46115  1  0  0  0
 47116  1  0  0  0
 47117  1  0  0  0
 48 56  1  0  0  0
 48 65  1  0  0  0
 48118  1  0  0  0
 49 50  1  0  0  0
 49 53  1  0  0  0
 49 64  1  0  0  0
 49119  1  0  0  0
 50 51  1  0  0  0
 50120  1  0  0  0
 50121  1  0  0  0
 51 52  1  0  0  0
 51122  1  0  0  0
 51123  1  0  0  0
 52124  1  0  0  0
 52125  1  0  0  0
 53 54  1  0  0  0
 54 55  2  0  0  0
 54126  1  0  0  0
 55 57  1  0  0  0
 55127  1  0  0  0
 56 69  2  0  0  0
 57 58  2  0  0  0
 57128  1  0  0  0
 58129  1  0  0  0
 59 60  1  0  0  0
 59 61  1  0  0  0
 59 62  1  0  0  0
 60130  1  0  0  0
 60131  1  0  0  0
 60132  1  0  0  0
 61133  1  0  0  0
 61134  1  0  0  0
 61135  1  0  0  0
 62136  1  0  0  0
 62137  1  0  0  0
 62138  1  0  0  0
 63 65  1  0  0  0
 63139  1  0  0  0
 63140  1  0  0  0
 63141  1  0  0  0
 64142  1  0  0  0
 65143  1  0  0  0
 68 78  1  0  0  0
 71 72  2  0  0  0
 71 82  1  0  0  0
 71144  1  0  0  0
 72 73  1  0  0  0
 72 81  1  0  0  0
 73 78  1  0  0  0
 73 83  2  0  0  0
 74 79  1  0  0  0
 74 82  2  0  0  0
 74 83  1  0  0  0
 75145  1  0  0  0
 75146  1  0  0  0
 75147  1  0  0  0
 75 81  1  0  0  0
 76 81  1  0  0  0
 76148  1  0  0  0
 76149  1  0  0  0
 76150  1  0  0  0
 77 81  1  0  0  0
 77151  1  0  0  0
 77152  1  0  0  0
 77153  1  0  0  0
 78154  1  0  0  0
 78155  1  0  0  0
 79 80  1  0  0  0
 79156  1  0  0  0
 79157  1  0  0  0
 80 84  1  0  0  0
 80158  1  0  0  0
 80159  1  0  0  0
 84160  1  0  0  0
M  ISO  4   1 100  68 101  78 101  84 100
M  END
> <chiral flag>
0

> <version>
0

> <s_m_source_file>
/data/baiqing/PycharmProjects/Reinvent-master-3.2/result/LINK_invent/BTK/process_docking_weight1_custom_sum_contain_oxygen_bond_distance_aromatic_linkinvent_7_9_3/rearranged_h_0081.sdf

> <i_m_source_file_index>
15

> <r_mmod_Potential_Energy-OPLS-2005>
11594.0791015625

> <r_mmod_Stretch_Energy-OPLS-2005>
6362.171875

> <r_mmod_Bend_Energy-OPLS-2005>
1391.47729492188

> <r_mmod_Torsional_Energy-OPLS-2005>
433.659088134766

> <r_mmod_Improper_Torsional_Energy-OPLS-2005>
33.7216453552246

> <r_mmod_Van_der_Waal_Energy-OPLS-2005>
1852.3486328125

> <r_mmod_Electrostatic_Energy-OPLS-2005>
-659.715393066406

> <r_mmod_Solvation_Energy-OPLS-2005>
-248.601379394531

> <b_mmod_Minimization_Converged-OPLS-2005>
0

> <r_mmod_RMS_Derivative-OPLS-2005>
15.7467918395996

$$$$
15
                    3D
 Structure written by MMmdl.
164172  0  0  1  0            999 V2000
  -31.0964  -13.2633   20.9301 C   0  0  0  0  0  0
  -30.5537  -12.6254   18.8369 C   0  0  0  0  0  0
  -29.4308  -12.5245   17.8687 C   0  0  0  0  0  0
  -28.1590  -13.2720   18.2569 C   0  0  0  0  0  0
  -27.9699  -13.9758   19.7015 C   0  0  2  0  0  0
  -29.0835  -13.9226   20.6113 C   0  0  0  0  0  0
  -25.9310  -14.2408   21.0001 C   0  0  0  0  0  0
  -24.1909  -13.6030   20.8527 C   0  0  0  0  0  0
  -24.0593  -12.3203   20.5601 C   0  0  0  0  0  0
  -23.7068  -10.8075   20.9855 C   0  0  0  0  0  0
  -24.2092   -9.8063   21.9184 C   0  0  0  0  0  0
  -23.6235   -8.5015   22.0786 C   0  0  0  0  0  0
  -22.4672   -8.1354   21.3475 C   0  0  0  0  0  0
  -21.9992   -9.0667   20.4097 C   0  0  0  0  0  0
  -22.6111  -10.3270   20.2313 C   0  0  0  0  0  0
  -21.7515   -6.1134   22.5226 C   0  0  0  0  0  0
  -21.4476   -6.5938   23.8155 C   0  0  0  0  0  0
  -21.3785   -5.7008   24.9066 C   0  0  0  0  0  0
  -21.6011   -4.3239   24.7113 C   0  0  0  0  0  0
  -21.8763   -3.8369   23.4224 C   0  0  0  0  0  0
  -21.9408   -4.7255   22.3334 C   0  0  0  0  0  0
  -22.6255  -13.9421   21.1815 C   0  0  0  0  0  0
  -22.1773   -4.2365   21.0920 F   0  0  0  0  0  0
  -21.5492   -3.4681   25.7604 F   0  0  0  0  0  0
  -30.2192  -13.3261   20.0548 N   0  0  0  0  0  0
  -26.8433  -13.8882   20.7865 N   0  0  0  0  0  0
  -24.9764  -13.5315   20.7970 N   0  0  0  0  0  0
  -21.9697  -13.1300   22.0342 N   0  0  0  0  0  0
  -26.8301  -15.3519   21.4369 N   0  0  0  0  0  0
  -32.0395  -14.0736   20.8803 O   0  0  0  0  0  0
  -21.7776   -6.9332   21.4151 O   0  0  0  0  0  0
  -22.0600  -14.8539   20.6056 O   0  0  0  0  0  0
  -24.7236  -31.7442   23.1274 C   0  0  0  0  0  0
  -25.9674  -32.4125   23.7874 C   0  0  1  0  0  0
  -26.5495  -26.0221   20.2491 C   0  0  0  0  0  0
  -25.6095  -33.8011   24.1674 N   0  0  0  0  0  0
  -23.5310  -30.3786   21.5000 C   0  0  2  0  0  0
  -24.8633  -28.6360   20.0686 C   0  0  0  0  0  0
  -22.7791  -29.4109   22.4557 C   0  0  0  0  0  0
  -18.0338  -28.1428   22.8445 C   0  0  0  0  0  0
  -24.1509  -36.7003   23.2661 C   0  0  0  0  0  0
  -26.1104  -30.2150   21.4906 C   0  0  0  0  0  0
  -26.0322  -28.7367   20.8182 C   0  0  0  0  0  0
  -26.8810  -27.4490   20.8782 C   0  0  0  0  0  0
  -25.5390  -26.3354   19.3301 C   0  0  0  0  0  0
  -24.7117  -27.4912   19.2810 C   0  0  0  0  0  0
  -23.7712  -29.7186   20.1130 C   0  0  0  0  0  0
  -25.4180  -36.2699   24.0234 C   0  0  1  0  0  0
  -20.5976  -28.3781   23.1081 C   0  0  2  0  0  0
  -20.6781  -26.9413   22.5402 C   0  0  0  0  0  0
  -19.5761  -26.6347   21.5218 C   0  0  0  0  0  0
  -18.1947  -26.7953   22.1617 C   0  0  0  0  0  0
  -19.1610  -28.8936   23.2748 C   0  0  0  0  0  0
  -18.9519  -30.1519   23.8798 C   0  0  0  0  0  0
  -17.6507  -30.6602   24.0546 C   0  0  0  0  0  0
  -25.9204  -34.9106   23.4818 C   0  0  0  0  0  0
  -16.5393  -29.9082   23.6361 C   0  0  0  0  0  0
  -16.7320  -28.6512   23.0366 C   0  0  0  0  0  0
  -26.4689  -31.6437   25.0734 C   0  0  0  0  0  0
  -25.3622  -31.3923   26.1258 C   0  0  0  0  0  0
  -27.0710  -30.2716   24.7102 C   0  0  0  0  0  0
  -27.6049  -32.4452   25.7532 C   0  0  0  0  0  0
  -27.5552  -37.1663   24.8463 C   0  0  0  0  0  0
  -21.4424  -29.2976   22.3343 N   0  0  0  0  0  0
  -26.4252  -37.3524   23.9405 N   0  0  0  0  0  0
  -24.8280  -30.8352   22.0840 N   0  0  0  0  0  0
  -23.4127  -28.7690   23.2973 O   0  0  0  0  0  0
  -26.9033  -24.3775   20.3383 O   0  0  0  0  0  0
  -26.5896  -34.8777   22.4474 O   0  0  0  0  0  0
  -23.6221  -32.0890   23.5970 O   0  0  0  0  0  0
  -24.5999  -15.4486   22.2969 C   0  0  0  0  0  0
  -25.5219  -14.2331   18.7754 C   0  0  0  0  0  0
  -24.8386  -15.9946   20.1650 C   0  0  0  0  0  0
  -25.3384  -13.5184   23.0485 C   0  0  0  0  0  0
  -26.2212  -12.0983   19.6859 C   0  0  0  0  0  0
  -25.2976  -13.2198   24.5276 C   0  0  0  0  0  0
  -26.4087   -9.5902   19.3560 C   0  0  0  0  0  0
  -25.0597  -18.1343   19.9019 C   0  0  0  0  0  0
  -25.9665  -20.2090   20.3013 C   0  0  0  0  0  0
  -28.6570  -10.6260   20.1929 C   0  0  0  0  0  0
  -29.4434  -11.2542   21.5224 C   0  0  0  0  0  0
  -26.0767  -22.5024   20.0967 C   0  0  0  0  0  0
  -27.2120  -10.9002   19.3540 C   0  0  2  0  0  0
  -26.1349  -11.9873   21.8565 N   0  0  0  0  0  0
  -30.8035  -12.0592   21.5542 N   0  0  0  0  0  0
  -31.3431  -13.2015   18.3496 H   0  0  0  0  0  0
  -31.0101  -11.6445   18.9970 H   0  0  0  0  0  0
  -29.2624  -11.4816   17.6152 H   0  0  0  0  0  0
  -29.7820  -12.9242   16.9143 H   0  0  0  0  0  0
  -27.3051  -12.9037   17.6961 H   0  0  0  0  0  0
  -28.2832  -14.1587   17.6317 H   0  0  0  0  0  0
  -27.9543  -15.0162   19.3603 H   0  0  0  0  0  0
  -28.8552  -13.6680   21.6530 H   0  0  0  0  0  0
  -29.3708  -14.9724   20.7486 H   0  0  0  0  0  0
  -25.0477  -10.0204   22.5596 H   0  0  0  0  0  0
  -24.0505   -7.8115   22.7927 H   0  0  0  0  0  0
  -21.1419   -8.8101   19.8032 H   0  0  0  0  0  0
  -22.1730  -10.9818   19.4901 H   0  0  0  0  0  0
  -21.2671   -7.6472   23.9721 H   0  0  0  0  0  0
  -21.1571   -6.0739   25.8959 H   0  0  0  0  0  0
  -22.0339   -2.7810   23.2657 H   0  0  0  0  0  0
  -22.4516  -12.3702   22.4913 H   0  0  0  0  0  0
  -20.9964  -13.2951   22.2456 H   0  0  0  0  0  0
  -26.0679  -15.8191   21.9309 H   0  0  0  0  0  0
  -27.0695  -15.9095   20.6318 H   0  0  0  0  0  0
  -26.7744  -32.4351   23.0537 H   0  0  0  0  0  0
  -25.0080  -33.8975   24.9722 H   0  0  0  0  0  0
  -22.8859  -31.2437   21.3303 H   0  0  0  0  0  0
  -23.3807  -35.9293   23.3215 H   0  0  0  0  0  0
  -24.3561  -36.8811   22.2098 H   0  0  0  0  0  0
  -23.7243  -37.6117   23.6858 H   0  0  0  0  0  0
  -26.4395  -30.8960   20.7048 H   0  0  0  0  0  0
  -26.9346  -30.2116   22.1875 H   0  0  0  0  0  0
  -27.7226  -27.4772   21.5563 H   0  0  0  0  0  0
  -25.2171  -25.5185   18.6999 H   0  0  0  0  0  0
  -23.8570  -27.4460   18.6192 H   0  0  0  0  0  0
  -24.0482  -30.4913   19.3943 H   0  0  0  0  0  0
  -22.8352  -29.2986   19.7409 H   0  0  0  0  0  0
  -25.1418  -36.1379   25.0721 H   0  0  0  0  0  0
  -21.0073  -28.3443   24.1206 H   0  0  0  0  0  0
  -20.5624  -26.2413   23.3690 H   0  0  0  0  0  0
  -21.6637  -26.7310   22.1234 H   0  0  0  0  0  0
  -19.6890  -25.6235   21.1307 H   0  0  0  0  0  0
  -19.6711  -27.3112   20.6715 H   0  0  0  0  0  0
  -17.4216  -26.6721   21.4016 H   0  0  0  0  0  0
  -18.0304  -26.0121   22.9034 H   0  0  0  0  0  0
  -19.7993  -30.7364   24.2118 H   0  0  0  0  0  0
  -17.5051  -31.6269   24.5171 H   0  0  0  0  0  0
  -15.5387  -30.2944   23.7735 H   0  0  0  0  0  0
  -15.8727  -28.0791   22.7122 H   0  0  0  0  0  0
  -24.5859  -30.7212   25.7554 H   0  0  0  0  0  0
  -24.8753  -32.3194   26.4293 H   0  0  0  0  0  0
  -25.7674  -30.9337   27.0287 H   0  0  0  0  0  0
  -26.3426  -29.6044   24.2479 H   0  0  0  0  0  0
  -27.4226  -29.7531   25.6034 H   0  0  0  0  0  0
  -27.9412  -30.3692   24.0610 H   0  0  0  0  0  0
  -27.2534  -33.3904   26.1680 H   0  0  0  0  0  0
  -28.4040  -32.6773   25.0480 H   0  0  0  0  0  0
  -28.0520  -31.8898   26.5786 H   0  0  0  0  0  0
  -28.2486  -38.0030   24.7525 H   0  0  0  0  0  0
  -28.1130  -36.2544   24.6279 H   0  0  0  0  0  0
  -27.2263  -37.1266   25.8861 H   0  0  0  0  0  0
  -20.9752  -29.8657   21.6411 H   0  0  0  0  0  0
  -26.0023  -38.2542   24.1430 H   0  0  0  0  0  0
  -24.2945  -16.2000   23.0128 H   0  0  0  0  0  0
  -25.7461  -14.4662   17.7441 H   0  0  0  0  0  0
  -24.2846  -12.9630   24.8368 H   0  0  0  0  0  0
  -25.6308  -14.0865   25.0975 H   0  0  0  0  0  0
  -25.9535  -12.3822   24.7615 H   0  0  0  0  0  0
  -25.4830   -9.6805   18.7870 H   0  0  0  0  0  0
  -26.1618   -9.2813   20.3671 H   0  0  0  0  0  0
  -26.9831   -8.7799   18.9070 H   0  0  0  0  0  0
  -24.0214  -18.3783   20.1306 H   0  0  0  0  0  0
  -25.0843  -18.1388   18.8128 H   0  0  0  0  0  0
  -26.9947  -19.9790   20.0204 H   0  0  0  0  0  0
  -25.9807  -20.1553   21.3902 H   0  0  0  0  0  0
  -28.4221   -9.6576   20.6301 H   0  0  0  0  0  0
  -29.3985  -10.2849   19.4759 H   0  0  0  0  0  0
  -29.7470  -10.3681   22.0798 H   0  0  0  0  0  0
  -28.7224  -11.6856   22.2134 H   0  0  0  0  0  0
  -25.1041  -22.7438   20.5267 H   0  0  0  0  0  0
  -25.9082  -22.5789   19.0225 H   0  0  0  0  0  0
  -27.4119  -10.9270   18.2921 H   0  0  0  0  0  0
  -31.5034  -11.7224   22.2013 H   0  0  0  0  0  0
  1 25  1  0  0  0
  1 30  2  0  0  0
  1 85  1  0  0  0
  2  3  1  0  0  0
  2 25  1  0  0  0
  2 86  1  0  0  0
  2 87  1  0  0  0
  3  4  1  0  0  0
  3 88  1  0  0  0
  3 89  1  0  0  0
  4  5  1  0  0  0
  4 90  1  0  0  0
  4 91  1  0  0  0
  5  6  1  0  0  0
  5 26  1  0  0  0
  5 92  1  0  0  0
  6 25  1  0  0  0
  6 93  1  0  0  0
  6 94  1  0  0  0
  7  8  2  0  0  0
  7 26  1  0  0  0
  7 29  1  0  0  0
  8  9  1  0  0  0
  8 22  1  0  0  0
  9 10  1  0  0  0
  9 27  2  0  0  0
 10 11  2  0  0  0
 10 15  1  0  0  0
 11 12  1  0  0  0
 11 95  1  0  0  0
 12 13  2  0  0  0
 12 96  1  0  0  0
 13 14  1  0  0  0
 13 31  1  0  0  0
 14 15  2  0  0  0
 14 97  1  0  0  0
 15 98  1  0  0  0
 16 17  2  0  0  0
 16 21  1  0  0  0
 16 31  1  0  0  0
 17 18  1  0  0  0
 17 99  1  0  0  0
 18 19  2  0  0  0
 18100  1  0  0  0
 19 20  1  0  0  0
 19 24  1  0  0  0
 20 21  2  0  0  0
 20101  1  0  0  0
 21 23  1  0  0  0
 22 28  1  0  0  0
 22 32  2  0  0  0
 26 27  1  0  0  0
 28102  1  0  0  0
 28103  1  0  0  0
 29104  1  0  0  0
 29105  1  0  0  0
 33 34  1  0  0  0
 33 66  1  0  0  0
 33 70  2  0  0  0
 34 36  1  0  0  0
 34 59  1  0  0  0
 34106  1  0  0  0
 35 44  2  0  0  0
 35 45  1  0  0  0
 35 68  1  0  0  0
 36 56  1  0  0  0
 36107  1  0  0  0
 37 39  1  0  0  0
 37 47  1  0  0  0
 37 66  1  0  0  0
 37108  1  0  0  0
 38 43  2  0  0  0
 38 46  1  0  0  0
 38 47  1  0  0  0
 39 64  1  0  0  0
 39 67  2  0  0  0
 40 52  1  0  0  0
 40 53  2  0  0  0
 40 58  1  0  0  0
 41109  1  0  0  0
 41110  1  0  0  0
 41111  1  0  0  0
 41 48  1  0  0  0
 42 43  1  0  0  0
 42 66  1  0  0  0
 42112  1  0  0  0
 42113  1  0  0  0
 43 44  1  0  0  0
 44114  1  0  0  0
 45 46  2  0  0  0
 45115  1  0  0  0
 46116  1  0  0  0
 47117  1  0  0  0
 47118  1  0  0  0
 48 56  1  0  0  0
 48 65  1  0  0  0
 48119  1  0  0  0
 49 50  1  0  0  0
 49 53  1  0  0  0
 49 64  1  0  0  0
 49120  1  0  0  0
 50 51  1  0  0  0
 50121  1  0  0  0
 50122  1  0  0  0
 51 52  1  0  0  0
 51123  1  0  0  0
 51124  1  0  0  0
 52125  1  0  0  0
 52126  1  0  0  0
 53 54  1  0  0  0
 54 55  2  0  0  0
 54127  1  0  0  0
 55 57  1  0  0  0
 55128  1  0  0  0
 56 69  2  0  0  0
 57 58  2  0  0  0
 57129  1  0  0  0
 58130  1  0  0  0
 59 60  1  0  0  0
 59 61  1  0  0  0
 59 62  1  0  0  0
 60131  1  0  0  0
 60132  1  0  0  0
 60133  1  0  0  0
 61134  1  0  0  0
 61135  1  0  0  0
 61136  1  0  0  0
 62137  1  0  0  0
 62138  1  0  0  0
 62139  1  0  0  0
 63 65  1  0  0  0
 63140  1  0  0  0
 63141  1  0  0  0
 63142  1  0  0  0
 64143  1  0  0  0
 65144  1  0  0  0
 68 82  1  0  0  0
 71 73  2  0  0  0
 71 74  1  0  0  0
 71145  1  0  0  0
 72 73  1  0  0  0
 72 75  2  0  0  0
 72146  1  0  0  0
 73 78  1  0  0  0
 74 76  1  0  0  0
 74 84  2  0  0  0
 75 83  1  0  0  0
 75 84  1  0  0  0
 76147  1  0  0  0
 76148  1  0  0  0
 76149  1  0  0  0
 77150  1  0  0  0
 77151  1  0  0  0
 77152  1  0  0  0
 77 83  1  0  0  0
 78 79  1  0  0  0
 78153  1  0  0  0
 78154  1  0  0  0
 79 82  1  0  0  0
 79155  1  0  0  0
 79156  1  0  0  0
 80 81  1  0  0  0
 80 83  1  0  0  0
 80157  1  0  0  0
 80158  1  0  0  0
 81 85  1  0  0  0
 81159  1  0  0  0
 81160  1  0  0  0
 82161  1  0  0  0
 82162  1  0  0  0
 83163  1  0  0  0
 85164  1  0  0  0
M  ISO  4   1 100  68 101  82 101  85 100
M  END
> <chiral flag>
0

> <version>
0

> <s_m_source_file>
/data/baiqing/PycharmProjects/Reinvent-master-3.2/result/LINK_invent/BTK/process_docking_weight1_custom_sum_contain_oxygen_bond_distance_aromatic_linkinvent_7_9_3/rearranged_h_0081.sdf

> <i_m_source_file_index>
16

> <r_mmod_Potential_Energy-OPLS-2005>
24065.990234375

> <r_mmod_Stretch_Energy-OPLS-2005>
13467.6650390625

> <r_mmod_Bend_Energy-OPLS-2005>
2937.97802734375

> <r_mmod_Torsional_Energy-OPLS-2005>
602.872497558594

> <r_mmod_Improper_Torsional_Energy-OPLS-2005>
75.7381362915039

> <r_mmod_Van_der_Waal_Energy-OPLS-2005>
4403.1083984375

> <r_mmod_Electrostatic_Energy-OPLS-2005>
-501.764801025391

> <r_mmod_Solvation_Energy-OPLS-2005>
-215.625335693359

> <b_mmod_Minimization_Converged-OPLS-2005>
0

> <r_mmod_RMS_Derivative-OPLS-2005>
2.79206418991089

$$$$
16
                    3D
 Structure written by MMmdl.
174182  0  0  1  0            999 V2000
  -30.6448  -14.5446   20.5283 C   0  0  0  0  0  0
  -30.4294  -12.3393   19.4369 C   0  0  0  0  0  0
  -29.5008  -12.5097   18.2157 C   0  0  0  0  0  0
  -28.0216  -12.3629   18.6262 C   0  0  0  0  0  0
  -27.6587  -13.2091   19.8769 C   0  0  2  0  0  0
  -28.7012  -13.0097   21.0018 C   0  0  0  0  0  0
  -25.2580  -13.8151   20.5688 C   0  0  0  0  0  0
  -24.1835  -13.0431   20.9202 C   0  0  0  0  0  0
  -24.6384  -11.6900   20.8758 C   0  0  0  0  0  0
  -23.9045  -10.4294   21.0429 C   0  0  0  0  0  0
  -24.3607   -9.4206   21.9196 C   0  0  0  0  0  0
  -23.6288   -8.2239   22.0758 C   0  0  0  0  0  0
  -22.4274   -8.0280   21.3545 C   0  0  0  0  0  0
  -21.9907   -9.0253   20.4649 C   0  0  0  0  0  0
  -22.7224  -10.2139   20.3070 C   0  0  0  0  0  0
  -21.6852   -6.0735   22.5284 C   0  0  0  0  0  0
  -21.4012   -6.5643   23.8216 C   0  0  0  0  0  0
  -21.3664   -5.6800   24.9181 C   0  0  0  0  0  0
  -21.6051   -4.3062   24.7233 C   0  0  0  0  0  0
  -21.8821   -3.8151   23.4353 C   0  0  0  0  0  0
  -21.9189   -4.6964   22.3410 C   0  0  0  0  0  0
  -22.7865  -13.5249   21.1855 C   0  0  0  0  0  0
  -22.1653   -4.2148   21.0987 F   0  0  0  0  0  0
  -21.5628   -3.4545   25.7742 F   0  0  0  0  0  0
  -30.0249  -13.3332   20.4467 N   0  0  0  0  0  0
  -26.3012  -12.9312   20.3385 N   0  0  0  0  0  0
  -25.9315  -11.6472   20.5796 N   0  0  0  0  0  0
  -22.0497  -12.8244   22.0411 N   0  0  0  0  0  0
  -25.4298  -15.1858   20.4090 N   0  0  0  0  0  0
  -31.7850  -14.7359   20.0963 O   0  0  0  0  0  0
  -21.6639   -6.8875   21.4243 O   0  0  0  0  0  0
  -22.3550  -14.5547   20.6698 O   0  0  0  0  0  0
  -24.6188  -31.8640   23.2066 C   0  0  0  0  0  0
  -25.9065  -32.4793   23.8375 C   0  0  1  0  0  0
  -27.2335  -27.3872   20.1003 C   0  0  0  0  0  0
  -25.5909  -33.8592   24.2316 N   0  0  0  0  0  0
  -23.4089  -30.4863   21.5486 C   0  0  2  0  0  0
  -24.8533  -28.9452   20.1126 C   0  0  0  0  0  0
  -22.7433  -29.4634   22.4981 C   0  0  0  0  0  0
  -18.0264  -28.1375   22.8492 C   0  0  0  0  0  0
  -24.1485  -36.7306   23.2644 C   0  0  0  0  0  0
  -25.9416  -30.8144   21.3659 C   0  0  0  0  0  0
  -26.0150  -29.4458   20.7110 C   0  0  0  0  0  0
  -27.2044  -28.6751   20.6975 C   0  0  0  0  0  0
  -26.0458  -26.9065   19.5033 C   0  0  0  0  0  0
  -24.8665  -27.6781   19.5043 C   0  0  0  0  0  0
  -23.6181  -29.8185   20.1630 C   0  0  0  0  0  0
  -25.4106  -36.3099   24.0343 C   0  0  1  0  0  0
  -20.5860  -28.3670   23.1316 C   0  0  2  0  0  0
  -20.6755  -26.9403   22.5430 C   0  0  0  0  0  0
  -19.5733  -26.6385   21.5225 C   0  0  0  0  0  0
  -18.1907  -26.7921   22.1625 C   0  0  0  0  0  0
  -19.1516  -28.8839   23.2895 C   0  0  0  0  0  0
  -18.9447  -30.1441   23.8909 C   0  0  0  0  0  0
  -17.6449  -30.6582   24.0565 C   0  0  0  0  0  0
  -25.9038  -34.9463   23.5132 C   0  0  0  0  0  0
  -16.5338  -29.9087   23.6323 C   0  0  0  0  0  0
  -16.7254  -28.6501   23.0351 C   0  0  0  0  0  0
  -26.4485  -31.6576   25.0712 C   0  0  0  0  0  0
  -25.3755  -31.3687   26.1467 C   0  0  0  0  0  0
  -27.0337  -30.3016   24.6112 C   0  0  0  0  0  0
  -27.6052  -32.4312   25.7470 C   0  0  0  0  0  0
  -27.5577  -37.1808   24.8466 C   0  0  0  0  0  0
  -21.4156  -29.3028   22.3722 N   0  0  0  0  0  0
  -26.4291  -37.3788   23.9409 N   0  0  0  0  0  0
  -24.6751  -31.0706   22.0984 N   0  0  0  0  0  0
  -23.4187  -28.8180   23.3043 O   0  0  0  0  0  0
  -28.4167  -26.6599   20.1224 O   0  0  0  0  0  0
  -26.5603  -34.8919   22.4693 O   0  0  0  0  0  0
  -23.5374  -32.1416   23.7440 O   0  0  0  0  0  0
  -27.6993  -21.7308   21.5432 C   0  0  0  0  0  0
  -27.8032  -20.2864   21.5447 C   0  0  0  0  0  0
  -26.2093  -20.1985   23.2487 C   0  0  0  0  0  0
  -26.1678  -21.6092   23.2889 C   0  0  0  0  0  0
  -21.7127  -17.9048   24.0471 C   0  0  0  0  0  0
  -28.0467  -19.2946   19.2271 C   0  0  0  0  0  0
  -28.3634  -22.7154   20.5450 C   0  0  0  0  0  0
  -25.3707  -19.3257   24.1715 C   0  0  0  0  0  0
  -23.1183  -18.1991   24.5829 C   0  0  0  0  0  0
  -27.9984  -24.2412   20.7618 C   0  0  0  0  0  0
  -23.9767  -19.0129   23.6002 C   0  0  0  0  0  0
  -28.9659  -17.9571   21.2111 C   0  0  0  0  0  0
  -30.0231  -17.0118   20.5398 C   0  0  0  0  0  0
  -28.4848  -25.2725   19.6994 C   0  0  0  0  0  0
  -28.6933  -19.4074   20.6183 C   0  0  2  0  0  0
  -27.0051  -19.5536   22.3685 N   0  0  0  0  0  0
  -26.8955  -22.3552   22.4436 N   0  0  0  0  0  0
  -25.3708  -22.3246   24.1711 N   0  0  0  0  0  0
  -29.8493  -15.5781   20.8985 N   0  0  0  0  0  0
  -31.4724  -12.4518   19.1355 H   0  0  0  0  0  0
  -30.3416  -11.3305   19.8437 H   0  0  0  0  0  0
  -29.7516  -11.7763   17.4479 H   0  0  0  0  0  0
  -29.6617  -13.4894   17.7630 H   0  0  0  0  0  0
  -27.8426  -11.3067   18.8298 H   0  0  0  0  0  0
  -27.3689  -12.6274   17.7936 H   0  0  0  0  0  0
  -27.6904  -14.2545   19.5692 H   0  0  0  0  0  0
  -28.6926  -11.9765   21.3526 H   0  0  0  0  0  0
  -28.4610  -13.6168   21.8766 H   0  0  0  0  0  0
  -25.2760   -9.5680   22.4759 H   0  0  0  0  0  0
  -24.0005   -7.4634   22.7475 H   0  0  0  0  0  0
  -21.0838   -8.8773   19.8951 H   0  0  0  0  0  0
  -22.3688  -10.9676   19.6179 H   0  0  0  0  0  0
  -21.1999   -7.6151   23.9714 H   0  0  0  0  0  0
  -21.1485   -6.0530   25.9080 H   0  0  0  0  0  0
  -22.0593   -2.7609   23.2856 H   0  0  0  0  0  0
  -22.4113  -11.9916   22.4812 H   0  0  0  0  0  0
  -21.1113  -13.1266   22.2594 H   0  0  0  0  0  0
  -24.6676  -15.8419   20.5374 H   0  0  0  0  0  0
  -26.2823  -15.6280   20.0914 H   0  0  0  0  0  0
  -26.7128  -32.5490   23.1130 H   0  0  0  0  0  0
  -25.0062  -33.9745   25.0464 H   0  0  0  0  0  0
  -22.6993  -31.3043   21.4088 H   0  0  0  0  0  0
  -23.3742  -35.9645   23.3318 H   0  0  0  0  0  0
  -24.3585  -36.8912   22.2059 H   0  0  0  0  0  0
  -23.7240  -37.6515   23.6652 H   0  0  0  0  0  0
  -26.0624  -31.5799   20.5980 H   0  0  0  0  0  0
  -26.8261  -30.8650   21.9888 H   0  0  0  0  0  0
  -28.1030  -29.0601   21.1589 H   0  0  0  0  0  0
  -26.0045  -25.9340   19.0363 H   0  0  0  0  0  0
  -23.9719  -27.2884   19.0387 H   0  0  0  0  0  0
  -23.7288  -30.5942   19.4048 H   0  0  0  0  0  0
  -22.7401  -29.2427   19.8654 H   0  0  0  0  0  0
  -25.1282  -36.1973   25.0838 H   0  0  0  0  0  0
  -20.9940  -28.3238   24.1440 H   0  0  0  0  0  0
  -20.5669  -26.2275   23.3622 H   0  0  0  0  0  0
  -21.6624  -26.7447   22.1216 H   0  0  0  0  0  0
  -19.6905  -25.6307   21.1228 H   0  0  0  0  0  0
  -19.6668  -27.3216   20.6772 H   0  0  0  0  0  0
  -17.4190  -26.6681   21.4013 H   0  0  0  0  0  0
  -18.0287  -26.0053   22.9007 H   0  0  0  0  0  0
  -19.7926  -30.7245   24.2286 H   0  0  0  0  0  0
  -17.5010  -31.6263   24.5169 H   0  0  0  0  0  0
  -15.5341  -30.3000   23.7640 H   0  0  0  0  0  0
  -15.8647  -28.0827   22.7066 H   0  0  0  0  0  0
  -24.5917  -30.7042   25.7808 H   0  0  0  0  0  0
  -24.8961  -32.2848   26.4929 H   0  0  0  0  0  0
  -25.8118  -30.8845   27.0214 H   0  0  0  0  0  0
  -26.2892  -29.6743   24.1191 H   0  0  0  0  0  0
  -27.4137  -29.7274   25.4572 H   0  0  0  0  0  0
  -27.8711  -30.4325   23.9251 H   0  0  0  0  0  0
  -27.2654  -33.3600   26.2061 H   0  0  0  0  0  0
  -28.3843  -32.6895   25.0285 H   0  0  0  0  0  0
  -28.0741  -31.8436   26.5375 H   0  0  0  0  0  0
  -28.2607  -38.0092   24.7503 H   0  0  0  0  0  0
  -28.1059  -36.2627   24.6303 H   0  0  0  0  0  0
  -27.2298  -37.1472   25.8870 H   0  0  0  0  0  0
  -20.9333  -29.8749   21.6936 H   0  0  0  0  0  0
  -26.0183  -38.2871   24.1397 H   0  0  0  0  0  0
  -21.1269  -17.3491   24.7804 H   0  0  0  0  0  0
  -21.7491  -17.3103   23.1333 H   0  0  0  0  0  0
  -21.1745  -18.8279   23.8303 H   0  0  0  0  0  0
  -27.8883  -20.2763   18.7840 H   0  0  0  0  0  0
  -27.0759  -18.8003   19.2812 H   0  0  0  0  0  0
  -28.6696  -18.7311   18.5337 H   0  0  0  0  0  0
  -28.0655  -22.4261   19.5378 H   0  0  0  0  0  0
  -29.4444  -22.5844   20.5981 H   0  0  0  0  0  0
  -25.2826  -19.8143   25.1415 H   0  0  0  0  0  0
  -25.9084  -18.3954   24.3609 H   0  0  0  0  0  0
  -23.6190  -17.2574   24.8123 H   0  0  0  0  0  0
  -23.0337  -18.7412   25.5269 H   0  0  0  0  0  0
  -28.3864  -24.5482   21.7332 H   0  0  0  0  0  0
  -26.9148  -24.3475   20.8207 H   0  0  0  0  0  0
  -24.0818  -18.4720   22.6581 H   0  0  0  0  0  0
  -23.4665  -19.9479   23.3626 H   0  0  0  0  0  0
  -28.0127  -17.4259   21.2244 H   0  0  0  0  0  0
  -29.2535  -18.0605   22.2588 H   0  0  0  0  0  0
  -31.0326  -17.3385   20.7946 H   0  0  0  0  0  0
  -29.9460  -17.0834   19.4549 H   0  0  0  0  0  0
  -27.9902  -25.1193   18.7400 H   0  0  0  0  0  0
  -29.5385  -25.0762   19.5012 H   0  0  0  0  0  0
  -29.6488  -19.9237   20.5165 H   0  0  0  0  0  0
  -24.6296  -21.8449   24.6671 H   0  0  0  0  0  0
  -25.1935  -23.3031   23.9805 H   0  0  0  0  0  0
  -28.9443  -15.3121   21.2569 H   0  0  0  0  0  0
  1 25  1  0  0  0
  1 30  2  0  0  0
  1 89  1  0  0  0
  2  3  1  0  0  0
  2 25  1  0  0  0
  2 90  1  0  0  0
  2 91  1  0  0  0
  3  4  1  0  0  0
  3 92  1  0  0  0
  3 93  1  0  0  0
  4  5  1  0  0  0
  4 94  1  0  0  0
  4 95  1  0  0  0
  5  6  1  0  0  0
  5 26  1  0  0  0
  5 96  1  0  0  0
  6 25  1  0  0  0
  6 97  1  0  0  0
  6 98  1  0  0  0
  7  8  2  0  0  0
  7 26  1  0  0  0
  7 29  1  0  0  0
  8  9  1  0  0  0
  8 22  1  0  0  0
  9 10  1  0  0  0
  9 27  2  0  0  0
 10 11  2  0  0  0
 10 15  1  0  0  0
 11 12  1  0  0  0
 11 99  1  0  0  0
 12 13  2  0  0  0
 12100  1  0  0  0
 13 14  1  0  0  0
 13 31  1  0  0  0
 14 15  2  0  0  0
 14101  1  0  0  0
 15102  1  0  0  0
 16 17  2  0  0  0
 16 21  1  0  0  0
 16 31  1  0  0  0
 17 18  1  0  0  0
 17103  1  0  0  0
 18 19  2  0  0  0
 18104  1  0  0  0
 19 20  1  0  0  0
 19 24  1  0  0  0
 20 21  2  0  0  0
 20105  1  0  0  0
 21 23  1  0  0  0
 22 28  1  0  0  0
 22 32  2  0  0  0
 26 27  1  0  0  0
 28106  1  0  0  0
 28107  1  0  0  0
 29108  1  0  0  0
 29109  1  0  0  0
 33 34  1  0  0  0
 33 66  1  0  0  0
 33 70  2  0  0  0
 34 36  1  0  0  0
 34 59  1  0  0  0
 34110  1  0  0  0
 35 44  2  0  0  0
 35 45  1  0  0  0
 35 68  1  0  0  0
 36 56  1  0  0  0
 36111  1  0  0  0
 37 39  1  0  0  0
 37 47  1  0  0  0
 37 66  1  0  0  0
 37112  1  0  0  0
 38 43  2  0  0  0
 38 46  1  0  0  0
 38 47  1  0  0  0
 39 64  1  0  0  0
 39 67  2  0  0  0
 40 52  1  0  0  0
 40 53  2  0  0  0
 40 58  1  0  0  0
 41113  1  0  0  0
 41114  1  0  0  0
 41115  1  0  0  0
 41 48  1  0  0  0
 42 43  1  0  0  0
 42 66  1  0  0  0
 42116  1  0  0  0
 42117  1  0  0  0
 43 44  1  0  0  0
 44118  1  0  0  0
 45 46  2  0  0  0
 45119  1  0  0  0
 46120  1  0  0  0
 47121  1  0  0  0
 47122  1  0  0  0
 48 56  1  0  0  0
 48 65  1  0  0  0
 48123  1  0  0  0
 49 50  1  0  0  0
 49 53  1  0  0  0
 49 64  1  0  0  0
 49124  1  0  0  0
 50 51  1  0  0  0
 50125  1  0  0  0
 50126  1  0  0  0
 51 52  1  0  0  0
 51127  1  0  0  0
 51128  1  0  0  0
 52129  1  0  0  0
 52130  1  0  0  0
 53 54  1  0  0  0
 54 55  2  0  0  0
 54131  1  0  0  0
 55 57  1  0  0  0
 55132  1  0  0  0
 56 69  2  0  0  0
 57 58  2  0  0  0
 57133  1  0  0  0
 58134  1  0  0  0
 59 60  1  0  0  0
 59 61  1  0  0  0
 59 62  1  0  0  0
 60135  1  0  0  0
 60136  1  0  0  0
 60137  1  0  0  0
 61138  1  0  0  0
 61139  1  0  0  0
 61140  1  0  0  0
 62141  1  0  0  0
 62142  1  0  0  0
 62143  1  0  0  0
 63 65  1  0  0  0
 63144  1  0  0  0
 63145  1  0  0  0
 63146  1  0  0  0
 64147  1  0  0  0
 65148  1  0  0  0
 68 84  1  0  0  0
 71 72  1  0  0  0
 71 77  1  0  0  0
 71 87  2  0  0  0
 72 85  1  0  0  0
 72 86  2  0  0  0
 73 74  2  0  0  0
 73 78  1  0  0  0
 73 86  1  0  0  0
 74 87  1  0  0  0
 74 88  1  0  0  0
 75 79  1  0  0  0
 75149  1  0  0  0
 75150  1  0  0  0
 75151  1  0  0  0
 76152  1  0  0  0
 76153  1  0  0  0
 76154  1  0  0  0
 76 85  1  0  0  0
 77 80  1  0  0  0
 77155  1  0  0  0
 77156  1  0  0  0
 78 81  1  0  0  0
 78157  1  0  0  0
 78158  1  0  0  0
 79 81  1  0  0  0
 79159  1  0  0  0
 79160  1  0  0  0
 80 84  1  0  0  0
 80161  1  0  0  0
 80162  1  0  0  0
 81163  1  0  0  0
 81164  1  0  0  0
 82 83  1  0  0  0
 82 85  1  0  0  0
 82165  1  0  0  0
 82166  1  0  0  0
 83 89  1  0  0  0
 83167  1  0  0  0
 83168  1  0  0  0
 84169  1  0  0  0
 84170  1  0  0  0
 85171  1  0  0  0
 88172  1  0  0  0
 88173  1  0  0  0
 89174  1  0  0  0
M  ISO  4   1 100  68 101  84 101  89 100
M  END
> <chiral flag>
0

> <version>
0

> <s_m_source_file>
/data/baiqing/PycharmProjects/Reinvent-master-3.2/result/LINK_invent/BTK/process_docking_weight1_custom_sum_contain_oxygen_bond_distance_aromatic_linkinvent_7_9_3/rearranged_h_0081.sdf

> <i_m_source_file_index>
17

> <r_mmod_Potential_Energy-OPLS-2005>
-55.7250137329102

> <r_mmod_Stretch_Energy-OPLS-2005>
60.3139495849609

> <r_mmod_Bend_Energy-OPLS-2005>
134.239700317383

> <r_mmod_Torsional_Energy-OPLS-2005>
204.953048706055

> <r_mmod_Improper_Torsional_Energy-OPLS-2005>
8.32287693023682

> <r_mmod_Van_der_Waal_Energy-OPLS-2005>
149.458114624023

> <r_mmod_Electrostatic_Energy-OPLS-2005>
-415.869995117188

> <r_mmod_Solvation_Energy-OPLS-2005>
-219.144409179688

> <b_mmod_Minimization_Converged-OPLS-2005>
0

> <r_mmod_RMS_Derivative-OPLS-2005>
1.6316819190979

$$$$
17
                    3D
 Structure written by MMmdl.
167175  0  0  1  0            999 V2000
  -30.6193  -14.6877   20.4639 C   0  0  0  0  0  0
  -30.4628  -12.4111   19.4835 C   0  0  0  0  0  0
  -29.5469  -12.5189   18.2470 C   0  0  0  0  0  0
  -28.0617  -12.3638   18.6384 C   0  0  0  0  0  0
  -27.6700  -13.2243   19.8710 C   0  0  2  0  0  0
  -28.7162  -13.0943   21.0076 C   0  0  0  0  0  0
  -25.2658  -13.8154   20.5670 C   0  0  0  0  0  0
  -24.1919  -13.0418   20.9169 C   0  0  0  0  0  0
  -24.6486  -11.6881   20.8718 C   0  0  0  0  0  0
  -23.9107  -10.4277   21.0373 C   0  0  0  0  0  0
  -24.3633   -9.4194   21.9161 C   0  0  0  0  0  0
  -23.6318   -8.2237   22.0773 C   0  0  0  0  0  0
  -22.4307   -8.0267   21.3560 C   0  0  0  0  0  0
  -21.9925   -9.0236   20.4651 C   0  0  0  0  0  0
  -22.7276  -10.2103   20.3047 C   0  0  0  0  0  0
  -21.6854   -6.0742   22.5296 C   0  0  0  0  0  0
  -21.4009   -6.5641   23.8221 C   0  0  0  0  0  0
  -21.3650   -5.6801   24.9181 C   0  0  0  0  0  0
  -21.6063   -4.3077   24.7210 C   0  0  0  0  0  0
  -21.8821   -3.8153   23.4341 C   0  0  0  0  0  0
  -21.9186   -4.6973   22.3410 C   0  0  0  0  0  0
  -22.7931  -13.5199   21.1760 C   0  0  0  0  0  0
  -22.1659   -4.2144   21.0993 F   0  0  0  0  0  0
  -21.5604   -3.4551   25.7720 F   0  0  0  0  0  0
  -30.0331  -13.4412   20.4529 N   0  0  0  0  0  0
  -26.3098  -12.9347   20.3308 N   0  0  0  0  0  0
  -25.9429  -11.6481   20.5766 N   0  0  0  0  0  0
  -22.0513  -12.8241   22.0304 N   0  0  0  0  0  0
  -25.4353  -15.1898   20.4106 N   0  0  0  0  0  0
  -31.7458  -14.8595   19.9996 O   0  0  0  0  0  0
  -21.6669   -6.8883   21.4260 O   0  0  0  0  0  0
  -22.3639  -14.5478   20.6562 O   0  0  0  0  0  0
  -24.6321  -31.8557   23.1976 C   0  0  0  0  0  0
  -25.9153  -32.4762   23.8331 C   0  0  1  0  0  0
  -27.2149  -27.2772   20.1193 C   0  0  0  0  0  0
  -25.5937  -33.8561   24.2241 N   0  0  0  0  0  0
  -23.4287  -30.4793   21.5405 C   0  0  2  0  0  0
  -24.8737  -28.9301   20.1070 C   0  0  0  0  0  0
  -22.7536  -29.4597   22.4903 C   0  0  0  0  0  0
  -18.0300  -28.1387   22.8466 C   0  0  0  0  0  0
  -24.1475  -36.7303   23.2637 C   0  0  0  0  0  0
  -25.9720  -30.7750   21.3738 C   0  0  0  0  0  0
  -26.0444  -29.3978   20.7182 C   0  0  0  0  0  0
  -27.2172  -28.5782   20.7198 C   0  0  0  0  0  0
  -26.0233  -26.8826   19.4685 C   0  0  0  0  0  0
  -24.8676  -27.6820   19.4708 C   0  0  0  0  0  0
  -23.6476  -29.8184   20.1530 C   0  0  0  0  0  0
  -25.4096  -36.3066   24.0319 C   0  0  1  0  0  0
  -20.5892  -28.3710   23.1259 C   0  0  2  0  0  0
  -20.6769  -26.9427   22.5406 C   0  0  0  0  0  0
  -19.5748  -26.6379   21.5213 C   0  0  0  0  0  0
  -18.1933  -26.7937   22.1616 C   0  0  0  0  0  0
  -19.1542  -28.8869   23.2853 C   0  0  0  0  0  0
  -18.9459  -30.1460   23.8880 C   0  0  0  0  0  0
  -17.6458  -30.6586   24.0542 C   0  0  0  0  0  0
  -25.9040  -34.9443   23.5083 C   0  0  0  0  0  0
  -16.5353  -29.9083   23.6308 C   0  0  0  0  0  0
  -16.7279  -28.6491   23.0344 C   0  0  0  0  0  0
  -26.4488  -31.6607   25.0747 C   0  0  0  0  0  0
  -25.3713  -31.3797   26.1483 C   0  0  0  0  0  0
  -27.0325  -30.3014   24.6246 C   0  0  0  0  0  0
  -27.6027  -32.4372   25.7539 C   0  0  0  0  0  0
  -27.5565  -37.1801   24.8450 C   0  0  0  0  0  0
  -21.4236  -29.3049   22.3667 N   0  0  0  0  0  0
  -26.4253  -37.3778   23.9419 N   0  0  0  0  0  0
  -24.6973  -31.0537   22.0955 N   0  0  0  0  0  0
  -23.4229  -28.8119   23.2987 O   0  0  0  0  0  0
  -28.3086  -26.3881   20.1896 O   0  0  0  0  0  0
  -26.5609  -34.8915   22.4644 O   0  0  0  0  0  0
  -23.5454  -32.1387   23.7255 O   0  0  0  0  0  0
  -27.7561  -21.9421   19.1239 C   0  0  0  0  0  0
  -29.5405  -21.1467   20.5237 C   0  0  0  0  0  0
  -28.7985  -22.2775   20.0180 C   0  0  0  0  0  0
  -27.5088  -20.5891   18.8039 C   0  0  0  0  0  0
  -29.2397  -19.7851   20.1547 C   0  0  0  0  0  0
  -26.3729  -20.2084   17.8740 C   0  0  0  0  0  0
  -30.4988  -24.1561   19.8998 C   0  0  0  0  0  0
  -29.1013  -23.8401   21.9644 C   0  0  0  0  0  0
  -29.8329  -18.4788   22.2536 C   0  0  0  0  0  0
  -31.5011  -18.6895   20.3587 C   0  0  0  0  0  0
  -29.5699  -17.0743   20.1109 C   0  0  0  0  0  0
  -28.0808  -24.9295   19.9198 C   0  0  0  0  0  0
  -29.1014  -23.7879   20.4287 C   0  0  0  0  0  0
  -30.0117  -18.5073   20.7197 C   0  0  0  0  0  0
  -28.2217  -19.5507   19.2975 N   0  0  0  0  0  0
  -29.8176  -15.7430   20.8140 N   0  0  0  0  0  0
  -31.5049  -12.5213   19.1809 H   0  0  0  0  0  0
  -30.3945  -11.4202   19.9338 H   0  0  0  0  0  0
  -29.8342  -11.7570   17.5213 H   0  0  0  0  0  0
  -29.7147  -13.4801   17.7579 H   0  0  0  0  0  0
  -27.8974  -11.3103   18.8681 H   0  0  0  0  0  0
  -27.4220  -12.5922   17.7860 H   0  0  0  0  0  0
  -27.6853  -14.2635   19.5419 H   0  0  0  0  0  0
  -28.7363  -12.0798   21.4079 H   0  0  0  0  0  0
  -28.4562  -13.7407   21.8436 H   0  0  0  0  0  0
  -25.2752   -9.5683   22.4744 H   0  0  0  0  0  0
  -24.0022   -7.4670   22.7538 H   0  0  0  0  0  0
  -21.0829   -8.8767   19.9006 H   0  0  0  0  0  0
  -22.3733  -10.9640   19.6155 H   0  0  0  0  0  0
  -21.2031   -7.6154   23.9721 H   0  0  0  0  0  0
  -21.1461   -6.0532   25.9087 H   0  0  0  0  0  0
  -22.0612   -2.7623   23.2844 H   0  0  0  0  0  0
  -22.4076  -11.9947   22.4813 H   0  0  0  0  0  0
  -21.1128  -13.1358   22.2374 H   0  0  0  0  0  0
  -24.6656  -15.8374   20.5378 H   0  0  0  0  0  0
  -26.2711  -15.6323   20.0487 H   0  0  0  0  0  0
  -26.7237  -32.5402   23.1088 H   0  0  0  0  0  0
  -25.0085  -33.9684   25.0382 H   0  0  0  0  0  0
  -22.7253  -31.3000   21.3938 H   0  0  0  0  0  0
  -23.3734  -35.9637   23.3248 H   0  0  0  0  0  0
  -24.3570  -36.8993   22.2064 H   0  0  0  0  0  0
  -23.7229  -37.6486   23.6698 H   0  0  0  0  0  0
  -26.0999  -31.5365   20.6018 H   0  0  0  0  0  0
  -26.8532  -30.8255   22.0013 H   0  0  0  0  0  0
  -28.1113  -28.9159   21.2256 H   0  0  0  0  0  0
  -25.9446  -25.9348   18.9583 H   0  0  0  0  0  0
  -23.9749  -27.3252   18.9770 H   0  0  0  0  0  0
  -23.7816  -30.5958   19.3998 H   0  0  0  0  0  0
  -22.7624  -29.2597   19.8433 H   0  0  0  0  0  0
  -25.1275  -36.1898   25.0811 H   0  0  0  0  0  0
  -20.9967  -28.3266   24.1380 H   0  0  0  0  0  0
  -20.5655  -26.2324   23.3610 H   0  0  0  0  0  0
  -21.6640  -26.7443   22.1204 H   0  0  0  0  0  0
  -19.6903  -25.6288   21.1249 H   0  0  0  0  0  0
  -19.6675  -27.3163   20.6724 H   0  0  0  0  0  0
  -17.4214  -26.6675   21.4014 H   0  0  0  0  0  0
  -18.0318  -26.0081   22.9006 H   0  0  0  0  0  0
  -19.7944  -30.7273   24.2238 H   0  0  0  0  0  0
  -17.5019  -31.6265   24.5165 H   0  0  0  0  0  0
  -15.5347  -30.2973   23.7655 H   0  0  0  0  0  0
  -15.8686  -28.0814   22.7060 H   0  0  0  0  0  0
  -24.5846  -30.7179   25.7828 H   0  0  0  0  0  0
  -24.8940  -32.2985   26.4898 H   0  0  0  0  0  0
  -25.8023  -30.8988   27.0273 H   0  0  0  0  0  0
  -26.2912  -29.6785   24.1220 H   0  0  0  0  0  0
  -27.3920  -29.7263   25.4787 H   0  0  0  0  0  0
  -27.8812  -30.4247   23.9520 H   0  0  0  0  0  0
  -27.2599  -33.3671   26.2077 H   0  0  0  0  0  0
  -28.3860  -32.6958   25.0413 H   0  0  0  0  0  0
  -28.0660  -31.8548   26.5510 H   0  0  0  0  0  0
  -28.2553  -38.0122   24.7526 H   0  0  0  0  0  0
  -28.1083  -36.2664   24.6219 H   0  0  0  0  0  0
  -27.2304  -37.1395   25.8853 H   0  0  0  0  0  0
  -20.9430  -29.8831   21.6930 H   0  0  0  0  0  0
  -26.0127  -38.2837   24.1455 H   0  0  0  0  0  0
  -27.1390  -22.7076   18.6715 H   0  0  0  0  0  0
  -30.3501  -21.3216   21.2163 H   0  0  0  0  0  0
  -25.8421  -21.0835   17.4979 H   0  0  0  0  0  0
  -25.6514  -19.5834   18.3998 H   0  0  0  0  0  0
  -26.7443  -19.6445   17.0188 H   0  0  0  0  0  0
  -31.2748  -23.5013   20.2970 H   0  0  0  0  0  0
  -30.7670  -25.1775   20.1713 H   0  0  0  0  0  0
  -30.5380  -24.0840   18.8135 H   0  0  0  0  0  0
  -29.8012  -23.1269   22.3972 H   0  0  0  0  0  0
  -28.1068  -23.5981   22.3466 H   0  0  0  0  0  0
  -29.3759  -24.8322   22.3258 H   0  0  0  0  0  0
  -30.2027  -19.3882   22.7286 H   0  0  0  0  0  0
  -30.3721  -17.6523   22.7124 H   0  0  0  0  0  0
  -28.7782  -18.3844   22.5162 H   0  0  0  0  0  0
  -31.9091  -19.6133   20.7686 H   0  0  0  0  0  0
  -31.6280  -18.7406   19.2738 H   0  0  0  0  0  0
  -32.1161  -17.8665   20.7224 H   0  0  0  0  0  0
  -29.8992  -16.9942   19.0735 H   0  0  0  0  0  0
  -28.4812  -17.0957   20.0442 H   0  0  0  0  0  0
  -27.1074  -24.6452   20.3234 H   0  0  0  0  0  0
  -28.0104  -24.8351   18.8393 H   0  0  0  0  0  0
  -29.0251  -15.4365   21.3572 H   0  0  0  0  0  0
  1 25  1  0  0  0
  1 30  2  0  0  0
  1 86  1  0  0  0
  2  3  1  0  0  0
  2 25  1  0  0  0
  2 87  1  0  0  0
  2 88  1  0  0  0
  3  4  1  0  0  0
  3 89  1  0  0  0
  3 90  1  0  0  0
  4  5  1  0  0  0
  4 91  1  0  0  0
  4 92  1  0  0  0
  5  6  1  0  0  0
  5 26  1  0  0  0
  5 93  1  0  0  0
  6 25  1  0  0  0
  6 94  1  0  0  0
  6 95  1  0  0  0
  7  8  2  0  0  0
  7 26  1  0  0  0
  7 29  1  0  0  0
  8  9  1  0  0  0
  8 22  1  0  0  0
  9 10  1  0  0  0
  9 27  2  0  0  0
 10 11  2  0  0  0
 10 15  1  0  0  0
 11 12  1  0  0  0
 11 96  1  0  0  0
 12 13  2  0  0  0
 12 97  1  0  0  0
 13 14  1  0  0  0
 13 31  1  0  0  0
 14 15  2  0  0  0
 14 98  1  0  0  0
 15 99  1  0  0  0
 16 17  2  0  0  0
 16 21  1  0  0  0
 16 31  1  0  0  0
 17 18  1  0  0  0
 17100  1  0  0  0
 18 19  2  0  0  0
 18101  1  0  0  0
 19 20  1  0  0  0
 19 24  1  0  0  0
 20 21  2  0  0  0
 20102  1  0  0  0
 21 23  1  0  0  0
 22 28  1  0  0  0
 22 32  2  0  0  0
 26 27  1  0  0  0
 28103  1  0  0  0
 28104  1  0  0  0
 29105  1  0  0  0
 29106  1  0  0  0
 33 34  1  0  0  0
 33 66  1  0  0  0
 33 70  2  0  0  0
 34 36  1  0  0  0
 34 59  1  0  0  0
 34107  1  0  0  0
 35 44  2  0  0  0
 35 45  1  0  0  0
 35 68  1  0  0  0
 36 56  1  0  0  0
 36108  1  0  0  0
 37 39  1  0  0  0
 37 47  1  0  0  0
 37 66  1  0  0  0
 37109  1  0  0  0
 38 43  2  0  0  0
 38 46  1  0  0  0
 38 47  1  0  0  0
 39 64  1  0  0  0
 39 67  2  0  0  0
 40 52  1  0  0  0
 40 53  2  0  0  0
 40 58  1  0  0  0
 41110  1  0  0  0
 41111  1  0  0  0
 41112  1  0  0  0
 41 48  1  0  0  0
 42 43  1  0  0  0
 42 66  1  0  0  0
 42113  1  0  0  0
 42114  1  0  0  0
 43 44  1  0  0  0
 44115  1  0  0  0
 45 46  2  0  0  0
 45116  1  0  0  0
 46117  1  0  0  0
 47118  1  0  0  0
 47119  1  0  0  0
 48 56  1  0  0  0
 48 65  1  0  0  0
 48120  1  0  0  0
 49 50  1  0  0  0
 49 53  1  0  0  0
 49 64  1  0  0  0
 49121  1  0  0  0
 50 51  1  0  0  0
 50122  1  0  0  0
 50123  1  0  0  0
 51 52  1  0  0  0
 51124  1  0  0  0
 51125  1  0  0  0
 52126  1  0  0  0
 52127  1  0  0  0
 53 54  1  0  0  0
 54 55  2  0  0  0
 54128  1  0  0  0
 55 57  1  0  0  0
 55129  1  0  0  0
 56 69  2  0  0  0
 57 58  2  0  0  0
 57130  1  0  0  0
 58131  1  0  0  0
 59 60  1  0  0  0
 59 61  1  0  0  0
 59 62  1  0  0  0
 60132  1  0  0  0
 60133  1  0  0  0
 60134  1  0  0  0
 61135  1  0  0  0
 61136  1  0  0  0
 61137  1  0  0  0
 62138  1  0  0  0
 62139  1  0  0  0
 62140  1  0  0  0
 63 65  1  0  0  0
 63141  1  0  0  0
 63142  1  0  0  0
 63143  1  0  0  0
 64144  1  0  0  0
 65145  1  0  0  0
 68 82  1  0  0  0
 71 73  2  0  0  0
 71 74  1  0  0  0
 71146  1  0  0  0
 72 73  1  0  0  0
 72 75  2  0  0  0
 72147  1  0  0  0
 73 83  1  0  0  0
 74 76  1  0  0  0
 74 85  2  0  0  0
 75 84  1  0  0  0
 75 85  1  0  0  0
 76148  1  0  0  0
 76149  1  0  0  0
 76150  1  0  0  0
 77151  1  0  0  0
 77152  1  0  0  0
 77153  1  0  0  0
 77 83  1  0  0  0
 78 83  1  0  0  0
 78154  1  0  0  0
 78155  1  0  0  0
 78156  1  0  0  0
 79157  1  0  0  0
 79158  1  0  0  0
 79159  1  0  0  0
 79 84  1  0  0  0
 80 84  1  0  0  0
 80160  1  0  0  0
 80161  1  0  0  0
 80162  1  0  0  0
 81 84  1  0  0  0
 81 86  1  0  0  0
 81163  1  0  0  0
 81164  1  0  0  0
 82 83  1  0  0  0
 82165  1  0  0  0
 82166  1  0  0  0
 86167  1  0  0  0
M  ISO  4   1 100  68 101  82 101  86 100
M  END
> <chiral flag>
0

> <version>
0

> <s_m_source_file>
/data/baiqing/PycharmProjects/Reinvent-master-3.2/result/LINK_invent/BTK/process_docking_weight1_custom_sum_contain_oxygen_bond_distance_aromatic_linkinvent_7_9_3/rearranged_h_0081.sdf

> <i_m_source_file_index>
18

> <r_mmod_Potential_Energy-OPLS-2005>
-70.0238647460938

> <r_mmod_Stretch_Energy-OPLS-2005>
109.269676208496

> <r_mmod_Bend_Energy-OPLS-2005>
164.963531494141

> <r_mmod_Torsional_Energy-OPLS-2005>
240.030044555664

> <r_mmod_Improper_Torsional_Energy-OPLS-2005>
7.10884284973145

> <r_mmod_Van_der_Waal_Energy-OPLS-2005>
143.954727172852

> <r_mmod_Electrostatic_Energy-OPLS-2005>
-602.658264160156

> <r_mmod_Solvation_Energy-OPLS-2005>
-202.849700927734

> <b_mmod_Minimization_Converged-OPLS-2005>
0

> <r_mmod_RMS_Derivative-OPLS-2005>
5.61394309997559

$$$$
18
                    3D
 Structure written by MMmdl.
163171  0  0  1  0            999 V2000
  -30.7073  -14.5703   20.5526 C   0  0  0  0  0  0
  -30.4142  -12.3782   19.4282 C   0  0  0  0  0  0
  -29.4846  -12.5058   18.2043 C   0  0  0  0  0  0
  -28.0115  -12.3483   18.6246 C   0  0  0  0  0  0
  -27.6452  -13.2187   19.8545 C   0  0  2  0  0  0
  -28.6933  -13.0853   20.9828 C   0  0  0  0  0  0
  -25.2504  -13.8149   20.5694 C   0  0  0  0  0  0
  -24.1785  -13.0434   20.9198 C   0  0  0  0  0  0
  -24.6351  -11.6902   20.8772 C   0  0  0  0  0  0
  -23.9035  -10.4288   21.0437 C   0  0  0  0  0  0
  -24.3598   -9.4192   21.9200 C   0  0  0  0  0  0
  -23.6292   -8.2214   22.0759 C   0  0  0  0  0  0
  -22.4275   -8.0248   21.3545 C   0  0  0  0  0  0
  -21.9893   -9.0230   20.4659 C   0  0  0  0  0  0
  -22.7213  -10.2112   20.3075 C   0  0  0  0  0  0
  -21.6815   -6.0725   22.5271 C   0  0  0  0  0  0
  -21.3984   -6.5631   23.8207 C   0  0  0  0  0  0
  -21.3662   -5.6785   24.9166 C   0  0  0  0  0  0
  -21.6041   -4.3046   24.7217 C   0  0  0  0  0  0
  -21.8830   -3.8140   23.4337 C   0  0  0  0  0  0
  -21.9194   -4.6963   22.3401 C   0  0  0  0  0  0
  -22.7809  -13.5238   21.1845 C   0  0  0  0  0  0
  -22.1667   -4.2150   21.0980 F   0  0  0  0  0  0
  -21.5638   -3.4527   25.7737 F   0  0  0  0  0  0
  -30.0109  -13.3997   20.4165 N   0  0  0  0  0  0
  -26.2936  -12.9345   20.3316 N   0  0  0  0  0  0
  -25.9277  -11.6507   20.5787 N   0  0  0  0  0  0
  -22.0444  -12.8282   22.0412 N   0  0  0  0  0  0
  -25.4241  -15.1857   20.4068 N   0  0  0  0  0  0
  -31.8241  -14.7150   20.0577 O   0  0  0  0  0  0
  -21.6618   -6.8866   21.4237 O   0  0  0  0  0  0
  -22.3522  -14.5569   20.6724 O   0  0  0  0  0  0
  -24.6208  -31.8637   23.2079 C   0  0  0  0  0  0
  -25.9076  -32.4810   23.8382 C   0  0  1  0  0  0
  -27.2210  -27.3583   20.1038 C   0  0  0  0  0  0
  -25.5929  -33.8611   24.2333 N   0  0  0  0  0  0
  -23.4105  -30.4901   21.5491 C   0  0  2  0  0  0
  -24.8520  -28.9441   20.1177 C   0  0  0  0  0  0
  -22.7424  -29.4654   22.4953 C   0  0  0  0  0  0
  -18.0281  -28.1381   22.8484 C   0  0  0  0  0  0
  -24.1484  -36.7291   23.2640 C   0  0  0  0  0  0
  -25.9460  -30.8087   21.3684 C   0  0  0  0  0  0
  -26.0184  -29.4373   20.7136 C   0  0  0  0  0  0
  -27.2031  -28.6534   20.6983 C   0  0  0  0  0  0
  -26.0246  -26.8931   19.5121 C   0  0  0  0  0  0
  -24.8535  -27.6754   19.5156 C   0  0  0  0  0  0
  -23.6229  -29.8251   20.1630 C   0  0  0  0  0  0
  -25.4114  -36.3109   24.0349 C   0  0  1  0  0  0
  -20.5868  -28.3694   23.1283 C   0  0  2  0  0  0
  -20.6786  -26.9424   22.5392 C   0  0  0  0  0  0
  -19.5757  -26.6390   21.5194 C   0  0  0  0  0  0
  -18.1935  -26.7923   22.1617 C   0  0  0  0  0  0
  -19.1527  -28.8853   23.2886 C   0  0  0  0  0  0
  -18.9441  -30.1450   23.8916 C   0  0  0  0  0  0
  -17.6443  -30.6586   24.0553 C   0  0  0  0  0  0
  -25.9052  -34.9477   23.5140 C   0  0  0  0  0  0
  -16.5340  -29.9086   23.6317 C   0  0  0  0  0  0
  -16.7269  -28.6497   23.0351 C   0  0  0  0  0  0
  -26.4502  -31.6601   25.0720 C   0  0  0  0  0  0
  -25.3780  -31.3680   26.1481 C   0  0  0  0  0  0
  -27.0327  -30.3051   24.6093 C   0  0  0  0  0  0
  -27.6093  -32.4306   25.7476 C   0  0  0  0  0  0
  -27.5582  -37.1805   24.8473 C   0  0  0  0  0  0
  -21.4144  -29.3070   22.3703 N   0  0  0  0  0  0
  -26.4296  -37.3799   23.9415 N   0  0  0  0  0  0
  -24.6786  -31.0676   22.1011 N   0  0  0  0  0  0
  -23.4172  -28.8191   23.3008 O   0  0  0  0  0  0
  -28.3906  -26.5999   20.1250 O   0  0  0  0  0  0
  -26.5580  -34.8927   22.4680 O   0  0  0  0  0  0
  -23.5392  -32.1437   23.7440 O   0  0  0  0  0  0
  -26.7999  -21.7763   19.3345 C   0  0  0  0  0  0
  -27.9413  -21.5791   20.0736 C   0  0  0  0  0  0
  -26.9691  -19.5949   19.6843 C   0  0  0  0  0  0
  -26.5513  -18.1640   19.7117 C   0  0  0  0  0  0
  -30.1145  -18.0627   19.0268 C   0  0  0  0  0  0
  -28.8578  -22.6670   20.6255 C   0  0  0  0  0  0
  -28.2406  -24.1192   20.8139 C   0  0  0  0  0  0
  -29.0584  -19.3792   21.0506 C   0  0  0  0  0  0
  -29.2005  -16.6245   20.9600 C   0  0  0  0  0  0
  -28.4453  -25.1997   19.6935 C   0  0  0  0  0  0
  -29.7787  -18.0418   20.5276 C   0  0  1  0  0  0
  -28.0576  -20.1765   20.2335 N   0  0  0  0  0  0
  -26.2343  -20.5568   19.1269 N   0  3  0  0  0  0
  -30.2027  -15.5734   21.3147 N   0  0  0  0  0  0
  -31.4533  -12.4836   19.1112 H   0  0  0  0  0  0
  -30.3397  -11.3818   19.8670 H   0  0  0  0  0  0
  -29.7427  -11.7548   17.4562 H   0  0  0  0  0  0
  -29.6242  -13.4739   17.7217 H   0  0  0  0  0  0
  -27.8476  -11.2956   18.8593 H   0  0  0  0  0  0
  -27.3510  -12.5822   17.7881 H   0  0  0  0  0  0
  -27.6544  -14.2514   19.5075 H   0  0  0  0  0  0
  -28.6891  -12.0720   21.3833 H   0  0  0  0  0  0
  -28.4401  -13.7433   21.8154 H   0  0  0  0  0  0
  -25.2744   -9.5665   22.4759 H   0  0  0  0  0  0
  -24.0000   -7.4605   22.7487 H   0  0  0  0  0  0
  -21.0806   -8.8767   19.8984 H   0  0  0  0  0  0
  -22.3698  -10.9654   19.6184 H   0  0  0  0  0  0
  -21.1962   -7.6131   23.9710 H   0  0  0  0  0  0
  -21.1465   -6.0509   25.9073 H   0  0  0  0  0  0
  -22.0623   -2.7606   23.2842 H   0  0  0  0  0  0
  -22.4010  -11.9930   22.4824 H   0  0  0  0  0  0
  -21.1074  -13.1359   22.2602 H   0  0  0  0  0  0
  -24.6658  -15.8497   20.5098 H   0  0  0  0  0  0
  -26.2800  -15.5961   20.0658 H   0  0  0  0  0  0
  -26.7128  -32.5494   23.1119 H   0  0  0  0  0  0
  -25.0123  -33.9782   25.0513 H   0  0  0  0  0  0
  -22.7042  -31.3112   21.4084 H   0  0  0  0  0  0
  -23.3760  -35.9604   23.3324 H   0  0  0  0  0  0
  -24.3568  -36.8887   22.2045 H   0  0  0  0  0  0
  -23.7222  -37.6501   23.6638 H   0  0  0  0  0  0
  -26.0649  -31.5719   20.5985 H   0  0  0  0  0  0
  -26.8327  -30.8611   21.9887 H   0  0  0  0  0  0
  -28.1054  -29.0282   21.1630 H   0  0  0  0  0  0
  -25.9613  -25.9196   19.0510 H   0  0  0  0  0  0
  -23.9514  -27.2864   19.0639 H   0  0  0  0  0  0
  -23.7505  -30.6046   19.4108 H   0  0  0  0  0  0
  -22.7421  -29.2609   19.8521 H   0  0  0  0  0  0
  -25.1286  -36.1972   25.0842 H   0  0  0  0  0  0
  -20.9960  -28.3246   24.1396 H   0  0  0  0  0  0
  -20.5685  -26.2288   23.3576 H   0  0  0  0  0  0
  -21.6658  -26.7472   22.1174 H   0  0  0  0  0  0
  -19.6917  -25.6293   21.1235 H   0  0  0  0  0  0
  -19.6698  -27.3181   20.6701 H   0  0  0  0  0  0
  -17.4197  -26.6648   21.4028 H   0  0  0  0  0  0
  -18.0362  -26.0060   22.9015 H   0  0  0  0  0  0
  -19.7924  -30.7245   24.2310 H   0  0  0  0  0  0
  -17.5020  -31.6276   24.5136 H   0  0  0  0  0  0
  -15.5358  -30.3005   23.7651 H   0  0  0  0  0  0
  -15.8663  -28.0826   22.7076 H   0  0  0  0  0  0
  -24.5946  -30.7044   25.7808 H   0  0  0  0  0  0
  -24.8983  -32.2818   26.4994 H   0  0  0  0  0  0
  -25.8162  -30.8800   27.0199 H   0  0  0  0  0  0
  -26.2852  -29.6799   24.1200 H   0  0  0  0  0  0
  -27.4165  -29.7307   25.4533 H   0  0  0  0  0  0
  -27.8668  -30.4382   23.9198 H   0  0  0  0  0  0
  -27.2746  -33.3605   26.2084 H   0  0  0  0  0  0
  -28.3888  -32.6865   25.0287 H   0  0  0  0  0  0
  -28.0774  -31.8399   26.5365 H   0  0  0  0  0  0
  -28.2617  -38.0086   24.7516 H   0  0  0  0  0  0
  -28.1066  -36.2624   24.6311 H   0  0  0  0  0  0
  -27.2296  -37.1468   25.8876 H   0  0  0  0  0  0
  -20.9311  -29.8800   21.6932 H   0  0  0  0  0  0
  -26.0188  -38.2872   24.1441 H   0  0  0  0  0  0
  -26.3296  -22.6870   18.9879 H   0  0  0  0  0  0
  -26.7341  -17.7678   20.7071 H   0  0  0  0  0  0
  -27.1002  -17.6149   18.9493 H   0  0  0  0  0  0
  -25.4832  -18.1042   19.4983 H   0  0  0  0  0  0
  -29.2224  -18.0480   18.4068 H   0  0  0  0  0  0
  -30.7199  -17.1986   18.7483 H   0  0  0  0  0  0
  -30.6885  -18.9508   18.7640 H   0  0  0  0  0  0
  -29.7582  -22.7217   20.0141 H   0  0  0  0  0  0
  -29.1876  -22.3261   21.6080 H   0  0  0  0  0  0
  -28.7592  -24.5304   21.6797 H   0  0  0  0  0  0
  -27.1931  -24.0725   21.1161 H   0  0  0  0  0  0
  -29.8584  -20.0872   21.2679 H   0  0  0  0  0  0
  -28.5924  -19.1893   22.0166 H   0  0  0  0  0  0
  -28.5384  -16.2338   20.1883 H   0  0  0  0  0  0
  -28.5842  -16.7503   21.8518 H   0  0  0  0  0  0
  -27.8221  -24.9913   18.8255 H   0  0  0  0  0  0
  -29.4581  -25.0730   19.3137 H   0  0  0  0  0  0
  -30.7510  -18.0859   21.0247 H   0  0  0  0  0  0
  -25.3484  -20.4061   18.6579 H   0  0  0  0  0  0
  -30.9679  -16.0016   21.8167 H   0  0  0  0  0  0
  1 25  1  0  0  0
  1 30  2  0  0  0
  1 84  1  0  0  0
  2  3  1  0  0  0
  2 25  1  0  0  0
  2 85  1  0  0  0
  2 86  1  0  0  0
  3  4  1  0  0  0
  3 87  1  0  0  0
  3 88  1  0  0  0
  4  5  1  0  0  0
  4 89  1  0  0  0
  4 90  1  0  0  0
  5  6  1  0  0  0
  5 26  1  0  0  0
  5 91  1  0  0  0
  6 25  1  0  0  0
  6 92  1  0  0  0
  6 93  1  0  0  0
  7  8  2  0  0  0
  7 26  1  0  0  0
  7 29  1  0  0  0
  8  9  1  0  0  0
  8 22  1  0  0  0
  9 10  1  0  0  0
  9 27  2  0  0  0
 10 11  2  0  0  0
 10 15  1  0  0  0
 11 12  1  0  0  0
 11 94  1  0  0  0
 12 13  2  0  0  0
 12 95  1  0  0  0
 13 14  1  0  0  0
 13 31  1  0  0  0
 14 15  2  0  0  0
 14 96  1  0  0  0
 15 97  1  0  0  0
 16 17  2  0  0  0
 16 21  1  0  0  0
 16 31  1  0  0  0
 17 18  1  0  0  0
 17 98  1  0  0  0
 18 19  2  0  0  0
 18 99  1  0  0  0
 19 20  1  0  0  0
 19 24  1  0  0  0
 20 21  2  0  0  0
 20100  1  0  0  0
 21 23  1  0  0  0
 22 28  1  0  0  0
 22 32  2  0  0  0
 26 27  1  0  0  0
 28101  1  0  0  0
 28102  1  0  0  0
 29103  1  0  0  0
 29104  1  0  0  0
 33 34  1  0  0  0
 33 66  1  0  0  0
 33 70  2  0  0  0
 34 36  1  0  0  0
 34 59  1  0  0  0
 34105  1  0  0  0
 35 44  2  0  0  0
 35 45  1  0  0  0
 35 68  1  0  0  0
 36 56  1  0  0  0
 36106  1  0  0  0
 37 39  1  0  0  0
 37 47  1  0  0  0
 37 66  1  0  0  0
 37107  1  0  0  0
 38 43  2  0  0  0
 38 46  1  0  0  0
 38 47  1  0  0  0
 39 64  1  0  0  0
 39 67  2  0  0  0
 40 52  1  0  0  0
 40 53  2  0  0  0
 40 58  1  0  0  0
 41108  1  0  0  0
 41109  1  0  0  0
 41110  1  0  0  0
 41 48  1  0  0  0
 42 43  1  0  0  0
 42 66  1  0  0  0
 42111  1  0  0  0
 42112  1  0  0  0
 43 44  1  0  0  0
 44113  1  0  0  0
 45 46  2  0  0  0
 45114  1  0  0  0
 46115  1  0  0  0
 47116  1  0  0  0
 47117  1  0  0  0
 48 56  1  0  0  0
 48 65  1  0  0  0
 48118  1  0  0  0
 49 50  1  0  0  0
 49 53  1  0  0  0
 49 64  1  0  0  0
 49119  1  0  0  0
 50 51  1  0  0  0
 50120  1  0  0  0
 50121  1  0  0  0
 51 52  1  0  0  0
 51122  1  0  0  0
 51123  1  0  0  0
 52124  1  0  0  0
 52125  1  0  0  0
 53 54  1  0  0  0
 54 55  2  0  0  0
 54126  1  0  0  0
 55 57  1  0  0  0
 55127  1  0  0  0
 56 69  2  0  0  0
 57 58  2  0  0  0
 57128  1  0  0  0
 58129  1  0  0  0
 59 60  1  0  0  0
 59 61  1  0  0  0
 59 62  1  0  0  0
 60130  1  0  0  0
 60131  1  0  0  0
 60132  1  0  0  0
 61133  1  0  0  0
 61134  1  0  0  0
 61135  1  0  0  0
 62136  1  0  0  0
 62137  1  0  0  0
 62138  1  0  0  0
 63 65  1  0  0  0
 63139  1  0  0  0
 63140  1  0  0  0
 63141  1  0  0  0
 64142  1  0  0  0
 65143  1  0  0  0
 68 80  1  0  0  0
 71 72  2  0  0  0
 71 83  1  0  0  0
 71144  1  0  0  0
 72 76  1  0  0  0
 72 82  1  0  0  0
 73 74  1  0  0  0
 73 82  1  0  0  0
 73 83  2  0  0  0
 74145  1  0  0  0
 74146  1  0  0  0
 74147  1  0  0  0
 75148  1  0  0  0
 75149  1  0  0  0
 75150  1  0  0  0
 75 81  1  0  0  0
 76 77  1  0  0  0
 76151  1  0  0  0
 76152  1  0  0  0
 77 80  1  0  0  0
 77153  1  0  0  0
 77154  1  0  0  0
 78 81  1  0  0  0
 78 82  1  0  0  0
 78155  1  0  0  0
 78156  1  0  0  0
 79 81  1  0  0  0
 79 84  1  0  0  0
 79157  1  0  0  0
 79158  1  0  0  0
 80159  1  0  0  0
 80160  1  0  0  0
 81161  1  0  0  0
 83162  1  0  0  0
 84163  1  0  0  0
M  CHG  1  83   1
M  ISO  4   1 100  68 101  80 101  84 100
M  END
> <chiral flag>
0

> <version>
0

> <s_m_source_file>
/data/baiqing/PycharmProjects/Reinvent-master-3.2/result/LINK_invent/BTK/process_docking_weight1_custom_sum_contain_oxygen_bond_distance_aromatic_linkinvent_7_9_3/rearranged_h_0081.sdf

> <i_m_source_file_index>
19

> <r_mmod_Potential_Energy-OPLS-2005>
14.391580581665

> <r_mmod_Stretch_Energy-OPLS-2005>
70.6563110351562

> <r_mmod_Bend_Energy-OPLS-2005>
175.52067565918

> <r_mmod_Torsional_Energy-OPLS-2005>
286.215057373047

> <r_mmod_Improper_Torsional_Energy-OPLS-2005>
7.4626636505127

> <r_mmod_Van_der_Waal_Energy-OPLS-2005>
109.270606994629

> <r_mmod_Electrostatic_Energy-OPLS-2005>
-231.084915161133

> <r_mmod_Solvation_Energy-OPLS-2005>
-432.997039794922

> <b_mmod_Minimization_Converged-OPLS-2005>
0

> <r_mmod_RMS_Derivative-OPLS-2005>
3.66056418418884

$$$$
19
                    3D
 Structure written by MMmdl.
157165  0  0  1  0            999 V2000
  -30.6714  -14.5074   20.5282 C   0  0  0  0  0  0
  -30.4259  -12.3173   19.4279 C   0  0  0  0  0  0
  -29.5024  -12.5197   18.2047 C   0  0  0  0  0  0
  -28.0174  -12.3840   18.6099 C   0  0  0  0  0  0
  -27.6566  -13.2106   19.8721 C   0  0  2  0  0  0
  -28.6999  -12.9933   20.9920 C   0  0  0  0  0  0
  -25.2584  -13.8120   20.5717 C   0  0  0  0  0  0
  -24.1843  -13.0407   20.9195 C   0  0  0  0  0  0
  -24.6376  -11.6858   20.8692 C   0  0  0  0  0  0
  -23.9021  -10.4255   21.0370 C   0  0  0  0  0  0
  -24.3570   -9.4177   21.9170 C   0  0  0  0  0  0
  -23.6255   -8.2211   22.0757 C   0  0  0  0  0  0
  -22.4244   -8.0246   21.3532 C   0  0  0  0  0  0
  -21.9845   -9.0214   20.4633 C   0  0  0  0  0  0
  -22.7164  -10.2098   20.3049 C   0  0  0  0  0  0
  -21.6840   -6.0713   22.5275 C   0  0  0  0  0  0
  -21.4005   -6.5627   23.8211 C   0  0  0  0  0  0
  -21.3666   -5.6787   24.9169 C   0  0  0  0  0  0
  -21.6050   -4.3049   24.7232 C   0  0  0  0  0  0
  -21.8823   -3.8132   23.4353 C   0  0  0  0  0  0
  -21.9200   -4.6942   22.3407 C   0  0  0  0  0  0
  -22.7866  -13.5191   21.1916 C   0  0  0  0  0  0
  -22.1684   -4.2121   21.0984 F   0  0  0  0  0  0
  -21.5610   -3.4553   25.7756 F   0  0  0  0  0  0
  -30.0289  -13.3094   20.4411 N   0  0  0  0  0  0
  -26.2996  -12.9293   20.3325 N   0  0  0  0  0  0
  -25.9303  -11.6434   20.5691 N   0  0  0  0  0  0
  -22.0471  -12.8198   22.0444 N   0  0  0  0  0  0
  -25.4359  -15.1851   20.4190 N   0  0  0  0  0  0
  -31.8204  -14.6753   20.1099 O   0  0  0  0  0  0
  -21.6616   -6.8845   21.4239 O   0  0  0  0  0  0
  -22.3570  -14.5526   20.6812 O   0  0  0  0  0  0
  -24.6155  -31.8672   23.2014 C   0  0  0  0  0  0
  -25.9034  -32.4826   23.8328 C   0  0  1  0  0  0
  -27.2410  -27.4146   20.1118 C   0  0  0  0  0  0
  -25.5877  -33.8604   24.2306 N   0  0  0  0  0  0
  -23.4032  -30.4873   21.5402 C   0  0  2  0  0  0
  -24.8536  -28.9443   20.1152 C   0  0  0  0  0  0
  -22.7395  -29.4651   22.4917 C   0  0  0  0  0  0
  -18.0277  -28.1388   22.8484 C   0  0  0  0  0  0
  -24.1480  -36.7309   23.2631 C   0  0  0  0  0  0
  -25.9286  -30.8368   21.3447 C   0  0  0  0  0  0
  -26.0131  -29.4616   20.7056 C   0  0  0  0  0  0
  -27.2119  -28.7070   20.6928 C   0  0  0  0  0  0
  -26.0642  -26.9148   19.5193 C   0  0  0  0  0  0
  -24.8757  -27.6717   19.5163 C   0  0  0  0  0  0
  -23.6145  -29.8116   20.1568 C   0  0  0  0  0  0
  -25.4094  -36.3123   24.0359 C   0  0  1  0  0  0
  -20.5876  -28.3677   23.1324 C   0  0  2  0  0  0
  -20.6774  -26.9415   22.5415 C   0  0  0  0  0  0
  -19.5746  -26.6408   21.5209 C   0  0  0  0  0  0
  -18.1926  -26.7933   22.1623 C   0  0  0  0  0  0
  -19.1524  -28.8841   23.2920 C   0  0  0  0  0  0
  -18.9446  -30.1451   23.8930 C   0  0  0  0  0  0
  -17.6452  -30.6595   24.0569 C   0  0  0  0  0  0
  -25.9010  -34.9485   23.5135 C   0  0  0  0  0  0
  -16.5348  -29.9098   23.6310 C   0  0  0  0  0  0
  -16.7271  -28.6513   23.0336 C   0  0  0  0  0  0
  -26.4470  -31.6564   25.0629 C   0  0  0  0  0  0
  -25.3728  -31.3688   26.1367 C   0  0  0  0  0  0
  -27.0234  -30.2986   24.5955 C   0  0  0  0  0  0
  -27.6063  -32.4213   25.7411 C   0  0  0  0  0  0
  -27.5589  -37.1807   24.8461 C   0  0  0  0  0  0
  -21.4111  -29.3064   22.3695 N   0  0  0  0  0  0
  -26.4287  -37.3811   23.9413 N   0  0  0  0  0  0
  -24.6685  -31.0786   22.0877 N   0  0  0  0  0  0
  -23.4170  -28.8215   23.2983 O   0  0  0  0  0  0
  -28.4141  -26.6841   20.0992 O   0  0  0  0  0  0
  -26.5568  -34.8959   22.4700 O   0  0  0  0  0  0
  -23.5349  -32.1386   23.7451 O   0  0  0  0  0  0
  -28.5992  -21.6677   19.7251 C   0  0  0  0  0  0
  -29.2417  -22.9371   19.6852 C   0  0  0  0  0  0
  -29.3939  -20.4933   19.8646 C   0  0  0  0  0  0
  -30.6558  -22.9119   19.8040 C   0  0  0  0  0  0
  -31.5125  -24.1605   19.6734 C   0  0  0  0  0  0
  -28.4684  -24.2482   19.3822 C   0  0  0  0  0  0
  -28.8259  -19.0778   19.6330 C   0  0  0  0  0  0
  -29.0270  -17.9777   20.7290 C   0  0  0  0  0  0
  -30.1945  -16.9655   20.4768 C   0  0  0  0  0  0
  -28.3723  -25.3014   20.5292 C   0  0  0  0  0  0
  -30.7387  -20.5729   20.0085 N   0  0  0  0  0  0
  -31.3520  -21.7605   19.9940 N   0  0  0  0  0  0
  -29.9010  -15.5672   20.8660 N   0  0  0  0  0  0
  -31.4729  -12.4137   19.1353 H   0  0  0  0  0  0
  -30.3179  -11.3050   19.8260 H   0  0  0  0  0  0
  -29.7406  -11.8002   17.4217 H   0  0  0  0  0  0
  -29.6780  -13.5044   17.7689 H   0  0  0  0  0  0
  -27.8206  -11.3265   18.7895 H   0  0  0  0  0  0
  -27.3719  -12.6722   17.7810 H   0  0  0  0  0  0
  -27.6909  -14.2592   19.5798 H   0  0  0  0  0  0
  -28.6783  -11.9530   21.3212 H   0  0  0  0  0  0
  -28.4632  -13.5888   21.8747 H   0  0  0  0  0  0
  -25.2708   -9.5672   22.4749 H   0  0  0  0  0  0
  -23.9980   -7.4587   22.7452 H   0  0  0  0  0  0
  -21.0795   -8.8697   19.8925 H   0  0  0  0  0  0
  -22.3597  -10.9648   19.6169 H   0  0  0  0  0  0
  -21.2011   -7.6128   23.9725 H   0  0  0  0  0  0
  -21.1501   -6.0499   25.9071 H   0  0  0  0  0  0
  -22.0615   -2.7598   23.2850 H   0  0  0  0  0  0
  -22.4025  -11.9854   22.4879 H   0  0  0  0  0  0
  -21.1110  -13.1282   22.2663 H   0  0  0  0  0  0
  -24.6673  -15.8400   20.5201 H   0  0  0  0  0  0
  -26.2899  -15.6193   20.0942 H   0  0  0  0  0  0
  -26.7093  -32.5582   23.1092 H   0  0  0  0  0  0
  -25.0108  -33.9723   25.0513 H   0  0  0  0  0  0
  -22.6932  -31.3035   21.3967 H   0  0  0  0  0  0
  -23.3759  -35.9625   23.3287 H   0  0  0  0  0  0
  -24.3604  -36.8901   22.2044 H   0  0  0  0  0  0
  -23.7199  -37.6520   23.6606 H   0  0  0  0  0  0
  -26.0226  -31.6009   20.5704 H   0  0  0  0  0  0
  -26.8191  -30.9119   21.9560 H   0  0  0  0  0  0
  -28.1088  -29.1080   21.1462 H   0  0  0  0  0  0
  -26.0635  -25.9455   19.0446 H   0  0  0  0  0  0
  -23.9875  -27.2713   19.0478 H   0  0  0  0  0  0
  -23.7188  -30.5774   19.3870 H   0  0  0  0  0  0
  -22.7387  -29.2280   19.8695 H   0  0  0  0  0  0
  -25.1285  -36.1992   25.0862 H   0  0  0  0  0  0
  -20.9999  -28.3253   24.1438 H   0  0  0  0  0  0
  -20.5670  -26.2284   23.3608 H   0  0  0  0  0  0
  -21.6647  -26.7458   22.1221 H   0  0  0  0  0  0
  -19.6903  -25.6324   21.1225 H   0  0  0  0  0  0
  -19.6686  -27.3216   20.6741 H   0  0  0  0  0  0
  -17.4202  -26.6676   21.4030 H   0  0  0  0  0  0
  -18.0336  -26.0088   22.9036 H   0  0  0  0  0  0
  -19.7925  -30.7254   24.2306 H   0  0  0  0  0  0
  -17.5011  -31.6264   24.5182 H   0  0  0  0  0  0
  -15.5344  -30.3022   23.7600 H   0  0  0  0  0  0
  -15.8676  -28.0848   22.7029 H   0  0  0  0  0  0
  -24.5943  -30.6982   25.7711 H   0  0  0  0  0  0
  -24.8891  -32.2861   26.4728 H   0  0  0  0  0  0
  -25.8104  -30.8937   27.0150 H   0  0  0  0  0  0
  -26.2749  -29.6813   24.0964 H   0  0  0  0  0  0
  -27.3941  -29.7158   25.4394 H   0  0  0  0  0  0
  -27.8621  -30.4279   23.9104 H   0  0  0  0  0  0
  -27.2714  -33.3515   26.2005 H   0  0  0  0  0  0
  -28.3900  -32.6712   25.0245 H   0  0  0  0  0  0
  -28.0669  -31.8277   26.5322 H   0  0  0  0  0  0
  -28.2615  -38.0108   24.7576 H   0  0  0  0  0  0
  -28.1097  -36.2659   24.6215 H   0  0  0  0  0  0
  -27.2330  -37.1368   25.8872 H   0  0  0  0  0  0
  -20.9214  -29.8810   21.6964 H   0  0  0  0  0  0
  -26.0197  -38.2902   24.1427 H   0  0  0  0  0  0
  -27.5329  -21.5885   19.5689 H   0  0  0  0  0  0
  -31.2483  -24.7380   18.7875 H   0  0  0  0  0  0
  -32.5697  -23.9022   19.5849 H   0  0  0  0  0  0
  -31.3987  -24.8057   20.5421 H   0  0  0  0  0  0
  -27.4620  -24.0017   19.0418 H   0  0  0  0  0  0
  -28.9528  -24.7137   18.5240 H   0  0  0  0  0  0
  -29.2162  -18.7132   18.6821 H   0  0  0  0  0  0
  -27.7536  -19.1863   19.4677 H   0  0  0  0  0  0
  -28.0989  -17.4056   20.7428 H   0  0  0  0  0  0
  -29.0904  -18.4267   21.7205 H   0  0  0  0  0  0
  -30.4295  -16.9447   19.4107 H   0  0  0  0  0  0
  -31.1052  -17.3039   20.9742 H   0  0  0  0  0  0
  -29.2340  -25.1848   21.1849 H   0  0  0  0  0  0
  -27.5125  -25.0989   21.1688 H   0  0  0  0  0  0
  -28.9687  -15.3613   21.1928 H   0  0  0  0  0  0
  1 25  1  0  0  0
  1 30  2  0  0  0
  1 83  1  0  0  0
  2  3  1  0  0  0
  2 25  1  0  0  0
  2 84  1  0  0  0
  2 85  1  0  0  0
  3  4  1  0  0  0
  3 86  1  0  0  0
  3 87  1  0  0  0
  4  5  1  0  0  0
  4 88  1  0  0  0
  4 89  1  0  0  0
  5  6  1  0  0  0
  5 26  1  0  0  0
  5 90  1  0  0  0
  6 25  1  0  0  0
  6 91  1  0  0  0
  6 92  1  0  0  0
  7  8  2  0  0  0
  7 26  1  0  0  0
  7 29  1  0  0  0
  8  9  1  0  0  0
  8 22  1  0  0  0
  9 10  1  0  0  0
  9 27  2  0  0  0
 10 11  2  0  0  0
 10 15  1  0  0  0
 11 12  1  0  0  0
 11 93  1  0  0  0
 12 13  2  0  0  0
 12 94  1  0  0  0
 13 14  1  0  0  0
 13 31  1  0  0  0
 14 15  2  0  0  0
 14 95  1  0  0  0
 15 96  1  0  0  0
 16 17  2  0  0  0
 16 21  1  0  0  0
 16 31  1  0  0  0
 17 18  1  0  0  0
 17 97  1  0  0  0
 18 19  2  0  0  0
 18 98  1  0  0  0
 19 20  1  0  0  0
 19 24  1  0  0  0
 20 21  2  0  0  0
 20 99  1  0  0  0
 21 23  1  0  0  0
 22 28  1  0  0  0
 22 32  2  0  0  0
 26 27  1  0  0  0
 28100  1  0  0  0
 28101  1  0  0  0
 29102  1  0  0  0
 29103  1  0  0  0
 33 34  1  0  0  0
 33 66  1  0  0  0
 33 70  2  0  0  0
 34 36  1  0  0  0
 34 59  1  0  0  0
 34104  1  0  0  0
 35 44  2  0  0  0
 35 45  1  0  0  0
 35 68  1  0  0  0
 36 56  1  0  0  0
 36105  1  0  0  0
 37 39  1  0  0  0
 37 47  1  0  0  0
 37 66  1  0  0  0
 37106  1  0  0  0
 38 43  2  0  0  0
 38 46  1  0  0  0
 38 47  1  0  0  0
 39 64  1  0  0  0
 39 67  2  0  0  0
 40 52  1  0  0  0
 40 53  2  0  0  0
 40 58  1  0  0  0
 41107  1  0  0  0
 41108  1  0  0  0
 41109  1  0  0  0
 41 48  1  0  0  0
 42 43  1  0  0  0
 42 66  1  0  0  0
 42110  1  0  0  0
 42111  1  0  0  0
 43 44  1  0  0  0
 44112  1  0  0  0
 45 46  2  0  0  0
 45113  1  0  0  0
 46114  1  0  0  0
 47115  1  0  0  0
 47116  1  0  0  0
 48 56  1  0  0  0
 48 65  1  0  0  0
 48117  1  0  0  0
 49 50  1  0  0  0
 49 53  1  0  0  0
 49 64  1  0  0  0
 49118  1  0  0  0
 50 51  1  0  0  0
 50119  1  0  0  0
 50120  1  0  0  0
 51 52  1  0  0  0
 51121  1  0  0  0
 51122  1  0  0  0
 52123  1  0  0  0
 52124  1  0  0  0
 53 54  1  0  0  0
 54 55  2  0  0  0
 54125  1  0  0  0
 55 57  1  0  0  0
 55126  1  0  0  0
 56 69  2  0  0  0
 57 58  2  0  0  0
 57127  1  0  0  0
 58128  1  0  0  0
 59 60  1  0  0  0
 59 61  1  0  0  0
 59 62  1  0  0  0
 60129  1  0  0  0
 60130  1  0  0  0
 60131  1  0  0  0
 61132  1  0  0  0
 61133  1  0  0  0
 61134  1  0  0  0
 62135  1  0  0  0
 62136  1  0  0  0
 62137  1  0  0  0
 63 65  1  0  0  0
 63138  1  0  0  0
 63139  1  0  0  0
 63140  1  0  0  0
 64141  1  0  0  0
 65142  1  0  0  0
 68 80  1  0  0  0
 71 72  2  0  0  0
 71 73  1  0  0  0
 71143  1  0  0  0
 72 74  1  0  0  0
 72 76  1  0  0  0
 73 77  1  0  0  0
 73 81  2  0  0  0
 74 75  1  0  0  0
 74 82  2  0  0  0
 75144  1  0  0  0
 75145  1  0  0  0
 75146  1  0  0  0
 76 80  1  0  0  0
 76147  1  0  0  0
 76148  1  0  0  0
 77 78  1  0  0  0
 77149  1  0  0  0
 77150  1  0  0  0
 78 79  1  0  0  0
 78151  1  0  0  0
 78152  1  0  0  0
 79 83  1  0  0  0
 79153  1  0  0  0
 79154  1  0  0  0
 80155  1  0  0  0
 80156  1  0  0  0
 81 82  1  0  0  0
 83157  1  0  0  0
M  ISO  4   1 100  68 101  80 101  83 100
M  END
> <chiral flag>
0

> <version>
0

> <s_m_source_file>
/data/baiqing/PycharmProjects/Reinvent-master-3.2/result/LINK_invent/BTK/process_docking_weight1_custom_sum_contain_oxygen_bond_distance_aromatic_linkinvent_7_9_3/rearranged_h_0081.sdf

> <i_m_source_file_index>
20

> <r_mmod_Potential_Energy-OPLS-2005>
-50.1469421386719

> <r_mmod_Stretch_Energy-OPLS-2005>
48.5667762756348

> <r_mmod_Bend_Energy-OPLS-2005>
109.804321289062

> <r_mmod_Torsional_Energy-OPLS-2005>
237.712982177734

> <r_mmod_Improper_Torsional_Energy-OPLS-2005>
7.85569667816162

> <r_mmod_Van_der_Waal_Energy-OPLS-2005>
146.676147460938

> <r_mmod_Electrostatic_Energy-OPLS-2005>
-376.623687744141

> <r_mmod_Solvation_Energy-OPLS-2005>
-240.398178100586

> <b_mmod_Minimization_Converged-OPLS-2005>
0

> <r_mmod_RMS_Derivative-OPLS-2005>
4.27861166000366

$$$$
20
                    3D
 Structure written by MMmdl.
164172  0  0  1  0            999 V2000
  -30.6220  -14.7208   20.4693 C   0  0  0  0  0  0
  -30.4305  -12.4404   19.4729 C   0  0  0  0  0  0
  -29.5102  -12.4997   18.2341 C   0  0  0  0  0  0
  -28.0378  -12.3217   18.6508 C   0  0  0  0  0  0
  -27.6417  -13.2272   19.8479 C   0  0  2  0  0  0
  -28.6832  -13.1606   20.9861 C   0  0  0  0  0  0
  -25.2506  -13.8198   20.5675 C   0  0  0  0  0  0
  -24.1797  -13.0444   20.9191 C   0  0  0  0  0  0
  -24.6381  -11.6918   20.8728 C   0  0  0  0  0  0
  -23.9064  -10.4295   21.0397 C   0  0  0  0  0  0
  -24.3619   -9.4212   21.9174 C   0  0  0  0  0  0
  -23.6287   -8.2246   22.0761 C   0  0  0  0  0  0
  -22.4266   -8.0287   21.3553 C   0  0  0  0  0  0
  -21.9897   -9.0261   20.4656 C   0  0  0  0  0  0
  -22.7233  -10.2138   20.3054 C   0  0  0  0  0  0
  -21.6858   -6.0729   22.5278 C   0  0  0  0  0  0
  -21.4023   -6.5636   23.8209 C   0  0  0  0  0  0
  -21.3655   -5.6789   24.9171 C   0  0  0  0  0  0
  -21.6039   -4.3050   24.7219 C   0  0  0  0  0  0
  -21.8819   -3.8143   23.4339 C   0  0  0  0  0  0
  -21.9200   -4.6961   22.3399 C   0  0  0  0  0  0
  -22.7814  -13.5232   21.1849 C   0  0  0  0  0  0
  -22.1661   -4.2149   21.0973 F   0  0  0  0  0  0
  -21.5626   -3.4537   25.7731 F   0  0  0  0  0  0
  -29.9876  -13.5016   20.4066 N   0  0  0  0  0  0
  -26.2931  -12.9392   20.3244 N   0  0  0  0  0  0
  -25.9305  -11.6541   20.5723 N   0  0  0  0  0  0
  -22.0455  -12.8244   22.0414 N   0  0  0  0  0  0
  -25.4198  -15.1922   20.4098 N   0  0  0  0  0  0
  -31.8099  -14.8110   20.1504 O   0  0  0  0  0  0
  -21.6640   -6.8878   21.4238 O   0  0  0  0  0  0
  -22.3489  -14.5527   20.6691 O   0  0  0  0  0  0
  -24.6297  -31.8563   23.2002 C   0  0  0  0  0  0
  -25.9126  -32.4762   23.8342 C   0  0  1  0  0  0
  -27.2162  -27.2712   20.1366 C   0  0  0  0  0  0
  -25.5928  -33.8565   24.2275 N   0  0  0  0  0  0
  -23.4257  -30.4795   21.5434 C   0  0  2  0  0  0
  -24.8723  -28.9255   20.1146 C   0  0  0  0  0  0
  -22.7486  -29.4609   22.4918 C   0  0  0  0  0  0
  -18.0286  -28.1386   22.8482 C   0  0  0  0  0  0
  -24.1488  -36.7282   23.2640 C   0  0  0  0  0  0
  -25.9706  -30.7738   21.3778 C   0  0  0  0  0  0
  -26.0438  -29.3961   20.7223 C   0  0  0  0  0  0
  -27.2203  -28.5819   20.7198 C   0  0  0  0  0  0
  -26.0262  -26.8688   19.4920 C   0  0  0  0  0  0
  -24.8681  -27.6692   19.4897 C   0  0  0  0  0  0
  -23.6441  -29.8133   20.1597 C   0  0  0  0  0  0
  -25.4113  -36.3074   24.0333 C   0  0  1  0  0  0
  -20.5890  -28.3697   23.1268 C   0  0  2  0  0  0
  -20.6781  -26.9417   22.5405 C   0  0  0  0  0  0
  -19.5759  -26.6385   21.5208 C   0  0  0  0  0  0
  -18.1935  -26.7928   22.1617 C   0  0  0  0  0  0
  -19.1539  -28.8859   23.2873 C   0  0  0  0  0  0
  -18.9465  -30.1456   23.8897 C   0  0  0  0  0  0
  -17.6466  -30.6591   24.0563 C   0  0  0  0  0  0
  -25.9050  -34.9444   23.5110 C   0  0  0  0  0  0
  -16.5357  -29.9090   23.6327 C   0  0  0  0  0  0
  -16.7274  -28.6506   23.0353 C   0  0  0  0  0  0
  -26.4499  -31.6583   25.0725 C   0  0  0  0  0  0
  -25.3722  -31.3739   26.1451 C   0  0  0  0  0  0
  -27.0353  -30.3004   24.6207 C   0  0  0  0  0  0
  -27.6057  -32.4320   25.7492 C   0  0  0  0  0  0
  -27.5579  -37.1794   24.8464 C   0  0  0  0  0  0
  -21.4194  -29.3046   22.3653 N   0  0  0  0  0  0
  -26.4287  -37.3773   23.9413 N   0  0  0  0  0  0
  -24.6942  -31.0541   22.0970 N   0  0  0  0  0  0
  -23.4193  -28.8150   23.3007 O   0  0  0  0  0  0
  -28.3192  -26.3921   20.1591 O   0  0  0  0  0  0
  -26.5619  -34.8917   22.4674 O   0  0  0  0  0  0
  -23.5450  -32.1377   23.7305 O   0  0  0  0  0  0
  -30.1896  -21.7313   18.0326 C   0  0  0  0  0  0
  -30.7066  -20.9584   16.9834 C   0  0  0  0  0  0
  -29.6310  -21.1564   19.2073 C   0  0  0  0  0  0
  -30.6478  -19.5694   17.1015 C   0  0  0  0  0  0
  -29.7355  -19.6813   19.2761 C   0  0  0  0  0  0
  -31.2837  -21.6261   15.7458 C   0  0  0  0  0  0
  -31.1314  -18.6349   16.0081 C   0  0  0  0  0  0
  -30.5552  -24.2553   20.2603 C   0  0  0  0  0  0
  -28.9429  -22.2178   20.1894 C   0  0  0  0  0  0
  -29.3253  -18.5860   20.3482 C   0  0  0  0  0  0
  -30.3437  -17.3159   20.5535 C   0  0  0  0  0  0
  -28.1102  -24.9396   20.4975 C   0  0  0  0  0  0
  -29.1186  -23.8314   19.9029 C   0  0  1  0  0  0
  -30.1729  -18.9827   18.2032 N   0  0  0  0  0  0
  -29.8677  -15.8643   20.6833 N   0  0  0  0  0  0
  -31.4730  -12.5577   19.1719 H   0  0  0  0  0  0
  -30.3692  -11.4625   19.9535 H   0  0  0  0  0  0
  -29.7912  -11.7280   17.5166 H   0  0  0  0  0  0
  -29.6371  -13.4538   17.7217 H   0  0  0  0  0  0
  -27.9037  -11.2748   18.9246 H   0  0  0  0  0  0
  -27.3763  -12.4990   17.8017 H   0  0  0  0  0  0
  -27.6398  -14.2473   19.4637 H   0  0  0  0  0  0
  -28.7099  -12.1656   21.4323 H   0  0  0  0  0  0
  -28.4185  -13.8490   21.7907 H   0  0  0  0  0  0
  -25.2761   -9.5688   22.4743 H   0  0  0  0  0  0
  -24.0003   -7.4638   22.7470 H   0  0  0  0  0  0
  -21.0835   -8.8775   19.8955 H   0  0  0  0  0  0
  -22.3688  -10.9673   19.6161 H   0  0  0  0  0  0
  -21.2026   -7.6147   23.9716 H   0  0  0  0  0  0
  -21.1465   -6.0515   25.9075 H   0  0  0  0  0  0
  -22.0605   -2.7609   23.2837 H   0  0  0  0  0  0
  -22.4082  -11.9923   22.4828 H   0  0  0  0  0  0
  -21.1071  -13.1259   22.2614 H   0  0  0  0  0  0
  -24.6496  -15.8440   20.5172 H   0  0  0  0  0  0
  -26.2627  -15.6304   20.0606 H   0  0  0  0  0  0
  -26.7188  -32.5422   23.1080 H   0  0  0  0  0  0
  -25.0061  -33.9704   25.0416 H   0  0  0  0  0  0
  -22.7225  -31.3018   21.3976 H   0  0  0  0  0  0
  -23.3755  -35.9607   23.3292 H   0  0  0  0  0  0
  -24.3584  -36.8913   22.2056 H   0  0  0  0  0  0
  -23.7235  -37.6481   23.6667 H   0  0  0  0  0  0
  -26.1066  -31.5340   20.6073 H   0  0  0  0  0  0
  -26.8495  -30.8245   22.0093 H   0  0  0  0  0  0
  -28.1202  -28.9387   21.2022 H   0  0  0  0  0  0
  -25.9751  -25.9166   18.9839 H   0  0  0  0  0  0
  -23.9715  -27.3059   19.0064 H   0  0  0  0  0  0
  -23.7723  -30.5905   19.4051 H   0  0  0  0  0  0
  -22.7619  -29.2483   19.8518 H   0  0  0  0  0  0
  -25.1290  -36.1922   25.0824 H   0  0  0  0  0  0
  -20.9983  -28.3280   24.1390 H   0  0  0  0  0  0
  -20.5681  -26.2306   23.3607 H   0  0  0  0  0  0
  -21.6650  -26.7442   22.1203 H   0  0  0  0  0  0
  -19.6923  -25.6295   21.1245 H   0  0  0  0  0  0
  -19.6702  -27.3187   20.6732 H   0  0  0  0  0  0
  -17.4203  -26.6663   21.4024 H   0  0  0  0  0  0
  -18.0344  -26.0077   22.9020 H   0  0  0  0  0  0
  -19.7944  -30.7266   24.2276 H   0  0  0  0  0  0
  -17.5026  -31.6272   24.5156 H   0  0  0  0  0  0
  -15.5361  -30.2995   23.7661 H   0  0  0  0  0  0
  -15.8670  -28.0827   22.7078 H   0  0  0  0  0  0
  -24.5892  -30.7093   25.7784 H   0  0  0  0  0  0
  -24.8919  -32.2912   26.4864 H   0  0  0  0  0  0
  -25.8035  -30.8924   27.0236 H   0  0  0  0  0  0
  -26.2945  -29.6742   24.1222 H   0  0  0  0  0  0
  -27.4034  -29.7274   25.4728 H   0  0  0  0  0  0
  -27.8817  -30.4290   23.9457 H   0  0  0  0  0  0
  -27.2674  -33.3623   26.2065 H   0  0  0  0  0  0
  -28.3866  -32.6872   25.0315 H   0  0  0  0  0  0
  -28.0726  -31.8446   26.5410 H   0  0  0  0  0  0
  -28.2592  -38.0096   24.7516 H   0  0  0  0  0  0
  -28.1080  -36.2628   24.6277 H   0  0  0  0  0  0
  -27.2298  -37.1428   25.8868 H   0  0  0  0  0  0
  -20.9377  -29.8765   21.6860 H   0  0  0  0  0  0
  -26.0165  -38.2844   24.1424 H   0  0  0  0  0  0
  -30.2317  -22.7931   17.8721 H   0  0  0  0  0  0
  -31.4446  -22.6939   15.9027 H   0  0  0  0  0  0
  -30.6066  -21.5061   14.8993 H   0  0  0  0  0  0
  -32.2438  -21.1823   15.4797 H   0  0  0  0  0  0
  -32.2201  -18.6347   15.9631 H   0  0  0  0  0  0
  -30.7434  -18.9393   15.0362 H   0  0  0  0  0  0
  -30.8046  -17.6093   16.1843 H   0  0  0  0  0  0
  -31.3005  -23.6159   19.7893 H   0  0  0  0  0  0
  -30.7191  -24.2060   21.3372 H   0  0  0  0  0  0
  -30.7576  -25.2800   19.9463 H   0  0  0  0  0  0
  -29.2686  -21.9973   21.2063 H   0  0  0  0  0  0
  -27.8757  -21.9933   20.1770 H   0  0  0  0  0  0
  -28.3488  -18.2061   20.0476 H   0  0  0  0  0  0
  -29.1614  -19.0828   21.3044 H   0  0  0  0  0  0
  -30.9585  -17.5344   21.4266 H   0  0  0  0  0  0
  -31.0663  -17.3016   19.7390 H   0  0  0  0  0  0
  -28.1440  -24.8741   21.5854 H   0  0  0  0  0  0
  -27.1030  -24.6174   20.2414 H   0  0  0  0  0  0
  -28.9559  -23.9931   18.8405 H   0  0  0  0  0  0
  -28.8907  -15.7212   20.8914 H   0  0  0  0  0  0
  1 25  1  0  0  0
  1 30  2  0  0  0
  1 85  1  0  0  0
  2  3  1  0  0  0
  2 25  1  0  0  0
  2 86  1  0  0  0
  2 87  1  0  0  0
  3  4  1  0  0  0
  3 88  1  0  0  0
  3 89  1  0  0  0
  4  5  1  0  0  0
  4 90  1  0  0  0
  4 91  1  0  0  0
  5  6  1  0  0  0
  5 26  1  0  0  0
  5 92  1  0  0  0
  6 25  1  0  0  0
  6 93  1  0  0  0
  6 94  1  0  0  0
  7  8  2  0  0  0
  7 26  1  0  0  0
  7 29  1  0  0  0
  8  9  1  0  0  0
  8 22  1  0  0  0
  9 10  1  0  0  0
  9 27  2  0  0  0
 10 11  2  0  0  0
 10 15  1  0  0  0
 11 12  1  0  0  0
 11 95  1  0  0  0
 12 13  2  0  0  0
 12 96  1  0  0  0
 13 14  1  0  0  0
 13 31  1  0  0  0
 14 15  2  0  0  0
 14 97  1  0  0  0
 15 98  1  0  0  0
 16 17  2  0  0  0
 16 21  1  0  0  0
 16 31  1  0  0  0
 17 18  1  0  0  0
 17 99  1  0  0  0
 18 19  2  0  0  0
 18100  1  0  0  0
 19 20  1  0  0  0
 19 24  1  0  0  0
 20 21  2  0  0  0
 20101  1  0  0  0
 21 23  1  0  0  0
 22 28  1  0  0  0
 22 32  2  0  0  0
 26 27  1  0  0  0
 28102  1  0  0  0
 28103  1  0  0  0
 29104  1  0  0  0
 29105  1  0  0  0
 33 34  1  0  0  0
 33 66  1  0  0  0
 33 70  2  0  0  0
 34 36  1  0  0  0
 34 59  1  0  0  0
 34106  1  0  0  0
 35 44  2  0  0  0
 35 45  1  0  0  0
 35 68  1  0  0  0
 36 56  1  0  0  0
 36107  1  0  0  0
 37 39  1  0  0  0
 37 47  1  0  0  0
 37 66  1  0  0  0
 37108  1  0  0  0
 38 43  2  0  0  0
 38 46  1  0  0  0
 38 47  1  0  0  0
 39 64  1  0  0  0
 39 67  2  0  0  0
 40 52  1  0  0  0
 40 53  2  0  0  0
 40 58  1  0  0  0
 41109  1  0  0  0
 41110  1  0  0  0
 41111  1  0  0  0
 41 48  1  0  0  0
 42 43  1  0  0  0
 42 66  1  0  0  0
 42112  1  0  0  0
 42113  1  0  0  0
 43 44  1  0  0  0
 44114  1  0  0  0
 45 46  2  0  0  0
 45115  1  0  0  0
 46116  1  0  0  0
 47117  1  0  0  0
 47118  1  0  0  0
 48 56  1  0  0  0
 48 65  1  0  0  0
 48119  1  0  0  0
 49 50  1  0  0  0
 49 53  1  0  0  0
 49 64  1  0  0  0
 49120  1  0  0  0
 50 51  1  0  0  0
 50121  1  0  0  0
 50122  1  0  0  0
 51 52  1  0  0  0
 51123  1  0  0  0
 51124  1  0  0  0
 52125  1  0  0  0
 52126  1  0  0  0
 53 54  1  0  0  0
 54 55  2  0  0  0
 54127  1  0  0  0
 55 57  1  0  0  0
 55128  1  0  0  0
 56 69  2  0  0  0
 57 58  2  0  0  0
 57129  1  0  0  0
 58130  1  0  0  0
 59 60  1  0  0  0
 59 61  1  0  0  0
 59 62  1  0  0  0
 60131  1  0  0  0
 60132  1  0  0  0
 60133  1  0  0  0
 61134  1  0  0  0
 61135  1  0  0  0
 61136  1  0  0  0
 62137  1  0  0  0
 62138  1  0  0  0
 62139  1  0  0  0
 63 65  1  0  0  0
 63140  1  0  0  0
 63141  1  0  0  0
 63142  1  0  0  0
 64143  1  0  0  0
 65144  1  0  0  0
 68 82  1  0  0  0
 71 72  2  0  0  0
 71 73  1  0  0  0
 71145  1  0  0  0
 72 74  1  0  0  0
 72 76  1  0  0  0
 73 75  2  0  0  0
 73 79  1  0  0  0
 74 77  1  0  0  0
 74 84  2  0  0  0
 75 80  1  0  0  0
 75 84  1  0  0  0
 76146  1  0  0  0
 76147  1  0  0  0
 76148  1  0  0  0
 77149  1  0  0  0
 77150  1  0  0  0
 77151  1  0  0  0
 78152  1  0  0  0
 78153  1  0  0  0
 78154  1  0  0  0
 78 83  1  0  0  0
 79 83  1  0  0  0
 79155  1  0  0  0
 79156  1  0  0  0
 80 81  1  0  0  0
 80157  1  0  0  0
 80158  1  0  0  0
 81 85  1  0  0  0
 81159  1  0  0  0
 81160  1  0  0  0
 82 83  1  0  0  0
 82161  1  0  0  0
 82162  1  0  0  0
 83163  1  0  0  0
 85164  1  0  0  0
M  ISO  4   1 100  68 101  82 101  85 100
M  END
> <chiral flag>
0

> <version>
0

> <s_m_source_file>
/data/baiqing/PycharmProjects/Reinvent-master-3.2/result/LINK_invent/BTK/process_docking_weight1_custom_sum_contain_oxygen_bond_distance_aromatic_linkinvent_7_9_3/rearranged_h_0081.sdf

> <i_m_source_file_index>
21

> <r_mmod_Potential_Energy-OPLS-2005>
66.6681442260742

> <r_mmod_Stretch_Energy-OPLS-2005>
139.746353149414

> <r_mmod_Bend_Energy-OPLS-2005>
204.954376220703

> <r_mmod_Torsional_Energy-OPLS-2005>
232.299270629883

> <r_mmod_Improper_Torsional_Energy-OPLS-2005>
4.95548963546753

> <r_mmod_Van_der_Waal_Energy-OPLS-2005>
153.541000366211

> <r_mmod_Electrostatic_Energy-OPLS-2005>
-521.289916992188

> <r_mmod_Solvation_Energy-OPLS-2005>
-223.947021484375

> <b_mmod_Minimization_Converged-OPLS-2005>
0

> <r_mmod_RMS_Derivative-OPLS-2005>
1.6733980178833

$$$$
21
                    3D
 Structure written by MMmdl.
163171  0  0  1  0            999 V2000
  -30.6492  -14.6937   20.4482 C   0  0  0  0  0  0
  -30.4268  -12.4163   19.4707 C   0  0  0  0  0  0
  -29.5098  -12.4906   18.2306 C   0  0  0  0  0  0
  -28.0312  -12.3410   18.6404 C   0  0  0  0  0  0
  -27.6448  -13.2327   19.8511 C   0  0  2  0  0  0
  -28.6928  -13.1561   20.9834 C   0  0  0  0  0  0
  -25.2517  -13.8202   20.5693 C   0  0  0  0  0  0
  -24.1816  -13.0446   20.9225 C   0  0  0  0  0  0
  -24.6404  -11.6928   20.8752 C   0  0  0  0  0  0
  -23.9071  -10.4304   21.0410 C   0  0  0  0  0  0
  -24.3614   -9.4214   21.9184 C   0  0  0  0  0  0
  -23.6293   -8.2247   22.0745 C   0  0  0  0  0  0
  -22.4276   -8.0276   21.3541 C   0  0  0  0  0  0
  -21.9923   -9.0251   20.4636 C   0  0  0  0  0  0
  -22.7248  -10.2137   20.3049 C   0  0  0  0  0  0
  -21.6867   -6.0735   22.5272 C   0  0  0  0  0  0
  -21.4016   -6.5635   23.8205 C   0  0  0  0  0  0
  -21.3665   -5.6783   24.9166 C   0  0  0  0  0  0
  -21.6044   -4.3045   24.7223 C   0  0  0  0  0  0
  -21.8818   -3.8144   23.4346 C   0  0  0  0  0  0
  -21.9192   -4.6963   22.3403 C   0  0  0  0  0  0
  -22.7830  -13.5225   21.1874 C   0  0  0  0  0  0
  -22.1665   -4.2145   21.0986 F   0  0  0  0  0  0
  -21.5633   -3.4534   25.7740 F   0  0  0  0  0  0
  -29.9973  -13.4861   20.3961 N   0  0  0  0  0  0
  -26.2952  -12.9416   20.3291 N   0  0  0  0  0  0
  -25.9334  -11.6563   20.5759 N   0  0  0  0  0  0
  -22.0468  -12.8211   22.0418 N   0  0  0  0  0  0
  -25.4203  -15.1922   20.4077 N   0  0  0  0  0  0
  -31.8522  -14.7540   20.1818 O   0  0  0  0  0  0
  -21.6642   -6.8875   21.4232 O   0  0  0  0  0  0
  -22.3520  -14.5541   20.6723 O   0  0  0  0  0  0
  -24.6284  -31.8550   23.1997 C   0  0  0  0  0  0
  -25.9109  -32.4753   23.8356 C   0  0  1  0  0  0
  -27.2237  -27.2724   20.1287 C   0  0  0  0  0  0
  -25.5916  -33.8563   24.2289 N   0  0  0  0  0  0
  -23.4270  -30.4771   21.5424 C   0  0  2  0  0  0
  -24.8781  -28.9295   20.1080 C   0  0  0  0  0  0
  -22.7508  -29.4562   22.4914 C   0  0  0  0  0  0
  -18.0284  -28.1379   22.8477 C   0  0  0  0  0  0
  -24.1480  -36.7282   23.2646 C   0  0  0  0  0  0
  -25.9715  -30.7710   21.3815 C   0  0  0  0  0  0
  -26.0467  -29.3948   20.7233 C   0  0  0  0  0  0
  -27.2211  -28.5769   20.7264 C   0  0  0  0  0  0
  -26.0376  -26.8838   19.4641 C   0  0  0  0  0  0
  -24.8794  -27.6831   19.4647 C   0  0  0  0  0  0
  -23.6455  -29.8100   20.1597 C   0  0  0  0  0  0
  -25.4118  -36.3077   24.0330 C   0  0  1  0  0  0
  -20.5896  -28.3660   23.1297 C   0  0  2  0  0  0
  -20.6768  -26.9380   22.5419 C   0  0  0  0  0  0
  -19.5745  -26.6373   21.5220 C   0  0  0  0  0  0
  -18.1914  -26.7927   22.1617 C   0  0  0  0  0  0
  -19.1546  -28.8834   23.2870 C   0  0  0  0  0  0
  -18.9465  -30.1442   23.8872 C   0  0  0  0  0  0
  -17.6467  -30.6579   24.0553 C   0  0  0  0  0  0
  -25.9047  -34.9439   23.5115 C   0  0  0  0  0  0
  -16.5356  -29.9063   23.6354 C   0  0  0  0  0  0
  -16.7267  -28.6494   23.0347 C   0  0  0  0  0  0
  -26.4470  -31.6592   25.0742 C   0  0  0  0  0  0
  -25.3684  -31.3718   26.1464 C   0  0  0  0  0  0
  -27.0325  -30.3035   24.6194 C   0  0  0  0  0  0
  -27.6055  -32.4320   25.7489 C   0  0  0  0  0  0
  -27.5556  -37.1790   24.8467 C   0  0  0  0  0  0
  -21.4213  -29.3004   22.3673 N   0  0  0  0  0  0
  -26.4280  -37.3783   23.9401 N   0  0  0  0  0  0
  -24.6951  -31.0505   22.0988 N   0  0  0  0  0  0
  -23.4210  -28.8099   23.3001 O   0  0  0  0  0  0
  -28.3220  -26.3862   20.2134 O   0  0  0  0  0  0
  -26.5637  -34.8926   22.4691 O   0  0  0  0  0  0
  -23.5435  -32.1374   23.7296 O   0  0  0  0  0  0
  -30.0703  -21.6522   22.5714 C   0  0  0  0  0  0
  -29.4941  -21.1707   21.3580 C   0  0  0  0  0  0
  -30.3101  -20.6224   23.4210 C   0  0  0  0  0  0
  -29.5857  -19.7489   21.4427 C   0  0  0  0  0  0
  -30.7839  -20.6423   24.8414 C   0  0  0  0  0  0
  -30.9485  -17.4861   18.9454 C   0  0  0  0  0  0
  -30.0464  -18.1403   23.3921 C   0  0  0  0  0  0
  -28.9059  -22.2226   20.3281 C   0  0  0  0  0  0
  -29.2433  -18.4905   20.5675 C   0  0  0  0  0  0
  -29.0386  -23.8093   20.6801 C   0  0  0  0  0  0
  -28.1464  -24.9211   19.9317 C   0  0  0  0  0  0
  -30.3369  -17.3063   20.3522 C   0  0  1  0  0  0
  -29.9838  -19.4585   22.7578 N   0  0  0  0  0  0
  -29.9006  -15.8517   20.5552 N   0  0  0  0  0  0
  -31.4716  -12.5184   19.1729 H   0  0  0  0  0  0
  -30.3484  -11.4415   19.9540 H   0  0  0  0  0  0
  -29.7802  -11.7104   17.5172 H   0  0  0  0  0  0
  -29.6596  -13.4423   17.7169 H   0  0  0  0  0  0
  -27.8652  -11.2914   18.8858 H   0  0  0  0  0  0
  -27.3829  -12.5592   17.7911 H   0  0  0  0  0  0
  -27.6430  -14.2583   19.4796 H   0  0  0  0  0  0
  -28.7143  -12.1591   21.4257 H   0  0  0  0  0  0
  -28.4432  -13.8453   21.7904 H   0  0  0  0  0  0
  -25.2763   -9.5697   22.4759 H   0  0  0  0  0  0
  -24.0010   -7.4639   22.7462 H   0  0  0  0  0  0
  -21.0862   -8.8771   19.8934 H   0  0  0  0  0  0
  -22.3713  -10.9668   19.6153 H   0  0  0  0  0  0
  -21.2004   -7.6142   23.9711 H   0  0  0  0  0  0
  -21.1490   -6.0516   25.9072 H   0  0  0  0  0  0
  -22.0594   -2.7607   23.2850 H   0  0  0  0  0  0
  -22.4100  -11.9893   22.4832 H   0  0  0  0  0  0
  -21.1053  -13.1188   22.2550 H   0  0  0  0  0  0
  -24.6491  -15.8432   20.5075 H   0  0  0  0  0  0
  -26.2522  -15.6257   20.0299 H   0  0  0  0  0  0
  -26.7162  -32.5421   23.1082 H   0  0  0  0  0  0
  -25.0007  -33.9713   25.0394 H   0  0  0  0  0  0
  -22.7215  -31.2980   21.3931 H   0  0  0  0  0  0
  -23.3745  -35.9602   23.3336 H   0  0  0  0  0  0
  -24.3568  -36.8887   22.2057 H   0  0  0  0  0  0
  -23.7231  -37.6485   23.6669 H   0  0  0  0  0  0
  -26.1089  -31.5326   20.6123 H   0  0  0  0  0  0
  -26.8490  -30.8257   22.0143 H   0  0  0  0  0  0
  -28.1153  -28.9208   21.2276 H   0  0  0  0  0  0
  -25.9745  -25.9418   18.9421 H   0  0  0  0  0  0
  -23.9897  -27.3303   18.9635 H   0  0  0  0  0  0
  -23.7633  -30.5841   19.4029 H   0  0  0  0  0  0
  -22.7674  -29.2347   19.8570 H   0  0  0  0  0  0
  -25.1290  -36.1914   25.0817 H   0  0  0  0  0  0
  -20.9974  -28.3209   24.1432 H   0  0  0  0  0  0
  -20.5673  -26.2235   23.3596 H   0  0  0  0  0  0
  -21.6626  -26.7408   22.1203 H   0  0  0  0  0  0
  -19.6918  -25.6286   21.1227 H   0  0  0  0  0  0
  -19.6711  -27.3195   20.6754 H   0  0  0  0  0  0
  -17.4201  -26.6677   21.4018 H   0  0  0  0  0  0
  -18.0306  -26.0068   22.9022 H   0  0  0  0  0  0
  -19.7941  -30.7273   24.2208 H   0  0  0  0  0  0
  -17.5024  -31.6261   24.5145 H   0  0  0  0  0  0
  -15.5347  -30.2952   23.7703 H   0  0  0  0  0  0
  -15.8674  -28.0818   22.7052 H   0  0  0  0  0  0
  -24.5899  -30.7022   25.7782 H   0  0  0  0  0  0
  -24.8816  -32.2863   26.4869 H   0  0  0  0  0  0
  -25.8010  -30.8922   27.0265 H   0  0  0  0  0  0
  -26.2910  -29.6798   24.1191 H   0  0  0  0  0  0
  -27.4007  -29.7270   25.4691 H   0  0  0  0  0  0
  -27.8783  -30.4351   23.9452 H   0  0  0  0  0  0
  -27.2711  -33.3657   26.2042 H   0  0  0  0  0  0
  -28.3868  -32.6811   25.0297 H   0  0  0  0  0  0
  -28.0724  -31.8455   26.5424 H   0  0  0  0  0  0
  -28.2567  -38.0086   24.7515 H   0  0  0  0  0  0
  -28.1052  -36.2613   24.6289 H   0  0  0  0  0  0
  -27.2278  -37.1447   25.8873 H   0  0  0  0  0  0
  -20.9390  -29.8747   21.6903 H   0  0  0  0  0  0
  -26.0154  -38.2840   24.1461 H   0  0  0  0  0  0
  -30.2244  -22.6852   22.8521 H   0  0  0  0  0  0
  -31.2192  -21.6069   25.1011 H   0  0  0  0  0  0
  -31.5383  -19.8761   25.0239 H   0  0  0  0  0  0
  -29.9504  -20.4659   25.5218 H   0  0  0  0  0  0
  -31.2556  -18.5206   18.7882 H   0  0  0  0  0  0
  -30.2330  -17.2336   18.1629 H   0  0  0  0  0  0
  -31.8402  -16.8783   18.7926 H   0  0  0  0  0  0
  -31.0403  -17.7113   23.2674 H   0  0  0  0  0  0
  -29.2996  -17.4624   22.9813 H   0  0  0  0  0  0
  -29.8377  -18.2149   24.4591 H   0  0  0  0  0  0
  -29.3500  -22.0315   19.3514 H   0  0  0  0  0  0
  -27.8467  -21.9880   20.2204 H   0  0  0  0  0  0
  -28.9090  -18.8425   19.5928 H   0  0  0  0  0  0
  -28.3443  -18.0380   20.9880 H   0  0  0  0  0  0
  -28.7981  -23.9380   21.7356 H   0  0  0  0  0  0
  -30.0895  -24.0846   20.5826 H   0  0  0  0  0  0
  -27.1223  -24.6312   20.1560 H   0  0  0  0  0  0
  -28.2675  -24.7914   18.8555 H   0  0  0  0  0  0
  -31.1539  -17.4704   21.0525 H   0  0  0  0  0  0
  -28.9190  -15.7058   20.7392 H   0  0  0  0  0  0
  1 25  1  0  0  0
  1 30  2  0  0  0
  1 84  1  0  0  0
  2  3  1  0  0  0
  2 25  1  0  0  0
  2 85  1  0  0  0
  2 86  1  0  0  0
  3  4  1  0  0  0
  3 87  1  0  0  0
  3 88  1  0  0  0
  4  5  1  0  0  0
  4 89  1  0  0  0
  4 90  1  0  0  0
  5  6  1  0  0  0
  5 26  1  0  0  0
  5 91  1  0  0  0
  6 25  1  0  0  0
  6 92  1  0  0  0
  6 93  1  0  0  0
  7  8  2  0  0  0
  7 26  1  0  0  0
  7 29  1  0  0  0
  8  9  1  0  0  0
  8 22  1  0  0  0
  9 10  1  0  0  0
  9 27  2  0  0  0
 10 11  2  0  0  0
 10 15  1  0  0  0
 11 12  1  0  0  0
 11 94  1  0  0  0
 12 13  2  0  0  0
 12 95  1  0  0  0
 13 14  1  0  0  0
 13 31  1  0  0  0
 14 15  2  0  0  0
 14 96  1  0  0  0
 15 97  1  0  0  0
 16 17  2  0  0  0
 16 21  1  0  0  0
 16 31  1  0  0  0
 17 18  1  0  0  0
 17 98  1  0  0  0
 18 19  2  0  0  0
 18 99  1  0  0  0
 19 20  1  0  0  0
 19 24  1  0  0  0
 20 21  2  0  0  0
 20100  1  0  0  0
 21 23  1  0  0  0
 22 28  1  0  0  0
 22 32  2  0  0  0
 26 27  1  0  0  0
 28101  1  0  0  0
 28102  1  0  0  0
 29103  1  0  0  0
 29104  1  0  0  0
 33 34  1  0  0  0
 33 66  1  0  0  0
 33 70  2  0  0  0
 34 36  1  0  0  0
 34 59  1  0  0  0
 34105  1  0  0  0
 35 44  2  0  0  0
 35 45  1  0  0  0
 35 68  1  0  0  0
 36 56  1  0  0  0
 36106  1  0  0  0
 37 39  1  0  0  0
 37 47  1  0  0  0
 37 66  1  0  0  0
 37107  1  0  0  0
 38 43  2  0  0  0
 38 46  1  0  0  0
 38 47  1  0  0  0
 39 64  1  0  0  0
 39 67  2  0  0  0
 40 52  1  0  0  0
 40 53  2  0  0  0
 40 58  1  0  0  0
 41108  1  0  0  0
 41109  1  0  0  0
 41110  1  0  0  0
 41 48  1  0  0  0
 42 43  1  0  0  0
 42 66  1  0  0  0
 42111  1  0  0  0
 42112  1  0  0  0
 43 44  1  0  0  0
 44113  1  0  0  0
 45 46  2  0  0  0
 45114  1  0  0  0
 46115  1  0  0  0
 47116  1  0  0  0
 47117  1  0  0  0
 48 56  1  0  0  0
 48 65  1  0  0  0
 48118  1  0  0  0
 49 50  1  0  0  0
 49 53  1  0  0  0
 49 64  1  0  0  0
 49119  1  0  0  0
 50 51  1  0  0  0
 50120  1  0  0  0
 50121  1  0  0  0
 51 52  1  0  0  0
 51122  1  0  0  0
 51123  1  0  0  0
 52124  1  0  0  0
 52125  1  0  0  0
 53 54  1  0  0  0
 54 55  2  0  0  0
 54126  1  0  0  0
 55 57  1  0  0  0
 55127  1  0  0  0
 56 69  2  0  0  0
 57 58  2  0  0  0
 57128  1  0  0  0
 58129  1  0  0  0
 59 60  1  0  0  0
 59 61  1  0  0  0
 59 62  1  0  0  0
 60130  1  0  0  0
 60131  1  0  0  0
 60132  1  0  0  0
 61133  1  0  0  0
 61134  1  0  0  0
 61135  1  0  0  0
 62136  1  0  0  0
 62137  1  0  0  0
 62138  1  0  0  0
 63 65  1  0  0  0
 63139  1  0  0  0
 63140  1  0  0  0
 63141  1  0  0  0
 64142  1  0  0  0
 65143  1  0  0  0
 68 81  1  0  0  0
 71 72  1  0  0  0
 71 73  2  0  0  0
 71144  1  0  0  0
 72 74  2  0  0  0
 72 78  1  0  0  0
 73 75  1  0  0  0
 73 83  1  0  0  0
 74 79  1  0  0  0
 74 83  1  0  0  0
 75145  1  0  0  0
 75146  1  0  0  0
 75147  1  0  0  0
 76148  1  0  0  0
 76149  1  0  0  0
 76150  1  0  0  0
 76 82  1  0  0  0
 77 83  1  0  0  0
 77151  1  0  0  0
 77152  1  0  0  0
 77153  1  0  0  0
 78 80  1  0  0  0
 78154  1  0  0  0
 78155  1  0  0  0
 79 82  1  0  0  0
 79156  1  0  0  0
 79157  1  0  0  0
 80 81  1  0  0  0
 80158  1  0  0  0
 80159  1  0  0  0
 81160  1  0  0  0
 81161  1  0  0  0
 82 84  1  0  0  0
 82162  1  0  0  0
 84163  1  0  0  0
M  ISO  4   1 100  68 101  81 101  84 100
M  END
> <chiral flag>
0

> <version>
0

> <s_m_source_file>
/data/baiqing/PycharmProjects/Reinvent-master-3.2/result/LINK_invent/BTK/process_docking_weight1_custom_sum_contain_oxygen_bond_distance_aromatic_linkinvent_7_9_3/rearranged_h_0081.sdf

> <i_m_source_file_index>
22

> <r_mmod_Potential_Energy-OPLS-2005>
115.956344604492

> <r_mmod_Stretch_Energy-OPLS-2005>
123.556648254395

> <r_mmod_Bend_Energy-OPLS-2005>
169.266677856445

> <r_mmod_Torsional_Energy-OPLS-2005>
222.011154174805

> <r_mmod_Improper_Torsional_Energy-OPLS-2005>
6.2643461227417

> <r_mmod_Van_der_Waal_Energy-OPLS-2005>
129.481552124023

> <r_mmod_Electrostatic_Energy-OPLS-2005>
-394.424865722656

> <r_mmod_Solvation_Energy-OPLS-2005>
-214.807510375977

> <b_mmod_Minimization_Converged-OPLS-2005>
0

> <r_mmod_RMS_Derivative-OPLS-2005>
3.1018705368042

$$$$
22
                    3D
 Structure written by MMmdl.
157165  0  0  1  0            999 V2000
  -30.5922  -14.7609   20.4594 C   0  0  0  0  0  0
  -30.4434  -12.4669   19.4653 C   0  0  0  0  0  0
  -29.5159  -12.5037   18.2308 C   0  0  0  0  0  0
  -28.0393  -12.3325   18.6424 C   0  0  0  0  0  0
  -27.6413  -13.2322   19.8436 C   0  0  2  0  0  0
  -28.6873  -13.1622   20.9757 C   0  0  0  0  0  0
  -25.2512  -13.8195   20.5692 C   0  0  0  0  0  0
  -24.1806  -13.0432   20.9208 C   0  0  0  0  0  0
  -24.6402  -11.6909   20.8737 C   0  0  0  0  0  0
  -23.9081  -10.4282   21.0399 C   0  0  0  0  0  0
  -24.3636   -9.4197   21.9178 C   0  0  0  0  0  0
  -23.6310   -8.2231   22.0744 C   0  0  0  0  0  0
  -22.4288   -8.0280   21.3540 C   0  0  0  0  0  0
  -21.9922   -9.0254   20.4643 C   0  0  0  0  0  0
  -22.7251  -10.2133   20.3050 C   0  0  0  0  0  0
  -21.6847   -6.0736   22.5283 C   0  0  0  0  0  0
  -21.4016   -6.5637   23.8217 C   0  0  0  0  0  0
  -21.3656   -5.6792   24.9175 C   0  0  0  0  0  0
  -21.6045   -4.3057   24.7231 C   0  0  0  0  0  0
  -21.8819   -3.8146   23.4347 C   0  0  0  0  0  0
  -21.9188   -4.6965   22.3402 C   0  0  0  0  0  0
  -22.7820  -13.5212   21.1858 C   0  0  0  0  0  0
  -22.1660   -4.2148   21.0983 F   0  0  0  0  0  0
  -21.5618   -3.4538   25.7743 F   0  0  0  0  0  0
  -29.9850  -13.5269   20.3906 N   0  0  0  0  0  0
  -26.2938  -12.9406   20.3235 N   0  0  0  0  0  0
  -25.9334  -11.6548   20.5715 N   0  0  0  0  0  0
  -22.0449  -12.8223   22.0418 N   0  0  0  0  0  0
  -25.4180  -15.1930   20.4132 N   0  0  0  0  0  0
  -31.7900  -14.8765   20.1867 O   0  0  0  0  0  0
  -21.6639   -6.8887   21.4249 O   0  0  0  0  0  0
  -22.3502  -14.5502   20.6680 O   0  0  0  0  0  0
  -24.6318  -31.8551   23.1965 C   0  0  0  0  0  0
  -25.9139  -32.4754   23.8317 C   0  0  1  0  0  0
  -27.2245  -27.2572   20.1422 C   0  0  0  0  0  0
  -25.5933  -33.8558   24.2241 N   0  0  0  0  0  0
  -23.4295  -30.4758   21.5393 C   0  0  2  0  0  0
  -24.8797  -28.9160   20.1143 C   0  0  0  0  0  0
  -22.7504  -29.4602   22.4902 C   0  0  0  0  0  0
  -18.0291  -28.1394   22.8477 C   0  0  0  0  0  0
  -24.1490  -36.7280   23.2639 C   0  0  0  0  0  0
  -25.9764  -30.7664   21.3769 C   0  0  0  0  0  0
  -26.0511  -29.3867   20.7229 C   0  0  0  0  0  0
  -27.2292  -28.5713   20.7209 C   0  0  0  0  0  0
  -26.0333  -26.8520   19.5050 C   0  0  0  0  0  0
  -24.8752  -27.6564   19.4940 C   0  0  0  0  0  0
  -23.6504  -29.8040   20.1573 C   0  0  0  0  0  0
  -25.4118  -36.3069   24.0322 C   0  0  1  0  0  0
  -20.5897  -28.3708   23.1263 C   0  0  2  0  0  0
  -20.6784  -26.9422   22.5413 C   0  0  0  0  0  0
  -19.5761  -26.6386   21.5211 C   0  0  0  0  0  0
  -18.1936  -26.7934   22.1617 C   0  0  0  0  0  0
  -19.1546  -28.8862   23.2865 C   0  0  0  0  0  0
  -18.9469  -30.1459   23.8897 C   0  0  0  0  0  0
  -17.6472  -30.6597   24.0559 C   0  0  0  0  0  0
  -25.9057  -34.9440   23.5088 C   0  0  0  0  0  0
  -16.5359  -29.9100   23.6331 C   0  0  0  0  0  0
  -16.7279  -28.6510   23.0356 C   0  0  0  0  0  0
  -26.4503  -31.6587   25.0718 C   0  0  0  0  0  0
  -25.3712  -31.3758   26.1430 C   0  0  0  0  0  0
  -27.0352  -30.3000   24.6213 C   0  0  0  0  0  0
  -27.6051  -32.4327   25.7492 C   0  0  0  0  0  0
  -27.5575  -37.1801   24.8460 C   0  0  0  0  0  0
  -21.4209  -29.3053   22.3646 N   0  0  0  0  0  0
  -26.4288  -37.3771   23.9403 N   0  0  0  0  0  0
  -24.6982  -31.0505   22.0938 N   0  0  0  0  0  0
  -23.4196  -28.8145   23.3007 O   0  0  0  0  0  0
  -28.3132  -26.3543   20.1634 O   0  0  0  0  0  0
  -26.5632  -34.8918   22.4656 O   0  0  0  0  0  0
  -23.5466  -32.1368   23.7266 O   0  0  0  0  0  0
  -30.7577  -23.4265   21.1650 C   0  0  0  0  0  0
  -29.6833  -22.6597   20.6556 C   0  0  0  0  0  0
  -31.8618  -22.7869   21.7525 C   0  0  0  0  0  0
  -29.8664  -21.1925   20.7629 C   0  0  0  0  0  0
  -33.0106  -23.5794   22.3392 C   0  0  0  0  0  0
  -28.5132  -23.5480   20.0458 C   0  0  0  0  0  0
  -28.9030  -19.9882   20.4348 C   0  0  0  0  0  0
  -29.4358  -18.5157   19.9358 C   0  0  0  0  0  0
  -30.0811  -17.3644   20.8849 C   0  0  0  0  0  0
  -28.0897  -24.9741   20.7314 C   0  0  0  0  0  0
  -31.9526  -21.4462   21.8454 N   0  0  0  0  0  0
  -30.9726  -20.6834   21.3659 N   0  0  0  0  0  0
  -29.7825  -15.8747   20.6440 N   0  0  0  0  0  0
  -31.4798  -12.6123   19.1568 H   0  0  0  0  0  0
  -30.4061  -11.4913   19.9531 H   0  0  0  0  0  0
  -29.8006  -11.7259   17.5207 H   0  0  0  0  0  0
  -29.6430  -13.4523   17.7076 H   0  0  0  0  0  0
  -27.8905  -11.2846   18.9040 H   0  0  0  0  0  0
  -27.3878  -12.5271   17.7896 H   0  0  0  0  0  0
  -27.6339  -14.2558   19.4672 H   0  0  0  0  0  0
  -28.7271  -12.1607   21.4064 H   0  0  0  0  0  0
  -28.4200  -13.8346   21.7919 H   0  0  0  0  0  0
  -25.2784   -9.5661   22.4755 H   0  0  0  0  0  0
  -24.0004   -7.4623   22.7481 H   0  0  0  0  0  0
  -21.0831   -8.8799   19.8973 H   0  0  0  0  0  0
  -22.3719  -10.9681   19.6167 H   0  0  0  0  0  0
  -21.2026   -7.6150   23.9718 H   0  0  0  0  0  0
  -21.1471   -6.0520   25.9075 H   0  0  0  0  0  0
  -22.0602   -2.7611   23.2839 H   0  0  0  0  0  0
  -22.4066  -11.9925   22.4882 H   0  0  0  0  0  0
  -21.1051  -13.1248   22.2569 H   0  0  0  0  0  0
  -24.6465  -15.8419   20.5245 H   0  0  0  0  0  0
  -26.2560  -15.6369   20.0613 H   0  0  0  0  0  0
  -26.7207  -32.5401   23.1056 H   0  0  0  0  0  0
  -25.0074  -33.9696   25.0384 H   0  0  0  0  0  0
  -22.7263  -31.2982   21.3891 H   0  0  0  0  0  0
  -23.3760  -35.9606   23.3305 H   0  0  0  0  0  0
  -24.3571  -36.8904   22.2052 H   0  0  0  0  0  0
  -23.7242  -37.6479   23.6667 H   0  0  0  0  0  0
  -26.1142  -31.5256   20.6061 H   0  0  0  0  0  0
  -26.8537  -30.8183   22.0094 H   0  0  0  0  0  0
  -28.1281  -28.9273   21.2044 H   0  0  0  0  0  0
  -25.9899  -25.8830   19.0278 H   0  0  0  0  0  0
  -23.9779  -27.2894   19.0144 H   0  0  0  0  0  0
  -23.7782  -30.5777   19.3998 H   0  0  0  0  0  0
  -22.7692  -29.2382   19.8500 H   0  0  0  0  0  0
  -25.1307  -36.1910   25.0816 H   0  0  0  0  0  0
  -20.9987  -28.3301   24.1384 H   0  0  0  0  0  0
  -20.5680  -26.2322   23.3623 H   0  0  0  0  0  0
  -21.6654  -26.7449   22.1208 H   0  0  0  0  0  0
  -19.6930  -25.6293   21.1254 H   0  0  0  0  0  0
  -19.6706  -27.3185   20.6732 H   0  0  0  0  0  0
  -17.4207  -26.6668   21.4020 H   0  0  0  0  0  0
  -18.0343  -26.0081   22.9019 H   0  0  0  0  0  0
  -19.7946  -30.7262   24.2280 H   0  0  0  0  0  0
  -17.5034  -31.6279   24.5161 H   0  0  0  0  0  0
  -15.5365  -30.3006   23.7665 H   0  0  0  0  0  0
  -15.8670  -28.0834   22.7092 H   0  0  0  0  0  0
  -24.5870  -30.7131   25.7755 H   0  0  0  0  0  0
  -24.8923  -32.2944   26.4837 H   0  0  0  0  0  0
  -25.8010  -30.8937   27.0218 H   0  0  0  0  0  0
  -26.2950  -29.6750   24.1207 H   0  0  0  0  0  0
  -27.3999  -29.7263   25.4742 H   0  0  0  0  0  0
  -27.8839  -30.4275   23.9487 H   0  0  0  0  0  0
  -27.2656  -33.3628   26.2057 H   0  0  0  0  0  0
  -28.3870  -32.6885   25.0332 H   0  0  0  0  0  0
  -28.0706  -31.8459   26.5419 H   0  0  0  0  0  0
  -28.2598  -38.0093   24.7503 H   0  0  0  0  0  0
  -28.1065  -36.2625   24.6294 H   0  0  0  0  0  0
  -27.2287  -37.1460   25.8862 H   0  0  0  0  0  0
  -20.9404  -29.8769   21.6839 H   0  0  0  0  0  0
  -26.0165  -38.2841   24.1416 H   0  0  0  0  0  0
  -30.7413  -24.5058   21.1206 H   0  0  0  0  0  0
  -33.0678  -24.5746   21.8978 H   0  0  0  0  0  0
  -33.9617  -23.0774   22.1631 H   0  0  0  0  0  0
  -32.8784  -23.6901   23.4147 H   0  0  0  0  0  0
  -27.6253  -22.9163   20.0282 H   0  0  0  0  0  0
  -28.7499  -23.7290   18.9972 H   0  0  0  0  0  0
  -28.2352  -20.3659   19.6593 H   0  0  0  0  0  0
  -28.2620  -19.8451   21.3055 H   0  0  0  0  0  0
  -30.1058  -18.6674   19.0884 H   0  0  0  0  0  0
  -28.5565  -18.0470   19.4939 H   0  0  0  0  0  0
  -29.7549  -17.5649   21.9057 H   0  0  0  0  0  0
  -31.1633  -17.5046   20.9065 H   0  0  0  0  0  0
  -28.5202  -24.9977   21.7325 H   0  0  0  0  0  0
  -27.0258  -24.8821   20.9517 H   0  0  0  0  0  0
  -28.8094  -15.6306   20.7523 H   0  0  0  0  0  0
  1 25  1  0  0  0
  1 30  2  0  0  0
  1 83  1  0  0  0
  2  3  1  0  0  0
  2 25  1  0  0  0
  2 84  1  0  0  0
  2 85  1  0  0  0
  3  4  1  0  0  0
  3 86  1  0  0  0
  3 87  1  0  0  0
  4  5  1  0  0  0
  4 88  1  0  0  0
  4 89  1  0  0  0
  5  6  1  0  0  0
  5 26  1  0  0  0
  5 90  1  0  0  0
  6 25  1  0  0  0
  6 91  1  0  0  0
  6 92  1  0  0  0
  7  8  2  0  0  0
  7 26  1  0  0  0
  7 29  1  0  0  0
  8  9  1  0  0  0
  8 22  1  0  0  0
  9 10  1  0  0  0
  9 27  2  0  0  0
 10 11  2  0  0  0
 10 15  1  0  0  0
 11 12  1  0  0  0
 11 93  1  0  0  0
 12 13  2  0  0  0
 12 94  1  0  0  0
 13 14  1  0  0  0
 13 31  1  0  0  0
 14 15  2  0  0  0
 14 95  1  0  0  0
 15 96  1  0  0  0
 16 17  2  0  0  0
 16 21  1  0  0  0
 16 31  1  0  0  0
 17 18  1  0  0  0
 17 97  1  0  0  0
 18 19  2  0  0  0
 18 98  1  0  0  0
 19 20  1  0  0  0
 19 24  1  0  0  0
 20 21  2  0  0  0
 20 99  1  0  0  0
 21 23  1  0  0  0
 22 28  1  0  0  0
 22 32  2  0  0  0
 26 27  1  0  0  0
 28100  1  0  0  0
 28101  1  0  0  0
 29102  1  0  0  0
 29103  1  0  0  0
 33 34  1  0  0  0
 33 66  1  0  0  0
 33 70  2  0  0  0
 34 36  1  0  0  0
 34 59  1  0  0  0
 34104  1  0  0  0
 35 44  2  0  0  0
 35 45  1  0  0  0
 35 68  1  0  0  0
 36 56  1  0  0  0
 36105  1  0  0  0
 37 39  1  0  0  0
 37 47  1  0  0  0
 37 66  1  0  0  0
 37106  1  0  0  0
 38 43  2  0  0  0
 38 46  1  0  0  0
 38 47  1  0  0  0
 39 64  1  0  0  0
 39 67  2  0  0  0
 40 52  1  0  0  0
 40 53  2  0  0  0
 40 58  1  0  0  0
 41107  1  0  0  0
 41108  1  0  0  0
 41109  1  0  0  0
 41 48  1  0  0  0
 42 43  1  0  0  0
 42 66  1  0  0  0
 42110  1  0  0  0
 42111  1  0  0  0
 43 44  1  0  0  0
 44112  1  0  0  0
 45 46  2  0  0  0
 45113  1  0  0  0
 46114  1  0  0  0
 47115  1  0  0  0
 47116  1  0  0  0
 48 56  1  0  0  0
 48 65  1  0  0  0
 48117  1  0  0  0
 49 50  1  0  0  0
 49 53  1  0  0  0
 49 64  1  0  0  0
 49118  1  0  0  0
 50 51  1  0  0  0
 50119  1  0  0  0
 50120  1  0  0  0
 51 52  1  0  0  0
 51121  1  0  0  0
 51122  1  0  0  0
 52123  1  0  0  0
 52124  1  0  0  0
 53 54  1  0  0  0
 54 55  2  0  0  0
 54125  1  0  0  0
 55 57  1  0  0  0
 55126  1  0  0  0
 56 69  2  0  0  0
 57 58  2  0  0  0
 57127  1  0  0  0
 58128  1  0  0  0
 59 60  1  0  0  0
 59 61  1  0  0  0
 59 62  1  0  0  0
 60129  1  0  0  0
 60130  1  0  0  0
 60131  1  0  0  0
 61132  1  0  0  0
 61133  1  0  0  0
 61134  1  0  0  0
 62135  1  0  0  0
 62136  1  0  0  0
 62137  1  0  0  0
 63 65  1  0  0  0
 63138  1  0  0  0
 63139  1  0  0  0
 63140  1  0  0  0
 64141  1  0  0  0
 65142  1  0  0  0
 68 80  1  0  0  0
 71 72  2  0  0  0
 71 73  1  0  0  0
 71143  1  0  0  0
 72 74  1  0  0  0
 72 76  1  0  0  0
 73 75  1  0  0  0
 73 81  2  0  0  0
 74 77  1  0  0  0
 74 82  2  0  0  0
 75144  1  0  0  0
 75145  1  0  0  0
 75146  1  0  0  0
 76 80  1  0  0  0
 76147  1  0  0  0
 76148  1  0  0  0
 77 78  1  0  0  0
 77149  1  0  0  0
 77150  1  0  0  0
 78 79  1  0  0  0
 78151  1  0  0  0
 78152  1  0  0  0
 79 83  1  0  0  0
 79153  1  0  0  0
 79154  1  0  0  0
 80155  1  0  0  0
 80156  1  0  0  0
 81 82  1  0  0  0
 83157  1  0  0  0
M  ISO  4   1 100  68 101  80 101  83 100
M  END
> <chiral flag>
0

> <version>
0

> <s_m_source_file>
/data/baiqing/PycharmProjects/Reinvent-master-3.2/result/LINK_invent/BTK/process_docking_weight1_custom_sum_contain_oxygen_bond_distance_aromatic_linkinvent_7_9_3/rearranged_h_0081.sdf

> <i_m_source_file_index>
23

> <r_mmod_Potential_Energy-OPLS-2005>
227.958770751953

> <r_mmod_Stretch_Energy-OPLS-2005>
141.47900390625

> <r_mmod_Bend_Energy-OPLS-2005>
222.074432373047

> <r_mmod_Torsional_Energy-OPLS-2005>
245.50146484375

> <r_mmod_Improper_Torsional_Energy-OPLS-2005>
4.77417325973511

> <r_mmod_Van_der_Waal_Energy-OPLS-2005>
135.676651000977

> <r_mmod_Electrostatic_Energy-OPLS-2005>
-372.108764648438

> <r_mmod_Solvation_Energy-OPLS-2005>
-241.214584350586

> <b_mmod_Minimization_Converged-OPLS-2005>
0

> <r_mmod_RMS_Derivative-OPLS-2005>
1.84195101261139

$$$$
23
                    3D
 Structure written by MMmdl.
157165  0  0  1  0            999 V2000
  -31.2847  -15.0002   21.2270 C   0  0  0  0  0  0
  -30.5024  -15.0197   18.8878 C   0  0  0  0  0  0
  -29.1567  -14.7653   17.7292 C   0  0  0  0  0  0
  -27.4160  -14.8652   18.2569 C   0  0  0  0  0  0
  -26.9676  -15.1000   20.0701 C   0  0  2  0  0  0
  -28.5268  -15.4711   21.3364 C   0  0  0  0  0  0
  -24.8253  -14.1810   20.7891 C   0  0  0  0  0  0
  -24.0085  -13.1370   20.9769 C   0  0  0  0  0  0
  -24.7347  -11.9249   20.8213 C   0  0  0  0  0  0
  -24.0818  -10.5331   20.9564 C   0  0  0  0  0  0
  -24.4731   -9.5167   21.8758 C   0  0  0  0  0  0
  -23.7124   -8.3203   22.0651 C   0  0  0  0  0  0
  -22.5081   -8.0953   21.3520 C   0  0  0  0  0  0
  -22.1051   -9.0908   20.4423 C   0  0  0  0  0  0
  -22.8722  -10.2665   20.2504 C   0  0  0  0  0  0
  -21.7252   -6.1136   22.5242 C   0  0  0  0  0  0
  -21.4316   -6.5886   23.8211 C   0  0  0  0  0  0
  -21.3762   -5.6936   24.9110 C   0  0  0  0  0  0
  -21.6034   -4.3192   24.7106 C   0  0  0  0  0  0
  -21.8783   -3.8369   23.4184 C   0  0  0  0  0  0
  -21.9325   -4.7281   22.3304 C   0  0  0  0  0  0
  -22.5696  -13.3976   21.2175 C   0  0  0  0  0  0
  -22.1715   -4.2444   21.0875 F   0  0  0  0  0  0
  -21.5563   -3.4605   25.7568 F   0  0  0  0  0  0
  -30.1978  -15.3718   20.5798 N   0  0  0  0  0  0
  -26.0418  -13.8069   20.4529 N   0  0  0  0  0  0
  -26.0337  -12.3370   20.4899 N   0  0  0  0  0  0
  -21.9451  -12.6503   22.1060 N   0  0  0  0  0  0
  -24.5600  -15.5254   20.8809 N   0  0  0  0  0  0
  -32.2065  -14.4155   20.6664 O   0  0  0  0  0  0
  -21.7277   -6.9522   21.4300 O   0  0  0  0  0  0
  -22.0285  -14.3669   20.6821 O   0  0  0  0  0  0
  -24.8463  -31.5533   23.0047 C   0  0  0  0  0  0
  -26.0100  -32.3341   23.7215 C   0  0  1  0  0  0
  -27.0722  -24.9169   20.1755 C   0  0  0  0  0  0
  -25.5912  -33.7284   24.0850 N   0  0  0  0  0  0
  -23.7202  -30.0838   21.4106 C   0  0  2  0  0  0
  -25.1105  -28.0341   20.1292 C   0  0  0  0  0  0
  -22.8348  -29.3036   22.4305 C   0  0  0  0  0  0
  -18.0394  -28.1487   22.8359 C   0  0  0  0  0  0
  -24.1515  -36.6693   23.2708 C   0  0  0  0  0  0
  -26.3048  -29.6701   21.5212 C   0  0  0  0  0  0
  -26.3062  -28.0470   20.8506 C   0  0  0  0  0  0
  -27.1965  -26.5935   20.8001 C   0  0  0  0  0  0
  -25.9006  -25.5506   19.4328 C   0  0  0  0  0  0
  -25.0455  -26.8067   19.3960 C   0  0  0  0  0  0
  -24.0207  -29.2175   20.1135 C   0  0  0  0  0  0
  -25.4215  -36.2250   24.0161 C   0  0  1  0  0  0
  -20.6086  -28.3845   23.0897 C   0  0  2  0  0  0
  -20.6753  -26.9358   22.5502 C   0  0  0  0  0  0
  -19.5807  -26.6285   21.5248 C   0  0  0  0  0  0
  -18.1964  -26.7988   22.1561 C   0  0  0  0  0  0
  -19.1698  -28.9033   23.2556 C   0  0  0  0  0  0
  -18.9602  -30.1579   23.8671 C   0  0  0  0  0  0
  -17.6581  -30.6632   24.0509 C   0  0  0  0  0  0
  -25.9266  -34.8678   23.4524 C   0  0  0  0  0  0
  -16.5452  -29.9096   23.6383 C   0  0  0  0  0  0
  -16.7369  -28.6528   23.0383 C   0  0  0  0  0  0
  -26.4856  -31.6232   25.0501 C   0  0  0  0  0  0
  -25.3577  -31.3930   26.0859 C   0  0  0  0  0  0
  -27.1063  -30.2512   24.7446 C   0  0  0  0  0  0
  -27.5965  -32.4553   25.7341 C   0  0  0  0  0  0
  -27.5520  -37.1475   24.8452 C   0  0  0  0  0  0
  -21.4888  -29.2683   22.2990 N   0  0  0  0  0  0
  -26.4203  -37.3192   23.9397 N   0  0  0  0  0  0
  -25.0157  -30.5149   22.0324 N   0  0  0  0  0  0
  -23.4018  -28.7039   23.3449 O   0  0  0  0  0  0
  -27.7633  -22.9426   20.0812 O   0  0  0  0  0  0
  -26.6237  -34.8625   22.4373 O   0  0  0  0  0  0
  -23.7195  -31.9425   23.3928 O   0  0  0  0  0  0
  -32.5852  -18.3051   20.1009 C   0  0  0  0  0  0
  -30.7742  -18.3047   18.6591 C   0  0  0  0  0  0
  -31.7190  -17.9390   21.1640 C   0  0  0  0  0  0
  -29.9316  -17.8985   19.7380 C   0  0  0  0  0  0
  -34.0970  -18.2935   20.2312 C   0  0  0  0  0  0
  -30.3261  -18.4229   17.2142 C   0  0  0  0  0  0
  -28.7548  -13.8398   19.8319 C   0  0  0  0  0  0
  -32.1487  -17.0460   22.3366 C   0  0  0  0  0  0
  -27.8032  -20.2309   19.9562 C   0  0  0  0  0  0
  -28.5170  -17.2519   19.6271 C   0  0  1  0  0  0
  -32.0902  -18.5757   18.8678 N   0  0  0  0  0  0
  -30.3792  -18.0075   21.0122 N   0  0  0  0  0  0
  -31.4931  -15.7098   22.3506 N   0  0  0  0  0  0
  -31.1581  -15.7916   18.4918 H   0  0  0  0  0  0
  -31.1206  -14.1337   18.7124 H   0  0  0  0  0  0
  -29.3177  -13.8348   17.1833 H   0  0  0  0  0  0
  -29.2808  -15.5130   16.9517 H   0  0  0  0  0  0
  -26.8852  -13.9909   17.8742 H   0  0  0  0  0  0
  -26.9416  -15.6658   17.6899 H   0  0  0  0  0  0
  -26.4757  -16.0560   19.9539 H   0  0  0  0  0  0
  -28.4924  -14.7912   22.1944 H   0  0  0  0  0  0
  -28.3877  -16.4120   21.8722 H   0  0  0  0  0  0
  -25.3663   -9.6673   22.4678 H   0  0  0  0  0  0
  -24.0695   -7.5795   22.7676 H   0  0  0  0  0  0
  -21.1973   -8.9490   19.8720 H   0  0  0  0  0  0
  -22.5032  -11.0027   19.5491 H   0  0  0  0  0  0
  -21.2431   -7.6403   23.9801 H   0  0  0  0  0  0
  -21.1568   -6.0640   25.9022 H   0  0  0  0  0  0
  -22.0421   -2.7826   23.2582 H   0  0  0  0  0  0
  -22.4184  -11.8900   22.5699 H   0  0  0  0  0  0
  -20.9778  -12.8409   22.3302 H   0  0  0  0  0  0
  -23.6142  -15.8476   21.0552 H   0  0  0  0  0  0
  -25.2296  -16.2772   20.7956 H   0  0  0  0  0  0
  -26.8450  -32.3745   23.0201 H   0  0  0  0  0  0
  -24.9583  -33.8003   24.8676 H   0  0  0  0  0  0
  -23.1559  -30.9605   21.0861 H   0  0  0  0  0  0
  -23.3828  -35.8959   23.3142 H   0  0  0  0  0  0
  -24.3537  -36.8690   22.2171 H   0  0  0  0  0  0
  -23.7259  -37.5729   23.7087 H   0  0  0  0  0  0
  -26.7480  -30.2941   20.7450 H   0  0  0  0  0  0
  -27.0708  -29.6578   22.2809 H   0  0  0  0  0  0
  -28.0844  -26.6864   21.4100 H   0  0  0  0  0  0
  -25.4841  -24.8192   18.7558 H   0  0  0  0  0  0
  -24.2035  -26.7432   18.7213 H   0  0  0  0  0  0
  -24.3293  -29.9000   19.3201 H   0  0  0  0  0  0
  -23.0833  -28.7879   19.7579 H   0  0  0  0  0  0
  -25.1533  -36.0759   25.0641 H   0  0  0  0  0  0
  -21.0083  -28.3615   24.1063 H   0  0  0  0  0  0
  -20.5412  -26.2519   23.3897 H   0  0  0  0  0  0
  -21.6612  -26.7013   22.1471 H   0  0  0  0  0  0
  -19.6934  -25.6138   21.1414 H   0  0  0  0  0  0
  -19.6867  -27.2984   20.6698 H   0  0  0  0  0  0
  -17.4281  -26.6758   21.3913 H   0  0  0  0  0  0
  -18.0244  -26.0172   22.8972 H   0  0  0  0  0  0
  -19.8085  -30.7418   24.1980 H   0  0  0  0  0  0
  -17.5136  -31.6293   24.5163 H   0  0  0  0  0  0
  -15.5449  -30.2950   23.7836 H   0  0  0  0  0  0
  -15.8756  -28.0788   22.7233 H   0  0  0  0  0  0
  -24.5880  -30.7167   25.7124 H   0  0  0  0  0  0
  -24.8669  -32.3256   26.3636 H   0  0  0  0  0  0
  -25.7455  -30.9520   27.0045 H   0  0  0  0  0  0
  -26.3816  -29.5472   24.3363 H   0  0  0  0  0  0
  -27.4800  -29.7835   25.6565 H   0  0  0  0  0  0
  -27.9649  -30.3374   24.0788 H   0  0  0  0  0  0
  -27.2272  -33.4122   26.1029 H   0  0  0  0  0  0
  -28.4147  -32.6675   25.0449 H   0  0  0  0  0  0
  -28.0202  -31.9346   26.5935 H   0  0  0  0  0  0
  -28.2384  -37.9902   24.7501 H   0  0  0  0  0  0
  -28.1172  -36.2404   24.6278 H   0  0  0  0  0  0
  -27.2226  -37.1029   25.8845 H   0  0  0  0  0  0
  -21.0581  -29.7981   21.5539 H   0  0  0  0  0  0
  -25.9891  -38.2169   24.1414 H   0  0  0  0  0  0
  -34.4044  -18.7766   21.1596 H   0  0  0  0  0  0
  -34.5746  -18.8292   19.4076 H   0  0  0  0  0  0
  -34.4761  -17.2710   20.2317 H   0  0  0  0  0  0
  -29.5837  -17.6804   16.9374 H   0  0  0  0  0  0
  -31.1697  -18.2933   16.5317 H   0  0  0  0  0  0
  -29.9040  -19.4124   17.0371 H   0  0  0  0  0  0
  -29.6748  -13.2342   19.8970 H   0  0  0  0  0  0
  -28.2662  -13.0811   19.1984 H   0  0  0  0  0  0
  -28.4446  -13.3197   20.7556 H   0  0  0  0  0  0
  -33.2298  -16.8990   22.3340 H   0  0  0  0  0  0
  -31.9157  -17.5620   23.2667 H   0  0  0  0  0  0
  -26.8315  -20.1648   19.4575 H   0  0  0  0  0  0
  -27.5734  -20.1402   21.0191 H   0  0  0  0  0  0
  -28.2762  -17.2680   18.5706 H   0  0  0  0  0  0
  -31.9235  -15.1342   23.0594 H   0  0  0  0  0  0
  1 25  1  0  0  0
  1 30  2  0  0  0
  1 83  1  0  0  0
  2  3  1  0  0  0
  2 25  1  0  0  0
  2 84  1  0  0  0
  2 85  1  0  0  0
  3  4  1  0  0  0
  3 86  1  0  0  0
  3 87  1  0  0  0
  4  5  1  0  0  0
  4 88  1  0  0  0
  4 89  1  0  0  0
  5  6  1  0  0  0
  5 26  1  0  0  0
  5 90  1  0  0  0
  6 25  1  0  0  0
  6 91  1  0  0  0
  6 92  1  0  0  0
  7  8  2  0  0  0
  7 26  1  0  0  0
  7 29  1  0  0  0
  8  9  1  0  0  0
  8 22  1  0  0  0
  9 10  1  0  0  0
  9 27  2  0  0  0
 10 11  2  0  0  0
 10 15  1  0  0  0
 11 12  1  0  0  0
 11 93  1  0  0  0
 12 13  2  0  0  0
 12 94  1  0  0  0
 13 14  1  0  0  0
 13 31  1  0  0  0
 14 15  2  0  0  0
 14 95  1  0  0  0
 15 96  1  0  0  0
 16 17  2  0  0  0
 16 21  1  0  0  0
 16 31  1  0  0  0
 17 18  1  0  0  0
 17 97  1  0  0  0
 18 19  2  0  0  0
 18 98  1  0  0  0
 19 20  1  0  0  0
 19 24  1  0  0  0
 20 21  2  0  0  0
 20 99  1  0  0  0
 21 23  1  0  0  0
 22 28  1  0  0  0
 22 32  2  0  0  0
 26 27  1  0  0  0
 28100  1  0  0  0
 28101  1  0  0  0
 29102  1  0  0  0
 29103  1  0  0  0
 33 34  1  0  0  0
 33 66  1  0  0  0
 33 70  2  0  0  0
 34 36  1  0  0  0
 34 59  1  0  0  0
 34104  1  0  0  0
 35 44  2  0  0  0
 35 45  1  0  0  0
 35 68  1  0  0  0
 36 56  1  0  0  0
 36105  1  0  0  0
 37 39  1  0  0  0
 37 47  1  0  0  0
 37 66  1  0  0  0
 37106  1  0  0  0
 38 43  2  0  0  0
 38 46  1  0  0  0
 38 47  1  0  0  0
 39 64  1  0  0  0
 39 67  2  0  0  0
 40 52  1  0  0  0
 40 53  2  0  0  0
 40 58  1  0  0  0
 41107  1  0  0  0
 41108  1  0  0  0
 41109  1  0  0  0
 41 48  1  0  0  0
 42 43  1  0  0  0
 42 66  1  0  0  0
 42110  1  0  0  0
 42111  1  0  0  0
 43 44  1  0  0  0
 44112  1  0  0  0
 45 46  2  0  0  0
 45113  1  0  0  0
 46114  1  0  0  0
 47115  1  0  0  0
 47116  1  0  0  0
 48 56  1  0  0  0
 48 65  1  0  0  0
 48117  1  0  0  0
 49 50  1  0  0  0
 49 53  1  0  0  0
 49 64  1  0  0  0
 49118  1  0  0  0
 50 51  1  0  0  0
 50119  1  0  0  0
 50120  1  0  0  0
 51 52  1  0  0  0
 51121  1  0  0  0
 51122  1  0  0  0
 52123  1  0  0  0
 52124  1  0  0  0
 53 54  1  0  0  0
 54 55  2  0  0  0
 54125  1  0  0  0
 55 57  1  0  0  0
 55126  1  0  0  0
 56 69  2  0  0  0
 57 58  2  0  0  0
 57127  1  0  0  0
 58128  1  0  0  0
 59 60  1  0  0  0
 59 61  1  0  0  0
 59 62  1  0  0  0
 60129  1  0  0  0
 60130  1  0  0  0
 60131  1  0  0  0
 61132  1  0  0  0
 61133  1  0  0  0
 61134  1  0  0  0
 62135  1  0  0  0
 62136  1  0  0  0
 62137  1  0  0  0
 63 65  1  0  0  0
 63138  1  0  0  0
 63139  1  0  0  0
 63140  1  0  0  0
 64141  1  0  0  0
 65142  1  0  0  0
 68 79  1  0  0  0
 71 73  2  0  0  0
 71 75  1  0  0  0
 71 81  1  0  0  0
 72 74  1  0  0  0
 72 76  1  0  0  0
 72 81  2  0  0  0
 73 78  1  0  0  0
 73 82  1  0  0  0
 74 80  1  0  0  0
 74 82  2  0  0  0
 75143  1  0  0  0
 75144  1  0  0  0
 75145  1  0  0  0
 76146  1  0  0  0
 76147  1  0  0  0
 76148  1  0  0  0
 77149  1  0  0  0
 77150  1  0  0  0
 77151  1  0  0  0
 77 80  1  0  0  0
 78 83  1  0  0  0
 78152  1  0  0  0
 78153  1  0  0  0
 79 80  1  0  0  0
 79154  1  0  0  0
 79155  1  0  0  0
 80156  1  0  0  0
 83157  1  0  0  0
M  ISO  4   1 100  68 101  79 101  83 100
M  END
> <chiral flag>
0

> <version>
0

> <s_m_source_file>
/data/baiqing/PycharmProjects/Reinvent-master-3.2/result/LINK_invent/BTK/process_docking_weight1_custom_sum_contain_oxygen_bond_distance_aromatic_linkinvent_7_9_3/rearranged_h_0081.sdf

> <i_m_source_file_index>
24

> <r_mmod_Potential_Energy-OPLS-2005>
22582.083984375

> <r_mmod_Stretch_Energy-OPLS-2005>
11838.1611328125

> <r_mmod_Bend_Energy-OPLS-2005>
1696.06018066406

> <r_mmod_Torsional_Energy-OPLS-2005>
399.611114501953

> <r_mmod_Improper_Torsional_Energy-OPLS-2005>
25.7276020050049

> <r_mmod_Van_der_Waal_Energy-OPLS-2005>
1671.26586914062

> <r_mmod_Electrostatic_Energy-OPLS-2005>
-399.932159423828

> <r_mmod_Solvation_Energy-OPLS-2005>
-234.546188354492

> <b_mmod_Minimization_Converged-OPLS-2005>
0

> <r_mmod_RMS_Derivative-OPLS-2005>
6.12680387496948

$$$$
24
                    3D
 Structure written by MMmdl.
159167  0  0  1  0            999 V2000
  -30.6220  -14.7262   20.4728 C   0  0  0  0  0  0
  -30.4349  -12.4483   19.4659 C   0  0  0  0  0  0
  -29.5092  -12.5031   18.2311 C   0  0  0  0  0  0
  -28.0356  -12.3290   18.6476 C   0  0  0  0  0  0
  -27.6427  -13.2295   19.8495 C   0  0  2  0  0  0
  -28.6879  -13.1592   20.9831 C   0  0  0  0  0  0
  -25.2516  -13.8194   20.5689 C   0  0  0  0  0  0
  -24.1804  -13.0441   20.9194 C   0  0  0  0  0  0
  -24.6394  -11.6923   20.8735 C   0  0  0  0  0  0
  -23.9077  -10.4297   21.0404 C   0  0  0  0  0  0
  -24.3627   -9.4208   21.9187 C   0  0  0  0  0  0
  -23.6295   -8.2246   22.0757 C   0  0  0  0  0  0
  -22.4276   -8.0286   21.3545 C   0  0  0  0  0  0
  -21.9918   -9.0263   20.4647 C   0  0  0  0  0  0
  -22.7247  -10.2141   20.3056 C   0  0  0  0  0  0
  -21.6857   -6.0740   22.5280 C   0  0  0  0  0  0
  -21.4020   -6.5643   23.8215 C   0  0  0  0  0  0
  -21.3655   -5.6793   24.9176 C   0  0  0  0  0  0
  -21.6042   -4.3056   24.7220 C   0  0  0  0  0  0
  -21.8817   -3.8148   23.4341 C   0  0  0  0  0  0
  -21.9193   -4.6968   22.3400 C   0  0  0  0  0  0
  -22.7825  -13.5229   21.1848 C   0  0  0  0  0  0
  -22.1658   -4.2153   21.0975 F   0  0  0  0  0  0
  -21.5625   -3.4539   25.7729 F   0  0  0  0  0  0
  -29.9891  -13.5078   20.3983 N   0  0  0  0  0  0
  -26.2941  -12.9402   20.3281 N   0  0  0  0  0  0
  -25.9321  -11.6544   20.5731 N   0  0  0  0  0  0
  -22.0471  -12.8235   22.0414 N   0  0  0  0  0  0
  -25.4199  -15.1921   20.4109 N   0  0  0  0  0  0
  -31.8138  -14.8231   20.1691 O   0  0  0  0  0  0
  -21.6636   -6.8883   21.4242 O   0  0  0  0  0  0
  -22.3516  -14.5534   20.6685 O   0  0  0  0  0  0
  -24.6315  -31.8566   23.1993 C   0  0  0  0  0  0
  -25.9144  -32.4756   23.8334 C   0  0  1  0  0  0
  -27.2194  -27.2753   20.1182 C   0  0  0  0  0  0
  -25.5950  -33.8557   24.2263 N   0  0  0  0  0  0
  -23.4268  -30.4811   21.5422 C   0  0  2  0  0  0
  -24.8728  -28.9317   20.1091 C   0  0  0  0  0  0
  -22.7511  -29.4610   22.4910 C   0  0  0  0  0  0
  -18.0299  -28.1389   22.8486 C   0  0  0  0  0  0
  -24.1488  -36.7288   23.2638 C   0  0  0  0  0  0
  -25.9723  -30.7730   21.3777 C   0  0  0  0  0  0
  -26.0448  -29.3970   20.7185 C   0  0  0  0  0  0
  -27.2205  -28.5815   20.7127 C   0  0  0  0  0  0
  -26.0239  -26.8789   19.4745 C   0  0  0  0  0  0
  -24.8671  -27.6799   19.4764 C   0  0  0  0  0  0
  -23.6444  -29.8181   20.1576 C   0  0  0  0  0  0
  -25.4117  -36.3070   24.0321 C   0  0  1  0  0  0
  -20.5902  -28.3701   23.1273 C   0  0  2  0  0  0
  -20.6782  -26.9420   22.5408 C   0  0  0  0  0  0
  -19.5755  -26.6384   21.5213 C   0  0  0  0  0  0
  -18.1937  -26.7926   22.1629 C   0  0  0  0  0  0
  -19.1552  -28.8861   23.2874 C   0  0  0  0  0  0
  -18.9470  -30.1458   23.8896 C   0  0  0  0  0  0
  -17.6468  -30.6586   24.0565 C   0  0  0  0  0  0
  -25.9060  -34.9438   23.5093 C   0  0  0  0  0  0
  -16.5362  -29.9088   23.6324 C   0  0  0  0  0  0
  -16.7283  -28.6508   23.0345 C   0  0  0  0  0  0
  -26.4502  -31.6569   25.0721 C   0  0  0  0  0  0
  -25.3719  -31.3729   26.1442 C   0  0  0  0  0  0
  -27.0339  -30.2979   24.6198 C   0  0  0  0  0  0
  -27.6043  -32.4313   25.7511 C   0  0  0  0  0  0
  -27.5575  -37.1805   24.8470 C   0  0  0  0  0  0
  -21.4217  -29.3056   22.3671 N   0  0  0  0  0  0
  -26.4289  -37.3772   23.9406 N   0  0  0  0  0  0
  -24.6958  -31.0550   22.0957 N   0  0  0  0  0  0
  -23.4224  -28.8148   23.2995 O   0  0  0  0  0  0
  -28.3168  -26.3848   20.1820 O   0  0  0  0  0  0
  -26.5629  -34.8915   22.4659 O   0  0  0  0  0  0
  -23.5467  -32.1383   23.7299 O   0  0  0  0  0  0
  -28.5151  -21.5222   22.4726 C   0  0  0  0  0  0
  -28.4866  -20.3328   23.2371 C   0  0  0  0  0  0
  -28.9186  -21.1653   21.2129 C   0  0  0  0  0  0
  -27.9587  -21.4550   25.4502 C   0  0  0  0  0  0
  -28.0815  -20.1368   24.6737 C   0  0  0  0  0  0
  -28.9845  -22.2240   20.0670 C   0  0  0  0  0  0
  -29.1522  -23.8082   20.4286 C   0  0  0  0  0  0
  -29.4686  -18.5893   20.3185 C   0  0  0  0  0  0
  -30.3190  -17.3113   20.8811 C   0  0  0  0  0  0
  -28.0840  -24.9175   19.9574 C   0  0  0  0  0  0
  -28.8496  -19.2918   22.5210 N   0  0  0  0  0  0
  -29.1439  -19.7290   21.2714 N   0  0  0  0  0  0
  -29.8608  -15.8611   20.7007 N   0  0  0  0  0  0
  -31.4755  -12.5750   19.1608 H   0  0  0  0  0  0
  -30.3812  -11.4717   19.9491 H   0  0  0  0  0  0
  -29.7901  -11.7305   17.5139 H   0  0  0  0  0  0
  -29.6359  -13.4578   17.7171 H   0  0  0  0  0  0
  -27.8940  -11.2803   18.9126 H   0  0  0  0  0  0
  -27.3766  -12.5184   17.7996 H   0  0  0  0  0  0
  -27.6387  -14.2508   19.4691 H   0  0  0  0  0  0
  -28.7211  -12.1600   21.4192 H   0  0  0  0  0  0
  -28.4266  -13.8393   21.7951 H   0  0  0  0  0  0
  -25.2775   -9.5682   22.4761 H   0  0  0  0  0  0
  -23.9997   -7.4642   22.7489 H   0  0  0  0  0  0
  -21.0841   -8.8791   19.8962 H   0  0  0  0  0  0
  -22.3707  -10.9684   19.6163 H   0  0  0  0  0  0
  -21.2020   -7.6154   23.9718 H   0  0  0  0  0  0
  -21.1475   -6.0524   25.9079 H   0  0  0  0  0  0
  -22.0600   -2.7609   23.2837 H   0  0  0  0  0  0
  -22.4084  -11.9906   22.4821 H   0  0  0  0  0  0
  -21.1088  -13.1273   22.2598 H   0  0  0  0  0  0
  -24.6519  -15.8451   20.5221 H   0  0  0  0  0  0
  -26.2636  -15.6342   20.0710 H   0  0  0  0  0  0
  -26.7218  -32.5411   23.1083 H   0  0  0  0  0  0
  -25.0114  -33.9697   25.0421 H   0  0  0  0  0  0
  -22.7218  -31.3027   21.3982 H   0  0  0  0  0  0
  -23.3741  -35.9629   23.3306 H   0  0  0  0  0  0
  -24.3576  -36.8911   22.2052 H   0  0  0  0  0  0
  -23.7250  -37.6492   23.6664 H   0  0  0  0  0  0
  -26.1118  -31.5340   20.6087 H   0  0  0  0  0  0
  -26.8498  -30.8207   22.0105 H   0  0  0  0  0  0
  -28.1171  -28.9331   21.2048 H   0  0  0  0  0  0
  -25.9501  -25.9258   18.9730 H   0  0  0  0  0  0
  -23.9708  -27.3204   18.9894 H   0  0  0  0  0  0
  -23.7721  -30.5953   19.4032 H   0  0  0  0  0  0
  -22.7622  -29.2540   19.8503 H   0  0  0  0  0  0
  -25.1294  -36.1910   25.0810 H   0  0  0  0  0  0
  -20.9990  -28.3271   24.1396 H   0  0  0  0  0  0
  -20.5678  -26.2316   23.3619 H   0  0  0  0  0  0
  -21.6649  -26.7441   22.1208 H   0  0  0  0  0  0
  -19.6914  -25.6291   21.1254 H   0  0  0  0  0  0
  -19.6679  -27.3185   20.6735 H   0  0  0  0  0  0
  -17.4204  -26.6675   21.4034 H   0  0  0  0  0  0
  -18.0336  -26.0068   22.9028 H   0  0  0  0  0  0
  -19.7944  -30.7274   24.2271 H   0  0  0  0  0  0
  -17.5022  -31.6261   24.5173 H   0  0  0  0  0  0
  -15.5362  -30.2989   23.7640 H   0  0  0  0  0  0
  -15.8687  -28.0825   22.7053 H   0  0  0  0  0  0
  -24.5895  -30.7074   25.7782 H   0  0  0  0  0  0
  -24.8915  -32.2909   26.4835 H   0  0  0  0  0  0
  -25.8036  -30.8936   27.0239 H   0  0  0  0  0  0
  -26.2933  -29.6749   24.1175 H   0  0  0  0  0  0
  -27.3979  -29.7211   25.4708 H   0  0  0  0  0  0
  -27.8821  -30.4249   23.9470 H   0  0  0  0  0  0
  -27.2631  -33.3610   26.2069 H   0  0  0  0  0  0
  -28.3866  -32.6881   25.0359 H   0  0  0  0  0  0
  -28.0690  -31.8456   26.5452 H   0  0  0  0  0  0
  -28.2602  -38.0095   24.7505 H   0  0  0  0  0  0
  -28.1064  -36.2626   24.6308 H   0  0  0  0  0  0
  -27.2300  -37.1471   25.8878 H   0  0  0  0  0  0
  -20.9400  -29.8805   21.6902 H   0  0  0  0  0  0
  -26.0163  -38.2846   24.1394 H   0  0  0  0  0  0
  -28.2361  -22.5109   22.8071 H   0  0  0  0  0  0
  -27.6855  -21.2661   26.4878 H   0  0  0  0  0  0
  -27.1930  -22.1014   25.0193 H   0  0  0  0  0  0
  -28.9019  -22.0023   25.4462 H   0  0  0  0  0  0
  -28.8033  -19.4928   25.1773 H   0  0  0  0  0  0
  -27.1275  -19.6096   24.7146 H   0  0  0  0  0  0
  -28.0913  -22.1134   19.4525 H   0  0  0  0  0  0
  -29.8052  -21.9444   19.4064 H   0  0  0  0  0  0
  -30.1096  -24.1134   20.0065 H   0  0  0  0  0  0
  -29.3031  -23.9264   21.4993 H   0  0  0  0  0  0
  -28.5208  -18.2338   19.9137 H   0  0  0  0  0  0
  -29.9963  -19.0201   19.4672 H   0  0  0  0  0  0
  -30.4879  -17.4316   21.9510 H   0  0  0  0  0  0
  -31.3209  -17.3956   20.4587 H   0  0  0  0  0  0
  -27.1427  -24.6470   20.4367 H   0  0  0  0  0  0
  -27.9276  -24.7821   18.8863 H   0  0  0  0  0  0
  -28.8819  -15.6889   20.8754 H   0  0  0  0  0  0
  1 25  1  0  0  0
  1 30  2  0  0  0
  1 83  1  0  0  0
  2  3  1  0  0  0
  2 25  1  0  0  0
  2 84  1  0  0  0
  2 85  1  0  0  0
  3  4  1  0  0  0
  3 86  1  0  0  0
  3 87  1  0  0  0
  4  5  1  0  0  0
  4 88  1  0  0  0
  4 89  1  0  0  0
  5  6  1  0  0  0
  5 26  1  0  0  0
  5 90  1  0  0  0
  6 25  1  0  0  0
  6 91  1  0  0  0
  6 92  1  0  0  0
  7  8  2  0  0  0
  7 26  1  0  0  0
  7 29  1  0  0  0
  8  9  1  0  0  0
  8 22  1  0  0  0
  9 10  1  0  0  0
  9 27  2  0  0  0
 10 11  2  0  0  0
 10 15  1  0  0  0
 11 12  1  0  0  0
 11 93  1  0  0  0
 12 13  2  0  0  0
 12 94  1  0  0  0
 13 14  1  0  0  0
 13 31  1  0  0  0
 14 15  2  0  0  0
 14 95  1  0  0  0
 15 96  1  0  0  0
 16 17  2  0  0  0
 16 21  1  0  0  0
 16 31  1  0  0  0
 17 18  1  0  0  0
 17 97  1  0  0  0
 18 19  2  0  0  0
 18 98  1  0  0  0
 19 20  1  0  0  0
 19 24  1  0  0  0
 20 21  2  0  0  0
 20 99  1  0  0  0
 21 23  1  0  0  0
 22 28  1  0  0  0
 22 32  2  0  0  0
 26 27  1  0  0  0
 28100  1  0  0  0
 28101  1  0  0  0
 29102  1  0  0  0
 29103  1  0  0  0
 33 34  1  0  0  0
 33 66  1  0  0  0
 33 70  2  0  0  0
 34 36  1  0  0  0
 34 59  1  0  0  0
 34104  1  0  0  0
 35 44  2  0  0  0
 35 45  1  0  0  0
 35 68  1  0  0  0
 36 56  1  0  0  0
 36105  1  0  0  0
 37 39  1  0  0  0
 37 47  1  0  0  0
 37 66  1  0  0  0
 37106  1  0  0  0
 38 43  2  0  0  0
 38 46  1  0  0  0
 38 47  1  0  0  0
 39 64  1  0  0  0
 39 67  2  0  0  0
 40 52  1  0  0  0
 40 53  2  0  0  0
 40 58  1  0  0  0
 41107  1  0  0  0
 41108  1  0  0  0
 41109  1  0  0  0
 41 48  1  0  0  0
 42 43  1  0  0  0
 42 66  1  0  0  0
 42110  1  0  0  0
 42111  1  0  0  0
 43 44  1  0  0  0
 44112  1  0  0  0
 45 46  2  0  0  0
 45113  1  0  0  0
 46114  1  0  0  0
 47115  1  0  0  0
 47116  1  0  0  0
 48 56  1  0  0  0
 48 65  1  0  0  0
 48117  1  0  0  0
 49 50  1  0  0  0
 49 53  1  0  0  0
 49 64  1  0  0  0
 49118  1  0  0  0
 50 51  1  0  0  0
 50119  1  0  0  0
 50120  1  0  0  0
 51 52  1  0  0  0
 51121  1  0  0  0
 51122  1  0  0  0
 52123  1  0  0  0
 52124  1  0  0  0
 53 54  1  0  0  0
 54 55  2  0  0  0
 54125  1  0  0  0
 55 57  1  0  0  0
 55126  1  0  0  0
 56 69  2  0  0  0
 57 58  2  0  0  0
 57127  1  0  0  0
 58128  1  0  0  0
 59 60  1  0  0  0
 59 61  1  0  0  0
 59 62  1  0  0  0
 60129  1  0  0  0
 60130  1  0  0  0
 60131  1  0  0  0
 61132  1  0  0  0
 61133  1  0  0  0
 61134  1  0  0  0
 62135  1  0  0  0
 62136  1  0  0  0
 62137  1  0  0  0
 63 65  1  0  0  0
 63138  1  0  0  0
 63139  1  0  0  0
 63140  1  0  0  0
 64141  1  0  0  0
 65142  1  0  0  0
 68 80  1  0  0  0
 71 72  1  0  0  0
 71 73  2  0  0  0
 71143  1  0  0  0
 72 75  1  0  0  0
 72 81  2  0  0  0
 73 76  1  0  0  0
 73 82  1  0  0  0
 74 75  1  0  0  0
 74144  1  0  0  0
 74145  1  0  0  0
 74146  1  0  0  0
 75147  1  0  0  0
 75148  1  0  0  0
 76 77  1  0  0  0
 76149  1  0  0  0
 76150  1  0  0  0
 77 80  1  0  0  0
 77151  1  0  0  0
 77152  1  0  0  0
 78 79  1  0  0  0
 78 82  1  0  0  0
 78153  1  0  0  0
 78154  1  0  0  0
 79 83  1  0  0  0
 79155  1  0  0  0
 79156  1  0  0  0
 80157  1  0  0  0
 80158  1  0  0  0
 81 82  1  0  0  0
 83159  1  0  0  0
M  ISO  4   1 100  68 101  80 101  83 100
M  END
> <chiral flag>
0

> <version>
0

> <s_m_source_file>
/data/baiqing/PycharmProjects/Reinvent-master-3.2/result/LINK_invent/BTK/process_docking_weight1_custom_sum_contain_oxygen_bond_distance_aromatic_linkinvent_7_9_3/rearranged_h_0081.sdf

> <i_m_source_file_index>
25

> <r_mmod_Potential_Energy-OPLS-2005>
109.96346282959

> <r_mmod_Stretch_Energy-OPLS-2005>
125.017715454102

> <r_mmod_Bend_Energy-OPLS-2005>
185.009567260742

> <r_mmod_Torsional_Energy-OPLS-2005>
231.224563598633

> <r_mmod_Improper_Torsional_Energy-OPLS-2005>
4.67073678970337

> <r_mmod_Van_der_Waal_Energy-OPLS-2005>
123.164535522461

> <r_mmod_Electrostatic_Energy-OPLS-2005>
-420.00537109375

> <r_mmod_Solvation_Energy-OPLS-2005>
-218.037582397461

> <b_mmod_Minimization_Converged-OPLS-2005>
0

> <r_mmod_RMS_Derivative-OPLS-2005>
1.25217282772064

$$$$
25
                    3D
 Structure written by MMmdl.
168176  0  0  1  0            999 V2000
  -30.7033  -14.4579   20.4993 C   0  0  0  0  0  0
  -30.4289  -12.2807   19.4121 C   0  0  0  0  0  0
  -29.4907  -12.4754   18.2027 C   0  0  0  0  0  0
  -28.0112  -12.3538   18.6187 C   0  0  0  0  0  0
  -27.6655  -13.1814   19.8862 C   0  0  2  0  0  0
  -28.7207  -12.9794   20.9980 C   0  0  0  0  0  0
  -25.2659  -13.8074   20.5738 C   0  0  0  0  0  0
  -24.1888  -13.0386   20.9224 C   0  0  0  0  0  0
  -24.6423  -11.6853   20.8786 C   0  0  0  0  0  0
  -23.9086  -10.4268   21.0428 C   0  0  0  0  0  0
  -24.3648   -9.4186   21.9204 C   0  0  0  0  0  0
  -23.6321   -8.2219   22.0765 C   0  0  0  0  0  0
  -22.4297   -8.0278   21.3549 C   0  0  0  0  0  0
  -21.9945   -9.0260   20.4644 C   0  0  0  0  0  0
  -22.7268  -10.2140   20.3065 C   0  0  0  0  0  0
  -21.6835   -6.0757   22.5287 C   0  0  0  0  0  0
  -21.3979   -6.5653   23.8217 C   0  0  0  0  0  0
  -21.3678   -5.6806   24.9180 C   0  0  0  0  0  0
  -21.6057   -4.3071   24.7221 C   0  0  0  0  0  0
  -21.8807   -3.8171   23.4336 C   0  0  0  0  0  0
  -21.9183   -4.6990   22.3401 C   0  0  0  0  0  0
  -22.7913  -13.5204   21.1851 C   0  0  0  0  0  0
  -22.1647   -4.2183   21.0973 F   0  0  0  0  0  0
  -21.5680   -3.4547   25.7729 F   0  0  0  0  0  0
  -30.0454  -13.2732   20.4230 N   0  0  0  0  0  0
  -26.3073  -12.9193   20.3486 N   0  0  0  0  0  0
  -25.9343  -11.6379   20.5864 N   0  0  0  0  0  0
  -22.0539  -12.8229   22.0406 N   0  0  0  0  0  0
  -25.4373  -15.1784   20.4106 N   0  0  0  0  0  0
  -31.8703  -14.6163   20.1337 O   0  0  0  0  0  0
  -21.6627   -6.8901   21.4251 O   0  0  0  0  0  0
  -22.3616  -14.5510   20.6678 O   0  0  0  0  0  0
  -24.6114  -31.8711   23.2132 C   0  0  0  0  0  0
  -25.9012  -32.4843   23.8423 C   0  0  1  0  0  0
  -27.2313  -27.4588   20.0749 C   0  0  0  0  0  0
  -25.5870  -33.8638   24.2343 N   0  0  0  0  0  0
  -23.3961  -30.4946   21.5573 C   0  0  2  0  0  0
  -24.8378  -28.9634   20.1157 C   0  0  0  0  0  0
  -22.7388  -29.4663   22.5039 C   0  0  0  0  0  0
  -18.0268  -28.1375   22.8500 C   0  0  0  0  0  0
  -24.1480  -36.7331   23.2643 C   0  0  0  0  0  0
  -25.9227  -30.8407   21.3614 C   0  0  0  0  0  0
  -25.9985  -29.4780   20.7059 C   0  0  0  0  0  0
  -27.1976  -28.7334   20.6806 C   0  0  0  0  0  0
  -26.0511  -26.9526   19.4820 C   0  0  0  0  0  0
  -24.8578  -27.6984   19.5042 C   0  0  0  0  0  0
  -23.5989  -29.8287   20.1712 C   0  0  0  0  0  0
  -25.4098  -36.3135   24.0345 C   0  0  1  0  0  0
  -20.5850  -28.3652   23.1345 C   0  0  2  0  0  0
  -20.6758  -26.9395   22.5430 C   0  0  0  0  0  0
  -19.5736  -26.6387   21.5221 C   0  0  0  0  0  0
  -18.1912  -26.7918   22.1622 C   0  0  0  0  0  0
  -19.1511  -28.8828   23.2915 C   0  0  0  0  0  0
  -18.9445  -30.1435   23.8921 C   0  0  0  0  0  0
  -17.6455  -30.6591   24.0562 C   0  0  0  0  0  0
  -25.9028  -34.9494   23.5144 C   0  0  0  0  0  0
  -16.5343  -29.9092   23.6333 C   0  0  0  0  0  0
  -16.7255  -28.6501   23.0354 C   0  0  0  0  0  0
  -26.4445  -31.6618   25.0743 C   0  0  0  0  0  0
  -25.3722  -31.3706   26.1502 C   0  0  0  0  0  0
  -27.0259  -30.3074   24.6078 C   0  0  0  0  0  0
  -27.6032  -32.4335   25.7485 C   0  0  0  0  0  0
  -27.5579  -37.1815   24.8462 C   0  0  0  0  0  0
  -21.4122  -29.3018   22.3763 N   0  0  0  0  0  0
  -26.4290  -37.3812   23.9414 N   0  0  0  0  0  0
  -24.6627  -31.0818   22.1029 N   0  0  0  0  0  0
  -23.4176  -28.8212   23.3074 O   0  0  0  0  0  0
  -28.4201  -26.7612   20.0677 O   0  0  0  0  0  0
  -26.5604  -34.8936   22.4719 O   0  0  0  0  0  0
  -23.5317  -32.1444   23.7552 O   0  0  0  0  0  0
  -30.7058  -21.8137   17.8051 C   0  0  0  0  0  0
  -30.8902  -23.2591   19.3807 C   0  0  0  0  0  0
  -31.1861  -22.0216   19.9166 C   0  0  0  0  0  0
  -31.5756  -21.6426   21.3105 C   0  0  0  0  0  0
  -30.6757  -16.8101   17.9559 C   0  0  0  0  0  0
  -28.3335  -16.9829   18.7651 C   0  0  0  0  0  0
  -30.8372  -24.5936   20.0729 C   0  0  0  0  0  0
  -29.5406  -24.7848   20.8800 C   0  0  0  0  0  0
  -29.8206  -18.9631   18.9857 C   0  0  0  0  0  0
  -31.2019  -19.6488   18.9424 C   0  0  0  0  0  0
  -30.2202  -16.9219   20.4834 C   0  0  0  0  0  0
  -28.3440  -25.3346   20.0862 C   0  0  0  0  0  0
  -29.7859  -17.4125   19.0624 C   0  0  0  0  0  0
  -30.5752  -23.1174   18.0316 N   0  0  0  0  0  0
  -31.0458  -21.0955   18.8850 N   0  0  0  0  0  0
  -29.9132  -15.5106   20.7490 N   0  0  0  0  0  0
  -31.4688  -12.3896   19.0995 H   0  0  0  0  0  0
  -30.3411  -11.2731   19.8210 H   0  0  0  0  0  0
  -29.7188  -11.7415   17.4279 H   0  0  0  0  0  0
  -29.6645  -13.4540   17.7545 H   0  0  0  0  0  0
  -27.8009  -11.2984   18.7962 H   0  0  0  0  0  0
  -27.3652  -12.6547   17.7930 H   0  0  0  0  0  0
  -27.6979  -14.2234   19.5999 H   0  0  0  0  0  0
  -28.6990  -11.9515   21.3641 H   0  0  0  0  0  0
  -28.5060  -13.6055   21.8655 H   0  0  0  0  0  0
  -25.2795   -9.5674   22.4772 H   0  0  0  0  0  0
  -24.0039   -7.4613   22.7492 H   0  0  0  0  0  0
  -21.0880   -8.8792   19.8947 H   0  0  0  0  0  0
  -22.3740  -10.9703   19.6190 H   0  0  0  0  0  0
  -21.1917   -7.6148   23.9724 H   0  0  0  0  0  0
  -21.1529   -6.0536   25.9088 H   0  0  0  0  0  0
  -22.0567   -2.7630   23.2813 H   0  0  0  0  0  0
  -22.4124  -11.9877   22.4793 H   0  0  0  0  0  0
  -21.1154  -13.1270   22.2579 H   0  0  0  0  0  0
  -24.6596  -15.8218   20.5041 H   0  0  0  0  0  0
  -26.2731  -15.6204   20.0513 H   0  0  0  0  0  0
  -26.7080  -32.5558   23.1186 H   0  0  0  0  0  0
  -24.9978  -33.9808   25.0459 H   0  0  0  0  0  0
  -22.6834  -31.3109   21.4243 H   0  0  0  0  0  0
  -23.3742  -35.9664   23.3315 H   0  0  0  0  0  0
  -24.3571  -36.8938   22.2055 H   0  0  0  0  0  0
  -23.7224  -37.6537   23.6645 H   0  0  0  0  0  0
  -26.0286  -31.6090   20.5936 H   0  0  0  0  0  0
  -26.8131  -30.8954   21.9755 H   0  0  0  0  0  0
  -28.0960  -29.1303   21.1322 H   0  0  0  0  0  0
  -26.0417  -25.9917   18.9876 H   0  0  0  0  0  0
  -23.9644  -27.2992   19.0435 H   0  0  0  0  0  0
  -23.6988  -30.6044   19.4118 H   0  0  0  0  0  0
  -22.7208  -29.2486   19.8829 H   0  0  0  0  0  0
  -25.1268  -36.2016   25.0838 H   0  0  0  0  0  0
  -20.9922  -28.3214   24.1472 H   0  0  0  0  0  0
  -20.5680  -26.2252   23.3611 H   0  0  0  0  0  0
  -21.6630  -26.7459   22.1212 H   0  0  0  0  0  0
  -19.6908  -25.6300   21.1239 H   0  0  0  0  0  0
  -19.6689  -27.3208   20.6759 H   0  0  0  0  0  0
  -17.4190  -26.6678   21.4019 H   0  0  0  0  0  0
  -18.0301  -26.0053   22.9007 H   0  0  0  0  0  0
  -19.7919  -30.7233   24.2308 H   0  0  0  0  0  0
  -17.5012  -31.6275   24.5149 H   0  0  0  0  0  0
  -15.5339  -30.3003   23.7646 H   0  0  0  0  0  0
  -15.8643  -28.0829   22.7065 H   0  0  0  0  0  0
  -24.5900  -30.7036   25.7853 H   0  0  0  0  0  0
  -24.8892  -32.2845   26.4974 H   0  0  0  0  0  0
  -25.8094  -30.8877   27.0253 H   0  0  0  0  0  0
  -26.2782  -29.6863   24.1125 H   0  0  0  0  0  0
  -27.4039  -29.7278   25.4510 H   0  0  0  0  0  0
  -27.8616  -30.4415   23.9203 H   0  0  0  0  0  0
  -27.2660  -33.3625   26.2100 H   0  0  0  0  0  0
  -28.3807  -32.6922   25.0282 H   0  0  0  0  0  0
  -28.0736  -31.8442   26.5366 H   0  0  0  0  0  0
  -28.2610  -38.0106   24.7520 H   0  0  0  0  0  0
  -28.1069  -36.2639   24.6275 H   0  0  0  0  0  0
  -27.2304  -37.1451   25.8870 H   0  0  0  0  0  0
  -20.9287  -29.8723   21.6971 H   0  0  0  0  0  0
  -26.0196  -38.2898   24.1419 H   0  0  0  0  0  0
  -30.5271  -21.3661   16.8376 H   0  0  0  0  0  0
  -31.4281  -22.4688   22.0063 H   0  0  0  0  0  0
  -32.6285  -21.3601   21.3481 H   0  0  0  0  0  0
  -30.9878  -20.7983   21.6717 H   0  0  0  0  0  0
  -31.7311  -17.0218   18.1264 H   0  0  0  0  0  0
  -30.4147  -17.2111   16.9750 H   0  0  0  0  0  0
  -30.5714  -15.7277   17.8907 H   0  0  0  0  0  0
  -27.9325  -17.4849   17.8838 H   0  0  0  0  0  0
  -27.6655  -17.2014   19.5995 H   0  0  0  0  0  0
  -28.2727  -15.9228   18.5408 H   0  0  0  0  0  0
  -30.9636  -25.4122   19.3632 H   0  0  0  0  0  0
  -31.6847  -24.6707   20.7543 H   0  0  0  0  0  0
  -29.7335  -25.4666   21.7087 H   0  0  0  0  0  0
  -29.2697  -23.8368   21.3450 H   0  0  0  0  0  0
  -29.2815  -19.2813   18.0916 H   0  0  0  0  0  0
  -29.2528  -19.3724   19.8221 H   0  0  0  0  0  0
  -31.7628  -19.3437   18.0590 H   0  0  0  0  0  0
  -31.8100  -19.3753   19.8042 H   0  0  0  0  0  0
  -29.6859  -17.4933   21.2444 H   0  0  0  0  0  0
  -31.2797  -17.1206   20.6586 H   0  0  0  0  0  0
  -27.4361  -25.0049   20.5958 H   0  0  0  0  0  0
  -28.3108  -24.9350   19.0725 H   0  0  0  0  0  0
  -28.9659  -15.3005   21.0216 H   0  0  0  0  0  0
  1 25  1  0  0  0
  1 30  2  0  0  0
  1 86  1  0  0  0
  2  3  1  0  0  0
  2 25  1  0  0  0
  2 87  1  0  0  0
  2 88  1  0  0  0
  3  4  1  0  0  0
  3 89  1  0  0  0
  3 90  1  0  0  0
  4  5  1  0  0  0
  4 91  1  0  0  0
  4 92  1  0  0  0
  5  6  1  0  0  0
  5 26  1  0  0  0
  5 93  1  0  0  0
  6 25  1  0  0  0
  6 94  1  0  0  0
  6 95  1  0  0  0
  7  8  2  0  0  0
  7 26  1  0  0  0
  7 29  1  0  0  0
  8  9  1  0  0  0
  8 22  1  0  0  0
  9 10  1  0  0  0
  9 27  2  0  0  0
 10 11  2  0  0  0
 10 15  1  0  0  0
 11 12  1  0  0  0
 11 96  1  0  0  0
 12 13  2  0  0  0
 12 97  1  0  0  0
 13 14  1  0  0  0
 13 31  1  0  0  0
 14 15  2  0  0  0
 14 98  1  0  0  0
 15 99  1  0  0  0
 16 17  2  0  0  0
 16 21  1  0  0  0
 16 31  1  0  0  0
 17 18  1  0  0  0
 17100  1  0  0  0
 18 19  2  0  0  0
 18101  1  0  0  0
 19 20  1  0  0  0
 19 24  1  0  0  0
 20 21  2  0  0  0
 20102  1  0  0  0
 21 23  1  0  0  0
 22 28  1  0  0  0
 22 32  2  0  0  0
 26 27  1  0  0  0
 28103  1  0  0  0
 28104  1  0  0  0
 29105  1  0  0  0
 29106  1  0  0  0
 33 34  1  0  0  0
 33 66  1  0  0  0
 33 70  2  0  0  0
 34 36  1  0  0  0
 34 59  1  0  0  0
 34107  1  0  0  0
 35 44  2  0  0  0
 35 45  1  0  0  0
 35 68  1  0  0  0
 36 56  1  0  0  0
 36108  1  0  0  0
 37 39  1  0  0  0
 37 47  1  0  0  0
 37 66  1  0  0  0
 37109  1  0  0  0
 38 43  2  0  0  0
 38 46  1  0  0  0
 38 47  1  0  0  0
 39 64  1  0  0  0
 39 67  2  0  0  0
 40 52  1  0  0  0
 40 53  2  0  0  0
 40 58  1  0  0  0
 41110  1  0  0  0
 41111  1  0  0  0
 41112  1  0  0  0
 41 48  1  0  0  0
 42 43  1  0  0  0
 42 66  1  0  0  0
 42113  1  0  0  0
 42114  1  0  0  0
 43 44  1  0  0  0
 44115  1  0  0  0
 45 46  2  0  0  0
 45116  1  0  0  0
 46117  1  0  0  0
 47118  1  0  0  0
 47119  1  0  0  0
 48 56  1  0  0  0
 48 65  1  0  0  0
 48120  1  0  0  0
 49 50  1  0  0  0
 49 53  1  0  0  0
 49 64  1  0  0  0
 49121  1  0  0  0
 50 51  1  0  0  0
 50122  1  0  0  0
 50123  1  0  0  0
 51 52  1  0  0  0
 51124  1  0  0  0
 51125  1  0  0  0
 52126  1  0  0  0
 52127  1  0  0  0
 53 54  1  0  0  0
 54 55  2  0  0  0
 54128  1  0  0  0
 55 57  1  0  0  0
 55129  1  0  0  0
 56 69  2  0  0  0
 57 58  2  0  0  0
 57130  1  0  0  0
 58131  1  0  0  0
 59 60  1  0  0  0
 59 61  1  0  0  0
 59 62  1  0  0  0
 60132  1  0  0  0
 60133  1  0  0  0
 60134  1  0  0  0
 61135  1  0  0  0
 61136  1  0  0  0
 61137  1  0  0  0
 62138  1  0  0  0
 62139  1  0  0  0
 62140  1  0  0  0
 63 65  1  0  0  0
 63141  1  0  0  0
 63142  1  0  0  0
 63143  1  0  0  0
 64144  1  0  0  0
 65145  1  0  0  0
 68 82  1  0  0  0
 71 84  2  0  0  0
 71 85  1  0  0  0
 71146  1  0  0  0
 72 73  2  0  0  0
 72 77  1  0  0  0
 72 84  1  0  0  0
 73 74  1  0  0  0
 73 85  1  0  0  0
 74147  1  0  0  0
 74148  1  0  0  0
 74149  1  0  0  0
 75150  1  0  0  0
 75151  1  0  0  0
 75152  1  0  0  0
 75 83  1  0  0  0
 76 83  1  0  0  0
 76153  1  0  0  0
 76154  1  0  0  0
 76155  1  0  0  0
 77 78  1  0  0  0
 77156  1  0  0  0
 77157  1  0  0  0
 78 82  1  0  0  0
 78158  1  0  0  0
 78159  1  0  0  0
 79 80  1  0  0  0
 79 83  1  0  0  0
 79160  1  0  0  0
 79161  1  0  0  0
 80 85  1  0  0  0
 80162  1  0  0  0
 80163  1  0  0  0
 81 83  1  0  0  0
 81 86  1  0  0  0
 81164  1  0  0  0
 81165  1  0  0  0
 82166  1  0  0  0
 82167  1  0  0  0
 86168  1  0  0  0
M  ISO  4   1 100  68 101  82 101  86 100
M  END
> <chiral flag>
0

> <version>
0

> <s_m_source_file>
/data/baiqing/PycharmProjects/Reinvent-master-3.2/result/LINK_invent/BTK/process_docking_weight1_custom_sum_contain_oxygen_bond_distance_aromatic_linkinvent_7_9_3/rearranged_h_0081.sdf

> <i_m_source_file_index>
26

> <r_mmod_Potential_Energy-OPLS-2005>
-137.579452514648

> <r_mmod_Stretch_Energy-OPLS-2005>
33.2846336364746

> <r_mmod_Bend_Energy-OPLS-2005>
107.212837219238

> <r_mmod_Torsional_Energy-OPLS-2005>
242.445617675781

> <r_mmod_Improper_Torsional_Energy-OPLS-2005>
6.61416149139404

> <r_mmod_Van_der_Waal_Energy-OPLS-2005>
126.070960998535

> <r_mmod_Electrostatic_Energy-OPLS-2005>
-447.860229492188

> <r_mmod_Solvation_Energy-OPLS-2005>
-219.711685180664

> <b_mmod_Minimization_Converged-OPLS-2005>
0

> <r_mmod_RMS_Derivative-OPLS-2005>
2.21685552597046

$$$$
26
                    3D
 Structure written by MMmdl.
163171  0  0  1  0            999 V2000
  -30.6353  -14.7774   20.5693 C   0  0  0  0  0  0
  -30.4196  -12.4956   19.5011 C   0  0  0  0  0  0
  -29.5205  -12.5424   18.2444 C   0  0  0  0  0  0
  -28.0451  -12.3288   18.6308 C   0  0  0  0  0  0
  -27.6305  -13.2274   19.8192 C   0  0  2  0  0  0
  -28.6474  -13.1768   20.9688 C   0  0  0  0  0  0
  -25.2488  -13.8174   20.5615 C   0  0  0  0  0  0
  -24.1783  -13.0437   20.9166 C   0  0  0  0  0  0
  -24.6362  -11.6907   20.8667 C   0  0  0  0  0  0
  -23.9052  -10.4293   21.0370 C   0  0  0  0  0  0
  -24.3619   -9.4229   21.9165 C   0  0  0  0  0  0
  -23.6306   -8.2262   22.0749 C   0  0  0  0  0  0
  -22.4284   -8.0284   21.3548 C   0  0  0  0  0  0
  -21.9910   -9.0242   20.4641 C   0  0  0  0  0  0
  -22.7224  -10.2128   20.3035 C   0  0  0  0  0  0
  -21.6872   -6.0731   22.5279 C   0  0  0  0  0  0
  -21.4025   -6.5626   23.8221 C   0  0  0  0  0  0
  -21.3672   -5.6781   24.9179 C   0  0  0  0  0  0
  -21.6063   -4.3047   24.7225 C   0  0  0  0  0  0
  -21.8811   -3.8136   23.4339 C   0  0  0  0  0  0
  -21.9191   -4.6953   22.3402 C   0  0  0  0  0  0
  -22.7824  -13.5218   21.1881 C   0  0  0  0  0  0
  -22.1661   -4.2144   21.0977 F   0  0  0  0  0  0
  -21.5636   -3.4526   25.7738 F   0  0  0  0  0  0
  -29.9721  -13.5591   20.4468 N   0  0  0  0  0  0
  -26.2835  -12.9366   20.2999 N   0  0  0  0  0  0
  -25.9259  -11.6512   20.5541 N   0  0  0  0  0  0
  -22.0485  -12.8205   22.0450 N   0  0  0  0  0  0
  -25.4235  -15.1906   20.4131 N   0  0  0  0  0  0
  -31.7259  -14.8739   19.9948 O   0  0  0  0  0  0
  -21.6652   -6.8878   21.4256 O   0  0  0  0  0  0
  -22.3499  -14.5535   20.6746 O   0  0  0  0  0  0
  -24.6350  -31.8534   23.1963 C   0  0  0  0  0  0
  -25.9163  -32.4735   23.8316 C   0  0  1  0  0  0
  -27.2084  -27.2340   20.1248 C   0  0  0  0  0  0
  -25.5937  -33.8537   24.2243 N   0  0  0  0  0  0
  -23.4303  -30.4802   21.5412 C   0  0  2  0  0  0
  -24.8746  -28.9267   20.1053 C   0  0  0  0  0  0
  -22.7503  -29.4607   22.4884 C   0  0  0  0  0  0
  -18.0288  -28.1395   22.8475 C   0  0  0  0  0  0
  -24.1478  -36.7274   23.2642 C   0  0  0  0  0  0
  -25.9788  -30.7599   21.3781 C   0  0  0  0  0  0
  -26.0490  -29.3812   20.7169 C   0  0  0  0  0  0
  -27.2186  -28.5479   20.7159 C   0  0  0  0  0  0
  -26.0115  -26.8675   19.4651 C   0  0  0  0  0  0
  -24.8629  -27.6804   19.4668 C   0  0  0  0  0  0
  -23.6464  -29.8159   20.1568 C   0  0  0  0  0  0
  -25.4104  -36.3051   24.0331 C   0  0  1  0  0  0
  -20.5899  -28.3706   23.1253 C   0  0  2  0  0  0
  -20.6767  -26.9422   22.5390 C   0  0  0  0  0  0
  -19.5741  -26.6388   21.5196 C   0  0  0  0  0  0
  -18.1931  -26.7932   22.1624 C   0  0  0  0  0  0
  -19.1548  -28.8861   23.2854 C   0  0  0  0  0  0
  -18.9478  -30.1463   23.8870 C   0  0  0  0  0  0
  -17.6477  -30.6587   24.0564 C   0  0  0  0  0  0
  -25.9061  -34.9424   23.5094 C   0  0  0  0  0  0
  -16.5364  -29.9088   23.6345 C   0  0  0  0  0  0
  -16.7272  -28.6515   23.0348 C   0  0  0  0  0  0
  -26.4519  -31.6558   25.0710 C   0  0  0  0  0  0
  -25.3734  -31.3730   26.1428 C   0  0  0  0  0  0
  -27.0365  -30.2962   24.6216 C   0  0  0  0  0  0
  -27.6062  -32.4317   25.7475 C   0  0  0  0  0  0
  -27.5567  -37.1787   24.8479 C   0  0  0  0  0  0
  -21.4207  -29.3060   22.3636 N   0  0  0  0  0  0
  -26.4276  -37.3755   23.9427 N   0  0  0  0  0  0
  -24.7011  -31.0495   22.0946 N   0  0  0  0  0  0
  -23.4184  -28.8149   23.2995 O   0  0  0  0  0  0
  -28.2773  -26.2955   20.2006 O   0  0  0  0  0  0
  -26.5633  -34.8904   22.4663 O   0  0  0  0  0  0
  -23.5506  -32.1371   23.7264 O   0  0  0  0  0  0
  -29.0677  -18.6215   21.8857 C   0  0  0  0  0  0
  -29.8495  -18.2457   19.5689 C   0  0  0  0  0  0
  -29.2470  -20.1991   21.7234 C   0  0  0  0  0  0
  -29.0087  -19.6047   19.3611 C   0  0  0  0  0  0
  -30.0218  -17.6979   21.0328 C   0  0  1  0  0  0
  -30.3557  -16.2121   24.0682 C   0  0  0  0  0  0
  -29.5675  -15.7212   22.8397 C   0  0  0  0  0  0
  -28.9317  -23.5546   20.3859 C   0  0  0  0  0  0
  -28.4007  -22.0360   20.0766 C   0  0  0  0  0  0
  -27.9660  -24.8208   20.0079 C   0  0  0  0  0  0
  -30.1904  -16.0782   21.4589 C   0  0  2  0  0  0
  -29.2550  -20.7523   20.3240 N   0  3  1  0  0  0
  -31.4672  -12.5964   19.2137 H   0  0  0  0  0  0
  -30.3468  -11.5167   19.9784 H   0  0  0  0  0  0
  -29.8323  -11.7867   17.5232 H   0  0  0  0  0  0
  -29.6360  -13.5082   17.7495 H   0  0  0  0  0  0
  -27.9125  -11.2784   18.8939 H   0  0  0  0  0  0
  -27.3974  -12.5109   17.7715 H   0  0  0  0  0  0
  -27.6258  -14.2493   19.4367 H   0  0  0  0  0  0
  -28.6797  -12.1847   21.4216 H   0  0  0  0  0  0
  -28.2476  -13.8445   21.7211 H   0  0  0  0  0  0
  -25.2771   -9.5716   22.4724 H   0  0  0  0  0  0
  -24.0027   -7.4652   22.7446 H   0  0  0  0  0  0
  -21.0855   -8.8743   19.8928 H   0  0  0  0  0  0
  -22.3683  -10.9656   19.6126 H   0  0  0  0  0  0
  -21.2026   -7.6138   23.9732 H   0  0  0  0  0  0
  -21.1516   -6.0502   25.9092 H   0  0  0  0  0  0
  -22.0580   -2.7593   23.2839 H   0  0  0  0  0  0
  -22.4107  -11.9857   22.4822 H   0  0  0  0  0  0
  -21.1102  -13.1213   22.2664 H   0  0  0  0  0  0
  -24.6670  -15.8507   20.5552 H   0  0  0  0  0  0
  -26.2846  -15.6326   20.1180 H   0  0  0  0  0  0
  -26.7213  -32.5377   23.1039 H   0  0  0  0  0  0
  -25.0060  -33.9660   25.0375 H   0  0  0  0  0  0
  -22.7287  -31.3047   21.3961 H   0  0  0  0  0  0
  -23.3736  -35.9613   23.3307 H   0  0  0  0  0  0
  -24.3576  -36.8894   22.2059 H   0  0  0  0  0  0
  -23.7226  -37.6477   23.6659 H   0  0  0  0  0  0
  -26.1216  -31.5214   20.6100 H   0  0  0  0  0  0
  -26.8558  -30.8068   22.0127 H   0  0  0  0  0  0
  -28.1138  -28.8900   21.2156 H   0  0  0  0  0  0
  -25.9240  -25.9230   18.9488 H   0  0  0  0  0  0
  -23.9661  -27.3341   18.9713 H   0  0  0  0  0  0
  -23.7658  -30.5929   19.4009 H   0  0  0  0  0  0
  -22.7627  -29.2518   19.8552 H   0  0  0  0  0  0
  -25.1275  -36.1897   25.0821 H   0  0  0  0  0  0
  -20.9991  -28.3286   24.1375 H   0  0  0  0  0  0
  -20.5658  -26.2324   23.3605 H   0  0  0  0  0  0
  -21.6640  -26.7428   22.1202 H   0  0  0  0  0  0
  -19.6907  -25.6301   21.1233 H   0  0  0  0  0  0
  -19.6674  -27.3194   20.6723 H   0  0  0  0  0  0
  -17.4189  -26.6660   21.4036 H   0  0  0  0  0  0
  -18.0344  -26.0082   22.9031 H   0  0  0  0  0  0
  -19.7957  -30.7278   24.2234 H   0  0  0  0  0  0
  -17.5038  -31.6269   24.5163 H   0  0  0  0  0  0
  -15.5372  -30.2979   23.7685 H   0  0  0  0  0  0
  -15.8674  -28.0823   22.7075 H   0  0  0  0  0  0
  -24.5909  -30.7068   25.7776 H   0  0  0  0  0  0
  -24.8927  -32.2906   26.4826 H   0  0  0  0  0  0
  -25.8051  -30.8935   27.0217 H   0  0  0  0  0  0
  -26.2953  -29.6688   24.1247 H   0  0  0  0  0  0
  -27.4034  -29.7244   25.4749 H   0  0  0  0  0  0
  -27.8828  -30.4221   23.9458 H   0  0  0  0  0  0
  -27.2651  -33.3620   26.2021 H   0  0  0  0  0  0
  -28.3865  -32.6873   25.0298 H   0  0  0  0  0  0
  -28.0715  -31.8460   26.5411 H   0  0  0  0  0  0
  -28.2598  -38.0069   24.7505 H   0  0  0  0  0  0
  -28.1029  -36.2598   24.6306 H   0  0  0  0  0  0
  -27.2288  -37.1453   25.8882 H   0  0  0  0  0  0
  -20.9388  -29.8788   21.6849 H   0  0  0  0  0  0
  -26.0148  -38.2828   24.1420 H   0  0  0  0  0  0
  -28.0295  -18.3543   21.6808 H   0  0  0  0  0  0
  -29.1878  -18.4177   22.9453 H   0  0  0  0  0  0
  -30.8466  -18.4017   19.1521 H   0  0  0  0  0  0
  -29.4115  -17.4688   18.9439 H   0  0  0  0  0  0
  -30.1838  -20.5067   22.1862 H   0  0  0  0  0  0
  -28.4631  -20.6948   22.2989 H   0  0  0  0  0  0
  -27.9477  -19.3564   19.4031 H   0  0  0  0  0  0
  -29.1733  -19.9660   18.3450 H   0  0  0  0  0  0
  -30.9936  -18.1085   21.3130 H   0  0  0  0  0  0
  -29.7861  -16.0364   24.9817 H   0  0  0  0  0  0
  -30.6107  -17.2682   24.0277 H   0  0  0  0  0  0
  -31.2926  -15.6626   24.1667 H   0  0  0  0  0  0
  -28.5273  -16.0460   22.8761 H   0  0  0  0  0  0
  -29.5674  -14.6467   22.9971 H   0  0  0  0  0  0
  -29.8765  -23.6941   19.8578 H   0  0  0  0  0  0
  -29.1782  -23.6181   21.4468 H   0  0  0  0  0  0
  -28.1547  -22.0315   19.0148 H   0  0  0  0  0  0
  -27.4383  -21.8974   20.5727 H   0  0  0  0  0  0
  -27.7437  -24.7042   18.9475 H   0  0  0  0  0  0
  -27.0281  -24.6309   20.5331 H   0  0  0  0  0  0
  -31.2180  -16.1790   21.8092 H   0  0  0  0  0  0
  -30.2067  -21.0317   20.1419 H   0  0  0  0  0  0
  1 25  1  0  0  0
  1 30  2  0  0  0
  1 81  1  0  0  0
  2  3  1  0  0  0
  2 25  1  0  0  0
  2 83  1  0  0  0
  2 84  1  0  0  0
  3  4  1  0  0  0
  3 85  1  0  0  0
  3 86  1  0  0  0
  4  5  1  0  0  0
  4 87  1  0  0  0
  4 88  1  0  0  0
  5  6  1  0  0  0
  5 26  1  0  0  0
  5 89  1  0  0  0
  6 25  1  0  0  0
  6 90  1  0  0  0
  6 91  1  0  0  0
  7  8  2  0  0  0
  7 26  1  0  0  0
  7 29  1  0  0  0
  8  9  1  0  0  0
  8 22  1  0  0  0
  9 10  1  0  0  0
  9 27  2  0  0  0
 10 11  2  0  0  0
 10 15  1  0  0  0
 11 12  1  0  0  0
 11 92  1  0  0  0
 12 13  2  0  0  0
 12 93  1  0  0  0
 13 14  1  0  0  0
 13 31  1  0  0  0
 14 15  2  0  0  0
 14 94  1  0  0  0
 15 95  1  0  0  0
 16 17  2  0  0  0
 16 21  1  0  0  0
 16 31  1  0  0  0
 17 18  1  0  0  0
 17 96  1  0  0  0
 18 19  2  0  0  0
 18 97  1  0  0  0
 19 20  1  0  0  0
 19 24  1  0  0  0
 20 21  2  0  0  0
 20 98  1  0  0  0
 21 23  1  0  0  0
 22 28  1  0  0  0
 22 32  2  0  0  0
 26 27  1  0  0  0
 28 99  1  0  0  0
 28100  1  0  0  0
 29101  1  0  0  0
 29102  1  0  0  0
 33 34  1  0  0  0
 33 66  1  0  0  0
 33 70  2  0  0  0
 34 36  1  0  0  0
 34 59  1  0  0  0
 34103  1  0  0  0
 35 44  2  0  0  0
 35 45  1  0  0  0
 35 68  1  0  0  0
 36 56  1  0  0  0
 36104  1  0  0  0
 37 39  1  0  0  0
 37 47  1  0  0  0
 37 66  1  0  0  0
 37105  1  0  0  0
 38 43  2  0  0  0
 38 46  1  0  0  0
 38 47  1  0  0  0
 39 64  1  0  0  0
 39 67  2  0  0  0
 40 52  1  0  0  0
 40 53  2  0  0  0
 40 58  1  0  0  0
 41106  1  0  0  0
 41107  1  0  0  0
 41108  1  0  0  0
 41 48  1  0  0  0
 42 43  1  0  0  0
 42 66  1  0  0  0
 42109  1  0  0  0
 42110  1  0  0  0
 43 44  1  0  0  0
 44111  1  0  0  0
 45 46  2  0  0  0
 45112  1  0  0  0
 46113  1  0  0  0
 47114  1  0  0  0
 47115  1  0  0  0
 48 56  1  0  0  0
 48 65  1  0  0  0
 48116  1  0  0  0
 49 50  1  0  0  0
 49 53  1  0  0  0
 49 64  1  0  0  0
 49117  1  0  0  0
 50 51  1  0  0  0
 50118  1  0  0  0
 50119  1  0  0  0
 51 52  1  0  0  0
 51120  1  0  0  0
 51121  1  0  0  0
 52122  1  0  0  0
 52123  1  0  0  0
 53 54  1  0  0  0
 54 55  2  0  0  0
 54124  1  0  0  0
 55 57  1  0  0  0
 55125  1  0  0  0
 56 69  2  0  0  0
 57 58  2  0  0  0
 57126  1  0  0  0
 58127  1  0  0  0
 59 60  1  0  0  0
 59 61  1  0  0  0
 59 62  1  0  0  0
 60128  1  0  0  0
 60129  1  0  0  0
 60130  1  0  0  0
 61131  1  0  0  0
 61132  1  0  0  0
 61133  1  0  0  0
 62134  1  0  0  0
 62135  1  0  0  0
 62136  1  0  0  0
 63 65  1  0  0  0
 63137  1  0  0  0
 63138  1  0  0  0
 63139  1  0  0  0
 64140  1  0  0  0
 65141  1  0  0  0
 68 80  1  0  0  0
 71 73  1  0  0  0
 71142  1  0  0  0
 71143  1  0  0  0
 71 75  1  0  0  0
 72 74  1  0  0  0
 72 75  1  0  0  0
 72144  1  0  0  0
 72145  1  0  0  0
 73 82  1  0  0  0
 73146  1  0  0  0
 73147  1  0  0  0
 74 82  1  0  0  0
 74148  1  0  0  0
 74149  1  0  0  0
 75 81  1  0  0  0
 75150  1  0  0  0
 76 77  1  0  0  0
 76151  1  0  0  0
 76152  1  0  0  0
 76153  1  0  0  0
 77154  1  0  0  0
 77155  1  0  0  0
 77 81  1  0  0  0
 78 79  1  0  0  0
 78 80  1  0  0  0
 78156  1  0  0  0
 78157  1  0  0  0
 79158  1  0  0  0
 79159  1  0  0  0
 79 82  1  0  0  0
 80160  1  0  0  0
 80161  1  0  0  0
 81162  1  0  0  0
 82163  1  0  0  0
M  CHG  1  82   1
M  ISO  4   1 100  68 101  80 101  81 100
M  END
> <chiral flag>
0

> <version>
0

> <s_m_source_file>
/data/baiqing/PycharmProjects/Reinvent-master-3.2/result/LINK_invent/BTK/process_docking_weight1_custom_sum_contain_oxygen_bond_distance_aromatic_linkinvent_7_9_3/rearranged_h_0081.sdf

> <i_m_source_file_index>
27

> <r_mmod_Potential_Energy-OPLS-2005>
384.343597412109

> <r_mmod_Stretch_Energy-OPLS-2005>
173.465316772461

> <r_mmod_Bend_Energy-OPLS-2005>
293.480224609375

> <r_mmod_Torsional_Energy-OPLS-2005>
244.98991394043

> <r_mmod_Improper_Torsional_Energy-OPLS-2005>
2.01707983016968

> <r_mmod_Van_der_Waal_Energy-OPLS-2005>
146.63346862793

> <r_mmod_Electrostatic_Energy-OPLS-2005>
-152.283126831055

> <r_mmod_Solvation_Energy-OPLS-2005>
-426.665618896484

> <b_mmod_Minimization_Converged-OPLS-2005>
0

> <r_mmod_RMS_Derivative-OPLS-2005>
2.95976090431213

$$$$
27
                    3D
 Structure written by MMmdl.
163171  0  0  1  0            999 V2000
  -30.6857  -14.4451   20.5704 C   0  0  0  0  0  0
  -30.4145  -12.2813   19.4334 C   0  0  0  0  0  0
  -29.5024  -12.5091   18.2112 C   0  0  0  0  0  0
  -28.0191  -12.3683   18.6121 C   0  0  0  0  0  0
  -27.6580  -13.2052   19.8722 C   0  0  2  0  0  0
  -28.6908  -12.9745   20.9983 C   0  0  0  0  0  0
  -25.2544  -13.8165   20.5637 C   0  0  0  0  0  0
  -24.1806  -13.0431   20.9164 C   0  0  0  0  0  0
  -24.6369  -11.6901   20.8713 C   0  0  0  0  0  0
  -23.9043  -10.4287   21.0408 C   0  0  0  0  0  0
  -24.3603   -9.4208   21.9180 C   0  0  0  0  0  0
  -23.6279   -8.2248   22.0757 C   0  0  0  0  0  0
  -22.4265   -8.0284   21.3553 C   0  0  0  0  0  0
  -21.9899   -9.0248   20.4655 C   0  0  0  0  0  0
  -22.7226  -10.2131   20.3055 C   0  0  0  0  0  0
  -21.6866   -6.0719   22.5281 C   0  0  0  0  0  0
  -21.4023   -6.5633   23.8210 C   0  0  0  0  0  0
  -21.3650   -5.6790   24.9166 C   0  0  0  0  0  0
  -21.6052   -4.3053   24.7240 C   0  0  0  0  0  0
  -21.8806   -3.8137   23.4356 C   0  0  0  0  0  0
  -21.9187   -4.6944   22.3411 C   0  0  0  0  0  0
  -22.7825  -13.5239   21.1840 C   0  0  0  0  0  0
  -22.1654   -4.2129   21.0985 F   0  0  0  0  0  0
  -21.5630   -3.4543   25.7754 F   0  0  0  0  0  0
  -30.0260  -13.2638   20.4522 N   0  0  0  0  0  0
  -26.2973  -12.9327   20.3324 N   0  0  0  0  0  0
  -25.9292  -11.6472   20.5717 N   0  0  0  0  0  0
  -22.0492  -12.8216   22.0436 N   0  0  0  0  0  0
  -25.4241  -15.1853   20.4006 N   0  0  0  0  0  0
  -31.8117  -14.6398   20.1073 O   0  0  0  0  0  0
  -21.6631   -6.8875   21.4257 O   0  0  0  0  0  0
  -22.3485  -14.5536   20.6708 O   0  0  0  0  0  0
  -24.6207  -31.8706   23.2074 C   0  0  0  0  0  0
  -25.9089  -32.4834   23.8410 C   0  0  1  0  0  0
  -27.2288  -27.4245   20.0898 C   0  0  0  0  0  0
  -25.5918  -33.8626   24.2354 N   0  0  0  0  0  0
  -23.4069  -30.4975   21.5424 C   0  0  2  0  0  0
  -24.8504  -28.9590   20.1233 C   0  0  0  0  0  0
  -22.7481  -29.4692   22.4952 C   0  0  0  0  0  0
  -18.0342  -28.1359   22.8477 C   0  0  0  0  0  0
  -24.1499  -36.7312   23.2625 C   0  0  0  0  0  0
  -25.9388  -30.8366   21.3590 C   0  0  0  0  0  0
  -26.0124  -29.4676   20.7108 C   0  0  0  0  0  0
  -27.2059  -28.7040   20.6958 C   0  0  0  0  0  0
  -26.0326  -26.9228   19.5295 C   0  0  0  0  0  0
  -24.8500  -27.6812   19.5437 C   0  0  0  0  0  0
  -23.6235  -29.8355   20.1578 C   0  0  0  0  0  0
  -25.4101  -36.3087   24.0337 C   0  0  1  0  0  0
  -20.5932  -28.3717   23.1352 C   0  0  2  0  0  0
  -20.6824  -26.9463   22.5381 C   0  0  0  0  0  0
  -19.5826  -26.6508   21.5117 C   0  0  0  0  0  0
  -18.2028  -26.7926   22.1562 C   0  0  0  0  0  0
  -19.1565  -28.8848   23.2918 C   0  0  0  0  0  0
  -18.9427  -30.1442   23.8936 C   0  0  0  0  0  0
  -17.6412  -30.6532   24.0577 C   0  0  0  0  0  0
  -25.9018  -34.9474   23.5137 C   0  0  0  0  0  0
  -16.5333  -29.9014   23.6293 C   0  0  0  0  0  0
  -16.7309  -28.6442   23.0293 C   0  0  0  0  0  0
  -26.4499  -31.6601   25.0747 C   0  0  0  0  0  0
  -25.3791  -31.3715   26.1512 C   0  0  0  0  0  0
  -27.0324  -30.3036   24.6125 C   0  0  0  0  0  0
  -27.6109  -32.4299   25.7526 C   0  0  0  0  0  0
  -27.5584  -37.1824   24.8463 C   0  0  0  0  0  0
  -21.4196  -29.3104   22.3786 N   0  0  0  0  0  0
  -26.4291  -37.3771   23.9406 N   0  0  0  0  0  0
  -24.6722  -31.0843   22.0946 N   0  0  0  0  0  0
  -23.4303  -28.8228   23.2966 O   0  0  0  0  0  0
  -28.4138  -26.7088   20.0849 O   0  0  0  0  0  0
  -26.5577  -34.8918   22.4705 O   0  0  0  0  0  0
  -23.5392  -32.1451   23.7449 O   0  0  0  0  0  0
  -28.3731  -20.7865   20.3178 C   0  0  0  0  0  0
  -27.5018  -21.7067   19.8050 C   0  0  0  0  0  0
  -26.1936  -21.1613   19.9852 C   0  0  0  0  0  0
  -26.3230  -19.9180   20.5555 C   0  0  0  0  0  0
  -24.8975  -21.8183   19.6015 C   0  0  0  0  0  0
  -25.2669  -18.9160   20.9128 C   0  0  0  0  0  0
  -27.8834  -23.0171   19.1343 C   0  0  0  0  0  0
  -27.9573  -24.2336   20.0813 C   0  0  0  0  0  0
  -29.3192  -17.7990   20.4230 C   0  0  0  0  0  0
  -28.3023  -18.4913   21.3641 C   0  0  0  0  0  0
  -30.3348  -16.8681   21.1325 C   0  0  0  0  0  0
  -28.4894  -25.4844   19.3386 C   0  0  0  0  0  0
  -27.6757  -19.6716   20.7538 N   0  0  0  0  0  0
  -29.9527  -15.4496   21.0904 N   0  0  0  0  0  0
  -31.4646  -12.3662   19.1534 H   0  0  0  0  0  0
  -30.2872  -11.2710   19.8259 H   0  0  0  0  0  0
  -29.7497  -11.8045   17.4184 H   0  0  0  0  0  0
  -29.6776  -13.5054   17.7994 H   0  0  0  0  0  0
  -27.8289  -11.3123   18.8042 H   0  0  0  0  0  0
  -27.3766  -12.6507   17.7766 H   0  0  0  0  0  0
  -27.7045  -14.2548   19.5773 H   0  0  0  0  0  0
  -28.6526  -11.9410   21.3398 H   0  0  0  0  0  0
  -28.4463  -13.5778   21.8754 H   0  0  0  0  0  0
  -25.2753   -9.5682   22.4738 H   0  0  0  0  0  0
  -23.9984   -7.4647   22.7473 H   0  0  0  0  0  0
  -21.0824   -8.8755   19.8975 H   0  0  0  0  0  0
  -22.3671  -10.9648   19.6147 H   0  0  0  0  0  0
  -21.2022   -7.6146   23.9711 H   0  0  0  0  0  0
  -21.1496   -6.0521   25.9067 H   0  0  0  0  0  0
  -22.0593   -2.7606   23.2862 H   0  0  0  0  0  0
  -22.4070  -11.9806   22.4763 H   0  0  0  0  0  0
  -21.1101  -13.1260   22.2630 H   0  0  0  0  0  0
  -24.6476  -15.8275   20.4952 H   0  0  0  0  0  0
  -26.2639  -15.6190   20.0424 H   0  0  0  0  0  0
  -26.7249  -32.5618   23.1257 H   0  0  0  0  0  0
  -25.0165  -33.9784   25.0572 H   0  0  0  0  0  0
  -22.6950  -31.3163   21.3992 H   0  0  0  0  0  0
  -23.3740  -35.9670   23.3277 H   0  0  0  0  0  0
  -24.3604  -36.8924   22.2039 H   0  0  0  0  0  0
  -23.7290  -37.6541   23.6635 H   0  0  0  0  0  0
  -26.0673  -31.5928   20.5870 H   0  0  0  0  0  0
  -26.8249  -30.8894   21.9819 H   0  0  0  0  0  0
  -28.1101  -29.0913   21.1448 H   0  0  0  0  0  0
  -25.9871  -25.9415   19.0849 H   0  0  0  0  0  0
  -23.9454  -27.2703   19.1198 H   0  0  0  0  0  0
  -23.7691  -30.6126   19.4040 H   0  0  0  0  0  0
  -22.7466  -29.2654   19.8410 H   0  0  0  0  0  0
  -25.1286  -36.1945   25.0834 H   0  0  0  0  0  0
  -21.0016  -28.3203   24.1464 H   0  0  0  0  0  0
  -20.5656  -26.2283   23.3501 H   0  0  0  0  0  0
  -21.6722  -26.7491   22.1226 H   0  0  0  0  0  0
  -19.7029  -25.6490   21.0996 H   0  0  0  0  0  0
  -19.6763  -27.3471   20.6773 H   0  0  0  0  0  0
  -17.4301  -26.6678   21.3977 H   0  0  0  0  0  0
  -18.0480  -26.0058   22.8974 H   0  0  0  0  0  0
  -19.7870  -30.7244   24.2405 H   0  0  0  0  0  0
  -17.4916  -31.6194   24.5194 H   0  0  0  0  0  0
  -15.5330  -30.2886   23.7522 H   0  0  0  0  0  0
  -15.8728  -28.0730   22.6935 H   0  0  0  0  0  0
  -24.5985  -30.7003   25.7881 H   0  0  0  0  0  0
  -24.8957  -32.2865   26.4942 H   0  0  0  0  0  0
  -25.8161  -30.8944   27.0297 H   0  0  0  0  0  0
  -26.2855  -29.6827   24.1135 H   0  0  0  0  0  0
  -27.4047  -29.7226   25.4588 H   0  0  0  0  0  0
  -27.8737  -30.4334   23.9306 H   0  0  0  0  0  0
  -27.2748  -33.3593   26.2144 H   0  0  0  0  0  0
  -28.3916  -32.6860   25.0352 H   0  0  0  0  0  0
  -28.0794  -31.8399   26.5421 H   0  0  0  0  0  0
  -28.2593  -38.0119   24.7496 H   0  0  0  0  0  0
  -28.1084  -36.2666   24.6294 H   0  0  0  0  0  0
  -27.2321  -37.1492   25.8867 H   0  0  0  0  0  0
  -20.9299  -29.9042   21.7257 H   0  0  0  0  0  0
  -26.0171  -38.2862   24.1369 H   0  0  0  0  0  0
  -29.4514  -20.8243   20.3797 H   0  0  0  0  0  0
  -25.0649  -22.8351   19.2505 H   0  0  0  0  0  0
  -24.2312  -21.8647   20.4623 H   0  0  0  0  0  0
  -24.4075  -21.2554   18.8064 H   0  0  0  0  0  0
  -24.2677  -19.3361   20.7846 H   0  0  0  0  0  0
  -25.3488  -18.5924   21.9508 H   0  0  0  0  0  0
  -25.3394  -18.0352   20.2725 H   0  0  0  0  0  0
  -27.1862  -23.2144   18.3147 H   0  0  0  0  0  0
  -28.8578  -22.8812   18.6686 H   0  0  0  0  0  0
  -28.6189  -24.0026   20.9137 H   0  0  0  0  0  0
  -26.9759  -24.4193   20.5189 H   0  0  0  0  0  0
  -29.9024  -18.5635   19.9120 H   0  0  0  0  0  0
  -28.7882  -17.2734   19.6257 H   0  0  0  0  0  0
  -28.8124  -18.8319   22.2647 H   0  0  0  0  0  0
  -27.5485  -17.7786   21.6950 H   0  0  0  0  0  0
  -30.4851  -17.1678   22.1707 H   0  0  0  0  0  0
  -31.3048  -17.0051   20.6506 H   0  0  0  0  0  0
  -29.5448  -25.3233   19.1113 H   0  0  0  0  0  0
  -28.0110  -25.5909   18.3619 H   0  0  0  0  0  0
  -29.0325  -15.2087   21.4221 H   0  0  0  0  0  0
  1 25  1  0  0  0
  1 30  2  0  0  0
  1 84  1  0  0  0
  2  3  1  0  0  0
  2 25  1  0  0  0
  2 85  1  0  0  0
  2 86  1  0  0  0
  3  4  1  0  0  0
  3 87  1  0  0  0
  3 88  1  0  0  0
  4  5  1  0  0  0
  4 89  1  0  0  0
  4 90  1  0  0  0
  5  6  1  0  0  0
  5 26  1  0  0  0
  5 91  1  0  0  0
  6 25  1  0  0  0
  6 92  1  0  0  0
  6 93  1  0  0  0
  7  8  2  0  0  0
  7 26  1  0  0  0
  7 29  1  0  0  0
  8  9  1  0  0  0
  8 22  1  0  0  0
  9 10  1  0  0  0
  9 27  2  0  0  0
 10 11  2  0  0  0
 10 15  1  0  0  0
 11 12  1  0  0  0
 11 94  1  0  0  0
 12 13  2  0  0  0
 12 95  1  0  0  0
 13 14  1  0  0  0
 13 31  1  0  0  0
 14 15  2  0  0  0
 14 96  1  0  0  0
 15 97  1  0  0  0
 16 17  2  0  0  0
 16 21  1  0  0  0
 16 31  1  0  0  0
 17 18  1  0  0  0
 17 98  1  0  0  0
 18 19  2  0  0  0
 18 99  1  0  0  0
 19 20  1  0  0  0
 19 24  1  0  0  0
 20 21  2  0  0  0
 20100  1  0  0  0
 21 23  1  0  0  0
 22 28  1  0  0  0
 22 32  2  0  0  0
 26 27  1  0  0  0
 28101  1  0  0  0
 28102  1  0  0  0
 29103  1  0  0  0
 29104  1  0  0  0
 33 34  1  0  0  0
 33 66  1  0  0  0
 33 70  2  0  0  0
 34 36  1  0  0  0
 34 59  1  0  0  0
 34105  1  0  0  0
 35 44  2  0  0  0
 35 45  1  0  0  0
 35 68  1  0  0  0
 36 56  1  0  0  0
 36106  1  0  0  0
 37 39  1  0  0  0
 37 47  1  0  0  0
 37 66  1  0  0  0
 37107  1  0  0  0
 38 43  2  0  0  0
 38 46  1  0  0  0
 38 47  1  0  0  0
 39 64  1  0  0  0
 39 67  2  0  0  0
 40 52  1  0  0  0
 40 53  2  0  0  0
 40 58  1  0  0  0
 41108  1  0  0  0
 41109  1  0  0  0
 41110  1  0  0  0
 41 48  1  0  0  0
 42 43  1  0  0  0
 42 66  1  0  0  0
 42111  1  0  0  0
 42112  1  0  0  0
 43 44  1  0  0  0
 44113  1  0  0  0
 45 46  2  0  0  0
 45114  1  0  0  0
 46115  1  0  0  0
 47116  1  0  0  0
 47117  1  0  0  0
 48 56  1  0  0  0
 48 65  1  0  0  0
 48118  1  0  0  0
 49 50  1  0  0  0
 49 53  1  0  0  0
 49 64  1  0  0  0
 49119  1  0  0  0
 50 51  1  0  0  0
 50120  1  0  0  0
 50121  1  0  0  0
 51 52  1  0  0  0
 51122  1  0  0  0
 51123  1  0  0  0
 52124  1  0  0  0
 52125  1  0  0  0
 53 54  1  0  0  0
 54 55  2  0  0  0
 54126  1  0  0  0
 55 57  1  0  0  0
 55127  1  0  0  0
 56 69  2  0  0  0
 57 58  2  0  0  0
 57128  1  0  0  0
 58129  1  0  0  0
 59 60  1  0  0  0
 59 61  1  0  0  0
 59 62  1  0  0  0
 60130  1  0  0  0
 60131  1  0  0  0
 60132  1  0  0  0
 61133  1  0  0  0
 61134  1  0  0  0
 61135  1  0  0  0
 62136  1  0  0  0
 62137  1  0  0  0
 62138  1  0  0  0
 63 65  1  0  0  0
 63139  1  0  0  0
 63140  1  0  0  0
 63141  1  0  0  0
 64142  1  0  0  0
 65143  1  0  0  0
 68 82  1  0  0  0
 71 72  2  0  0  0
 71 83  1  0  0  0
 71144  1  0  0  0
 72 73  1  0  0  0
 72 77  1  0  0  0
 73 74  2  0  0  0
 73 75  1  0  0  0
 74 76  1  0  0  0
 74 83  1  0  0  0
 75145  1  0  0  0
 75146  1  0  0  0
 75147  1  0  0  0
 76148  1  0  0  0
 76149  1  0  0  0
 76150  1  0  0  0
 77 78  1  0  0  0
 77151  1  0  0  0
 77152  1  0  0  0
 78 82  1  0  0  0
 78153  1  0  0  0
 78154  1  0  0  0
 79 80  1  0  0  0
 79 81  1  0  0  0
 79155  1  0  0  0
 79156  1  0  0  0
 80 83  1  0  0  0
 80157  1  0  0  0
 80158  1  0  0  0
 81 84  1  0  0  0
 81159  1  0  0  0
 81160  1  0  0  0
 82161  1  0  0  0
 82162  1  0  0  0
 84163  1  0  0  0
M  ISO  4   1 100  68 101  82 101  84 100
M  END
> <chiral flag>
0

> <version>
0

> <s_m_source_file>
/data/baiqing/PycharmProjects/Reinvent-master-3.2/result/LINK_invent/BTK/process_docking_weight1_custom_sum_contain_oxygen_bond_distance_aromatic_linkinvent_7_9_3/rearranged_h_0081.sdf

> <i_m_source_file_index>
28

> <r_mmod_Potential_Energy-OPLS-2005>
-127.250221252441

> <r_mmod_Stretch_Energy-OPLS-2005>
35.7304153442383

> <r_mmod_Bend_Energy-OPLS-2005>
101.512344360352

> <r_mmod_Torsional_Energy-OPLS-2005>
212.022384643555

> <r_mmod_Improper_Torsional_Energy-OPLS-2005>
3.98247575759888

> <r_mmod_Van_der_Waal_Energy-OPLS-2005>
129.029418945312

> <r_mmod_Electrostatic_Energy-OPLS-2005>
-408.716033935547

> <r_mmod_Solvation_Energy-OPLS-2005>
-213.500885009766

> <b_mmod_Minimization_Converged-OPLS-2005>
0

> <r_mmod_RMS_Derivative-OPLS-2005>
6.03243637084961

$$$$
28
                    3D
 Structure written by MMmdl.
163171  0  0  1  0            999 V2000
  -30.6471  -14.4600   20.5619 C   0  0  0  0  0  0
  -30.4406  -12.2933   19.4070 C   0  0  0  0  0  0
  -29.4992  -12.4870   18.1979 C   0  0  0  0  0  0
  -28.0248  -12.3305   18.6227 C   0  0  0  0  0  0
  -27.6713  -13.1747   19.8759 C   0  0  2  0  0  0
  -28.7102  -12.9251   20.9947 C   0  0  0  0  0  0
  -25.2718  -13.8079   20.5597 C   0  0  0  0  0  0
  -24.1908  -13.0412   20.9130 C   0  0  0  0  0  0
  -24.6424  -11.6876   20.8726 C   0  0  0  0  0  0
  -23.9075  -10.4294   21.0427 C   0  0  0  0  0  0
  -24.3608   -9.4205   21.9227 C   0  0  0  0  0  0
  -23.6271   -8.2236   22.0788 C   0  0  0  0  0  0
  -22.4271   -8.0282   21.3545 C   0  0  0  0  0  0
  -21.9905   -9.0274   20.4670 C   0  0  0  0  0  0
  -22.7235  -10.2146   20.3101 C   0  0  0  0  0  0
  -21.6863   -6.0750   22.5289 C   0  0  0  0  0  0
  -21.4008   -6.5642   23.8206 C   0  0  0  0  0  0
  -21.3648   -5.6789   24.9165 C   0  0  0  0  0  0
  -21.6044   -4.3063   24.7211 C   0  0  0  0  0  0
  -21.8815   -3.8145   23.4340 C   0  0  0  0  0  0
  -21.9194   -4.6976   22.3378 C   0  0  0  0  0  0
  -22.7964  -13.5301   21.1720 C   0  0  0  0  0  0
  -22.1671   -4.2151   21.0976 F   0  0  0  0  0  0
  -21.5622   -3.4545   25.7731 F   0  0  0  0  0  0
  -30.0427  -13.2488   20.4502 N   0  0  0  0  0  0
  -26.3084  -12.9172   20.3350 N   0  0  0  0  0  0
  -25.9328  -11.6372   20.5776 N   0  0  0  0  0  0
  -22.0569  -12.8329   22.0284 N   0  0  0  0  0  0
  -25.4420  -15.1760   20.3812 N   0  0  0  0  0  0
  -31.7468  -14.7272   20.0681 O   0  0  0  0  0  0
  -21.6636   -6.8881   21.4244 O   0  0  0  0  0  0
  -22.3665  -14.5590   20.6570 O   0  0  0  0  0  0
  -24.6092  -31.8709   23.2085 C   0  0  0  0  0  0
  -25.9027  -32.4829   23.8353 C   0  0  1  0  0  0
  -27.2488  -27.4802   20.0807 C   0  0  0  0  0  0
  -25.5914  -33.8621   24.2355 N   0  0  0  0  0  0
  -23.3930  -30.4977   21.5469 C   0  0  2  0  0  0
  -24.8394  -28.9555   20.1268 C   0  0  0  0  0  0
  -22.7341  -29.4792   22.5009 C   0  0  0  0  0  0
  -18.0315  -28.1423   22.8335 C   0  0  0  0  0  0
  -24.1485  -36.7323   23.2645 C   0  0  0  0  0  0
  -25.9175  -30.8514   21.3528 C   0  0  0  0  0  0
  -25.9953  -29.4812   20.7171 C   0  0  0  0  0  0
  -27.1984  -28.7486   20.6946 C   0  0  0  0  0  0
  -26.0716  -26.9604   19.4962 C   0  0  0  0  0  0
  -24.8679  -27.6885   19.5198 C   0  0  0  0  0  0
  -23.5966  -29.8147   20.1673 C   0  0  0  0  0  0
  -25.4105  -36.3127   24.0357 C   0  0  1  0  0  0
  -20.5885  -28.3704   23.1214 C   0  0  2  0  0  0
  -20.6875  -26.9470   22.5217 C   0  0  0  0  0  0
  -19.5847  -26.6520   21.4996 C   0  0  0  0  0  0
  -18.2002  -26.8003   22.1386 C   0  0  0  0  0  0
  -19.1530  -28.8865   23.2869 C   0  0  0  0  0  0
  -18.9394  -30.1405   23.8998 C   0  0  0  0  0  0
  -17.6349  -30.6489   24.0657 C   0  0  0  0  0  0
  -25.9021  -34.9477   23.5143 C   0  0  0  0  0  0
  -16.5267  -29.8988   23.6329 C   0  0  0  0  0  0
  -16.7296  -28.6483   23.0218 C   0  0  0  0  0  0
  -26.4460  -31.6616   25.0691 C   0  0  0  0  0  0
  -25.3784  -31.3689   26.1491 C   0  0  0  0  0  0
  -27.0273  -30.3069   24.6062 C   0  0  0  0  0  0
  -27.6038  -32.4336   25.7483 C   0  0  0  0  0  0
  -27.5590  -37.1815   24.8479 C   0  0  0  0  0  0
  -21.4125  -29.3068   22.3610 N   0  0  0  0  0  0
  -26.4301  -37.3823   23.9417 N   0  0  0  0  0  0
  -24.6585  -31.0869   22.0948 N   0  0  0  0  0  0
  -23.4108  -28.8416   23.3115 O   0  0  0  0  0  0
  -28.4695  -26.8619   19.9699 O   0  0  0  0  0  0
  -26.5579  -34.8909   22.4717 O   0  0  0  0  0  0
  -23.5296  -32.1404   23.7532 O   0  0  0  0  0  0
  -28.6634  -19.6840   19.9927 C   0  0  0  0  0  0
  -28.2427  -18.8677   21.0212 C   0  0  0  0  0  0
  -26.9083  -20.6648   20.9436 C   0  0  0  0  0  0
  -25.7879  -21.6094   21.2836 C   0  0  0  0  0  0
  -28.9878  -17.5977   23.0505 C   0  0  0  0  0  0
  -28.7260  -23.0926   19.7120 C   0  0  0  0  0  0
  -28.0453  -24.4610   19.5822 C   0  0  0  0  0  0
  -27.8975  -21.9481   19.0802 C   0  0  0  0  0  0
  -29.8365  -16.8411   20.7780 C   0  0  0  0  0  0
  -28.6306  -25.5526   20.4961 C   0  0  0  0  0  0
  -28.6700  -17.5171   21.5462 C   0  0  1  0  0  0
  -27.8319  -20.7807   19.9764 N   0  0  0  0  0  0
  -27.1699  -19.5186   21.5774 N   0  3  0  0  0  0
  -29.8497  -15.4042   21.0819 N   0  0  0  0  0  0
  -31.4806  -12.4082   19.1017 H   0  0  0  0  0  0
  -30.3545  -11.2754   19.7848 H   0  0  0  0  0  0
  -29.7385  -11.7585   17.4216 H   0  0  0  0  0  0
  -29.6589  -13.4691   17.7487 H   0  0  0  0  0  0
  -27.8629  -11.2741   18.8408 H   0  0  0  0  0  0
  -27.3576  -12.5688   17.7941 H   0  0  0  0  0  0
  -27.7311  -14.2234   19.5821 H   0  0  0  0  0  0
  -28.6958  -11.8800   21.3043 H   0  0  0  0  0  0
  -28.4662  -13.4898   21.8985 H   0  0  0  0  0  0
  -25.2762   -9.5688   22.4779 H   0  0  0  0  0  0
  -23.9989   -7.4655   22.7539 H   0  0  0  0  0  0
  -21.0814   -8.8787   19.8995 H   0  0  0  0  0  0
  -22.3693  -10.9686   19.6192 H   0  0  0  0  0  0
  -21.2000   -7.6156   23.9696 H   0  0  0  0  0  0
  -21.1477   -6.0536   25.9060 H   0  0  0  0  0  0
  -22.0607   -2.7617   23.2832 H   0  0  0  0  0  0
  -22.4131  -12.0002   22.4709 H   0  0  0  0  0  0
  -21.1215  -13.1431   22.2482 H   0  0  0  0  0  0
  -24.6300  -15.7838   20.3771 H   0  0  0  0  0  0
  -26.2212  -15.5636   19.8611 H   0  0  0  0  0  0
  -26.7125  -32.5547   23.1131 H   0  0  0  0  0  0
  -25.0022  -33.9816   25.0470 H   0  0  0  0  0  0
  -22.6789  -31.3121   21.4025 H   0  0  0  0  0  0
  -23.3737  -35.9660   23.3304 H   0  0  0  0  0  0
  -24.3565  -36.8935   22.2049 H   0  0  0  0  0  0
  -23.7228  -37.6542   23.6633 H   0  0  0  0  0  0
  -26.0249  -31.6107   20.5777 H   0  0  0  0  0  0
  -26.8086  -30.9098   21.9678 H   0  0  0  0  0  0
  -28.1018  -29.1696   21.1083 H   0  0  0  0  0  0
  -26.0629  -26.0277   18.9559 H   0  0  0  0  0  0
  -23.9779  -27.2834   19.0528 H   0  0  0  0  0  0
  -23.6951  -30.5777   19.3905 H   0  0  0  0  0  0
  -22.7248  -29.2189   19.8891 H   0  0  0  0  0  0
  -25.1265  -36.1985   25.0845 H   0  0  0  0  0  0
  -20.9937  -28.3346   24.1329 H   0  0  0  0  0  0
  -20.5858  -26.2194   23.3281 H   0  0  0  0  0  0
  -21.6741  -26.7682   22.0878 H   0  0  0  0  0  0
  -19.7039  -25.6420   21.1016 H   0  0  0  0  0  0
  -19.6740  -27.3364   20.6548 H   0  0  0  0  0  0
  -17.4347  -26.6725   21.3727 H   0  0  0  0  0  0
  -18.0521  -26.0094   22.8736 H   0  0  0  0  0  0
  -19.7916  -30.7249   24.2280 H   0  0  0  0  0  0
  -17.4831  -31.6152   24.5336 H   0  0  0  0  0  0
  -15.5229  -30.2794   23.7541 H   0  0  0  0  0  0
  -15.8784  -28.0855   22.6643 H   0  0  0  0  0  0
  -24.5947  -30.7056   25.7858 H   0  0  0  0  0  0
  -24.8956  -32.2794   26.5023 H   0  0  0  0  0  0
  -25.8166  -30.8809   27.0201 H   0  0  0  0  0  0
  -26.2768  -29.6872   24.1142 H   0  0  0  0  0  0
  -27.4096  -29.7306   25.4497 H   0  0  0  0  0  0
  -27.8587  -30.4419   23.9146 H   0  0  0  0  0  0
  -27.2665  -33.3613   26.2116 H   0  0  0  0  0  0
  -28.3812  -32.6957   25.0311 H   0  0  0  0  0  0
  -28.0753  -31.8428   26.5356 H   0  0  0  0  0  0
  -28.2623  -38.0100   24.7507 H   0  0  0  0  0  0
  -28.1062  -36.2628   24.6292 H   0  0  0  0  0  0
  -27.2300  -37.1463   25.8887 H   0  0  0  0  0  0
  -20.9433  -29.8526   21.6496 H   0  0  0  0  0  0
  -26.0179  -38.2910   24.1409 H   0  0  0  0  0  0
  -29.4742  -19.5721   19.2833 H   0  0  0  0  0  0
  -24.9491  -21.4017   20.6205 H   0  0  0  0  0  0
  -26.1063  -22.6404   21.1533 H   0  0  0  0  0  0
  -25.4904  -21.4616   22.3246 H   0  0  0  0  0  0
  -28.1168  -17.9040   23.6329 H   0  0  0  0  0  0
  -29.7771  -18.3263   23.2409 H   0  0  0  0  0  0
  -29.3341  -16.6398   23.4501 H   0  0  0  0  0  0
  -28.9179  -22.8862   20.7681 H   0  0  0  0  0  0
  -29.7072  -23.1286   19.2367 H   0  0  0  0  0  0
  -26.9851  -24.3494   19.8162 H   0  0  0  0  0  0
  -28.1080  -24.7895   18.5446 H   0  0  0  0  0  0
  -28.3237  -21.6341   18.1259 H   0  0  0  0  0  0
  -26.8745  -22.2537   18.8505 H   0  0  0  0  0  0
  -30.7901  -17.3091   21.0312 H   0  0  0  0  0  0
  -29.6855  -16.9629   19.7032 H   0  0  0  0  0  0
  -29.7116  -25.4106   20.5835 H   0  0  0  0  0  0
  -28.2508  -25.4939   21.5159 H   0  0  0  0  0  0
  -27.7878  -16.8818   21.4272 H   0  0  0  0  0  0
  -26.6341  -19.1832   22.3684 H   0  0  0  0  0  0
  -29.0054  -15.0560   21.5082 H   0  0  0  0  0  0
  1 25  1  0  0  0
  1 30  2  0  0  0
  1 84  1  0  0  0
  2  3  1  0  0  0
  2 25  1  0  0  0
  2 85  1  0  0  0
  2 86  1  0  0  0
  3  4  1  0  0  0
  3 87  1  0  0  0
  3 88  1  0  0  0
  4  5  1  0  0  0
  4 89  1  0  0  0
  4 90  1  0  0  0
  5  6  1  0  0  0
  5 26  1  0  0  0
  5 91  1  0  0  0
  6 25  1  0  0  0
  6 92  1  0  0  0
  6 93  1  0  0  0
  7  8  2  0  0  0
  7 26  1  0  0  0
  7 29  1  0  0  0
  8  9  1  0  0  0
  8 22  1  0  0  0
  9 10  1  0  0  0
  9 27  2  0  0  0
 10 11  2  0  0  0
 10 15  1  0  0  0
 11 12  1  0  0  0
 11 94  1  0  0  0
 12 13  2  0  0  0
 12 95  1  0  0  0
 13 14  1  0  0  0
 13 31  1  0  0  0
 14 15  2  0  0  0
 14 96  1  0  0  0
 15 97  1  0  0  0
 16 17  2  0  0  0
 16 21  1  0  0  0
 16 31  1  0  0  0
 17 18  1  0  0  0
 17 98  1  0  0  0
 18 19  2  0  0  0
 18 99  1  0  0  0
 19 20  1  0  0  0
 19 24  1  0  0  0
 20 21  2  0  0  0
 20100  1  0  0  0
 21 23  1  0  0  0
 22 28  1  0  0  0
 22 32  2  0  0  0
 26 27  1  0  0  0
 28101  1  0  0  0
 28102  1  0  0  0
 29103  1  0  0  0
 29104  1  0  0  0
 33 34  1  0  0  0
 33 66  1  0  0  0
 33 70  2  0  0  0
 34 36  1  0  0  0
 34 59  1  0  0  0
 34105  1  0  0  0
 35 44  2  0  0  0
 35 45  1  0  0  0
 35 68  1  0  0  0
 36 56  1  0  0  0
 36106  1  0  0  0
 37 39  1  0  0  0
 37 47  1  0  0  0
 37 66  1  0  0  0
 37107  1  0  0  0
 38 43  2  0  0  0
 38 46  1  0  0  0
 38 47  1  0  0  0
 39 64  1  0  0  0
 39 67  2  0  0  0
 40 52  1  0  0  0
 40 53  2  0  0  0
 40 58  1  0  0  0
 41108  1  0  0  0
 41109  1  0  0  0
 41110  1  0  0  0
 41 48  1  0  0  0
 42 43  1  0  0  0
 42 66  1  0  0  0
 42111  1  0  0  0
 42112  1  0  0  0
 43 44  1  0  0  0
 44113  1  0  0  0
 45 46  2  0  0  0
 45114  1  0  0  0
 46115  1  0  0  0
 47116  1  0  0  0
 47117  1  0  0  0
 48 56  1  0  0  0
 48 65  1  0  0  0
 48118  1  0  0  0
 49 50  1  0  0  0
 49 53  1  0  0  0
 49 64  1  0  0  0
 49119  1  0  0  0
 50 51  1  0  0  0
 50120  1  0  0  0
 50121  1  0  0  0
 51 52  1  0  0  0
 51122  1  0  0  0
 51123  1  0  0  0
 52124  1  0  0  0
 52125  1  0  0  0
 53 54  1  0  0  0
 54 55  2  0  0  0
 54126  1  0  0  0
 55 57  1  0  0  0
 55127  1  0  0  0
 56 69  2  0  0  0
 57 58  2  0  0  0
 57128  1  0  0  0
 58129  1  0  0  0
 59 60  1  0  0  0
 59 61  1  0  0  0
 59 62  1  0  0  0
 60130  1  0  0  0
 60131  1  0  0  0
 60132  1  0  0  0
 61133  1  0  0  0
 61134  1  0  0  0
 61135  1  0  0  0
 62136  1  0  0  0
 62137  1  0  0  0
 62138  1  0  0  0
 63 65  1  0  0  0
 63139  1  0  0  0
 63140  1  0  0  0
 63141  1  0  0  0
 64142  1  0  0  0
 65143  1  0  0  0
 68 80  1  0  0  0
 71 72  2  0  0  0
 71 82  1  0  0  0
 71144  1  0  0  0
 72 81  1  0  0  0
 72 83  1  0  0  0
 73 74  1  0  0  0
 73 82  1  0  0  0
 73 83  2  0  0  0
 74145  1  0  0  0
 74146  1  0  0  0
 74147  1  0  0  0
 75148  1  0  0  0
 75149  1  0  0  0
 75150  1  0  0  0
 75 81  1  0  0  0
 76 77  1  0  0  0
 76 78  1  0  0  0
 76151  1  0  0  0
 76152  1  0  0  0
 77 80  1  0  0  0
 77153  1  0  0  0
 77154  1  0  0  0
 78 82  1  0  0  0
 78155  1  0  0  0
 78156  1  0  0  0
 79 81  1  0  0  0
 79 84  1  0  0  0
 79157  1  0  0  0
 79158  1  0  0  0
 80159  1  0  0  0
 80160  1  0  0  0
 81161  1  0  0  0
 83162  1  0  0  0
 84163  1  0  0  0
M  CHG  1  83   1
M  ISO  4   1 100  68 101  80 101  84 100
M  END
> <chiral flag>
0

> <version>
0

> <s_m_source_file>
/data/baiqing/PycharmProjects/Reinvent-master-3.2/result/LINK_invent/BTK/process_docking_weight1_custom_sum_contain_oxygen_bond_distance_aromatic_linkinvent_7_9_3/rearranged_h_0081.sdf

> <i_m_source_file_index>
29

> <r_mmod_Potential_Energy-OPLS-2005>
-121.212188720703

> <r_mmod_Stretch_Energy-OPLS-2005>
32.8170051574707

> <r_mmod_Bend_Energy-OPLS-2005>
97.4771881103516

> <r_mmod_Torsional_Energy-OPLS-2005>
260.617004394531

> <r_mmod_Improper_Torsional_Energy-OPLS-2005>
8.0753288269043

> <r_mmod_Van_der_Waal_Energy-OPLS-2005>
128.846221923828

> <r_mmod_Electrostatic_Energy-OPLS-2005>
-238.106689453125

> <r_mmod_Solvation_Energy-OPLS-2005>
-424.981658935547

> <b_mmod_Minimization_Converged-OPLS-2005>
0

> <r_mmod_RMS_Derivative-OPLS-2005>
8.01004981994629

$$$$
29
                    3D
 Structure written by MMmdl.
173181  0  0  1  0            999 V2000
  -30.0964  -15.9390   20.0114 C   0  0  0  0  0  0
  -30.3731  -13.2829   19.4428 C   0  0  0  0  0  0
  -29.5317  -12.6731   18.2874 C   0  0  0  0  0  0
  -28.1366  -12.2596   18.7807 C   0  0  0  0  0  0
  -27.5654  -13.3137   19.7528 C   0  0  2  0  0  0
  -28.5701  -13.8183   20.8126 C   0  0  0  0  0  0
  -25.2301  -13.8259   20.5799 C   0  0  0  0  0  0
  -24.1717  -13.0398   20.9309 C   0  0  0  0  0  0
  -24.6433  -11.6912   20.8776 C   0  0  0  0  0  0
  -23.9132  -10.4259   21.0408 C   0  0  0  0  0  0
  -24.3676   -9.4176   21.9184 C   0  0  0  0  0  0
  -23.6315   -8.2241   22.0766 C   0  0  0  0  0  0
  -22.4303   -8.0279   21.3551 C   0  0  0  0  0  0
  -21.9951   -9.0254   20.4662 C   0  0  0  0  0  0
  -22.7309  -10.2105   20.3041 C   0  0  0  0  0  0
  -21.6856   -6.0750   22.5271 C   0  0  0  0  0  0
  -21.4027   -6.5653   23.8207 C   0  0  0  0  0  0
  -21.3668   -5.6807   24.9174 C   0  0  0  0  0  0
  -21.6026   -4.3062   24.7218 C   0  0  0  0  0  0
  -21.8824   -3.8156   23.4339 C   0  0  0  0  0  0
  -21.9196   -4.6978   22.3397 C   0  0  0  0  0  0
  -22.7733  -13.5131   21.1922 C   0  0  0  0  0  0
  -22.1663   -4.2162   21.0978 F   0  0  0  0  0  0
  -21.5621   -3.4543   25.7733 F   0  0  0  0  0  0
  -29.6577  -14.5119   20.0590 N   0  0  0  0  0  0
  -26.2718  -12.9602   20.3117 N   0  0  0  0  0  0
  -25.9366  -11.6663   20.5633 N   0  0  0  0  0  0
  -22.0404  -12.8103   22.0468 N   0  0  0  0  0  0
  -25.3861  -15.2003   20.4288 N   0  0  0  0  0  0
  -31.3484  -15.8454   19.9997 O   0  0  0  0  0  0
  -21.6636   -6.8897   21.4239 O   0  0  0  0  0  0
  -22.3430  -14.5418   20.6719 O   0  0  0  0  0  0
  -24.7293  -31.6979   22.9724 C   0  0  0  0  0  0
  -25.9424  -32.4015   23.6943 C   0  0  1  0  0  0
  -27.6182  -26.7617   20.8607 C   0  0  0  0  0  0
  -25.5618  -33.7827   24.1003 N   0  0  0  0  0  0
  -23.5520  -30.2049   21.3483 C   0  0  2  0  0  0
  -24.9585  -28.3520   19.8844 C   0  0  0  0  0  0
  -22.7876  -29.3774   22.4256 C   0  0  0  0  0  0
  -18.0406  -28.1360   22.8490 C   0  0  0  0  0  0
  -24.1393  -36.7005   23.2694 C   0  0  0  0  0  0
  -26.0569  -30.5821   20.8859 C   0  0  0  0  0  0
  -26.2570  -29.1427   20.0455 C   0  0  0  0  0  0
  -27.5890  -28.3246   20.2660 C   0  0  0  0  0  0
  -26.0474  -25.7974   20.8369 C   0  0  0  0  0  0
  -24.8069  -26.7806   20.1816 C   0  0  0  0  0  0
  -23.7459  -29.3373   20.0251 C   0  0  0  0  0  0
  -25.4125  -36.2666   24.0190 C   0  0  1  0  0  0
  -20.6044  -28.3712   23.1079 C   0  0  2  0  0  0
  -20.6719  -26.9258   22.5529 C   0  0  0  0  0  0
  -19.5739  -26.6203   21.5280 C   0  0  0  0  0  0
  -18.1947  -26.7902   22.1621 C   0  0  0  0  0  0
  -19.1686  -28.8887   23.2729 C   0  0  0  0  0  0
  -18.9617  -30.1477   23.8765 C   0  0  0  0  0  0
  -17.6618  -30.6584   24.0504 C   0  0  0  0  0  0
  -25.9117  -34.9082   23.4608 C   0  0  0  0  0  0
  -16.5499  -29.9058   23.6325 C   0  0  0  0  0  0
  -16.7414  -28.6415   23.0480 C   0  0  0  0  0  0
  -26.4450  -31.6523   25.0039 C   0  0  0  0  0  0
  -25.3525  -31.4040   26.0729 C   0  0  0  0  0  0
  -27.0246  -30.2870   24.6137 C   0  0  0  0  0  0
  -27.5752  -32.4518   25.7048 C   0  0  0  0  0  0
  -27.5492  -37.1627   24.8426 C   0  0  0  0  0  0
  -21.4473  -29.2797   22.3202 N   0  0  0  0  0  0
  -26.4158  -37.3541   23.9416 N   0  0  0  0  0  0
  -24.8257  -30.8654   21.8228 N   0  0  0  0  0  0
  -23.4092  -28.7998   23.3163 O   0  0  0  0  0  0
  -28.3713  -26.7875   21.8705 O   0  0  0  0  0  0
  -26.6042  -34.8887   22.4402 O   0  0  0  0  0  0
  -23.6327  -31.9666   23.5023 O   0  0  0  0  0  0
  -28.9635  -22.2524   19.9953 C   0  0  0  0  0  0
  -28.5995  -23.7666   19.8139 C   0  0  0  0  0  0
  -27.5180  -24.4944   18.9700 C   0  0  0  0  0  0
  -28.5398  -20.9734   19.3496 C   0  0  0  0  0  0
  -27.2979  -23.1672   18.2081 C   0  0  0  0  0  0
  -24.6319  -24.2051   15.8609 C   0  0  0  0  0  0
  -30.2250  -26.1502   18.4976 C   0  0  0  0  0  0
  -31.2609  -26.6394   20.7294 C   0  0  0  0  0  0
  -29.6804  -24.5670   20.5796 C   0  0  0  0  0  0
  -26.7717  -26.4315   18.8668 C   0  0  0  0  0  0
  -26.8201  -23.3844   16.7832 C   0  0  0  0  0  0
  -29.3888  -19.1879   19.4528 C   0  0  0  0  0  0
  -25.3685  -23.0069   16.4730 C   0  0  0  0  0  0
  -26.0757  -27.7044   21.9472 C   0  0  0  0  0  0
  -27.3571  -27.2334   22.8054 C   0  0  0  0  0  0
  -30.6695  -25.5307   19.8308 C   0  0  0  0  0  0
  -27.7072  -21.7030   18.3844 N   0  0  0  0  0  0
  -29.2990  -17.3454   19.8051 N   0  0  0  0  0  0
  -31.3513  -13.5736   19.0558 H   0  0  0  0  0  0
  -30.6001  -12.5229   20.1918 H   0  0  0  0  0  0
  -30.0403  -11.8212   17.8375 H   0  0  0  0  0  0
  -29.4309  -13.4147   17.4950 H   0  0  0  0  0  0
  -28.2264  -11.3013   19.2940 H   0  0  0  0  0  0
  -27.4611  -12.0920   17.9392 H   0  0  0  0  0  0
  -27.3585  -14.1649   19.1026 H   0  0  0  0  0  0
  -28.9228  -13.0161   21.4635 H   0  0  0  0  0  0
  -28.0949  -14.5514   21.4658 H   0  0  0  0  0  0
  -25.2819   -9.5635   22.4767 H   0  0  0  0  0  0
  -24.0000   -7.4636   22.7494 H   0  0  0  0  0  0
  -21.0886   -8.8805   19.8966 H   0  0  0  0  0  0
  -22.3804  -10.9657   19.6143 H   0  0  0  0  0  0
  -21.2040   -7.6163   23.9718 H   0  0  0  0  0  0
  -21.1478   -6.0536   25.9078 H   0  0  0  0  0  0
  -22.0595   -2.7613   23.2830 H   0  0  0  0  0  0
  -22.4113  -11.9800   22.4855 H   0  0  0  0  0  0
  -21.1004  -13.1087   22.2665 H   0  0  0  0  0  0
  -24.6057  -15.8383   20.5554 H   0  0  0  0  0  0
  -26.2284  -15.6560   20.1033 H   0  0  0  0  0  0
  -26.7608  -32.4447   22.9724 H   0  0  0  0  0  0
  -24.9421  -33.8646   24.8961 H   0  0  0  0  0  0
  -22.8770  -31.0158   21.0757 H   0  0  0  0  0  0
  -23.3711  -35.9272   23.3264 H   0  0  0  0  0  0
  -24.3370  -36.8889   22.2117 H   0  0  0  0  0  0
  -23.7117  -37.6082   23.6990 H   0  0  0  0  0  0
  -26.0938  -31.3989   20.1652 H   0  0  0  0  0  0
  -26.9545  -30.6990   21.4932 H   0  0  0  0  0  0
  -28.4631  -28.9177   20.4958 H   0  0  0  0  0  0
  -25.8913  -24.8313   21.2969 H   0  0  0  0  0  0
  -23.8036  -26.3715   20.1579 H   0  0  0  0  0  0
  -23.8420  -30.0318   19.1887 H   0  0  0  0  0  0
  -22.8386  -28.7627   19.8162 H   0  0  0  0  0  0
  -25.1403  -36.1234   25.0695 H   0  0  0  0  0  0
  -21.0147  -28.3489   24.1200 H   0  0  0  0  0  0
  -20.5336  -26.2419   23.3905 H   0  0  0  0  0  0
  -21.6579  -26.6924   22.1487 H   0  0  0  0  0  0
  -19.6826  -25.6062   21.1425 H   0  0  0  0  0  0
  -19.6728  -27.2902   20.6738 H   0  0  0  0  0  0
  -17.4192  -26.6750   21.4030 H   0  0  0  0  0  0
  -18.0255  -26.0058   22.8994 H   0  0  0  0  0  0
  -19.8157  -30.7288   24.2056 H   0  0  0  0  0  0
  -17.5235  -31.6283   24.5099 H   0  0  0  0  0  0
  -15.5482  -30.2917   23.7772 H   0  0  0  0  0  0
  -15.8827  -28.0591   22.7419 H   0  0  0  0  0  0
  -24.5521  -30.7591   25.7081 H   0  0  0  0  0  0
  -24.8920  -32.3343   26.4065 H   0  0  0  0  0  0
  -25.7664  -30.9195   26.9588 H   0  0  0  0  0  0
  -26.2299  -29.6093   24.2974 H   0  0  0  0  0  0
  -27.5226  -29.8082   25.4604 H   0  0  0  0  0  0
  -27.7516  -30.3729   23.8062 H   0  0  0  0  0  0
  -27.2109  -33.3883   26.1296 H   0  0  0  0  0  0
  -28.3822  -32.7018   25.0162 H   0  0  0  0  0  0
  -28.0089  -31.8891   26.5343 H   0  0  0  0  0  0
  -28.2459  -37.9960   24.7492 H   0  0  0  0  0  0
  -28.1002  -36.2485   24.6185 H   0  0  0  0  0  0
  -27.2211  -37.1183   25.8821 H   0  0  0  0  0  0
  -20.9912  -29.8051   21.5875 H   0  0  0  0  0  0
  -25.9895  -38.2515   24.1595 H   0  0  0  0  0  0
  -29.7587  -22.0302   20.6951 H   0  0  0  0  0  0
  -23.6260  -23.9557   15.5233 H   0  0  0  0  0  0
  -25.1847  -24.6105   15.0104 H   0  0  0  0  0  0
  -24.5568  -25.0020   16.6010 H   0  0  0  0  0  0
  -31.0909  -26.5189   17.9557 H   0  0  0  0  0  0
  -29.5763  -27.0065   18.6611 H   0  0  0  0  0  0
  -29.7394  -25.4326   17.8348 H   0  0  0  0  0  0
  -32.1482  -27.0768   20.2781 H   0  0  0  0  0  0
  -31.5504  -26.2657   21.7125 H   0  0  0  0  0  0
  -30.5589  -27.4582   20.8665 H   0  0  0  0  0  0
  -30.4053  -23.8712   20.9904 H   0  0  0  0  0  0
  -29.2998  -24.8770   21.5415 H   0  0  0  0  0  0
  -25.9403  -26.3963   18.1507 H   0  0  0  0  0  0
  -27.4878  -26.9967   18.2714 H   0  0  0  0  0  0
  -27.4782  -22.8335   16.1079 H   0  0  0  0  0  0
  -27.0235  -24.4273   16.5324 H   0  0  0  0  0  0
  -30.1618  -19.4481   20.1790 H   0  0  0  0  0  0
  -29.9400  -19.1765   18.5085 H   0  0  0  0  0  0
  -25.3598  -22.1654   15.7781 H   0  0  0  0  0  0
  -24.8606  -22.6668   17.3764 H   0  0  0  0  0  0
  -25.2313  -27.2725   22.5049 H   0  0  0  0  0  0
  -25.9302  -28.7154   22.2735 H   0  0  0  0  0  0
  -27.0918  -26.4045   23.4708 H   0  0  0  0  0  0
  -27.7514  -28.0306   23.4270 H   0  0  0  0  0  0
  -31.5063  -24.8950   19.5438 H   0  0  0  0  0  0
  -28.3128  -17.1276   19.8195 H   0  0  0  0  0  0
  1 25  1  0  0  0
  1 30  2  0  0  0
  1 88  1  0  0  0
  2  3  1  0  0  0
  2 25  1  0  0  0
  2 89  1  0  0  0
  2 90  1  0  0  0
  3  4  1  0  0  0
  3 91  1  0  0  0
  3 92  1  0  0  0
  4  5  1  0  0  0
  4 93  1  0  0  0
  4 94  1  0  0  0
  5  6  1  0  0  0
  5 26  1  0  0  0
  5 95  1  0  0  0
  6 25  1  0  0  0
  6 96  1  0  0  0
  6 97  1  0  0  0
  7  8  2  0  0  0
  7 26  1  0  0  0
  7 29  1  0  0  0
  8  9  1  0  0  0
  8 22  1  0  0  0
  9 10  1  0  0  0
  9 27  2  0  0  0
 10 11  2  0  0  0
 10 15  1  0  0  0
 11 12  1  0  0  0
 11 98  1  0  0  0
 12 13  2  0  0  0
 12 99  1  0  0  0
 13 14  1  0  0  0
 13 31  1  0  0  0
 14 15  2  0  0  0
 14100  1  0  0  0
 15101  1  0  0  0
 16 17  2  0  0  0
 16 21  1  0  0  0
 16 31  1  0  0  0
 17 18  1  0  0  0
 17102  1  0  0  0
 18 19  2  0  0  0
 18103  1  0  0  0
 19 20  1  0  0  0
 19 24  1  0  0  0
 20 21  2  0  0  0
 20104  1  0  0  0
 21 23  1  0  0  0
 22 28  1  0  0  0
 22 32  2  0  0  0
 26 27  1  0  0  0
 28105  1  0  0  0
 28106  1  0  0  0
 29107  1  0  0  0
 29108  1  0  0  0
 33 34  1  0  0  0
 33 66  1  0  0  0
 33 70  2  0  0  0
 34 36  1  0  0  0
 34 59  1  0  0  0
 34109  1  0  0  0
 35 44  2  0  0  0
 35 45  1  0  0  0
 35 68  1  0  0  0
 36 56  1  0  0  0
 36110  1  0  0  0
 37 39  1  0  0  0
 37 47  1  0  0  0
 37 66  1  0  0  0
 37111  1  0  0  0
 38 43  2  0  0  0
 38 46  1  0  0  0
 38 47  1  0  0  0
 39 64  1  0  0  0
 39 67  2  0  0  0
 40 52  1  0  0  0
 40 53  2  0  0  0
 40 58  1  0  0  0
 41112  1  0  0  0
 41113  1  0  0  0
 41114  1  0  0  0
 41 48  1  0  0  0
 42 43  1  0  0  0
 42 66  1  0  0  0
 42115  1  0  0  0
 42116  1  0  0  0
 43 44  1  0  0  0
 44117  1  0  0  0
 45 46  2  0  0  0
 45118  1  0  0  0
 46119  1  0  0  0
 47120  1  0  0  0
 47121  1  0  0  0
 48 56  1  0  0  0
 48 65  1  0  0  0
 48122  1  0  0  0
 49 50  1  0  0  0
 49 53  1  0  0  0
 49 64  1  0  0  0
 49123  1  0  0  0
 50 51  1  0  0  0
 50124  1  0  0  0
 50125  1  0  0  0
 51 52  1  0  0  0
 51126  1  0  0  0
 51127  1  0  0  0
 52128  1  0  0  0
 52129  1  0  0  0
 53 54  1  0  0  0
 54 55  2  0  0  0
 54130  1  0  0  0
 55 57  1  0  0  0
 55131  1  0  0  0
 56 69  2  0  0  0
 57 58  2  0  0  0
 57132  1  0  0  0
 58133  1  0  0  0
 59 60  1  0  0  0
 59 61  1  0  0  0
 59 62  1  0  0  0
 60134  1  0  0  0
 60135  1  0  0  0
 60136  1  0  0  0
 61137  1  0  0  0
 61138  1  0  0  0
 61139  1  0  0  0
 62140  1  0  0  0
 62141  1  0  0  0
 62142  1  0  0  0
 63 65  1  0  0  0
 63143  1  0  0  0
 63144  1  0  0  0
 63145  1  0  0  0
 64146  1  0  0  0
 65147  1  0  0  0
 68 85  1  0  0  0
 71 72  2  0  0  0
 71 74  1  0  0  0
 71148  1  0  0  0
 72 73  1  0  0  0
 72 79  1  0  0  0
 73 75  2  0  0  0
 73 80  1  0  0  0
 74 82  1  0  0  0
 74 87  2  0  0  0
 75 81  1  0  0  0
 75 87  1  0  0  0
 76 83  1  0  0  0
 76149  1  0  0  0
 76150  1  0  0  0
 76151  1  0  0  0
 77152  1  0  0  0
 77153  1  0  0  0
 77154  1  0  0  0
 77 86  1  0  0  0
 78 86  1  0  0  0
 78155  1  0  0  0
 78156  1  0  0  0
 78157  1  0  0  0
 79 86  1  0  0  0
 79158  1  0  0  0
 79159  1  0  0  0
 80 84  1  0  0  0
 80160  1  0  0  0
 80161  1  0  0  0
 81 83  1  0  0  0
 81162  1  0  0  0
 81163  1  0  0  0
 82 88  1  0  0  0
 82164  1  0  0  0
 82165  1  0  0  0
 83166  1  0  0  0
 83167  1  0  0  0
 84 85  1  0  0  0
 84168  1  0  0  0
 84169  1  0  0  0
 85170  1  0  0  0
 85171  1  0  0  0
 86172  1  0  0  0
 88173  1  0  0  0
M  ISO  4   1 100  68 101  85 101  88 100
M  END
> <chiral flag>
0

> <version>
0

> <s_m_source_file>
/data/baiqing/PycharmProjects/Reinvent-master-3.2/result/LINK_invent/BTK/process_docking_weight1_custom_sum_contain_oxygen_bond_distance_aromatic_linkinvent_7_9_3/rearranged_h_0081.sdf

> <i_m_source_file_index>
30

> <r_mmod_Potential_Energy-OPLS-2005>
11404.9697265625

> <r_mmod_Stretch_Energy-OPLS-2005>
6498.1337890625

> <r_mmod_Bend_Energy-OPLS-2005>
1003.46923828125

> <r_mmod_Torsional_Energy-OPLS-2005>
441.695251464844

> <r_mmod_Improper_Torsional_Energy-OPLS-2005>
46.9468231201172

> <r_mmod_Van_der_Waal_Energy-OPLS-2005>
2081.35083007812

> <r_mmod_Electrostatic_Energy-OPLS-2005>
-546.105285644531

> <r_mmod_Solvation_Energy-OPLS-2005>
-222.524963378906

> <b_mmod_Minimization_Converged-OPLS-2005>
0

> <r_mmod_RMS_Derivative-OPLS-2005>
13.5438318252563

$$$$
30
                    3D
 Structure written by MMmdl.
164172  0  0  1  0            999 V2000
  -30.5846  -14.9870   20.4560 C   0  0  0  0  0  0
  -30.4489  -12.6232   19.5304 C   0  0  0  0  0  0
  -29.5476  -12.5620   18.2759 C   0  0  0  0  0  0
  -28.0854  -12.3285   18.6929 C   0  0  0  0  0  0
  -27.6457  -13.2614   19.8524 C   0  0  2  0  0  0
  -28.6802  -13.3192   21.0004 C   0  0  0  0  0  0
  -25.2596  -13.8286   20.5815 C   0  0  0  0  0  0
  -24.1887  -13.0487   20.9246 C   0  0  0  0  0  0
  -24.6516  -11.6961   20.8790 C   0  0  0  0  0  0
  -23.9190  -10.4336   21.0469 C   0  0  0  0  0  0
  -24.3730   -9.4230   21.9212 C   0  0  0  0  0  0
  -23.6356   -8.2270   22.0745 C   0  0  0  0  0  0
  -22.4305   -8.0369   21.3554 C   0  0  0  0  0  0
  -22.0012   -9.0365   20.4637 C   0  0  0  0  0  0
  -22.7403  -10.2214   20.3082 C   0  0  0  0  0  0
  -21.6881   -6.0829   22.5314 C   0  0  0  0  0  0
  -21.4004   -6.5686   23.8263 C   0  0  0  0  0  0
  -21.3642   -5.6815   24.9217 C   0  0  0  0  0  0
  -21.6049   -4.3074   24.7233 C   0  0  0  0  0  0
  -21.8806   -3.8214   23.4334 C   0  0  0  0  0  0
  -21.9176   -4.7048   22.3412 C   0  0  0  0  0  0
  -22.7889  -13.5251   21.1867 C   0  0  0  0  0  0
  -22.1658   -4.2268   21.0976 F   0  0  0  0  0  0
  -21.5615   -3.4520   25.7715 F   0  0  0  0  0  0
  -29.9632  -13.7322   20.4094 N   0  0  0  0  0  0
  -26.3029  -12.9545   20.3324 N   0  0  0  0  0  0
  -25.9470  -11.6651   20.5753 N   0  0  0  0  0  0
  -22.0495  -12.8270   22.0413 N   0  0  0  0  0  0
  -25.4194  -15.2020   20.4289 N   0  0  0  0  0  0
  -31.7740  -15.0037   20.1160 O   0  0  0  0  0  0
  -21.6636   -6.8976   21.4259 O   0  0  0  0  0  0
  -22.3581  -14.5580   20.6747 O   0  0  0  0  0  0
  -24.6434  -31.8413   23.1853 C   0  0  0  0  0  0
  -25.9180  -32.4693   23.8296 C   0  0  1  0  0  0
  -27.2410  -27.1047   20.2267 C   0  0  0  0  0  0
  -25.5926  -33.8504   24.2252 N   0  0  0  0  0  0
  -23.4586  -30.4542   21.5212 C   0  0  2  0  0  0
  -24.9229  -28.8676   20.1183 C   0  0  0  0  0  0
  -22.7616  -29.4520   22.4777 C   0  0  0  0  0  0
  -18.0309  -28.1374   22.8491 C   0  0  0  0  0  0
  -24.1452  -36.7263   23.2657 C   0  0  0  0  0  0
  -26.0080  -30.7100   21.3878 C   0  0  0  0  0  0
  -26.0850  -29.3085   20.7562 C   0  0  0  0  0  0
  -27.2359  -28.4369   20.8110 C   0  0  0  0  0  0
  -26.0686  -26.7847   19.5058 C   0  0  0  0  0  0
  -24.9276  -27.6216   19.4725 C   0  0  0  0  0  0
  -23.7009  -29.7700   20.1441 C   0  0  0  0  0  0
  -25.4082  -36.3062   24.0360 C   0  0  1  0  0  0
  -20.5937  -28.3726   23.1193 C   0  0  2  0  0  0
  -20.6745  -26.9408   22.5407 C   0  0  0  0  0  0
  -19.5720  -26.6367   21.5193 C   0  0  0  0  0  0
  -18.1913  -26.7913   22.1632 C   0  0  0  0  0  0
  -19.1574  -28.8861   23.2842 C   0  0  0  0  0  0
  -18.9489  -30.1443   23.8897 C   0  0  0  0  0  0
  -17.6490  -30.6573   24.0555 C   0  0  0  0  0  0
  -25.9045  -34.9416   23.5120 C   0  0  0  0  0  0
  -16.5384  -29.9080   23.6310 C   0  0  0  0  0  0
  -16.7297  -28.6478   23.0372 C   0  0  0  0  0  0
  -26.4514  -31.6576   25.0739 C   0  0  0  0  0  0
  -25.3719  -31.3727   26.1464 C   0  0  0  0  0  0
  -27.0432  -30.3036   24.6250 C   0  0  0  0  0  0
  -27.6110  -32.4275   25.7511 C   0  0  0  0  0  0
  -27.5560  -37.1784   24.8471 C   0  0  0  0  0  0
  -21.4306  -29.3082   22.3581 N   0  0  0  0  0  0
  -26.4240  -37.3781   23.9443 N   0  0  0  0  0  0
  -24.7219  -31.0273   22.0871 N   0  0  0  0  0  0
  -23.4236  -28.8036   23.2910 O   0  0  0  0  0  0
  -28.2983  -26.1266   20.3902 O   0  0  0  0  0  0
  -26.5626  -34.8908   22.4694 O   0  0  0  0  0  0
  -23.5556  -32.1263   23.7063 O   0  0  0  0  0  0
  -29.3170  -20.8810   22.9405 C   0  0  0  0  0  0
  -29.2780  -20.0494   24.0724 C   0  0  0  0  0  0
  -29.3261  -20.3907   21.6095 C   0  0  0  0  0  0
  -29.1558  -18.6717   23.8552 C   0  0  0  0  0  0
  -29.5231  -18.8770   21.5273 C   0  0  0  0  0  0
  -28.8165  -17.6833   24.9566 C   0  0  0  0  0  0
  -30.6034  -20.3059   26.2551 C   0  0  0  0  0  0
  -31.6081  -18.0400   20.2282 C   0  0  0  0  0  0
  -29.3254  -20.6710   25.4658 C   0  0  0  0  0  0
  -29.0825  -21.6434   20.5479 C   0  0  0  0  0  0
  -28.8200  -23.2849   21.0169 C   0  0  0  0  0  0
  -28.1888  -24.5832   20.1171 C   0  0  0  0  0  0
  -30.0970  -17.7769   20.4486 C   0  0  2  0  0  0
  -29.3437  -18.1326   22.6455 N   0  0  0  0  0  0
  -29.8699  -16.2000   20.6856 N   0  0  0  0  0  0
  -31.4877  -12.7571   19.2260 H   0  0  0  0  0  0
  -30.4168  -11.6720   20.0675 H   0  0  0  0  0  0
  -29.8878  -11.7693   17.6077 H   0  0  0  0  0  0
  -29.6326  -13.4929   17.7119 H   0  0  0  0  0  0
  -28.0145  -11.2891   19.0116 H   0  0  0  0  0  0
  -27.4206  -12.4337   17.8343 H   0  0  0  0  0  0
  -27.6061  -14.2632   19.4250 H   0  0  0  0  0  0
  -28.7775  -12.3618   21.5161 H   0  0  0  0  0  0
  -28.3626  -14.0454   21.7514 H   0  0  0  0  0  0
  -25.2906   -9.5678   22.4783 H   0  0  0  0  0  0
  -24.0090   -7.4646   22.7466 H   0  0  0  0  0  0
  -21.0938   -8.8957   19.8930 H   0  0  0  0  0  0
  -22.3941  -10.9780   19.6180 H   0  0  0  0  0  0
  -21.1999   -7.6191   23.9826 H   0  0  0  0  0  0
  -21.1461   -6.0510   25.9124 H   0  0  0  0  0  0
  -22.0582   -2.7673   23.2794 H   0  0  0  0  0  0
  -22.4068  -11.9923   22.4827 H   0  0  0  0  0  0
  -21.1092  -13.1317   22.2543 H   0  0  0  0  0  0
  -24.6447  -15.8469   20.5601 H   0  0  0  0  0  0
  -26.2744  -15.6614   20.1461 H   0  0  0  0  0  0
  -26.7267  -32.5348   23.1064 H   0  0  0  0  0  0
  -25.0097  -33.9586   25.0430 H   0  0  0  0  0  0
  -22.7644  -31.2771   21.3480 H   0  0  0  0  0  0
  -23.3721  -35.9578   23.3282 H   0  0  0  0  0  0
  -24.3574  -36.8919   22.2080 H   0  0  0  0  0  0
  -23.7146  -37.6443   23.6682 H   0  0  0  0  0  0
  -26.1443  -31.4371   20.5855 H   0  0  0  0  0  0
  -26.8863  -30.8002   22.0140 H   0  0  0  0  0  0
  -28.0940  -28.7582   21.3837 H   0  0  0  0  0  0
  -25.9969  -25.8383   18.9904 H   0  0  0  0  0  0
  -24.0459  -27.2900   18.9412 H   0  0  0  0  0  0
  -23.8528  -30.5288   19.3764 H   0  0  0  0  0  0
  -22.8233  -29.2035   19.8305 H   0  0  0  0  0  0
  -25.1236  -36.1919   25.0849 H   0  0  0  0  0  0
  -21.0039  -28.3279   24.1300 H   0  0  0  0  0  0
  -20.5494  -26.2365   23.3655 H   0  0  0  0  0  0
  -21.6613  -26.7277   22.1290 H   0  0  0  0  0  0
  -19.6858  -25.6260   21.1235 H   0  0  0  0  0  0
  -19.6616  -27.3150   20.6688 H   0  0  0  0  0  0
  -17.4175  -26.6666   21.4049 H   0  0  0  0  0  0
  -18.0316  -26.0039   22.9015 H   0  0  0  0  0  0
  -19.7979  -30.7231   24.2287 H   0  0  0  0  0  0
  -17.5057  -31.6250   24.5167 H   0  0  0  0  0  0
  -15.5388  -30.2991   23.7593 H   0  0  0  0  0  0
  -15.8705  -28.0768   22.7117 H   0  0  0  0  0  0
  -24.5924  -30.7033   25.7796 H   0  0  0  0  0  0
  -24.8854  -32.2888   26.4850 H   0  0  0  0  0  0
  -25.8027  -30.8967   27.0296 H   0  0  0  0  0  0
  -26.3086  -29.6737   24.1234 H   0  0  0  0  0  0
  -27.4157  -29.7325   25.4767 H   0  0  0  0  0  0
  -27.8907  -30.4407   23.9525 H   0  0  0  0  0  0
  -27.2827  -33.3633   26.2048 H   0  0  0  0  0  0
  -28.3963  -32.6717   25.0336 H   0  0  0  0  0  0
  -28.0735  -31.8397   26.5467 H   0  0  0  0  0  0
  -28.2568  -38.0100   24.7583 H   0  0  0  0  0  0
  -28.1066  -36.2650   24.6186 H   0  0  0  0  0  0
  -27.2330  -37.1314   25.8889 H   0  0  0  0  0  0
  -20.9488  -29.8952   21.6922 H   0  0  0  0  0  0
  -26.0127  -38.2845   24.1487 H   0  0  0  0  0  0
  -29.3184  -21.9436   23.1314 H   0  0  0  0  0  0
  -29.7101  -17.2028   25.3386 H   0  0  0  0  0  0
  -28.1493  -16.9073   24.5767 H   0  0  0  0  0  0
  -28.3040  -18.1546   25.7939 H   0  0  0  0  0  0
  -30.7758  -21.0161   27.0641 H   0  0  0  0  0  0
  -31.4973  -20.3166   25.6274 H   0  0  0  0  0  0
  -30.5338  -19.3153   26.7072 H   0  0  0  0  0  0
  -31.8192  -19.0902   20.0373 H   0  0  0  0  0  0
  -32.0070  -17.4855   19.3773 H   0  0  0  0  0  0
  -32.2005  -17.7425   21.0917 H   0  0  0  0  0  0
  -28.4285  -20.4056   26.0314 H   0  0  0  0  0  0
  -29.2943  -21.7562   25.3598 H   0  0  0  0  0  0
  -28.2373  -21.3269   19.9377 H   0  0  0  0  0  0
  -29.9311  -21.6279   19.8698 H   0  0  0  0  0  0
  -29.7593  -23.6452   21.4383 H   0  0  0  0  0  0
  -28.1495  -23.2544   21.8775 H   0  0  0  0  0  0
  -28.5982  -24.4728   19.1122 H   0  0  0  0  0  0
  -27.1329  -24.3455   20.0183 H   0  0  0  0  0  0
  -29.6073  -18.0289   19.5087 H   0  0  0  0  0  0
  -28.9403  -16.0270   21.0417 H   0  0  0  0  0  0
  1 25  1  0  0  0
  1 30  2  0  0  0
  1 85  1  0  0  0
  2  3  1  0  0  0
  2 25  1  0  0  0
  2 86  1  0  0  0
  2 87  1  0  0  0
  3  4  1  0  0  0
  3 88  1  0  0  0
  3 89  1  0  0  0
  4  5  1  0  0  0
  4 90  1  0  0  0
  4 91  1  0  0  0
  5  6  1  0  0  0
  5 26  1  0  0  0
  5 92  1  0  0  0
  6 25  1  0  0  0
  6 93  1  0  0  0
  6 94  1  0  0  0
  7  8  2  0  0  0
  7 26  1  0  0  0
  7 29  1  0  0  0
  8  9  1  0  0  0
  8 22  1  0  0  0
  9 10  1  0  0  0
  9 27  2  0  0  0
 10 11  2  0  0  0
 10 15  1  0  0  0
 11 12  1  0  0  0
 11 95  1  0  0  0
 12 13  2  0  0  0
 12 96  1  0  0  0
 13 14  1  0  0  0
 13 31  1  0  0  0
 14 15  2  0  0  0
 14 97  1  0  0  0
 15 98  1  0  0  0
 16 17  2  0  0  0
 16 21  1  0  0  0
 16 31  1  0  0  0
 17 18  1  0  0  0
 17 99  1  0  0  0
 18 19  2  0  0  0
 18100  1  0  0  0
 19 20  1  0  0  0
 19 24  1  0  0  0
 20 21  2  0  0  0
 20101  1  0  0  0
 21 23  1  0  0  0
 22 28  1  0  0  0
 22 32  2  0  0  0
 26 27  1  0  0  0
 28102  1  0  0  0
 28103  1  0  0  0
 29104  1  0  0  0
 29105  1  0  0  0
 33 34  1  0  0  0
 33 66  1  0  0  0
 33 70  2  0  0  0
 34 36  1  0  0  0
 34 59  1  0  0  0
 34106  1  0  0  0
 35 44  2  0  0  0
 35 45  1  0  0  0
 35 68  1  0  0  0
 36 56  1  0  0  0
 36107  1  0  0  0
 37 39  1  0  0  0
 37 47  1  0  0  0
 37 66  1  0  0  0
 37108  1  0  0  0
 38 43  2  0  0  0
 38 46  1  0  0  0
 38 47  1  0  0  0
 39 64  1  0  0  0
 39 67  2  0  0  0
 40 52  1  0  0  0
 40 53  2  0  0  0
 40 58  1  0  0  0
 41109  1  0  0  0
 41110  1  0  0  0
 41111  1  0  0  0
 41 48  1  0  0  0
 42 43  1  0  0  0
 42 66  1  0  0  0
 42112  1  0  0  0
 42113  1  0  0  0
 43 44  1  0  0  0
 44114  1  0  0  0
 45 46  2  0  0  0
 45115  1  0  0  0
 46116  1  0  0  0
 47117  1  0  0  0
 47118  1  0  0  0
 48 56  1  0  0  0
 48 65  1  0  0  0
 48119  1  0  0  0
 49 50  1  0  0  0
 49 53  1  0  0  0
 49 64  1  0  0  0
 49120  1  0  0  0
 50 51  1  0  0  0
 50121  1  0  0  0
 50122  1  0  0  0
 51 52  1  0  0  0
 51123  1  0  0  0
 51124  1  0  0  0
 52125  1  0  0  0
 52126  1  0  0  0
 53 54  1  0  0  0
 54 55  2  0  0  0
 54127  1  0  0  0
 55 57  1  0  0  0
 55128  1  0  0  0
 56 69  2  0  0  0
 57 58  2  0  0  0
 57129  1  0  0  0
 58130  1  0  0  0
 59 60  1  0  0  0
 59 61  1  0  0  0
 59 62  1  0  0  0
 60131  1  0  0  0
 60132  1  0  0  0
 60133  1  0  0  0
 61134  1  0  0  0
 61135  1  0  0  0
 61136  1  0  0  0
 62137  1  0  0  0
 62138  1  0  0  0
 62139  1  0  0  0
 63 65  1  0  0  0
 63140  1  0  0  0
 63141  1  0  0  0
 63142  1  0  0  0
 64143  1  0  0  0
 65144  1  0  0  0
 68 82  1  0  0  0
 71 72  2  0  0  0
 71 73  1  0  0  0
 71145  1  0  0  0
 72 74  1  0  0  0
 72 79  1  0  0  0
 73 75  2  0  0  0
 73 80  1  0  0  0
 74 76  1  0  0  0
 74 84  2  0  0  0
 75 83  1  0  0  0
 75 84  1  0  0  0
 76146  1  0  0  0
 76147  1  0  0  0
 76148  1  0  0  0
 77 79  1  0  0  0
 77149  1  0  0  0
 77150  1  0  0  0
 77151  1  0  0  0
 78152  1  0  0  0
 78153  1  0  0  0
 78154  1  0  0  0
 78 83  1  0  0  0
 79155  1  0  0  0
 79156  1  0  0  0
 80 81  1  0  0  0
 80157  1  0  0  0
 80158  1  0  0  0
 81 82  1  0  0  0
 81159  1  0  0  0
 81160  1  0  0  0
 82161  1  0  0  0
 82162  1  0  0  0
 83 85  1  0  0  0
 83163  1  0  0  0
 85164  1  0  0  0
M  ISO  4   1 100  68 101  82 101  85 100
M  END
> <chiral flag>
0

> <version>
0

> <s_m_source_file>
/data/baiqing/PycharmProjects/Reinvent-master-3.2/result/LINK_invent/BTK/process_docking_weight1_custom_sum_contain_oxygen_bond_distance_aromatic_linkinvent_7_9_3/rearranged_h_0081.sdf

> <i_m_source_file_index>
31

> <r_mmod_Potential_Energy-OPLS-2005>
417.146545410156

> <r_mmod_Stretch_Energy-OPLS-2005>
322.891937255859

> <r_mmod_Bend_Energy-OPLS-2005>
337.298095703125

> <r_mmod_Torsional_Energy-OPLS-2005>
231.830093383789

> <r_mmod_Improper_Torsional_Energy-OPLS-2005>
4.54512119293213

> <r_mmod_Van_der_Waal_Energy-OPLS-2005>
137.044418334961

> <r_mmod_Electrostatic_Energy-OPLS-2005>
-625.54345703125

> <r_mmod_Solvation_Energy-OPLS-2005>
-216.355010986328

> <b_mmod_Minimization_Converged-OPLS-2005>
0

> <r_mmod_RMS_Derivative-OPLS-2005>
8.04967975616455

$$$$
31
                    3D
 Structure written by MMmdl.
157165  0  0  1  0            999 V2000
  -30.6709  -14.7942   20.4322 C   0  0  0  0  0  0
  -30.4338  -12.4911   19.4792 C   0  0  0  0  0  0
  -29.5216  -12.5238   18.2381 C   0  0  0  0  0  0
  -28.0482  -12.3405   18.6461 C   0  0  0  0  0  0
  -27.6494  -13.2445   19.8422 C   0  0  2  0  0  0
  -28.7026  -13.2383   20.9735 C   0  0  0  0  0  0
  -25.2537  -13.8204   20.5685 C   0  0  0  0  0  0
  -24.1804  -13.0438   20.9161 C   0  0  0  0  0  0
  -24.6403  -11.6913   20.8698 C   0  0  0  0  0  0
  -23.9032  -10.4308   21.0335 C   0  0  0  0  0  0
  -24.3592   -9.4258   21.9135 C   0  0  0  0  0  0
  -23.6311   -8.2269   22.0707 C   0  0  0  0  0  0
  -22.4325   -8.0250   21.3488 C   0  0  0  0  0  0
  -21.9942   -9.0215   20.4583 C   0  0  0  0  0  0
  -22.7214  -10.2128   20.2987 C   0  0  0  0  0  0
  -21.6890   -6.0727   22.5238 C   0  0  0  0  0  0
  -21.4037   -6.5629   23.8178 C   0  0  0  0  0  0
  -21.3701   -5.6762   24.9145 C   0  0  0  0  0  0
  -21.6061   -4.3020   24.7192 C   0  0  0  0  0  0
  -21.8810   -3.8139   23.4297 C   0  0  0  0  0  0
  -21.9200   -4.6952   22.3362 C   0  0  0  0  0  0
  -22.7822  -13.5219   21.1821 C   0  0  0  0  0  0
  -22.1642   -4.2101   21.0951 F   0  0  0  0  0  0
  -21.5681   -3.4497   25.7708 F   0  0  0  0  0  0
  -30.0019  -13.5885   20.3759 N   0  0  0  0  0  0
  -26.3003  -12.9442   20.3269 N   0  0  0  0  0  0
  -25.9363  -11.6580   20.5729 N   0  0  0  0  0  0
  -22.0467  -12.8209   22.0379 N   0  0  0  0  0  0
  -25.4220  -15.1935   20.4178 N   0  0  0  0  0  0
  -31.8658  -14.8397   20.1346 O   0  0  0  0  0  0
  -21.6666   -6.8859   21.4198 O   0  0  0  0  0  0
  -22.3494  -14.5502   20.6638 O   0  0  0  0  0  0
  -24.6359  -31.8562   23.1989 C   0  0  0  0  0  0
  -25.9198  -32.4739   23.8350 C   0  0  1  0  0  0
  -27.2574  -27.2766   20.1387 C   0  0  0  0  0  0
  -25.6018  -33.8550   24.2307 N   0  0  0  0  0  0
  -23.4319  -30.4740   21.5390 C   0  0  2  0  0  0
  -24.8846  -28.9082   20.1143 C   0  0  0  0  0  0
  -22.7564  -29.4596   22.4916 C   0  0  0  0  0  0
  -18.0293  -28.1390   22.8410 C   0  0  0  0  0  0
  -24.1484  -36.7292   23.2624 C   0  0  0  0  0  0
  -25.9709  -30.7709   21.3728 C   0  0  0  0  0  0
  -26.0494  -29.3893   20.7237 C   0  0  0  0  0  0
  -27.2343  -28.5853   20.7249 C   0  0  0  0  0  0
  -26.0681  -26.8547   19.5027 C   0  0  0  0  0  0
  -24.8954  -27.6455   19.4962 C   0  0  0  0  0  0
  -23.6570  -29.8033   20.1544 C   0  0  0  0  0  0
  -25.4089  -36.3056   24.0337 C   0  0  1  0  0  0
  -20.5904  -28.3735   23.1249 C   0  0  2  0  0  0
  -20.6786  -26.9460   22.5391 C   0  0  0  0  0  0
  -19.5767  -26.6381   21.5195 C   0  0  0  0  0  0
  -18.1946  -26.7906   22.1584 C   0  0  0  0  0  0
  -19.1552  -28.8867   23.2791 C   0  0  0  0  0  0
  -18.9483  -30.1470   23.8804 C   0  0  0  0  0  0
  -17.6486  -30.6554   24.0565 C   0  0  0  0  0  0
  -25.9073  -34.9428   23.5112 C   0  0  0  0  0  0
  -16.5377  -29.9064   23.6316 C   0  0  0  0  0  0
  -16.7305  -28.6521   23.0267 C   0  0  0  0  0  0
  -26.4560  -31.6527   25.0732 C   0  0  0  0  0  0
  -25.3819  -31.3670   26.1501 C   0  0  0  0  0  0
  -27.0441  -30.2952   24.6188 C   0  0  0  0  0  0
  -27.6129  -32.4231   25.7531 C   0  0  0  0  0  0
  -27.5566  -37.1780   24.8449 C   0  0  0  0  0  0
  -21.4263  -29.3070   22.3661 N   0  0  0  0  0  0
  -26.4236  -37.3790   23.9455 N   0  0  0  0  0  0
  -24.6978  -31.0540   22.0937 N   0  0  0  0  0  0
  -23.4265  -28.8147   23.3021 O   0  0  0  0  0  0
  -28.3859  -26.4216   20.2092 O   0  0  0  0  0  0
  -26.5618  -34.8938   22.4673 O   0  0  0  0  0  0
  -23.5519  -32.1389   23.7308 O   0  0  0  0  0  0
  -29.8400  -21.4235   19.7737 C   0  0  0  0  0  0
  -29.6472  -20.1327   20.3191 C   0  0  0  0  0  0
  -28.9628  -21.7531   21.7597 C   0  0  0  0  0  0
  -28.4223  -22.3131   23.0341 C   0  0  0  0  0  0
  -30.3279  -18.5795   18.3872 C   0  0  0  0  0  0
  -29.4585  -23.9841   20.6266 C   0  0  0  0  0  0
  -30.4368  -17.4483   20.7123 C   0  0  0  0  0  0
  -28.2518  -24.9232   20.0955 C   0  0  0  0  0  0
  -29.7455  -18.6205   19.8120 C   0  0  1  0  0  0
  -29.3873  -22.4190   20.6683 N   0  0  0  0  0  0
  -29.1217  -20.4301   21.5500 N   0  3  0  0  0  0
  -29.9633  -15.9792   20.6193 N   0  0  0  0  0  0
  -31.4748  -12.6030   19.1706 H   0  0  0  0  0  0
  -30.3710  -11.5308   19.9925 H   0  0  0  0  0  0
  -29.8268  -11.7430   17.5370 H   0  0  0  0  0  0
  -29.6332  -13.4796   17.7200 H   0  0  0  0  0  0
  -27.8977  -11.2948   18.9162 H   0  0  0  0  0  0
  -27.3991  -12.5264   17.7914 H   0  0  0  0  0  0
  -27.6283  -14.2583   19.4455 H   0  0  0  0  0  0
  -28.7553  -12.2621   21.4566 H   0  0  0  0  0  0
  -28.4278  -13.9478   21.7534 H   0  0  0  0  0  0
  -25.2749   -9.5787   22.4672 H   0  0  0  0  0  0
  -24.0029   -7.4725   22.7486 H   0  0  0  0  0  0
  -21.0874   -8.8706   19.8959 H   0  0  0  0  0  0
  -22.3623  -10.9628   19.6082 H   0  0  0  0  0  0
  -21.1986   -7.6126   23.9649 H   0  0  0  0  0  0
  -21.1573   -6.0505   25.9030 H   0  0  0  0  0  0
  -22.0564   -2.7592   23.2797 H   0  0  0  0  0  0
  -22.4134  -11.9966   22.4878 H   0  0  0  0  0  0
  -21.1020  -13.1166   22.2451 H   0  0  0  0  0  0
  -24.6518  -15.8450   20.5200 H   0  0  0  0  0  0
  -26.2750  -15.6437   20.1129 H   0  0  0  0  0  0
  -26.7296  -32.5402   23.1131 H   0  0  0  0  0  0
  -25.0229  -33.9680   25.0493 H   0  0  0  0  0  0
  -22.7234  -31.2927   21.3930 H   0  0  0  0  0  0
  -23.3753  -35.9619   23.3219 H   0  0  0  0  0  0
  -24.3575  -36.8979   22.2046 H   0  0  0  0  0  0
  -23.7244  -37.6476   23.6703 H   0  0  0  0  0  0
  -26.0990  -31.5197   20.5902 H   0  0  0  0  0  0
  -26.8523  -30.8346   21.9990 H   0  0  0  0  0  0
  -28.1227  -28.9466   21.2237 H   0  0  0  0  0  0
  -26.0223  -25.8871   19.0245 H   0  0  0  0  0  0
  -24.0022  -27.2638   19.0204 H   0  0  0  0  0  0
  -23.8150  -30.5873   19.4127 H   0  0  0  0  0  0
  -22.7686  -29.2615   19.8268 H   0  0  0  0  0  0
  -25.1253  -36.1845   25.0824 H   0  0  0  0  0  0
  -20.9943  -28.3297   24.1403 H   0  0  0  0  0  0
  -20.5673  -26.2390   23.3619 H   0  0  0  0  0  0
  -21.6667  -26.7464   22.1226 H   0  0  0  0  0  0
  -19.6961  -25.6293   21.1219 H   0  0  0  0  0  0
  -19.6681  -27.3198   20.6728 H   0  0  0  0  0  0
  -17.4247  -26.6650   21.3958 H   0  0  0  0  0  0
  -18.0336  -26.0043   22.8982 H   0  0  0  0  0  0
  -19.7989  -30.7273   24.2134 H   0  0  0  0  0  0
  -17.5077  -31.6205   24.5254 H   0  0  0  0  0  0
  -15.5383  -30.2948   23.7704 H   0  0  0  0  0  0
  -15.8710  -28.0873   22.6921 H   0  0  0  0  0  0
  -24.5993  -30.6988   25.7907 H   0  0  0  0  0  0
  -24.9010  -32.2827   26.4935 H   0  0  0  0  0  0
  -25.8188  -30.8885   27.0277 H   0  0  0  0  0  0
  -26.3034  -29.6612   24.1296 H   0  0  0  0  0  0
  -27.4268  -29.7273   25.4679 H   0  0  0  0  0  0
  -27.8844  -30.4274   23.9370 H   0  0  0  0  0  0
  -27.2777  -33.3542   26.2121 H   0  0  0  0  0  0
  -28.3978  -32.6729   25.0382 H   0  0  0  0  0  0
  -28.0776  -31.8311   26.5433 H   0  0  0  0  0  0
  -28.2536  -38.0122   24.7561 H   0  0  0  0  0  0
  -28.1095  -36.2654   24.6151 H   0  0  0  0  0  0
  -27.2319  -37.1296   25.8858 H   0  0  0  0  0  0
  -20.9504  -29.8900   21.6911 H   0  0  0  0  0  0
  -26.0074  -38.2854   24.1470 H   0  0  0  0  0  0
  -30.2485  -21.7083   18.8106 H   0  0  0  0  0  0
  -27.8137  -23.1899   22.8232 H   0  0  0  0  0  0
  -29.2617  -22.5696   23.6796 H   0  0  0  0  0  0
  -27.8217  -21.5396   23.5123 H   0  0  0  0  0  0
  -29.7238  -19.1429   17.6744 H   0  0  0  0  0  0
  -30.3813  -17.5554   18.0199 H   0  0  0  0  0  0
  -31.3469  -18.9732   18.3493 H   0  0  0  0  0  0
  -29.6497  -24.3024   21.6518 H   0  0  0  0  0  0
  -30.3756  -24.2457   20.1006 H   0  0  0  0  0  0
  -30.3358  -17.7451   21.7569 H   0  0  0  0  0  0
  -31.5156  -17.4798   20.5313 H   0  0  0  0  0  0
  -27.3477  -24.6290   20.6254 H   0  0  0  0  0  0
  -28.0909  -24.6768   19.0465 H   0  0  0  0  0  0
  -28.7040  -18.3171   19.7130 H   0  0  0  0  0  0
  -28.8727  -19.7285   22.2335 H   0  0  0  0  0  0
  -28.9791  -15.8469   20.8115 H   0  0  0  0  0  0
  1 25  1  0  0  0
  1 30  2  0  0  0
  1 82  1  0  0  0
  2  3  1  0  0  0
  2 25  1  0  0  0
  2 83  1  0  0  0
  2 84  1  0  0  0
  3  4  1  0  0  0
  3 85  1  0  0  0
  3 86  1  0  0  0
  4  5  1  0  0  0
  4 87  1  0  0  0
  4 88  1  0  0  0
  5  6  1  0  0  0
  5 26  1  0  0  0
  5 89  1  0  0  0
  6 25  1  0  0  0
  6 90  1  0  0  0
  6 91  1  0  0  0
  7  8  2  0  0  0
  7 26  1  0  0  0
  7 29  1  0  0  0
  8  9  1  0  0  0
  8 22  1  0  0  0
  9 10  1  0  0  0
  9 27  2  0  0  0
 10 11  2  0  0  0
 10 15  1  0  0  0
 11 12  1  0  0  0
 11 92  1  0  0  0
 12 13  2  0  0  0
 12 93  1  0  0  0
 13 14  1  0  0  0
 13 31  1  0  0  0
 14 15  2  0  0  0
 14 94  1  0  0  0
 15 95  1  0  0  0
 16 17  2  0  0  0
 16 21  1  0  0  0
 16 31  1  0  0  0
 17 18  1  0  0  0
 17 96  1  0  0  0
 18 19  2  0  0  0
 18 97  1  0  0  0
 19 20  1  0  0  0
 19 24  1  0  0  0
 20 21  2  0  0  0
 20 98  1  0  0  0
 21 23  1  0  0  0
 22 28  1  0  0  0
 22 32  2  0  0  0
 26 27  1  0  0  0
 28 99  1  0  0  0
 28100  1  0  0  0
 29101  1  0  0  0
 29102  1  0  0  0
 33 34  1  0  0  0
 33 66  1  0  0  0
 33 70  2  0  0  0
 34 36  1  0  0  0
 34 59  1  0  0  0
 34103  1  0  0  0
 35 44  2  0  0  0
 35 45  1  0  0  0
 35 68  1  0  0  0
 36 56  1  0  0  0
 36104  1  0  0  0
 37 39  1  0  0  0
 37 47  1  0  0  0
 37 66  1  0  0  0
 37105  1  0  0  0
 38 43  2  0  0  0
 38 46  1  0  0  0
 38 47  1  0  0  0
 39 64  1  0  0  0
 39 67  2  0  0  0
 40 52  1  0  0  0
 40 53  2  0  0  0
 40 58  1  0  0  0
 41106  1  0  0  0
 41107  1  0  0  0
 41108  1  0  0  0
 41 48  1  0  0  0
 42 43  1  0  0  0
 42 66  1  0  0  0
 42109  1  0  0  0
 42110  1  0  0  0
 43 44  1  0  0  0
 44111  1  0  0  0
 45 46  2  0  0  0
 45112  1  0  0  0
 46113  1  0  0  0
 47114  1  0  0  0
 47115  1  0  0  0
 48 56  1  0  0  0
 48 65  1  0  0  0
 48116  1  0  0  0
 49 50  1  0  0  0
 49 53  1  0  0  0
 49 64  1  0  0  0
 49117  1  0  0  0
 50 51  1  0  0  0
 50118  1  0  0  0
 50119  1  0  0  0
 51 52  1  0  0  0
 51120  1  0  0  0
 51121  1  0  0  0
 52122  1  0  0  0
 52123  1  0  0  0
 53 54  1  0  0  0
 54 55  2  0  0  0
 54124  1  0  0  0
 55 57  1  0  0  0
 55125  1  0  0  0
 56 69  2  0  0  0
 57 58  2  0  0  0
 57126  1  0  0  0
 58127  1  0  0  0
 59 60  1  0  0  0
 59 61  1  0  0  0
 59 62  1  0  0  0
 60128  1  0  0  0
 60129  1  0  0  0
 60130  1  0  0  0
 61131  1  0  0  0
 61132  1  0  0  0
 61133  1  0  0  0
 62134  1  0  0  0
 62135  1  0  0  0
 62136  1  0  0  0
 63 65  1  0  0  0
 63137  1  0  0  0
 63138  1  0  0  0
 63139  1  0  0  0
 64140  1  0  0  0
 65141  1  0  0  0
 68 78  1  0  0  0
 71 72  2  0  0  0
 71 80  1  0  0  0
 71142  1  0  0  0
 72 79  1  0  0  0
 72 81  1  0  0  0
 73 74  1  0  0  0
 73 80  1  0  0  0
 73 81  2  0  0  0
 74143  1  0  0  0
 74144  1  0  0  0
 74145  1  0  0  0
 75146  1  0  0  0
 75147  1  0  0  0
 75148  1  0  0  0
 75 79  1  0  0  0
 76 78  1  0  0  0
 76 80  1  0  0  0
 76149  1  0  0  0
 76150  1  0  0  0
 77 79  1  0  0  0
 77 82  1  0  0  0
 77151  1  0  0  0
 77152  1  0  0  0
 78153  1  0  0  0
 78154  1  0  0  0
 79155  1  0  0  0
 81156  1  0  0  0
 82157  1  0  0  0
M  CHG  1  81   1
M  ISO  4   1 100  68 101  78 101  82 100
M  END
> <chiral flag>
0

> <version>
0

> <s_m_source_file>
/data/baiqing/PycharmProjects/Reinvent-master-3.2/result/LINK_invent/BTK/process_docking_weight1_custom_sum_contain_oxygen_bond_distance_aromatic_linkinvent_7_9_3/rearranged_h_0081.sdf

> <i_m_source_file_index>
32

> <r_mmod_Potential_Energy-OPLS-2005>
79.6592636108398

> <r_mmod_Stretch_Energy-OPLS-2005>
137.92903137207

> <r_mmod_Bend_Energy-OPLS-2005>
181.108581542969

> <r_mmod_Torsional_Energy-OPLS-2005>
231.369750976562

> <r_mmod_Improper_Torsional_Energy-OPLS-2005>
5.25749969482422

> <r_mmod_Van_der_Waal_Energy-OPLS-2005>
109.824172973633

> <r_mmod_Electrostatic_Energy-OPLS-2005>
-246.655746459961

> <r_mmod_Solvation_Energy-OPLS-2005>
-435.262573242188

> <b_mmod_Minimization_Converged-OPLS-2005>
0

> <r_mmod_RMS_Derivative-OPLS-2005>
7.37005949020386

$$$$
32
                    3D
 Structure written by MMmdl.
160168  0  0  1  0            999 V2000
  -30.7760  -14.3397   20.6579 C   0  0  0  0  0  0
  -30.4377  -12.2585   19.3955 C   0  0  0  0  0  0
  -29.4990  -12.5007   18.1981 C   0  0  0  0  0  0
  -28.0219  -12.3616   18.6153 C   0  0  0  0  0  0
  -27.6814  -13.1901   19.8839 C   0  0  2  0  0  0
  -28.7220  -12.9183   20.9963 C   0  0  0  0  0  0
  -25.2723  -13.8108   20.5621 C   0  0  0  0  0  0
  -24.1934  -13.0471   20.9153 C   0  0  0  0  0  0
  -24.6451  -11.6913   20.8733 C   0  0  0  0  0  0
  -23.9096  -10.4303   21.0416 C   0  0  0  0  0  0
  -24.3629   -9.4220   21.9193 C   0  0  0  0  0  0
  -23.6291   -8.2269   22.0749 C   0  0  0  0  0  0
  -22.4272   -8.0301   21.3550 C   0  0  0  0  0  0
  -21.9926   -9.0277   20.4670 C   0  0  0  0  0  0
  -22.7257  -10.2149   20.3084 C   0  0  0  0  0  0
  -21.6841   -6.0767   22.5280 C   0  0  0  0  0  0
  -21.3991   -6.5664   23.8213 C   0  0  0  0  0  0
  -21.3668   -5.6811   24.9178 C   0  0  0  0  0  0
  -21.6020   -4.3068   24.7217 C   0  0  0  0  0  0
  -21.8833   -3.8186   23.4337 C   0  0  0  0  0  0
  -21.9187   -4.7001   22.3395 C   0  0  0  0  0  0
  -22.7982  -13.5296   21.1836 C   0  0  0  0  0  0
  -22.1663   -4.2191   21.0972 F   0  0  0  0  0  0
  -21.5637   -3.4563   25.7727 F   0  0  0  0  0  0
  -30.0754  -13.1975   20.4617 N   0  0  0  0  0  0
  -26.3158  -12.9257   20.3396 N   0  0  0  0  0  0
  -25.9366  -11.6435   20.5750 N   0  0  0  0  0  0
  -22.0644  -12.8250   22.0374 N   0  0  0  0  0  0
  -25.4599  -15.1785   20.3912 N   0  0  0  0  0  0
  -31.7720  -14.6726   20.0075 O   0  0  0  0  0  0
  -21.6640   -6.8896   21.4239 O   0  0  0  0  0  0
  -22.3664  -14.5653   20.6759 O   0  0  0  0  0  0
  -24.6096  -31.8716   23.2161 C   0  0  0  0  0  0
  -25.8986  -32.4848   23.8453 C   0  0  1  0  0  0
  -27.2453  -27.4854   20.0684 C   0  0  0  0  0  0
  -25.5845  -33.8651   24.2376 N   0  0  0  0  0  0
  -23.3980  -30.4952   21.5571 C   0  0  2  0  0  0
  -24.8367  -28.9664   20.1223 C   0  0  0  0  0  0
  -22.7369  -29.4664   22.5033 C   0  0  0  0  0  0
  -18.0252  -28.1419   22.8538 C   0  0  0  0  0  0
  -24.1476  -36.7337   23.2650 C   0  0  0  0  0  0
  -25.9176  -30.8518   21.3584 C   0  0  0  0  0  0
  -25.9954  -29.4892   20.7070 C   0  0  0  0  0  0
  -27.1988  -28.7539   20.6809 C   0  0  0  0  0  0
  -26.0633  -26.9677   19.4838 C   0  0  0  0  0  0
  -24.8647  -27.7029   19.5092 C   0  0  0  0  0  0
  -23.5994  -29.8293   20.1689 C   0  0  0  0  0  0
  -25.4094  -36.3132   24.0350 C   0  0  1  0  0  0
  -20.5802  -28.3740   23.1369 C   0  0  2  0  0  0
  -20.6711  -26.9424   22.5558 C   0  0  0  0  0  0
  -19.5689  -26.6202   21.5417 C   0  0  0  0  0  0
  -18.1888  -26.7902   22.1874 C   0  0  0  0  0  0
  -19.1483  -28.8917   23.2890 C   0  0  0  0  0  0
  -18.9379  -30.1530   23.8882 C   0  0  0  0  0  0
  -17.6389  -30.6670   24.0495 C   0  0  0  0  0  0
  -25.9011  -34.9494   23.5161 C   0  0  0  0  0  0
  -16.5296  -29.9132   23.6344 C   0  0  0  0  0  0
  -16.7229  -28.6520   23.0379 C   0  0  0  0  0  0
  -26.4476  -31.6616   25.0764 C   0  0  0  0  0  0
  -25.3792  -31.3688   26.1556 C   0  0  0  0  0  0
  -27.0296  -30.3073   24.6072 C   0  0  0  0  0  0
  -27.6084  -32.4324   25.7500 C   0  0  0  0  0  0
  -27.5576  -37.1823   24.8473 C   0  0  0  0  0  0
  -21.4103  -29.3099   22.3805 N   0  0  0  0  0  0
  -26.4291  -37.3799   23.9421 N   0  0  0  0  0  0
  -24.6615  -31.0844   22.1043 N   0  0  0  0  0  0
  -23.4171  -28.8154   23.3021 O   0  0  0  0  0  0
  -28.4530  -26.8197   20.0687 O   0  0  0  0  0  0
  -26.5570  -34.8921   22.4729 O   0  0  0  0  0  0
  -23.5268  -32.1415   23.7563 O   0  0  0  0  0  0
  -27.1117  -19.7348   21.1722 C   0  0  0  0  0  0
  -27.6110  -18.4679   21.5283 C   0  0  0  0  0  0
  -27.8280  -20.8545   21.6358 C   0  0  0  0  0  0
  -28.7985  -18.4269   22.2927 C   0  0  0  0  0  0
  -29.9724  -17.0890   24.1371 C   0  0  0  0  0  0
  -27.2823  -22.2553   21.5090 C   0  0  0  0  0  0
  -27.9356  -23.0853   20.3929 C   0  0  0  0  0  0
  -27.8854  -24.5790   20.7432 C   0  0  0  0  0  0
  -30.3947  -16.5651   21.6713 C   0  0  0  0  0  0
  -28.5022  -25.4620   19.6568 C   0  0  0  0  0  0
  -29.3909  -17.0906   22.7109 C   0  0  1  0  0  0
  -28.9993  -20.7435   22.3104 N   0  0  0  0  0  0
  -29.4939  -19.5425   22.6154 N   0  0  0  0  0  0
  -30.2744  -15.1183   21.6102 N   0  0  0  0  0  0
  -31.4844  -12.3585   19.0957 H   0  0  0  0  0  0
  -30.3313  -11.2410   19.7679 H   0  0  0  0  0  0
  -29.7220  -11.7953   17.3984 H   0  0  0  0  0  0
  -29.6717  -13.4958   17.7847 H   0  0  0  0  0  0
  -27.8300  -11.3035   18.8006 H   0  0  0  0  0  0
  -27.3657  -12.6405   17.7893 H   0  0  0  0  0  0
  -27.7488  -14.2420   19.6050 H   0  0  0  0  0  0
  -28.6757  -11.8758   21.3121 H   0  0  0  0  0  0
  -28.4699  -13.4876   21.8899 H   0  0  0  0  0  0
  -25.2793   -9.5685   22.4749 H   0  0  0  0  0  0
  -24.0016   -7.4660   22.7468 H   0  0  0  0  0  0
  -21.0860   -8.8824   19.8960 H   0  0  0  0  0  0
  -22.3750  -10.9694   19.6202 H   0  0  0  0  0  0
  -21.1969   -7.6173   23.9716 H   0  0  0  0  0  0
  -21.1472   -6.0551   25.9067 H   0  0  0  0  0  0
  -22.0595   -2.7652   23.2831 H   0  0  0  0  0  0
  -22.4255  -11.9818   22.4571 H   0  0  0  0  0  0
  -21.1311  -13.1333   22.2719 H   0  0  0  0  0  0
  -24.7010  -15.8463   20.4528 H   0  0  0  0  0  0
  -26.3026  -15.5646   19.9838 H   0  0  0  0  0  0
  -26.7058  -32.5589   23.1229 H   0  0  0  0  0  0
  -25.0036  -33.9872   25.0541 H   0  0  0  0  0  0
  -22.6824  -31.3102   21.4226 H   0  0  0  0  0  0
  -23.3723  -35.9691   23.3340 H   0  0  0  0  0  0
  -24.3582  -36.8906   22.2060 H   0  0  0  0  0  0
  -23.7233  -37.6556   23.6627 H   0  0  0  0  0  0
  -26.0119  -31.6178   20.5893 H   0  0  0  0  0  0
  -26.8120  -30.9138   21.9642 H   0  0  0  0  0  0
  -28.0951  -29.1666   21.1235 H   0  0  0  0  0  0
  -26.0370  -26.0049   18.9993 H   0  0  0  0  0  0
  -23.9796  -27.2902   19.0489 H   0  0  0  0  0  0
  -23.7100  -30.6044   19.4108 H   0  0  0  0  0  0
  -22.7223  -29.2456   19.8766 H   0  0  0  0  0  0
  -25.1257  -36.2042   25.0833 H   0  0  0  0  0  0
  -20.9861  -28.3407   24.1505 H   0  0  0  0  0  0
  -20.5656  -26.2310   23.3796 H   0  0  0  0  0  0
  -21.6591  -26.7460   22.1426 H   0  0  0  0  0  0
  -19.6761  -25.6008   21.1715 H   0  0  0  0  0  0
  -19.6680  -27.2747   20.6779 H   0  0  0  0  0  0
  -17.4068  -26.6451   21.4368 H   0  0  0  0  0  0
  -18.0463  -26.0223   22.9481 H   0  0  0  0  0  0
  -19.7819  -30.7404   24.2276 H   0  0  0  0  0  0
  -17.4878  -31.6396   24.4996 H   0  0  0  0  0  0
  -15.5299  -30.3017   23.7669 H   0  0  0  0  0  0
  -15.8598  -28.0863   22.7114 H   0  0  0  0  0  0
  -24.5965  -30.7020   25.7912 H   0  0  0  0  0  0
  -24.9005  -32.2824   26.5067 H   0  0  0  0  0  0
  -25.8225  -30.8837   27.0260 H   0  0  0  0  0  0
  -26.2781  -29.6828   24.1204 H   0  0  0  0  0  0
  -27.4169  -29.7325   25.4487 H   0  0  0  0  0  0
  -27.8575  -30.4426   23.9119 H   0  0  0  0  0  0
  -27.2714  -33.3593   26.2156 H   0  0  0  0  0  0
  -28.3846  -32.6920   25.0292 H   0  0  0  0  0  0
  -28.0792  -31.8400   26.5349 H   0  0  0  0  0  0
  -28.2622  -38.0085   24.7456 H   0  0  0  0  0  0
  -28.1035  -36.2621   24.6359 H   0  0  0  0  0  0
  -27.2304  -37.1526   25.8877 H   0  0  0  0  0  0
  -20.9305  -29.8987   21.7152 H   0  0  0  0  0  0
  -26.0198  -38.2893   24.1393 H   0  0  0  0  0  0
  -26.1903  -19.8367   20.6139 H   0  0  0  0  0  0
  -27.0926  -17.5657   21.2352 H   0  0  0  0  0  0
  -30.2781  -16.0876   24.4366 H   0  0  0  0  0  0
  -30.8508  -17.7330   24.2065 H   0  0  0  0  0  0
  -29.2510  -17.4409   24.8728 H   0  0  0  0  0  0
  -27.4497  -22.7368   22.4747 H   0  0  0  0  0  0
  -26.2007  -22.2199   21.3815 H   0  0  0  0  0  0
  -27.4401  -22.8812   19.4376 H   0  0  0  0  0  0
  -28.9798  -22.7910   20.2524 H   0  0  0  0  0  0
  -28.4205  -24.7711   21.6776 H   0  0  0  0  0  0
  -26.8465  -24.8660   20.9355 H   0  0  0  0  0  0
  -31.4126  -16.8953   21.8845 H   0  0  0  0  0  0
  -30.1342  -16.9536   20.6824 H   0  0  0  0  0  0
  -28.0319  -25.3104   18.6839 H   0  0  0  0  0  0
  -29.5489  -25.1884   19.5308 H   0  0  0  0  0  0
  -28.5369  -16.4125   22.7378 H   0  0  0  0  0  0
  -29.5115  -14.7157   22.1314 H   0  0  0  0  0  0
  1 25  1  0  0  0
  1 30  2  0  0  0
  1 84  1  0  0  0
  2  3  1  0  0  0
  2 25  1  0  0  0
  2 85  1  0  0  0
  2 86  1  0  0  0
  3  4  1  0  0  0
  3 87  1  0  0  0
  3 88  1  0  0  0
  4  5  1  0  0  0
  4 89  1  0  0  0
  4 90  1  0  0  0
  5  6  1  0  0  0
  5 26  1  0  0  0
  5 91  1  0  0  0
  6 25  1  0  0  0
  6 92  1  0  0  0
  6 93  1  0  0  0
  7  8  2  0  0  0
  7 26  1  0  0  0
  7 29  1  0  0  0
  8  9  1  0  0  0
  8 22  1  0  0  0
  9 10  1  0  0  0
  9 27  2  0  0  0
 10 11  2  0  0  0
 10 15  1  0  0  0
 11 12  1  0  0  0
 11 94  1  0  0  0
 12 13  2  0  0  0
 12 95  1  0  0  0
 13 14  1  0  0  0
 13 31  1  0  0  0
 14 15  2  0  0  0
 14 96  1  0  0  0
 15 97  1  0  0  0
 16 17  2  0  0  0
 16 21  1  0  0  0
 16 31  1  0  0  0
 17 18  1  0  0  0
 17 98  1  0  0  0
 18 19  2  0  0  0
 18 99  1  0  0  0
 19 20  1  0  0  0
 19 24  1  0  0  0
 20 21  2  0  0  0
 20100  1  0  0  0
 21 23  1  0  0  0
 22 28  1  0  0  0
 22 32  2  0  0  0
 26 27  1  0  0  0
 28101  1  0  0  0
 28102  1  0  0  0
 29103  1  0  0  0
 29104  1  0  0  0
 33 34  1  0  0  0
 33 66  1  0  0  0
 33 70  2  0  0  0
 34 36  1  0  0  0
 34 59  1  0  0  0
 34105  1  0  0  0
 35 44  2  0  0  0
 35 45  1  0  0  0
 35 68  1  0  0  0
 36 56  1  0  0  0
 36106  1  0  0  0
 37 39  1  0  0  0
 37 47  1  0  0  0
 37 66  1  0  0  0
 37107  1  0  0  0
 38 43  2  0  0  0
 38 46  1  0  0  0
 38 47  1  0  0  0
 39 64  1  0  0  0
 39 67  2  0  0  0
 40 52  1  0  0  0
 40 53  2  0  0  0
 40 58  1  0  0  0
 41108  1  0  0  0
 41109  1  0  0  0
 41110  1  0  0  0
 41 48  1  0  0  0
 42 43  1  0  0  0
 42 66  1  0  0  0
 42111  1  0  0  0
 42112  1  0  0  0
 43 44  1  0  0  0
 44113  1  0  0  0
 45 46  2  0  0  0
 45114  1  0  0  0
 46115  1  0  0  0
 47116  1  0  0  0
 47117  1  0  0  0
 48 56  1  0  0  0
 48 65  1  0  0  0
 48118  1  0  0  0
 49 50  1  0  0  0
 49 53  1  0  0  0
 49 64  1  0  0  0
 49119  1  0  0  0
 50 51  1  0  0  0
 50120  1  0  0  0
 50121  1  0  0  0
 51 52  1  0  0  0
 51122  1  0  0  0
 51123  1  0  0  0
 52124  1  0  0  0
 52125  1  0  0  0
 53 54  1  0  0  0
 54 55  2  0  0  0
 54126  1  0  0  0
 55 57  1  0  0  0
 55127  1  0  0  0
 56 69  2  0  0  0
 57 58  2  0  0  0
 57128  1  0  0  0
 58129  1  0  0  0
 59 60  1  0  0  0
 59 61  1  0  0  0
 59 62  1  0  0  0
 60130  1  0  0  0
 60131  1  0  0  0
 60132  1  0  0  0
 61133  1  0  0  0
 61134  1  0  0  0
 61135  1  0  0  0
 62136  1  0  0  0
 62137  1  0  0  0
 62138  1  0  0  0
 63 65  1  0  0  0
 63139  1  0  0  0
 63140  1  0  0  0
 63141  1  0  0  0
 64142  1  0  0  0
 65143  1  0  0  0
 68 80  1  0  0  0
 71 72  2  0  0  0
 71 73  1  0  0  0
 71144  1  0  0  0
 72 74  1  0  0  0
 72145  1  0  0  0
 73 76  1  0  0  0
 73 82  2  0  0  0
 74 81  1  0  0  0
 74 83  2  0  0  0
 75146  1  0  0  0
 75147  1  0  0  0
 75148  1  0  0  0
 75 81  1  0  0  0
 76 77  1  0  0  0
 76149  1  0  0  0
 76150  1  0  0  0
 77 78  1  0  0  0
 77151  1  0  0  0
 77152  1  0  0  0
 78 80  1  0  0  0
 78153  1  0  0  0
 78154  1  0  0  0
 79 81  1  0  0  0
 79 84  1  0  0  0
 79155  1  0  0  0
 79156  1  0  0  0
 80157  1  0  0  0
 80158  1  0  0  0
 81159  1  0  0  0
 82 83  1  0  0  0
 84160  1  0  0  0
M  ISO  4   1 100  68 101  80 101  84 100
M  END
> <chiral flag>
0

> <version>
0

> <s_m_source_file>
/data/baiqing/PycharmProjects/Reinvent-master-3.2/result/LINK_invent/BTK/process_docking_weight1_custom_sum_contain_oxygen_bond_distance_aromatic_linkinvent_7_9_3/rearranged_h_0081.sdf

> <i_m_source_file_index>
33

> <r_mmod_Potential_Energy-OPLS-2005>
-85.5764236450195

> <r_mmod_Stretch_Energy-OPLS-2005>
31.550500869751

> <r_mmod_Bend_Energy-OPLS-2005>
98.5403366088867

> <r_mmod_Torsional_Energy-OPLS-2005>
196.91487121582

> <r_mmod_Improper_Torsional_Energy-OPLS-2005>
3.98477745056152

> <r_mmod_Van_der_Waal_Energy-OPLS-2005>
163.032073974609

> <r_mmod_Electrostatic_Energy-OPLS-2005>
-355.385925292969

> <r_mmod_Solvation_Energy-OPLS-2005>
-232.897567749023

> <b_mmod_Minimization_Converged-OPLS-2005>
0

> <r_mmod_RMS_Derivative-OPLS-2005>
6.78476667404175

$$$$
33
                    3D
 Structure written by MMmdl.
162170  0  0  1  0            999 V2000
  -30.6000  -14.6745   20.4753 C   0  0  0  0  0  0
  -30.4529  -12.4135   19.4324 C   0  0  0  0  0  0
  -29.5107  -12.4942   18.2100 C   0  0  0  0  0  0
  -28.0328  -12.3481   18.6294 C   0  0  0  0  0  0
  -27.6574  -13.2184   19.8579 C   0  0  2  0  0  0
  -28.7098  -13.0763   20.9776 C   0  0  0  0  0  0
  -25.2616  -13.8175   20.5693 C   0  0  0  0  0  0
  -24.1887  -13.0469   20.9207 C   0  0  0  0  0  0
  -24.6459  -11.6913   20.8790 C   0  0  0  0  0  0
  -23.9121  -10.4312   21.0451 C   0  0  0  0  0  0
  -24.3659   -9.4207   21.9215 C   0  0  0  0  0  0
  -23.6322   -8.2251   22.0764 C   0  0  0  0  0  0
  -22.4308   -8.0314   21.3537 C   0  0  0  0  0  0
  -21.9956   -9.0310   20.4646 C   0  0  0  0  0  0
  -22.7310  -10.2178   20.3083 C   0  0  0  0  0  0
  -21.6852   -6.0769   22.5288 C   0  0  0  0  0  0
  -21.3987   -6.5656   23.8227 C   0  0  0  0  0  0
  -21.3641   -5.6798   24.9175 C   0  0  0  0  0  0
  -21.6042   -4.3064   24.7217 C   0  0  0  0  0  0
  -21.8820   -3.8174   23.4339 C   0  0  0  0  0  0
  -21.9195   -4.6999   22.3392 C   0  0  0  0  0  0
  -22.7900  -13.5242   21.1872 C   0  0  0  0  0  0
  -22.1668   -4.2195   21.0969 F   0  0  0  0  0  0
  -21.5641   -3.4531   25.7718 F   0  0  0  0  0  0
  -30.0118  -13.4374   20.3996 N   0  0  0  0  0  0
  -26.3045  -12.9357   20.3313 N   0  0  0  0  0  0
  -25.9387  -11.6526   20.5778 N   0  0  0  0  0  0
  -22.0518  -12.8248   22.0402 N   0  0  0  0  0  0
  -25.4334  -15.1894   20.4056 N   0  0  0  0  0  0
  -31.7828  -14.8432   20.1650 O   0  0  0  0  0  0
  -21.6628   -6.8936   21.4260 O   0  0  0  0  0  0
  -22.3614  -14.5565   20.6725 O   0  0  0  0  0  0
  -24.6337  -31.8547   23.2005 C   0  0  0  0  0  0
  -25.9151  -32.4781   23.8344 C   0  0  1  0  0  0
  -27.2287  -27.2617   20.1113 C   0  0  0  0  0  0
  -25.5918  -33.8570   24.2246 N   0  0  0  0  0  0
  -23.4340  -30.4776   21.5451 C   0  0  2  0  0  0
  -24.8856  -28.9295   20.1103 C   0  0  0  0  0  0
  -22.7489  -29.4607   22.4901 C   0  0  0  0  0  0
  -18.0289  -28.1340   22.8484 C   0  0  0  0  0  0
  -24.1505  -36.7298   23.2629 C   0  0  0  0  0  0
  -25.9785  -30.7653   21.3879 C   0  0  0  0  0  0
  -26.0563  -29.3879   20.7308 C   0  0  0  0  0  0
  -27.2264  -28.5586   20.7362 C   0  0  0  0  0  0
  -26.0462  -26.8986   19.4286 C   0  0  0  0  0  0
  -24.8865  -27.6934   19.4505 C   0  0  0  0  0  0
  -23.6551  -29.8110   20.1618 C   0  0  0  0  0  0
  -25.4132  -36.3061   24.0295 C   0  0  1  0  0  0
  -20.5896  -28.3696   23.1235 C   0  0  2  0  0  0
  -20.6811  -26.9398   22.5392 C   0  0  0  0  0  0
  -19.5775  -26.6344   21.5198 C   0  0  0  0  0  0
  -18.1944  -26.7896   22.1594 C   0  0  0  0  0  0
  -19.1535  -28.8813   23.2885 C   0  0  0  0  0  0
  -18.9462  -30.1413   23.8906 C   0  0  0  0  0  0
  -17.6474  -30.6577   24.0513 C   0  0  0  0  0  0
  -25.9053  -34.9432   23.5071 C   0  0  0  0  0  0
  -16.5360  -29.9043   23.6335 C   0  0  0  0  0  0
  -16.7280  -28.6452   23.0382 C   0  0  0  0  0  0
  -26.4497  -31.6639   25.0763 C   0  0  0  0  0  0
  -25.3642  -31.3818   26.1428 C   0  0  0  0  0  0
  -27.0383  -30.3065   24.6272 C   0  0  0  0  0  0
  -27.6056  -32.4359   25.7539 C   0  0  0  0  0  0
  -27.5581  -37.1806   24.8424 C   0  0  0  0  0  0
  -21.4192  -29.3085   22.3641 N   0  0  0  0  0  0
  -26.4297  -37.3762   23.9375 N   0  0  0  0  0  0
  -24.7027  -31.0459   22.1033 N   0  0  0  0  0  0
  -23.4189  -28.8082   23.2940 O   0  0  0  0  0  0
  -28.3127  -26.3485   20.1797 O   0  0  0  0  0  0
  -26.5602  -34.8892   22.4633 O   0  0  0  0  0  0
  -23.5469  -32.1372   23.7253 O   0  0  0  0  0  0
  -27.4157  -19.4471   20.6469 C   0  0  0  0  0  0
  -29.2365  -21.0008   20.2605 C   0  0  0  0  0  0
  -28.7651  -19.6223   20.3032 C   0  0  0  0  0  0
  -26.5919  -20.5185   21.0320 C   0  0  0  0  0  0
  -28.4106  -22.1558   20.6094 C   0  0  0  0  0  0
  -27.0987  -21.8454   21.0989 C   0  0  0  0  0  0
  -25.1471  -20.1724   21.3800 C   0  0  0  0  0  0
  -26.2077  -22.9011   21.7495 C   0  0  0  0  0  0
  -30.6474  -18.5080   18.8651 C   0  0  0  0  0  0
  -28.9451  -23.6766   20.5577 C   0  0  0  0  0  0
  -29.9278  -17.2081   21.0009 C   0  0  0  0  0  0
  -28.0605  -24.8828   19.9119 C   0  0  0  0  0  0
  -29.5132  -18.2802   19.8758 C   0  0  1  0  0  0
  -29.7479  -15.7242   20.7299 N   0  0  0  0  0  0
  -31.4893  -12.5599   19.1165 H   0  0  0  0  0  0
  -30.4156  -11.4207   19.8843 H   0  0  0  0  0  0
  -29.7675  -11.7173   17.4878 H   0  0  0  0  0  0
  -29.6595  -13.4454   17.6983 H   0  0  0  0  0  0
  -27.8627  -11.2985   18.8653 H   0  0  0  0  0  0
  -27.3786  -12.5814   17.7883 H   0  0  0  0  0  0
  -27.6730  -14.2520   19.5150 H   0  0  0  0  0  0
  -28.7350  -12.0515   21.3502 H   0  0  0  0  0  0
  -28.4669  -13.7041   21.8374 H   0  0  0  0  0  0
  -25.2820   -9.5646   22.4799 H   0  0  0  0  0  0
  -24.0009   -7.4622   22.7478 H   0  0  0  0  0  0
  -21.0885   -8.8876   19.8948 H   0  0  0  0  0  0
  -22.3810  -10.9748   19.6197 H   0  0  0  0  0  0
  -21.1952   -7.6159   23.9739 H   0  0  0  0  0  0
  -21.1460   -6.0515   25.9082 H   0  0  0  0  0  0
  -22.0618   -2.7649   23.2813 H   0  0  0  0  0  0
  -22.4087  -11.9863   22.4763 H   0  0  0  0  0  0
  -21.1160  -13.1325   22.2615 H   0  0  0  0  0  0
  -24.6663  -15.8444   20.5034 H   0  0  0  0  0  0
  -26.2629  -15.6150   20.0182 H   0  0  0  0  0  0
  -26.7237  -32.5465   23.1083 H   0  0  0  0  0  0
  -25.0023  -33.9692   25.0354 H   0  0  0  0  0  0
  -22.7382  -31.3069   21.4027 H   0  0  0  0  0  0
  -23.3748  -35.9657   23.3248 H   0  0  0  0  0  0
  -24.3558  -36.8971   22.2046 H   0  0  0  0  0  0
  -23.7296  -37.6481   23.6729 H   0  0  0  0  0  0
  -26.0971  -31.5229   20.6113 H   0  0  0  0  0  0
  -26.8583  -30.8310   22.0186 H   0  0  0  0  0  0
  -28.1162  -28.8885   21.2583 H   0  0  0  0  0  0
  -25.9925  -25.9781   18.8673 H   0  0  0  0  0  0
  -23.9937  -27.3466   18.9471 H   0  0  0  0  0  0
  -23.7756  -30.5910   19.4101 H   0  0  0  0  0  0
  -22.7736  -29.2408   19.8625 H   0  0  0  0  0  0
  -25.1332  -36.1886   25.0792 H   0  0  0  0  0  0
  -21.0052  -28.3329   24.1321 H   0  0  0  0  0  0
  -20.5712  -26.2282   23.3624 H   0  0  0  0  0  0
  -21.6677  -26.7406   22.1175 H   0  0  0  0  0  0
  -19.6917  -25.6225   21.1278 H   0  0  0  0  0  0
  -19.6725  -27.3132   20.6712 H   0  0  0  0  0  0
  -17.4229  -26.6635   21.4006 H   0  0  0  0  0  0
  -18.0296  -26.0046   22.8969 H   0  0  0  0  0  0
  -19.7941  -30.7183   24.2344 H   0  0  0  0  0  0
  -17.5029  -31.6288   24.5046 H   0  0  0  0  0  0
  -15.5353  -30.2918   23.7698 H   0  0  0  0  0  0
  -15.8682  -28.0767   22.7111 H   0  0  0  0  0  0
  -24.5838  -30.7175   25.7664 H   0  0  0  0  0  0
  -24.8777  -32.3003   26.4765 H   0  0  0  0  0  0
  -25.7845  -30.9013   27.0272 H   0  0  0  0  0  0
  -26.3034  -29.6764   24.1263 H   0  0  0  0  0  0
  -27.3997  -29.7394   25.4849 H   0  0  0  0  0  0
  -27.8915  -30.4284   23.9594 H   0  0  0  0  0  0
  -27.2737  -33.3717   26.2049 H   0  0  0  0  0  0
  -28.3945  -32.6798   25.0410 H   0  0  0  0  0  0
  -28.0656  -31.8500   26.5493 H   0  0  0  0  0  0
  -28.2553  -38.0153   24.7521 H   0  0  0  0  0  0
  -28.1133  -36.2656   24.6241 H   0  0  0  0  0  0
  -27.2237  -37.1412   25.8806 H   0  0  0  0  0  0
  -20.9333  -29.8833   21.6898 H   0  0  0  0  0  0
  -26.0153  -38.2808   24.1439 H   0  0  0  0  0  0
  -26.9908  -18.4509   20.6120 H   0  0  0  0  0  0
  -30.2612  -21.1810   19.9594 H   0  0  0  0  0  0
  -24.7850  -19.3495   20.7568 H   0  0  0  0  0  0
  -24.4553  -20.9978   21.2159 H   0  0  0  0  0  0
  -25.0739  -19.8604   22.4220 H   0  0  0  0  0  0
  -25.4743  -23.2707   21.0312 H   0  0  0  0  0  0
  -26.7722  -23.7380   22.1631 H   0  0  0  0  0  0
  -25.6592  -22.4905   22.6004 H   0  0  0  0  0  0
  -30.2755  -19.0037   17.9667 H   0  0  0  0  0  0
  -31.0774  -17.5587   18.5413 H   0  0  0  0  0  0
  -31.4520  -19.1107   19.2816 H   0  0  0  0  0  0
  -29.9075  -23.6676   20.0411 H   0  0  0  0  0  0
  -29.1877  -23.9611   21.5829 H   0  0  0  0  0  0
  -29.2777  -17.3829   21.8594 H   0  0  0  0  0  0
  -30.9330  -17.4062   21.3738 H   0  0  0  0  0  0
  -27.0398  -24.6931   20.2146 H   0  0  0  0  0  0
  -28.0697  -24.7406   18.8281 H   0  0  0  0  0  0
  -28.7524  -17.7552   19.2946 H   0  0  0  0  0  0
  -28.8067  -15.4026   20.8932 H   0  0  0  0  0  0
  1 25  1  0  0  0
  1 30  2  0  0  0
  1 84  1  0  0  0
  2  3  1  0  0  0
  2 25  1  0  0  0
  2 85  1  0  0  0
  2 86  1  0  0  0
  3  4  1  0  0  0
  3 87  1  0  0  0
  3 88  1  0  0  0
  4  5  1  0  0  0
  4 89  1  0  0  0
  4 90  1  0  0  0
  5  6  1  0  0  0
  5 26  1  0  0  0
  5 91  1  0  0  0
  6 25  1  0  0  0
  6 92  1  0  0  0
  6 93  1  0  0  0
  7  8  2  0  0  0
  7 26  1  0  0  0
  7 29  1  0  0  0
  8  9  1  0  0  0
  8 22  1  0  0  0
  9 10  1  0  0  0
  9 27  2  0  0  0
 10 11  2  0  0  0
 10 15  1  0  0  0
 11 12  1  0  0  0
 11 94  1  0  0  0
 12 13  2  0  0  0
 12 95  1  0  0  0
 13 14  1  0  0  0
 13 31  1  0  0  0
 14 15  2  0  0  0
 14 96  1  0  0  0
 15 97  1  0  0  0
 16 17  2  0  0  0
 16 21  1  0  0  0
 16 31  1  0  0  0
 17 18  1  0  0  0
 17 98  1  0  0  0
 18 19  2  0  0  0
 18 99  1  0  0  0
 19 20  1  0  0  0
 19 24  1  0  0  0
 20 21  2  0  0  0
 20100  1  0  0  0
 21 23  1  0  0  0
 22 28  1  0  0  0
 22 32  2  0  0  0
 26 27  1  0  0  0
 28101  1  0  0  0
 28102  1  0  0  0
 29103  1  0  0  0
 29104  1  0  0  0
 33 34  1  0  0  0
 33 66  1  0  0  0
 33 70  2  0  0  0
 34 36  1  0  0  0
 34 59  1  0  0  0
 34105  1  0  0  0
 35 44  2  0  0  0
 35 45  1  0  0  0
 35 68  1  0  0  0
 36 56  1  0  0  0
 36106  1  0  0  0
 37 39  1  0  0  0
 37 47  1  0  0  0
 37 66  1  0  0  0
 37107  1  0  0  0
 38 43  2  0  0  0
 38 46  1  0  0  0
 38 47  1  0  0  0
 39 64  1  0  0  0
 39 67  2  0  0  0
 40 52  1  0  0  0
 40 53  2  0  0  0
 40 58  1  0  0  0
 41108  1  0  0  0
 41109  1  0  0  0
 41110  1  0  0  0
 41 48  1  0  0  0
 42 43  1  0  0  0
 42 66  1  0  0  0
 42111  1  0  0  0
 42112  1  0  0  0
 43 44  1  0  0  0
 44113  1  0  0  0
 45 46  2  0  0  0
 45114  1  0  0  0
 46115  1  0  0  0
 47116  1  0  0  0
 47117  1  0  0  0
 48 56  1  0  0  0
 48 65  1  0  0  0
 48118  1  0  0  0
 49 50  1  0  0  0
 49 53  1  0  0  0
 49 64  1  0  0  0
 49119  1  0  0  0
 50 51  1  0  0  0
 50120  1  0  0  0
 50121  1  0  0  0
 51 52  1  0  0  0
 51122  1  0  0  0
 51123  1  0  0  0
 52124  1  0  0  0
 52125  1  0  0  0
 53 54  1  0  0  0
 54 55  2  0  0  0
 54126  1  0  0  0
 55 57  1  0  0  0
 55127  1  0  0  0
 56 69  2  0  0  0
 57 58  2  0  0  0
 57128  1  0  0  0
 58129  1  0  0  0
 59 60  1  0  0  0
 59 61  1  0  0  0
 59 62  1  0  0  0
 60130  1  0  0  0
 60131  1  0  0  0
 60132  1  0  0  0
 61133  1  0  0  0
 61134  1  0  0  0
 61135  1  0  0  0
 62136  1  0  0  0
 62137  1  0  0  0
 62138  1  0  0  0
 63 65  1  0  0  0
 63139  1  0  0  0
 63140  1  0  0  0
 63141  1  0  0  0
 64142  1  0  0  0
 65143  1  0  0  0
 68 82  1  0  0  0
 71 73  2  0  0  0
 71 74  1  0  0  0
 71144  1  0  0  0
 72 73  1  0  0  0
 72 75  2  0  0  0
 72145  1  0  0  0
 73 83  1  0  0  0
 74 76  2  0  0  0
 74 77  1  0  0  0
 75 76  1  0  0  0
 75 80  1  0  0  0
 76 78  1  0  0  0
 77146  1  0  0  0
 77147  1  0  0  0
 77148  1  0  0  0
 78149  1  0  0  0
 78150  1  0  0  0
 78151  1  0  0  0
 79152  1  0  0  0
 79153  1  0  0  0
 79154  1  0  0  0
 79 83  1  0  0  0
 80 82  1  0  0  0
 80155  1  0  0  0
 80156  1  0  0  0
 81 83  1  0  0  0
 81 84  1  0  0  0
 81157  1  0  0  0
 81158  1  0  0  0
 82159  1  0  0  0
 82160  1  0  0  0
 83161  1  0  0  0
 84162  1  0  0  0
M  ISO  4   1 100  68 101  82 101  84 100
M  END
> <chiral flag>
0

> <version>
0

> <s_m_source_file>
/data/baiqing/PycharmProjects/Reinvent-master-3.2/result/LINK_invent/BTK/process_docking_weight1_custom_sum_contain_oxygen_bond_distance_aromatic_linkinvent_7_9_3/rearranged_h_0081.sdf

> <i_m_source_file_index>
34

> <r_mmod_Potential_Energy-OPLS-2005>
133.264602661133

> <r_mmod_Stretch_Energy-OPLS-2005>
126.766487121582

> <r_mmod_Bend_Energy-OPLS-2005>
174.414596557617

> <r_mmod_Torsional_Energy-OPLS-2005>
227.952270507812

> <r_mmod_Improper_Torsional_Energy-OPLS-2005>
5.29028701782227

> <r_mmod_Van_der_Waal_Energy-OPLS-2005>
147.45344543457

> <r_mmod_Electrostatic_Energy-OPLS-2005>
-416.946899414062

> <r_mmod_Solvation_Energy-OPLS-2005>
-204.733840942383

> <b_mmod_Minimization_Converged-OPLS-2005>
0

> <r_mmod_RMS_Derivative-OPLS-2005>
5.6577091217041

$$$$
34
                    3D
 Structure written by MMmdl.
159167  0  0  1  0            999 V2000
  -30.6037  -14.7703   20.3732 C   0  0  0  0  0  0
  -30.4379  -12.4557   19.4568 C   0  0  0  0  0  0
  -29.4933  -12.3984   18.2342 C   0  0  0  0  0  0
  -28.0204  -12.2784   18.6642 C   0  0  0  0  0  0
  -27.6292  -13.2219   19.8319 C   0  0  2  0  0  0
  -28.6859  -13.2101   20.9555 C   0  0  0  0  0  0
  -25.2473  -13.8117   20.5753 C   0  0  0  0  0  0
  -24.1749  -13.0363   20.9230 C   0  0  0  0  0  0
  -24.6335  -11.6865   20.8746 C   0  0  0  0  0  0
  -23.9005  -10.4276   21.0415 C   0  0  0  0  0  0
  -24.3576   -9.4217   21.9184 C   0  0  0  0  0  0
  -23.6275   -8.2241   22.0763 C   0  0  0  0  0  0
  -22.4271   -8.0263   21.3538 C   0  0  0  0  0  0
  -21.9874   -9.0232   20.4649 C   0  0  0  0  0  0
  -22.7182  -10.2122   20.3061 C   0  0  0  0  0  0
  -21.6857   -6.0710   22.5271 C   0  0  0  0  0  0
  -21.4008   -6.5626   23.8197 C   0  0  0  0  0  0
  -21.3666   -5.6788   24.9167 C   0  0  0  0  0  0
  -21.6070   -4.3058   24.7239 C   0  0  0  0  0  0
  -21.8811   -3.8127   23.4361 C   0  0  0  0  0  0
  -21.9201   -4.6934   22.3406 C   0  0  0  0  0  0
  -22.7789  -13.5179   21.1872 C   0  0  0  0  0  0
  -22.1660   -4.2100   21.0986 F   0  0  0  0  0  0
  -21.5663   -3.4551   25.7757 F   0  0  0  0  0  0
  -29.9732  -13.5486   20.3372 N   0  0  0  0  0  0
  -26.2884  -12.9329   20.3308 N   0  0  0  0  0  0
  -25.9270  -11.6477   20.5786 N   0  0  0  0  0  0
  -22.0399  -12.8167   22.0425 N   0  0  0  0  0  0
  -25.4149  -15.1817   20.4247 N   0  0  0  0  0  0
  -31.8345  -14.8288   20.2960 O   0  0  0  0  0  0
  -21.6651   -6.8854   21.4234 O   0  0  0  0  0  0
  -22.3507  -14.5483   20.6719 O   0  0  0  0  0  0
  -24.6294  -31.8576   23.2002 C   0  0  0  0  0  0
  -25.9135  -32.4757   23.8362 C   0  0  1  0  0  0
  -27.2100  -27.2666   20.1377 C   0  0  0  0  0  0
  -25.5927  -33.8567   24.2259 N   0  0  0  0  0  0
  -23.4262  -30.4788   21.5440 C   0  0  2  0  0  0
  -24.8711  -28.9243   20.1173 C   0  0  0  0  0  0
  -22.7484  -29.4607   22.4918 C   0  0  0  0  0  0
  -18.0311  -28.1390   22.8508 C   0  0  0  0  0  0
  -24.1492  -36.7289   23.2643 C   0  0  0  0  0  0
  -25.9718  -30.7633   21.3919 C   0  0  0  0  0  0
  -26.0383  -29.3856   20.7402 C   0  0  0  0  0  0
  -27.2099  -28.5635   20.7495 C   0  0  0  0  0  0
  -26.0455  -26.8989   19.4405 C   0  0  0  0  0  0
  -24.8781  -27.6860   19.4579 C   0  0  0  0  0  0
  -23.6462  -29.8158   20.1599 C   0  0  0  0  0  0
  -25.4115  -36.3073   24.0323 C   0  0  1  0  0  0
  -20.5922  -28.3735   23.1290 C   0  0  2  0  0  0
  -20.6813  -26.9433   22.5510 C   0  0  0  0  0  0
  -19.5795  -26.6351   21.5311 C   0  0  0  0  0  0
  -18.1967  -26.7914   22.1707 C   0  0  0  0  0  0
  -19.1563  -28.8879   23.2869 C   0  0  0  0  0  0
  -18.9465  -30.1498   23.8826 C   0  0  0  0  0  0
  -17.6455  -30.6597   24.0515 C   0  0  0  0  0  0
  -25.9046  -34.9449   23.5086 C   0  0  0  0  0  0
  -16.5353  -29.9069   23.6311 C   0  0  0  0  0  0
  -16.7289  -28.6483   23.0355 C   0  0  0  0  0  0
  -26.4495  -31.6597   25.0759 C   0  0  0  0  0  0
  -25.3710  -31.3782   26.1473 C   0  0  0  0  0  0
  -27.0358  -30.3005   24.6307 C   0  0  0  0  0  0
  -27.6040  -32.4363   25.7521 C   0  0  0  0  0  0
  -27.5575  -37.1800   24.8467 C   0  0  0  0  0  0
  -21.4202  -29.3020   22.3610 N   0  0  0  0  0  0
  -26.4291  -37.3765   23.9395 N   0  0  0  0  0  0
  -24.6929  -31.0524   22.1004 N   0  0  0  0  0  0
  -23.4168  -28.8181   23.3061 O   0  0  0  0  0  0
  -28.3178  -26.4018   20.1056 O   0  0  0  0  0  0
  -26.5630  -34.8914   22.4656 O   0  0  0  0  0  0
  -23.5437  -32.1419   23.7270 O   0  0  0  0  0  0
  -29.4241  -21.8201   21.3422 C   0  0  0  0  0  0
  -28.3584  -21.0145   19.6579 C   0  0  0  0  0  0
  -28.5623  -22.2442   20.2767 C   0  0  0  0  0  0
  -26.3934  -23.4039   19.9290 C   0  0  0  0  0  0
  -27.4645  -17.9951   20.2472 C   0  0  0  0  0  0
  -29.7363  -15.9837   18.5291 C   0  0  0  0  0  0
  -29.9532  -17.3293   20.5565 C   0  0  0  0  0  0
  -28.2917  -25.0157   20.6920 C   0  0  0  0  0  0
  -27.9188  -23.6551   19.8888 C   0  0  1  0  0  0
  -28.9088  -18.4573   20.0006 C   0  0  2  0  0  0
  -29.6699  -20.4903   21.3730 N   0  0  0  0  0  0
  -29.0065  -19.9510   20.3186 N   0  0  0  0  0  0
  -29.8540  -15.8936   19.9995 N   0  0  0  0  0  0
  -31.4674  -12.6058   19.1260 H   0  0  0  0  0  0
  -30.4296  -11.5096   19.9993 H   0  0  0  0  0  0
  -29.7537  -11.5448   17.6077 H   0  0  0  0  0  0
  -29.6115  -13.2636   17.5885 H   0  0  0  0  0  0
  -27.8651  -11.2424   18.9688 H   0  0  0  0  0  0
  -27.3587  -12.4402   17.8125 H   0  0  0  0  0  0
  -27.5988  -14.2249   19.4119 H   0  0  0  0  0  0
  -28.7316  -12.2349   21.4396 H   0  0  0  0  0  0
  -28.4303  -13.9401   21.7240 H   0  0  0  0  0  0
  -25.2720   -9.5719   22.4750 H   0  0  0  0  0  0
  -23.9994   -7.4648   22.7494 H   0  0  0  0  0  0
  -21.0803   -8.8759   19.8963 H   0  0  0  0  0  0
  -22.3630  -10.9668   19.6192 H   0  0  0  0  0  0
  -21.1968   -7.6129   23.9678 H   0  0  0  0  0  0
  -21.1500   -6.0524   25.9066 H   0  0  0  0  0  0
  -22.0571   -2.7577   23.2875 H   0  0  0  0  0  0
  -22.4012  -11.9863   22.4855 H   0  0  0  0  0  0
  -21.1019  -13.1227   22.2624 H   0  0  0  0  0  0
  -24.6538  -15.8389   20.5649 H   0  0  0  0  0  0
  -26.2845  -15.6251   20.1615 H   0  0  0  0  0  0
  -26.7188  -32.5411   23.1095 H   0  0  0  0  0  0
  -25.0041  -33.9733   25.0381 H   0  0  0  0  0  0
  -22.7248  -31.3033   21.3978 H   0  0  0  0  0  0
  -23.3745  -35.9635   23.3311 H   0  0  0  0  0  0
  -24.3587  -36.8897   22.2057 H   0  0  0  0  0  0
  -23.7259  -37.6492   23.6659 H   0  0  0  0  0  0
  -26.1251  -31.5237   20.6239 H   0  0  0  0  0  0
  -26.8440  -30.8036   22.0327 H   0  0  0  0  0  0
  -28.1036  -28.9096   21.2488 H   0  0  0  0  0  0
  -26.0528  -26.0129   18.8303 H   0  0  0  0  0  0
  -23.9981  -27.3472   18.9285 H   0  0  0  0  0  0
  -23.7797  -30.5965   19.4111 H   0  0  0  0  0  0
  -22.7639  -29.2546   19.8478 H   0  0  0  0  0  0
  -25.1305  -36.1905   25.0816 H   0  0  0  0  0  0
  -21.0044  -28.3357   24.1405 H   0  0  0  0  0  0
  -20.5672  -26.2381   23.3770 H   0  0  0  0  0  0
  -21.6716  -26.7427   22.1384 H   0  0  0  0  0  0
  -19.6943  -25.6242   21.1389 H   0  0  0  0  0  0
  -19.6749  -27.3100   20.6795 H   0  0  0  0  0  0
  -17.4235  -26.6614   21.4110 H   0  0  0  0  0  0
  -18.0355  -26.0121   22.9173 H   0  0  0  0  0  0
  -19.7932  -30.7376   24.2113 H   0  0  0  0  0  0
  -17.4978  -31.6291   24.5071 H   0  0  0  0  0  0
  -15.5330  -30.2936   23.7617 H   0  0  0  0  0  0
  -15.8707  -28.0758   22.7089 H   0  0  0  0  0  0
  -24.5850  -30.7166   25.7798 H   0  0  0  0  0  0
  -24.8949  -32.2974   26.4903 H   0  0  0  0  0  0
  -25.8012  -30.8938   27.0251 H   0  0  0  0  0  0
  -26.2968  -29.6723   24.1312 H   0  0  0  0  0  0
  -27.3971  -29.7301   25.4875 H   0  0  0  0  0  0
  -27.8876  -30.4248   23.9621 H   0  0  0  0  0  0
  -27.2623  -33.3646   26.2122 H   0  0  0  0  0  0
  -28.3832  -32.6965   25.0339 H   0  0  0  0  0  0
  -28.0742  -31.8497   26.5425 H   0  0  0  0  0  0
  -28.2612  -38.0082   24.7485 H   0  0  0  0  0  0
  -28.1055  -36.2607   24.6321 H   0  0  0  0  0  0
  -27.2306  -37.1487   25.8881 H   0  0  0  0  0  0
  -20.9394  -29.8613   21.6714 H   0  0  0  0  0  0
  -26.0167  -38.2839   24.1367 H   0  0  0  0  0  0
  -29.8513  -22.4394   22.1198 H   0  0  0  0  0  0
  -27.7445  -20.7974   18.7933 H   0  0  0  0  0  0
  -26.0868  -22.6907   19.1625 H   0  0  0  0  0  0
  -25.7830  -24.2861   19.7972 H   0  0  0  0  0  0
  -26.0972  -22.9897   20.8927 H   0  0  0  0  0  0
  -27.3168  -16.9940   19.8516 H   0  0  0  0  0  0
  -26.7451  -18.6355   19.7353 H   0  0  0  0  0  0
  -27.2122  -17.9814   21.3078 H   0  0  0  0  0  0
  -30.1735  -16.8961   18.1268 H   0  0  0  0  0  0
  -28.6936  -15.9322   18.2190 H   0  0  0  0  0  0
  -30.2777  -15.2047   17.9953 H   0  0  0  0  0  0
  -29.8608  -17.2716   21.6421 H   0  0  0  0  0  0
  -30.9698  -17.6800   20.3724 H   0  0  0  0  0  0
  -29.3309  -24.8826   20.9908 H   0  0  0  0  0  0
  -27.7453  -25.0412   21.6361 H   0  0  0  0  0  0
  -28.1883  -23.8636   18.8529 H   0  0  0  0  0  0
  -29.0141  -18.4644   18.9182 H   0  0  0  0  0  0
  1 25  1  0  0  0
  1 30  2  0  0  0
  1 83  1  0  0  0
  2  3  1  0  0  0
  2 25  1  0  0  0
  2 84  1  0  0  0
  2 85  1  0  0  0
  3  4  1  0  0  0
  3 86  1  0  0  0
  3 87  1  0  0  0
  4  5  1  0  0  0
  4 88  1  0  0  0
  4 89  1  0  0  0
  5  6  1  0  0  0
  5 26  1  0  0  0
  5 90  1  0  0  0
  6 25  1  0  0  0
  6 91  1  0  0  0
  6 92  1  0  0  0
  7  8  2  0  0  0
  7 26  1  0  0  0
  7 29  1  0  0  0
  8  9  1  0  0  0
  8 22  1  0  0  0
  9 10  1  0  0  0
  9 27  2  0  0  0
 10 11  2  0  0  0
 10 15  1  0  0  0
 11 12  1  0  0  0
 11 93  1  0  0  0
 12 13  2  0  0  0
 12 94  1  0  0  0
 13 14  1  0  0  0
 13 31  1  0  0  0
 14 15  2  0  0  0
 14 95  1  0  0  0
 15 96  1  0  0  0
 16 17  2  0  0  0
 16 21  1  0  0  0
 16 31  1  0  0  0
 17 18  1  0  0  0
 17 97  1  0  0  0
 18 19  2  0  0  0
 18 98  1  0  0  0
 19 20  1  0  0  0
 19 24  1  0  0  0
 20 21  2  0  0  0
 20 99  1  0  0  0
 21 23  1  0  0  0
 22 28  1  0  0  0
 22 32  2  0  0  0
 26 27  1  0  0  0
 28100  1  0  0  0
 28101  1  0  0  0
 29102  1  0  0  0
 29103  1  0  0  0
 33 34  1  0  0  0
 33 66  1  0  0  0
 33 70  2  0  0  0
 34 36  1  0  0  0
 34 59  1  0  0  0
 34104  1  0  0  0
 35 44  2  0  0  0
 35 45  1  0  0  0
 35 68  1  0  0  0
 36 56  1  0  0  0
 36105  1  0  0  0
 37 39  1  0  0  0
 37 47  1  0  0  0
 37 66  1  0  0  0
 37106  1  0  0  0
 38 43  2  0  0  0
 38 46  1  0  0  0
 38 47  1  0  0  0
 39 64  1  0  0  0
 39 67  2  0  0  0
 40 52  1  0  0  0
 40 53  2  0  0  0
 40 58  1  0  0  0
 41107  1  0  0  0
 41108  1  0  0  0
 41109  1  0  0  0
 41 48  1  0  0  0
 42 43  1  0  0  0
 42 66  1  0  0  0
 42110  1  0  0  0
 42111  1  0  0  0
 43 44  1  0  0  0
 44112  1  0  0  0
 45 46  2  0  0  0
 45113  1  0  0  0
 46114  1  0  0  0
 47115  1  0  0  0
 47116  1  0  0  0
 48 56  1  0  0  0
 48 65  1  0  0  0
 48117  1  0  0  0
 49 50  1  0  0  0
 49 53  1  0  0  0
 49 64  1  0  0  0
 49118  1  0  0  0
 50 51  1  0  0  0
 50119  1  0  0  0
 50120  1  0  0  0
 51 52  1  0  0  0
 51121  1  0  0  0
 51122  1  0  0  0
 52123  1  0  0  0
 52124  1  0  0  0
 53 54  1  0  0  0
 54 55  2  0  0  0
 54125  1  0  0  0
 55 57  1  0  0  0
 55126  1  0  0  0
 56 69  2  0  0  0
 57 58  2  0  0  0
 57127  1  0  0  0
 58128  1  0  0  0
 59 60  1  0  0  0
 59 61  1  0  0  0
 59 62  1  0  0  0
 60129  1  0  0  0
 60130  1  0  0  0
 60131  1  0  0  0
 61132  1  0  0  0
 61133  1  0  0  0
 61134  1  0  0  0
 62135  1  0  0  0
 62136  1  0  0  0
 62137  1  0  0  0
 63 65  1  0  0  0
 63138  1  0  0  0
 63139  1  0  0  0
 63140  1  0  0  0
 64141  1  0  0  0
 65142  1  0  0  0
 68 78  1  0  0  0
 71 73  1  0  0  0
 71 81  2  0  0  0
 71143  1  0  0  0
 72 73  2  0  0  0
 72 82  1  0  0  0
 72144  1  0  0  0
 73 79  1  0  0  0
 74145  1  0  0  0
 74146  1  0  0  0
 74147  1  0  0  0
 74 79  1  0  0  0
 75148  1  0  0  0
 75149  1  0  0  0
 75150  1  0  0  0
 75 80  1  0  0  0
 76 83  1  0  0  0
 76151  1  0  0  0
 76152  1  0  0  0
 76153  1  0  0  0
 77 80  1  0  0  0
 77 83  1  0  0  0
 77154  1  0  0  0
 77155  1  0  0  0
 78 79  1  0  0  0
 78156  1  0  0  0
 78157  1  0  0  0
 79158  1  0  0  0
 80 82  1  0  0  0
 80159  1  0  0  0
 81 82  1  0  0  0
M  ISO  4   1 100  68 101  78 101  83 100
M  END
> <chiral flag>
0

> <version>
0

> <s_m_source_file>
/data/baiqing/PycharmProjects/Reinvent-master-3.2/result/LINK_invent/BTK/process_docking_weight1_custom_sum_contain_oxygen_bond_distance_aromatic_linkinvent_7_9_3/rearranged_h_0081.sdf

> <i_m_source_file_index>
35

> <r_mmod_Potential_Energy-OPLS-2005>
404.309631347656

> <r_mmod_Stretch_Energy-OPLS-2005>
123.243339538574

> <r_mmod_Bend_Energy-OPLS-2005>
203.61442565918

> <r_mmod_Torsional_Energy-OPLS-2005>
355.234344482422

> <r_mmod_Improper_Torsional_Energy-OPLS-2005>
19.5579090118408

> <r_mmod_Van_der_Waal_Energy-OPLS-2005>
120.830009460449

> <r_mmod_Electrostatic_Energy-OPLS-2005>
-309.779724121094

> <r_mmod_Solvation_Energy-OPLS-2005>
-209.290374755859

> <b_mmod_Minimization_Converged-OPLS-2005>
0

> <r_mmod_RMS_Derivative-OPLS-2005>
3.60759282112122

$$$$
35
                    3D
 Structure written by MMmdl.
173181  0  0  1  0            999 V2000
  -30.7467  -14.5400   20.4730 C   0  0  0  0  0  0
  -30.4297  -12.3274   19.4472 C   0  0  0  0  0  0
  -29.5114  -12.4588   18.2173 C   0  0  0  0  0  0
  -28.0418  -12.3013   18.6489 C   0  0  0  0  0  0
  -27.6649  -13.2125   19.8457 C   0  0  2  0  0  0
  -28.7116  -13.0968   20.9801 C   0  0  0  0  0  0
  -25.2669  -13.8177   20.5658 C   0  0  0  0  0  0
  -24.1947  -13.0451   20.9148 C   0  0  0  0  0  0
  -24.6460  -11.6901   20.8684 C   0  0  0  0  0  0
  -23.9112  -10.4279   21.0423 C   0  0  0  0  0  0
  -24.3711   -9.4163   21.9119 C   0  0  0  0  0  0
  -23.6418   -8.2189   22.0730 C   0  0  0  0  0  0
  -22.4354   -8.0271   21.3571 C   0  0  0  0  0  0
  -21.9924   -9.0285   20.4731 C   0  0  0  0  0  0
  -22.7253  -10.2171   20.3130 C   0  0  0  0  0  0
  -21.6898   -6.0759   22.5305 C   0  0  0  0  0  0
  -21.4018   -6.5655   23.8236 C   0  0  0  0  0  0
  -21.3653   -5.6807   24.9193 C   0  0  0  0  0  0
  -21.6025   -4.3062   24.7255 C   0  0  0  0  0  0
  -21.8822   -3.8169   23.4390 C   0  0  0  0  0  0
  -21.9235   -4.6981   22.3448 C   0  0  0  0  0  0
  -22.7977  -13.5202   21.1992 C   0  0  0  0  0  0
  -22.1691   -4.2139   21.1033 F   0  0  0  0  0  0
  -21.5639   -3.4556   25.7765 F   0  0  0  0  0  0
  -30.0380  -13.3723   20.4062 N   0  0  0  0  0  0
  -26.3082  -12.9330   20.3213 N   0  0  0  0  0  0
  -25.9367  -11.6491   20.5716 N   0  0  0  0  0  0
  -22.0815  -12.8239   22.0726 N   0  0  0  0  0  0
  -25.4404  -15.1907   20.4129 N   0  0  0  0  0  0
  -31.9142  -14.6143   20.0954 O   0  0  0  0  0  0
  -21.6694   -6.8890   21.4270 O   0  0  0  0  0  0
  -22.3529  -14.5484   20.6848 O   0  0  0  0  0  0
  -24.6234  -31.8618   23.2046 C   0  0  0  0  0  0
  -25.9114  -32.4769   23.8343 C   0  0  1  0  0  0
  -27.2333  -27.3617   20.1037 C   0  0  0  0  0  0
  -25.5937  -33.8563   24.2281 N   0  0  0  0  0  0
  -23.4137  -30.4902   21.5500 C   0  0  2  0  0  0
  -24.8573  -28.9434   20.1129 C   0  0  0  0  0  0
  -22.7468  -29.4670   22.4986 C   0  0  0  0  0  0
  -18.0297  -28.1359   22.8498 C   0  0  0  0  0  0
  -24.1519  -36.7310   23.2647 C   0  0  0  0  0  0
  -25.9509  -30.8008   21.3723 C   0  0  0  0  0  0
  -26.0232  -29.4329   20.7125 C   0  0  0  0  0  0
  -27.2100  -28.6509   20.7073 C   0  0  0  0  0  0
  -26.0543  -26.9301   19.4540 C   0  0  0  0  0  0
  -24.8727  -27.6925   19.4797 C   0  0  0  0  0  0
  -23.6249  -29.8230   20.1640 C   0  0  0  0  0  0
  -25.4138  -36.3085   24.0340 C   0  0  1  0  0  0
  -20.5889  -28.3647   23.1319 C   0  0  2  0  0  0
  -20.6801  -26.9387   22.5402 C   0  0  0  0  0  0
  -19.5778  -26.6357   21.5229 C   0  0  0  0  0  0
  -18.1954  -26.7895   22.1618 C   0  0  0  0  0  0
  -19.1548  -28.8838   23.2881 C   0  0  0  0  0  0
  -18.9454  -30.1444   23.8894 C   0  0  0  0  0  0
  -17.6452  -30.6574   24.0568 C   0  0  0  0  0  0
  -25.9062  -34.9453   23.5120 C   0  0  0  0  0  0
  -16.5357  -29.9069   23.6314 C   0  0  0  0  0  0
  -16.7274  -28.6479   23.0348 C   0  0  0  0  0  0
  -26.4500  -31.6535   25.0688 C   0  0  0  0  0  0
  -25.3761  -31.3661   26.1450 C   0  0  0  0  0  0
  -27.0334  -30.2969   24.6092 C   0  0  0  0  0  0
  -27.6052  -32.4291   25.7458 C   0  0  0  0  0  0
  -27.5610  -37.1837   24.8476 C   0  0  0  0  0  0
  -21.4194  -29.3026   22.3721 N   0  0  0  0  0  0
  -26.4320  -37.3778   23.9413 N   0  0  0  0  0  0
  -24.6826  -31.0681   22.0980 N   0  0  0  0  0  0
  -23.4223  -28.8244   23.3073 O   0  0  0  0  0  0
  -28.3736  -26.5552   20.1682 O   0  0  0  0  0  0
  -26.5631  -34.8954   22.4690 O   0  0  0  0  0  0
  -23.5428  -32.1419   23.7420 O   0  0  0  0  0  0
  -28.5808  -21.8862   23.0007 C   0  0  0  0  0  0
  -29.9305  -20.6500   22.0408 C   0  0  0  0  0  0
  -24.1588  -18.4373   24.3441 C   0  0  0  0  0  0
  -26.6055  -18.1254   23.8271 C   0  0  0  0  0  0
  -27.1771  -22.3957   23.1026 C   0  0  0  0  0  0
  -30.4664  -19.6485   21.0299 C   0  0  0  0  0  0
  -26.2205  -21.2478   22.7018 C   0  0  0  0  0  0
  -29.8771  -18.1999   21.2197 C   0  0  0  0  0  0
  -25.6035  -20.4749   23.8849 C   0  0  0  0  0  0
  -29.1191  -24.1786   20.8257 C   0  0  0  0  0  0
  -28.9375  -22.6153   20.6043 C   0  0  0  0  0  0
  -30.6424  -17.0367   20.5162 C   0  0  0  0  0  0
  -28.2532  -25.1155   19.9138 C   0  0  0  0  0  0
  -25.3581  -18.9867   23.5682 C   0  0  0  0  0  0
  -29.1584  -21.1876   23.9813 N   0  0  0  0  0  0
  -30.0697  -20.3966   23.3489 N   0  0  0  0  0  0
  -29.2067  -21.7910   21.8058 N   0  0  0  0  0  0
  -30.0699  -15.6783   20.7513 N   0  0  0  0  0  0
  -31.4741  -12.4023   19.1448 H   0  0  0  0  0  0
  -30.3359  -11.3396   19.9024 H   0  0  0  0  0  0
  -29.7623  -11.6934   17.4818 H   0  0  0  0  0  0
  -29.6738  -13.4192   17.7221 H   0  0  0  0  0  0
  -27.9067  -11.2557   18.9281 H   0  0  0  0  0  0
  -27.3743  -12.4667   17.8029 H   0  0  0  0  0  0
  -27.6934  -14.2403   19.4788 H   0  0  0  0  0  0
  -28.6906  -12.0987   21.4196 H   0  0  0  0  0  0
  -28.4769  -13.7954   21.7843 H   0  0  0  0  0  0
  -25.2958   -9.5540   22.4561 H   0  0  0  0  0  0
  -24.0256   -7.4513   22.7362 H   0  0  0  0  0  0
  -21.0822   -8.8810   19.9096 H   0  0  0  0  0  0
  -22.3727  -10.9732   19.6255 H   0  0  0  0  0  0
  -21.1960   -7.6146   23.9738 H   0  0  0  0  0  0
  -21.1506   -6.0540   25.9090 H   0  0  0  0  0  0
  -22.0626   -2.7623   23.2914 H   0  0  0  0  0  0
  -22.4688  -12.0142   22.5343 H   0  0  0  0  0  0
  -21.1478  -13.1226   22.3206 H   0  0  0  0  0  0
  -24.6999  -15.8562   20.6053 H   0  0  0  0  0  0
  -26.2648  -15.6222   20.0194 H   0  0  0  0  0  0
  -26.7201  -32.5441   23.1118 H   0  0  0  0  0  0
  -25.0018  -33.9665   25.0384 H   0  0  0  0  0  0
  -22.7026  -31.3076   21.4104 H   0  0  0  0  0  0
  -23.3764  -35.9657   23.3291 H   0  0  0  0  0  0
  -24.3648  -36.8914   22.2067 H   0  0  0  0  0  0
  -23.7280  -37.6531   23.6652 H   0  0  0  0  0  0
  -26.0923  -31.5687   20.6129 H   0  0  0  0  0  0
  -26.8230  -30.8353   22.0103 H   0  0  0  0  0  0
  -28.1033  -29.0187   21.1898 H   0  0  0  0  0  0
  -26.0086  -25.9950   18.9123 H   0  0  0  0  0  0
  -23.9881  -27.3043   18.9972 H   0  0  0  0  0  0
  -23.7536  -30.5982   19.4087 H   0  0  0  0  0  0
  -22.7398  -29.2644   19.8550 H   0  0  0  0  0  0
  -25.1336  -36.1943   25.0827 H   0  0  0  0  0  0
  -20.9985  -28.3231   24.1454 H   0  0  0  0  0  0
  -20.5756  -26.2284   23.3593 H   0  0  0  0  0  0
  -21.6672  -26.7471   22.1199 H   0  0  0  0  0  0
  -19.6948  -25.6296   21.1225 H   0  0  0  0  0  0
  -19.6694  -27.3198   20.6797 H   0  0  0  0  0  0
  -17.4229  -26.6652   21.4003 H   0  0  0  0  0  0
  -18.0345  -26.0027   22.9006 H   0  0  0  0  0  0
  -19.7942  -30.7249   24.2258 H   0  0  0  0  0  0
  -17.5014  -31.6251   24.5162 H   0  0  0  0  0  0
  -15.5364  -30.2956   23.7648 H   0  0  0  0  0  0
  -15.8676  -28.0790   22.7067 H   0  0  0  0  0  0
  -24.5929  -30.6999   25.7843 H   0  0  0  0  0  0
  -24.8958  -32.2798   26.4947 H   0  0  0  0  0  0
  -25.8143  -30.8823   27.0172 H   0  0  0  0  0  0
  -26.2874  -29.6737   24.1148 H   0  0  0  0  0  0
  -27.4100  -29.7234   25.4557 H   0  0  0  0  0  0
  -27.8730  -30.4303   23.9275 H   0  0  0  0  0  0
  -27.2619  -33.3574   26.2069 H   0  0  0  0  0  0
  -28.3842  -32.6879   25.0261 H   0  0  0  0  0  0
  -28.0736  -31.8365   26.5335 H   0  0  0  0  0  0
  -28.2644  -38.0120   24.7528 H   0  0  0  0  0  0
  -28.1079  -36.2666   24.6284 H   0  0  0  0  0  0
  -27.2338  -37.1484   25.8875 H   0  0  0  0  0  0
  -20.9401  -29.8719   21.6887 H   0  0  0  0  0  0
  -26.0206  -38.2878   24.1293 H   0  0  0  0  0  0
  -23.9526  -17.4056   24.0626 H   0  0  0  0  0  0
  -23.2638  -19.0248   24.1307 H   0  0  0  0  0  0
  -24.3336  -18.4662   25.4215 H   0  0  0  0  0  0
  -26.4534  -17.1240   23.4246 H   0  0  0  0  0  0
  -26.8113  -18.0319   24.8965 H   0  0  0  0  0  0
  -27.4990  -18.5429   23.3606 H   0  0  0  0  0  0
  -27.0394  -23.2398   22.4290 H   0  0  0  0  0  0
  -26.9755  -22.7505   24.1157 H   0  0  0  0  0  0
  -31.5474  -19.6057   21.1680 H   0  0  0  0  0  0
  -30.2913  -19.9978   20.0132 H   0  0  0  0  0  0
  -26.7532  -20.5665   22.0348 H   0  0  0  0  0  0
  -25.4059  -21.6381   22.0905 H   0  0  0  0  0  0
  -28.8312  -18.1984   20.9130 H   0  0  0  0  0  0
  -29.8688  -17.9711   22.2867 H   0  0  0  0  0  0
  -24.6613  -20.9605   24.1348 H   0  0  0  0  0  0
  -26.2102  -20.5616   24.7908 H   0  0  0  0  0  0
  -30.1734  -24.4382   20.7184 H   0  0  0  0  0  0
  -28.8736  -24.4400   21.8556 H   0  0  0  0  0  0
  -29.5841  -22.2848   19.7939 H   0  0  0  0  0  0
  -27.9197  -22.3956   20.2842 H   0  0  0  0  0  0
  -30.6810  -17.2147   19.4390 H   0  0  0  0  0  0
  -31.6873  -17.0558   20.8447 H   0  0  0  0  0  0
  -27.2305  -24.7581   20.0588 H   0  0  0  0  0  0
  -28.5114  -24.9318   18.8707 H   0  0  0  0  0  0
  -25.1094  -18.8932   22.5102 H   0  0  0  0  0  0
  -29.0931  -15.5926   20.9877 H   0  0  0  0  0  0
  1 25  1  0  0  0
  1 30  2  0  0  0
  1 88  1  0  0  0
  2  3  1  0  0  0
  2 25  1  0  0  0
  2 89  1  0  0  0
  2 90  1  0  0  0
  3  4  1  0  0  0
  3 91  1  0  0  0
  3 92  1  0  0  0
  4  5  1  0  0  0
  4 93  1  0  0  0
  4 94  1  0  0  0
  5  6  1  0  0  0
  5 26  1  0  0  0
  5 95  1  0  0  0
  6 25  1  0  0  0
  6 96  1  0  0  0
  6 97  1  0  0  0
  7  8  2  0  0  0
  7 26  1  0  0  0
  7 29  1  0  0  0
  8  9  1  0  0  0
  8 22  1  0  0  0
  9 10  1  0  0  0
  9 27  2  0  0  0
 10 11  2  0  0  0
 10 15  1  0  0  0
 11 12  1  0  0  0
 11 98  1  0  0  0
 12 13  2  0  0  0
 12 99  1  0  0  0
 13 14  1  0  0  0
 13 31  1  0  0  0
 14 15  2  0  0  0
 14100  1  0  0  0
 15101  1  0  0  0
 16 17  2  0  0  0
 16 21  1  0  0  0
 16 31  1  0  0  0
 17 18  1  0  0  0
 17102  1  0  0  0
 18 19  2  0  0  0
 18103  1  0  0  0
 19 20  1  0  0  0
 19 24  1  0  0  0
 20 21  2  0  0  0
 20104  1  0  0  0
 21 23  1  0  0  0
 22 28  1  0  0  0
 22 32  2  0  0  0
 26 27  1  0  0  0
 28105  1  0  0  0
 28106  1  0  0  0
 29107  1  0  0  0
 29108  1  0  0  0
 33 34  1  0  0  0
 33 66  1  0  0  0
 33 70  2  0  0  0
 34 36  1  0  0  0
 34 59  1  0  0  0
 34109  1  0  0  0
 35 44  2  0  0  0
 35 45  1  0  0  0
 35 68  1  0  0  0
 36 56  1  0  0  0
 36110  1  0  0  0
 37 39  1  0  0  0
 37 47  1  0  0  0
 37 66  1  0  0  0
 37111  1  0  0  0
 38 43  2  0  0  0
 38 46  1  0  0  0
 38 47  1  0  0  0
 39 64  1  0  0  0
 39 67  2  0  0  0
 40 52  1  0  0  0
 40 53  2  0  0  0
 40 58  1  0  0  0
 41112  1  0  0  0
 41113  1  0  0  0
 41114  1  0  0  0
 41 48  1  0  0  0
 42 43  1  0  0  0
 42 66  1  0  0  0
 42115  1  0  0  0
 42116  1  0  0  0
 43 44  1  0  0  0
 44117  1  0  0  0
 45 46  2  0  0  0
 45118  1  0  0  0
 46119  1  0  0  0
 47120  1  0  0  0
 47121  1  0  0  0
 48 56  1  0  0  0
 48 65  1  0  0  0
 48122  1  0  0  0
 49 50  1  0  0  0
 49 53  1  0  0  0
 49 64  1  0  0  0
 49123  1  0  0  0
 50 51  1  0  0  0
 50124  1  0  0  0
 50125  1  0  0  0
 51 52  1  0  0  0
 51126  1  0  0  0
 51127  1  0  0  0
 52128  1  0  0  0
 52129  1  0  0  0
 53 54  1  0  0  0
 54 55  2  0  0  0
 54130  1  0  0  0
 55 57  1  0  0  0
 55131  1  0  0  0
 56 69  2  0  0  0
 57 58  2  0  0  0
 57132  1  0  0  0
 58133  1  0  0  0
 59 60  1  0  0  0
 59 61  1  0  0  0
 59 62  1  0  0  0
 60134  1  0  0  0
 60135  1  0  0  0
 60136  1  0  0  0
 61137  1  0  0  0
 61138  1  0  0  0
 61139  1  0  0  0
 62140  1  0  0  0
 62141  1  0  0  0
 62142  1  0  0  0
 63 65  1  0  0  0
 63143  1  0  0  0
 63144  1  0  0  0
 63145  1  0  0  0
 64146  1  0  0  0
 65147  1  0  0  0
 68 83  1  0  0  0
 71 75  1  0  0  0
 71 85  2  0  0  0
 71 87  1  0  0  0
 72 76  1  0  0  0
 72 86  2  0  0  0
 72 87  1  0  0  0
 73148  1  0  0  0
 73149  1  0  0  0
 73150  1  0  0  0
 73 84  1  0  0  0
 74 84  1  0  0  0
 74151  1  0  0  0
 74152  1  0  0  0
 74153  1  0  0  0
 75 77  1  0  0  0
 75154  1  0  0  0
 75155  1  0  0  0
 76 78  1  0  0  0
 76156  1  0  0  0
 76157  1  0  0  0
 77 79  1  0  0  0
 77158  1  0  0  0
 77159  1  0  0  0
 78 82  1  0  0  0
 78160  1  0  0  0
 78161  1  0  0  0
 79 84  1  0  0  0
 79162  1  0  0  0
 79163  1  0  0  0
 80 81  1  0  0  0
 80 83  1  0  0  0
 80164  1  0  0  0
 80165  1  0  0  0
 81 87  1  0  0  0
 81166  1  0  0  0
 81167  1  0  0  0
 82 88  1  0  0  0
 82168  1  0  0  0
 82169  1  0  0  0
 83170  1  0  0  0
 83171  1  0  0  0
 84172  1  0  0  0
 85 86  1  0  0  0
 88173  1  0  0  0
M  ISO  4   1 100  68 101  83 101  88 100
M  END
> <chiral flag>
0

> <version>
0

> <s_m_source_file>
/data/baiqing/PycharmProjects/Reinvent-master-3.2/result/LINK_invent/BTK/process_docking_weight1_custom_sum_contain_oxygen_bond_distance_aromatic_linkinvent_7_9_3/rearranged_h_0081.sdf

> <i_m_source_file_index>
36

> <r_mmod_Potential_Energy-OPLS-2005>
25.4137859344482

> <r_mmod_Stretch_Energy-OPLS-2005>
57.797924041748

> <r_mmod_Bend_Energy-OPLS-2005>
138.270797729492

> <r_mmod_Torsional_Energy-OPLS-2005>
279.517059326172

> <r_mmod_Improper_Torsional_Energy-OPLS-2005>
9.33452987670898

> <r_mmod_Van_der_Waal_Energy-OPLS-2005>
119.780647277832

> <r_mmod_Electrostatic_Energy-OPLS-2005>
-377.853179931641

> <r_mmod_Solvation_Energy-OPLS-2005>
-236.746566772461

> <b_mmod_Minimization_Converged-OPLS-2005>
0

> <r_mmod_RMS_Derivative-OPLS-2005>
8.03308010101318

$$$$
36
                    3D
 Structure written by MMmdl.
182190  0  0  1  0            999 V2000
  -30.6603  -14.4521   20.6412 C   0  0  0  0  0  0
  -30.4371  -12.3296   19.4026 C   0  0  0  0  0  0
  -29.4988  -12.5468   18.1938 C   0  0  0  0  0  0
  -28.0142  -12.3939   18.5942 C   0  0  0  0  0  0
  -27.6626  -13.1911   19.8787 C   0  0  2  0  0  0
  -28.6952  -12.8739   20.9767 C   0  0  0  0  0  0
  -25.2574  -13.8092   20.5564 C   0  0  0  0  0  0
  -24.1795  -13.0406   20.9109 C   0  0  0  0  0  0
  -24.6343  -11.6880   20.8668 C   0  0  0  0  0  0
  -23.9039  -10.4269   21.0369 C   0  0  0  0  0  0
  -24.3616   -9.4199   21.9155 C   0  0  0  0  0  0
  -23.6291   -8.2232   22.0733 C   0  0  0  0  0  0
  -22.4273   -8.0261   21.3526 C   0  0  0  0  0  0
  -21.9905   -9.0222   20.4625 C   0  0  0  0  0  0
  -22.7213  -10.2104   20.3026 C   0  0  0  0  0  0
  -21.6854   -6.0745   22.5278 C   0  0  0  0  0  0
  -21.4004   -6.5650   23.8214 C   0  0  0  0  0  0
  -21.3647   -5.6790   24.9168 C   0  0  0  0  0  0
  -21.6050   -4.3059   24.7210 C   0  0  0  0  0  0
  -21.8817   -3.8160   23.4330 C   0  0  0  0  0  0
  -21.9181   -4.6978   22.3393 C   0  0  0  0  0  0
  -22.7830  -13.5233   21.1805 C   0  0  0  0  0  0
  -22.1638   -4.2178   21.0969 F   0  0  0  0  0  0
  -21.5642   -3.4535   25.7717 F   0  0  0  0  0  0
  -30.0174  -13.2611   20.4628 N   0  0  0  0  0  0
  -26.3006  -12.9242   20.3329 N   0  0  0  0  0  0
  -25.9255  -11.6428   20.5670 N   0  0  0  0  0  0
  -22.0460  -12.8210   22.0377 N   0  0  0  0  0  0
  -25.4371  -15.1754   20.3902 N   0  0  0  0  0  0
  -31.7675  -14.6794   20.1493 O   0  0  0  0  0  0
  -21.6619   -6.8874   21.4240 O   0  0  0  0  0  0
  -22.3543  -14.5574   20.6702 O   0  0  0  0  0  0
  -24.6078  -31.8732   23.2134 C   0  0  0  0  0  0
  -25.8982  -32.4867   23.8420 C   0  0  1  0  0  0
  -27.2513  -27.4866   20.0781 C   0  0  0  0  0  0
  -25.5851  -33.8662   24.2364 N   0  0  0  0  0  0
  -23.3952  -30.4925   21.5577 C   0  0  2  0  0  0
  -24.8405  -28.9589   20.1278 C   0  0  0  0  0  0
  -22.7393  -29.4671   22.5086 C   0  0  0  0  0  0
  -18.0219  -28.1351   22.8372 C   0  0  0  0  0  0
  -24.1483  -36.7331   23.2642 C   0  0  0  0  0  0
  -25.9173  -30.8508   21.3630 C   0  0  0  0  0  0
  -25.9958  -29.4808   20.7234 C   0  0  0  0  0  0
  -27.2003  -28.7479   20.7038 C   0  0  0  0  0  0
  -26.0794  -26.9761   19.4763 C   0  0  0  0  0  0
  -24.8717  -27.6972   19.5105 C   0  0  0  0  0  0
  -23.6008  -29.8206   20.1736 C   0  0  0  0  0  0
  -25.4105  -36.3157   24.0360 C   0  0  1  0  0  0
  -20.5824  -28.3632   23.1296 C   0  0  2  0  0  0
  -20.6712  -26.9351   22.5386 C   0  0  0  0  0  0
  -19.5698  -26.6183   21.5148 C   0  0  0  0  0  0
  -18.1786  -26.7954   22.1326 C   0  0  0  0  0  0
  -19.1459  -28.8780   23.2873 C   0  0  0  0  0  0
  -18.9350  -30.1353   23.8958 C   0  0  0  0  0  0
  -17.6370  -30.6488   24.0618 C   0  0  0  0  0  0
  -25.9022  -34.9505   23.5173 C   0  0  0  0  0  0
  -16.5275  -29.9043   23.6219 C   0  0  0  0  0  0
  -16.7205  -28.6475   23.0215 C   0  0  0  0  0  0
  -26.4428  -31.6633   25.0725 C   0  0  0  0  0  0
  -25.3679  -31.3690   26.1452 C   0  0  0  0  0  0
  -27.0255  -30.3097   24.6038 C   0  0  0  0  0  0
  -27.6047  -32.4314   25.7477 C   0  0  0  0  0  0
  -27.5587  -37.1836   24.8476 C   0  0  0  0  0  0
  -21.4124  -29.3015   22.3751 N   0  0  0  0  0  0
  -26.4302  -37.3832   23.9418 N   0  0  0  0  0  0
  -24.6588  -31.0850   22.1039 N   0  0  0  0  0  0
  -23.4182  -28.8224   23.3112 O   0  0  0  0  0  0
  -28.4717  -26.8743   19.9217 O   0  0  0  0  0  0
  -26.5601  -34.8961   22.4745 O   0  0  0  0  0  0
  -23.5283  -32.1470   23.7540 O   0  0  0  0  0  0
  -28.0286  -20.3341   21.6940 C   0  0  0  0  0  0
  -28.9211  -19.3508   22.1365 C   0  0  0  0  0  0
  -26.6670  -20.0277   21.5245 C   0  0  0  0  0  0
  -28.4234  -18.0733   22.4578 C   0  0  0  0  0  0
  -26.2387  -18.7376   21.9034 C   0  0  0  0  0  0
  -24.0007  -18.9539   23.0920 C   0  0  0  0  0  0
  -30.8019  -17.3880   23.1237 C   0  0  0  0  0  0
  -28.8333  -16.7915   24.5409 C   0  0  0  0  0  0
  -28.5441  -24.6290   18.3065 C   0  0  0  0  0  0
  -29.5296  -23.3365   20.1625 C   0  0  0  0  0  0
  -25.7299  -21.1115   20.9866 C   0  0  0  0  0  0
  -24.7707  -18.3349   21.9148 C   0  0  0  0  0  0
  -27.0538  -23.8678   20.3422 C   0  0  0  0  0  0
  -29.1864  -15.6090   22.3400 C   0  0  0  0  0  0
  -26.1300  -23.0344   19.4133 C   0  0  0  0  0  0
  -28.7641  -25.6775   20.6320 C   0  0  0  0  0  0
  -29.3094  -16.9734   23.0829 C   0  0  0  0  0  0
  -28.4395  -24.3801   19.8337 C   0  0  0  0  0  0
  -27.0982  -17.7989   22.3617 N   0  0  0  0  0  0
  -29.9277  -15.4947   21.0737 N   0  0  0  0  0  0
  -26.1842  -21.5762   19.6540 N   0  3  0  0  0  0
  -31.4743  -12.4788   19.0960 H   0  0  0  0  0  0
  -30.3856  -11.3007   19.7617 H   0  0  0  0  0  0
  -29.7500  -11.8569   17.3868 H   0  0  0  0  0  0
  -29.6621  -13.5508   17.7925 H   0  0  0  0  0  0
  -27.8118  -11.3346   18.7558 H   0  0  0  0  0  0
  -27.3768  -12.7061   17.7663 H   0  0  0  0  0  0
  -27.7294  -14.2497   19.6305 H   0  0  0  0  0  0
  -28.6874  -11.8019   21.1783 H   0  0  0  0  0  0
  -28.4257  -13.2969   21.9344 H   0  0  0  0  0  0
  -25.2757   -9.5680   22.4740 H   0  0  0  0  0  0
  -23.9990   -7.4637   22.7469 H   0  0  0  0  0  0
  -21.0837   -8.8743   19.8943 H   0  0  0  0  0  0
  -22.3662  -10.9650   19.6152 H   0  0  0  0  0  0
  -21.1974   -7.6155   23.9746 H   0  0  0  0  0  0
  -21.1479   -6.0500   25.9085 H   0  0  0  0  0  0
  -22.0610   -2.7632   23.2803 H   0  0  0  0  0  0
  -22.4074  -11.9882   22.4781 H   0  0  0  0  0  0
  -21.1088  -13.1226   22.2665 H   0  0  0  0  0  0
  -24.6870  -15.8372   20.5411 H   0  0  0  0  0  0
  -26.3277  -15.6181   20.2044 H   0  0  0  0  0  0
  -26.7071  -32.5578   23.1209 H   0  0  0  0  0  0
  -25.0027  -33.9836   25.0521 H   0  0  0  0  0  0
  -22.6781  -31.3049   21.4190 H   0  0  0  0  0  0
  -23.3757  -35.9650   23.3338 H   0  0  0  0  0  0
  -24.3578  -36.8890   22.2044 H   0  0  0  0  0  0
  -23.7207  -37.6546   23.6614 H   0  0  0  0  0  0
  -26.0144  -31.6110   20.5888 H   0  0  0  0  0  0
  -26.8102  -30.9137   21.9719 H   0  0  0  0  0  0
  -28.0980  -29.1664   21.1363 H   0  0  0  0  0  0
  -26.0914  -26.0446   18.9337 H   0  0  0  0  0  0
  -23.9882  -27.2921   19.0393 H   0  0  0  0  0  0
  -23.7087  -30.5940   19.4140 H   0  0  0  0  0  0
  -22.7289  -29.2377   19.8757 H   0  0  0  0  0  0
  -25.1275  -36.2070   25.0853 H   0  0  0  0  0  0
  -20.9882  -28.3202   24.1459 H   0  0  0  0  0  0
  -20.5727  -26.2224   23.3567 H   0  0  0  0  0  0
  -21.6592  -26.7412   22.1180 H   0  0  0  0  0  0
  -19.6761  -27.2792   20.6533 H   0  0  0  0  0  0
  -19.6819  -25.5965   21.1429 H   0  0  0  0  0  0
  -17.4206  -26.7127   21.3513 H   0  0  0  0  0  0
  -17.9684  -25.9968   22.8475 H   0  0  0  0  0  0
  -19.7809  -30.7165   24.2374 H   0  0  0  0  0  0
  -17.4876  -31.6145   24.5239 H   0  0  0  0  0  0
  -15.5307  -30.3035   23.7367 H   0  0  0  0  0  0
  -15.8613  -28.0853   22.6796 H   0  0  0  0  0  0
  -24.5863  -30.7058   25.7728 H   0  0  0  0  0  0
  -24.8841  -32.2815   26.4944 H   0  0  0  0  0  0
  -25.7992  -30.8796   27.0191 H   0  0  0  0  0  0
  -26.2777  -29.6899   24.1078 H   0  0  0  0  0  0
  -27.4040  -29.7307   25.4471 H   0  0  0  0  0  0
  -27.8613  -30.4463   23.9172 H   0  0  0  0  0  0
  -27.2729  -33.3604   26.2136 H   0  0  0  0  0  0
  -28.3825  -32.6883   25.0267 H   0  0  0  0  0  0
  -28.0765  -31.8367   26.5310 H   0  0  0  0  0  0
  -28.2655  -38.0094   24.7516 H   0  0  0  0  0  0
  -28.1052  -36.2631   24.6344 H   0  0  0  0  0  0
  -27.2303  -37.1535   25.8883 H   0  0  0  0  0  0
  -20.9300  -29.8637   21.6901 H   0  0  0  0  0  0
  -26.0225  -38.2932   24.1409 H   0  0  0  0  0  0
  -28.3925  -21.3249   21.4966 H   0  0  0  0  0  0
  -29.9625  -19.6205   22.2430 H   0  0  0  0  0  0
  -24.3949  -18.5982   24.0440 H   0  0  0  0  0  0
  -22.9452  -18.6795   23.0446 H   0  0  0  0  0  0
  -24.0638  -20.0413   23.0978 H   0  0  0  0  0  0
  -30.9716  -18.2532   23.7678 H   0  0  0  0  0  0
  -31.1829  -17.6370   22.1340 H   0  0  0  0  0  0
  -31.4245  -16.5828   23.5122 H   0  0  0  0  0  0
  -27.7832  -16.4969   24.5859 H   0  0  0  0  0  0
  -28.9356  -17.7212   25.1004 H   0  0  0  0  0  0
  -29.4031  -16.0324   25.0717 H   0  0  0  0  0  0
  -27.8498  -25.3749   17.9327 H   0  0  0  0  0  0
  -28.3892  -23.7208   17.7252 H   0  0  0  0  0  0
  -29.5431  -24.9889   18.0494 H   0  0  0  0  0  0
  -29.3015  -22.3664   19.7232 H   0  0  0  0  0  0
  -29.6520  -23.2126   21.2401 H   0  0  0  0  0  0
  -30.5042  -23.6383   19.7750 H   0  0  0  0  0  0
  -25.6907  -21.9153   21.7201 H   0  0  0  0  0  0
  -24.7009  -20.7729   20.8866 H   0  0  0  0  0  0
  -24.6901  -17.2503   21.9800 H   0  0  0  0  0  0
  -24.3013  -18.5960   20.9675 H   0  0  0  0  0  0
  -27.2133  -23.3685   21.2951 H   0  0  0  0  0  0
  -26.4530  -24.7190   20.6504 H   0  0  0  0  0  0
  -29.5501  -14.8287   23.0109 H   0  0  0  0  0  0
  -28.1322  -15.4004   22.1662 H   0  0  0  0  0  0
  -26.3365  -23.2173   18.3610 H   0  0  0  0  0  0
  -25.0962  -23.3562   19.5556 H   0  0  0  0  0  0
  -29.8369  -25.7291   20.8328 H   0  0  0  0  0  0
  -28.3023  -25.6847   21.6213 H   0  0  0  0  0  0
  -30.3100  -16.3777   20.7680 H   0  0  0  0  0  0
  -25.6070  -21.1264   18.9576 H   0  0  0  0  0  0
  -27.1230  -21.2507   19.4943 H   0  0  0  0  0  0
  1 25  1  0  0  0
  1 30  2  0  0  0
  1 90  1  0  0  0
  2  3  1  0  0  0
  2 25  1  0  0  0
  2 92  1  0  0  0
  2 93  1  0  0  0
  3  4  1  0  0  0
  3 94  1  0  0  0
  3 95  1  0  0  0
  4  5  1  0  0  0
  4 96  1  0  0  0
  4 97  1  0  0  0
  5  6  1  0  0  0
  5 26  1  0  0  0
  5 98  1  0  0  0
  6 25  1  0  0  0
  6 99  1  0  0  0
  6100  1  0  0  0
  7  8  2  0  0  0
  7 26  1  0  0  0
  7 29  1  0  0  0
  8  9  1  0  0  0
  8 22  1  0  0  0
  9 10  1  0  0  0
  9 27  2  0  0  0
 10 11  2  0  0  0
 10 15  1  0  0  0
 11 12  1  0  0  0
 11101  1  0  0  0
 12 13  2  0  0  0
 12102  1  0  0  0
 13 14  1  0  0  0
 13 31  1  0  0  0
 14 15  2  0  0  0
 14103  1  0  0  0
 15104  1  0  0  0
 16 17  2  0  0  0
 16 21  1  0  0  0
 16 31  1  0  0  0
 17 18  1  0  0  0
 17105  1  0  0  0
 18 19  2  0  0  0
 18106  1  0  0  0
 19 20  1  0  0  0
 19 24  1  0  0  0
 20 21  2  0  0  0
 20107  1  0  0  0
 21 23  1  0  0  0
 22 28  1  0  0  0
 22 32  2  0  0  0
 26 27  1  0  0  0
 28108  1  0  0  0
 28109  1  0  0  0
 29110  1  0  0  0
 29111  1  0  0  0
 33 34  1  0  0  0
 33 66  1  0  0  0
 33 70  2  0  0  0
 34 36  1  0  0  0
 34 59  1  0  0  0
 34112  1  0  0  0
 35 44  2  0  0  0
 35 45  1  0  0  0
 35 68  1  0  0  0
 36 56  1  0  0  0
 36113  1  0  0  0
 37 39  1  0  0  0
 37 47  1  0  0  0
 37 66  1  0  0  0
 37114  1  0  0  0
 38 43  2  0  0  0
 38 46  1  0  0  0
 38 47  1  0  0  0
 39 64  1  0  0  0
 39 67  2  0  0  0
 40 52  1  0  0  0
 40 53  2  0  0  0
 40 58  1  0  0  0
 41115  1  0  0  0
 41116  1  0  0  0
 41117  1  0  0  0
 41 48  1  0  0  0
 42 43  1  0  0  0
 42 66  1  0  0  0
 42118  1  0  0  0
 42119  1  0  0  0
 43 44  1  0  0  0
 44120  1  0  0  0
 45 46  2  0  0  0
 45121  1  0  0  0
 46122  1  0  0  0
 47123  1  0  0  0
 47124  1  0  0  0
 48 56  1  0  0  0
 48 65  1  0  0  0
 48125  1  0  0  0
 49 50  1  0  0  0
 49 53  1  0  0  0
 49 64  1  0  0  0
 49126  1  0  0  0
 50 51  1  0  0  0
 50127  1  0  0  0
 50128  1  0  0  0
 51 52  1  0  0  0
 51129  1  0  0  0
 51130  1  0  0  0
 52131  1  0  0  0
 52132  1  0  0  0
 53 54  1  0  0  0
 54 55  2  0  0  0
 54133  1  0  0  0
 55 57  1  0  0  0
 55134  1  0  0  0
 56 69  2  0  0  0
 57 58  2  0  0  0
 57135  1  0  0  0
 58136  1  0  0  0
 59 60  1  0  0  0
 59 61  1  0  0  0
 59 62  1  0  0  0
 60137  1  0  0  0
 60138  1  0  0  0
 60139  1  0  0  0
 61140  1  0  0  0
 61141  1  0  0  0
 61142  1  0  0  0
 62143  1  0  0  0
 62144  1  0  0  0
 62145  1  0  0  0
 63 65  1  0  0  0
 63146  1  0  0  0
 63147  1  0  0  0
 63148  1  0  0  0
 64149  1  0  0  0
 65150  1  0  0  0
 68 86  1  0  0  0
 71 72  2  0  0  0
 71 73  1  0  0  0
 71151  1  0  0  0
 72 74  1  0  0  0
 72152  1  0  0  0
 73 75  2  0  0  0
 73 81  1  0  0  0
 74 87  1  0  0  0
 74 89  2  0  0  0
 75 82  1  0  0  0
 75 89  1  0  0  0
 76 82  1  0  0  0
 76153  1  0  0  0
 76154  1  0  0  0
 76155  1  0  0  0
 77156  1  0  0  0
 77157  1  0  0  0
 77158  1  0  0  0
 77 87  1  0  0  0
 78 87  1  0  0  0
 78159  1  0  0  0
 78160  1  0  0  0
 78161  1  0  0  0
 79162  1  0  0  0
 79163  1  0  0  0
 79164  1  0  0  0
 79 88  1  0  0  0
 80 88  1  0  0  0
 80165  1  0  0  0
 80166  1  0  0  0
 80167  1  0  0  0
 81 91  1  0  0  0
 81168  1  0  0  0
 81169  1  0  0  0
 82170  1  0  0  0
 82171  1  0  0  0
 83 85  1  0  0  0
 83 88  1  0  0  0
 83172  1  0  0  0
 83173  1  0  0  0
 84 87  1  0  0  0
 84 90  1  0  0  0
 84174  1  0  0  0
 84175  1  0  0  0
 85 91  1  0  0  0
 85176  1  0  0  0
 85177  1  0  0  0
 86 88  1  0  0  0
 86178  1  0  0  0
 86179  1  0  0  0
 90180  1  0  0  0
 91181  1  0  0  0
 91182  1  0  0  0
M  CHG  1  91   1
M  ISO  4   1 100  68 101  86 101  90 100
M  END
> <chiral flag>
0

> <version>
0

> <s_m_source_file>
/data/baiqing/PycharmProjects/Reinvent-master-3.2/result/LINK_invent/BTK/process_docking_weight1_custom_sum_contain_oxygen_bond_distance_aromatic_linkinvent_7_9_3/rearranged_h_0081.sdf

> <i_m_source_file_index>
37

> <r_mmod_Potential_Energy-OPLS-2005>
-228.334167480469

> <r_mmod_Stretch_Energy-OPLS-2005>
39.7543258666992

> <r_mmod_Bend_Energy-OPLS-2005>
145.108108520508

> <r_mmod_Torsional_Energy-OPLS-2005>
309.606719970703

> <r_mmod_Improper_Torsional_Energy-OPLS-2005>
12.677864074707

> <r_mmod_Van_der_Waal_Energy-OPLS-2005>
168.145782470703

> <r_mmod_Electrostatic_Energy-OPLS-2005>
-471.169982910156

> <r_mmod_Solvation_Energy-OPLS-2005>
-446.562408447266

> <b_mmod_Minimization_Converged-OPLS-2005>
0

> <r_mmod_RMS_Derivative-OPLS-2005>
5.87073564529419

$$$$
37
                    3D
 Structure written by MMmdl.
159167  0  0  1  0            999 V2000
  -30.6295  -14.7241   20.4667 C   0  0  0  0  0  0
  -30.4291  -12.4453   19.4662 C   0  0  0  0  0  0
  -29.5073  -12.5012   18.2285 C   0  0  0  0  0  0
  -28.0332  -12.3281   18.6426 C   0  0  0  0  0  0
  -27.6401  -13.2305   19.8435 C   0  0  2  0  0  0
  -28.6848  -13.1672   20.9782 C   0  0  0  0  0  0
  -25.2505  -13.8199   20.5684 C   0  0  0  0  0  0
  -24.1799  -13.0443   20.9199 C   0  0  0  0  0  0
  -24.6392  -11.6920   20.8740 C   0  0  0  0  0  0
  -23.9074  -10.4293   21.0398 C   0  0  0  0  0  0
  -24.3630   -9.4207   21.9172 C   0  0  0  0  0  0
  -23.6301   -8.2243   22.0748 C   0  0  0  0  0  0
  -22.4283   -8.0278   21.3541 C   0  0  0  0  0  0
  -21.9918   -9.0247   20.4642 C   0  0  0  0  0  0
  -22.7246  -10.2129   20.3045 C   0  0  0  0  0  0
  -21.6854   -6.0732   22.5273 C   0  0  0  0  0  0
  -21.4014   -6.5635   23.8209 C   0  0  0  0  0  0
  -21.3661   -5.6791   24.9170 C   0  0  0  0  0  0
  -21.6046   -4.3052   24.7219 C   0  0  0  0  0  0
  -21.8820   -3.8142   23.4342 C   0  0  0  0  0  0
  -21.9194   -4.6956   22.3400 C   0  0  0  0  0  0
  -22.7820  -13.5221   21.1856 C   0  0  0  0  0  0
  -22.1665   -4.2145   21.0977 F   0  0  0  0  0  0
  -21.5630   -3.4538   25.7730 F   0  0  0  0  0  0
  -29.9871  -13.5101   20.3944 N   0  0  0  0  0  0
  -26.2925  -12.9404   20.3241 N   0  0  0  0  0  0
  -25.9317  -11.6544   20.5724 N   0  0  0  0  0  0
  -22.0479  -12.8211   22.0424 N   0  0  0  0  0  0
  -25.4184  -15.1923   20.4105 N   0  0  0  0  0  0
  -31.8218  -14.8087   20.1639 O   0  0  0  0  0  0
  -21.6644   -6.8872   21.4234 O   0  0  0  0  0  0
  -22.3500  -14.5516   20.6686 O   0  0  0  0  0  0
  -24.6311  -31.8562   23.1994 C   0  0  0  0  0  0
  -25.9140  -32.4756   23.8336 C   0  0  1  0  0  0
  -27.2170  -27.2684   20.1266 C   0  0  0  0  0  0
  -25.5944  -33.8559   24.2262 N   0  0  0  0  0  0
  -23.4264  -30.4797   21.5442 C   0  0  2  0  0  0
  -24.8725  -28.9303   20.1102 C   0  0  0  0  0  0
  -22.7504  -29.4605   22.4930 C   0  0  0  0  0  0
  -18.0293  -28.1389   22.8489 C   0  0  0  0  0  0
  -24.1497  -36.7285   23.2637 C   0  0  0  0  0  0
  -25.9725  -30.7716   21.3780 C   0  0  0  0  0  0
  -26.0450  -29.3957   20.7189 C   0  0  0  0  0  0
  -27.2209  -28.5781   20.7151 C   0  0  0  0  0  0
  -26.0190  -26.8730   19.4874 C   0  0  0  0  0  0
  -24.8644  -27.6766   19.4833 C   0  0  0  0  0  0
  -23.6434  -29.8162   20.1593 C   0  0  0  0  0  0
  -25.4121  -36.3068   24.0325 C   0  0  1  0  0  0
  -20.5896  -28.3697   23.1282 C   0  0  2  0  0  0
  -20.6787  -26.9421   22.5410 C   0  0  0  0  0  0
  -19.5758  -26.6387   21.5221 C   0  0  0  0  0  0
  -18.1937  -26.7931   22.1632 C   0  0  0  0  0  0
  -19.1545  -28.8862   23.2877 C   0  0  0  0  0  0
  -18.9462  -30.1464   23.8890 C   0  0  0  0  0  0
  -17.6458  -30.6588   24.0562 C   0  0  0  0  0  0
  -25.9061  -34.9439   23.5093 C   0  0  0  0  0  0
  -16.5351  -29.9082   23.6335 C   0  0  0  0  0  0
  -16.7276  -28.6503   23.0351 C   0  0  0  0  0  0
  -26.4507  -31.6572   25.0719 C   0  0  0  0  0  0
  -25.3731  -31.3724   26.1441 C   0  0  0  0  0  0
  -27.0348  -30.2986   24.6200 C   0  0  0  0  0  0
  -27.6061  -32.4314   25.7490 C   0  0  0  0  0  0
  -27.5583  -37.1798   24.8465 C   0  0  0  0  0  0
  -21.4214  -29.3039   22.3673 N   0  0  0  0  0  0
  -26.4294  -37.3766   23.9409 N   0  0  0  0  0  0
  -24.6957  -31.0538   22.0969 N   0  0  0  0  0  0
  -23.4212  -28.8152   23.3029 O   0  0  0  0  0  0
  -28.3094  -26.3707   20.1895 O   0  0  0  0  0  0
  -26.5626  -34.8912   22.4658 O   0  0  0  0  0  0
  -23.5464  -32.1386   23.7298 O   0  0  0  0  0  0
  -28.7493  -21.4844   22.7072 C   0  0  0  0  0  0
  -29.0268  -20.3113   23.4495 C   0  0  0  0  0  0
  -28.9975  -21.1622   21.3886 C   0  0  0  0  0  0
  -28.2370  -22.7636   23.3229 C   0  0  0  0  0  0
  -28.9387  -20.1139   24.9356 C   0  0  0  0  0  0
  -28.8065  -22.1806   20.2119 C   0  0  0  0  0  0
  -29.1341  -23.7695   20.4016 C   0  0  0  0  0  0
  -29.4612  -18.6087   20.3943 C   0  0  0  0  0  0
  -30.3825  -17.3144   20.7854 C   0  0  0  0  0  0
  -28.0391  -24.8987   20.0491 C   0  0  0  0  0  0
  -29.3409  -19.2997   22.6773 N   0  0  0  0  0  0
  -29.3135  -19.7405   21.3985 N   0  0  0  0  0  0
  -29.8823  -15.8707   20.6810 N   0  0  0  0  0  0
  -31.4709  -12.5652   19.1636 H   0  0  0  0  0  0
  -30.3689  -11.4699   19.9521 H   0  0  0  0  0  0
  -29.7896  -11.7267   17.5134 H   0  0  0  0  0  0
  -29.6344  -13.4540   17.7127 H   0  0  0  0  0  0
  -27.8895  -11.2803   18.9073 H   0  0  0  0  0  0
  -27.3766  -12.5187   17.7923 H   0  0  0  0  0  0
  -27.6344  -14.2513   19.4607 H   0  0  0  0  0  0
  -28.7158  -12.1733   21.4261 H   0  0  0  0  0  0
  -28.4216  -13.8581   21.7807 H   0  0  0  0  0  0
  -25.2774   -9.5684   22.4743 H   0  0  0  0  0  0
  -24.0012   -7.4636   22.7471 H   0  0  0  0  0  0
  -21.0846   -8.8760   19.8954 H   0  0  0  0  0  0
  -22.3695  -10.9663   19.6155 H   0  0  0  0  0  0
  -21.2007   -7.6145   23.9707 H   0  0  0  0  0  0
  -21.1488   -6.0522   25.9076 H   0  0  0  0  0  0
  -22.0602   -2.7602   23.2838 H   0  0  0  0  0  0
  -22.4122  -11.9893   22.4827 H   0  0  0  0  0  0
  -21.1083  -13.1196   22.2610 H   0  0  0  0  0  0
  -24.6472  -15.8424   20.5177 H   0  0  0  0  0  0
  -26.2609  -15.6334   20.0649 H   0  0  0  0  0  0
  -26.7204  -32.5409   23.1076 H   0  0  0  0  0  0
  -25.0101  -33.9699   25.0413 H   0  0  0  0  0  0
  -22.7215  -31.3013   21.4004 H   0  0  0  0  0  0
  -23.3757  -35.9619   23.3295 H   0  0  0  0  0  0
  -24.3589  -36.8911   22.2052 H   0  0  0  0  0  0
  -23.7254  -37.6486   23.6665 H   0  0  0  0  0  0
  -26.1107  -31.5332   20.6092 H   0  0  0  0  0  0
  -26.8505  -30.8193   22.0105 H   0  0  0  0  0  0
  -28.1168  -28.9288   21.2081 H   0  0  0  0  0  0
  -25.9367  -25.9163   18.9953 H   0  0  0  0  0  0
  -23.9676  -27.3140   19.0000 H   0  0  0  0  0  0
  -23.7679  -30.5932   19.4045 H   0  0  0  0  0  0
  -22.7612  -29.2504   19.8544 H   0  0  0  0  0  0
  -25.1299  -36.1913   25.0817 H   0  0  0  0  0  0
  -20.9982  -28.3268   24.1406 H   0  0  0  0  0  0
  -20.5719  -26.2301   23.3608 H   0  0  0  0  0  0
  -21.6651  -26.7469   22.1185 H   0  0  0  0  0  0
  -19.6924  -25.6301   21.1247 H   0  0  0  0  0  0
  -19.6690  -27.3201   20.6755 H   0  0  0  0  0  0
  -17.4212  -26.6682   21.4029 H   0  0  0  0  0  0
  -18.0328  -26.0073   22.9027 H   0  0  0  0  0  0
  -19.7933  -30.7288   24.2252 H   0  0  0  0  0  0
  -17.5007  -31.6266   24.5164 H   0  0  0  0  0  0
  -15.5348  -30.2976   23.7664 H   0  0  0  0  0  0
  -15.8678  -28.0819   22.7064 H   0  0  0  0  0  0
  -24.5898  -30.7083   25.7765 H   0  0  0  0  0  0
  -24.8935  -32.2898   26.4866 H   0  0  0  0  0  0
  -25.8049  -30.8894   27.0215 H   0  0  0  0  0  0
  -26.2924  -29.6730   24.1227 H   0  0  0  0  0  0
  -27.4029  -29.7250   25.4716 H   0  0  0  0  0  0
  -27.8807  -30.4253   23.9439 H   0  0  0  0  0  0
  -27.2667  -33.3622   26.2047 H   0  0  0  0  0  0
  -28.3878  -32.6860   25.0320 H   0  0  0  0  0  0
  -28.0718  -31.8450   26.5420 H   0  0  0  0  0  0
  -28.2593  -38.0102   24.7511 H   0  0  0  0  0  0
  -28.1085  -36.2630   24.6291 H   0  0  0  0  0  0
  -27.2302  -37.1445   25.8868 H   0  0  0  0  0  0
  -20.9408  -29.8741   21.6856 H   0  0  0  0  0  0
  -26.0171  -38.2842   24.1397 H   0  0  0  0  0  0
  -27.7122  -22.5778   24.2606 H   0  0  0  0  0  0
  -27.5217  -23.2742   22.6791 H   0  0  0  0  0  0
  -29.0408  -23.4612   23.5564 H   0  0  0  0  0  0
  -27.9055  -20.1815   25.2761 H   0  0  0  0  0  0
  -29.5078  -20.8795   25.4621 H   0  0  0  0  0  0
  -29.3264  -19.1429   25.2449 H   0  0  0  0  0  0
  -27.7700  -22.1016   19.8842 H   0  0  0  0  0  0
  -29.3818  -21.8202   19.3589 H   0  0  0  0  0  0
  -30.0032  -23.9793   19.7780 H   0  0  0  0  0  0
  -29.5102  -23.9556   21.4033 H   0  0  0  0  0  0
  -28.4535  -18.2666   20.1583 H   0  0  0  0  0  0
  -29.8377  -19.0451   19.4685 H   0  0  0  0  0  0
  -30.7641  -17.4197   21.7999 H   0  0  0  0  0  0
  -31.2822  -17.3859   20.1725 H   0  0  0  0  0  0
  -27.1579  -24.6708   20.6511 H   0  0  0  0  0  0
  -27.7506  -24.7228   19.0125 H   0  0  0  0  0  0
  -28.8993  -15.7262   20.8573 H   0  0  0  0  0  0
  1 25  1  0  0  0
  1 30  2  0  0  0
  1 83  1  0  0  0
  2  3  1  0  0  0
  2 25  1  0  0  0
  2 84  1  0  0  0
  2 85  1  0  0  0
  3  4  1  0  0  0
  3 86  1  0  0  0
  3 87  1  0  0  0
  4  5  1  0  0  0
  4 88  1  0  0  0
  4 89  1  0  0  0
  5  6  1  0  0  0
  5 26  1  0  0  0
  5 90  1  0  0  0
  6 25  1  0  0  0
  6 91  1  0  0  0
  6 92  1  0  0  0
  7  8  2  0  0  0
  7 26  1  0  0  0
  7 29  1  0  0  0
  8  9  1  0  0  0
  8 22  1  0  0  0
  9 10  1  0  0  0
  9 27  2  0  0  0
 10 11  2  0  0  0
 10 15  1  0  0  0
 11 12  1  0  0  0
 11 93  1  0  0  0
 12 13  2  0  0  0
 12 94  1  0  0  0
 13 14  1  0  0  0
 13 31  1  0  0  0
 14 15  2  0  0  0
 14 95  1  0  0  0
 15 96  1  0  0  0
 16 17  2  0  0  0
 16 21  1  0  0  0
 16 31  1  0  0  0
 17 18  1  0  0  0
 17 97  1  0  0  0
 18 19  2  0  0  0
 18 98  1  0  0  0
 19 20  1  0  0  0
 19 24  1  0  0  0
 20 21  2  0  0  0
 20 99  1  0  0  0
 21 23  1  0  0  0
 22 28  1  0  0  0
 22 32  2  0  0  0
 26 27  1  0  0  0
 28100  1  0  0  0
 28101  1  0  0  0
 29102  1  0  0  0
 29103  1  0  0  0
 33 34  1  0  0  0
 33 66  1  0  0  0
 33 70  2  0  0  0
 34 36  1  0  0  0
 34 59  1  0  0  0
 34104  1  0  0  0
 35 44  2  0  0  0
 35 45  1  0  0  0
 35 68  1  0  0  0
 36 56  1  0  0  0
 36105  1  0  0  0
 37 39  1  0  0  0
 37 47  1  0  0  0
 37 66  1  0  0  0
 37106  1  0  0  0
 38 43  2  0  0  0
 38 46  1  0  0  0
 38 47  1  0  0  0
 39 64  1  0  0  0
 39 67  2  0  0  0
 40 52  1  0  0  0
 40 53  2  0  0  0
 40 58  1  0  0  0
 41107  1  0  0  0
 41108  1  0  0  0
 41109  1  0  0  0
 41 48  1  0  0  0
 42 43  1  0  0  0
 42 66  1  0  0  0
 42110  1  0  0  0
 42111  1  0  0  0
 43 44  1  0  0  0
 44112  1  0  0  0
 45 46  2  0  0  0
 45113  1  0  0  0
 46114  1  0  0  0
 47115  1  0  0  0
 47116  1  0  0  0
 48 56  1  0  0  0
 48 65  1  0  0  0
 48117  1  0  0  0
 49 50  1  0  0  0
 49 53  1  0  0  0
 49 64  1  0  0  0
 49118  1  0  0  0
 50 51  1  0  0  0
 50119  1  0  0  0
 50120  1  0  0  0
 51 52  1  0  0  0
 51121  1  0  0  0
 51122  1  0  0  0
 52123  1  0  0  0
 52124  1  0  0  0
 53 54  1  0  0  0
 54 55  2  0  0  0
 54125  1  0  0  0
 55 57  1  0  0  0
 55126  1  0  0  0
 56 69  2  0  0  0
 57 58  2  0  0  0
 57127  1  0  0  0
 58128  1  0  0  0
 59 60  1  0  0  0
 59 61  1  0  0  0
 59 62  1  0  0  0
 60129  1  0  0  0
 60130  1  0  0  0
 60131  1  0  0  0
 61132  1  0  0  0
 61133  1  0  0  0
 61134  1  0  0  0
 62135  1  0  0  0
 62136  1  0  0  0
 62137  1  0  0  0
 63 65  1  0  0  0
 63138  1  0  0  0
 63139  1  0  0  0
 63140  1  0  0  0
 64141  1  0  0  0
 65142  1  0  0  0
 68 80  1  0  0  0
 71 72  1  0  0  0
 71 73  2  0  0  0
 71 74  1  0  0  0
 72 75  1  0  0  0
 72 81  2  0  0  0
 73 76  1  0  0  0
 73 82  1  0  0  0
 74143  1  0  0  0
 74144  1  0  0  0
 74145  1  0  0  0
 75146  1  0  0  0
 75147  1  0  0  0
 75148  1  0  0  0
 76 77  1  0  0  0
 76149  1  0  0  0
 76150  1  0  0  0
 77 80  1  0  0  0
 77151  1  0  0  0
 77152  1  0  0  0
 78 79  1  0  0  0
 78 82  1  0  0  0
 78153  1  0  0  0
 78154  1  0  0  0
 79 83  1  0  0  0
 79155  1  0  0  0
 79156  1  0  0  0
 80157  1  0  0  0
 80158  1  0  0  0
 81 82  1  0  0  0
 83159  1  0  0  0
M  ISO  4   1 100  68 101  80 101  83 100
M  END
> <chiral flag>
0

> <version>
0

> <s_m_source_file>
/data/baiqing/PycharmProjects/Reinvent-master-3.2/result/LINK_invent/BTK/process_docking_weight1_custom_sum_contain_oxygen_bond_distance_aromatic_linkinvent_7_9_3/rearranged_h_0081.sdf

> <i_m_source_file_index>
38

> <r_mmod_Potential_Energy-OPLS-2005>
116.450096130371

> <r_mmod_Stretch_Energy-OPLS-2005>
127.844917297363

> <r_mmod_Bend_Energy-OPLS-2005>
181.426483154297

> <r_mmod_Torsional_Energy-OPLS-2005>
235.656143188477

> <r_mmod_Improper_Torsional_Energy-OPLS-2005>
5.23807287216187

> <r_mmod_Van_der_Waal_Energy-OPLS-2005>
123.723266601562

> <r_mmod_Electrostatic_Energy-OPLS-2005>
-416.512878417969

> <r_mmod_Solvation_Energy-OPLS-2005>
-221.702377319336

> <b_mmod_Minimization_Converged-OPLS-2005>
0

> <r_mmod_RMS_Derivative-OPLS-2005>
1.06235206127167

$$$$
38
                    3D
 Structure written by MMmdl.
155163  0  0  1  0            999 V2000
  -30.5465  -14.9556   20.4125 C   0  0  0  0  0  0
  -30.4367  -12.5895   19.5033 C   0  0  0  0  0  0
  -29.5214  -12.5301   18.2584 C   0  0  0  0  0  0
  -28.0535  -12.3212   18.6735 C   0  0  0  0  0  0
  -27.6320  -13.2482   19.8426 C   0  0  2  0  0  0
  -28.6748  -13.2828   20.9805 C   0  0  0  0  0  0
  -25.2491  -13.8218   20.5718 C   0  0  0  0  0  0
  -24.1802  -13.0448   20.9231 C   0  0  0  0  0  0
  -24.6401  -11.6932   20.8753 C   0  0  0  0  0  0
  -23.9067  -10.4311   21.0400 C   0  0  0  0  0  0
  -24.3621   -9.4236   21.9189 C   0  0  0  0  0  0
  -23.6313   -8.2258   22.0759 C   0  0  0  0  0  0
  -22.4292   -8.0289   21.3549 C   0  0  0  0  0  0
  -21.9918   -9.0255   20.4642 C   0  0  0  0  0  0
  -22.7229  -10.2147   20.3058 C   0  0  0  0  0  0
  -21.6863   -6.0738   22.5283 C   0  0  0  0  0  0
  -21.4017   -6.5641   23.8214 C   0  0  0  0  0  0
  -21.3663   -5.6795   24.9177 C   0  0  0  0  0  0
  -21.6046   -4.3060   24.7228 C   0  0  0  0  0  0
  -21.8819   -3.8148   23.4351 C   0  0  0  0  0  0
  -21.9205   -4.6966   22.3406 C   0  0  0  0  0  0
  -22.7827  -13.5236   21.1879 C   0  0  0  0  0  0
  -22.1677   -4.2147   21.0988 F   0  0  0  0  0  0
  -21.5630   -3.4547   25.7744 F   0  0  0  0  0  0
  -29.9486  -13.6957   20.3786 N   0  0  0  0  0  0
  -26.2905  -12.9440   20.3273 N   0  0  0  0  0  0
  -25.9336  -11.6568   20.5742 N   0  0  0  0  0  0
  -22.0480  -12.8217   22.0430 N   0  0  0  0  0  0
  -25.4177  -15.1938   20.4111 N   0  0  0  0  0  0
  -31.7486  -15.0111   20.1311 O   0  0  0  0  0  0
  -21.6662   -6.8881   21.4242 O   0  0  0  0  0  0
  -22.3516  -14.5540   20.6723 O   0  0  0  0  0  0
  -24.6452  -31.8415   23.1873 C   0  0  0  0  0  0
  -25.9219  -32.4670   23.8260 C   0  0  1  0  0  0
  -27.2105  -27.1074   20.1573 C   0  0  0  0  0  0
  -25.5958  -33.8480   24.2171 N   0  0  0  0  0  0
  -23.4496  -30.4625   21.5317 C   0  0  2  0  0  0
  -24.8995  -28.8858   20.1137 C   0  0  0  0  0  0
  -22.7566  -29.4540   22.4829 C   0  0  0  0  0  0
  -18.0305  -28.1379   22.8472 C   0  0  0  0  0  0
  -24.1498  -36.7251   23.2643 C   0  0  0  0  0  0
  -26.0093  -30.7036   21.3958 C   0  0  0  0  0  0
  -26.0786  -29.3132   20.7377 C   0  0  0  0  0  0
  -27.2350  -28.4400   20.7450 C   0  0  0  0  0  0
  -26.0074  -26.7976   19.4845 C   0  0  0  0  0  0
  -24.8772  -27.6401   19.4741 C   0  0  0  0  0  0
  -23.6792  -29.7918   20.1528 C   0  0  0  0  0  0
  -25.4130  -36.3015   24.0309 C   0  0  1  0  0  0
  -20.5917  -28.3717   23.1212 C   0  0  2  0  0  0
  -20.6784  -26.9412   22.5394 C   0  0  0  0  0  0
  -19.5763  -26.6365   21.5197 C   0  0  0  0  0  0
  -18.1946  -26.7918   22.1612 C   0  0  0  0  0  0
  -19.1560  -28.8865   23.2833 C   0  0  0  0  0  0
  -18.9481  -30.1459   23.8860 C   0  0  0  0  0  0
  -17.6478  -30.6578   24.0556 C   0  0  0  0  0  0
  -25.9083  -34.9389   23.5051 C   0  0  0  0  0  0
  -16.5368  -29.9072   23.6333 C   0  0  0  0  0  0
  -16.7288  -28.6487   23.0359 C   0  0  0  0  0  0
  -26.4533  -31.6550   25.0715 C   0  0  0  0  0  0
  -25.3702  -31.3755   26.1398 C   0  0  0  0  0  0
  -27.0419  -30.2936   24.6347 C   0  0  0  0  0  0
  -27.6050  -32.4336   25.7501 C   0  0  0  0  0  0
  -27.5576  -37.1784   24.8461 C   0  0  0  0  0  0
  -21.4254  -29.3052   22.3583 N   0  0  0  0  0  0
  -26.4290  -37.3730   23.9403 N   0  0  0  0  0  0
  -24.7211  -31.0244   22.0928 N   0  0  0  0  0  0
  -23.4198  -28.8074   23.2978 O   0  0  0  0  0  0
  -28.2470  -26.0954   20.2003 O   0  0  0  0  0  0
  -26.5664  -34.8891   22.4628 O   0  0  0  0  0  0
  -23.5564  -32.1310   23.7069 O   0  0  0  0  0  0
  -28.5632  -21.8185   20.4520 C   0  0  0  0  0  0
  -30.9313  -22.4874   19.4014 C   0  0  0  0  0  0
  -29.4582  -20.6562   20.1900 C   0  0  0  0  0  0
  -30.6790  -21.1035   19.6087 C   0  0  0  0  0  0
  -28.8751  -23.2521   20.1885 C   0  0  0  0  0  0
  -31.7587  -20.1408   19.1477 C   0  0  0  0  0  0
  -27.8426  -18.6941   19.6600 C   0  0  0  0  0  0
  -27.8860  -24.5726   20.3663 C   0  0  0  0  0  0
  -30.1595  -17.6870   20.3419 C   0  0  0  0  0  0
  -29.1115  -19.0340   20.4521 C   0  0  1  0  0  0
  -30.0903  -23.5140   19.6717 N   0  0  0  0  0  0
  -29.7833  -16.1534   20.5469 N   0  0  0  0  0  0
  -31.4720  -12.7408   19.1952 H   0  0  0  0  0  0
  -30.4219  -11.6382   20.0377 H   0  0  0  0  0  0
  -29.8398  -11.7295   17.5895 H   0  0  0  0  0  0
  -29.6146  -13.4567   17.6905 H   0  0  0  0  0  0
  -27.9423  -11.2774   18.9687 H   0  0  0  0  0  0
  -27.3909  -12.4682   17.8191 H   0  0  0  0  0  0
  -27.5940  -14.2506   19.4158 H   0  0  0  0  0  0
  -28.7643  -12.3091   21.4632 H   0  0  0  0  0  0
  -28.3734  -13.9883   21.7568 H   0  0  0  0  0  0
  -25.2762   -9.5736   22.4766 H   0  0  0  0  0  0
  -24.0036   -7.4651   22.7474 H   0  0  0  0  0  0
  -21.0855   -8.8755   19.8941 H   0  0  0  0  0  0
  -22.3670  -10.9686   19.6174 H   0  0  0  0  0  0
  -21.1999   -7.6150   23.9713 H   0  0  0  0  0  0
  -21.1486   -6.0531   25.9078 H   0  0  0  0  0  0
  -22.0590   -2.7607   23.2857 H   0  0  0  0  0  0
  -22.4107  -11.9870   22.4792 H   0  0  0  0  0  0
  -21.1094  -13.1228   22.2627 H   0  0  0  0  0  0
  -24.6462  -15.8447   20.5112 H   0  0  0  0  0  0
  -26.2509  -15.6239   20.0319 H   0  0  0  0  0  0
  -26.7274  -32.5267   23.0976 H   0  0  0  0  0  0
  -25.0085  -33.9589   25.0303 H   0  0  0  0  0  0
  -22.7549  -31.2899   21.3749 H   0  0  0  0  0  0
  -23.3760  -35.9582   23.3283 H   0  0  0  0  0  0
  -24.3587  -36.8908   22.2062 H   0  0  0  0  0  0
  -23.7260  -37.6442   23.6700 H   0  0  0  0  0  0
  -26.1734  -31.4555   20.6234 H   0  0  0  0  0  0
  -26.8763  -30.7512   22.0423 H   0  0  0  0  0  0
  -28.1290  -28.7593   21.2625 H   0  0  0  0  0  0
  -25.9004  -25.8641   18.9562 H   0  0  0  0  0  0
  -23.9797  -27.3083   18.9705 H   0  0  0  0  0  0
  -23.8223  -30.5651   19.3977 H   0  0  0  0  0  0
  -22.7940  -29.2356   19.8388 H   0  0  0  0  0  0
  -25.1323  -36.1839   25.0800 H   0  0  0  0  0  0
  -21.0013  -28.3311   24.1330 H   0  0  0  0  0  0
  -20.5656  -26.2331   23.3618 H   0  0  0  0  0  0
  -21.6653  -26.7400   22.1205 H   0  0  0  0  0  0
  -19.6929  -25.6266   21.1250 H   0  0  0  0  0  0
  -19.6705  -27.3151   20.6707 H   0  0  0  0  0  0
  -17.4212  -26.6649   21.4018 H   0  0  0  0  0  0
  -18.0359  -26.0059   22.9007 H   0  0  0  0  0  0
  -19.7958  -30.7283   24.2211 H   0  0  0  0  0  0
  -17.5034  -31.6261   24.5153 H   0  0  0  0  0  0
  -15.5367  -30.2969   23.7674 H   0  0  0  0  0  0
  -15.8685  -28.0798   22.7095 H   0  0  0  0  0  0
  -24.5882  -30.7107   25.7710 H   0  0  0  0  0  0
  -24.8894  -32.2941   26.4764 H   0  0  0  0  0  0
  -25.7966  -30.8957   27.0215 H   0  0  0  0  0  0
  -26.3058  -29.6630   24.1347 H   0  0  0  0  0  0
  -27.3994  -29.7271   25.4959 H   0  0  0  0  0  0
  -27.8978  -30.4148   23.9706 H   0  0  0  0  0  0
  -27.2625  -33.3653   26.2014 H   0  0  0  0  0  0
  -28.3888  -32.6873   25.0350 H   0  0  0  0  0  0
  -28.0687  -31.8510   26.5470 H   0  0  0  0  0  0
  -28.2578  -38.0095   24.7510 H   0  0  0  0  0  0
  -28.1090  -36.2626   24.6288 H   0  0  0  0  0  0
  -27.2292  -37.1422   25.8862 H   0  0  0  0  0  0
  -20.9452  -29.8790   21.6789 H   0  0  0  0  0  0
  -26.0152  -38.2795   24.1409 H   0  0  0  0  0  0
  -27.5816  -21.6063   20.8546 H   0  0  0  0  0  0
  -31.8696  -22.7958   18.9625 H   0  0  0  0  0  0
  -32.5926  -20.6691   18.6839 H   0  0  0  0  0  0
  -31.3695  -19.4657   18.3874 H   0  0  0  0  0  0
  -32.1671  -19.5738   19.9830 H   0  0  0  0  0  0
  -28.0210  -18.7679   18.5874 H   0  0  0  0  0  0
  -27.0283  -19.3736   19.9109 H   0  0  0  0  0  0
  -27.4957  -17.6847   19.8757 H   0  0  0  0  0  0
  -27.4620  -24.4845   21.3669 H   0  0  0  0  0  0
  -27.0645  -24.3357   19.6962 H   0  0  0  0  0  0
  -30.9922  -17.8731   21.0202 H   0  0  0  0  0  0
  -30.5932  -17.6926   19.3448 H   0  0  0  0  0  0
  -28.8095  -19.0308   21.4993 H   0  0  0  0  0  0
  -28.8088  -15.9876   20.7488 H   0  0  0  0  0  0
  1 25  1  0  0  0
  1 30  2  0  0  0
  1 82  1  0  0  0
  2  3  1  0  0  0
  2 25  1  0  0  0
  2 83  1  0  0  0
  2 84  1  0  0  0
  3  4  1  0  0  0
  3 85  1  0  0  0
  3 86  1  0  0  0
  4  5  1  0  0  0
  4 87  1  0  0  0
  4 88  1  0  0  0
  5  6  1  0  0  0
  5 26  1  0  0  0
  5 89  1  0  0  0
  6 25  1  0  0  0
  6 90  1  0  0  0
  6 91  1  0  0  0
  7  8  2  0  0  0
  7 26  1  0  0  0
  7 29  1  0  0  0
  8  9  1  0  0  0
  8 22  1  0  0  0
  9 10  1  0  0  0
  9 27  2  0  0  0
 10 11  2  0  0  0
 10 15  1  0  0  0
 11 12  1  0  0  0
 11 92  1  0  0  0
 12 13  2  0  0  0
 12 93  1  0  0  0
 13 14  1  0  0  0
 13 31  1  0  0  0
 14 15  2  0  0  0
 14 94  1  0  0  0
 15 95  1  0  0  0
 16 17  2  0  0  0
 16 21  1  0  0  0
 16 31  1  0  0  0
 17 18  1  0  0  0
 17 96  1  0  0  0
 18 19  2  0  0  0
 18 97  1  0  0  0
 19 20  1  0  0  0
 19 24  1  0  0  0
 20 21  2  0  0  0
 20 98  1  0  0  0
 21 23  1  0  0  0
 22 28  1  0  0  0
 22 32  2  0  0  0
 26 27  1  0  0  0
 28 99  1  0  0  0
 28100  1  0  0  0
 29101  1  0  0  0
 29102  1  0  0  0
 33 34  1  0  0  0
 33 66  1  0  0  0
 33 70  2  0  0  0
 34 36  1  0  0  0
 34 59  1  0  0  0
 34103  1  0  0  0
 35 44  2  0  0  0
 35 45  1  0  0  0
 35 68  1  0  0  0
 36 56  1  0  0  0
 36104  1  0  0  0
 37 39  1  0  0  0
 37 47  1  0  0  0
 37 66  1  0  0  0
 37105  1  0  0  0
 38 43  2  0  0  0
 38 46  1  0  0  0
 38 47  1  0  0  0
 39 64  1  0  0  0
 39 67  2  0  0  0
 40 52  1  0  0  0
 40 53  2  0  0  0
 40 58  1  0  0  0
 41106  1  0  0  0
 41107  1  0  0  0
 41108  1  0  0  0
 41 48  1  0  0  0
 42 43  1  0  0  0
 42 66  1  0  0  0
 42109  1  0  0  0
 42110  1  0  0  0
 43 44  1  0  0  0
 44111  1  0  0  0
 45 46  2  0  0  0
 45112  1  0  0  0
 46113  1  0  0  0
 47114  1  0  0  0
 47115  1  0  0  0
 48 56  1  0  0  0
 48 65  1  0  0  0
 48116  1  0  0  0
 49 50  1  0  0  0
 49 53  1  0  0  0
 49 64  1  0  0  0
 49117  1  0  0  0
 50 51  1  0  0  0
 50118  1  0  0  0
 50119  1  0  0  0
 51 52  1  0  0  0
 51120  1  0  0  0
 51121  1  0  0  0
 52122  1  0  0  0
 52123  1  0  0  0
 53 54  1  0  0  0
 54 55  2  0  0  0
 54124  1  0  0  0
 55 57  1  0  0  0
 55125  1  0  0  0
 56 69  2  0  0  0
 57 58  2  0  0  0
 57126  1  0  0  0
 58127  1  0  0  0
 59 60  1  0  0  0
 59 61  1  0  0  0
 59 62  1  0  0  0
 60128  1  0  0  0
 60129  1  0  0  0
 60130  1  0  0  0
 61131  1  0  0  0
 61132  1  0  0  0
 61133  1  0  0  0
 62134  1  0  0  0
 62135  1  0  0  0
 62136  1  0  0  0
 63 65  1  0  0  0
 63137  1  0  0  0
 63138  1  0  0  0
 63139  1  0  0  0
 64140  1  0  0  0
 65141  1  0  0  0
 68 78  1  0  0  0
 71 73  2  0  0  0
 71 75  1  0  0  0
 71142  1  0  0  0
 72 74  2  0  0  0
 72 81  1  0  0  0
 72143  1  0  0  0
 73 74  1  0  0  0
 73 80  1  0  0  0
 74 76  1  0  0  0
 75 78  1  0  0  0
 75 81  2  0  0  0
 76144  1  0  0  0
 76145  1  0  0  0
 76146  1  0  0  0
 77147  1  0  0  0
 77148  1  0  0  0
 77149  1  0  0  0
 77 80  1  0  0  0
 78150  1  0  0  0
 78151  1  0  0  0
 79 80  1  0  0  0
 79 82  1  0  0  0
 79152  1  0  0  0
 79153  1  0  0  0
 80154  1  0  0  0
 82155  1  0  0  0
M  ISO  4   1 100  68 101  78 101  82 100
M  END
> <chiral flag>
0

> <version>
0

> <s_m_source_file>
/data/baiqing/PycharmProjects/Reinvent-master-3.2/result/LINK_invent/BTK/process_docking_weight1_custom_sum_contain_oxygen_bond_distance_aromatic_linkinvent_7_9_3/rearranged_h_0081.sdf

> <i_m_source_file_index>
39

> <r_mmod_Potential_Energy-OPLS-2005>
375.657653808594

> <r_mmod_Stretch_Energy-OPLS-2005>
286.808410644531

> <r_mmod_Bend_Energy-OPLS-2005>
258.308685302734

> <r_mmod_Torsional_Energy-OPLS-2005>
215.721893310547

> <r_mmod_Improper_Torsional_Energy-OPLS-2005>
4.86861324310303

> <r_mmod_Van_der_Waal_Energy-OPLS-2005>
136.705337524414

> <r_mmod_Electrostatic_Energy-OPLS-2005>
-498.391235351562

> <r_mmod_Solvation_Energy-OPLS-2005>
-235.490905761719

> <b_mmod_Minimization_Converged-OPLS-2005>
0

> <r_mmod_RMS_Derivative-OPLS-2005>
1.54977703094482

$$$$
39
                    3D
 Structure written by MMmdl.
173181  0  0  1  0            999 V2000
  -30.7005  -14.4399   20.5810 C   0  0  0  0  0  0
  -30.4297  -12.2886   19.4092 C   0  0  0  0  0  0
  -29.4944  -12.5080   18.2009 C   0  0  0  0  0  0
  -28.0166  -12.3702   18.6184 C   0  0  0  0  0  0
  -27.6696  -13.1999   19.8833 C   0  0  2  0  0  0
  -28.7140  -12.9454   20.9966 C   0  0  0  0  0  0
  -25.2614  -13.8127   20.5669 C   0  0  0  0  0  0
  -24.1846  -13.0409   20.9150 C   0  0  0  0  0  0
  -24.6403  -11.6882   20.8720 C   0  0  0  0  0  0
  -23.9069  -10.4268   21.0411 C   0  0  0  0  0  0
  -24.3614   -9.4185   21.9189 C   0  0  0  0  0  0
  -23.6289   -8.2225   22.0766 C   0  0  0  0  0  0
  -22.4276   -8.0265   21.3549 C   0  0  0  0  0  0
  -21.9913   -9.0243   20.4657 C   0  0  0  0  0  0
  -22.7243  -10.2118   20.3067 C   0  0  0  0  0  0
  -21.6858   -6.0735   22.5290 C   0  0  0  0  0  0
  -21.4014   -6.5647   23.8212 C   0  0  0  0  0  0
  -21.3652   -5.6798   24.9176 C   0  0  0  0  0  0
  -21.6053   -4.3067   24.7235 C   0  0  0  0  0  0
  -21.8812   -3.8151   23.4356 C   0  0  0  0  0  0
  -21.9190   -4.6960   22.3409 C   0  0  0  0  0  0
  -22.7873  -13.5208   21.1820 C   0  0  0  0  0  0
  -22.1653   -4.2132   21.0990 F   0  0  0  0  0  0
  -21.5631   -3.4560   25.7754 F   0  0  0  0  0  0
  -30.0496  -13.2539   20.4501 N   0  0  0  0  0  0
  -26.3072  -12.9309   20.3416 N   0  0  0  0  0  0
  -25.9337  -11.6470   20.5786 N   0  0  0  0  0  0
  -22.0534  -12.8205   22.0391 N   0  0  0  0  0  0
  -25.4324  -15.1838   20.4051 N   0  0  0  0  0  0
  -31.8000  -14.6760   20.0740 O   0  0  0  0  0  0
  -21.6630   -6.8881   21.4249 O   0  0  0  0  0  0
  -22.3548  -14.5518   20.6679 O   0  0  0  0  0  0
  -24.6103  -31.8713   23.2139 C   0  0  0  0  0  0
  -25.9018  -32.4838   23.8410 C   0  0  1  0  0  0
  -27.2413  -27.4615   20.0719 C   0  0  0  0  0  0
  -25.5911  -33.8641   24.2340 N   0  0  0  0  0  0
  -23.3961  -30.4936   21.5564 C   0  0  2  0  0  0
  -24.8412  -28.9599   20.1197 C   0  0  0  0  0  0
  -22.7399  -29.4654   22.5047 C   0  0  0  0  0  0
  -18.0262  -28.1375   22.8495 C   0  0  0  0  0  0
  -24.1490  -36.7304   23.2636 C   0  0  0  0  0  0
  -25.9232  -30.8397   21.3668 C   0  0  0  0  0  0
  -25.9999  -29.4755   20.7133 C   0  0  0  0  0  0
  -27.1970  -28.7273   20.6965 C   0  0  0  0  0  0
  -26.0541  -26.9423   19.5037 C   0  0  0  0  0  0
  -24.8598  -27.6880   19.5221 C   0  0  0  0  0  0
  -23.6033  -29.8266   20.1705 C   0  0  0  0  0  0
  -25.4118  -36.3118   24.0332 C   0  0  1  0  0  0
  -20.5850  -28.3649   23.1356 C   0  0  2  0  0  0
  -20.6764  -26.9398   22.5437 C   0  0  0  0  0  0
  -19.5741  -26.6380   21.5236 C   0  0  0  0  0  0
  -18.1913  -26.7921   22.1627 C   0  0  0  0  0  0
  -19.1511  -28.8832   23.2908 C   0  0  0  0  0  0
  -18.9442  -30.1448   23.8905 C   0  0  0  0  0  0
  -17.6446  -30.6588   24.0564 C   0  0  0  0  0  0
  -25.9046  -34.9482   23.5130 C   0  0  0  0  0  0
  -16.5334  -29.9091   23.6327 C   0  0  0  0  0  0
  -16.7250  -28.6504   23.0347 C   0  0  0  0  0  0
  -26.4471  -31.6610   25.0720 C   0  0  0  0  0  0
  -25.3756  -31.3697   26.1478 C   0  0  0  0  0  0
  -27.0304  -30.3059   24.6075 C   0  0  0  0  0  0
  -27.6044  -32.4346   25.7476 C   0  0  0  0  0  0
  -27.5583  -37.1811   24.8468 C   0  0  0  0  0  0
  -21.4134  -29.3008   22.3769 N   0  0  0  0  0  0
  -26.4304  -37.3802   23.9405 N   0  0  0  0  0  0
  -24.6608  -31.0826   22.1042 N   0  0  0  0  0  0
  -23.4186  -28.8213   23.3089 O   0  0  0  0  0  0
  -28.4405  -26.7785   20.0596 O   0  0  0  0  0  0
  -26.5598  -34.8925   22.4681 O   0  0  0  0  0  0
  -23.5302  -32.1466   23.7552 O   0  0  0  0  0  0
  -31.1337  -21.9923   18.2957 C   0  0  0  0  0  0
  -31.0499  -19.7997   19.2943 C   0  0  0  0  0  0
  -31.7926  -20.7829   18.6073 C   0  0  0  0  0  0
  -29.7890  -22.1653   18.6638 C   0  0  0  0  0  0
  -29.7120  -20.0547   19.6473 C   0  0  0  0  0  0
  -28.7872  -19.4598   21.9292 C   0  0  0  0  0  0
  -34.0791  -20.2431   19.5011 C   0  0  0  0  0  0
  -33.9090  -21.7134   17.5052 C   0  0  0  0  0  0
  -33.3326  -19.2918   17.2948 C   0  0  0  0  0  0
  -29.0562  -23.4469   18.2852 C   0  0  0  0  0  0
  -28.8566  -24.4292   19.4559 C   0  0  0  0  0  0
  -29.1689  -17.5429   20.2219 C   0  0  0  0  0  0
  -30.2038  -16.8480   21.1495 C   0  0  0  0  0  0
  -28.7184  -25.8864   18.9760 C   0  0  0  0  0  0
  -28.8687  -19.0568   20.4461 C   0  0  2  0  0  0
  -33.2576  -20.5167   18.2277 C   0  0  0  0  0  0
  -29.0930  -21.2192   19.3313 N   0  0  0  0  0  0
  -29.9788  -15.3984   21.1796 N   0  0  0  0  0  0
  -31.4746  -12.3898   19.1092 H   0  0  0  0  0  0
  -30.3276  -11.2702   19.7867 H   0  0  0  0  0  0
  -29.7255  -11.7979   17.4064 H   0  0  0  0  0  0
  -29.6641  -13.4993   17.7809 H   0  0  0  0  0  0
  -27.8269  -11.3134   18.8118 H   0  0  0  0  0  0
  -27.3626  -12.6513   17.7930 H   0  0  0  0  0  0
  -27.7232  -14.2507   19.5982 H   0  0  0  0  0  0
  -28.6820  -11.8996   21.3049 H   0  0  0  0  0  0
  -28.4821  -13.5128   21.8980 H   0  0  0  0  0  0
  -25.2766   -9.5661   22.4747 H   0  0  0  0  0  0
  -23.9994   -7.4635   22.7507 H   0  0  0  0  0  0
  -21.0848   -8.8766   19.8966 H   0  0  0  0  0  0
  -22.3709  -10.9656   19.6169 H   0  0  0  0  0  0
  -21.2006   -7.6159   23.9704 H   0  0  0  0  0  0
  -21.1483   -6.0547   25.9074 H   0  0  0  0  0  0
  -22.0596   -2.7616   23.2873 H   0  0  0  0  0  0
  -22.4157  -11.9854   22.4762 H   0  0  0  0  0  0
  -21.1158  -13.1230   22.2589 H   0  0  0  0  0  0
  -24.6627  -15.8377   20.5031 H   0  0  0  0  0  0
  -26.2825  -15.6177   20.0703 H   0  0  0  0  0  0
  -26.7086  -32.5554   23.1171 H   0  0  0  0  0  0
  -25.0101  -33.9829   25.0510 H   0  0  0  0  0  0
  -22.6801  -31.3068   21.4223 H   0  0  0  0  0  0
  -23.3765  -35.9627   23.3314 H   0  0  0  0  0  0
  -24.3579  -36.8906   22.2049 H   0  0  0  0  0  0
  -23.7243  -37.6505   23.6651 H   0  0  0  0  0  0
  -26.0372  -31.6114   20.6039 H   0  0  0  0  0  0
  -26.8094  -30.8881   21.9873 H   0  0  0  0  0  0
  -28.0936  -29.1295   21.1479 H   0  0  0  0  0  0
  -26.0325  -25.9611   19.0540 H   0  0  0  0  0  0
  -23.9629  -27.2771   19.0796 H   0  0  0  0  0  0
  -23.7118  -30.6040   19.4134 H   0  0  0  0  0  0
  -22.7264  -29.2489   19.8731 H   0  0  0  0  0  0
  -25.1302  -36.1973   25.0830 H   0  0  0  0  0  0
  -20.9908  -28.3207   24.1492 H   0  0  0  0  0  0
  -20.5721  -26.2251   23.3614 H   0  0  0  0  0  0
  -21.6632  -26.7491   22.1202 H   0  0  0  0  0  0
  -19.6912  -25.6301   21.1249 H   0  0  0  0  0  0
  -19.6682  -27.3209   20.6784 H   0  0  0  0  0  0
  -17.4203  -26.6691   21.4005 H   0  0  0  0  0  0
  -18.0278  -26.0060   22.9011 H   0  0  0  0  0  0
  -19.7921  -30.7261   24.2268 H   0  0  0  0  0  0
  -17.5006  -31.6269   24.5164 H   0  0  0  0  0  0
  -15.5336  -30.2998   23.7651 H   0  0  0  0  0  0
  -15.8647  -28.0835   22.7052 H   0  0  0  0  0  0
  -24.5921  -30.7054   25.7813 H   0  0  0  0  0  0
  -24.8956  -32.2848   26.4958 H   0  0  0  0  0  0
  -25.8123  -30.8841   27.0214 H   0  0  0  0  0  0
  -26.2830  -29.6815   24.1166 H   0  0  0  0  0  0
  -27.4130  -29.7293   25.4506 H   0  0  0  0  0  0
  -27.8642  -30.4382   23.9176 H   0  0  0  0  0  0
  -27.2650  -33.3641   26.2061 H   0  0  0  0  0  0
  -28.3836  -32.6928   25.0293 H   0  0  0  0  0  0
  -28.0733  -31.8480   26.5384 H   0  0  0  0  0  0
  -28.2615  -38.0093   24.7525 H   0  0  0  0  0  0
  -28.1066  -36.2633   24.6300 H   0  0  0  0  0  0
  -27.2294  -37.1461   25.8867 H   0  0  0  0  0  0
  -20.9311  -29.8693   21.6952 H   0  0  0  0  0  0
  -26.0185  -38.2871   24.1426 H   0  0  0  0  0  0
  -31.6315  -22.7924   17.7667 H   0  0  0  0  0  0
  -31.5113  -18.8594   19.5509 H   0  0  0  0  0  0
  -28.3843  -20.4671   22.0374 H   0  0  0  0  0  0
  -29.7708  -19.4582   22.3972 H   0  0  0  0  0  0
  -28.1382  -18.7837   22.4850 H   0  0  0  0  0  0
  -34.0237  -21.0886   20.1884 H   0  0  0  0  0  0
  -35.1323  -20.0808   19.2678 H   0  0  0  0  0  0
  -33.7296  -19.3596   20.0355 H   0  0  0  0  0  0
  -33.9147  -22.6024   18.1352 H   0  0  0  0  0  0
  -33.3892  -21.9595   16.5792 H   0  0  0  0  0  0
  -34.9466  -21.5043   17.2437 H   0  0  0  0  0  0
  -32.9652  -18.3850   17.7758 H   0  0  0  0  0  0
  -34.3571  -19.0930   16.9799 H   0  0  0  0  0  0
  -32.7364  -19.4476   16.3949 H   0  0  0  0  0  0
  -28.0938  -23.2005   17.8360 H   0  0  0  0  0  0
  -29.6264  -23.9391   17.4952 H   0  0  0  0  0  0
  -29.7193  -24.3744   20.1210 H   0  0  0  0  0  0
  -27.9936  -24.1225   20.0462 H   0  0  0  0  0  0
  -28.2173  -17.0300   20.3717 H   0  0  0  0  0  0
  -29.4169  -17.3678   19.1728 H   0  0  0  0  0  0
  -30.0996  -17.1905   22.1782 H   0  0  0  0  0  0
  -31.2264  -17.0853   20.8537 H   0  0  0  0  0  0
  -28.0104  -25.9689   18.1506 H   0  0  0  0  0  0
  -29.6728  -26.2034   18.5540 H   0  0  0  0  0  0
  -27.8601  -19.1872   20.0510 H   0  0  0  0  0  0
  -29.1130  -15.0879   21.5938 H   0  0  0  0  0  0
  1 25  1  0  0  0
  1 30  2  0  0  0
  1 88  1  0  0  0
  2  3  1  0  0  0
  2 25  1  0  0  0
  2 89  1  0  0  0
  2 90  1  0  0  0
  3  4  1  0  0  0
  3 91  1  0  0  0
  3 92  1  0  0  0
  4  5  1  0  0  0
  4 93  1  0  0  0
  4 94  1  0  0  0
  5  6  1  0  0  0
  5 26  1  0  0  0
  5 95  1  0  0  0
  6 25  1  0  0  0
  6 96  1  0  0  0
  6 97  1  0  0  0
  7  8  2  0  0  0
  7 26  1  0  0  0
  7 29  1  0  0  0
  8  9  1  0  0  0
  8 22  1  0  0  0
  9 10  1  0  0  0
  9 27  2  0  0  0
 10 11  2  0  0  0
 10 15  1  0  0  0
 11 12  1  0  0  0
 11 98  1  0  0  0
 12 13  2  0  0  0
 12 99  1  0  0  0
 13 14  1  0  0  0
 13 31  1  0  0  0
 14 15  2  0  0  0
 14100  1  0  0  0
 15101  1  0  0  0
 16 17  2  0  0  0
 16 21  1  0  0  0
 16 31  1  0  0  0
 17 18  1  0  0  0
 17102  1  0  0  0
 18 19  2  0  0  0
 18103  1  0  0  0
 19 20  1  0  0  0
 19 24  1  0  0  0
 20 21  2  0  0  0
 20104  1  0  0  0
 21 23  1  0  0  0
 22 28  1  0  0  0
 22 32  2  0  0  0
 26 27  1  0  0  0
 28105  1  0  0  0
 28106  1  0  0  0
 29107  1  0  0  0
 29108  1  0  0  0
 33 34  1  0  0  0
 33 66  1  0  0  0
 33 70  2  0  0  0
 34 36  1  0  0  0
 34 59  1  0  0  0
 34109  1  0  0  0
 35 44  2  0  0  0
 35 45  1  0  0  0
 35 68  1  0  0  0
 36 56  1  0  0  0
 36110  1  0  0  0
 37 39  1  0  0  0
 37 47  1  0  0  0
 37 66  1  0  0  0
 37111  1  0  0  0
 38 43  2  0  0  0
 38 46  1  0  0  0
 38 47  1  0  0  0
 39 64  1  0  0  0
 39 67  2  0  0  0
 40 52  1  0  0  0
 40 53  2  0  0  0
 40 58  1  0  0  0
 41112  1  0  0  0
 41113  1  0  0  0
 41114  1  0  0  0
 41 48  1  0  0  0
 42 43  1  0  0  0
 42 66  1  0  0  0
 42115  1  0  0  0
 42116  1  0  0  0
 43 44  1  0  0  0
 44117  1  0  0  0
 45 46  2  0  0  0
 45118  1  0  0  0
 46119  1  0  0  0
 47120  1  0  0  0
 47121  1  0  0  0
 48 56  1  0  0  0
 48 65  1  0  0  0
 48122  1  0  0  0
 49 50  1  0  0  0
 49 53  1  0  0  0
 49 64  1  0  0  0
 49123  1  0  0  0
 50 51  1  0  0  0
 50124  1  0  0  0
 50125  1  0  0  0
 51 52  1  0  0  0
 51126  1  0  0  0
 51127  1  0  0  0
 52128  1  0  0  0
 52129  1  0  0  0
 53 54  1  0  0  0
 54 55  2  0  0  0
 54130  1  0  0  0
 55 57  1  0  0  0
 55131  1  0  0  0
 56 69  2  0  0  0
 57 58  2  0  0  0
 57132  1  0  0  0
 58133  1  0  0  0
 59 60  1  0  0  0
 59 61  1  0  0  0
 59 62  1  0  0  0
 60134  1  0  0  0
 60135  1  0  0  0
 60136  1  0  0  0
 61137  1  0  0  0
 61138  1  0  0  0
 61139  1  0  0  0
 62140  1  0  0  0
 62141  1  0  0  0
 62142  1  0  0  0
 63 65  1  0  0  0
 63143  1  0  0  0
 63144  1  0  0  0
 63145  1  0  0  0
 64146  1  0  0  0
 65147  1  0  0  0
 68 84  1  0  0  0
 71 73  2  0  0  0
 71 74  1  0  0  0
 71148  1  0  0  0
 72 73  1  0  0  0
 72 75  2  0  0  0
 72149  1  0  0  0
 73 86  1  0  0  0
 74 80  1  0  0  0
 74 87  2  0  0  0
 75 85  1  0  0  0
 75 87  1  0  0  0
 76150  1  0  0  0
 76151  1  0  0  0
 76152  1  0  0  0
 76 85  1  0  0  0
 77153  1  0  0  0
 77154  1  0  0  0
 77155  1  0  0  0
 77 86  1  0  0  0
 78 86  1  0  0  0
 78156  1  0  0  0
 78157  1  0  0  0
 78158  1  0  0  0
 79 86  1  0  0  0
 79159  1  0  0  0
 79160  1  0  0  0
 79161  1  0  0  0
 80 81  1  0  0  0
 80162  1  0  0  0
 80163  1  0  0  0
 81 84  1  0  0  0
 81164  1  0  0  0
 81165  1  0  0  0
 82 83  1  0  0  0
 82 85  1  0  0  0
 82166  1  0  0  0
 82167  1  0  0  0
 83 88  1  0  0  0
 83168  1  0  0  0
 83169  1  0  0  0
 84170  1  0  0  0
 84171  1  0  0  0
 85172  1  0  0  0
 88173  1  0  0  0
M  ISO  4   1 100  68 101  84 101  88 100
M  END
> <chiral flag>
0

> <version>
0

> <s_m_source_file>
/data/baiqing/PycharmProjects/Reinvent-master-3.2/result/LINK_invent/BTK/process_docking_weight1_custom_sum_contain_oxygen_bond_distance_aromatic_linkinvent_7_9_3/rearranged_h_0081.sdf

> <i_m_source_file_index>
40

> <r_mmod_Potential_Energy-OPLS-2005>
-313.923187255859

> <r_mmod_Stretch_Energy-OPLS-2005>
36.3328704833984

> <r_mmod_Bend_Energy-OPLS-2005>
111.176856994629

> <r_mmod_Torsional_Energy-OPLS-2005>
200.375427246094

> <r_mmod_Improper_Torsional_Energy-OPLS-2005>
3.77681398391724

> <r_mmod_Van_der_Waal_Energy-OPLS-2005>
163.864105224609

> <r_mmod_Electrostatic_Energy-OPLS-2005>
-630.002746582031

> <r_mmod_Solvation_Energy-OPLS-2005>
-208.971984863281

> <b_mmod_Minimization_Converged-OPLS-2005>
0

> <r_mmod_RMS_Derivative-OPLS-2005>
2.25280618667603

$$$$
40
                    3D
 Structure written by MMmdl.
168176  0  0  1  0            999 V2000
  -30.5996  -14.6068   20.5044 C   0  0  0  0  0  0
  -30.4365  -12.3598   19.4898 C   0  0  0  0  0  0
  -29.5167  -12.4959   18.2551 C   0  0  0  0  0  0
  -28.0433  -12.3088   18.6600 C   0  0  0  0  0  0
  -27.6566  -13.1942   19.8752 C   0  0  2  0  0  0
  -28.6841  -13.0500   21.0221 C   0  0  0  0  0  0
  -25.2595  -13.8009   20.5624 C   0  0  0  0  0  0
  -24.1851  -13.0369   20.9144 C   0  0  0  0  0  0
  -24.6377  -11.6819   20.8693 C   0  0  0  0  0  0
  -23.9052  -10.4273   21.0368 C   0  0  0  0  0  0
  -24.3602   -9.4215   21.9168 C   0  0  0  0  0  0
  -23.6289   -8.2251   22.0752 C   0  0  0  0  0  0
  -22.4292   -8.0259   21.3544 C   0  0  0  0  0  0
  -21.9902   -9.0233   20.4672 C   0  0  0  0  0  0
  -22.7201  -10.2103   20.3076 C   0  0  0  0  0  0
  -21.6845   -6.0768   22.5299 C   0  0  0  0  0  0
  -21.4011   -6.5682   23.8230 C   0  0  0  0  0  0
  -21.3640   -5.6824   24.9187 C   0  0  0  0  0  0
  -21.6026   -4.3080   24.7236 C   0  0  0  0  0  0
  -21.8811   -3.8181   23.4354 C   0  0  0  0  0  0
  -21.9190   -4.7000   22.3416 C   0  0  0  0  0  0
  -22.7902  -13.5218   21.1847 C   0  0  0  0  0  0
  -22.1682   -4.2194   21.0980 F   0  0  0  0  0  0
  -21.5582   -3.4551   25.7727 F   0  0  0  0  0  0
  -30.0130  -13.3716   20.4781 N   0  0  0  0  0  0
  -26.3016  -12.9201   20.3311 N   0  0  0  0  0  0
  -25.9292  -11.6382   20.5740 N   0  0  0  0  0  0
  -22.0562  -12.8231   22.0375 N   0  0  0  0  0  0
  -25.4352  -15.1691   20.4019 N   0  0  0  0  0  0
  -31.7410  -14.7983   20.0784 O   0  0  0  0  0  0
  -21.6630   -6.8874   21.4248 O   0  0  0  0  0  0
  -22.3617  -14.5592   20.6710 O   0  0  0  0  0  0
  -24.6158  -31.8663   23.2018 C   0  0  0  0  0  0
  -25.9017  -32.4801   23.8359 C   0  0  1  0  0  0
  -27.2410  -27.3886   20.1058 C   0  0  0  0  0  0
  -25.5848  -33.8608   24.2290 N   0  0  0  0  0  0
  -23.4075  -30.4881   21.5393 C   0  0  2  0  0  0
  -24.8600  -28.9380   20.1169 C   0  0  0  0  0  0
  -22.7393  -29.4651   22.4881 C   0  0  0  0  0  0
  -18.0236  -28.1395   22.8477 C   0  0  0  0  0  0
  -24.1499  -36.7313   23.2644 C   0  0  0  0  0  0
  -25.9392  -30.8224   21.3533 C   0  0  0  0  0  0
  -26.0233  -29.4453   20.7138 C   0  0  0  0  0  0
  -27.2209  -28.6821   20.6975 C   0  0  0  0  0  0
  -26.0613  -26.9087   19.5081 C   0  0  0  0  0  0
  -24.8774  -27.6702   19.5124 C   0  0  0  0  0  0
  -23.6254  -29.8150   20.1573 C   0  0  0  0  0  0
  -25.4116  -36.3097   24.0339 C   0  0  1  0  0  0
  -20.5848  -28.3710   23.1226 C   0  0  2  0  0  0
  -20.6737  -26.9425   22.5364 C   0  0  0  0  0  0
  -19.5704  -26.6356   21.5204 C   0  0  0  0  0  0
  -18.1892  -26.7937   22.1614 C   0  0  0  0  0  0
  -19.1480  -28.8855   23.2877 C   0  0  0  0  0  0
  -18.9415  -30.1448   23.8909 C   0  0  0  0  0  0
  -17.6405  -30.6585   24.0577 C   0  0  0  0  0  0
  -25.9037  -34.9458   23.5120 C   0  0  0  0  0  0
  -16.5289  -29.9074   23.6342 C   0  0  0  0  0  0
  -16.7216  -28.6490   23.0365 C   0  0  0  0  0  0
  -26.4430  -31.6538   25.0659 C   0  0  0  0  0  0
  -25.3654  -31.3637   26.1356 C   0  0  0  0  0  0
  -27.0237  -30.2993   24.6013 C   0  0  0  0  0  0
  -27.5949  -32.4288   25.7463 C   0  0  0  0  0  0
  -27.5583  -37.1796   24.8474 C   0  0  0  0  0  0
  -21.4109  -29.3053   22.3602 N   0  0  0  0  0  0
  -26.4307  -37.3773   23.9395 N   0  0  0  0  0  0
  -24.6729  -31.0765   22.0882 N   0  0  0  0  0  0
  -23.4144  -28.8176   23.2928 O   0  0  0  0  0  0
  -28.3952  -26.6268   20.0297 O   0  0  0  0  0  0
  -26.5628  -34.8925   22.4703 O   0  0  0  0  0  0
  -23.5325  -32.1377   23.7396 O   0  0  0  0  0  0
  -27.0375  -20.9976   20.3681 C   0  0  0  0  0  0
  -26.4286  -19.8340   20.8977 C   0  0  0  0  0  0
  -28.3586  -20.6737   20.2452 C   0  0  0  0  0  0
  -24.2299  -21.0270   21.2585 C   0  0  0  0  0  0
  -24.9967  -19.2651   22.8824 C   0  0  0  0  0  0
  -24.3353  -18.5991   20.5441 C   0  0  0  0  0  0
  -29.4939  -21.6391   19.9706 C   0  0  0  0  0  0
  -29.2807  -23.1933   19.6812 C   0  0  0  0  0  0
  -28.1592  -24.0391   20.3891 C   0  0  0  0  0  0
  -29.6313  -18.3164   20.5838 C   0  0  0  0  0  0
  -29.4934  -16.8597   19.9395 C   0  0  0  0  0  0
  -28.5116  -25.4792   20.9122 C   0  0  0  0  0  0
  -25.0053  -19.6827   21.3957 C   0  0  0  0  0  0
  -27.2735  -18.8069   20.9126 N   0  0  0  0  0  0
  -28.4727  -19.2751   20.4919 N   0  0  0  0  0  0
  -29.7595  -15.6428   20.7900 N   0  0  0  0  0  0
  -31.4835  -12.4723   19.2078 H   0  0  0  0  0  0
  -30.3542  -11.3604   19.9225 H   0  0  0  0  0  0
  -29.7960  -11.7700   17.4920 H   0  0  0  0  0  0
  -29.6459  -13.4824   17.8121 H   0  0  0  0  0  0
  -27.9129  -11.2535   18.9035 H   0  0  0  0  0  0
  -27.3858  -12.5088   17.8143 H   0  0  0  0  0  0
  -27.6797  -14.2294   19.5293 H   0  0  0  0  0  0
  -28.6752  -12.0342   21.4220 H   0  0  0  0  0  0
  -28.4154  -13.6837   21.8685 H   0  0  0  0  0  0
  -25.2733   -9.5685   22.4771 H   0  0  0  0  0  0
  -23.9983   -7.4638   22.7470 H   0  0  0  0  0  0
  -21.0845   -8.8755   19.8981 H   0  0  0  0  0  0
  -22.3652  -10.9661   19.6225 H   0  0  0  0  0  0
  -21.2033   -7.6196   23.9751 H   0  0  0  0  0  0
  -21.1460   -6.0553   25.9084 H   0  0  0  0  0  0
  -22.0605   -2.7659   23.2826 H   0  0  0  0  0  0
  -22.4173  -11.9835   22.4725 H   0  0  0  0  0  0
  -21.1223  -13.1305   22.2706 H   0  0  0  0  0  0
  -24.6513  -15.8023   20.5165 H   0  0  0  0  0  0
  -26.2906  -15.6326   20.1233 H   0  0  0  0  0  0
  -26.7087  -32.5505   23.1145 H   0  0  0  0  0  0
  -24.9969  -33.9796   25.0403 H   0  0  0  0  0  0
  -22.6970  -31.3048   21.3944 H   0  0  0  0  0  0
  -23.3760  -35.9656   23.3326 H   0  0  0  0  0  0
  -24.3568  -36.8913   22.2054 H   0  0  0  0  0  0
  -23.7285  -37.6529   23.6659 H   0  0  0  0  0  0
  -26.0338  -31.5685   20.5663 H   0  0  0  0  0  0
  -26.8359  -30.9049   21.9536 H   0  0  0  0  0  0
  -28.1275  -29.0689   21.1425 H   0  0  0  0  0  0
  -26.0610  -25.9444   19.0215 H   0  0  0  0  0  0
  -23.9815  -27.2738   19.0548 H   0  0  0  0  0  0
  -23.7371  -30.5850   19.3911 H   0  0  0  0  0  0
  -22.7517  -29.2343   19.8594 H   0  0  0  0  0  0
  -25.1320  -36.1969   25.0840 H   0  0  0  0  0  0
  -20.9969  -28.3339   24.1317 H   0  0  0  0  0  0
  -20.5697  -26.2335   23.3589 H   0  0  0  0  0  0
  -21.6595  -26.7482   22.1105 H   0  0  0  0  0  0
  -19.6852  -25.6251   21.1261 H   0  0  0  0  0  0
  -19.6657  -27.3141   20.6722 H   0  0  0  0  0  0
  -17.4149  -26.6665   21.4015 H   0  0  0  0  0  0
  -18.0293  -26.0102   22.9022 H   0  0  0  0  0  0
  -19.7864  -30.7254   24.2329 H   0  0  0  0  0  0
  -17.4916  -31.6254   24.5183 H   0  0  0  0  0  0
  -15.5282  -30.2970   23.7629 H   0  0  0  0  0  0
  -15.8615  -28.0794   22.7123 H   0  0  0  0  0  0
  -24.5826  -30.7031   25.7597 H   0  0  0  0  0  0
  -24.8875  -32.2795   26.4814 H   0  0  0  0  0  0
  -25.7942  -30.8710   27.0099 H   0  0  0  0  0  0
  -26.2723  -29.6684   24.1221 H   0  0  0  0  0  0
  -27.4152  -29.7263   25.4440 H   0  0  0  0  0  0
  -27.8508  -30.4315   23.9025 H   0  0  0  0  0  0
  -27.2543  -33.3621   26.1952 H   0  0  0  0  0  0
  -28.3843  -32.6787   25.0329 H   0  0  0  0  0  0
  -28.0533  -31.8452   26.5468 H   0  0  0  0  0  0
  -28.2601  -38.0086   24.7501 H   0  0  0  0  0  0
  -28.1087  -36.2621   24.6363 H   0  0  0  0  0  0
  -27.2286  -37.1515   25.8871 H   0  0  0  0  0  0
  -20.9230  -29.8706   21.6786 H   0  0  0  0  0  0
  -26.0199  -38.2844   24.1432 H   0  0  0  0  0  0
  -26.5872  -21.9659   20.1998 H   0  0  0  0  0  0
  -24.7184  -21.8240   21.8213 H   0  0  0  0  0  0
  -23.2109  -20.9498   21.6433 H   0  0  0  0  0  0
  -24.1665  -21.3613   20.2175 H   0  0  0  0  0  0
  -25.4848  -20.0035   23.5196 H   0  0  0  0  0  0
  -25.5142  -18.3133   23.0250 H   0  0  0  0  0  0
  -23.9800  -19.1282   23.2488 H   0  0  0  0  0  0
  -24.4030  -18.8207   19.4758 H   0  0  0  0  0  0
  -23.2953  -18.4419   20.8190 H   0  0  0  0  0  0
  -24.8547  -17.6551   20.6869 H   0  0  0  0  0  0
  -30.0810  -21.2107   19.1548 H   0  0  0  0  0  0
  -30.1068  -21.6061   20.8732 H   0  0  0  0  0  0
  -29.2200  -23.3734   18.6088 H   0  0  0  0  0  0
  -30.2316  -23.6543   19.9399 H   0  0  0  0  0  0
  -27.2544  -24.0869   19.7808 H   0  0  0  0  0  0
  -27.8826  -23.4799   21.2808 H   0  0  0  0  0  0
  -30.5169  -18.8022   20.1666 H   0  0  0  0  0  0
  -29.8335  -18.1880   21.6442 H   0  0  0  0  0  0
  -30.1173  -16.7801   19.0491 H   0  0  0  0  0  0
  -28.4888  -16.7308   19.5405 H   0  0  0  0  0  0
  -29.5339  -25.4657   21.2933 H   0  0  0  0  0  0
  -27.9002  -25.6719   21.7959 H   0  0  0  0  0  0
  -28.9827  -15.3591   21.3652 H   0  0  0  0  0  0
  1 25  1  0  0  0
  1 30  2  0  0  0
  1 86  1  0  0  0
  2  3  1  0  0  0
  2 25  1  0  0  0
  2 87  1  0  0  0
  2 88  1  0  0  0
  3  4  1  0  0  0
  3 89  1  0  0  0
  3 90  1  0  0  0
  4  5  1  0  0  0
  4 91  1  0  0  0
  4 92  1  0  0  0
  5  6  1  0  0  0
  5 26  1  0  0  0
  5 93  1  0  0  0
  6 25  1  0  0  0
  6 94  1  0  0  0
  6 95  1  0  0  0
  7  8  2  0  0  0
  7 26  1  0  0  0
  7 29  1  0  0  0
  8  9  1  0  0  0
  8 22  1  0  0  0
  9 10  1  0  0  0
  9 27  2  0  0  0
 10 11  2  0  0  0
 10 15  1  0  0  0
 11 12  1  0  0  0
 11 96  1  0  0  0
 12 13  2  0  0  0
 12 97  1  0  0  0
 13 14  1  0  0  0
 13 31  1  0  0  0
 14 15  2  0  0  0
 14 98  1  0  0  0
 15 99  1  0  0  0
 16 17  2  0  0  0
 16 21  1  0  0  0
 16 31  1  0  0  0
 17 18  1  0  0  0
 17100  1  0  0  0
 18 19  2  0  0  0
 18101  1  0  0  0
 19 20  1  0  0  0
 19 24  1  0  0  0
 20 21  2  0  0  0
 20102  1  0  0  0
 21 23  1  0  0  0
 22 28  1  0  0  0
 22 32  2  0  0  0
 26 27  1  0  0  0
 28103  1  0  0  0
 28104  1  0  0  0
 29105  1  0  0  0
 29106  1  0  0  0
 33 34  1  0  0  0
 33 66  1  0  0  0
 33 70  2  0  0  0
 34 36  1  0  0  0
 34 59  1  0  0  0
 34107  1  0  0  0
 35 44  2  0  0  0
 35 45  1  0  0  0
 35 68  1  0  0  0
 36 56  1  0  0  0
 36108  1  0  0  0
 37 39  1  0  0  0
 37 47  1  0  0  0
 37 66  1  0  0  0
 37109  1  0  0  0
 38 43  2  0  0  0
 38 46  1  0  0  0
 38 47  1  0  0  0
 39 64  1  0  0  0
 39 67  2  0  0  0
 40 52  1  0  0  0
 40 53  2  0  0  0
 40 58  1  0  0  0
 41110  1  0  0  0
 41111  1  0  0  0
 41112  1  0  0  0
 41 48  1  0  0  0
 42 43  1  0  0  0
 42 66  1  0  0  0
 42113  1  0  0  0
 42114  1  0  0  0
 43 44  1  0  0  0
 44115  1  0  0  0
 45 46  2  0  0  0
 45116  1  0  0  0
 46117  1  0  0  0
 47118  1  0  0  0
 47119  1  0  0  0
 48 56  1  0  0  0
 48 65  1  0  0  0
 48120  1  0  0  0
 49 50  1  0  0  0
 49 53  1  0  0  0
 49 64  1  0  0  0
 49121  1  0  0  0
 50 51  1  0  0  0
 50122  1  0  0  0
 50123  1  0  0  0
 51 52  1  0  0  0
 51124  1  0  0  0
 51125  1  0  0  0
 52126  1  0  0  0
 52127  1  0  0  0
 53 54  1  0  0  0
 54 55  2  0  0  0
 54128  1  0  0  0
 55 57  1  0  0  0
 55129  1  0  0  0
 56 69  2  0  0  0
 57 58  2  0  0  0
 57130  1  0  0  0
 58131  1  0  0  0
 59 60  1  0  0  0
 59 61  1  0  0  0
 59 62  1  0  0  0
 60132  1  0  0  0
 60133  1  0  0  0
 60134  1  0  0  0
 61135  1  0  0  0
 61136  1  0  0  0
 61137  1  0  0  0
 62138  1  0  0  0
 62139  1  0  0  0
 62140  1  0  0  0
 63 65  1  0  0  0
 63141  1  0  0  0
 63142  1  0  0  0
 63143  1  0  0  0
 64144  1  0  0  0
 65145  1  0  0  0
 68 82  1  0  0  0
 71 72  1  0  0  0
 71 73  2  0  0  0
 71146  1  0  0  0
 72 83  1  0  0  0
 72 84  2  0  0  0
 73 77  1  0  0  0
 73 85  1  0  0  0
 74147  1  0  0  0
 74148  1  0  0  0
 74149  1  0  0  0
 74 83  1  0  0  0
 75 83  1  0  0  0
 75150  1  0  0  0
 75151  1  0  0  0
 75152  1  0  0  0
 76 83  1  0  0  0
 76153  1  0  0  0
 76154  1  0  0  0
 76155  1  0  0  0
 77 78  1  0  0  0
 77156  1  0  0  0
 77157  1  0  0  0
 78 79  1  0  0  0
 78158  1  0  0  0
 78159  1  0  0  0
 79 82  1  0  0  0
 79160  1  0  0  0
 79161  1  0  0  0
 80 81  1  0  0  0
 80 85  1  0  0  0
 80162  1  0  0  0
 80163  1  0  0  0
 81 86  1  0  0  0
 81164  1  0  0  0
 81165  1  0  0  0
 82166  1  0  0  0
 82167  1  0  0  0
 84 85  1  0  0  0
 86168  1  0  0  0
M  ISO  4   1 100  68 101  82 101  86 100
M  END
> <chiral flag>
0

> <version>
0

> <s_m_source_file>
/data/baiqing/PycharmProjects/Reinvent-master-3.2/result/LINK_invent/BTK/process_docking_weight1_custom_sum_contain_oxygen_bond_distance_aromatic_linkinvent_7_9_3/rearranged_h_0081.sdf

> <i_m_source_file_index>
41

> <r_mmod_Potential_Energy-OPLS-2005>
23.1320457458496

> <r_mmod_Stretch_Energy-OPLS-2005>
67.9200439453125

> <r_mmod_Bend_Energy-OPLS-2005>
159.750503540039

> <r_mmod_Torsional_Energy-OPLS-2005>
280.593963623047

> <r_mmod_Improper_Torsional_Energy-OPLS-2005>
9.18500232696533

> <r_mmod_Van_der_Waal_Energy-OPLS-2005>
117.198631286621

> <r_mmod_Electrostatic_Energy-OPLS-2005>
-443.744110107422

> <r_mmod_Solvation_Energy-OPLS-2005>
-199.376846313477

> <b_mmod_Minimization_Converged-OPLS-2005>
0

> <r_mmod_RMS_Derivative-OPLS-2005>
9.07669925689697

$$$$
41
                    3D
 Structure written by MMmdl.
173181  0  0  1  0            999 V2000
  -30.7066  -14.4808   20.5063 C   0  0  0  0  0  0
  -30.4149  -12.2901   19.4353 C   0  0  0  0  0  0
  -29.4958  -12.4796   18.2102 C   0  0  0  0  0  0
  -28.0151  -12.3532   18.6193 C   0  0  0  0  0  0
  -27.6582  -13.2107   19.8645 C   0  0  2  0  0  0
  -28.7015  -13.0260   20.9919 C   0  0  0  0  0  0
  -25.2577  -13.8168   20.5684 C   0  0  0  0  0  0
  -24.1830  -13.0433   20.9176 C   0  0  0  0  0  0
  -24.6389  -11.6907   20.8725 C   0  0  0  0  0  0
  -23.9058  -10.4283   21.0387 C   0  0  0  0  0  0
  -24.3608   -9.4199   21.9174 C   0  0  0  0  0  0
  -23.6284   -8.2237   22.0758 C   0  0  0  0  0  0
  -22.4273   -8.0265   21.3544 C   0  0  0  0  0  0
  -21.9899   -9.0233   20.4650 C   0  0  0  0  0  0
  -22.7226  -10.2110   20.3045 C   0  0  0  0  0  0
  -21.6850   -6.0725   22.5275 C   0  0  0  0  0  0
  -21.4011   -6.5633   23.8207 C   0  0  0  0  0  0
  -21.3660   -5.6792   24.9176 C   0  0  0  0  0  0
  -21.6044   -4.3056   24.7232 C   0  0  0  0  0  0
  -21.8818   -3.8139   23.4358 C   0  0  0  0  0  0
  -21.9191   -4.6951   22.3406 C   0  0  0  0  0  0
  -22.7852  -13.5222   21.1828 C   0  0  0  0  0  0
  -22.1662   -4.2135   21.0986 F   0  0  0  0  0  0
  -21.5629   -3.4539   25.7748 F   0  0  0  0  0  0
  -30.0330  -13.3018   20.4327 N   0  0  0  0  0  0
  -26.3007  -12.9350   20.3330 N   0  0  0  0  0  0
  -25.9320  -11.6506   20.5749 N   0  0  0  0  0  0
  -22.0504  -12.8205   22.0393 N   0  0  0  0  0  0
  -25.4267  -15.1885   20.4102 N   0  0  0  0  0  0
  -31.8559  -14.6211   20.0838 O   0  0  0  0  0  0
  -21.6636   -6.8860   21.4241 O   0  0  0  0  0  0
  -22.3525  -14.5518   20.6671 O   0  0  0  0  0  0
  -24.6135  -31.8691   23.2104 C   0  0  0  0  0  0
  -25.9041  -32.4812   23.8395 C   0  0  1  0  0  0
  -27.2399  -27.4406   20.1242 C   0  0  0  0  0  0
  -25.5915  -33.8604   24.2325 N   0  0  0  0  0  0
  -23.4023  -30.4916   21.5486 C   0  0  2  0  0  0
  -24.8512  -28.9521   20.1188 C   0  0  0  0  0  0
  -22.7419  -29.4689   22.5002 C   0  0  0  0  0  0
  -18.0271  -28.1388   22.8474 C   0  0  0  0  0  0
  -24.1489  -36.7330   23.2640 C   0  0  0  0  0  0
  -25.9281  -30.8412   21.3602 C   0  0  0  0  0  0
  -26.0101  -29.4746   20.7106 C   0  0  0  0  0  0
  -27.2094  -28.7297   20.7006 C   0  0  0  0  0  0
  -26.0694  -26.9258   19.5273 C   0  0  0  0  0  0
  -24.8774  -27.6776   19.5222 C   0  0  0  0  0  0
  -23.6111  -29.8160   20.1655 C   0  0  0  0  0  0
  -25.4100  -36.3087   24.0320 C   0  0  1  0  0  0
  -20.5872  -28.3680   23.1321 C   0  0  2  0  0  0
  -20.6759  -26.9419   22.5426 C   0  0  0  0  0  0
  -19.5733  -26.6401   21.5213 C   0  0  0  0  0  0
  -18.1911  -26.7936   22.1620 C   0  0  0  0  0  0
  -19.1524  -28.8846   23.2896 C   0  0  0  0  0  0
  -18.9438  -30.1451   23.8906 C   0  0  0  0  0  0
  -17.6438  -30.6590   24.0548 C   0  0  0  0  0  0
  -25.9032  -34.9453   23.5115 C   0  0  0  0  0  0
  -16.5332  -29.9095   23.6309 C   0  0  0  0  0  0
  -16.7262  -28.6531   23.0304 C   0  0  0  0  0  0
  -26.4461  -31.6592   25.0733 C   0  0  0  0  0  0
  -25.3722  -31.3704   26.1489 C   0  0  0  0  0  0
  -27.0299  -30.3018   24.6145 C   0  0  0  0  0  0
  -27.6035  -32.4338   25.7485 C   0  0  0  0  0  0
  -27.5575  -37.1804   24.8449 C   0  0  0  0  0  0
  -21.4151  -29.3059   22.3732 N   0  0  0  0  0  0
  -26.4275  -37.3767   23.9407 N   0  0  0  0  0  0
  -24.6653  -31.0818   22.0985 N   0  0  0  0  0  0
  -23.4198  -28.8254   23.3053 O   0  0  0  0  0  0
  -28.4157  -26.7264   20.1110 O   0  0  0  0  0  0
  -26.5571  -34.8916   22.4655 O   0  0  0  0  0  0
  -23.5333  -32.1443   23.7508 O   0  0  0  0  0  0
  -29.2487  -21.8865   20.1268 C   0  0  0  0  0  0
  -29.7533  -23.1822   20.3886 C   0  0  0  0  0  0
  -30.9667  -23.2789   21.1245 C   0  0  0  0  0  0
  -29.9628  -20.7440   20.5578 C   0  0  0  0  0  0
  -31.5964  -22.0809   21.5497 C   0  0  0  0  0  0
  -31.6229  -24.6279   21.4180 C   0  0  0  0  0  0
  -32.1077  -22.7255   24.6592 C   0  0  0  0  0  0
  -29.9894  -18.2727   22.3883 C   0  0  0  0  0  0
  -27.9698  -17.7121   21.0276 C   0  0  0  0  0  0
  -29.0891  -24.4094   19.7434 C   0  0  0  0  0  0
  -29.6241  -19.3483   20.0087 C   0  0  0  0  0  0
  -32.9211  -22.0475   22.3124 C   0  0  0  0  0  0
  -32.7863  -21.6518   23.7959 C   0  0  0  0  0  0
  -30.2752  -16.9093   20.3113 C   0  0  0  0  0  0
  -28.3990  -25.4132   20.6960 C   0  0  0  0  0  0
  -29.4680  -18.0829   20.9482 C   0  0  0  0  0  0
  -31.1181  -20.8603   21.2400 N   0  0  0  0  0  0
  -29.9646  -15.5598   20.8177 N   0  0  0  0  0  0
  -31.4632  -12.3597   19.1392 H   0  0  0  0  0  0
  -30.2915  -11.2900   19.8545 H   0  0  0  0  0  0
  -29.7333  -11.7390   17.4449 H   0  0  0  0  0  0
  -29.6724  -13.4566   17.7572 H   0  0  0  0  0  0
  -27.8209  -11.2998   18.8281 H   0  0  0  0  0  0
  -27.3681  -12.6168   17.7824 H   0  0  0  0  0  0
  -27.6908  -14.2528   19.5437 H   0  0  0  0  0  0
  -28.6717  -12.0043   21.3730 H   0  0  0  0  0  0
  -28.4769  -13.6700   21.8434 H   0  0  0  0  0  0
  -25.2759   -9.5674   22.4743 H   0  0  0  0  0  0
  -23.9993   -7.4630   22.7478 H   0  0  0  0  0  0
  -21.0833   -8.8733   19.8959 H   0  0  0  0  0  0
  -22.3678  -10.9636   19.6140 H   0  0  0  0  0  0
  -21.2002   -7.6141   23.9703 H   0  0  0  0  0  0
  -21.1490   -6.0531   25.9076 H   0  0  0  0  0  0
  -22.0600   -2.7600   23.2864 H   0  0  0  0  0  0
  -22.4140  -11.9874   22.4780 H   0  0  0  0  0  0
  -21.1110  -13.1204   22.2584 H   0  0  0  0  0  0
  -24.6606  -15.8419   20.5313 H   0  0  0  0  0  0
  -26.2762  -15.6306   20.0874 H   0  0  0  0  0  0
  -26.7122  -32.5534   23.1201 H   0  0  0  0  0  0
  -25.0027  -33.9737   25.0434 H   0  0  0  0  0  0
  -22.6870  -31.3041   21.4068 H   0  0  0  0  0  0
  -23.3726  -35.9692   23.3291 H   0  0  0  0  0  0
  -24.3593  -36.8975   22.2064 H   0  0  0  0  0  0
  -23.7308  -37.6550   23.6670 H   0  0  0  0  0  0
  -26.0374  -31.6083   20.5922 H   0  0  0  0  0  0
  -26.8168  -30.8998   21.9779 H   0  0  0  0  0  0
  -28.1098  -29.1314   21.1469 H   0  0  0  0  0  0
  -26.0821  -25.9474   19.0676 H   0  0  0  0  0  0
  -23.9898  -27.2640   19.0653 H   0  0  0  0  0  0
  -23.7163  -30.5856   19.4006 H   0  0  0  0  0  0
  -22.7348  -29.2322   19.8743 H   0  0  0  0  0  0
  -25.1284  -36.1906   25.0805 H   0  0  0  0  0  0
  -20.9928  -28.3256   24.1459 H   0  0  0  0  0  0
  -20.5680  -26.2292   23.3628 H   0  0  0  0  0  0
  -21.6623  -26.7479   22.1206 H   0  0  0  0  0  0
  -19.6885  -25.6313   21.1253 H   0  0  0  0  0  0
  -19.6658  -27.3190   20.6723 H   0  0  0  0  0  0
  -17.4186  -26.6668   21.4021 H   0  0  0  0  0  0
  -18.0303  -26.0073   22.9012 H   0  0  0  0  0  0
  -19.7904  -30.7241   24.2323 H   0  0  0  0  0  0
  -17.4994  -31.6263   24.5154 H   0  0  0  0  0  0
  -15.5338  -30.2974   23.7670 H   0  0  0  0  0  0
  -15.8661  -28.0873   22.6979 H   0  0  0  0  0  0
  -24.5854  -30.7101   25.7839 H   0  0  0  0  0  0
  -24.8974  -32.2865   26.4991 H   0  0  0  0  0  0
  -25.8083  -30.8829   27.0218 H   0  0  0  0  0  0
  -26.2857  -29.6773   24.1191 H   0  0  0  0  0  0
  -27.4040  -29.7254   25.4622 H   0  0  0  0  0  0
  -27.8698  -30.4334   23.9316 H   0  0  0  0  0  0
  -27.2650  -33.3631   26.2069 H   0  0  0  0  0  0
  -28.3824  -32.6932   25.0297 H   0  0  0  0  0  0
  -28.0718  -31.8475   26.5395 H   0  0  0  0  0  0
  -28.2562  -38.0124   24.7484 H   0  0  0  0  0  0
  -28.1107  -36.2657   24.6265 H   0  0  0  0  0  0
  -27.2292  -37.1430   25.8848 H   0  0  0  0  0  0
  -20.9333  -29.8808   21.6955 H   0  0  0  0  0  0
  -26.0151  -38.2849   24.1393 H   0  0  0  0  0  0
  -28.3728  -21.7655   19.5036 H   0  0  0  0  0  0
  -31.1489  -25.4787   20.9350 H   0  0  0  0  0  0
  -32.6587  -24.6393   21.0749 H   0  0  0  0  0  0
  -31.6058  -24.8178   22.4911 H   0  0  0  0  0  0
  -32.0524  -22.4078   25.7008 H   0  0  0  0  0  0
  -31.0905  -22.9231   24.3192 H   0  0  0  0  0  0
  -32.6583  -23.6665   24.6254 H   0  0  0  0  0  0
  -29.5035  -19.1045   22.8969 H   0  0  0  0  0  0
  -31.0640  -18.4602   22.3958 H   0  0  0  0  0  0
  -29.8294  -17.3786   22.9903 H   0  0  0  0  0  0
  -27.3758  -18.5434   21.4114 H   0  0  0  0  0  0
  -27.7888  -16.8642   21.6883 H   0  0  0  0  0  0
  -27.5676  -17.4565   20.0463 H   0  0  0  0  0  0
  -28.3695  -24.0923   18.9902 H   0  0  0  0  0  0
  -29.8637  -24.9290   19.1815 H   0  0  0  0  0  0
  -30.4215  -19.1607   19.2897 H   0  0  0  0  0  0
  -28.7376  -19.4429   19.3811 H   0  0  0  0  0  0
  -33.4601  -22.9887   22.2360 H   0  0  0  0  0  0
  -33.5659  -21.3225   21.8139 H   0  0  0  0  0  0
  -32.2499  -20.7048   23.8839 H   0  0  0  0  0  0
  -33.7870  -21.4715   24.1911 H   0  0  0  0  0  0
  -31.3424  -17.1126   20.4251 H   0  0  0  0  0  0
  -30.0984  -16.8841   19.2331 H   0  0  0  0  0  0
  -28.9562  -25.4832   21.6301 H   0  0  0  0  0  0
  -27.4025  -25.0601   20.9694 H   0  0  0  0  0  0
  -29.0283  -15.3951   21.1514 H   0  0  0  0  0  0
  1 25  1  0  0  0
  1 30  2  0  0  0
  1 88  1  0  0  0
  2  3  1  0  0  0
  2 25  1  0  0  0
  2 89  1  0  0  0
  2 90  1  0  0  0
  3  4  1  0  0  0
  3 91  1  0  0  0
  3 92  1  0  0  0
  4  5  1  0  0  0
  4 93  1  0  0  0
  4 94  1  0  0  0
  5  6  1  0  0  0
  5 26  1  0  0  0
  5 95  1  0  0  0
  6 25  1  0  0  0
  6 96  1  0  0  0
  6 97  1  0  0  0
  7  8  2  0  0  0
  7 26  1  0  0  0
  7 29  1  0  0  0
  8  9  1  0  0  0
  8 22  1  0  0  0
  9 10  1  0  0  0
  9 27  2  0  0  0
 10 11  2  0  0  0
 10 15  1  0  0  0
 11 12  1  0  0  0
 11 98  1  0  0  0
 12 13  2  0  0  0
 12 99  1  0  0  0
 13 14  1  0  0  0
 13 31  1  0  0  0
 14 15  2  0  0  0
 14100  1  0  0  0
 15101  1  0  0  0
 16 17  2  0  0  0
 16 21  1  0  0  0
 16 31  1  0  0  0
 17 18  1  0  0  0
 17102  1  0  0  0
 18 19  2  0  0  0
 18103  1  0  0  0
 19 20  1  0  0  0
 19 24  1  0  0  0
 20 21  2  0  0  0
 20104  1  0  0  0
 21 23  1  0  0  0
 22 28  1  0  0  0
 22 32  2  0  0  0
 26 27  1  0  0  0
 28105  1  0  0  0
 28106  1  0  0  0
 29107  1  0  0  0
 29108  1  0  0  0
 33 34  1  0  0  0
 33 66  1  0  0  0
 33 70  2  0  0  0
 34 36  1  0  0  0
 34 59  1  0  0  0
 34109  1  0  0  0
 35 44  2  0  0  0
 35 45  1  0  0  0
 35 68  1  0  0  0
 36 56  1  0  0  0
 36110  1  0  0  0
 37 39  1  0  0  0
 37 47  1  0  0  0
 37 66  1  0  0  0
 37111  1  0  0  0
 38 43  2  0  0  0
 38 46  1  0  0  0
 38 47  1  0  0  0
 39 64  1  0  0  0
 39 67  2  0  0  0
 40 52  1  0  0  0
 40 53  2  0  0  0
 40 58  1  0  0  0
 41112  1  0  0  0
 41113  1  0  0  0
 41114  1  0  0  0
 41 48  1  0  0  0
 42 43  1  0  0  0
 42 66  1  0  0  0
 42115  1  0  0  0
 42116  1  0  0  0
 43 44  1  0  0  0
 44117  1  0  0  0
 45 46  2  0  0  0
 45118  1  0  0  0
 46119  1  0  0  0
 47120  1  0  0  0
 47121  1  0  0  0
 48 56  1  0  0  0
 48 65  1  0  0  0
 48122  1  0  0  0
 49 50  1  0  0  0
 49 53  1  0  0  0
 49 64  1  0  0  0
 49123  1  0  0  0
 50 51  1  0  0  0
 50124  1  0  0  0
 50125  1  0  0  0
 51 52  1  0  0  0
 51126  1  0  0  0
 51127  1  0  0  0
 52128  1  0  0  0
 52129  1  0  0  0
 53 54  1  0  0  0
 54 55  2  0  0  0
 54130  1  0  0  0
 55 57  1  0  0  0
 55131  1  0  0  0
 56 69  2  0  0  0
 57 58  2  0  0  0
 57132  1  0  0  0
 58133  1  0  0  0
 59 60  1  0  0  0
 59 61  1  0  0  0
 59 62  1  0  0  0
 60134  1  0  0  0
 60135  1  0  0  0
 60136  1  0  0  0
 61137  1  0  0  0
 61138  1  0  0  0
 61139  1  0  0  0
 62140  1  0  0  0
 62141  1  0  0  0
 62142  1  0  0  0
 63 65  1  0  0  0
 63143  1  0  0  0
 63144  1  0  0  0
 63145  1  0  0  0
 64146  1  0  0  0
 65147  1  0  0  0
 68 85  1  0  0  0
 71 72  2  0  0  0
 71 74  1  0  0  0
 71148  1  0  0  0
 72 73  1  0  0  0
 72 80  1  0  0  0
 73 75  2  0  0  0
 73 76  1  0  0  0
 74 81  1  0  0  0
 74 87  2  0  0  0
 75 82  1  0  0  0
 75 87  1  0  0  0
 76149  1  0  0  0
 76150  1  0  0  0
 76151  1  0  0  0
 77 83  1  0  0  0
 77152  1  0  0  0
 77153  1  0  0  0
 77154  1  0  0  0
 78155  1  0  0  0
 78156  1  0  0  0
 78157  1  0  0  0
 78 86  1  0  0  0
 79 86  1  0  0  0
 79158  1  0  0  0
 79159  1  0  0  0
 79160  1  0  0  0
 80 85  1  0  0  0
 80161  1  0  0  0
 80162  1  0  0  0
 81 86  1  0  0  0
 81163  1  0  0  0
 81164  1  0  0  0
 82 83  1  0  0  0
 82165  1  0  0  0
 82166  1  0  0  0
 83167  1  0  0  0
 83168  1  0  0  0
 84 86  1  0  0  0
 84 88  1  0  0  0
 84169  1  0  0  0
 84170  1  0  0  0
 85171  1  0  0  0
 85172  1  0  0  0
 88173  1  0  0  0
M  ISO  4   1 100  68 101  85 101  88 100
M  END
> <chiral flag>
0

> <version>
0

> <s_m_source_file>
/data/baiqing/PycharmProjects/Reinvent-master-3.2/result/LINK_invent/BTK/process_docking_weight1_custom_sum_contain_oxygen_bond_distance_aromatic_linkinvent_7_9_3/rearranged_h_0081.sdf

> <i_m_source_file_index>
42

> <r_mmod_Potential_Energy-OPLS-2005>
-139.720031738281

> <r_mmod_Stretch_Energy-OPLS-2005>
42.6610641479492

> <r_mmod_Bend_Energy-OPLS-2005>
118.307731628418

> <r_mmod_Torsional_Energy-OPLS-2005>
236.246292114258

> <r_mmod_Improper_Torsional_Energy-OPLS-2005>
9.82663536071777

> <r_mmod_Van_der_Waal_Energy-OPLS-2005>
156.073974609375

> <r_mmod_Electrostatic_Energy-OPLS-2005>
-508.998413085938

> <r_mmod_Solvation_Energy-OPLS-2005>
-209.030303955078

> <b_mmod_Minimization_Converged-OPLS-2005>
0

> <r_mmod_RMS_Derivative-OPLS-2005>
3.22108340263367

$$$$
42
                    3D
 Structure written by MMmdl.
160168  0  0  1  0            999 V2000
  -30.6984  -14.6078   20.5257 C   0  0  0  0  0  0
  -30.4221  -12.3842   19.4515 C   0  0  0  0  0  0
  -29.4997  -12.5038   18.2212 C   0  0  0  0  0  0
  -28.0246  -12.3478   18.6364 C   0  0  0  0  0  0
  -27.6499  -13.2271   19.8597 C   0  0  2  0  0  0
  -28.6970  -13.1123   20.9904 C   0  0  0  0  0  0
  -25.2541  -13.8199   20.5688 C   0  0  0  0  0  0
  -24.1820  -13.0448   20.9181 C   0  0  0  0  0  0
  -24.6402  -11.6923   20.8735 C   0  0  0  0  0  0
  -23.9078  -10.4297   21.0401 C   0  0  0  0  0  0
  -24.3623   -9.4210   21.9179 C   0  0  0  0  0  0
  -23.6293   -8.2254   22.0753 C   0  0  0  0  0  0
  -22.4277   -8.0289   21.3546 C   0  0  0  0  0  0
  -21.9916   -9.0257   20.4643 C   0  0  0  0  0  0
  -22.7251  -10.2135   20.3047 C   0  0  0  0  0  0
  -21.6853   -6.0734   22.5275 C   0  0  0  0  0  0
  -21.4017   -6.5641   23.8205 C   0  0  0  0  0  0
  -21.3659   -5.6794   24.9170 C   0  0  0  0  0  0
  -21.6044   -4.3055   24.7223 C   0  0  0  0  0  0
  -21.8819   -3.8144   23.4344 C   0  0  0  0  0  0
  -21.9198   -4.6961   22.3401 C   0  0  0  0  0  0
  -22.7842  -13.5233   21.1850 C   0  0  0  0  0  0
  -22.1662   -4.2145   21.0976 F   0  0  0  0  0  0
  -21.5632   -3.4538   25.7737 F   0  0  0  0  0  0
  -30.0126  -13.4270   20.4152 N   0  0  0  0  0  0
  -26.2979  -12.9399   20.3329 N   0  0  0  0  0  0
  -25.9335  -11.6539   20.5768 N   0  0  0  0  0  0
  -22.0490  -12.8211   22.0398 N   0  0  0  0  0  0
  -25.4246  -15.1923   20.4090 N   0  0  0  0  0  0
  -31.8622  -14.7039   20.1309 O   0  0  0  0  0  0
  -21.6648   -6.8876   21.4233 O   0  0  0  0  0  0
  -22.3521  -14.5541   20.6703 O   0  0  0  0  0  0
  -24.6312  -31.8620   23.2062 C   0  0  0  0  0  0
  -25.9163  -32.4788   23.8370 C   0  0  1  0  0  0
  -27.2054  -27.2994   20.0988 C   0  0  0  0  0  0
  -25.5985  -33.8587   24.2293 N   0  0  0  0  0  0
  -23.4244  -30.4951   21.5496 C   0  0  2  0  0  0
  -24.8654  -28.9664   20.1054 C   0  0  0  0  0  0
  -22.7503  -29.4658   22.4907 C   0  0  0  0  0  0
  -18.0304  -28.1404   22.8506 C   0  0  0  0  0  0
  -24.1488  -36.7275   23.2638 C   0  0  0  0  0  0
  -25.9729  -30.7845   21.3852 C   0  0  0  0  0  0
  -26.0406  -29.4145   20.7215 C   0  0  0  0  0  0
  -27.2138  -28.5925   20.7179 C   0  0  0  0  0  0
  -26.0033  -26.9452   19.4277 C   0  0  0  0  0  0
  -24.8501  -27.7358   19.4485 C   0  0  0  0  0  0
  -23.6380  -29.8487   20.1595 C   0  0  0  0  0  0
  -25.4118  -36.3078   24.0330 C   0  0  1  0  0  0
  -20.5918  -28.3711   23.1270 C   0  0  2  0  0  0
  -20.6797  -26.9429   22.5402 C   0  0  0  0  0  0
  -19.5759  -26.6400   21.5219 C   0  0  0  0  0  0
  -18.1944  -26.7955   22.1636 C   0  0  0  0  0  0
  -19.1564  -28.8875   23.2886 C   0  0  0  0  0  0
  -18.9475  -30.1481   23.8885 C   0  0  0  0  0  0
  -17.6471  -30.6599   24.0580 C   0  0  0  0  0  0
  -25.9071  -34.9455   23.5100 C   0  0  0  0  0  0
  -16.5361  -29.9103   23.6339 C   0  0  0  0  0  0
  -16.7294  -28.6527   23.0348 C   0  0  0  0  0  0
  -26.4529  -31.6588   25.0732 C   0  0  0  0  0  0
  -25.3754  -31.3727   26.1444 C   0  0  0  0  0  0
  -27.0376  -30.3018   24.6177 C   0  0  0  0  0  0
  -27.6078  -32.4323   25.7510 C   0  0  0  0  0  0
  -27.5575  -37.1799   24.8475 C   0  0  0  0  0  0
  -21.4217  -29.3062   22.3650 N   0  0  0  0  0  0
  -26.4285  -37.3779   23.9422 N   0  0  0  0  0  0
  -24.6953  -31.0636   22.1024 N   0  0  0  0  0  0
  -23.4231  -28.8159   23.2957 O   0  0  0  0  0  0
  -28.2734  -26.3692   20.1722 O   0  0  0  0  0  0
  -26.5604  -34.8928   22.4642 O   0  0  0  0  0  0
  -23.5474  -32.1408   23.7390 O   0  0  0  0  0  0
  -29.4390  -23.2279   21.1706 C   0  0  0  0  0  0
  -28.4250  -21.3230   19.5273 C   0  0  0  0  0  0
  -28.6332  -23.6192   20.0614 C   0  0  0  0  0  0
  -29.1524  -20.9223   20.6820 C   0  0  0  0  0  0
  -29.9642  -24.2472   22.1598 C   0  0  0  0  0  0
  -27.7986  -20.3149   18.5808 C   0  0  0  0  0  0
  -29.1446  -19.3850   22.7344 C   0  0  0  0  0  0
  -27.8744  -24.9784   19.8191 C   0  0  0  0  0  0
  -30.2206  -18.4034   20.5621 C   0  0  0  0  0  0
  -30.6357  -17.0503   21.3102 C   0  0  0  0  0  0
  -29.1765  -19.4233   21.1934 C   0  0  2  0  0  0
  -28.1896  -22.6325   19.2274 N   0  0  0  0  0  0
  -29.7209  -21.9070   21.4500 N   0  0  0  0  0  0
  -30.0243  -15.7207   20.9509 N   0  0  0  0  0  0
  -31.4661  -12.4791   19.1477 H   0  0  0  0  0  0
  -30.3334  -11.3959   19.9050 H   0  0  0  0  0  0
  -29.7601  -11.7503   17.4764 H   0  0  0  0  0  0
  -29.6479  -13.4727   17.7421 H   0  0  0  0  0  0
  -27.8581  -11.2959   18.8710 H   0  0  0  0  0  0
  -27.3706  -12.5773   17.7952 H   0  0  0  0  0  0
  -27.6623  -14.2594   19.5077 H   0  0  0  0  0  0
  -28.7025  -12.1056   21.4112 H   0  0  0  0  0  0
  -28.4490  -13.7828   21.8144 H   0  0  0  0  0  0
  -25.2765   -9.5693   22.4754 H   0  0  0  0  0  0
  -23.9999   -7.4649   22.7482 H   0  0  0  0  0  0
  -21.0849   -8.8770   19.8951 H   0  0  0  0  0  0
  -22.3702  -10.9666   19.6154 H   0  0  0  0  0  0
  -21.1998   -7.6146   23.9708 H   0  0  0  0  0  0
  -21.1485   -6.0523   25.9073 H   0  0  0  0  0  0
  -22.0597   -2.7605   23.2846 H   0  0  0  0  0  0
  -22.4103  -11.9855   22.4750 H   0  0  0  0  0  0
  -21.1115  -13.1232   22.2625 H   0  0  0  0  0  0
  -24.6549  -15.8460   20.5066 H   0  0  0  0  0  0
  -26.2755  -15.6304   20.0785 H   0  0  0  0  0  0
  -26.7224  -32.5443   23.1113 H   0  0  0  0  0  0
  -25.0225  -33.9731   25.0507 H   0  0  0  0  0  0
  -22.7197  -31.3182   21.4148 H   0  0  0  0  0  0
  -23.3756  -35.9600   23.3305 H   0  0  0  0  0  0
  -24.3590  -36.8879   22.2052 H   0  0  0  0  0  0
  -23.7225  -37.6476   23.6648 H   0  0  0  0  0  0
  -26.1161  -31.5486   20.6198 H   0  0  0  0  0  0
  -26.8517  -30.8232   22.0157 H   0  0  0  0  0  0
  -28.1070  -28.9274   21.2265 H   0  0  0  0  0  0
  -25.8788  -26.0281   18.8736 H   0  0  0  0  0  0
  -23.9578  -27.3926   18.9424 H   0  0  0  0  0  0
  -23.7626  -30.6335   19.4132 H   0  0  0  0  0  0
  -22.7549  -29.2879   19.8482 H   0  0  0  0  0  0
  -25.1289  -36.1918   25.0818 H   0  0  0  0  0  0
  -21.0034  -28.3279   24.1382 H   0  0  0  0  0  0
  -20.5721  -26.2315   23.3608 H   0  0  0  0  0  0
  -21.6657  -26.7473   22.1162 H   0  0  0  0  0  0
  -19.6917  -25.6311   21.1242 H   0  0  0  0  0  0
  -19.6693  -27.3221   20.6759 H   0  0  0  0  0  0
  -17.4219  -26.6739   21.4024 H   0  0  0  0  0  0
  -18.0315  -26.0087   22.9017 H   0  0  0  0  0  0
  -19.7945  -30.7321   24.2223 H   0  0  0  0  0  0
  -17.5021  -31.6266   24.5205 H   0  0  0  0  0  0
  -15.5362  -30.2994   23.7674 H   0  0  0  0  0  0
  -15.8701  -28.0857   22.7033 H   0  0  0  0  0  0
  -24.5975  -30.7015   25.7787 H   0  0  0  0  0  0
  -24.8897  -32.2890   26.4799 H   0  0  0  0  0  0
  -25.8080  -30.8978   27.0257 H   0  0  0  0  0  0
  -26.2952  -29.6761   24.1208 H   0  0  0  0  0  0
  -27.4105  -29.7265   25.4660 H   0  0  0  0  0  0
  -27.8812  -30.4324   23.9397 H   0  0  0  0  0  0
  -27.2697  -33.3661   26.2014 H   0  0  0  0  0  0
  -28.3933  -32.6810   25.0363 H   0  0  0  0  0  0
  -28.0686  -31.8482   26.5484 H   0  0  0  0  0  0
  -28.2587  -38.0103   24.7518 H   0  0  0  0  0  0
  -28.1066  -36.2626   24.6290 H   0  0  0  0  0  0
  -27.2297  -37.1427   25.8881 H   0  0  0  0  0  0
  -20.9382  -29.8824   21.6898 H   0  0  0  0  0  0
  -26.0153  -38.2846   24.1426 H   0  0  0  0  0  0
  -30.2606  -25.1615   21.6445 H   0  0  0  0  0  0
  -30.8378  -23.8656   22.6910 H   0  0  0  0  0  0
  -29.1954  -24.4963   22.8920 H   0  0  0  0  0  0
  -28.5464  -19.6037   18.2319 H   0  0  0  0  0  0
  -27.3709  -20.7995   17.7028 H   0  0  0  0  0  0
  -27.0008  -19.7615   19.0753 H   0  0  0  0  0  0
  -28.3810  -20.0586   23.1240 H   0  0  0  0  0  0
  -30.1015  -19.6857   23.1618 H   0  0  0  0  0  0
  -28.8987  -18.3935   23.1125 H   0  0  0  0  0  0
  -26.9246  -24.7719   20.3166 H   0  0  0  0  0  0
  -27.6957  -24.9901   18.7424 H   0  0  0  0  0  0
  -29.9486  -18.1831   19.5295 H   0  0  0  0  0  0
  -31.1460  -18.9739   20.4747 H   0  0  0  0  0  0
  -30.5560  -17.1630   22.3891 H   0  0  0  0  0  0
  -31.7133  -16.9574   21.1643 H   0  0  0  0  0  0
  -28.2032  -19.0184   20.9170 H   0  0  0  0  0  0
  -29.0576  -15.5793   21.2057 H   0  0  0  0  0  0
  1 25  1  0  0  0
  1 30  2  0  0  0
  1 84  1  0  0  0
  2  3  1  0  0  0
  2 25  1  0  0  0
  2 85  1  0  0  0
  2 86  1  0  0  0
  3  4  1  0  0  0
  3 87  1  0  0  0
  3 88  1  0  0  0
  4  5  1  0  0  0
  4 89  1  0  0  0
  4 90  1  0  0  0
  5  6  1  0  0  0
  5 26  1  0  0  0
  5 91  1  0  0  0
  6 25  1  0  0  0
  6 92  1  0  0  0
  6 93  1  0  0  0
  7  8  2  0  0  0
  7 26  1  0  0  0
  7 29  1  0  0  0
  8  9  1  0  0  0
  8 22  1  0  0  0
  9 10  1  0  0  0
  9 27  2  0  0  0
 10 11  2  0  0  0
 10 15  1  0  0  0
 11 12  1  0  0  0
 11 94  1  0  0  0
 12 13  2  0  0  0
 12 95  1  0  0  0
 13 14  1  0  0  0
 13 31  1  0  0  0
 14 15  2  0  0  0
 14 96  1  0  0  0
 15 97  1  0  0  0
 16 17  2  0  0  0
 16 21  1  0  0  0
 16 31  1  0  0  0
 17 18  1  0  0  0
 17 98  1  0  0  0
 18 19  2  0  0  0
 18 99  1  0  0  0
 19 20  1  0  0  0
 19 24  1  0  0  0
 20 21  2  0  0  0
 20100  1  0  0  0
 21 23  1  0  0  0
 22 28  1  0  0  0
 22 32  2  0  0  0
 26 27  1  0  0  0
 28101  1  0  0  0
 28102  1  0  0  0
 29103  1  0  0  0
 29104  1  0  0  0
 33 34  1  0  0  0
 33 66  1  0  0  0
 33 70  2  0  0  0
 34 36  1  0  0  0
 34 59  1  0  0  0
 34105  1  0  0  0
 35 44  2  0  0  0
 35 45  1  0  0  0
 35 68  1  0  0  0
 36 56  1  0  0  0
 36106  1  0  0  0
 37 39  1  0  0  0
 37 47  1  0  0  0
 37 66  1  0  0  0
 37107  1  0  0  0
 38 43  2  0  0  0
 38 46  1  0  0  0
 38 47  1  0  0  0
 39 64  1  0  0  0
 39 67  2  0  0  0
 40 52  1  0  0  0
 40 53  2  0  0  0
 40 58  1  0  0  0
 41108  1  0  0  0
 41109  1  0  0  0
 41110  1  0  0  0
 41 48  1  0  0  0
 42 43  1  0  0  0
 42 66  1  0  0  0
 42111  1  0  0  0
 42112  1  0  0  0
 43 44  1  0  0  0
 44113  1  0  0  0
 45 46  2  0  0  0
 45114  1  0  0  0
 46115  1  0  0  0
 47116  1  0  0  0
 47117  1  0  0  0
 48 56  1  0  0  0
 48 65  1  0  0  0
 48118  1  0  0  0
 49 50  1  0  0  0
 49 53  1  0  0  0
 49 64  1  0  0  0
 49119  1  0  0  0
 50 51  1  0  0  0
 50120  1  0  0  0
 50121  1  0  0  0
 51 52  1  0  0  0
 51122  1  0  0  0
 51123  1  0  0  0
 52124  1  0  0  0
 52125  1  0  0  0
 53 54  1  0  0  0
 54 55  2  0  0  0
 54126  1  0  0  0
 55 57  1  0  0  0
 55127  1  0  0  0
 56 69  2  0  0  0
 57 58  2  0  0  0
 57128  1  0  0  0
 58129  1  0  0  0
 59 60  1  0  0  0
 59 61  1  0  0  0
 59 62  1  0  0  0
 60130  1  0  0  0
 60131  1  0  0  0
 60132  1  0  0  0
 61133  1  0  0  0
 61134  1  0  0  0
 61135  1  0  0  0
 62136  1  0  0  0
 62137  1  0  0  0
 62138  1  0  0  0
 63 65  1  0  0  0
 63139  1  0  0  0
 63140  1  0  0  0
 63141  1  0  0  0
 64142  1  0  0  0
 65143  1  0  0  0
 68 78  1  0  0  0
 71 73  2  0  0  0
 71 75  1  0  0  0
 71 83  1  0  0  0
 72 74  1  0  0  0
 72 76  1  0  0  0
 72 82  2  0  0  0
 73 78  1  0  0  0
 73 82  1  0  0  0
 74 81  1  0  0  0
 74 83  2  0  0  0
 75144  1  0  0  0
 75145  1  0  0  0
 75146  1  0  0  0
 76147  1  0  0  0
 76148  1  0  0  0
 76149  1  0  0  0
 77150  1  0  0  0
 77151  1  0  0  0
 77152  1  0  0  0
 77 81  1  0  0  0
 78153  1  0  0  0
 78154  1  0  0  0
 79 80  1  0  0  0
 79 81  1  0  0  0
 79155  1  0  0  0
 79156  1  0  0  0
 80 84  1  0  0  0
 80157  1  0  0  0
 80158  1  0  0  0
 81159  1  0  0  0
 84160  1  0  0  0
M  ISO  4   1 100  68 101  78 101  84 100
M  END
> <chiral flag>
0

> <version>
0

> <s_m_source_file>
/data/baiqing/PycharmProjects/Reinvent-master-3.2/result/LINK_invent/BTK/process_docking_weight1_custom_sum_contain_oxygen_bond_distance_aromatic_linkinvent_7_9_3/rearranged_h_0081.sdf

> <i_m_source_file_index>
43

> <r_mmod_Potential_Energy-OPLS-2005>
200.644088745117

> <r_mmod_Stretch_Energy-OPLS-2005>
90.3719100952148

> <r_mmod_Bend_Energy-OPLS-2005>
187.877716064453

> <r_mmod_Torsional_Energy-OPLS-2005>
234.163513183594

> <r_mmod_Improper_Torsional_Energy-OPLS-2005>
5.9264702796936

> <r_mmod_Van_der_Waal_Energy-OPLS-2005>
167.287109375

> <r_mmod_Electrostatic_Energy-OPLS-2005>
-323.414703369141

> <r_mmod_Solvation_Energy-OPLS-2005>
-218.501800537109

> <b_mmod_Minimization_Converged-OPLS-2005>
0

> <r_mmod_RMS_Derivative-OPLS-2005>
1.77129065990448

$$$$
43
                    3D
 Structure written by MMmdl.
154162  0  0  1  0            999 V2000
  -30.4859  -15.0610   20.3836 C   0  0  0  0  0  0
  -30.4416  -12.6527   19.5443 C   0  0  0  0  0  0
  -29.5385  -12.5485   18.2925 C   0  0  0  0  0  0
  -28.0690  -12.3291   18.6911 C   0  0  0  0  0  0
  -27.6291  -13.2646   19.8448 C   0  0  2  0  0  0
  -28.6585  -13.3314   20.9923 C   0  0  0  0  0  0
  -25.2448  -13.8218   20.5715 C   0  0  0  0  0  0
  -24.1799  -13.0430   20.9233 C   0  0  0  0  0  0
  -24.6446  -11.6929   20.8763 C   0  0  0  0  0  0
  -23.9137  -10.4307   21.0412 C   0  0  0  0  0  0
  -24.3664   -9.4216   21.9194 C   0  0  0  0  0  0
  -23.6344   -8.2233   22.0743 C   0  0  0  0  0  0
  -22.4306   -8.0298   21.3566 C   0  0  0  0  0  0
  -21.9951   -9.0258   20.4627 C   0  0  0  0  0  0
  -22.7280  -10.2140   20.3058 C   0  0  0  0  0  0
  -21.6880   -6.0772   22.5298 C   0  0  0  0  0  0
  -21.4022   -6.5668   23.8240 C   0  0  0  0  0  0
  -21.3647   -5.6807   24.9189 C   0  0  0  0  0  0
  -21.6056   -4.3072   24.7233 C   0  0  0  0  0  0
  -21.8810   -3.8175   23.4340 C   0  0  0  0  0  0
  -21.9197   -4.7002   22.3404 C   0  0  0  0  0  0
  -22.7825  -13.5191   21.1895 C   0  0  0  0  0  0
  -22.1672   -4.2192   21.0982 F   0  0  0  0  0  0
  -21.5602   -3.4542   25.7731 F   0  0  0  0  0  0
  -29.9353  -13.7667   20.4087 N   0  0  0  0  0  0
  -26.2916  -12.9516   20.3250 N   0  0  0  0  0  0
  -25.9407  -11.6627   20.5738 N   0  0  0  0  0  0
  -22.0471  -12.8178   22.0440 N   0  0  0  0  0  0
  -25.4081  -15.1947   20.4127 N   0  0  0  0  0  0
  -31.6494  -15.1488   19.9785 O   0  0  0  0  0  0
  -21.6646   -6.8907   21.4258 O   0  0  0  0  0  0
  -22.3531  -14.5527   20.6757 O   0  0  0  0  0  0
  -24.6484  -31.8397   23.1870 C   0  0  0  0  0  0
  -25.9228  -32.4667   23.8280 C   0  0  1  0  0  0
  -27.2168  -27.0643   20.1220 C   0  0  0  0  0  0
  -25.5955  -33.8481   24.2172 N   0  0  0  0  0  0
  -23.4561  -30.4607   21.5315 C   0  0  2  0  0  0
  -24.9105  -28.8915   20.1003 C   0  0  0  0  0  0
  -22.7606  -29.4507   22.4798 C   0  0  0  0  0  0
  -18.0304  -28.1408   22.8445 C   0  0  0  0  0  0
  -24.1488  -36.7221   23.2639 C   0  0  0  0  0  0
  -26.0217  -30.6857   21.4104 C   0  0  0  0  0  0
  -26.0888  -29.2938   20.7392 C   0  0  0  0  0  0
  -27.2334  -28.3932   20.7470 C   0  0  0  0  0  0
  -26.0167  -26.8139   19.4120 C   0  0  0  0  0  0
  -24.8935  -27.6691   19.4254 C   0  0  0  0  0  0
  -23.6914  -29.7985   20.1482 C   0  0  0  0  0  0
  -25.4136  -36.2993   24.0302 C   0  0  1  0  0  0
  -20.5913  -28.3733   23.1213 C   0  0  2  0  0  0
  -20.6781  -26.9422   22.5405 C   0  0  0  0  0  0
  -19.5760  -26.6374   21.5209 C   0  0  0  0  0  0
  -18.1945  -26.7940   22.1604 C   0  0  0  0  0  0
  -19.1551  -28.8895   23.2820 C   0  0  0  0  0  0
  -18.9485  -30.1477   23.8850 C   0  0  0  0  0  0
  -17.6471  -30.6596   24.0559 C   0  0  0  0  0  0
  -25.9110  -34.9368   23.5074 C   0  0  0  0  0  0
  -16.5371  -29.9093   23.6327 C   0  0  0  0  0  0
  -16.7284  -28.6505   23.0355 C   0  0  0  0  0  0
  -26.4544  -31.6554   25.0748 C   0  0  0  0  0  0
  -25.3684  -31.3790   26.1409 C   0  0  0  0  0  0
  -27.0429  -30.2910   24.6447 C   0  0  0  0  0  0
  -27.6058  -32.4345   25.7538 C   0  0  0  0  0  0
  -27.5577  -37.1780   24.8463 C   0  0  0  0  0  0
  -21.4281  -29.3041   22.3560 N   0  0  0  0  0  0
  -26.4273  -37.3717   23.9408 N   0  0  0  0  0  0
  -24.7280  -31.0161   22.0962 N   0  0  0  0  0  0
  -23.4227  -28.8040   23.2945 O   0  0  0  0  0  0
  -28.2302  -26.0064   20.2327 O   0  0  0  0  0  0
  -26.5669  -34.8892   22.4635 O   0  0  0  0  0  0
  -23.5601  -32.1309   23.7040 O   0  0  0  0  0  0
  -29.3817  -22.0528   19.6688 C   0  0  0  0  0  0
  -29.1753  -20.7889   20.3382 C   0  0  0  0  0  0
  -27.8150  -22.5184   21.1078 C   0  0  0  0  0  0
  -26.7358  -23.1531   21.9069 C   0  0  0  0  0  0
  -30.5364  -19.2166   21.8723 C   0  0  0  0  0  0
  -29.3634  -17.7071   20.0645 C   0  0  0  0  0  0
  -28.1291  -24.6102   19.5343 C   0  0  0  0  0  0
  -29.9260  -19.2802   20.4675 C   0  0  1  0  0  0
  -28.5253  -23.1256   20.1364 N   0  0  0  0  0  0
  -28.1743  -21.1997   21.2035 N   0  3  0  0  0  0
  -29.6940  -16.2341   20.6569 N   0  0  0  0  0  0
  -31.4762  -12.8091   19.2355 H   0  0  0  0  0  0
  -30.4422  -11.7121   20.1015 H   0  0  0  0  0  0
  -29.8751  -11.7325   17.6517 H   0  0  0  0  0  0
  -29.6260  -13.4638   17.7078 H   0  0  0  0  0  0
  -27.9587  -11.2890   18.9907 H   0  0  0  0  0  0
  -27.4217  -12.4742   17.8253 H   0  0  0  0  0  0
  -27.5844  -14.2620   19.4098 H   0  0  0  0  0  0
  -28.7618  -12.3636   21.4856 H   0  0  0  0  0  0
  -28.3329  -14.0424   21.7551 H   0  0  0  0  0  0
  -25.2800   -9.5696   22.4778 H   0  0  0  0  0  0
  -24.0058   -7.4631   22.7463 H   0  0  0  0  0  0
  -21.0875   -8.8790   19.8937 H   0  0  0  0  0  0
  -22.3743  -10.9697   19.6164 H   0  0  0  0  0  0
  -21.2025   -7.6179   23.9764 H   0  0  0  0  0  0
  -21.1472   -6.0526   25.9099 H   0  0  0  0  0  0
  -22.0597   -2.7641   23.2824 H   0  0  0  0  0  0
  -22.4101  -11.9863   22.4793 H   0  0  0  0  0  0
  -21.1075  -13.1171   22.2618 H   0  0  0  0  0  0
  -24.6272  -15.8338   20.4997 H   0  0  0  0  0  0
  -26.2353  -15.6318   20.0213 H   0  0  0  0  0  0
  -26.7292  -32.5271   23.1018 H   0  0  0  0  0  0
  -25.0082  -33.9629   25.0306 H   0  0  0  0  0  0
  -22.7572  -31.2870   21.3770 H   0  0  0  0  0  0
  -23.3771  -35.9529   23.3279 H   0  0  0  0  0  0
  -24.3556  -36.8888   22.2052 H   0  0  0  0  0  0
  -23.7246  -37.6411   23.6716 H   0  0  0  0  0  0
  -26.2080  -31.4433   20.6484 H   0  0  0  0  0  0
  -26.8769  -30.7227   22.0722 H   0  0  0  0  0  0
  -28.1148  -28.6923   21.2970 H   0  0  0  0  0  0
  -25.8751  -25.9240   18.8277 H   0  0  0  0  0  0
  -24.0030  -27.3691   18.8897 H   0  0  0  0  0  0
  -23.8361  -30.5801   19.4017 H   0  0  0  0  0  0
  -22.8068  -29.2460   19.8271 H   0  0  0  0  0  0
  -25.1336  -36.1800   25.0788 H   0  0  0  0  0  0
  -21.0008  -28.3333   24.1338 H   0  0  0  0  0  0
  -20.5692  -26.2332   23.3651 H   0  0  0  0  0  0
  -21.6660  -26.7437   22.1208 H   0  0  0  0  0  0
  -19.6957  -25.6288   21.1257 H   0  0  0  0  0  0
  -19.6734  -27.3165   20.6731 H   0  0  0  0  0  0
  -17.4232  -26.6659   21.4006 H   0  0  0  0  0  0
  -18.0349  -26.0116   22.9021 H   0  0  0  0  0  0
  -19.7962  -30.7299   24.2211 H   0  0  0  0  0  0
  -17.5037  -31.6281   24.5174 H   0  0  0  0  0  0
  -15.5362  -30.2999   23.7705 H   0  0  0  0  0  0
  -15.8670  -28.0840   22.7098 H   0  0  0  0  0  0
  -24.5904  -30.7098   25.7734 H   0  0  0  0  0  0
  -24.8843  -32.2986   26.4688 H   0  0  0  0  0  0
  -25.7924  -30.9074   27.0273 H   0  0  0  0  0  0
  -26.3084  -29.6600   24.1429 H   0  0  0  0  0  0
  -27.3930  -29.7268   25.5102 H   0  0  0  0  0  0
  -27.9045  -30.4093   23.9875 H   0  0  0  0  0  0
  -27.2638  -33.3696   26.1983 H   0  0  0  0  0  0
  -28.3929  -32.6806   25.0397 H   0  0  0  0  0  0
  -28.0634  -31.8540   26.5561 H   0  0  0  0  0  0
  -28.2566  -38.0095   24.7502 H   0  0  0  0  0  0
  -28.1096  -36.2625   24.6292 H   0  0  0  0  0  0
  -27.2282  -37.1413   25.8857 H   0  0  0  0  0  0
  -20.9505  -29.8767   21.6750 H   0  0  0  0  0  0
  -26.0131  -38.2780   24.1414 H   0  0  0  0  0  0
  -30.0912  -22.2593   18.8764 H   0  0  0  0  0  0
  -25.9724  -23.5096   21.2161 H   0  0  0  0  0  0
  -27.1740  -23.9745   22.4739 H   0  0  0  0  0  0
  -26.3149  -22.4055   22.5797 H   0  0  0  0  0  0
  -31.0827  -20.1355   22.0904 H   0  0  0  0  0  0
  -31.2398  -18.3897   21.9588 H   0  0  0  0  0  0
  -29.7830  -19.0763   22.6441 H   0  0  0  0  0  0
  -29.4028  -17.6147   18.9730 H   0  0  0  0  0  0
  -28.2996  -17.7685   20.2850 H   0  0  0  0  0  0
  -27.1085  -24.4368   19.2293 H   0  0  0  0  0  0
  -28.6827  -24.7006   18.6041 H   0  0  0  0  0  0
  -30.7845  -19.3908   19.8033 H   0  0  0  0  0  0
  -27.7329  -20.5709   21.8610 H   0  0  0  0  0  0
  -28.9304  -15.9542   21.2535 H   0  0  0  0  0  0
  1 25  1  0  0  0
  1 30  2  0  0  0
  1 81  1  0  0  0
  2  3  1  0  0  0
  2 25  1  0  0  0
  2 82  1  0  0  0
  2 83  1  0  0  0
  3  4  1  0  0  0
  3 84  1  0  0  0
  3 85  1  0  0  0
  4  5  1  0  0  0
  4 86  1  0  0  0
  4 87  1  0  0  0
  5  6  1  0  0  0
  5 26  1  0  0  0
  5 88  1  0  0  0
  6 25  1  0  0  0
  6 89  1  0  0  0
  6 90  1  0  0  0
  7  8  2  0  0  0
  7 26  1  0  0  0
  7 29  1  0  0  0
  8  9  1  0  0  0
  8 22  1  0  0  0
  9 10  1  0  0  0
  9 27  2  0  0  0
 10 11  2  0  0  0
 10 15  1  0  0  0
 11 12  1  0  0  0
 11 91  1  0  0  0
 12 13  2  0  0  0
 12 92  1  0  0  0
 13 14  1  0  0  0
 13 31  1  0  0  0
 14 15  2  0  0  0
 14 93  1  0  0  0
 15 94  1  0  0  0
 16 17  2  0  0  0
 16 21  1  0  0  0
 16 31  1  0  0  0
 17 18  1  0  0  0
 17 95  1  0  0  0
 18 19  2  0  0  0
 18 96  1  0  0  0
 19 20  1  0  0  0
 19 24  1  0  0  0
 20 21  2  0  0  0
 20 97  1  0  0  0
 21 23  1  0  0  0
 22 28  1  0  0  0
 22 32  2  0  0  0
 26 27  1  0  0  0
 28 98  1  0  0  0
 28 99  1  0  0  0
 29100  1  0  0  0
 29101  1  0  0  0
 33 34  1  0  0  0
 33 66  1  0  0  0
 33 70  2  0  0  0
 34 36  1  0  0  0
 34 59  1  0  0  0
 34102  1  0  0  0
 35 44  2  0  0  0
 35 45  1  0  0  0
 35 68  1  0  0  0
 36 56  1  0  0  0
 36103  1  0  0  0
 37 39  1  0  0  0
 37 47  1  0  0  0
 37 66  1  0  0  0
 37104  1  0  0  0
 38 43  2  0  0  0
 38 46  1  0  0  0
 38 47  1  0  0  0
 39 64  1  0  0  0
 39 67  2  0  0  0
 40 52  1  0  0  0
 40 53  2  0  0  0
 40 58  1  0  0  0
 41105  1  0  0  0
 41106  1  0  0  0
 41107  1  0  0  0
 41 48  1  0  0  0
 42 43  1  0  0  0
 42 66  1  0  0  0
 42108  1  0  0  0
 42109  1  0  0  0
 43 44  1  0  0  0
 44110  1  0  0  0
 45 46  2  0  0  0
 45111  1  0  0  0
 46112  1  0  0  0
 47113  1  0  0  0
 47114  1  0  0  0
 48 56  1  0  0  0
 48 65  1  0  0  0
 48115  1  0  0  0
 49 50  1  0  0  0
 49 53  1  0  0  0
 49 64  1  0  0  0
 49116  1  0  0  0
 50 51  1  0  0  0
 50117  1  0  0  0
 50118  1  0  0  0
 51 52  1  0  0  0
 51119  1  0  0  0
 51120  1  0  0  0
 52121  1  0  0  0
 52122  1  0  0  0
 53 54  1  0  0  0
 54 55  2  0  0  0
 54123  1  0  0  0
 55 57  1  0  0  0
 55124  1  0  0  0
 56 69  2  0  0  0
 57 58  2  0  0  0
 57125  1  0  0  0
 58126  1  0  0  0
 59 60  1  0  0  0
 59 61  1  0  0  0
 59 62  1  0  0  0
 60127  1  0  0  0
 60128  1  0  0  0
 60129  1  0  0  0
 61130  1  0  0  0
 61131  1  0  0  0
 61132  1  0  0  0
 62133  1  0  0  0
 62134  1  0  0  0
 62135  1  0  0  0
 63 65  1  0  0  0
 63136  1  0  0  0
 63137  1  0  0  0
 63138  1  0  0  0
 64139  1  0  0  0
 65140  1  0  0  0
 68 77  1  0  0  0
 71 72  2  0  0  0
 71 79  1  0  0  0
 71141  1  0  0  0
 72 78  1  0  0  0
 72 80  1  0  0  0
 73 74  1  0  0  0
 73 79  1  0  0  0
 73 80  2  0  0  0
 74142  1  0  0  0
 74143  1  0  0  0
 74144  1  0  0  0
 75145  1  0  0  0
 75146  1  0  0  0
 75147  1  0  0  0
 75 78  1  0  0  0
 76 78  1  0  0  0
 76 81  1  0  0  0
 76148  1  0  0  0
 76149  1  0  0  0
 77 79  1  0  0  0
 77150  1  0  0  0
 77151  1  0  0  0
 78152  1  0  0  0
 80153  1  0  0  0
 81154  1  0  0  0
M  CHG  1  80   1
M  ISO  4   1 100  68 101  77 101  81 100
M  END
> <chiral flag>
0

> <version>
0

> <s_m_source_file>
/data/baiqing/PycharmProjects/Reinvent-master-3.2/result/LINK_invent/BTK/process_docking_weight1_custom_sum_contain_oxygen_bond_distance_aromatic_linkinvent_7_9_3/rearranged_h_0081.sdf

> <i_m_source_file_index>
44

> <r_mmod_Potential_Energy-OPLS-2005>
692.947509765625

> <r_mmod_Stretch_Energy-OPLS-2005>
359.596130371094

> <r_mmod_Bend_Energy-OPLS-2005>
366.116760253906

> <r_mmod_Torsional_Energy-OPLS-2005>
248.273040771484

> <r_mmod_Improper_Torsional_Energy-OPLS-2005>
8.82527828216553

> <r_mmod_Van_der_Waal_Energy-OPLS-2005>
112.039779663086

> <r_mmod_Electrostatic_Energy-OPLS-2005>
-250.440963745117

> <r_mmod_Solvation_Energy-OPLS-2005>
-432.238952636719

> <b_mmod_Minimization_Converged-OPLS-2005>
0

> <r_mmod_RMS_Derivative-OPLS-2005>
7.06664085388184

$$$$
44
                    3D
 Structure written by MMmdl.
157165  0  0  1  0            999 V2000
  -30.6267  -14.7196   20.4585 C   0  0  0  0  0  0
  -30.4279  -12.4365   19.4779 C   0  0  0  0  0  0
  -29.5088  -12.5018   18.2384 C   0  0  0  0  0  0
  -28.0344  -12.3309   18.6503 C   0  0  0  0  0  0
  -27.6431  -13.2301   19.8536 C   0  0  2  0  0  0
  -28.6864  -13.1612   20.9911 C   0  0  0  0  0  0
  -25.2515  -13.8198   20.5697 C   0  0  0  0  0  0
  -24.1805  -13.0444   20.9206 C   0  0  0  0  0  0
  -24.6392  -11.6921   20.8747 C   0  0  0  0  0  0
  -23.9069  -10.4298   21.0407 C   0  0  0  0  0  0
  -24.3621   -9.4213   21.9181 C   0  0  0  0  0  0
  -23.6297   -8.2248   22.0750 C   0  0  0  0  0  0
  -22.4277   -8.0283   21.3545 C   0  0  0  0  0  0
  -21.9914   -9.0256   20.4646 C   0  0  0  0  0  0
  -22.7241  -10.2138   20.3057 C   0  0  0  0  0  0
  -21.6857   -6.0739   22.5280 C   0  0  0  0  0  0
  -21.4014   -6.5642   23.8213 C   0  0  0  0  0  0
  -21.3659   -5.6794   24.9174 C   0  0  0  0  0  0
  -21.6046   -4.3057   24.7226 C   0  0  0  0  0  0
  -21.8818   -3.8150   23.4345 C   0  0  0  0  0  0
  -21.9193   -4.6967   22.3402 C   0  0  0  0  0  0
  -22.7826  -13.5225   21.1865 C   0  0  0  0  0  0
  -22.1663   -4.2154   21.0979 F   0  0  0  0  0  0
  -21.5630   -3.4537   25.7737 F   0  0  0  0  0  0
  -29.9909  -13.5007   20.4111 N   0  0  0  0  0  0
  -26.2942  -12.9403   20.3295 N   0  0  0  0  0  0
  -25.9323  -11.6546   20.5759 N   0  0  0  0  0  0
  -22.0481  -12.8209   22.0422 N   0  0  0  0  0  0
  -25.4209  -15.1922   20.4102 N   0  0  0  0  0  0
  -31.8102  -14.8090   20.1226 O   0  0  0  0  0  0
  -21.6644   -6.8880   21.4241 O   0  0  0  0  0  0
  -22.3508  -14.5530   20.6713 O   0  0  0  0  0  0
  -24.6311  -31.8563   23.1987 C   0  0  0  0  0  0
  -25.9138  -32.4760   23.8332 C   0  0  1  0  0  0
  -27.2160  -27.2663   20.1271 C   0  0  0  0  0  0
  -25.5936  -33.8562   24.2259 N   0  0  0  0  0  0
  -23.4269  -30.4796   21.5429 C   0  0  2  0  0  0
  -24.8727  -28.9294   20.1088 C   0  0  0  0  0  0
  -22.7500  -29.4608   22.4915 C   0  0  0  0  0  0
  -18.0292  -28.1384   22.8484 C   0  0  0  0  0  0
  -24.1490  -36.7283   23.2639 C   0  0  0  0  0  0
  -25.9731  -30.7706   21.3781 C   0  0  0  0  0  0
  -26.0449  -29.3946   20.7181 C   0  0  0  0  0  0
  -27.2198  -28.5763   20.7149 C   0  0  0  0  0  0
  -26.0205  -26.8718   19.4835 C   0  0  0  0  0  0
  -24.8659  -27.6763   19.4799 C   0  0  0  0  0  0
  -23.6437  -29.8158   20.1581 C   0  0  0  0  0  0
  -25.4119  -36.3071   24.0325 C   0  0  1  0  0  0
  -20.5896  -28.3698   23.1268 C   0  0  2  0  0  0
  -20.6781  -26.9416   22.5406 C   0  0  0  0  0  0
  -19.5756  -26.6382   21.5210 C   0  0  0  0  0  0
  -18.1935  -26.7927   22.1622 C   0  0  0  0  0  0
  -19.1545  -28.8859   23.2872 C   0  0  0  0  0  0
  -18.9467  -30.1458   23.8891 C   0  0  0  0  0  0
  -17.6468  -30.6587   24.0561 C   0  0  0  0  0  0
  -25.9060  -34.9442   23.5095 C   0  0  0  0  0  0
  -16.5358  -29.9084   23.6332 C   0  0  0  0  0  0
  -16.7278  -28.6500   23.0354 C   0  0  0  0  0  0
  -26.4503  -31.6583   25.0722 C   0  0  0  0  0  0
  -25.3722  -31.3732   26.1440 C   0  0  0  0  0  0
  -27.0353  -30.3000   24.6210 C   0  0  0  0  0  0
  -27.6057  -32.4328   25.7494 C   0  0  0  0  0  0
  -27.5580  -37.1797   24.8466 C   0  0  0  0  0  0
  -21.4208  -29.3045   22.3657 N   0  0  0  0  0  0
  -26.4293  -37.3771   23.9408 N   0  0  0  0  0  0
  -24.6961  -31.0533   22.0962 N   0  0  0  0  0  0
  -23.4203  -28.8150   23.3012 O   0  0  0  0  0  0
  -28.3069  -26.3682   20.1964 O   0  0  0  0  0  0
  -26.5631  -34.8918   22.4663 O   0  0  0  0  0  0
  -23.5464  -32.1383   23.7289 O   0  0  0  0  0  0
  -29.4810  -21.9125   18.1737 C   0  0  0  0  0  0
  -29.2952  -21.2384   19.3989 C   0  0  0  0  0  0
  -29.5117  -19.7830   19.3381 C   0  0  0  0  0  0
  -29.9442  -19.9991   17.0630 C   0  0  0  0  0  0
  -30.2814  -19.3016   15.7635 C   0  0  0  0  0  0
  -28.8255  -22.1828   20.5728 C   0  0  0  0  0  0
  -29.3133  -18.5945   20.3803 C   0  0  0  0  0  0
  -29.1281  -23.7920   20.5294 C   0  0  0  0  0  0
  -30.2986  -17.2911   20.2581 C   0  0  0  0  0  0
  -28.0479  -24.8926   20.0536 C   0  0  0  0  0  0
  -29.8089  -21.3084   17.0244 N   0  0  0  0  0  0
  -29.8008  -19.2421   18.1357 N   0  0  0  0  0  0
  -29.8754  -15.8692   20.6453 N   0  0  0  0  0  0
  -31.4712  -12.5473   19.1779 H   0  0  0  0  0  0
  -30.3601  -11.4593   19.9587 H   0  0  0  0  0  0
  -29.7875  -11.7313   17.5181 H   0  0  0  0  0  0
  -29.6406  -13.4586   17.7312 H   0  0  0  0  0  0
  -27.8849  -11.2814   18.9078 H   0  0  0  0  0  0
  -27.3793  -12.5297   17.8017 H   0  0  0  0  0  0
  -27.6399  -14.2522   19.4741 H   0  0  0  0  0  0
  -28.7152  -12.1648   21.4345 H   0  0  0  0  0  0
  -28.4266  -13.8485   21.7977 H   0  0  0  0  0  0
  -25.2766   -9.5691   22.4753 H   0  0  0  0  0  0
  -24.0012   -7.4636   22.7465 H   0  0  0  0  0  0
  -21.0850   -8.8771   19.8946 H   0  0  0  0  0  0
  -22.3697  -10.9673   19.6167 H   0  0  0  0  0  0
  -21.2004   -7.6150   23.9717 H   0  0  0  0  0  0
  -21.1483   -6.0525   25.9077 H   0  0  0  0  0  0
  -22.0598   -2.7612   23.2844 H   0  0  0  0  0  0
  -22.4108  -11.9873   22.4805 H   0  0  0  0  0  0
  -21.1097  -13.1222   22.2633 H   0  0  0  0  0  0
  -24.6501  -15.8430   20.5147 H   0  0  0  0  0  0
  -26.2624  -15.6306   20.0590 H   0  0  0  0  0  0
  -26.7204  -32.5408   23.1074 H   0  0  0  0  0  0
  -25.0081  -33.9702   25.0401 H   0  0  0  0  0  0
  -22.7232  -31.3021   21.3984 H   0  0  0  0  0  0
  -23.3757  -35.9610   23.3302 H   0  0  0  0  0  0
  -24.3580  -36.8906   22.2053 H   0  0  0  0  0  0
  -23.7241  -37.6482   23.6666 H   0  0  0  0  0  0
  -26.1138  -31.5327   20.6105 H   0  0  0  0  0  0
  -26.8502  -30.8167   22.0120 H   0  0  0  0  0  0
  -28.1164  -28.9265   21.2073 H   0  0  0  0  0  0
  -25.9452  -25.9153   18.9887 H   0  0  0  0  0  0
  -23.9690  -27.3159   18.9949 H   0  0  0  0  0  0
  -23.7678  -30.5934   19.4034 H   0  0  0  0  0  0
  -22.7615  -29.2498   19.8532 H   0  0  0  0  0  0
  -25.1301  -36.1918   25.0818 H   0  0  0  0  0  0
  -20.9991  -28.3276   24.1386 H   0  0  0  0  0  0
  -20.5679  -26.2310   23.3612 H   0  0  0  0  0  0
  -21.6650  -26.7437   22.1200 H   0  0  0  0  0  0
  -19.6920  -25.6291   21.1243 H   0  0  0  0  0  0
  -19.6691  -27.3191   20.6738 H   0  0  0  0  0  0
  -17.4205  -26.6672   21.4024 H   0  0  0  0  0  0
  -18.0337  -26.0067   22.9018 H   0  0  0  0  0  0
  -19.7943  -30.7275   24.2256 H   0  0  0  0  0  0
  -17.5022  -31.6266   24.5164 H   0  0  0  0  0  0
  -15.5359  -30.2986   23.7658 H   0  0  0  0  0  0
  -15.8677  -28.0819   22.7074 H   0  0  0  0  0  0
  -24.5904  -30.7075   25.7764 H   0  0  0  0  0  0
  -24.8905  -32.2901   26.4847 H   0  0  0  0  0  0
  -25.8036  -30.8921   27.0227 H   0  0  0  0  0  0
  -26.2938  -29.6744   24.1229 H   0  0  0  0  0  0
  -27.4029  -29.7267   25.4731 H   0  0  0  0  0  0
  -27.8817  -30.4275   23.9459 H   0  0  0  0  0  0
  -27.2665  -33.3636   26.2054 H   0  0  0  0  0  0
  -28.3872  -32.6879   25.0324 H   0  0  0  0  0  0
  -28.0720  -31.8466   26.5423 H   0  0  0  0  0  0
  -28.2598  -38.0094   24.7515 H   0  0  0  0  0  0
  -28.1076  -36.2627   24.6292 H   0  0  0  0  0  0
  -27.2299  -37.1446   25.8869 H   0  0  0  0  0  0
  -20.9396  -29.8769   21.6860 H   0  0  0  0  0  0
  -26.0172  -38.2845   24.1409 H   0  0  0  0  0  0
  -29.3338  -22.9774   18.0845 H   0  0  0  0  0  0
  -31.3310  -19.4547   15.5143 H   0  0  0  0  0  0
  -29.6742  -19.6916   14.9467 H   0  0  0  0  0  0
  -30.1012  -18.2285   15.8300 H   0  0  0  0  0  0
  -29.2982  -21.7855   21.4719 H   0  0  0  0  0  0
  -27.7565  -22.0292   20.7254 H   0  0  0  0  0  0
  -28.2821  -18.2608   20.2661 H   0  0  0  0  0  0
  -29.3783  -19.0045   21.3882 H   0  0  0  0  0  0
  -30.0818  -23.9768   20.0350 H   0  0  0  0  0  0
  -29.3258  -24.0633   21.5674 H   0  0  0  0  0  0
  -31.2331  -17.5252   20.7692 H   0  0  0  0  0  0
  -30.5886  -17.1763   19.2149 H   0  0  0  0  0  0
  -27.1285  -24.6653   20.5953 H   0  0  0  0  0  0
  -27.8334  -24.7004   19.0022 H   0  0  0  0  0  0
  -28.9091  -15.7323   20.9022 H   0  0  0  0  0  0
  1 25  1  0  0  0
  1 30  2  0  0  0
  1 83  1  0  0  0
  2  3  1  0  0  0
  2 25  1  0  0  0
  2 84  1  0  0  0
  2 85  1  0  0  0
  3  4  1  0  0  0
  3 86  1  0  0  0
  3 87  1  0  0  0
  4  5  1  0  0  0
  4 88  1  0  0  0
  4 89  1  0  0  0
  5  6  1  0  0  0
  5 26  1  0  0  0
  5 90  1  0  0  0
  6 25  1  0  0  0
  6 91  1  0  0  0
  6 92  1  0  0  0
  7  8  2  0  0  0
  7 26  1  0  0  0
  7 29  1  0  0  0
  8  9  1  0  0  0
  8 22  1  0  0  0
  9 10  1  0  0  0
  9 27  2  0  0  0
 10 11  2  0  0  0
 10 15  1  0  0  0
 11 12  1  0  0  0
 11 93  1  0  0  0
 12 13  2  0  0  0
 12 94  1  0  0  0
 13 14  1  0  0  0
 13 31  1  0  0  0
 14 15  2  0  0  0
 14 95  1  0  0  0
 15 96  1  0  0  0
 16 17  2  0  0  0
 16 21  1  0  0  0
 16 31  1  0  0  0
 17 18  1  0  0  0
 17 97  1  0  0  0
 18 19  2  0  0  0
 18 98  1  0  0  0
 19 20  1  0  0  0
 19 24  1  0  0  0
 20 21  2  0  0  0
 20 99  1  0  0  0
 21 23  1  0  0  0
 22 28  1  0  0  0
 22 32  2  0  0  0
 26 27  1  0  0  0
 28100  1  0  0  0
 28101  1  0  0  0
 29102  1  0  0  0
 29103  1  0  0  0
 33 34  1  0  0  0
 33 66  1  0  0  0
 33 70  2  0  0  0
 34 36  1  0  0  0
 34 59  1  0  0  0
 34104  1  0  0  0
 35 44  2  0  0  0
 35 45  1  0  0  0
 35 68  1  0  0  0
 36 56  1  0  0  0
 36105  1  0  0  0
 37 39  1  0  0  0
 37 47  1  0  0  0
 37 66  1  0  0  0
 37106  1  0  0  0
 38 43  2  0  0  0
 38 46  1  0  0  0
 38 47  1  0  0  0
 39 64  1  0  0  0
 39 67  2  0  0  0
 40 52  1  0  0  0
 40 53  2  0  0  0
 40 58  1  0  0  0
 41107  1  0  0  0
 41108  1  0  0  0
 41109  1  0  0  0
 41 48  1  0  0  0
 42 43  1  0  0  0
 42 66  1  0  0  0
 42110  1  0  0  0
 42111  1  0  0  0
 43 44  1  0  0  0
 44112  1  0  0  0
 45 46  2  0  0  0
 45113  1  0  0  0
 46114  1  0  0  0
 47115  1  0  0  0
 47116  1  0  0  0
 48 56  1  0  0  0
 48 65  1  0  0  0
 48117  1  0  0  0
 49 50  1  0  0  0
 49 53  1  0  0  0
 49 64  1  0  0  0
 49118  1  0  0  0
 50 51  1  0  0  0
 50119  1  0  0  0
 50120  1  0  0  0
 51 52  1  0  0  0
 51121  1  0  0  0
 51122  1  0  0  0
 52123  1  0  0  0
 52124  1  0  0  0
 53 54  1  0  0  0
 54 55  2  0  0  0
 54125  1  0  0  0
 55 57  1  0  0  0
 55126  1  0  0  0
 56 69  2  0  0  0
 57 58  2  0  0  0
 57127  1  0  0  0
 58128  1  0  0  0
 59 60  1  0  0  0
 59 61  1  0  0  0
 59 62  1  0  0  0
 60129  1  0  0  0
 60130  1  0  0  0
 60131  1  0  0  0
 61132  1  0  0  0
 61133  1  0  0  0
 61134  1  0  0  0
 62135  1  0  0  0
 62136  1  0  0  0
 62137  1  0  0  0
 63 65  1  0  0  0
 63138  1  0  0  0
 63139  1  0  0  0
 63140  1  0  0  0
 64141  1  0  0  0
 65142  1  0  0  0
 68 80  1  0  0  0
 71 72  2  0  0  0
 71 81  1  0  0  0
 71143  1  0  0  0
 72 73  1  0  0  0
 72 76  1  0  0  0
 73 77  1  0  0  0
 73 82  2  0  0  0
 74 75  1  0  0  0
 74 81  2  0  0  0
 74 82  1  0  0  0
 75144  1  0  0  0
 75145  1  0  0  0
 75146  1  0  0  0
 76 78  1  0  0  0
 76147  1  0  0  0
 76148  1  0  0  0
 77 79  1  0  0  0
 77149  1  0  0  0
 77150  1  0  0  0
 78 80  1  0  0  0
 78151  1  0  0  0
 78152  1  0  0  0
 79 83  1  0  0  0
 79153  1  0  0  0
 79154  1  0  0  0
 80155  1  0  0  0
 80156  1  0  0  0
 83157  1  0  0  0
M  ISO  4   1 100  68 101  80 101  83 100
M  END
> <chiral flag>
0

> <version>
0

> <s_m_source_file>
/data/baiqing/PycharmProjects/Reinvent-master-3.2/result/LINK_invent/BTK/process_docking_weight1_custom_sum_contain_oxygen_bond_distance_aromatic_linkinvent_7_9_3/rearranged_h_0081.sdf

> <i_m_source_file_index>
45

> <r_mmod_Potential_Energy-OPLS-2005>
-167.735015869141

> <r_mmod_Stretch_Energy-OPLS-2005>
130.584457397461

> <r_mmod_Bend_Energy-OPLS-2005>
199.791320800781

> <r_mmod_Torsional_Energy-OPLS-2005>
217.362945556641

> <r_mmod_Improper_Torsional_Energy-OPLS-2005>
6.43212985992432

> <r_mmod_Van_der_Waal_Energy-OPLS-2005>
154.676727294922

> <r_mmod_Electrostatic_Energy-OPLS-2005>
-718.358093261719

> <r_mmod_Solvation_Energy-OPLS-2005>
-237.825744628906

> <b_mmod_Minimization_Converged-OPLS-2005>
0

> <r_mmod_RMS_Derivative-OPLS-2005>
0.565262198448181

$$$$
45
                    3D
 Structure written by MMmdl.
169177  0  0  1  0            999 V2000
  -30.6264  -14.6246   20.5151 C   0  0  0  0  0  0
  -30.4255  -12.3811   19.4756 C   0  0  0  0  0  0
  -29.5164  -12.5054   18.2340 C   0  0  0  0  0  0
  -28.0344  -12.3373   18.6316 C   0  0  0  0  0  0
  -27.6459  -13.2147   19.8558 C   0  0  2  0  0  0
  -28.6777  -13.0697   20.9973 C   0  0  0  0  0  0
  -25.2515  -13.8126   20.5618 C   0  0  0  0  0  0
  -24.1799  -13.0414   20.9170 C   0  0  0  0  0  0
  -24.6354  -11.6876   20.8734 C   0  0  0  0  0  0
  -23.9022  -10.4274   21.0414 C   0  0  0  0  0  0
  -24.3573   -9.4196   21.9212 C   0  0  0  0  0  0
  -23.6239   -8.2234   22.0789 C   0  0  0  0  0  0
  -22.4233   -8.0271   21.3562 C   0  0  0  0  0  0
  -21.9849   -9.0242   20.4682 C   0  0  0  0  0  0
  -22.7174  -10.2111   20.3075 C   0  0  0  0  0  0
  -21.6832   -6.0728   22.5287 C   0  0  0  0  0  0
  -21.4015   -6.5640   23.8222 C   0  0  0  0  0  0
  -21.3671   -5.6796   24.9195 C   0  0  0  0  0  0
  -21.6042   -4.3052   24.7251 C   0  0  0  0  0  0
  -21.8810   -3.8138   23.4369 C   0  0  0  0  0  0
  -21.9179   -4.6957   22.3422 C   0  0  0  0  0  0
  -22.7843  -13.5248   21.1840 C   0  0  0  0  0  0
  -22.1649   -4.2140   21.0992 F   0  0  0  0  0  0
  -21.5619   -3.4534   25.7759 F   0  0  0  0  0  0
  -30.0030  -13.4063   20.4516 N   0  0  0  0  0  0
  -26.2917  -12.9300   20.3184 N   0  0  0  0  0  0
  -25.9271  -11.6465   20.5699 N   0  0  0  0  0  0
  -22.0410  -12.8315   22.0375 N   0  0  0  0  0  0
  -25.4197  -15.1853   20.4143 N   0  0  0  0  0  0
  -31.7827  -14.7725   20.1034 O   0  0  0  0  0  0
  -21.6618   -6.8847   21.4230 O   0  0  0  0  0  0
  -22.3618  -14.5624   20.6724 O   0  0  0  0  0  0
  -24.6250  -31.8634   23.2003 C   0  0  0  0  0  0
  -25.9084  -32.4819   23.8356 C   0  0  1  0  0  0
  -27.2287  -27.3076   20.1108 C   0  0  0  0  0  0
  -25.5899  -33.8612   24.2294 N   0  0  0  0  0  0
  -23.4211  -30.4750   21.5492 C   0  0  2  0  0  0
  -24.8685  -28.9293   20.1173 C   0  0  0  0  0  0
  -22.7498  -29.4569   22.5017 C   0  0  0  0  0  0
  -18.0289  -28.1316   22.8508 C   0  0  0  0  0  0
  -24.1474  -36.7280   23.2631 C   0  0  0  0  0  0
  -25.9638  -30.7820   21.3778 C   0  0  0  0  0  0
  -26.0381  -29.4077   20.7220 C   0  0  0  0  0  0
  -27.2187  -28.6060   20.7113 C   0  0  0  0  0  0
  -26.0366  -26.8938   19.4668 C   0  0  0  0  0  0
  -24.8681  -27.6795   19.4851 C   0  0  0  0  0  0
  -23.6334  -29.8051   20.1682 C   0  0  0  0  0  0
  -25.4108  -36.3103   24.0324 C   0  0  1  0  0  0
  -20.5888  -28.3625   23.1306 C   0  0  2  0  0  0
  -20.6778  -26.9344   22.5429 C   0  0  0  0  0  0
  -19.5764  -26.6313   21.5224 C   0  0  0  0  0  0
  -18.1937  -26.7880   22.1597 C   0  0  0  0  0  0
  -19.1547  -28.8800   23.2892 C   0  0  0  0  0  0
  -18.9432  -30.1417   23.8879 C   0  0  0  0  0  0
  -17.6431  -30.6550   24.0481 C   0  0  0  0  0  0
  -25.9060  -34.9476   23.5120 C   0  0  0  0  0  0
  -16.5331  -29.9021   23.6262 C   0  0  0  0  0  0
  -16.7273  -28.6389   23.0376 C   0  0  0  0  0  0
  -26.4464  -31.6643   25.0733 C   0  0  0  0  0  0
  -25.3684  -31.3808   26.1461 C   0  0  0  0  0  0
  -27.0279  -30.3059   24.6163 C   0  0  0  0  0  0
  -27.6022  -32.4393   25.7504 C   0  0  0  0  0  0
  -27.5578  -37.1789   24.8466 C   0  0  0  0  0  0
  -21.4224  -29.2969   22.3730 N   0  0  0  0  0  0
  -26.4288  -37.3787   23.9418 N   0  0  0  0  0  0
  -24.6891  -31.0565   22.0998 N   0  0  0  0  0  0
  -23.4225  -28.8129   23.3096 O   0  0  0  0  0  0
  -28.3537  -26.4631   20.1849 O   0  0  0  0  0  0
  -26.5615  -34.8935   22.4673 O   0  0  0  0  0  0
  -23.5398  -32.1453   23.7289 O   0  0  0  0  0  0
  -27.0831  -20.2378   22.0116 C   0  0  0  0  0  0
  -25.6919  -20.3144   22.1066 C   0  0  0  0  0  0
  -27.6188  -19.6377   20.8594 C   0  0  0  0  0  0
  -25.5020  -19.1594   20.1425 C   0  0  0  0  0  0
  -25.0206  -21.0879   23.2254 C   0  0  0  0  0  0
  -24.5991  -18.5095   19.1163 C   0  0  0  0  0  0
  -29.4837  -18.0503   22.5855 C   0  0  0  0  0  0
  -28.8276  -22.4005   20.2222 C   0  0  0  0  0  0
  -29.1643  -23.9225   20.5618 C   0  0  0  0  0  0
  -29.6557  -21.1746   20.8543 C   0  0  0  0  0  0
  -29.9067  -17.0860   20.2189 C   0  0  0  0  0  0
  -28.2048  -25.0142   19.8977 C   0  0  0  0  0  0
  -29.1176  -19.6851   20.5550 C   0  0  2  0  0  0
  -29.8939  -18.3960   21.1431 C   0  0  2  0  0  0
  -24.9041  -19.7636   21.1677 N   0  0  0  0  0  0
  -26.8120  -19.0843   19.9328 N   0  0  0  0  0  0
  -29.8430  -15.7035   20.8207 N   0  0  0  0  0  0
  -31.4730  -12.4854   19.1961 H   0  0  0  0  0  0
  -30.3337  -11.3901   19.9182 H   0  0  0  0  0  0
  -29.8022  -11.7618   17.4876 H   0  0  0  0  0  0
  -29.6580  -13.4812   17.7667 H   0  0  0  0  0  0
  -27.8807  -11.2851   18.8709 H   0  0  0  0  0  0
  -27.3851  -12.5503   17.7831 H   0  0  0  0  0  0
  -27.6563  -14.2505   19.5137 H   0  0  0  0  0  0
  -28.6735  -12.0438   21.3685 H   0  0  0  0  0  0
  -28.4145  -13.6959   21.8519 H   0  0  0  0  0  0
  -25.2687   -9.5704   22.4820 H   0  0  0  0  0  0
  -23.9954   -7.4644   22.7528 H   0  0  0  0  0  0
  -21.0780   -8.8750   19.9011 H   0  0  0  0  0  0
  -22.3603  -10.9660   19.6221 H   0  0  0  0  0  0
  -21.2002   -7.6140   23.9727 H   0  0  0  0  0  0
  -21.1504   -6.0528   25.9099 H   0  0  0  0  0  0
  -22.0571   -2.7594   23.2870 H   0  0  0  0  0  0
  -22.3896  -11.9949   22.4817 H   0  0  0  0  0  0
  -21.1085  -13.1508   22.2539 H   0  0  0  0  0  0
  -24.6536  -15.8233   20.5981 H   0  0  0  0  0  0
  -26.2678  -15.6461   20.1116 H   0  0  0  0  0  0
  -26.7153  -32.5482   23.1101 H   0  0  0  0  0  0
  -25.0094  -33.9790   25.0477 H   0  0  0  0  0  0
  -22.7119  -31.2927   21.4006 H   0  0  0  0  0  0
  -23.3755  -35.9593   23.3322 H   0  0  0  0  0  0
  -24.3548  -36.8865   22.2037 H   0  0  0  0  0  0
  -23.7203  -37.6475   23.6637 H   0  0  0  0  0  0
  -26.0944  -31.5415   20.6055 H   0  0  0  0  0  0
  -26.8458  -30.8373   22.0056 H   0  0  0  0  0  0
  -28.1204  -28.9574   21.1920 H   0  0  0  0  0  0
  -25.9698  -25.9478   18.9511 H   0  0  0  0  0  0
  -23.9700  -27.3118   19.0099 H   0  0  0  0  0  0
  -23.7412  -30.5735   19.4016 H   0  0  0  0  0  0
  -22.7562  -29.2234   19.8807 H   0  0  0  0  0  0
  -25.1284  -36.1964   25.0810 H   0  0  0  0  0  0
  -20.9942  -28.3177   24.1444 H   0  0  0  0  0  0
  -20.5678  -26.2246   23.3634 H   0  0  0  0  0  0
  -21.6650  -26.7379   22.1197 H   0  0  0  0  0  0
  -19.6941  -25.6208   21.1298 H   0  0  0  0  0  0
  -19.6707  -27.3111   20.6758 H   0  0  0  0  0  0
  -17.4242  -26.6641   21.3952 H   0  0  0  0  0  0
  -18.0278  -26.0038   22.8983 H   0  0  0  0  0  0
  -19.7908  -30.7228   24.2275 H   0  0  0  0  0  0
  -17.4946  -31.6246   24.5032 H   0  0  0  0  0  0
  -15.5316  -30.2866   23.7550 H   0  0  0  0  0  0
  -15.8700  -28.0615   22.7183 H   0  0  0  0  0  0
  -24.5811  -30.7207   25.7792 H   0  0  0  0  0  0
  -24.8911  -32.2997   26.4881 H   0  0  0  0  0  0
  -25.7977  -30.8973   27.0250 H   0  0  0  0  0  0
  -26.2843  -29.6873   24.1104 H   0  0  0  0  0  0
  -27.3909  -29.7236   25.4646 H   0  0  0  0  0  0
  -27.8763  -30.4352   23.9434 H   0  0  0  0  0  0
  -27.2602  -33.3673   26.2102 H   0  0  0  0  0  0
  -28.3809  -32.7009   25.0329 H   0  0  0  0  0  0
  -28.0730  -31.8527   26.5398 H   0  0  0  0  0  0
  -28.2618  -38.0072   24.7517 H   0  0  0  0  0  0
  -28.1060  -36.2596   24.6304 H   0  0  0  0  0  0
  -27.2298  -37.1467   25.8874 H   0  0  0  0  0  0
  -20.9444  -29.8736   21.6956 H   0  0  0  0  0  0
  -26.0184  -38.2866   24.1416 H   0  0  0  0  0  0
  -27.7101  -20.6918   22.7637 H   0  0  0  0  0  0
  -25.7092  -21.2605   24.0531 H   0  0  0  0  0  0
  -24.1508  -20.5607   23.6151 H   0  0  0  0  0  0
  -24.6961  -22.0627   22.8592 H   0  0  0  0  0  0
  -23.9918  -19.2560   18.6045 H   0  0  0  0  0  0
  -23.9369  -17.7987   19.6075 H   0  0  0  0  0  0
  -25.1667  -17.9606   18.3673 H   0  0  0  0  0  0
  -30.1902  -17.3579   23.0447 H   0  0  0  0  0  0
  -28.4947  -17.5905   22.6241 H   0  0  0  0  0  0
  -29.4616  -18.9458   23.2024 H   0  0  0  0  0  0
  -28.8524  -22.2936   19.1386 H   0  0  0  0  0  0
  -27.7791  -22.2800   20.4930 H   0  0  0  0  0  0
  -30.1973  -24.1265   20.2837 H   0  0  0  0  0  0
  -29.1210  -24.0426   21.6441 H   0  0  0  0  0  0
  -29.6878  -21.3133   21.9347 H   0  0  0  0  0  0
  -30.6979  -21.2345   20.5356 H   0  0  0  0  0  0
  -30.7555  -17.1303   19.5336 H   0  0  0  0  0  0
  -29.0370  -17.1353   19.5643 H   0  0  0  0  0  0
  -27.2002  -24.6975   20.1787 H   0  0  0  0  0  0
  -28.2731  -24.8980   18.8145 H   0  0  0  0  0  0
  -29.2099  -19.5925   19.4715 H   0  0  0  0  0  0
  -30.9366  -18.7053   21.2093 H   0  0  0  0  0  0
  -28.9350  -15.4613   21.1882 H   0  0  0  0  0  0
  1 25  1  0  0  0
  1 30  2  0  0  0
  1 87  1  0  0  0
  2  3  1  0  0  0
  2 25  1  0  0  0
  2 88  1  0  0  0
  2 89  1  0  0  0
  3  4  1  0  0  0
  3 90  1  0  0  0
  3 91  1  0  0  0
  4  5  1  0  0  0
  4 92  1  0  0  0
  4 93  1  0  0  0
  5  6  1  0  0  0
  5 26  1  0  0  0
  5 94  1  0  0  0
  6 25  1  0  0  0
  6 95  1  0  0  0
  6 96  1  0  0  0
  7  8  2  0  0  0
  7 26  1  0  0  0
  7 29  1  0  0  0
  8  9  1  0  0  0
  8 22  1  0  0  0
  9 10  1  0  0  0
  9 27  2  0  0  0
 10 11  2  0  0  0
 10 15  1  0  0  0
 11 12  1  0  0  0
 11 97  1  0  0  0
 12 13  2  0  0  0
 12 98  1  0  0  0
 13 14  1  0  0  0
 13 31  1  0  0  0
 14 15  2  0  0  0
 14 99  1  0  0  0
 15100  1  0  0  0
 16 17  2  0  0  0
 16 21  1  0  0  0
 16 31  1  0  0  0
 17 18  1  0  0  0
 17101  1  0  0  0
 18 19  2  0  0  0
 18102  1  0  0  0
 19 20  1  0  0  0
 19 24  1  0  0  0
 20 21  2  0  0  0
 20103  1  0  0  0
 21 23  1  0  0  0
 22 28  1  0  0  0
 22 32  2  0  0  0
 26 27  1  0  0  0
 28104  1  0  0  0
 28105  1  0  0  0
 29106  1  0  0  0
 29107  1  0  0  0
 33 34  1  0  0  0
 33 66  1  0  0  0
 33 70  2  0  0  0
 34 36  1  0  0  0
 34 59  1  0  0  0
 34108  1  0  0  0
 35 44  2  0  0  0
 35 45  1  0  0  0
 35 68  1  0  0  0
 36 56  1  0  0  0
 36109  1  0  0  0
 37 39  1  0  0  0
 37 47  1  0  0  0
 37 66  1  0  0  0
 37110  1  0  0  0
 38 43  2  0  0  0
 38 46  1  0  0  0
 38 47  1  0  0  0
 39 64  1  0  0  0
 39 67  2  0  0  0
 40 52  1  0  0  0
 40 53  2  0  0  0
 40 58  1  0  0  0
 41111  1  0  0  0
 41112  1  0  0  0
 41113  1  0  0  0
 41 48  1  0  0  0
 42 43  1  0  0  0
 42 66  1  0  0  0
 42114  1  0  0  0
 42115  1  0  0  0
 43 44  1  0  0  0
 44116  1  0  0  0
 45 46  2  0  0  0
 45117  1  0  0  0
 46118  1  0  0  0
 47119  1  0  0  0
 47120  1  0  0  0
 48 56  1  0  0  0
 48 65  1  0  0  0
 48121  1  0  0  0
 49 50  1  0  0  0
 49 53  1  0  0  0
 49 64  1  0  0  0
 49122  1  0  0  0
 50 51  1  0  0  0
 50123  1  0  0  0
 50124  1  0  0  0
 51 52  1  0  0  0
 51125  1  0  0  0
 51126  1  0  0  0
 52127  1  0  0  0
 52128  1  0  0  0
 53 54  1  0  0  0
 54 55  2  0  0  0
 54129  1  0  0  0
 55 57  1  0  0  0
 55130  1  0  0  0
 56 69  2  0  0  0
 57 58  2  0  0  0
 57131  1  0  0  0
 58132  1  0  0  0
 59 60  1  0  0  0
 59 61  1  0  0  0
 59 62  1  0  0  0
 60133  1  0  0  0
 60134  1  0  0  0
 60135  1  0  0  0
 61136  1  0  0  0
 61137  1  0  0  0
 61138  1  0  0  0
 62139  1  0  0  0
 62140  1  0  0  0
 62141  1  0  0  0
 63 65  1  0  0  0
 63142  1  0  0  0
 63143  1  0  0  0
 63144  1  0  0  0
 64145  1  0  0  0
 65146  1  0  0  0
 68 82  1  0  0  0
 71 72  2  0  0  0
 71 73  1  0  0  0
 71147  1  0  0  0
 72 75  1  0  0  0
 72 85  1  0  0  0
 73 83  1  0  0  0
 73 86  2  0  0  0
 74 76  1  0  0  0
 74 85  2  0  0  0
 74 86  1  0  0  0
 75148  1  0  0  0
 75149  1  0  0  0
 75150  1  0  0  0
 76151  1  0  0  0
 76152  1  0  0  0
 76153  1  0  0  0
 77154  1  0  0  0
 77155  1  0  0  0
 77156  1  0  0  0
 77 84  1  0  0  0
 78 79  1  0  0  0
 78 80  1  0  0  0
 78157  1  0  0  0
 78158  1  0  0  0
 79 82  1  0  0  0
 79159  1  0  0  0
 79160  1  0  0  0
 80161  1  0  0  0
 80162  1  0  0  0
 80 83  1  0  0  0
 81 84  1  0  0  0
 81 87  1  0  0  0
 81163  1  0  0  0
 81164  1  0  0  0
 82165  1  0  0  0
 82166  1  0  0  0
 83 84  1  0  0  0
 83167  1  0  0  0
 84168  1  0  0  0
 87169  1  0  0  0
M  ISO  4   1 100  68 101  82 101  87 100
M  END
> <chiral flag>
0

> <version>
0

> <s_m_source_file>
/data/baiqing/PycharmProjects/Reinvent-master-3.2/result/LINK_invent/BTK/process_docking_weight1_custom_sum_contain_oxygen_bond_distance_aromatic_linkinvent_7_9_3/rearranged_h_0081.sdf

> <i_m_source_file_index>
46

> <r_mmod_Potential_Energy-OPLS-2005>
-326.913269042969

> <r_mmod_Stretch_Energy-OPLS-2005>
94.7443084716797

> <r_mmod_Bend_Energy-OPLS-2005>
154.952377319336

> <r_mmod_Torsional_Energy-OPLS-2005>
227.810821533203

> <r_mmod_Improper_Torsional_Energy-OPLS-2005>
7.52557420730591

> <r_mmod_Van_der_Waal_Energy-OPLS-2005>
147.983764648438

> <r_mmod_Electrostatic_Energy-OPLS-2005>
-789.552185058594

> <r_mmod_Solvation_Energy-OPLS-2005>
-219.444564819336

> <b_mmod_Minimization_Converged-OPLS-2005>
0

> <r_mmod_RMS_Derivative-OPLS-2005>
5.30635261535645

$$$$
46
                    3D
 Structure written by MMmdl.
176184  0  0  1  0            999 V2000
  -30.5383  -15.0003   20.3432 C   0  0  0  0  0  0
  -30.4439  -12.6199   19.4713 C   0  0  0  0  0  0
  -29.5101  -12.5259   18.2429 C   0  0  0  0  0  0
  -28.0490  -12.2898   18.6752 C   0  0  0  0  0  0
  -27.6218  -13.2225   19.8345 C   0  0  2  0  0  0
  -28.6827  -13.2792   20.9485 C   0  0  0  0  0  0
  -25.2465  -13.8137   20.5745 C   0  0  0  0  0  0
  -24.1761  -13.0385   20.9248 C   0  0  0  0  0  0
  -24.6363  -11.6875   20.8781 C   0  0  0  0  0  0
  -23.9044  -10.4267   21.0429 C   0  0  0  0  0  0
  -24.3602   -9.4187   21.9195 C   0  0  0  0  0  0
  -23.6291   -8.2221   22.0752 C   0  0  0  0  0  0
  -22.4275   -8.0263   21.3540 C   0  0  0  0  0  0
  -21.9913   -9.0232   20.4633 C   0  0  0  0  0  0
  -22.7228  -10.2118   20.3065 C   0  0  0  0  0  0
  -21.6844   -6.0731   22.5281 C   0  0  0  0  0  0
  -21.4005   -6.5638   23.8212 C   0  0  0  0  0  0
  -21.3661   -5.6794   24.9176 C   0  0  0  0  0  0
  -21.6048   -4.3058   24.7229 C   0  0  0  0  0  0
  -21.8815   -3.8147   23.4352 C   0  0  0  0  0  0
  -21.9183   -4.6960   22.3407 C   0  0  0  0  0  0
  -22.7784  -13.5176   21.1881 C   0  0  0  0  0  0
  -22.1660   -4.2149   21.0987 F   0  0  0  0  0  0
  -21.5637   -3.4541   25.7743 F   0  0  0  0  0  0
  -29.9404  -13.7312   20.3295 N   0  0  0  0  0  0
  -26.2861  -12.9302   20.3304 N   0  0  0  0  0  0
  -25.9288  -11.6460   20.5796 N   0  0  0  0  0  0
  -22.0432  -12.8159   22.0438 N   0  0  0  0  0  0
  -25.4118  -15.1860   20.4149 N   0  0  0  0  0  0
  -31.7685  -14.9525   20.3169 O   0  0  0  0  0  0
  -21.6631   -6.8868   21.4243 O   0  0  0  0  0  0
  -22.3461  -14.5475   20.6731 O   0  0  0  0  0  0
  -24.6410  -31.8461   23.1897 C   0  0  0  0  0  0
  -25.9188  -32.4707   23.8288 C   0  0  1  0  0  0
  -27.2255  -27.1622   20.1600 C   0  0  0  0  0  0
  -25.5947  -33.8510   24.2208 N   0  0  0  0  0  0
  -23.4442  -30.4642   21.5340 C   0  0  2  0  0  0
  -24.8958  -28.8897   20.1159 C   0  0  0  0  0  0
  -22.7554  -29.4550   22.4867 C   0  0  0  0  0  0
  -18.0300  -28.1386   22.8475 C   0  0  0  0  0  0
  -24.1486  -36.7258   23.2644 C   0  0  0  0  0  0
  -25.9967  -30.7292   21.3830 C   0  0  0  0  0  0
  -26.0719  -29.3403   20.7301 C   0  0  0  0  0  0
  -27.2399  -28.4940   20.7317 C   0  0  0  0  0  0
  -26.0250  -26.8015   19.5121 C   0  0  0  0  0  0
  -24.8828  -27.6320   19.4924 C   0  0  0  0  0  0
  -23.6711  -29.7902   20.1546 C   0  0  0  0  0  0
  -25.4118  -36.3042   24.0319 C   0  0  1  0  0  0
  -20.5909  -28.3717   23.1233 C   0  0  2  0  0  0
  -20.6781  -26.9421   22.5403 C   0  0  0  0  0  0
  -19.5757  -26.6377   21.5204 C   0  0  0  0  0  0
  -18.1936  -26.7927   22.1613 C   0  0  0  0  0  0
  -19.1557  -28.8868   23.2846 C   0  0  0  0  0  0
  -18.9474  -30.1460   23.8881 C   0  0  0  0  0  0
  -17.6475  -30.6588   24.0558 C   0  0  0  0  0  0
  -25.9064  -34.9416   23.5073 C   0  0  0  0  0  0
  -16.5363  -29.9086   23.6338 C   0  0  0  0  0  0
  -16.7285  -28.6497   23.0367 C   0  0  0  0  0  0
  -26.4525  -31.6571   25.0721 C   0  0  0  0  0  0
  -25.3723  -31.3738   26.1422 C   0  0  0  0  0  0
  -27.0402  -30.2978   24.6282 C   0  0  0  0  0  0
  -27.6059  -32.4337   25.7501 C   0  0  0  0  0  0
  -27.5573  -37.1785   24.8468 C   0  0  0  0  0  0
  -21.4245  -29.3050   22.3610 N   0  0  0  0  0  0
  -26.4285  -37.3755   23.9409 N   0  0  0  0  0  0
  -24.7137  -31.0335   22.0916 N   0  0  0  0  0  0
  -23.4203  -28.8100   23.3013 O   0  0  0  0  0  0
  -28.2987  -26.2084   20.1693 O   0  0  0  0  0  0
  -26.5650  -34.8911   22.4649 O   0  0  0  0  0  0
  -23.5533  -32.1321   23.7130 O   0  0  0  0  0  0
  -32.5201  -19.0295   20.4966 C   0  0  0  0  0  0
  -31.9128  -18.1300   19.5809 C   0  0  0  0  0  0
  -31.5311  -19.7937   21.0311 C   0  0  0  0  0  0
  -30.6649  -17.9121   20.1465 C   0  0  0  0  0  0
  -31.7136  -21.0267   21.8518 C   0  0  0  0  0  0
  -27.3865  -21.6769   21.4227 C   0  0  0  0  0  0
  -33.9867  -18.2886   18.1145 C   0  0  0  0  0  0
  -31.7178  -18.4007   17.1203 C   0  0  0  0  0  0
  -32.6632  -16.2300   17.9179 C   0  0  0  0  0  0
  -28.9948  -16.5638   18.8462 C   0  0  0  0  0  0
  -28.8067  -16.6995   21.3450 C   0  0  0  0  0  0
  -28.7960  -23.3327   20.0175 C   0  0  0  0  0  0
  -29.1640  -20.3286   20.1102 C   0  0  0  0  0  0
  -28.0886  -24.7396   20.6138 C   0  0  0  0  0  0
  -28.7839  -21.8374   20.7980 C   0  0  2  0  0  0
  -32.5502  -17.7280   18.2279 C   0  0  0  0  0  0
  -29.7902  -16.5276   20.1720 C   0  0  0  0  0  0
  -30.3305  -19.3339   20.4852 N   0  0  0  0  0  0
  -31.4675  -12.7973   19.1387 H   0  0  0  0  0  0
  -30.4678  -11.6773   20.0204 H   0  0  0  0  0  0
  -29.8374  -11.7283   17.5750 H   0  0  0  0  0  0
  -29.5729  -13.4515   17.6688 H   0  0  0  0  0  0
  -27.9620  -11.2493   18.9908 H   0  0  0  0  0  0
  -27.3755  -12.4086   17.8259 H   0  0  0  0  0  0
  -27.5534  -14.2021   19.3892 H   0  0  0  0  0  0
  -28.8026  -12.2940   21.4018 H   0  0  0  0  0  0
  -28.3878  -13.9301   21.7678 H   0  0  0  0  0  0
  -25.2743   -9.5672   22.4765 H   0  0  0  0  0  0
  -23.9993   -7.4608   22.7467 H   0  0  0  0  0  0
  -21.0854   -8.8751   19.8927 H   0  0  0  0  0  0
  -22.3686  -10.9662   19.6186 H   0  0  0  0  0  0
  -21.2002   -7.6146   23.9718 H   0  0  0  0  0  0
  -21.1490   -6.0527   25.9078 H   0  0  0  0  0  0
  -22.0598   -2.7609   23.2857 H   0  0  0  0  0  0
  -22.4073  -11.9839   22.4839 H   0  0  0  0  0  0
  -21.1045  -13.1156   22.2636 H   0  0  0  0  0  0
  -24.6430  -15.8364   20.5372 H   0  0  0  0  0  0
  -26.2586  -15.6338   20.0921 H   0  0  0  0  0  0
  -26.7251  -32.5330   23.1018 H   0  0  0  0  0  0
  -25.0096  -33.9626   25.0356 H   0  0  0  0  0  0
  -22.7456  -31.2889   21.3782 H   0  0  0  0  0  0
  -23.3760  -35.9577   23.3296 H   0  0  0  0  0  0
  -24.3570  -36.8904   22.2062 H   0  0  0  0  0  0
  -23.7227  -37.6443   23.6690 H   0  0  0  0  0  0
  -26.1464  -31.4836   20.6100 H   0  0  0  0  0  0
  -26.8685  -30.7821   22.0243 H   0  0  0  0  0  0
  -28.1401  -28.8393   21.2204 H   0  0  0  0  0  0
  -25.9593  -25.8401   19.0231 H   0  0  0  0  0  0
  -23.9864  -27.2805   19.0005 H   0  0  0  0  0  0
  -23.8071  -30.5635   19.3970 H   0  0  0  0  0  0
  -22.7867  -29.2303   19.8458 H   0  0  0  0  0  0
  -25.1304  -36.1879   25.0812 H   0  0  0  0  0  0
  -20.9996  -28.3306   24.1356 H   0  0  0  0  0  0
  -20.5660  -26.2332   23.3620 H   0  0  0  0  0  0
  -21.6648  -26.7415   22.1211 H   0  0  0  0  0  0
  -19.6920  -25.6283   21.1251 H   0  0  0  0  0  0
  -19.6697  -27.3170   20.6718 H   0  0  0  0  0  0
  -17.4208  -26.6675   21.4020 H   0  0  0  0  0  0
  -18.0331  -26.0067   22.9008 H   0  0  0  0  0  0
  -19.7951  -30.7269   24.2258 H   0  0  0  0  0  0
  -17.5034  -31.6271   24.5154 H   0  0  0  0  0  0
  -15.5363  -30.2989   23.7665 H   0  0  0  0  0  0
  -15.8679  -28.0803   22.7114 H   0  0  0  0  0  0
  -24.5924  -30.7052   25.7750 H   0  0  0  0  0  0
  -24.8880  -32.2907   26.4797 H   0  0  0  0  0  0
  -25.8028  -30.8963   27.0237 H   0  0  0  0  0  0
  -26.3021  -29.6688   24.1290 H   0  0  0  0  0  0
  -27.4036  -29.7287   25.4851 H   0  0  0  0  0  0
  -27.8918  -30.4233   23.9588 H   0  0  0  0  0  0
  -27.2663  -33.3667   26.2015 H   0  0  0  0  0  0
  -28.3906  -32.6848   25.0350 H   0  0  0  0  0  0
  -28.0690  -31.8505   26.5475 H   0  0  0  0  0  0
  -28.2587  -38.0088   24.7521 H   0  0  0  0  0  0
  -28.1078  -36.2617   24.6292 H   0  0  0  0  0  0
  -27.2292  -37.1432   25.8873 H   0  0  0  0  0  0
  -20.9451  -29.8775   21.6802 H   0  0  0  0  0  0
  -26.0157  -38.2823   24.1426 H   0  0  0  0  0  0
  -33.5631  -19.3090   20.5541 H   0  0  0  0  0  0
  -32.7253  -21.0714   22.2556 H   0  0  0  0  0  0
  -31.0402  -21.0335   22.7091 H   0  0  0  0  0  0
  -31.5725  -21.9277   21.2563 H   0  0  0  0  0  0
  -27.1212  -22.5328   22.0432 H   0  0  0  0  0  0
  -27.3443  -20.7972   22.0664 H   0  0  0  0  0  0
  -26.6172  -21.5674   20.6571 H   0  0  0  0  0  0
  -34.0111  -19.3754   18.2046 H   0  0  0  0  0  0
  -34.4392  -18.0430   17.1517 H   0  0  0  0  0  0
  -34.6353  -17.8741   18.8879 H   0  0  0  0  0  0
  -31.6921  -19.4831   17.2537 H   0  0  0  0  0  0
  -30.6860  -18.0541   17.1208 H   0  0  0  0  0  0
  -32.1251  -18.2058   16.1275 H   0  0  0  0  0  0
  -33.3163  -15.7330   18.6338 H   0  0  0  0  0  0
  -33.1141  -16.0688   16.9385 H   0  0  0  0  0  0
  -31.7021  -15.7259   17.8866 H   0  0  0  0  0  0
  -28.7924  -17.5894   18.5384 H   0  0  0  0  0  0
  -28.0173  -16.1057   18.9153 H   0  0  0  0  0  0
  -29.5330  -16.0917   18.0272 H   0  0  0  0  0  0
  -28.3022  -17.6630   21.3005 H   0  0  0  0  0  0
  -29.3251  -16.6511   22.3029 H   0  0  0  0  0  0
  -28.0158  -15.9567   21.3420 H   0  0  0  0  0  0
  -29.8431  -23.5674   19.8234 H   0  0  0  0  0  0
  -28.3657  -23.1731   19.0290 H   0  0  0  0  0  0
  -29.3226  -20.5386   19.0515 H   0  0  0  0  0  0
  -28.2581  -19.7221   20.1015 H   0  0  0  0  0  0
  -28.3580  -24.7646   21.6701 H   0  0  0  0  0  0
  -27.0146  -24.5568   20.6303 H   0  0  0  0  0  0
  -29.4066  -21.9828   21.6703 H   0  0  0  0  0  0
  1 25  1  0  0  0
  1 30  2  0  0  0
  1 87  1  0  0  0
  2  3  1  0  0  0
  2 25  1  0  0  0
  2 89  1  0  0  0
  2 90  1  0  0  0
  3  4  1  0  0  0
  3 91  1  0  0  0
  3 92  1  0  0  0
  4  5  1  0  0  0
  4 93  1  0  0  0
  4 94  1  0  0  0
  5  6  1  0  0  0
  5 26  1  0  0  0
  5 95  1  0  0  0
  6 25  1  0  0  0
  6 96  1  0  0  0
  6 97  1  0  0  0
  7  8  2  0  0  0
  7 26  1  0  0  0
  7 29  1  0  0  0
  8  9  1  0  0  0
  8 22  1  0  0  0
  9 10  1  0  0  0
  9 27  2  0  0  0
 10 11  2  0  0  0
 10 15  1  0  0  0
 11 12  1  0  0  0
 11 98  1  0  0  0
 12 13  2  0  0  0
 12 99  1  0  0  0
 13 14  1  0  0  0
 13 31  1  0  0  0
 14 15  2  0  0  0
 14100  1  0  0  0
 15101  1  0  0  0
 16 17  2  0  0  0
 16 21  1  0  0  0
 16 31  1  0  0  0
 17 18  1  0  0  0
 17102  1  0  0  0
 18 19  2  0  0  0
 18103  1  0  0  0
 19 20  1  0  0  0
 19 24  1  0  0  0
 20 21  2  0  0  0
 20104  1  0  0  0
 21 23  1  0  0  0
 22 28  1  0  0  0
 22 32  2  0  0  0
 26 27  1  0  0  0
 28105  1  0  0  0
 28106  1  0  0  0
 29107  1  0  0  0
 29108  1  0  0  0
 33 34  1  0  0  0
 33 66  1  0  0  0
 33 70  2  0  0  0
 34 36  1  0  0  0
 34 59  1  0  0  0
 34109  1  0  0  0
 35 44  2  0  0  0
 35 45  1  0  0  0
 35 68  1  0  0  0
 36 56  1  0  0  0
 36110  1  0  0  0
 37 39  1  0  0  0
 37 47  1  0  0  0
 37 66  1  0  0  0
 37111  1  0  0  0
 38 43  2  0  0  0
 38 46  1  0  0  0
 38 47  1  0  0  0
 39 64  1  0  0  0
 39 67  2  0  0  0
 40 52  1  0  0  0
 40 53  2  0  0  0
 40 58  1  0  0  0
 41112  1  0  0  0
 41113  1  0  0  0
 41114  1  0  0  0
 41 48  1  0  0  0
 42 43  1  0  0  0
 42 66  1  0  0  0
 42115  1  0  0  0
 42116  1  0  0  0
 43 44  1  0  0  0
 44117  1  0  0  0
 45 46  2  0  0  0
 45118  1  0  0  0
 46119  1  0  0  0
 47120  1  0  0  0
 47121  1  0  0  0
 48 56  1  0  0  0
 48 65  1  0  0  0
 48122  1  0  0  0
 49 50  1  0  0  0
 49 53  1  0  0  0
 49 64  1  0  0  0
 49123  1  0  0  0
 50 51  1  0  0  0
 50124  1  0  0  0
 50125  1  0  0  0
 51 52  1  0  0  0
 51126  1  0  0  0
 51127  1  0  0  0
 52128  1  0  0  0
 52129  1  0  0  0
 53 54  1  0  0  0
 54 55  2  0  0  0
 54130  1  0  0  0
 55 57  1  0  0  0
 55131  1  0  0  0
 56 69  2  0  0  0
 57 58  2  0  0  0
 57132  1  0  0  0
 58133  1  0  0  0
 59 60  1  0  0  0
 59 61  1  0  0  0
 59 62  1  0  0  0
 60134  1  0  0  0
 60135  1  0  0  0
 60136  1  0  0  0
 61137  1  0  0  0
 61138  1  0  0  0
 61139  1  0  0  0
 62140  1  0  0  0
 62141  1  0  0  0
 62142  1  0  0  0
 63 65  1  0  0  0
 63143  1  0  0  0
 63144  1  0  0  0
 63145  1  0  0  0
 64146  1  0  0  0
 65147  1  0  0  0
 68 84  1  0  0  0
 71 72  1  0  0  0
 71 73  2  0  0  0
 71148  1  0  0  0
 72 74  2  0  0  0
 72 86  1  0  0  0
 73 75  1  0  0  0
 73 88  1  0  0  0
 74 87  1  0  0  0
 74 88  1  0  0  0
 75149  1  0  0  0
 75150  1  0  0  0
 75151  1  0  0  0
 76152  1  0  0  0
 76153  1  0  0  0
 76154  1  0  0  0
 76 85  1  0  0  0
 77155  1  0  0  0
 77156  1  0  0  0
 77157  1  0  0  0
 77 86  1  0  0  0
 78 86  1  0  0  0
 78158  1  0  0  0
 78159  1  0  0  0
 78160  1  0  0  0
 79 86  1  0  0  0
 79161  1  0  0  0
 79162  1  0  0  0
 79163  1  0  0  0
 80164  1  0  0  0
 80165  1  0  0  0
 80166  1  0  0  0
 80 87  1  0  0  0
 81 87  1  0  0  0
 81167  1  0  0  0
 81168  1  0  0  0
 81169  1  0  0  0
 82 84  1  0  0  0
 82 85  1  0  0  0
 82170  1  0  0  0
 82171  1  0  0  0
 83 85  1  0  0  0
 83 88  1  0  0  0
 83172  1  0  0  0
 83173  1  0  0  0
 84174  1  0  0  0
 84175  1  0  0  0
 85176  1  0  0  0
M  ISO  4   1 100  68 101  84 101  87 100
M  END
> <chiral flag>
0

> <version>
0

> <s_m_source_file>
/data/baiqing/PycharmProjects/Reinvent-master-3.2/result/LINK_invent/BTK/process_docking_weight1_custom_sum_contain_oxygen_bond_distance_aromatic_linkinvent_7_9_3/rearranged_h_0081.sdf

> <i_m_source_file_index>
47

> <r_mmod_Potential_Energy-OPLS-2005>
896.893981933594

> <r_mmod_Stretch_Energy-OPLS-2005>
302.523651123047

> <r_mmod_Bend_Energy-OPLS-2005>
321.0185546875

> <r_mmod_Torsional_Energy-OPLS-2005>
455.409332275391

> <r_mmod_Improper_Torsional_Energy-OPLS-2005>
10.3646850585938

> <r_mmod_Van_der_Waal_Energy-OPLS-2005>
116.626754760742

> <r_mmod_Electrostatic_Energy-OPLS-2005>
-325.148010253906

> <r_mmod_Solvation_Energy-OPLS-2005>
-183.716796875

> <b_mmod_Minimization_Converged-OPLS-2005>
0

> <r_mmod_RMS_Derivative-OPLS-2005>
1.91108679771423

$$$$
47
                    3D
 Structure written by MMmdl.
163171  0  0  1  0            999 V2000
  -30.7162  -14.4227   20.5858 C   0  0  0  0  0  0
  -30.4285  -12.2797   19.4113 C   0  0  0  0  0  0
  -29.4946  -12.4970   18.2009 C   0  0  0  0  0  0
  -28.0140  -12.3713   18.6142 C   0  0  0  0  0  0
  -27.6692  -13.1977   19.8816 C   0  0  2  0  0  0
  -28.7108  -12.9499   20.9955 C   0  0  0  0  0  0
  -25.2636  -13.8165   20.5693 C   0  0  0  0  0  0
  -24.1863  -13.0445   20.9158 C   0  0  0  0  0  0
  -24.6404  -11.6911   20.8718 C   0  0  0  0  0  0
  -23.9081  -10.4291   21.0399 C   0  0  0  0  0  0
  -24.3637   -9.4210   21.9182 C   0  0  0  0  0  0
  -23.6307   -8.2254   22.0756 C   0  0  0  0  0  0
  -22.4294   -8.0296   21.3542 C   0  0  0  0  0  0
  -21.9926   -9.0277   20.4655 C   0  0  0  0  0  0
  -22.7253  -10.2150   20.3056 C   0  0  0  0  0  0
  -21.6852   -6.0745   22.5289 C   0  0  0  0  0  0
  -21.4001   -6.5651   23.8217 C   0  0  0  0  0  0
  -21.3648   -5.6807   24.9181 C   0  0  0  0  0  0
  -21.6039   -4.3074   24.7230 C   0  0  0  0  0  0
  -21.8814   -3.8160   23.4356 C   0  0  0  0  0  0
  -21.9182   -4.6971   22.3410 C   0  0  0  0  0  0
  -22.7889  -13.5256   21.1841 C   0  0  0  0  0  0
  -22.1675   -4.2154   21.0990 F   0  0  0  0  0  0
  -21.5617   -3.4556   25.7742 F   0  0  0  0  0  0
  -30.0466  -13.2486   20.4464 N   0  0  0  0  0  0
  -26.3067  -12.9308   20.3386 N   0  0  0  0  0  0
  -25.9321  -11.6479   20.5744 N   0  0  0  0  0  0
  -22.0559  -12.8219   22.0402 N   0  0  0  0  0  0
  -25.4429  -15.1891   20.4153 N   0  0  0  0  0  0
  -31.8129  -14.6518   20.0738 O   0  0  0  0  0  0
  -21.6650   -6.8898   21.4254 O   0  0  0  0  0  0
  -22.3574  -14.5573   20.6717 O   0  0  0  0  0  0
  -24.6339  -31.8739   23.2144 C   0  0  0  0  0  0
  -25.9197  -32.4849   23.8441 C   0  0  1  0  0  0
  -27.2409  -27.4411   20.0680 C   0  0  0  0  0  0
  -25.6023  -33.8647   24.2373 N   0  0  0  0  0  0
  -23.4357  -30.4977   21.5693 C   0  0  2  0  0  0
  -24.8518  -28.9552   20.1237 C   0  0  0  0  0  0
  -22.7750  -29.4840   22.5248 C   0  0  0  0  0  0
  -17.9927  -28.1218   22.8735 C   0  0  0  0  0  0
  -24.1508  -36.7314   23.2632 C   0  0  0  0  0  0
  -25.9521  -30.8345   21.3624 C   0  0  0  0  0  0
  -26.0164  -29.4688   20.7066 C   0  0  0  0  0  0
  -27.2113  -28.7184   20.6727 C   0  0  0  0  0  0
  -26.0505  -26.9325   19.4975 C   0  0  0  0  0  0
  -24.8624  -27.6858   19.5214 C   0  0  0  0  0  0
  -23.6180  -29.8248   20.1817 C   0  0  0  0  0  0
  -25.4120  -36.3112   24.0333 C   0  0  1  0  0  0
  -20.4784  -28.4586   22.7841 C   0  0  2  0  0  0
  -20.6884  -26.9608   22.5348 C   0  0  0  0  0  0
  -19.5526  -26.4576   21.6181 C   0  0  0  0  0  0
  -18.1534  -26.7520   22.2076 C   0  0  0  0  0  0
  -19.1142  -28.8992   23.2520 C   0  0  0  0  0  0
  -18.9337  -30.1500   23.8765 C   0  0  0  0  0  0
  -17.6356  -30.6526   24.0800 C   0  0  0  0  0  0
  -25.9065  -34.9482   23.5130 C   0  0  0  0  0  0
  -16.5195  -29.8974   23.6762 C   0  0  0  0  0  0
  -16.6979  -28.6301   23.0912 C   0  0  0  0  0  0
  -26.4544  -31.6590   25.0759 C   0  0  0  0  0  0
  -25.3782  -31.3697   26.1475 C   0  0  0  0  0  0
  -27.0352  -30.3021   24.6138 C   0  0  0  0  0  0
  -27.6105  -32.4293   25.7547 C   0  0  0  0  0  0
  -27.5588  -37.1817   24.8463 C   0  0  0  0  0  0
  -21.4543  -29.4448   22.4007 N   0  0  0  0  0  0
  -26.4303  -37.3794   23.9402 N   0  0  0  0  0  0
  -24.6953  -31.0825   22.1073 N   0  0  0  0  0  0
  -23.4250  -28.7612   23.2822 O   0  0  0  0  0  0
  -28.4450  -26.7673   20.0375 O   0  0  0  0  0  0
  -26.5587  -34.8929   22.4663 O   0  0  0  0  0  0
  -23.5511  -32.1476   23.7528 O   0  0  0  0  0  0
  -26.2051  -21.2080   22.0522 C   0  0  0  0  0  0
  -26.0277  -20.0203   22.7181 C   0  0  0  0  0  0
  -27.6222  -19.7361   21.1749 C   0  0  0  0  0  0
  -25.1487  -19.6309   23.8626 C   0  0  0  0  0  0
  -28.6909  -19.0359   20.3691 C   0  0  0  0  0  0
  -28.9939  -17.5875   20.8872 C   0  0  0  0  0  0
  -28.5989  -23.0837   21.0117 C   0  0  0  0  0  0
  -28.0981  -24.5468   20.9884 C   0  0  0  0  0  0
  -27.7430  -22.0576   20.2310 C   0  0  0  0  0  0
  -30.3126  -16.8154   21.2308 C   0  0  0  0  0  0
  -28.4973  -25.3671   19.7465 C   0  0  0  0  0  0
  -27.2010  -21.0154   21.1247 N   0  0  0  0  0  0
  -26.8915  -19.1404   22.1253 N   0  3  0  0  0  0
  -30.0205  -15.3827   21.2073 N   0  0  0  0  0  0
  -31.4737  -12.3823   19.1105 H   0  0  0  0  0  0
  -30.3283  -11.2635   19.8004 H   0  0  0  0  0  0
  -29.7131  -11.7707   17.4172 H   0  0  0  0  0  0
  -29.6722  -13.4830   17.7648 H   0  0  0  0  0  0
  -27.8110  -11.3136   18.7941 H   0  0  0  0  0  0
  -27.3645  -12.6637   17.7890 H   0  0  0  0  0  0
  -27.7259  -14.2503   19.6048 H   0  0  0  0  0  0
  -28.6800  -11.9103   21.3206 H   0  0  0  0  0  0
  -28.4725  -13.5332   21.8853 H   0  0  0  0  0  0
  -25.2785   -9.5675   22.4753 H   0  0  0  0  0  0
  -24.0011   -7.4638   22.7474 H   0  0  0  0  0  0
  -21.0851   -8.8813   19.8961 H   0  0  0  0  0  0
  -22.3738  -10.9707   19.6169 H   0  0  0  0  0  0
  -21.2011   -7.6162   23.9730 H   0  0  0  0  0  0
  -21.1471   -6.0538   25.9081 H   0  0  0  0  0  0
  -22.0598   -2.7624   23.2865 H   0  0  0  0  0  0
  -22.4200  -11.9852   22.4715 H   0  0  0  0  0  0
  -21.1191  -13.1223   22.2683 H   0  0  0  0  0  0
  -24.6743  -15.8451   20.4932 H   0  0  0  0  0  0
  -26.2896  -15.6153   20.0615 H   0  0  0  0  0  0
  -26.7294  -32.5528   23.1224 H   0  0  0  0  0  0
  -25.0197  -33.9788   25.0546 H   0  0  0  0  0  0
  -22.7360  -31.3236   21.4238 H   0  0  0  0  0  0
  -23.3759  -35.9659   23.3307 H   0  0  0  0  0  0
  -24.3613  -36.8911   22.2042 H   0  0  0  0  0  0
  -23.7267  -37.6534   23.6630 H   0  0  0  0  0  0
  -26.0724  -31.6042   20.5988 H   0  0  0  0  0  0
  -26.8398  -30.8806   21.9829 H   0  0  0  0  0  0
  -28.1186  -29.1217   21.1040 H   0  0  0  0  0  0
  -26.0141  -25.9677   19.0165 H   0  0  0  0  0  0
  -23.9626  -27.2843   19.0756 H   0  0  0  0  0  0
  -23.7180  -30.5942   19.4153 H   0  0  0  0  0  0
  -22.7380  -29.2427   19.9038 H   0  0  0  0  0  0
  -25.1301  -36.1980   25.0824 H   0  0  0  0  0  0
  -20.1627  -28.6765   21.7622 H   0  0  0  0  0  0
  -20.6744  -26.4242   23.4840 H   0  0  0  0  0  0
  -21.6604  -26.7668   22.0785 H   0  0  0  0  0  0
  -19.6546  -25.3854   21.4451 H   0  0  0  0  0  0
  -19.6342  -26.9209   20.6341 H   0  0  0  0  0  0
  -17.3965  -26.6289   21.4313 H   0  0  0  0  0  0
  -17.9330  -26.0050   22.9713 H   0  0  0  0  0  0
  -19.7886  -30.7540   24.1472 H   0  0  0  0  0  0
  -17.4978  -31.6244   24.5341 H   0  0  0  0  0  0
  -15.5223  -30.2850   23.8332 H   0  0  0  0  0  0
  -15.8317  -28.0497   22.8026 H   0  0  0  0  0  0
  -24.5944  -30.7070   25.7797 H   0  0  0  0  0  0
  -24.8989  -32.2850   26.4951 H   0  0  0  0  0  0
  -25.8108  -30.8831   27.0221 H   0  0  0  0  0  0
  -26.2890  -29.6775   24.1203 H   0  0  0  0  0  0
  -27.4124  -29.7267   25.4604 H   0  0  0  0  0  0
  -27.8740  -30.4324   23.9292 H   0  0  0  0  0  0
  -27.2709  -33.3564   26.2175 H   0  0  0  0  0  0
  -28.3894  -32.6884   25.0368 H   0  0  0  0  0  0
  -28.0789  -31.8373   26.5418 H   0  0  0  0  0  0
  -28.2603  -38.0117   24.7506 H   0  0  0  0  0  0
  -28.1087  -36.2643   24.6299 H   0  0  0  0  0  0
  -27.2305  -37.1485   25.8868 H   0  0  0  0  0  0
  -21.0736  -30.1571   21.7924 H   0  0  0  0  0  0
  -26.0195  -38.2883   24.1385 H   0  0  0  0  0  0
  -25.7238  -22.1678   22.1886 H   0  0  0  0  0  0
  -24.1518  -19.3755   23.5082 H   0  0  0  0  0  0
  -25.0696  -20.4513   24.5766 H   0  0  0  0  0  0
  -25.5586  -18.7677   24.3893 H   0  0  0  0  0  0
  -29.5772  -19.6784   20.3615 H   0  0  0  0  0  0
  -28.3015  -19.0307   19.3477 H   0  0  0  0  0  0
  -29.3574  -18.1965   21.7150 H   0  0  0  0  0  0
  -29.3204  -17.4234   19.8576 H   0  0  0  0  0  0
  -28.6494  -22.7777   22.0585 H   0  0  0  0  0  0
  -29.6301  -23.0373   20.6618 H   0  0  0  0  0  0
  -28.5433  -25.0456   21.8511 H   0  0  0  0  0  0
  -27.0210  -24.5934   21.1477 H   0  0  0  0  0  0
  -28.3363  -21.5827   19.4479 H   0  0  0  0  0  0
  -26.9000  -22.5359   19.7302 H   0  0  0  0  0  0
  -30.6998  -16.9942   22.2405 H   0  0  0  0  0  0
  -31.1417  -17.0782   20.5620 H   0  0  0  0  0  0
  -27.9293  -25.0872   18.8607 H   0  0  0  0  0  0
  -29.5374  -25.1507   19.4976 H   0  0  0  0  0  0
  -26.9900  -18.1638   22.3796 H   0  0  0  0  0  0
  -29.1386  -15.0937   21.6016 H   0  0  0  0  0  0
  1 25  1  0  0  0
  1 30  2  0  0  0
  1 84  1  0  0  0
  2  3  1  0  0  0
  2 25  1  0  0  0
  2 85  1  0  0  0
  2 86  1  0  0  0
  3  4  1  0  0  0
  3 87  1  0  0  0
  3 88  1  0  0  0
  4  5  1  0  0  0
  4 89  1  0  0  0
  4 90  1  0  0  0
  5  6  1  0  0  0
  5 26  1  0  0  0
  5 91  1  0  0  0
  6 25  1  0  0  0
  6 92  1  0  0  0
  6 93  1  0  0  0
  7  8  2  0  0  0
  7 26  1  0  0  0
  7 29  1  0  0  0
  8  9  1  0  0  0
  8 22  1  0  0  0
  9 10  1  0  0  0
  9 27  2  0  0  0
 10 11  2  0  0  0
 10 15  1  0  0  0
 11 12  1  0  0  0
 11 94  1  0  0  0
 12 13  2  0  0  0
 12 95  1  0  0  0
 13 14  1  0  0  0
 13 31  1  0  0  0
 14 15  2  0  0  0
 14 96  1  0  0  0
 15 97  1  0  0  0
 16 17  2  0  0  0
 16 21  1  0  0  0
 16 31  1  0  0  0
 17 18  1  0  0  0
 17 98  1  0  0  0
 18 19  2  0  0  0
 18 99  1  0  0  0
 19 20  1  0  0  0
 19 24  1  0  0  0
 20 21  2  0  0  0
 20100  1  0  0  0
 21 23  1  0  0  0
 22 28  1  0  0  0
 22 32  2  0  0  0
 26 27  1  0  0  0
 28101  1  0  0  0
 28102  1  0  0  0
 29103  1  0  0  0
 29104  1  0  0  0
 33 34  1  0  0  0
 33 66  1  0  0  0
 33 70  2  0  0  0
 34 36  1  0  0  0
 34 59  1  0  0  0
 34105  1  0  0  0
 35 44  2  0  0  0
 35 45  1  0  0  0
 35 68  1  0  0  0
 36 56  1  0  0  0
 36106  1  0  0  0
 37 39  1  0  0  0
 37 47  1  0  0  0
 37 66  1  0  0  0
 37107  1  0  0  0
 38 43  2  0  0  0
 38 46  1  0  0  0
 38 47  1  0  0  0
 39 64  1  0  0  0
 39 67  2  0  0  0
 40 52  1  0  0  0
 40 53  2  0  0  0
 40 58  1  0  0  0
 41108  1  0  0  0
 41109  1  0  0  0
 41110  1  0  0  0
 41 48  1  0  0  0
 42 43  1  0  0  0
 42 66  1  0  0  0
 42111  1  0  0  0
 42112  1  0  0  0
 43 44  1  0  0  0
 44113  1  0  0  0
 45 46  2  0  0  0
 45114  1  0  0  0
 46115  1  0  0  0
 47116  1  0  0  0
 47117  1  0  0  0
 48 56  1  0  0  0
 48 65  1  0  0  0
 48118  1  0  0  0
 49 50  1  0  0  0
 49 53  1  0  0  0
 49 64  1  0  0  0
 49119  1  0  0  0
 50 51  1  0  0  0
 50120  1  0  0  0
 50121  1  0  0  0
 51 52  1  0  0  0
 51122  1  0  0  0
 51123  1  0  0  0
 52124  1  0  0  0
 52125  1  0  0  0
 53 54  1  0  0  0
 54 55  2  0  0  0
 54126  1  0  0  0
 55 57  1  0  0  0
 55127  1  0  0  0
 56 69  2  0  0  0
 57 58  2  0  0  0
 57128  1  0  0  0
 58129  1  0  0  0
 59 60  1  0  0  0
 59 61  1  0  0  0
 59 62  1  0  0  0
 60130  1  0  0  0
 60131  1  0  0  0
 60132  1  0  0  0
 61133  1  0  0  0
 61134  1  0  0  0
 61135  1  0  0  0
 62136  1  0  0  0
 62137  1  0  0  0
 62138  1  0  0  0
 63 65  1  0  0  0
 63139  1  0  0  0
 63140  1  0  0  0
 63141  1  0  0  0
 64142  1  0  0  0
 65143  1  0  0  0
 68 81  1  0  0  0
 71 72  2  0  0  0
 71 82  1  0  0  0
 71144  1  0  0  0
 72 74  1  0  0  0
 72 83  1  0  0  0
 73 75  1  0  0  0
 73 82  1  0  0  0
 73 83  2  0  0  0
 74145  1  0  0  0
 74146  1  0  0  0
 74147  1  0  0  0
 75 76  1  0  0  0
 75148  1  0  0  0
 75149  1  0  0  0
 76 80  1  0  0  0
 76150  1  0  0  0
 76151  1  0  0  0
 77 78  1  0  0  0
 77 79  1  0  0  0
 77152  1  0  0  0
 77153  1  0  0  0
 78 81  1  0  0  0
 78154  1  0  0  0
 78155  1  0  0  0
 79 82  1  0  0  0
 79156  1  0  0  0
 79157  1  0  0  0
 80 84  1  0  0  0
 80158  1  0  0  0
 80159  1  0  0  0
 81160  1  0  0  0
 81161  1  0  0  0
 83162  1  0  0  0
 84163  1  0  0  0
M  CHG  1  83   1
M  ISO  4   1 100  68 101  81 101  84 100
M  END
> <chiral flag>
0

> <version>
0

> <s_m_source_file>
/data/baiqing/PycharmProjects/Reinvent-master-3.2/result/LINK_invent/BTK/process_docking_weight1_custom_sum_contain_oxygen_bond_distance_aromatic_linkinvent_7_9_3/rearranged_h_0081.sdf

> <i_m_source_file_index>
48

> <r_mmod_Potential_Energy-OPLS-2005>
283.455383300781

> <r_mmod_Stretch_Energy-OPLS-2005>
33.2570152282715

> <r_mmod_Bend_Energy-OPLS-2005>
436.639617919922

> <r_mmod_Torsional_Energy-OPLS-2005>
238.065368652344

> <r_mmod_Improper_Torsional_Energy-OPLS-2005>
5.05448484420776

> <r_mmod_Van_der_Waal_Energy-OPLS-2005>
153.958953857422

> <r_mmod_Electrostatic_Energy-OPLS-2005>
-181.837295532227

> <r_mmod_Solvation_Energy-OPLS-2005>
-431.204650878906

> <b_mmod_Minimization_Converged-OPLS-2005>
0

> <r_mmod_RMS_Derivative-OPLS-2005>
3.5460000038147

$$$$
48
                    3D
 Structure written by MMmdl.
172180  0  0  1  0            999 V2000
  -30.7259  -14.4132   20.6190 C   0  0  0  0  0  0
  -30.4167  -12.2689   19.4419 C   0  0  0  0  0  0
  -29.5000  -12.4842   18.2229 C   0  0  0  0  0  0
  -28.0195  -12.3508   18.6363 C   0  0  0  0  0  0
  -27.6622  -13.1842   19.8951 C   0  0  2  0  0  0
  -28.6983  -12.9658   21.0206 C   0  0  0  0  0  0
  -25.2593  -13.8077   20.5730 C   0  0  0  0  0  0
  -24.1807  -13.0364   20.9213 C   0  0  0  0  0  0
  -24.6335  -11.6855   20.8762 C   0  0  0  0  0  0
  -23.8994  -10.4259   21.0434 C   0  0  0  0  0  0
  -24.3575   -9.4186   21.9215 C   0  0  0  0  0  0
  -23.6276   -8.2206   22.0789 C   0  0  0  0  0  0
  -22.4266   -8.0253   21.3569 C   0  0  0  0  0  0
  -21.9875   -9.0201   20.4660 C   0  0  0  0  0  0
  -22.7165  -10.2091   20.3090 C   0  0  0  0  0  0
  -21.6830   -6.0722   22.5281 C   0  0  0  0  0  0
  -21.4017   -6.5637   23.8209 C   0  0  0  0  0  0
  -21.3676   -5.6792   24.9171 C   0  0  0  0  0  0
  -21.6043   -4.3054   24.7216 C   0  0  0  0  0  0
  -21.8821   -3.8155   23.4335 C   0  0  0  0  0  0
  -21.9196   -4.6964   22.3396 C   0  0  0  0  0  0
  -22.7835  -13.5185   21.1873 C   0  0  0  0  0  0
  -22.1663   -4.2148   21.0962 F   0  0  0  0  0  0
  -21.5637   -3.4548   25.7726 F   0  0  0  0  0  0
  -30.0329  -13.2522   20.4647 N   0  0  0  0  0  0
  -26.2998  -12.9208   20.3460 N   0  0  0  0  0  0
  -25.9254  -11.6388   20.5817 N   0  0  0  0  0  0
  -22.0459  -12.8181   22.0424 N   0  0  0  0  0  0
  -25.4373  -15.1766   20.4165 N   0  0  0  0  0  0
  -31.8298  -14.6175   20.1025 O   0  0  0  0  0  0
  -21.6640   -6.8853   21.4241 O   0  0  0  0  0  0
  -22.3538  -14.5485   20.6712 O   0  0  0  0  0  0
  -24.6073  -31.8683   23.2150 C   0  0  0  0  0  0
  -25.8992  -32.4842   23.8420 C   0  0  1  0  0  0
  -27.2485  -27.4713   20.0916 C   0  0  0  0  0  0
  -25.5873  -33.8642   24.2342 N   0  0  0  0  0  0
  -23.3905  -30.4941   21.5566 C   0  0  2  0  0  0
  -24.8419  -28.9634   20.1246 C   0  0  0  0  0  0
  -22.7329  -29.4673   22.5051 C   0  0  0  0  0  0
  -18.0245  -28.1328   22.8524 C   0  0  0  0  0  0
  -24.1481  -36.7330   23.2632 C   0  0  0  0  0  0
  -25.9154  -30.8532   21.3585 C   0  0  0  0  0  0
  -26.0008  -29.4881   20.7089 C   0  0  0  0  0  0
  -27.2046  -28.7505   20.6875 C   0  0  0  0  0  0
  -26.0688  -26.9600   19.5000 C   0  0  0  0  0  0
  -24.8674  -27.6920   19.5262 C   0  0  0  0  0  0
  -23.5955  -29.8198   20.1741 C   0  0  0  0  0  0
  -25.4103  -36.3118   24.0319 C   0  0  1  0  0  0
  -20.5816  -28.3601   23.1350 C   0  0  2  0  0  0
  -20.6740  -26.9365   22.5419 C   0  0  0  0  0  0
  -19.5730  -26.6363   21.5212 C   0  0  0  0  0  0
  -18.1899  -26.7894   22.1624 C   0  0  0  0  0  0
  -19.1487  -28.8787   23.2925 C   0  0  0  0  0  0
  -18.9446  -30.1410   23.8910 C   0  0  0  0  0  0
  -17.6458  -30.6563   24.0557 C   0  0  0  0  0  0
  -25.9016  -34.9488   23.5118 C   0  0  0  0  0  0
  -16.5342  -29.9060   23.6346 C   0  0  0  0  0  0
  -16.7245  -28.6460   23.0401 C   0  0  0  0  0  0
  -26.4482  -31.6603   25.0712 C   0  0  0  0  0  0
  -25.3776  -31.3679   26.1452 C   0  0  0  0  0  0
  -27.0344  -30.3057   24.6062 C   0  0  0  0  0  0
  -27.6020  -32.4342   25.7509 C   0  0  0  0  0  0
  -27.5581  -37.1797   24.8458 C   0  0  0  0  0  0
  -21.4056  -29.3006   22.3759 N   0  0  0  0  0  0
  -26.4297  -37.3802   23.9412 N   0  0  0  0  0  0
  -24.6566  -31.0808   22.1058 N   0  0  0  0  0  0
  -23.4121  -28.8216   23.3061 O   0  0  0  0  0  0
  -28.4451  -26.7859   20.0635 O   0  0  0  0  0  0
  -26.5571  -34.8926   22.4672 O   0  0  0  0  0  0
  -23.5274  -32.1446   23.7582 O   0  0  0  0  0  0
  -29.5958  -21.1258   20.0353 C   0  0  0  0  0  0
  -29.7691  -22.0964   19.0293 C   0  0  0  0  0  0
  -30.4443  -20.0019   20.0245 C   0  0  0  0  0  0
  -30.8299  -21.8942   18.1165 C   0  0  0  0  0  0
  -31.1232  -22.8631   16.9887 C   0  0  0  0  0  0
  -30.2963  -19.4278   22.4499 C   0  0  0  0  0  0
  -27.9768  -17.7928   21.7869 C   0  0  0  0  0  0
  -28.2284  -18.3558   19.4152 C   0  0  0  0  0  0
  -30.2070  -15.6845   22.5976 C   0  0  0  0  0  0
  -28.7905  -23.2522   18.9442 C   0  0  0  0  0  0
  -29.3750  -24.6138   19.3712 C   0  0  0  0  0  0
  -29.5867  -16.4767   20.2090 C   0  0  0  0  0  0
  -28.4044  -25.3757   20.2926 C   0  0  0  0  0  0
  -30.2421  -18.8550   21.0156 C   0  0  1  0  0  0
  -29.0365  -17.8754   20.6597 C   0  0  0  0  0  0
  -31.4539  -19.8770   19.1268 N   0  0  0  0  0  0
  -31.6512  -20.8171   18.1968 N   0  0  0  0  0  0
  -30.0274  -15.4314   21.1665 N   0  0  0  0  0  0
  -31.4683  -12.3477   19.1583 H   0  0  0  0  0  0
  -30.2932  -11.2589   19.8353 H   0  0  0  0  0  0
  -29.7308  -11.7506   17.4501 H   0  0  0  0  0  0
  -29.6928  -13.4631   17.7798 H   0  0  0  0  0  0
  -27.8267  -11.2966   18.8360 H   0  0  0  0  0  0
  -27.3707  -12.6321   17.8068 H   0  0  0  0  0  0
  -27.6963  -14.2236   19.5921 H   0  0  0  0  0  0
  -28.6552  -11.9363   21.3858 H   0  0  0  0  0  0
  -28.4561  -13.5890   21.8843 H   0  0  0  0  0  0
  -25.2712   -9.5648   22.4803 H   0  0  0  0  0  0
  -23.9991   -7.4593   22.7492 H   0  0  0  0  0  0
  -21.0844   -8.8662   19.8939 H   0  0  0  0  0  0
  -22.3624  -10.9629   19.6228 H   0  0  0  0  0  0
  -21.2014   -7.6159   23.9672 H   0  0  0  0  0  0
  -21.1516   -6.0562   25.9057 H   0  0  0  0  0  0
  -22.0606   -2.7629   23.2817 H   0  0  0  0  0  0
  -22.4089  -11.9863   22.4838 H   0  0  0  0  0  0
  -21.1103  -13.1247   22.2655 H   0  0  0  0  0  0
  -24.6928  -15.8456   20.5622 H   0  0  0  0  0  0
  -26.3029  -15.6076   20.1224 H   0  0  0  0  0  0
  -26.7060  -32.5593   23.1185 H   0  0  0  0  0  0
  -25.0027  -33.9844   25.0470 H   0  0  0  0  0  0
  -22.6767  -31.3085   21.4174 H   0  0  0  0  0  0
  -23.3760  -35.9644   23.3285 H   0  0  0  0  0  0
  -24.3566  -36.8972   22.2055 H   0  0  0  0  0  0
  -23.7239  -37.6516   23.6681 H   0  0  0  0  0  0
  -25.9981  -31.6256   20.5908 H   0  0  0  0  0  0
  -26.8100  -30.9193   21.9661 H   0  0  0  0  0  0
  -28.0990  -29.1611   21.1346 H   0  0  0  0  0  0
  -26.0633  -26.0060   18.9954 H   0  0  0  0  0  0
  -23.9745  -27.2731   19.0818 H   0  0  0  0  0  0
  -23.6871  -30.5927   19.4101 H   0  0  0  0  0  0
  -22.7238  -29.2265   19.8945 H   0  0  0  0  0  0
  -25.1284  -36.1974   25.0820 H   0  0  0  0  0  0
  -20.9909  -28.3182   24.1466 H   0  0  0  0  0  0
  -20.5640  -26.2228   23.3585 H   0  0  0  0  0  0
  -21.6613  -26.7413   22.1226 H   0  0  0  0  0  0
  -19.6884  -25.6281   21.1228 H   0  0  0  0  0  0
  -19.6670  -27.3173   20.6752 H   0  0  0  0  0  0
  -17.4176  -26.6678   21.4015 H   0  0  0  0  0  0
  -18.0274  -25.9983   22.8972 H   0  0  0  0  0  0
  -19.7930  -30.7207   24.2275 H   0  0  0  0  0  0
  -17.5030  -31.6254   24.5141 H   0  0  0  0  0  0
  -15.5347  -30.2981   23.7635 H   0  0  0  0  0  0
  -15.8647  -28.0757   22.7162 H   0  0  0  0  0  0
  -24.5983  -30.6968   25.7818 H   0  0  0  0  0  0
  -24.8913  -32.2823   26.4864 H   0  0  0  0  0  0
  -25.8146  -30.8914   27.0235 H   0  0  0  0  0  0
  -26.2882  -29.6744   24.1207 H   0  0  0  0  0  0
  -27.4245  -29.7337   25.4500 H   0  0  0  0  0  0
  -27.8652  -30.4389   23.9112 H   0  0  0  0  0  0
  -27.2599  -33.3638   26.2088 H   0  0  0  0  0  0
  -28.3874  -32.6917   25.0382 H   0  0  0  0  0  0
  -28.0653  -31.8473   26.5462 H   0  0  0  0  0  0
  -28.2566  -38.0127   24.7542 H   0  0  0  0  0  0
  -28.1115  -36.2649   24.6257 H   0  0  0  0  0  0
  -27.2277  -37.1398   25.8853 H   0  0  0  0  0  0
  -20.9151  -29.8751   21.7040 H   0  0  0  0  0  0
  -26.0180  -38.2857   24.1483 H   0  0  0  0  0  0
  -28.7991  -21.2044   20.7616 H   0  0  0  0  0  0
  -30.2092  -23.1576   16.4751 H   0  0  0  0  0  0
  -31.7847  -22.4158   16.2467 H   0  0  0  0  0  0
  -31.6103  -23.7578   17.3756 H   0  0  0  0  0  0
  -31.1895  -20.0398   22.5724 H   0  0  0  0  0  0
  -30.3506  -18.6532   23.2099 H   0  0  0  0  0  0
  -29.4404  -20.0636   22.6741 H   0  0  0  0  0  0
  -27.2628  -16.9913   21.6079 H   0  0  0  0  0  0
  -27.4057  -18.7208   21.8394 H   0  0  0  0  0  0
  -28.3874  -17.6531   22.7840 H   0  0  0  0  0  0
  -27.4579  -17.6403   19.1201 H   0  0  0  0  0  0
  -28.8661  -18.4926   18.5401 H   0  0  0  0  0  0
  -27.6985  -19.2910   19.5982 H   0  0  0  0  0  0
  -29.2527  -15.7958   23.1123 H   0  0  0  0  0  0
  -30.8399  -16.5534   22.7593 H   0  0  0  0  0  0
  -30.6905  -14.8432   23.1027 H   0  0  0  0  0  0
  -27.9435  -22.9849   19.5766 H   0  0  0  0  0  0
  -28.3661  -23.3125   17.9419 H   0  0  0  0  0  0
  -29.6278  -25.2014   18.4859 H   0  0  0  0  0  0
  -30.3181  -24.4714   19.9059 H   0  0  0  0  0  0
  -30.3924  -16.6684   19.4940 H   0  0  0  0  0  0
  -28.8293  -15.9887   19.5983 H   0  0  0  0  0  0
  -28.6918  -25.1837   21.3244 H   0  0  0  0  0  0
  -27.4047  -24.9588   20.2095 H   0  0  0  0  0  0
  -31.1533  -18.2571   20.9467 H   0  0  0  0  0  0
  1 25  1  0  0  0
  1 30  2  0  0  0
  1 88  1  0  0  0
  2  3  1  0  0  0
  2 25  1  0  0  0
  2 89  1  0  0  0
  2 90  1  0  0  0
  3  4  1  0  0  0
  3 91  1  0  0  0
  3 92  1  0  0  0
  4  5  1  0  0  0
  4 93  1  0  0  0
  4 94  1  0  0  0
  5  6  1  0  0  0
  5 26  1  0  0  0
  5 95  1  0  0  0
  6 25  1  0  0  0
  6 96  1  0  0  0
  6 97  1  0  0  0
  7  8  2  0  0  0
  7 26  1  0  0  0
  7 29  1  0  0  0
  8  9  1  0  0  0
  8 22  1  0  0  0
  9 10  1  0  0  0
  9 27  2  0  0  0
 10 11  2  0  0  0
 10 15  1  0  0  0
 11 12  1  0  0  0
 11 98  1  0  0  0
 12 13  2  0  0  0
 12 99  1  0  0  0
 13 14  1  0  0  0
 13 31  1  0  0  0
 14 15  2  0  0  0
 14100  1  0  0  0
 15101  1  0  0  0
 16 17  2  0  0  0
 16 21  1  0  0  0
 16 31  1  0  0  0
 17 18  1  0  0  0
 17102  1  0  0  0
 18 19  2  0  0  0
 18103  1  0  0  0
 19 20  1  0  0  0
 19 24  1  0  0  0
 20 21  2  0  0  0
 20104  1  0  0  0
 21 23  1  0  0  0
 22 28  1  0  0  0
 22 32  2  0  0  0
 26 27  1  0  0  0
 28105  1  0  0  0
 28106  1  0  0  0
 29107  1  0  0  0
 29108  1  0  0  0
 33 34  1  0  0  0
 33 66  1  0  0  0
 33 70  2  0  0  0
 34 36  1  0  0  0
 34 59  1  0  0  0
 34109  1  0  0  0
 35 44  2  0  0  0
 35 45  1  0  0  0
 35 68  1  0  0  0
 36 56  1  0  0  0
 36110  1  0  0  0
 37 39  1  0  0  0
 37 47  1  0  0  0
 37 66  1  0  0  0
 37111  1  0  0  0
 38 43  2  0  0  0
 38 46  1  0  0  0
 38 47  1  0  0  0
 39 64  1  0  0  0
 39 67  2  0  0  0
 40 52  1  0  0  0
 40 53  2  0  0  0
 40 58  1  0  0  0
 41112  1  0  0  0
 41113  1  0  0  0
 41114  1  0  0  0
 41 48  1  0  0  0
 42 43  1  0  0  0
 42 66  1  0  0  0
 42115  1  0  0  0
 42116  1  0  0  0
 43 44  1  0  0  0
 44117  1  0  0  0
 45 46  2  0  0  0
 45118  1  0  0  0
 46119  1  0  0  0
 47120  1  0  0  0
 47121  1  0  0  0
 48 56  1  0  0  0
 48 65  1  0  0  0
 48122  1  0  0  0
 49 50  1  0  0  0
 49 53  1  0  0  0
 49 64  1  0  0  0
 49123  1  0  0  0
 50 51  1  0  0  0
 50124  1  0  0  0
 50125  1  0  0  0
 51 52  1  0  0  0
 51126  1  0  0  0
 51127  1  0  0  0
 52128  1  0  0  0
 52129  1  0  0  0
 53 54  1  0  0  0
 54 55  2  0  0  0
 54130  1  0  0  0
 55 57  1  0  0  0
 55131  1  0  0  0
 56 69  2  0  0  0
 57 58  2  0  0  0
 57132  1  0  0  0
 58133  1  0  0  0
 59 60  1  0  0  0
 59 61  1  0  0  0
 59 62  1  0  0  0
 60134  1  0  0  0
 60135  1  0  0  0
 60136  1  0  0  0
 61137  1  0  0  0
 61138  1  0  0  0
 61139  1  0  0  0
 62140  1  0  0  0
 62141  1  0  0  0
 62142  1  0  0  0
 63 65  1  0  0  0
 63143  1  0  0  0
 63144  1  0  0  0
 63145  1  0  0  0
 64146  1  0  0  0
 65147  1  0  0  0
 68 83  1  0  0  0
 71 72  2  0  0  0
 71 73  1  0  0  0
 71148  1  0  0  0
 72 74  1  0  0  0
 72 80  1  0  0  0
 73 84  1  0  0  0
 73 86  2  0  0  0
 74 75  1  0  0  0
 74 87  2  0  0  0
 75149  1  0  0  0
 75150  1  0  0  0
 75151  1  0  0  0
 76152  1  0  0  0
 76153  1  0  0  0
 76154  1  0  0  0
 76 84  1  0  0  0
 77155  1  0  0  0
 77156  1  0  0  0
 77157  1  0  0  0
 77 85  1  0  0  0
 78 85  1  0  0  0
 78158  1  0  0  0
 78159  1  0  0  0
 78160  1  0  0  0
 79 88  1  0  0  0
 79161  1  0  0  0
 79162  1  0  0  0
 79163  1  0  0  0
 80 81  1  0  0  0
 80164  1  0  0  0
 80165  1  0  0  0
 81 83  1  0  0  0
 81166  1  0  0  0
 81167  1  0  0  0
 82 85  1  0  0  0
 82 88  1  0  0  0
 82168  1  0  0  0
 82169  1  0  0  0
 83170  1  0  0  0
 83171  1  0  0  0
 84 85  1  0  0  0
 84172  1  0  0  0
 86 87  1  0  0  0
M  ISO  4   1 100  68 101  83 101  88 100
M  END
> <chiral flag>
0

> <version>
0

> <s_m_source_file>
/data/baiqing/PycharmProjects/Reinvent-master-3.2/result/LINK_invent/BTK/process_docking_weight1_custom_sum_contain_oxygen_bond_distance_aromatic_linkinvent_7_9_3/rearranged_h_0081.sdf

> <i_m_source_file_index>
49

> <r_mmod_Potential_Energy-OPLS-2005>
215.818634033203

> <r_mmod_Stretch_Energy-OPLS-2005>
43.6797485351562

> <r_mmod_Bend_Energy-OPLS-2005>
139.007110595703

> <r_mmod_Torsional_Energy-OPLS-2005>
338.439697265625

> <r_mmod_Improper_Torsional_Energy-OPLS-2005>
6.61740589141846

> <r_mmod_Van_der_Waal_Energy-OPLS-2005>
183.61637878418

> <r_mmod_Electrostatic_Energy-OPLS-2005>
-291.413726806641

> <r_mmod_Solvation_Energy-OPLS-2005>
-213.182067871094

> <b_mmod_Minimization_Converged-OPLS-2005>
0

> <r_mmod_RMS_Derivative-OPLS-2005>
5.60176563262939

$$$$
49
                    3D
 Structure written by MMmdl.
165173  0  0  1  0            999 V2000
  -30.7548  -14.5240   20.3888 C   0  0  0  0  0  0
  -30.3675  -12.2908   19.4342 C   0  0  0  0  0  0
  -29.4971  -12.5086   18.1941 C   0  0  0  0  0  0
  -28.0027  -12.4198   18.5717 C   0  0  0  0  0  0
  -27.6332  -13.2566   19.8390 C   0  0  2  0  0  0
  -28.6894  -13.1729   20.9672 C   0  0  0  0  0  0
  -25.2440  -13.8363   20.5574 C   0  0  0  0  0  0
  -24.1765  -13.0513   20.9236 C   0  0  0  0  0  0
  -24.6411  -11.6980   20.8734 C   0  0  0  0  0  0
  -23.9055  -10.4291   21.0438 C   0  0  0  0  0  0
  -24.3639   -9.4217   21.9198 C   0  0  0  0  0  0
  -23.6264   -8.2255   22.0782 C   0  0  0  0  0  0
  -22.4288   -8.0339   21.3577 C   0  0  0  0  0  0
  -21.9907   -9.0263   20.4725 C   0  0  0  0  0  0
  -22.7244  -10.2151   20.3075 C   0  0  0  0  0  0
  -21.6828   -6.0718   22.5246 C   0  0  0  0  0  0
  -21.4014   -6.5597   23.8243 C   0  0  0  0  0  0
  -21.3673   -5.6800   24.9168 C   0  0  0  0  0  0
  -21.6025   -4.3030   24.7273 C   0  0  0  0  0  0
  -21.8795   -3.8127   23.4368 C   0  0  0  0  0  0
  -21.9181   -4.6881   22.3456 C   0  0  0  0  0  0
  -22.7809  -13.5307   21.1813 C   0  0  0  0  0  0
  -22.1628   -4.2093   21.0995 F   0  0  0  0  0  0
  -21.5645   -3.4557   25.7769 F   0  0  0  0  0  0
  -30.0142  -13.3762   20.3694 N   0  0  0  0  0  0
  -26.2843  -12.9525   20.3238 N   0  0  0  0  0  0
  -25.9311  -11.6570   20.5542 N   0  0  0  0  0  0
  -22.0443  -12.8350   22.0533 N   0  0  0  0  0  0
  -25.4246  -15.1979   20.3825 N   0  0  0  0  0  0
  -31.9328  -14.5438   20.0497 O   0  0  0  0  0  0
  -21.6648   -6.8888   21.4290 O   0  0  0  0  0  0
  -22.3448  -14.5547   20.6609 O   0  0  0  0  0  0
  -24.6286  -31.8794   23.2095 C   0  0  0  0  0  0
  -25.9144  -32.4914   23.8419 C   0  0  1  0  0  0
  -27.1730  -27.4008   20.0919 C   0  0  0  0  0  0
  -25.5944  -33.8692   24.2400 N   0  0  0  0  0  0
  -23.4178  -30.5289   21.5451 C   0  0  2  0  0  0
  -24.8358  -28.9771   20.1002 C   0  0  0  0  0  0
  -22.7315  -29.5032   22.4790 C   0  0  0  0  0  0
  -18.0052  -28.1706   22.7734 C   0  0  0  0  0  0
  -24.1452  -36.7274   23.2669 C   0  0  0  0  0  0
  -25.9645  -30.8063   21.3870 C   0  0  0  0  0  0
  -26.0022  -29.4451   20.7262 C   0  0  0  0  0  0
  -27.1848  -28.6666   20.7235 C   0  0  0  0  0  0
  -25.9930  -26.9643   19.4596 C   0  0  0  0  0  0
  -24.8326  -27.7315   19.4729 C   0  0  0  0  0  0
  -23.6211  -29.8525   20.1602 C   0  0  0  0  0  0
  -25.4125  -36.3177   24.0357 C   0  0  1  0  0  0
  -20.5556  -28.3964   23.0490 C   0  0  2  0  0  0
  -20.6653  -26.9599   22.4903 C   0  0  0  0  0  0
  -19.5505  -26.5460   21.5385 C   0  0  0  0  0  0
  -18.1361  -26.8210   22.0876 C   0  0  0  0  0  0
  -19.1281  -28.9008   23.2359 C   0  0  0  0  0  0
  -18.9401  -30.1287   23.9138 C   0  0  0  0  0  0
  -17.6401  -30.6288   24.1404 C   0  0  0  0  0  0
  -25.9085  -34.9559   23.5163 C   0  0  0  0  0  0
  -16.5363  -29.9101   23.6525 C   0  0  0  0  0  0
  -16.7069  -28.6935   22.9718 C   0  0  0  0  0  0
  -26.4504  -31.6687   25.0768 C   0  0  0  0  0  0
  -25.3755  -31.3735   26.1511 C   0  0  0  0  0  0
  -27.0307  -30.3118   24.6244 C   0  0  0  0  0  0
  -27.6147  -32.4443   25.7449 C   0  0  0  0  0  0
  -27.5599  -37.1842   24.8496 C   0  0  0  0  0  0
  -21.4033  -29.3489   22.3136 N   0  0  0  0  0  0
  -26.4337  -37.3916   23.9377 N   0  0  0  0  0  0
  -24.6930  -31.0867   22.1032 N   0  0  0  0  0  0
  -23.3934  -28.8425   23.2781 O   0  0  0  0  0  0
  -28.2723  -26.5762   20.1074 O   0  0  0  0  0  0
  -26.5664  -34.9046   22.4796 O   0  0  0  0  0  0
  -23.5414  -32.1515   23.7474 O   0  0  0  0  0  0
  -28.4698  -19.9803   18.7044 C   0  0  0  0  0  0
  -27.5281  -20.9594   18.9000 C   0  0  0  0  0  0
  -26.8936  -20.5375   20.1114 C   0  0  0  0  0  0
  -23.5940  -22.1631   19.7522 C   0  0  0  0  0  0
  -27.2171  -22.1609   18.0032 C   0  0  0  0  0  0
  -25.7281  -21.1724   20.8310 C   0  0  0  0  0  0
  -24.3727  -20.8612   20.1348 C   0  0  0  0  0  0
  -27.0434  -23.5416   18.7101 C   0  0  0  0  0  0
  -28.2993  -24.1580   19.3775 C   0  0  0  0  0  0
  -29.4280  -18.0643   20.2061 C   0  0  0  0  0  0
  -29.1528  -16.5289   20.0203 C   0  0  0  0  0  0
  -27.9632  -25.2133   20.4710 C   0  0  0  0  0  0
  -27.4413  -19.4375   20.6122 N   0  0  0  0  0  0
  -28.4456  -19.0897   19.7739 N   0  0  0  0  0  0
  -30.1855  -15.7100   20.7085 N   0  0  0  0  0  0
  -31.4195  -12.2693   19.1555 H   0  0  0  0  0  0
  -30.1431  -11.3288   19.8872 H   0  0  0  0  0  0
  -29.7513  -11.7717   17.4322 H   0  0  0  0  0  0
  -29.7315  -13.4852   17.7594 H   0  0  0  0  0  0
  -27.7586  -11.3727   18.7121 H   0  0  0  0  0  0
  -27.3977  -12.7504   17.7278 H   0  0  0  0  0  0
  -27.6317  -14.2940   19.5092 H   0  0  0  0  0  0
  -28.6422  -12.2118   21.4757 H   0  0  0  0  0  0
  -28.4705  -13.9291   21.7315 H   0  0  0  0  0  0
  -25.2816   -9.5616   22.4753 H   0  0  0  0  0  0
  -23.9953   -7.4665   22.7509 H   0  0  0  0  0  0
  -21.0821   -8.8795   19.9081 H   0  0  0  0  0  0
  -22.3711  -10.9659   19.6143 H   0  0  0  0  0  0
  -21.1995   -7.6131   23.9679 H   0  0  0  0  0  0
  -21.1542   -6.0554   25.9091 H   0  0  0  0  0  0
  -22.0574   -2.7585   23.2906 H   0  0  0  0  0  0
  -22.3946  -11.9993   22.4989 H   0  0  0  0  0  0
  -21.1032  -13.1351   22.2791 H   0  0  0  0  0  0
  -24.6954  -15.8879   20.4698 H   0  0  0  0  0  0
  -26.2809  -15.5947   20.0258 H   0  0  0  0  0  0
  -26.7235  -32.5633   23.1198 H   0  0  0  0  0  0
  -24.9907  -33.9850   25.0403 H   0  0  0  0  0  0
  -22.7332  -31.3832   21.3863 H   0  0  0  0  0  0
  -23.3816  -35.9515   23.3389 H   0  0  0  0  0  0
  -24.3512  -36.8852   22.2068 H   0  0  0  0  0  0
  -23.7019  -37.6457   23.6604 H   0  0  0  0  0  0
  -26.1222  -31.5635   20.6229 H   0  0  0  0  0  0
  -26.8551  -30.8461   22.0130 H   0  0  0  0  0  0
  -28.0804  -28.9982   21.2366 H   0  0  0  0  0  0
  -25.9478  -25.9993   18.9769 H   0  0  0  0  0  0
  -23.9188  -27.3671   19.0357 H   0  0  0  0  0  0
  -23.7078  -30.6026   19.3820 H   0  0  0  0  0  0
  -22.7583  -29.2429   19.9105 H   0  0  0  0  0  0
  -25.1278  -36.2172   25.0856 H   0  0  0  0  0  0
  -20.9748  -28.3619   24.0536 H   0  0  0  0  0  0
  -20.6935  -26.2610   23.3182 H   0  0  0  0  0  0
  -21.6170  -26.8296   21.9736 H   0  0  0  0  0  0
  -19.6384  -25.4799   21.2700 H   0  0  0  0  0  0
  -19.6773  -27.0866   20.5870 H   0  0  0  0  0  0
  -17.4227  -26.7210   21.2664 H   0  0  0  0  0  0
  -17.8198  -26.0491   22.7896 H   0  0  0  0  0  0
  -19.7968  -30.6789   24.2816 H   0  0  0  0  0  0
  -17.4839  -31.5419   24.6965 H   0  0  0  0  0  0
  -15.5418  -30.3034   23.8192 H   0  0  0  0  0  0
  -15.8230  -28.1754   22.6219 H   0  0  0  0  0  0
  -24.6095  -30.6946   25.7780 H   0  0  0  0  0  0
  -24.8736  -32.2797   26.4930 H   0  0  0  0  0  0
  -25.8176  -30.8953   27.0273 H   0  0  0  0  0  0
  -26.2799  -29.6936   24.1372 H   0  0  0  0  0  0
  -27.4018  -29.7430   25.4756 H   0  0  0  0  0  0
  -27.8682  -30.4345   23.9412 H   0  0  0  0  0  0
  -27.2879  -33.3862   26.1921 H   0  0  0  0  0  0
  -28.3931  -32.6921   25.0194 H   0  0  0  0  0  0
  -28.0853  -31.8636   26.5413 H   0  0  0  0  0  0
  -28.2724  -38.0059   24.7604 H   0  0  0  0  0  0
  -28.0972  -36.2615   24.6279 H   0  0  0  0  0  0
  -27.2284  -37.1464   25.8903 H   0  0  0  0  0  0
  -20.9375  -29.9432   21.6434 H   0  0  0  0  0  0
  -26.0255  -38.3036   24.1451 H   0  0  0  0  0  0
  -29.1993  -19.9177   17.9059 H   0  0  0  0  0  0
  -22.5040  -22.0169   19.6622 H   0  0  0  0  0  0
  -23.9863  -22.6142   18.8405 H   0  0  0  0  0  0
  -23.7398  -22.9359   20.5028 H   0  0  0  0  0  0
  -26.2968  -21.9271   17.4640 H   0  0  0  0  0  0
  -27.9678  -22.3004   17.2167 H   0  0  0  0  0  0
  -25.8609  -22.2247   21.0025 H   0  0  0  0  0  0
  -25.7224  -20.8525   21.8642 H   0  0  0  0  0  0
  -24.5114  -20.2669   19.2224 H   0  0  0  0  0  0
  -23.7917  -20.2616   20.8475 H   0  0  0  0  0  0
  -26.2640  -23.4143   19.4368 H   0  0  0  0  0  0
  -26.5926  -24.2486   18.0156 H   0  0  0  0  0  0
  -28.9417  -24.5941   18.6049 H   0  0  0  0  0  0
  -28.8857  -23.3663   19.8420 H   0  0  0  0  0  0
  -30.3491  -18.3529   19.7007 H   0  0  0  0  0  0
  -29.6119  -18.2237   21.2598 H   0  0  0  0  0  0
  -29.0933  -16.2876   18.9526 H   0  0  0  0  0  0
  -28.1964  -16.2310   20.4477 H   0  0  0  0  0  0
  -28.5210  -24.9617   21.3776 H   0  0  0  0  0  0
  -26.9246  -25.0524   20.8080 H   0  0  0  0  0  0
  -30.9868  -16.3039   20.8785 H   0  0  0  0  0  0
  1 25  1  0  0  0
  1 30  2  0  0  0
  1 85  1  0  0  0
  2  3  1  0  0  0
  2 25  1  0  0  0
  2 86  1  0  0  0
  2 87  1  0  0  0
  3  4  1  0  0  0
  3 88  1  0  0  0
  3 89  1  0  0  0
  4  5  1  0  0  0
  4 90  1  0  0  0
  4 91  1  0  0  0
  5  6  1  0  0  0
  5 26  1  0  0  0
  5 92  1  0  0  0
  6 25  1  0  0  0
  6 93  1  0  0  0
  6 94  1  0  0  0
  7  8  2  0  0  0
  7 26  1  0  0  0
  7 29  1  0  0  0
  8  9  1  0  0  0
  8 22  1  0  0  0
  9 10  1  0  0  0
  9 27  2  0  0  0
 10 11  2  0  0  0
 10 15  1  0  0  0
 11 12  1  0  0  0
 11 95  1  0  0  0
 12 13  2  0  0  0
 12 96  1  0  0  0
 13 14  1  0  0  0
 13 31  1  0  0  0
 14 15  2  0  0  0
 14 97  1  0  0  0
 15 98  1  0  0  0
 16 17  2  0  0  0
 16 21  1  0  0  0
 16 31  1  0  0  0
 17 18  1  0  0  0
 17 99  1  0  0  0
 18 19  2  0  0  0
 18100  1  0  0  0
 19 20  1  0  0  0
 19 24  1  0  0  0
 20 21  2  0  0  0
 20101  1  0  0  0
 21 23  1  0  0  0
 22 28  1  0  0  0
 22 32  2  0  0  0
 26 27  1  0  0  0
 28102  1  0  0  0
 28103  1  0  0  0
 29104  1  0  0  0
 29105  1  0  0  0
 33 34  1  0  0  0
 33 66  1  0  0  0
 33 70  2  0  0  0
 34 36  1  0  0  0
 34 59  1  0  0  0
 34106  1  0  0  0
 35 44  2  0  0  0
 35 45  1  0  0  0
 35 68  1  0  0  0
 36 56  1  0  0  0
 36107  1  0  0  0
 37 39  1  0  0  0
 37 47  1  0  0  0
 37 66  1  0  0  0
 37108  1  0  0  0
 38 43  2  0  0  0
 38 46  1  0  0  0
 38 47  1  0  0  0
 39 64  1  0  0  0
 39 67  2  0  0  0
 40 52  1  0  0  0
 40 53  2  0  0  0
 40 58  1  0  0  0
 41109  1  0  0  0
 41110  1  0  0  0
 41111  1  0  0  0
 41 48  1  0  0  0
 42 43  1  0  0  0
 42 66  1  0  0  0
 42112  1  0  0  0
 42113  1  0  0  0
 43 44  1  0  0  0
 44114  1  0  0  0
 45 46  2  0  0  0
 45115  1  0  0  0
 46116  1  0  0  0
 47117  1  0  0  0
 47118  1  0  0  0
 48 56  1  0  0  0
 48 65  1  0  0  0
 48119  1  0  0  0
 49 50  1  0  0  0
 49 53  1  0  0  0
 49 64  1  0  0  0
 49120  1  0  0  0
 50 51  1  0  0  0
 50121  1  0  0  0
 50122  1  0  0  0
 51 52  1  0  0  0
 51123  1  0  0  0
 51124  1  0  0  0
 52125  1  0  0  0
 52126  1  0  0  0
 53 54  1  0  0  0
 54 55  2  0  0  0
 54127  1  0  0  0
 55 57  1  0  0  0
 55128  1  0  0  0
 56 69  2  0  0  0
 57 58  2  0  0  0
 57129  1  0  0  0
 58130  1  0  0  0
 59 60  1  0  0  0
 59 61  1  0  0  0
 59 62  1  0  0  0
 60131  1  0  0  0
 60132  1  0  0  0
 60133  1  0  0  0
 61134  1  0  0  0
 61135  1  0  0  0
 61136  1  0  0  0
 62137  1  0  0  0
 62138  1  0  0  0
 62139  1  0  0  0
 63 65  1  0  0  0
 63140  1  0  0  0
 63141  1  0  0  0
 63142  1  0  0  0
 64143  1  0  0  0
 65144  1  0  0  0
 68 82  1  0  0  0
 71 72  2  0  0  0
 71 84  1  0  0  0
 71145  1  0  0  0
 72 73  1  0  0  0
 72 75  1  0  0  0
 73 76  1  0  0  0
 73 83  2  0  0  0
 74 77  1  0  0  0
 74146  1  0  0  0
 74147  1  0  0  0
 74148  1  0  0  0
 75 78  1  0  0  0
 75149  1  0  0  0
 75150  1  0  0  0
 76 77  1  0  0  0
 76151  1  0  0  0
 76152  1  0  0  0
 77153  1  0  0  0
 77154  1  0  0  0
 78 79  1  0  0  0
 78155  1  0  0  0
 78156  1  0  0  0
 79 82  1  0  0  0
 79157  1  0  0  0
 79158  1  0  0  0
 80 81  1  0  0  0
 80 84  1  0  0  0
 80159  1  0  0  0
 80160  1  0  0  0
 81 85  1  0  0  0
 81161  1  0  0  0
 81162  1  0  0  0
 82163  1  0  0  0
 82164  1  0  0  0
 83 84  1  0  0  0
 85165  1  0  0  0
M  ISO  4   1 100  68 101  82 101  85 100
M  END
> <chiral flag>
0

> <version>
0

> <s_m_source_file>
/data/baiqing/PycharmProjects/Reinvent-master-3.2/result/LINK_invent/BTK/process_docking_weight1_custom_sum_contain_oxygen_bond_distance_aromatic_linkinvent_7_9_3/rearranged_h_0081.sdf

> <i_m_source_file_index>
50

> <r_mmod_Potential_Energy-OPLS-2005>
108.916816711426

> <r_mmod_Stretch_Energy-OPLS-2005>
51.9182014465332

> <r_mmod_Bend_Energy-OPLS-2005>
160.279251098633

> <r_mmod_Torsional_Energy-OPLS-2005>
314.388275146484

> <r_mmod_Improper_Torsional_Energy-OPLS-2005>
9.2186918258667

> <r_mmod_Van_der_Waal_Energy-OPLS-2005>
122.831649780273

> <r_mmod_Electrostatic_Energy-OPLS-2005>
-383.949645996094

> <r_mmod_Solvation_Energy-OPLS-2005>
-214.968368530273

> <b_mmod_Minimization_Converged-OPLS-2005>
0

> <r_mmod_RMS_Derivative-OPLS-2005>
27.5301284790039

$$$$
50
                    3D
 Structure written by MMmdl.
160168  0  0  1  0            999 V2000
  -30.6833  -14.5337   20.5176 C   0  0  0  0  0  0
  -30.4113  -12.3246   19.4511 C   0  0  0  0  0  0
  -29.4921  -12.5017   18.2230 C   0  0  0  0  0  0
  -28.0160  -12.3430   18.6374 C   0  0  0  0  0  0
  -27.6506  -13.2118   19.8705 C   0  0  2  0  0  0
  -28.6936  -13.0529   21.0022 C   0  0  0  0  0  0
  -25.2542  -13.8156   20.5712 C   0  0  0  0  0  0
  -24.1799  -13.0430   20.9191 C   0  0  0  0  0  0
  -24.6353  -11.6919   20.8743 C   0  0  0  0  0  0
  -23.9036  -10.4308   21.0398 C   0  0  0  0  0  0
  -24.3594   -9.4226   21.9177 C   0  0  0  0  0  0
  -23.6282   -8.2241   22.0751 C   0  0  0  0  0  0
  -22.4263   -8.0269   21.3533 C   0  0  0  0  0  0
  -21.9890   -9.0249   20.4639 C   0  0  0  0  0  0
  -22.7207  -10.2143   20.3056 C   0  0  0  0  0  0
  -21.6856   -6.0743   22.5271 C   0  0  0  0  0  0
  -21.4008   -6.5637   23.8199 C   0  0  0  0  0  0
  -21.3680   -5.6790   24.9160 C   0  0  0  0  0  0
  -21.6037   -4.3057   24.7210 C   0  0  0  0  0  0
  -21.8821   -3.8146   23.4331 C   0  0  0  0  0  0
  -21.9182   -4.6963   22.3380 C   0  0  0  0  0  0
  -22.7820  -13.5256   21.1855 C   0  0  0  0  0  0
  -22.1658   -4.2152   21.0956 F   0  0  0  0  0  0
  -21.5640   -3.4530   25.7716 F   0  0  0  0  0  0
  -30.0228  -13.3420   20.4447 N   0  0  0  0  0  0
  -26.2970  -12.9355   20.3374 N   0  0  0  0  0  0
  -25.9272  -11.6531   20.5780 N   0  0  0  0  0  0
  -22.0471  -12.8252   22.0424 N   0  0  0  0  0  0
  -25.4227  -15.1887   20.4149 N   0  0  0  0  0  0
  -31.8286  -14.6792   20.0872 O   0  0  0  0  0  0
  -21.6639   -6.8881   21.4235 O   0  0  0  0  0  0
  -22.3516  -14.5554   20.6700 O   0  0  0  0  0  0
  -24.6144  -31.8733   23.2054 C   0  0  0  0  0  0
  -25.9020  -32.4859   23.8365 C   0  0  1  0  0  0
  -27.2116  -27.4194   20.1027 C   0  0  0  0  0  0
  -25.5913  -33.8667   24.2351 N   0  0  0  0  0  0
  -23.3955  -30.4984   21.5539 C   0  0  2  0  0  0
  -24.8391  -28.9686   20.1115 C   0  0  0  0  0  0
  -22.7420  -29.4657   22.5017 C   0  0  0  0  0  0
  -18.0257  -28.1347   22.8553 C   0  0  0  0  0  0
  -24.1473  -36.7311   23.2636 C   0  0  0  0  0  0
  -25.9249  -30.8475   21.3441 C   0  0  0  0  0  0
  -26.0034  -29.4744   20.7062 C   0  0  0  0  0  0
  -27.1946  -28.7055   20.7004 C   0  0  0  0  0  0
  -26.0252  -26.9452   19.4886 C   0  0  0  0  0  0
  -24.8439  -27.7017   19.5065 C   0  0  0  0  0  0
  -23.6003  -29.8336   20.1644 C   0  0  0  0  0  0
  -25.4092  -36.3129   24.0360 C   0  0  1  0  0  0
  -20.5866  -28.3601   23.1387 C   0  0  2  0  0  0
  -20.6765  -26.9360   22.5456 C   0  0  0  0  0  0
  -19.5705  -26.6384   21.5262 C   0  0  0  0  0  0
  -18.1872  -26.7901   22.1652 C   0  0  0  0  0  0
  -19.1527  -28.8790   23.2988 C   0  0  0  0  0  0
  -18.9438  -30.1415   23.8957 C   0  0  0  0  0  0
  -17.6452  -30.6578   24.0552 C   0  0  0  0  0  0
  -25.9059  -34.9501   23.5145 C   0  0  0  0  0  0
  -16.5347  -29.9111   23.6304 C   0  0  0  0  0  0
  -16.7255  -28.6486   23.0394 C   0  0  0  0  0  0
  -26.4434  -31.6565   25.0637 C   0  0  0  0  0  0
  -25.3703  -31.3639   26.1398 C   0  0  0  0  0  0
  -27.0164  -30.3011   24.5838 C   0  0  0  0  0  0
  -27.6064  -32.4183   25.7401 C   0  0  0  0  0  0
  -27.5584  -37.1813   24.8504 C   0  0  0  0  0  0
  -21.4138  -29.2993   22.3825 N   0  0  0  0  0  0
  -26.4292  -37.3845   23.9457 N   0  0  0  0  0  0
  -24.6663  -31.0873   22.0931 N   0  0  0  0  0  0
  -23.4232  -28.8216   23.3030 O   0  0  0  0  0  0
  -28.3569  -26.6368   20.1351 O   0  0  0  0  0  0
  -26.5618  -34.8961   22.4704 O   0  0  0  0  0  0
  -23.5330  -32.1432   23.7488 O   0  0  0  0  0  0
  -28.6171  -21.1138   22.0689 C   0  0  0  0  0  0
  -29.2547  -21.8906   20.0822 C   0  0  0  0  0  0
  -28.9446  -20.7219   20.7412 C   0  0  0  0  0  0
  -28.7095  -22.4784   22.1695 C   0  0  0  0  0  0
  -28.4503  -23.3594   23.3488 C   0  0  0  0  0  0
  -27.4851  -19.0155   19.6654 C   0  0  0  0  0  0
  -29.4285  -18.1583   21.0833 C   0  0  0  0  0  0
  -29.3830  -24.3947   20.6038 C   0  0  0  0  0  0
  -30.1580  -16.9846   20.3429 C   0  0  0  0  0  0
  -28.1287  -25.2062   20.1992 C   0  0  0  0  0  0
  -28.9157  -19.3127   20.1472 C   0  0  2  0  0  0
  -29.1153  -22.9788   20.9379 N   0  0  0  0  0  0
  -29.9295  -15.6104   20.8592 N   0  0  0  0  0  0
  -31.4595  -12.3960   19.1623 H   0  0  0  0  0  0
  -30.2817  -11.3296   19.8761 H   0  0  0  0  0  0
  -29.7414  -11.7731   17.4502 H   0  0  0  0  0  0
  -29.6413  -13.4892   17.7742 H   0  0  0  0  0  0
  -27.8533  -11.2896   18.8714 H   0  0  0  0  0  0
  -27.3537  -12.5729   17.8002 H   0  0  0  0  0  0
  -27.6761  -14.2492   19.5338 H   0  0  0  0  0  0
  -28.6729  -12.0390   21.4001 H   0  0  0  0  0  0
  -28.4567  -13.7039   21.8442 H   0  0  0  0  0  0
  -25.2742   -9.5707   22.4765 H   0  0  0  0  0  0
  -23.9990   -7.4642   22.7467 H   0  0  0  0  0  0
  -21.0826   -8.8775   19.8939 H   0  0  0  0  0  0
  -22.3658  -10.9691   19.6171 H   0  0  0  0  0  0
  -21.2005   -7.6143   23.9706 H   0  0  0  0  0  0
  -21.1504   -6.0516   25.9071 H   0  0  0  0  0  0
  -22.0581   -2.7603   23.2810 H   0  0  0  0  0  0
  -22.4092  -11.9907   22.4826 H   0  0  0  0  0  0
  -21.1074  -13.1278   22.2628 H   0  0  0  0  0  0
  -24.6534  -15.8399   20.5251 H   0  0  0  0  0  0
  -26.2795  -15.6382   20.1176 H   0  0  0  0  0  0
  -26.7098  -32.5549   23.1116 H   0  0  0  0  0  0
  -25.0112  -33.9758   25.0537 H   0  0  0  0  0  0
  -22.6742  -31.3062   21.4170 H   0  0  0  0  0  0
  -23.3753  -35.9630   23.3353 H   0  0  0  0  0  0
  -24.3585  -36.8842   22.2051 H   0  0  0  0  0  0
  -23.7179  -37.6515   23.6587 H   0  0  0  0  0  0
  -26.0082  -31.5962   20.5526 H   0  0  0  0  0  0
  -26.8262  -30.9295   21.9423 H   0  0  0  0  0  0
  -28.0870  -29.0881   21.1736 H   0  0  0  0  0  0
  -25.9810  -25.9866   18.9972 H   0  0  0  0  0  0
  -23.9499  -27.2935   19.0595 H   0  0  0  0  0  0
  -23.7013  -30.6071   19.4003 H   0  0  0  0  0  0
  -22.7254  -29.2483   19.8789 H   0  0  0  0  0  0
  -25.1246  -36.2010   25.0851 H   0  0  0  0  0  0
  -20.9941  -28.3144   24.1524 H   0  0  0  0  0  0
  -20.5661  -26.2213   23.3636 H   0  0  0  0  0  0
  -21.6619  -26.7415   22.1232 H   0  0  0  0  0  0
  -19.6861  -25.6318   21.1243 H   0  0  0  0  0  0
  -19.6634  -27.3239   20.6837 H   0  0  0  0  0  0
  -17.4183  -26.6732   21.4041 H   0  0  0  0  0  0
  -18.0222  -26.0018   22.8998 H   0  0  0  0  0  0
  -19.7923  -30.7212   24.2387 H   0  0  0  0  0  0
  -17.5011  -31.6259   24.5112 H   0  0  0  0  0  0
  -15.5338  -30.3021   23.7569 H   0  0  0  0  0  0
  -15.8656  -28.0779   22.7130 H   0  0  0  0  0  0
  -24.5926  -30.6910   25.7759 H   0  0  0  0  0  0
  -24.8823  -32.2777   26.4822 H   0  0  0  0  0  0
  -25.8102  -30.8859   27.0155 H   0  0  0  0  0  0
  -26.2662  -29.7017   24.0662 H   0  0  0  0  0  0
  -27.3749  -29.6988   25.4184 H   0  0  0  0  0  0
  -27.8584  -30.4384   23.9040 H   0  0  0  0  0  0
  -27.2747  -33.3491   26.2006 H   0  0  0  0  0  0
  -28.3879  -32.6690   25.0224 H   0  0  0  0  0  0
  -28.0692  -31.8226   26.5282 H   0  0  0  0  0  0
  -28.2641  -38.0091   24.7574 H   0  0  0  0  0  0
  -28.1025  -36.2620   24.6275 H   0  0  0  0  0  0
  -27.2324  -37.1427   25.8919 H   0  0  0  0  0  0
  -20.9274  -29.8773   21.7119 H   0  0  0  0  0  0
  -26.0188  -38.2923   24.1440 H   0  0  0  0  0  0
  -28.3320  -20.4502   22.8769 H   0  0  0  0  0  0
  -29.5679  -22.0439   19.0588 H   0  0  0  0  0  0
  -27.9114  -22.8075   24.1185 H   0  0  0  0  0  0
  -27.8467  -24.2293   23.0832 H   0  0  0  0  0  0
  -29.3813  -23.7161   23.7899 H   0  0  0  0  0  0
  -27.1409  -19.7523   18.9367 H   0  0  0  0  0  0
  -26.7782  -19.0422   20.4972 H   0  0  0  0  0  0
  -27.4181  -18.0276   19.2062 H   0  0  0  0  0  0
  -30.1403  -18.5685   21.8014 H   0  0  0  0  0  0
  -28.5993  -17.7886   21.6873 H   0  0  0  0  0  0
  -30.1175  -24.4321   19.7980 H   0  0  0  0  0  0
  -29.8513  -24.8764   21.4626 H   0  0  0  0  0  0
  -31.2289  -17.2032   20.3112 H   0  0  0  0  0  0
  -29.8322  -16.9699   19.3040 H   0  0  0  0  0  0
  -27.3412  -25.0102   20.9255 H   0  0  0  0  0  0
  -27.7886  -24.8392   19.2296 H   0  0  0  0  0  0
  -29.5675  -19.3584   19.2720 H   0  0  0  0  0  0
  -29.0085  -15.4045   21.2132 H   0  0  0  0  0  0
  1 25  1  0  0  0
  1 30  2  0  0  0
  1 83  1  0  0  0
  2  3  1  0  0  0
  2 25  1  0  0  0
  2 84  1  0  0  0
  2 85  1  0  0  0
  3  4  1  0  0  0
  3 86  1  0  0  0
  3 87  1  0  0  0
  4  5  1  0  0  0
  4 88  1  0  0  0
  4 89  1  0  0  0
  5  6  1  0  0  0
  5 26  1  0  0  0
  5 90  1  0  0  0
  6 25  1  0  0  0
  6 91  1  0  0  0
  6 92  1  0  0  0
  7  8  2  0  0  0
  7 26  1  0  0  0
  7 29  1  0  0  0
  8  9  1  0  0  0
  8 22  1  0  0  0
  9 10  1  0  0  0
  9 27  2  0  0  0
 10 11  2  0  0  0
 10 15  1  0  0  0
 11 12  1  0  0  0
 11 93  1  0  0  0
 12 13  2  0  0  0
 12 94  1  0  0  0
 13 14  1  0  0  0
 13 31  1  0  0  0
 14 15  2  0  0  0
 14 95  1  0  0  0
 15 96  1  0  0  0
 16 17  2  0  0  0
 16 21  1  0  0  0
 16 31  1  0  0  0
 17 18  1  0  0  0
 17 97  1  0  0  0
 18 19  2  0  0  0
 18 98  1  0  0  0
 19 20  1  0  0  0
 19 24  1  0  0  0
 20 21  2  0  0  0
 20 99  1  0  0  0
 21 23  1  0  0  0
 22 28  1  0  0  0
 22 32  2  0  0  0
 26 27  1  0  0  0
 28100  1  0  0  0
 28101  1  0  0  0
 29102  1  0  0  0
 29103  1  0  0  0
 33 34  1  0  0  0
 33 66  1  0  0  0
 33 70  2  0  0  0
 34 36  1  0  0  0
 34 59  1  0  0  0
 34104  1  0  0  0
 35 44  2  0  0  0
 35 45  1  0  0  0
 35 68  1  0  0  0
 36 56  1  0  0  0
 36105  1  0  0  0
 37 39  1  0  0  0
 37 47  1  0  0  0
 37 66  1  0  0  0
 37106  1  0  0  0
 38 43  2  0  0  0
 38 46  1  0  0  0
 38 47  1  0  0  0
 39 64  1  0  0  0
 39 67  2  0  0  0
 40 52  1  0  0  0
 40 53  2  0  0  0
 40 58  1  0  0  0
 41107  1  0  0  0
 41108  1  0  0  0
 41109  1  0  0  0
 41 48  1  0  0  0
 42 43  1  0  0  0
 42 66  1  0  0  0
 42110  1  0  0  0
 42111  1  0  0  0
 43 44  1  0  0  0
 44112  1  0  0  0
 45 46  2  0  0  0
 45113  1  0  0  0
 46114  1  0  0  0
 47115  1  0  0  0
 47116  1  0  0  0
 48 56  1  0  0  0
 48 65  1  0  0  0
 48117  1  0  0  0
 49 50  1  0  0  0
 49 53  1  0  0  0
 49 64  1  0  0  0
 49118  1  0  0  0
 50 51  1  0  0  0
 50119  1  0  0  0
 50120  1  0  0  0
 51 52  1  0  0  0
 51121  1  0  0  0
 51122  1  0  0  0
 52123  1  0  0  0
 52124  1  0  0  0
 53 54  1  0  0  0
 54 55  2  0  0  0
 54125  1  0  0  0
 55 57  1  0  0  0
 55126  1  0  0  0
 56 69  2  0  0  0
 57 58  2  0  0  0
 57127  1  0  0  0
 58128  1  0  0  0
 59 60  1  0  0  0
 59 61  1  0  0  0
 59 62  1  0  0  0
 60129  1  0  0  0
 60130  1  0  0  0
 60131  1  0  0  0
 61132  1  0  0  0
 61133  1  0  0  0
 61134  1  0  0  0
 62135  1  0  0  0
 62136  1  0  0  0
 62137  1  0  0  0
 63 65  1  0  0  0
 63138  1  0  0  0
 63139  1  0  0  0
 63140  1  0  0  0
 64141  1  0  0  0
 65142  1  0  0  0
 68 80  1  0  0  0
 71 73  1  0  0  0
 71 74  2  0  0  0
 71143  1  0  0  0
 72 73  2  0  0  0
 72 82  1  0  0  0
 72144  1  0  0  0
 73 81  1  0  0  0
 74 75  1  0  0  0
 74 82  1  0  0  0
 75145  1  0  0  0
 75146  1  0  0  0
 75147  1  0  0  0
 76148  1  0  0  0
 76149  1  0  0  0
 76150  1  0  0  0
 76 81  1  0  0  0
 77 79  1  0  0  0
 77 81  1  0  0  0
 77151  1  0  0  0
 77152  1  0  0  0
 78 80  1  0  0  0
 78 82  1  0  0  0
 78153  1  0  0  0
 78154  1  0  0  0
 79 83  1  0  0  0
 79155  1  0  0  0
 79156  1  0  0  0
 80157  1  0  0  0
 80158  1  0  0  0
 81159  1  0  0  0
 83160  1  0  0  0
M  ISO  4   1 100  68 101  80 101  83 100
M  END
> <chiral flag>
0

> <version>
0

> <s_m_source_file>
/data/baiqing/PycharmProjects/Reinvent-master-3.2/result/LINK_invent/BTK/process_docking_weight1_custom_sum_contain_oxygen_bond_distance_aromatic_linkinvent_7_9_3/rearranged_h_0081.sdf

> <i_m_source_file_index>
51

> <r_mmod_Potential_Energy-OPLS-2005>
-53.0763130187988

> <r_mmod_Stretch_Energy-OPLS-2005>
44.6936416625977

> <r_mmod_Bend_Energy-OPLS-2005>
100.00244140625

> <r_mmod_Torsional_Energy-OPLS-2005>
238.426788330078

> <r_mmod_Improper_Torsional_Energy-OPLS-2005>
6.7397518157959

> <r_mmod_Van_der_Waal_Energy-OPLS-2005>
126.282173156738

> <r_mmod_Electrostatic_Energy-OPLS-2005>
-383.3203125

> <r_mmod_Solvation_Energy-OPLS-2005>
-207.126571655273

> <b_mmod_Minimization_Converged-OPLS-2005>
0

> <r_mmod_RMS_Derivative-OPLS-2005>
6.79719257354736

$$$$
51
                    3D
 Structure written by MMmdl.
157165  0  0  1  0            999 V2000
  -30.6152  -14.6968   20.4773 C   0  0  0  0  0  0
  -30.4320  -12.4248   19.4645 C   0  0  0  0  0  0
  -29.5115  -12.5025   18.2294 C   0  0  0  0  0  0
  -28.0300  -12.3488   18.6306 C   0  0  0  0  0  0
  -27.6431  -13.2312   19.8483 C   0  0  2  0  0  0
  -28.6867  -13.1277   20.9810 C   0  0  0  0  0  0
  -25.2506  -13.8232   20.5654 C   0  0  0  0  0  0
  -24.1800  -13.0479   20.9181 C   0  0  0  0  0  0
  -24.6393  -11.6962   20.8718 C   0  0  0  0  0  0
  -23.9058  -10.4335   21.0376 C   0  0  0  0  0  0
  -24.3627   -9.4255   21.9147 C   0  0  0  0  0  0
  -23.6322   -8.2280   22.0726 C   0  0  0  0  0  0
  -22.4299   -8.0305   21.3526 C   0  0  0  0  0  0
  -21.9917   -9.0264   20.4620 C   0  0  0  0  0  0
  -22.7226  -10.2155   20.3024 C   0  0  0  0  0  0
  -21.6874   -6.0740   22.5269 C   0  0  0  0  0  0
  -21.4039   -6.5641   23.8200 C   0  0  0  0  0  0
  -21.3657   -5.6787   24.9156 C   0  0  0  0  0  0
  -21.6058   -4.3048   24.7204 C   0  0  0  0  0  0
  -21.8826   -3.8140   23.4319 C   0  0  0  0  0  0
  -21.9206   -4.6966   22.3382 C   0  0  0  0  0  0
  -22.7811  -13.5240   21.1851 C   0  0  0  0  0  0
  -22.1664   -4.2156   21.0959 F   0  0  0  0  0  0
  -21.5632   -3.4535   25.7710 F   0  0  0  0  0  0
  -29.9920  -13.4751   20.4054 N   0  0  0  0  0  0
  -26.2931  -12.9432   20.3234 N   0  0  0  0  0  0
  -25.9310  -11.6575   20.5685 N   0  0  0  0  0  0
  -22.0465  -12.8220   22.0414 N   0  0  0  0  0  0
  -25.4206  -15.1956   20.4070 N   0  0  0  0  0  0
  -31.8031  -14.8115   20.1636 O   0  0  0  0  0  0
  -21.6677   -6.8890   21.4226 O   0  0  0  0  0  0
  -22.3493  -14.5537   20.6693 O   0  0  0  0  0  0
  -24.6280  -31.8572   23.1981 C   0  0  0  0  0  0
  -25.9114  -32.4766   23.8325 C   0  0  1  0  0  0
  -27.2293  -27.2951   20.1248 C   0  0  0  0  0  0
  -25.5916  -33.8573   24.2259 N   0  0  0  0  0  0
  -23.4229  -30.4781   21.5423 C   0  0  2  0  0  0
  -24.8697  -28.9195   20.1181 C   0  0  0  0  0  0
  -22.7485  -29.4620   22.4937 C   0  0  0  0  0  0
  -18.0288  -28.1387   22.8493 C   0  0  0  0  0  0
  -24.1481  -36.7295   23.2637 C   0  0  0  0  0  0
  -25.9647  -30.7814   21.3704 C   0  0  0  0  0  0
  -26.0411  -29.4043   20.7165 C   0  0  0  0  0  0
  -27.2255  -28.6054   20.7034 C   0  0  0  0  0  0
  -26.0360  -26.8604   19.5114 C   0  0  0  0  0  0
  -24.8700  -27.6529   19.5088 C   0  0  0  0  0  0
  -23.6399  -29.8057   20.1615 C   0  0  0  0  0  0
  -25.4106  -36.3084   24.0330 C   0  0  1  0  0  0
  -20.5886  -28.3701   23.1285 C   0  0  2  0  0  0
  -20.6784  -26.9424   22.5415 C   0  0  0  0  0  0
  -19.5755  -26.6388   21.5222 C   0  0  0  0  0  0
  -18.1934  -26.7932   22.1629 C   0  0  0  0  0  0
  -19.1537  -28.8856   23.2884 C   0  0  0  0  0  0
  -18.9467  -30.1454   23.8905 C   0  0  0  0  0  0
  -17.6469  -30.6593   24.0565 C   0  0  0  0  0  0
  -25.9052  -34.9452   23.5103 C   0  0  0  0  0  0
  -16.5356  -29.9101   23.6321 C   0  0  0  0  0  0
  -16.7277  -28.6509   23.0359 C   0  0  0  0  0  0
  -26.4486  -31.6586   25.0710 C   0  0  0  0  0  0
  -25.3694  -31.3752   26.1421 C   0  0  0  0  0  0
  -27.0329  -30.3002   24.6183 C   0  0  0  0  0  0
  -27.6035  -32.4322   25.7490 C   0  0  0  0  0  0
  -27.5584  -37.1801   24.8464 C   0  0  0  0  0  0
  -21.4195  -29.3045   22.3674 N   0  0  0  0  0  0
  -26.4290  -37.3776   23.9415 N   0  0  0  0  0  0
  -24.6911  -31.0562   22.0938 N   0  0  0  0  0  0
  -23.4190  -28.8170   23.3039 O   0  0  0  0  0  0
  -28.3557  -26.4537   20.1078 O   0  0  0  0  0  0
  -26.5636  -34.8925   22.4678 O   0  0  0  0  0  0
  -23.5445  -32.1387   23.7294 O   0  0  0  0  0  0
  -28.9555  -21.1320   20.0237 C   0  0  0  0  0  0
  -29.3729  -22.4748   20.3763 C   0  0  0  0  0  0
  -29.6255  -19.9647   20.5696 C   0  0  0  0  0  0
  -30.4693  -22.5009   21.2776 C   0  0  0  0  0  0
  -31.1525  -23.7874   21.7033 C   0  0  0  0  0  0
  -29.1888  -18.2419   18.7095 C   0  0  0  0  0  0
  -28.8268  -23.8192   19.7124 C   0  0  0  0  0  0
  -30.2355  -17.2772   20.8405 C   0  0  0  0  0  0
  -28.2388  -25.0419   20.5835 C   0  0  0  0  0  0
  -29.2863  -18.4418   20.2322 C   0  0  1  0  0  0
  -30.6347  -20.1493   21.4528 N   0  0  0  0  0  0
  -31.0377  -21.3784   21.7938 N   0  0  0  0  0  0
  -29.8348  -15.8090   20.7140 N   0  0  0  0  0  0
  -31.4742  -12.5483   19.1647 H   0  0  0  0  0  0
  -30.3720  -11.4420   19.9354 H   0  0  0  0  0  0
  -29.7849  -11.7311   17.5068 H   0  0  0  0  0  0
  -29.6605  -13.4602   17.7274 H   0  0  0  0  0  0
  -27.8564  -11.2971   18.8613 H   0  0  0  0  0  0
  -27.3884  -12.5805   17.7814 H   0  0  0  0  0  0
  -27.6477  -14.2595   19.4893 H   0  0  0  0  0  0
  -28.7084  -12.1188   21.3977 H   0  0  0  0  0  0
  -28.4290  -13.7940   21.8044 H   0  0  0  0  0  0
  -25.2767   -9.5777   22.4718 H   0  0  0  0  0  0
  -24.0048   -7.4699   22.7456 H   0  0  0  0  0  0
  -21.0843   -8.8764   19.8946 H   0  0  0  0  0  0
  -22.3644  -10.9687   19.6145 H   0  0  0  0  0  0
  -21.2029   -7.6151   23.9696 H   0  0  0  0  0  0
  -21.1471   -6.0514   25.9064 H   0  0  0  0  0  0
  -22.0601   -2.7601   23.2806 H   0  0  0  0  0  0
  -22.4116  -11.9923   22.4837 H   0  0  0  0  0  0
  -21.1066  -13.1208   22.2593 H   0  0  0  0  0  0
  -24.6506  -15.8473   20.5175 H   0  0  0  0  0  0
  -26.2589  -15.6328   20.0480 H   0  0  0  0  0  0
  -26.7189  -32.5432   23.1079 H   0  0  0  0  0  0
  -25.0023  -33.9700   25.0380 H   0  0  0  0  0  0
  -22.7167  -31.2987   21.3960 H   0  0  0  0  0  0
  -23.3747  -35.9628   23.3295 H   0  0  0  0  0  0
  -24.3571  -36.8921   22.2054 H   0  0  0  0  0  0
  -23.7235  -37.6492   23.6666 H   0  0  0  0  0  0
  -26.0935  -31.5411   20.5982 H   0  0  0  0  0  0
  -26.8451  -30.8347   21.9993 H   0  0  0  0  0  0
  -28.1288  -28.9777   21.1650 H   0  0  0  0  0  0
  -26.0018  -25.8911   19.0324 H   0  0  0  0  0  0
  -23.9700  -27.2750   19.0419 H   0  0  0  0  0  0
  -23.7667  -30.5781   19.4025 H   0  0  0  0  0  0
  -22.7575  -29.2406   19.8582 H   0  0  0  0  0  0
  -25.1283  -36.1927   25.0824 H   0  0  0  0  0  0
  -20.9977  -28.3282   24.1405 H   0  0  0  0  0  0
  -20.5698  -26.2314   23.3621 H   0  0  0  0  0  0
  -21.6655  -26.7474   22.1199 H   0  0  0  0  0  0
  -19.6926  -25.6299   21.1255 H   0  0  0  0  0  0
  -19.6684  -27.3195   20.6745 H   0  0  0  0  0  0
  -17.4209  -26.6682   21.4025 H   0  0  0  0  0  0
  -18.0327  -26.0072   22.9018 H   0  0  0  0  0  0
  -19.7939  -30.7265   24.2288 H   0  0  0  0  0  0
  -17.5022  -31.6272   24.5167 H   0  0  0  0  0  0
  -15.5354  -30.3014   23.7629 H   0  0  0  0  0  0
  -15.8672  -28.0823   22.7091 H   0  0  0  0  0  0
  -24.5851  -30.7128   25.7737 H   0  0  0  0  0  0
  -24.8906  -32.2940   26.4824 H   0  0  0  0  0  0
  -25.7979  -30.8926   27.0212 H   0  0  0  0  0  0
  -26.2926  -29.6751   24.1174 H   0  0  0  0  0  0
  -27.3981  -29.7252   25.4703 H   0  0  0  0  0  0
  -27.8809  -30.4277   23.9447 H   0  0  0  0  0  0
  -27.2639  -33.3615   26.2075 H   0  0  0  0  0  0
  -28.3848  -32.6891   25.0325 H   0  0  0  0  0  0
  -28.0705  -31.8443   26.5402 H   0  0  0  0  0  0
  -28.2590  -38.0105   24.7514 H   0  0  0  0  0  0
  -28.1087  -36.2638   24.6277 H   0  0  0  0  0  0
  -27.2311  -37.1437   25.8867 H   0  0  0  0  0  0
  -20.9384  -29.8744   21.6856 H   0  0  0  0  0  0
  -26.0168  -38.2851   24.1404 H   0  0  0  0  0  0
  -28.1542  -20.9950   19.3119 H   0  0  0  0  0  0
  -31.1248  -24.5414   20.9181 H   0  0  0  0  0  0
  -32.2035  -23.6134   21.9340 H   0  0  0  0  0  0
  -30.6755  -24.1882   22.5980 H   0  0  0  0  0  0
  -28.4757  -18.9283   18.2542 H   0  0  0  0  0  0
  -28.8650  -17.2319   18.4561 H   0  0  0  0  0  0
  -30.1558  -18.4086   18.2339 H   0  0  0  0  0  0
  -28.0781  -23.5471   18.9683 H   0  0  0  0  0  0
  -29.6578  -24.2121   19.1252 H   0  0  0  0  0  0
  -30.3427  -17.4619   21.9109 H   0  0  0  0  0  0
  -31.2375  -17.3960   20.4277 H   0  0  0  0  0  0
  -28.7498  -25.0485   21.5439 H   0  0  0  0  0  0
  -27.2066  -24.8073   20.8429 H   0  0  0  0  0  0
  -28.2894  -18.2880   20.6465 H   0  0  0  0  0  0
  -28.8635  -15.6084   20.8988 H   0  0  0  0  0  0
  1 25  1  0  0  0
  1 30  2  0  0  0
  1 83  1  0  0  0
  2  3  1  0  0  0
  2 25  1  0  0  0
  2 84  1  0  0  0
  2 85  1  0  0  0
  3  4  1  0  0  0
  3 86  1  0  0  0
  3 87  1  0  0  0
  4  5  1  0  0  0
  4 88  1  0  0  0
  4 89  1  0  0  0
  5  6  1  0  0  0
  5 26  1  0  0  0
  5 90  1  0  0  0
  6 25  1  0  0  0
  6 91  1  0  0  0
  6 92  1  0  0  0
  7  8  2  0  0  0
  7 26  1  0  0  0
  7 29  1  0  0  0
  8  9  1  0  0  0
  8 22  1  0  0  0
  9 10  1  0  0  0
  9 27  2  0  0  0
 10 11  2  0  0  0
 10 15  1  0  0  0
 11 12  1  0  0  0
 11 93  1  0  0  0
 12 13  2  0  0  0
 12 94  1  0  0  0
 13 14  1  0  0  0
 13 31  1  0  0  0
 14 15  2  0  0  0
 14 95  1  0  0  0
 15 96  1  0  0  0
 16 17  2  0  0  0
 16 21  1  0  0  0
 16 31  1  0  0  0
 17 18  1  0  0  0
 17 97  1  0  0  0
 18 19  2  0  0  0
 18 98  1  0  0  0
 19 20  1  0  0  0
 19 24  1  0  0  0
 20 21  2  0  0  0
 20 99  1  0  0  0
 21 23  1  0  0  0
 22 28  1  0  0  0
 22 32  2  0  0  0
 26 27  1  0  0  0
 28100  1  0  0  0
 28101  1  0  0  0
 29102  1  0  0  0
 29103  1  0  0  0
 33 34  1  0  0  0
 33 66  1  0  0  0
 33 70  2  0  0  0
 34 36  1  0  0  0
 34 59  1  0  0  0
 34104  1  0  0  0
 35 44  2  0  0  0
 35 45  1  0  0  0
 35 68  1  0  0  0
 36 56  1  0  0  0
 36105  1  0  0  0
 37 39  1  0  0  0
 37 47  1  0  0  0
 37 66  1  0  0  0
 37106  1  0  0  0
 38 43  2  0  0  0
 38 46  1  0  0  0
 38 47  1  0  0  0
 39 64  1  0  0  0
 39 67  2  0  0  0
 40 52  1  0  0  0
 40 53  2  0  0  0
 40 58  1  0  0  0
 41107  1  0  0  0
 41108  1  0  0  0
 41109  1  0  0  0
 41 48  1  0  0  0
 42 43  1  0  0  0
 42 66  1  0  0  0
 42110  1  0  0  0
 42111  1  0  0  0
 43 44  1  0  0  0
 44112  1  0  0  0
 45 46  2  0  0  0
 45113  1  0  0  0
 46114  1  0  0  0
 47115  1  0  0  0
 47116  1  0  0  0
 48 56  1  0  0  0
 48 65  1  0  0  0
 48117  1  0  0  0
 49 50  1  0  0  0
 49 53  1  0  0  0
 49 64  1  0  0  0
 49118  1  0  0  0
 50 51  1  0  0  0
 50119  1  0  0  0
 50120  1  0  0  0
 51 52  1  0  0  0
 51121  1  0  0  0
 51122  1  0  0  0
 52123  1  0  0  0
 52124  1  0  0  0
 53 54  1  0  0  0
 54 55  2  0  0  0
 54125  1  0  0  0
 55 57  1  0  0  0
 55126  1  0  0  0
 56 69  2  0  0  0
 57 58  2  0  0  0
 57127  1  0  0  0
 58128  1  0  0  0
 59 60  1  0  0  0
 59 61  1  0  0  0
 59 62  1  0  0  0
 60129  1  0  0  0
 60130  1  0  0  0
 60131  1  0  0  0
 61132  1  0  0  0
 61133  1  0  0  0
 61134  1  0  0  0
 62135  1  0  0  0
 62136  1  0  0  0
 62137  1  0  0  0
 63 65  1  0  0  0
 63138  1  0  0  0
 63139  1  0  0  0
 63140  1  0  0  0
 64141  1  0  0  0
 65142  1  0  0  0
 68 79  1  0  0  0
 71 72  2  0  0  0
 71 73  1  0  0  0
 71143  1  0  0  0
 72 74  1  0  0  0
 72 77  1  0  0  0
 73 80  1  0  0  0
 73 81  2  0  0  0
 74 75  1  0  0  0
 74 82  2  0  0  0
 75144  1  0  0  0
 75145  1  0  0  0
 75146  1  0  0  0
 76147  1  0  0  0
 76148  1  0  0  0
 76149  1  0  0  0
 76 80  1  0  0  0
 77 79  1  0  0  0
 77150  1  0  0  0
 77151  1  0  0  0
 78 80  1  0  0  0
 78 83  1  0  0  0
 78152  1  0  0  0
 78153  1  0  0  0
 79154  1  0  0  0
 79155  1  0  0  0
 80156  1  0  0  0
 81 82  1  0  0  0
 83157  1  0  0  0
M  ISO  4   1 100  68 101  79 101  83 100
M  END
> <chiral flag>
0

> <version>
0

> <s_m_source_file>
/data/baiqing/PycharmProjects/Reinvent-master-3.2/result/LINK_invent/BTK/process_docking_weight1_custom_sum_contain_oxygen_bond_distance_aromatic_linkinvent_7_9_3/rearranged_h_0081.sdf

> <i_m_source_file_index>
52

> <r_mmod_Potential_Energy-OPLS-2005>
93.6705017089844

> <r_mmod_Stretch_Energy-OPLS-2005>
111.02481842041

> <r_mmod_Bend_Energy-OPLS-2005>
156.681747436523

> <r_mmod_Torsional_Energy-OPLS-2005>
234.96809387207

> <r_mmod_Improper_Torsional_Energy-OPLS-2005>
5.0937933921814

> <r_mmod_Van_der_Waal_Energy-OPLS-2005>
138.284652709961

> <r_mmod_Electrostatic_Energy-OPLS-2005>
-378.177734375

> <r_mmod_Solvation_Energy-OPLS-2005>
-237.112182617188

> <b_mmod_Minimization_Converged-OPLS-2005>
0

> <r_mmod_RMS_Derivative-OPLS-2005>
2.61551690101624

$$$$
52
                    3D
 Structure written by MMmdl.
178186  0  0  1  0            999 V2000
  -30.7340  -14.3820   20.5995 C   0  0  0  0  0  0
  -30.4079  -12.2661   19.4008 C   0  0  0  0  0  0
  -29.4819  -12.5022   18.1916 C   0  0  0  0  0  0
  -28.0043  -12.3713   18.6082 C   0  0  0  0  0  0
  -27.6603  -13.2013   19.8742 C   0  0  2  0  0  0
  -28.6975  -12.9544   20.9920 C   0  0  0  0  0  0
  -25.2585  -13.8149   20.5677 C   0  0  0  0  0  0
  -24.1837  -13.0436   20.9166 C   0  0  0  0  0  0
  -24.6377  -11.6897   20.8718 C   0  0  0  0  0  0
  -23.9045  -10.4292   21.0398 C   0  0  0  0  0  0
  -24.3602   -9.4205   21.9174 C   0  0  0  0  0  0
  -23.6287   -8.2239   22.0747 C   0  0  0  0  0  0
  -22.4271   -8.0271   21.3538 C   0  0  0  0  0  0
  -21.9897   -9.0242   20.4639 C   0  0  0  0  0  0
  -22.7218  -10.2125   20.3050 C   0  0  0  0  0  0
  -21.6854   -6.0727   22.5274 C   0  0  0  0  0  0
  -21.4013   -6.5634   23.8206 C   0  0  0  0  0  0
  -21.3661   -5.6791   24.9171 C   0  0  0  0  0  0
  -21.6047   -4.3054   24.7225 C   0  0  0  0  0  0
  -21.8820   -3.8142   23.4350 C   0  0  0  0  0  0
  -21.9195   -4.6956   22.3405 C   0  0  0  0  0  0
  -22.7862  -13.5233   21.1844 C   0  0  0  0  0  0
  -22.1664   -4.2140   21.0985 F   0  0  0  0  0  0
  -21.5632   -3.4541   25.7743 F   0  0  0  0  0  0
  -30.0341  -13.2331   20.4418 N   0  0  0  0  0  0
  -26.3009  -12.9314   20.3354 N   0  0  0  0  0  0
  -25.9296  -11.6473   20.5738 N   0  0  0  0  0  0
  -22.0511  -12.8227   22.0399 N   0  0  0  0  0  0
  -25.4329  -15.1871   20.4096 N   0  0  0  0  0  0
  -31.8604  -14.5579   20.1282 O   0  0  0  0  0  0
  -21.6639   -6.8866   21.4235 O   0  0  0  0  0  0
  -22.3554  -14.5548   20.6701 O   0  0  0  0  0  0
  -24.6101  -31.8702   23.2138 C   0  0  0  0  0  0
  -25.9012  -32.4833   23.8411 C   0  0  1  0  0  0
  -27.2365  -27.4848   20.0862 C   0  0  0  0  0  0
  -25.5880  -33.8624   24.2344 N   0  0  0  0  0  0
  -23.3960  -30.4931   21.5532 C   0  0  2  0  0  0
  -24.8423  -28.9607   20.1211 C   0  0  0  0  0  0
  -22.7372  -29.4689   22.5022 C   0  0  0  0  0  0
  -18.0268  -28.1396   22.8494 C   0  0  0  0  0  0
  -24.1489  -36.7316   23.2640 C   0  0  0  0  0  0
  -25.9177  -30.8513   21.3575 C   0  0  0  0  0  0
  -25.9984  -29.4862   20.7123 C   0  0  0  0  0  0
  -27.2017  -28.7537   20.6966 C   0  0  0  0  0  0
  -26.0712  -26.9545   19.5001 C   0  0  0  0  0  0
  -24.8700  -27.6899   19.5166 C   0  0  0  0  0  0
  -23.6003  -29.8207   20.1691 C   0  0  0  0  0  0
  -25.4105  -36.3106   24.0344 C   0  0  1  0  0  0
  -20.5854  -28.3691   23.1332 C   0  0  2  0  0  0
  -20.6772  -26.9440   22.5428 C   0  0  0  0  0  0
  -19.5757  -26.6414   21.5221 C   0  0  0  0  0  0
  -18.1923  -26.7947   22.1617 C   0  0  0  0  0  0
  -19.1516  -28.8852   23.2914 C   0  0  0  0  0  0
  -18.9456  -30.1448   23.8942 C   0  0  0  0  0  0
  -17.6470  -30.6608   24.0580 C   0  0  0  0  0  0
  -25.9038  -34.9477   23.5147 C   0  0  0  0  0  0
  -16.5354  -29.9123   23.6344 C   0  0  0  0  0  0
  -16.7267  -28.6533   23.0362 C   0  0  0  0  0  0
  -26.4467  -31.6604   25.0721 C   0  0  0  0  0  0
  -25.3752  -31.3679   26.1489 C   0  0  0  0  0  0
  -27.0299  -30.3053   24.6069 C   0  0  0  0  0  0
  -27.6063  -32.4311   25.7464 C   0  0  0  0  0  0
  -27.5580  -37.1802   24.8470 C   0  0  0  0  0  0
  -21.4114  -29.3048   22.3729 N   0  0  0  0  0  0
  -26.4292  -37.3787   23.9412 N   0  0  0  0  0  0
  -24.6590  -31.0851   22.1008 N   0  0  0  0  0  0
  -23.4143  -28.8232   23.3076 O   0  0  0  0  0  0
  -28.4046  -26.7763   20.0453 O   0  0  0  0  0  0
  -26.5619  -34.8918   22.4716 O   0  0  0  0  0  0
  -23.5319  -32.1439   23.7578 O   0  0  0  0  0  0
  -28.0084  -19.9795   20.5771 C   0  0  0  0  0  0
  -29.2347  -19.5147   20.0418 C   0  0  0  0  0  0
  -28.9962  -22.0154   21.0599 C   0  0  0  0  0  0
  -30.2229  -21.5621   20.5010 C   0  0  0  0  0  0
  -26.7576  -19.1238   20.6078 C   0  0  0  0  0  0
  -32.3058  -22.1327   21.8068 C   0  0  0  0  0  0
  -32.6565  -21.7480   16.7853 C   0  0  0  0  0  0
  -31.6913  -23.9271   17.6212 C   0  0  0  0  0  0
  -29.4042  -18.1638   19.3629 C   0  0  0  0  0  0
  -28.8297  -23.3972   21.6624 C   0  0  0  0  0  0
  -30.6631  -17.4135   19.8296 C   0  0  0  0  0  0
  -28.4707  -24.4429   20.6000 C   0  0  0  0  0  0
  -32.4311  -22.1261   19.2759 C   0  0  0  0  0  0
  -30.5492  -16.7679   21.2301 C   0  0  0  0  0  0
  -28.5693  -25.8749   21.1315 C   0  0  0  0  0  0
  -31.5205  -22.3812   20.5087 C   0  0  1  0  0  0
  -31.8185  -22.4185   17.8883 C   0  0  0  0  0  0
  -27.8903  -21.2297   21.0852 N   0  0  0  0  0  0
  -30.3295  -20.3055   20.0172 N   0  0  0  0  0  0
  -30.0604  -15.3911   21.1663 N   0  0  0  0  0  0
  -31.4531  -12.3515   19.0969 H   0  0  0  0  0  0
  -30.2906  -11.2496   19.7774 H   0  0  0  0  0  0
  -29.7082  -11.7883   17.3983 H   0  0  0  0  0  0
  -29.6617  -13.4933   17.7720 H   0  0  0  0  0  0
  -27.8086  -11.3148   18.7965 H   0  0  0  0  0  0
  -27.3516  -12.6566   17.7824 H   0  0  0  0  0  0
  -27.7144  -14.2530   19.5920 H   0  0  0  0  0  0
  -28.6540  -11.9174   21.3255 H   0  0  0  0  0  0
  -28.4696  -13.5528   21.8753 H   0  0  0  0  0  0
  -25.2744   -9.5693   22.4743 H   0  0  0  0  0  0
  -24.0001   -7.4636   22.7470 H   0  0  0  0  0  0
  -21.0824   -8.8752   19.8948 H   0  0  0  0  0  0
  -22.3663  -10.9663   19.6162 H   0  0  0  0  0  0
  -21.2000   -7.6141   23.9706 H   0  0  0  0  0  0
  -21.1484   -6.0525   25.9076 H   0  0  0  0  0  0
  -22.0597   -2.7603   23.2856 H   0  0  0  0  0  0
  -22.4128  -11.9879   22.4780 H   0  0  0  0  0  0
  -21.1128  -13.1247   22.2617 H   0  0  0  0  0  0
  -24.6647  -15.8407   20.5112 H   0  0  0  0  0  0
  -26.2873  -15.6202   20.0854 H   0  0  0  0  0  0
  -26.7073  -32.5570   23.1171 H   0  0  0  0  0  0
  -24.9987  -33.9798   25.0459 H   0  0  0  0  0  0
  -22.6870  -31.3112   21.4137 H   0  0  0  0  0  0
  -23.3733  -35.9667   23.3308 H   0  0  0  0  0  0
  -24.3589  -36.8930   22.2056 H   0  0  0  0  0  0
  -23.7266  -37.6526   23.6657 H   0  0  0  0  0  0
  -26.0192  -31.6137   20.5831 H   0  0  0  0  0  0
  -26.8099  -30.9115   21.9680 H   0  0  0  0  0  0
  -28.0998  -29.1570   21.1444 H   0  0  0  0  0  0
  -26.0989  -25.9799   19.0340 H   0  0  0  0  0  0
  -23.9791  -27.2767   19.0653 H   0  0  0  0  0  0
  -23.7002  -30.5947   19.4074 H   0  0  0  0  0  0
  -22.7258  -29.2349   19.8799 H   0  0  0  0  0  0
  -25.1269  -36.1973   25.0835 H   0  0  0  0  0  0
  -20.9948  -28.3268   24.1453 H   0  0  0  0  0  0
  -20.5716  -26.2305   23.3612 H   0  0  0  0  0  0
  -21.6641  -26.7524   22.1201 H   0  0  0  0  0  0
  -19.6950  -25.6334   21.1233 H   0  0  0  0  0  0
  -19.6696  -27.3233   20.6757 H   0  0  0  0  0  0
  -17.4206  -26.6710   21.3994 H   0  0  0  0  0  0
  -18.0313  -26.0084   22.9012 H   0  0  0  0  0  0
  -19.7935  -30.7227   24.2352 H   0  0  0  0  0  0
  -17.5045  -31.6306   24.5157 H   0  0  0  0  0  0
  -15.5362  -30.3046   23.7670 H   0  0  0  0  0  0
  -15.8658  -28.0871   22.7084 H   0  0  0  0  0  0
  -24.5954  -30.6986   25.7828 H   0  0  0  0  0  0
  -24.8889  -32.2809   26.4939 H   0  0  0  0  0  0
  -25.8133  -30.8868   27.0247 H   0  0  0  0  0  0
  -26.2832  -29.6784   24.1182 H   0  0  0  0  0  0
  -27.4144  -29.7322   25.4515 H   0  0  0  0  0  0
  -27.8622  -30.4368   23.9147 H   0  0  0  0  0  0
  -27.2721  -33.3615   26.2071 H   0  0  0  0  0  0
  -28.3853  -32.6872   25.0263 H   0  0  0  0  0  0
  -28.0751  -31.8412   26.5352 H   0  0  0  0  0  0
  -28.2605  -38.0088   24.7524 H   0  0  0  0  0  0
  -28.1081  -36.2636   24.6293 H   0  0  0  0  0  0
  -27.2329  -37.1460   25.8882 H   0  0  0  0  0  0
  -20.9300  -29.8720   21.6890 H   0  0  0  0  0  0
  -26.0185  -38.2865   24.1397 H   0  0  0  0  0  0
  -26.4818  -18.8178   19.5991 H   0  0  0  0  0  0
  -25.9143  -19.6611   21.0405 H   0  0  0  0  0  0
  -26.9220  -18.2275   21.2055 H   0  0  0  0  0  0
  -31.7258  -22.4208   22.6834 H   0  0  0  0  0  0
  -33.2306  -22.7090   21.8261 H   0  0  0  0  0  0
  -32.5645  -21.0791   21.9144 H   0  0  0  0  0  0
  -32.2381  -21.9307   15.7950 H   0  0  0  0  0  0
  -32.6920  -20.6656   16.9218 H   0  0  0  0  0  0
  -33.6843  -22.1136   16.7829 H   0  0  0  0  0  0
  -31.2596  -24.1163   16.6370 H   0  0  0  0  0  0
  -32.6642  -24.4198   17.6557 H   0  0  0  0  0  0
  -31.0474  -24.4132   18.3535 H   0  0  0  0  0  0
  -29.4687  -18.3492   18.2901 H   0  0  0  0  0  0
  -28.5311  -17.5283   19.4993 H   0  0  0  0  0  0
  -29.7426  -23.6760   22.1864 H   0  0  0  0  0  0
  -28.0537  -23.3688   22.4278 H   0  0  0  0  0  0
  -31.5243  -18.0818   19.8139 H   0  0  0  0  0  0
  -30.9011  -16.6667   19.0732 H   0  0  0  0  0  0
  -27.4713  -24.2469   20.2107 H   0  0  0  0  0  0
  -29.1532  -24.3480   19.7562 H   0  0  0  0  0  0
  -32.7517  -21.0836   19.3072 H   0  0  0  0  0  0
  -33.3491  -22.7072   19.3773 H   0  0  0  0  0  0
  -29.9072  -17.3618   21.8825 H   0  0  0  0  0  0
  -31.5315  -16.7563   21.7054 H   0  0  0  0  0  0
  -29.5569  -26.0532   21.5585 H   0  0  0  0  0  0
  -27.8480  -26.0373   21.9357 H   0  0  0  0  0  0
  -31.2581  -23.4376   20.4854 H   0  0  0  0  0  0
  -30.8199  -21.9816   17.8414 H   0  0  0  0  0  0
  -29.1306  -15.1969   21.5088 H   0  0  0  0  0  0
  1 25  1  0  0  0
  1 30  2  0  0  0
  1 90  1  0  0  0
  2  3  1  0  0  0
  2 25  1  0  0  0
  2 91  1  0  0  0
  2 92  1  0  0  0
  3  4  1  0  0  0
  3 93  1  0  0  0
  3 94  1  0  0  0
  4  5  1  0  0  0
  4 95  1  0  0  0
  4 96  1  0  0  0
  5  6  1  0  0  0
  5 26  1  0  0  0
  5 97  1  0  0  0
  6 25  1  0  0  0
  6 98  1  0  0  0
  6 99  1  0  0  0
  7  8  2  0  0  0
  7 26  1  0  0  0
  7 29  1  0  0  0
  8  9  1  0  0  0
  8 22  1  0  0  0
  9 10  1  0  0  0
  9 27  2  0  0  0
 10 11  2  0  0  0
 10 15  1  0  0  0
 11 12  1  0  0  0
 11100  1  0  0  0
 12 13  2  0  0  0
 12101  1  0  0  0
 13 14  1  0  0  0
 13 31  1  0  0  0
 14 15  2  0  0  0
 14102  1  0  0  0
 15103  1  0  0  0
 16 17  2  0  0  0
 16 21  1  0  0  0
 16 31  1  0  0  0
 17 18  1  0  0  0
 17104  1  0  0  0
 18 19  2  0  0  0
 18105  1  0  0  0
 19 20  1  0  0  0
 19 24  1  0  0  0
 20 21  2  0  0  0
 20106  1  0  0  0
 21 23  1  0  0  0
 22 28  1  0  0  0
 22 32  2  0  0  0
 26 27  1  0  0  0
 28107  1  0  0  0
 28108  1  0  0  0
 29109  1  0  0  0
 29110  1  0  0  0
 33 34  1  0  0  0
 33 66  1  0  0  0
 33 70  2  0  0  0
 34 36  1  0  0  0
 34 59  1  0  0  0
 34111  1  0  0  0
 35 44  2  0  0  0
 35 45  1  0  0  0
 35 68  1  0  0  0
 36 56  1  0  0  0
 36112  1  0  0  0
 37 39  1  0  0  0
 37 47  1  0  0  0
 37 66  1  0  0  0
 37113  1  0  0  0
 38 43  2  0  0  0
 38 46  1  0  0  0
 38 47  1  0  0  0
 39 64  1  0  0  0
 39 67  2  0  0  0
 40 52  1  0  0  0
 40 53  2  0  0  0
 40 58  1  0  0  0
 41114  1  0  0  0
 41115  1  0  0  0
 41116  1  0  0  0
 41 48  1  0  0  0
 42 43  1  0  0  0
 42 66  1  0  0  0
 42117  1  0  0  0
 42118  1  0  0  0
 43 44  1  0  0  0
 44119  1  0  0  0
 45 46  2  0  0  0
 45120  1  0  0  0
 46121  1  0  0  0
 47122  1  0  0  0
 47123  1  0  0  0
 48 56  1  0  0  0
 48 65  1  0  0  0
 48124  1  0  0  0
 49 50  1  0  0  0
 49 53  1  0  0  0
 49 64  1  0  0  0
 49125  1  0  0  0
 50 51  1  0  0  0
 50126  1  0  0  0
 50127  1  0  0  0
 51 52  1  0  0  0
 51128  1  0  0  0
 51129  1  0  0  0
 52130  1  0  0  0
 52131  1  0  0  0
 53 54  1  0  0  0
 54 55  2  0  0  0
 54132  1  0  0  0
 55 57  1  0  0  0
 55133  1  0  0  0
 56 69  2  0  0  0
 57 58  2  0  0  0
 57134  1  0  0  0
 58135  1  0  0  0
 59 60  1  0  0  0
 59 61  1  0  0  0
 59 62  1  0  0  0
 60136  1  0  0  0
 60137  1  0  0  0
 60138  1  0  0  0
 61139  1  0  0  0
 61140  1  0  0  0
 61141  1  0  0  0
 62142  1  0  0  0
 62143  1  0  0  0
 62144  1  0  0  0
 63 65  1  0  0  0
 63145  1  0  0  0
 63146  1  0  0  0
 63147  1  0  0  0
 64148  1  0  0  0
 65149  1  0  0  0
 68 85  1  0  0  0
 71 72  2  0  0  0
 71 75  1  0  0  0
 71 88  1  0  0  0
 72 79  1  0  0  0
 72 89  1  0  0  0
 73 74  1  0  0  0
 73 80  1  0  0  0
 73 88  2  0  0  0
 74 86  1  0  0  0
 74 89  2  0  0  0
 75150  1  0  0  0
 75151  1  0  0  0
 75152  1  0  0  0
 76153  1  0  0  0
 76154  1  0  0  0
 76155  1  0  0  0
 76 86  1  0  0  0
 77156  1  0  0  0
 77157  1  0  0  0
 77158  1  0  0  0
 77 87  1  0  0  0
 78 87  1  0  0  0
 78159  1  0  0  0
 78160  1  0  0  0
 78161  1  0  0  0
 79 81  1  0  0  0
 79162  1  0  0  0
 79163  1  0  0  0
 80 82  1  0  0  0
 80164  1  0  0  0
 80165  1  0  0  0
 81 84  1  0  0  0
 81166  1  0  0  0
 81167  1  0  0  0
 82 85  1  0  0  0
 82168  1  0  0  0
 82169  1  0  0  0
 83 86  1  0  0  0
 83 87  1  0  0  0
 83170  1  0  0  0
 83171  1  0  0  0
 84 90  1  0  0  0
 84172  1  0  0  0
 84173  1  0  0  0
 85174  1  0  0  0
 85175  1  0  0  0
 86176  1  0  0  0
 87177  1  0  0  0
 90178  1  0  0  0
M  ISO  4   1 100  68 101  85 101  90 100
M  END
> <chiral flag>
0

> <version>
0

> <s_m_source_file>
/data/baiqing/PycharmProjects/Reinvent-master-3.2/result/LINK_invent/BTK/process_docking_weight1_custom_sum_contain_oxygen_bond_distance_aromatic_linkinvent_7_9_3/rearranged_h_0081.sdf

> <i_m_source_file_index>
53

> <r_mmod_Potential_Energy-OPLS-2005>
-49.3144187927246

> <r_mmod_Stretch_Energy-OPLS-2005>
33.3721466064453

> <r_mmod_Bend_Energy-OPLS-2005>
96.1687850952148

> <r_mmod_Torsional_Energy-OPLS-2005>
225.330093383789

> <r_mmod_Improper_Torsional_Energy-OPLS-2005>
3.97120356559753

> <r_mmod_Van_der_Waal_Energy-OPLS-2005>
155.900451660156

> <r_mmod_Electrostatic_Energy-OPLS-2005>
-362.012145996094

> <r_mmod_Solvation_Energy-OPLS-2005>
-211.079818725586

> <b_mmod_Minimization_Converged-OPLS-2005>
0

> <r_mmod_RMS_Derivative-OPLS-2005>
2.1334490776062

$$$$
53
                    3D
 Structure written by MMmdl.
160168  0  0  1  0            999 V2000
  -30.6043  -14.7077   20.4700 C   0  0  0  0  0  0
  -30.4354  -12.4315   19.4605 C   0  0  0  0  0  0
  -29.5085  -12.4957   18.2243 C   0  0  0  0  0  0
  -28.0352  -12.3275   18.6423 C   0  0  0  0  0  0
  -27.6462  -13.2200   19.8515 C   0  0  2  0  0  0
  -28.6909  -13.1273   20.9866 C   0  0  0  0  0  0
  -25.2541  -13.8130   20.5642 C   0  0  0  0  0  0
  -24.1817  -13.0406   20.9171 C   0  0  0  0  0  0
  -24.6406  -11.6881   20.8749 C   0  0  0  0  0  0
  -23.9067  -10.4284   21.0413 C   0  0  0  0  0  0
  -24.3621   -9.4200   21.9193 C   0  0  0  0  0  0
  -23.6294   -8.2232   22.0761 C   0  0  0  0  0  0
  -22.4280   -8.0271   21.3542 C   0  0  0  0  0  0
  -21.9916   -9.0244   20.4638 C   0  0  0  0  0  0
  -22.7245  -10.2120   20.3055 C   0  0  0  0  0  0
  -21.6844   -6.0736   22.5272 C   0  0  0  0  0  0
  -21.4004   -6.5638   23.8207 C   0  0  0  0  0  0
  -21.3664   -5.6792   24.9169 C   0  0  0  0  0  0
  -21.6046   -4.3057   24.7213 C   0  0  0  0  0  0
  -21.8826   -3.8146   23.4348 C   0  0  0  0  0  0
  -21.9208   -4.6958   22.3403 C   0  0  0  0  0  0
  -22.7860  -13.5212   21.1851 C   0  0  0  0  0  0
  -22.1673   -4.2148   21.0985 F   0  0  0  0  0  0
  -21.5650   -3.4543   25.7740 F   0  0  0  0  0  0
  -29.9940  -13.4791   20.4099 N   0  0  0  0  0  0
  -26.2951  -12.9324   20.3268 N   0  0  0  0  0  0
  -25.9328  -11.6466   20.5734 N   0  0  0  0  0  0
  -22.0496  -12.8210   22.0395 N   0  0  0  0  0  0
  -25.4222  -15.1826   20.3983 N   0  0  0  0  0  0
  -31.7825  -14.8397   20.1192 O   0  0  0  0  0  0
  -21.6639   -6.8858   21.4229 O   0  0  0  0  0  0
  -22.3574  -14.5546   20.6719 O   0  0  0  0  0  0
  -24.6293  -31.8560   23.1994 C   0  0  0  0  0  0
  -25.9114  -32.4750   23.8361 C   0  0  1  0  0  0
  -27.2272  -27.2967   20.1338 C   0  0  0  0  0  0
  -25.5927  -33.8551   24.2261 N   0  0  0  0  0  0
  -23.4224  -30.4784   21.5406 C   0  0  2  0  0  0
  -24.8716  -28.9246   20.1160 C   0  0  0  0  0  0
  -22.7508  -29.4602   22.4917 C   0  0  0  0  0  0
  -18.0292  -28.1375   22.8476 C   0  0  0  0  0  0
  -24.1463  -36.7272   23.2660 C   0  0  0  0  0  0
  -25.9663  -30.7880   21.3679 C   0  0  0  0  0  0
  -26.0408  -29.4110   20.7119 C   0  0  0  0  0  0
  -27.2252  -28.6133   20.6937 C   0  0  0  0  0  0
  -26.0367  -26.8558   19.5249 C   0  0  0  0  0  0
  -24.8733  -27.6552   19.5096 C   0  0  0  0  0  0
  -23.6391  -29.8069   20.1590 C   0  0  0  0  0  0
  -25.4084  -36.3052   24.0325 C   0  0  1  0  0  0
  -20.5894  -28.3682   23.1271 C   0  0  2  0  0  0
  -20.6766  -26.9397   22.5402 C   0  0  0  0  0  0
  -19.5746  -26.6357   21.5204 C   0  0  0  0  0  0
  -18.1913  -26.7923   22.1612 C   0  0  0  0  0  0
  -19.1544  -28.8843   23.2882 C   0  0  0  0  0  0
  -18.9487  -30.1439   23.8908 C   0  0  0  0  0  0
  -17.6481  -30.6576   24.0552 C   0  0  0  0  0  0
  -25.9029  -34.9433   23.5094 C   0  0  0  0  0  0
  -16.5369  -29.9073   23.6338 C   0  0  0  0  0  0
  -16.7284  -28.6500   23.0356 C   0  0  0  0  0  0
  -26.4497  -31.6612   25.0777 C   0  0  0  0  0  0
  -25.3693  -31.3743   26.1498 C   0  0  0  0  0  0
  -27.0392  -30.3060   24.6215 C   0  0  0  0  0  0
  -27.6080  -32.4365   25.7522 C   0  0  0  0  0  0
  -27.5527  -37.1760   24.8460 C   0  0  0  0  0  0
  -21.4210  -29.3049   22.3687 N   0  0  0  0  0  0
  -26.4246  -37.3737   23.9417 N   0  0  0  0  0  0
  -24.6923  -31.0577   22.0931 N   0  0  0  0  0  0
  -23.4233  -28.8127   23.2989 O   0  0  0  0  0  0
  -28.3557  -26.4619   20.1175 O   0  0  0  0  0  0
  -26.5620  -34.8903   22.4659 O   0  0  0  0  0  0
  -23.5450  -32.1363   23.7314 O   0  0  0  0  0  0
  -28.5915  -21.1003   20.3588 C   0  0  0  0  0  0
  -29.1363  -22.4411   20.2274 C   0  0  0  0  0  0
  -29.4586  -19.9512   20.5820 C   0  0  0  0  0  0
  -30.5542  -22.4799   20.3019 C   0  0  0  0  0  0
  -31.3601  -23.7278   19.9892 C   0  0  0  0  0  0
  -27.7933  -18.0701   19.9599 C   0  0  0  0  0  0
  -28.6248  -18.2791   22.3107 C   0  0  0  0  0  0
  -28.3009  -23.7503   19.8408 C   0  0  0  0  0  0
  -30.1358  -17.2912   20.5014 C   0  0  0  0  0  0
  -28.3179  -25.0986   20.7286 C   0  0  0  0  0  0
  -29.0193  -18.4260   20.8255 C   0  0  0  0  0  0
  -30.7850  -20.1718   20.7395 N   0  0  0  0  0  0
  -31.3146  -21.3887   20.5777 N   0  0  0  0  0  0
  -29.8128  -15.8128   20.7119 N   0  0  0  0  0  0
  -31.4778  -12.5553   19.1571 H   0  0  0  0  0  0
  -30.3742  -11.4474   19.9271 H   0  0  0  0  0  0
  -29.7810  -11.7155   17.5115 H   0  0  0  0  0  0
  -29.6390  -13.4430   17.7004 H   0  0  0  0  0  0
  -27.8932  -11.2775   18.9010 H   0  0  0  0  0  0
  -27.3764  -12.5194   17.7948 H   0  0  0  0  0  0
  -27.6518  -14.2458   19.4842 H   0  0  0  0  0  0
  -28.7231  -12.1196   21.4020 H   0  0  0  0  0  0
  -28.4306  -13.7914   21.8111 H   0  0  0  0  0  0
  -25.2762   -9.5696   22.4757 H   0  0  0  0  0  0
  -24.0017   -7.4636   22.7495 H   0  0  0  0  0  0
  -21.0844   -8.8730   19.8946 H   0  0  0  0  0  0
  -22.3681  -10.9650   19.6164 H   0  0  0  0  0  0
  -21.1959   -7.6142   23.9697 H   0  0  0  0  0  0
  -21.1487   -6.0528   25.9070 H   0  0  0  0  0  0
  -22.0604   -2.7601   23.2842 H   0  0  0  0  0  0
  -22.4112  -11.9883   22.4787 H   0  0  0  0  0  0
  -21.1100  -13.1224   22.2569 H   0  0  0  0  0  0
  -24.6413  -15.8248   20.4729 H   0  0  0  0  0  0
  -26.2486  -15.6052   19.9996 H   0  0  0  0  0  0
  -26.7204  -32.5390   23.1140 H   0  0  0  0  0  0
  -25.0087  -33.9721   25.0411 H   0  0  0  0  0  0
  -22.7181  -31.3018   21.3906 H   0  0  0  0  0  0
  -23.3732  -35.9613   23.3338 H   0  0  0  0  0  0
  -24.3551  -36.8871   22.2077 H   0  0  0  0  0  0
  -23.7201  -37.6459   23.6695 H   0  0  0  0  0  0
  -26.0819  -31.5515   20.5976 H   0  0  0  0  0  0
  -26.8565  -30.8466   21.9831 H   0  0  0  0  0  0
  -28.1337  -28.9963   21.1379 H   0  0  0  0  0  0
  -26.0057  -25.8809   19.0621 H   0  0  0  0  0  0
  -23.9760  -27.2821   19.0420 H   0  0  0  0  0  0
  -23.7543  -30.5879   19.4066 H   0  0  0  0  0  0
  -22.7624  -29.2350   19.8495 H   0  0  0  0  0  0
  -25.1221  -36.1919   25.0805 H   0  0  0  0  0  0
  -20.9959  -28.3257   24.1402 H   0  0  0  0  0  0
  -20.5635  -26.2271   23.3587 H   0  0  0  0  0  0
  -21.6623  -26.7382   22.1186 H   0  0  0  0  0  0
  -19.6905  -25.6265   21.1228 H   0  0  0  0  0  0
  -19.6714  -27.3198   20.6761 H   0  0  0  0  0  0
  -17.4165  -26.6727   21.4023 H   0  0  0  0  0  0
  -18.0316  -26.0044   22.8988 H   0  0  0  0  0  0
  -19.7978  -30.7237   24.2275 H   0  0  0  0  0  0
  -17.5054  -31.6273   24.5145 H   0  0  0  0  0  0
  -15.5382  -30.2972   23.7651 H   0  0  0  0  0  0
  -15.8683  -28.0803   22.7072 H   0  0  0  0  0  0
  -24.5917  -30.7023   25.7810 H   0  0  0  0  0  0
  -24.8830  -32.2901   26.4891 H   0  0  0  0  0  0
  -25.7998  -30.8964   27.0304 H   0  0  0  0  0  0
  -26.3000  -29.6780   24.1233 H   0  0  0  0  0  0
  -27.4142  -29.7332   25.4703 H   0  0  0  0  0  0
  -27.8796  -30.4409   23.9397 H   0  0  0  0  0  0
  -27.2747  -33.3711   26.2041 H   0  0  0  0  0  0
  -28.3907  -32.6840   25.0337 H   0  0  0  0  0  0
  -28.0725  -31.8512   26.5472 H   0  0  0  0  0  0
  -28.2504  -38.0082   24.7493 H   0  0  0  0  0  0
  -28.1041  -36.2601   24.6277 H   0  0  0  0  0  0
  -27.2250  -37.1358   25.8863 H   0  0  0  0  0  0
  -20.9380  -29.8800   21.6916 H   0  0  0  0  0  0
  -26.0135  -38.2782   24.1527 H   0  0  0  0  0  0
  -27.5237  -20.9549   20.2704 H   0  0  0  0  0  0
  -31.0102  -24.1848   19.0646 H   0  0  0  0  0  0
  -32.4137  -23.4799   19.8491 H   0  0  0  0  0  0
  -31.2992  -24.4577   20.7958 H   0  0  0  0  0  0
  -26.9345  -18.7087   20.1632 H   0  0  0  0  0  0
  -27.4621  -17.0493   20.1442 H   0  0  0  0  0  0
  -28.0321  -18.1416   18.8983 H   0  0  0  0  0  0
  -27.8022  -18.9436   22.5833 H   0  0  0  0  0  0
  -29.4665  -18.5210   22.9605 H   0  0  0  0  0  0
  -28.3082  -17.2644   22.5532 H   0  0  0  0  0  0
  -27.2584  -23.4463   19.7418 H   0  0  0  0  0  0
  -28.5978  -24.0247   18.8289 H   0  0  0  0  0  0
  -31.0249  -17.5110   21.0913 H   0  0  0  0  0  0
  -30.4443  -17.4108   19.4631 H   0  0  0  0  0  0
  -29.1996  -25.0673   21.3672 H   0  0  0  0  0  0
  -27.4958  -25.0512   21.4459 H   0  0  0  0  0  0
  -28.8661  -15.6056   20.9914 H   0  0  0  0  0  0
  1 25  1  0  0  0
  1 30  2  0  0  0
  1 84  1  0  0  0
  2  3  1  0  0  0
  2 25  1  0  0  0
  2 85  1  0  0  0
  2 86  1  0  0  0
  3  4  1  0  0  0
  3 87  1  0  0  0
  3 88  1  0  0  0
  4  5  1  0  0  0
  4 89  1  0  0  0
  4 90  1  0  0  0
  5  6  1  0  0  0
  5 26  1  0  0  0
  5 91  1  0  0  0
  6 25  1  0  0  0
  6 92  1  0  0  0
  6 93  1  0  0  0
  7  8  2  0  0  0
  7 26  1  0  0  0
  7 29  1  0  0  0
  8  9  1  0  0  0
  8 22  1  0  0  0
  9 10  1  0  0  0
  9 27  2  0  0  0
 10 11  2  0  0  0
 10 15  1  0  0  0
 11 12  1  0  0  0
 11 94  1  0  0  0
 12 13  2  0  0  0
 12 95  1  0  0  0
 13 14  1  0  0  0
 13 31  1  0  0  0
 14 15  2  0  0  0
 14 96  1  0  0  0
 15 97  1  0  0  0
 16 17  2  0  0  0
 16 21  1  0  0  0
 16 31  1  0  0  0
 17 18  1  0  0  0
 17 98  1  0  0  0
 18 19  2  0  0  0
 18 99  1  0  0  0
 19 20  1  0  0  0
 19 24  1  0  0  0
 20 21  2  0  0  0
 20100  1  0  0  0
 21 23  1  0  0  0
 22 28  1  0  0  0
 22 32  2  0  0  0
 26 27  1  0  0  0
 28101  1  0  0  0
 28102  1  0  0  0
 29103  1  0  0  0
 29104  1  0  0  0
 33 34  1  0  0  0
 33 66  1  0  0  0
 33 70  2  0  0  0
 34 36  1  0  0  0
 34 59  1  0  0  0
 34105  1  0  0  0
 35 44  2  0  0  0
 35 45  1  0  0  0
 35 68  1  0  0  0
 36 56  1  0  0  0
 36106  1  0  0  0
 37 39  1  0  0  0
 37 47  1  0  0  0
 37 66  1  0  0  0
 37107  1  0  0  0
 38 43  2  0  0  0
 38 46  1  0  0  0
 38 47  1  0  0  0
 39 64  1  0  0  0
 39 67  2  0  0  0
 40 52  1  0  0  0
 40 53  2  0  0  0
 40 58  1  0  0  0
 41108  1  0  0  0
 41109  1  0  0  0
 41110  1  0  0  0
 41 48  1  0  0  0
 42 43  1  0  0  0
 42 66  1  0  0  0
 42111  1  0  0  0
 42112  1  0  0  0
 43 44  1  0  0  0
 44113  1  0  0  0
 45 46  2  0  0  0
 45114  1  0  0  0
 46115  1  0  0  0
 47116  1  0  0  0
 47117  1  0  0  0
 48 56  1  0  0  0
 48 65  1  0  0  0
 48118  1  0  0  0
 49 50  1  0  0  0
 49 53  1  0  0  0
 49 64  1  0  0  0
 49119  1  0  0  0
 50 51  1  0  0  0
 50120  1  0  0  0
 50121  1  0  0  0
 51 52  1  0  0  0
 51122  1  0  0  0
 51123  1  0  0  0
 52124  1  0  0  0
 52125  1  0  0  0
 53 54  1  0  0  0
 54 55  2  0  0  0
 54126  1  0  0  0
 55 57  1  0  0  0
 55127  1  0  0  0
 56 69  2  0  0  0
 57 58  2  0  0  0
 57128  1  0  0  0
 58129  1  0  0  0
 59 60  1  0  0  0
 59 61  1  0  0  0
 59 62  1  0  0  0
 60130  1  0  0  0
 60131  1  0  0  0
 60132  1  0  0  0
 61133  1  0  0  0
 61134  1  0  0  0
 61135  1  0  0  0
 62136  1  0  0  0
 62137  1  0  0  0
 62138  1  0  0  0
 63 65  1  0  0  0
 63139  1  0  0  0
 63140  1  0  0  0
 63141  1  0  0  0
 64142  1  0  0  0
 65143  1  0  0  0
 68 80  1  0  0  0
 71 72  2  0  0  0
 71 73  1  0  0  0
 71144  1  0  0  0
 72 74  1  0  0  0
 72 78  1  0  0  0
 73 81  1  0  0  0
 73 82  2  0  0  0
 74 75  1  0  0  0
 74 83  2  0  0  0
 75145  1  0  0  0
 75146  1  0  0  0
 75147  1  0  0  0
 76148  1  0  0  0
 76149  1  0  0  0
 76150  1  0  0  0
 76 81  1  0  0  0
 77 81  1  0  0  0
 77151  1  0  0  0
 77152  1  0  0  0
 77153  1  0  0  0
 78 80  1  0  0  0
 78154  1  0  0  0
 78155  1  0  0  0
 79 81  1  0  0  0
 79 84  1  0  0  0
 79156  1  0  0  0
 79157  1  0  0  0
 80158  1  0  0  0
 80159  1  0  0  0
 82 83  1  0  0  0
 84160  1  0  0  0
M  ISO  4   1 100  68 101  80 101  84 100
M  END
> <chiral flag>
0

> <version>
0

> <s_m_source_file>
/data/baiqing/PycharmProjects/Reinvent-master-3.2/result/LINK_invent/BTK/process_docking_weight1_custom_sum_contain_oxygen_bond_distance_aromatic_linkinvent_7_9_3/rearranged_h_0081.sdf

> <i_m_source_file_index>
54

> <r_mmod_Potential_Energy-OPLS-2005>
97.8655776977539

> <r_mmod_Stretch_Energy-OPLS-2005>
118.147819519043

> <r_mmod_Bend_Energy-OPLS-2005>
165.713790893555

> <r_mmod_Torsional_Energy-OPLS-2005>
239.796859741211

> <r_mmod_Improper_Torsional_Energy-OPLS-2005>
6.67287826538086

> <r_mmod_Van_der_Waal_Energy-OPLS-2005>
131.981506347656

> <r_mmod_Electrostatic_Energy-OPLS-2005>
-396.907836914062

> <r_mmod_Solvation_Energy-OPLS-2005>
-231.696716308594

> <b_mmod_Minimization_Converged-OPLS-2005>
0

> <r_mmod_RMS_Derivative-OPLS-2005>
4.87546491622925

$$$$
54
                    3D
 Structure written by MMmdl.
160168  0  0  1  0            999 V2000
  -30.6189  -14.7364   20.4170 C   0  0  0  0  0  0
  -30.4228  -12.4334   19.4758 C   0  0  0  0  0  0
  -29.4971  -12.4683   18.2415 C   0  0  0  0  0  0
  -28.0262  -12.2980   18.6603 C   0  0  0  0  0  0
  -27.6331  -13.2230   19.8420 C   0  0  2  0  0  0
  -28.6810  -13.1822   20.9752 C   0  0  0  0  0  0
  -25.2468  -13.8199   20.5693 C   0  0  0  0  0  0
  -24.1752  -13.0451   20.9211 C   0  0  0  0  0  0
  -24.6349  -11.6916   20.8747 C   0  0  0  0  0  0
  -23.9026  -10.4288   21.0402 C   0  0  0  0  0  0
  -24.3584   -9.4210   21.9183 C   0  0  0  0  0  0
  -23.6276   -8.2226   22.0752 C   0  0  0  0  0  0
  -22.4266   -8.0260   21.3534 C   0  0  0  0  0  0
  -21.9898   -9.0215   20.4622 C   0  0  0  0  0  0
  -22.7204  -10.2113   20.3033 C   0  0  0  0  0  0
  -21.6850   -6.0724   22.5285 C   0  0  0  0  0  0
  -21.4003   -6.5641   23.8211 C   0  0  0  0  0  0
  -21.3650   -5.6797   24.9173 C   0  0  0  0  0  0
  -21.6051   -4.3059   24.7230 C   0  0  0  0  0  0
  -21.8815   -3.8144   23.4350 C   0  0  0  0  0  0
  -21.9190   -4.6956   22.3405 C   0  0  0  0  0  0
  -22.7774  -13.5214   21.1895 C   0  0  0  0  0  0
  -22.1659   -4.2133   21.0985 F   0  0  0  0  0  0
  -21.5630   -3.4555   25.7747 F   0  0  0  0  0  0
  -29.9808  -13.5170   20.3831 N   0  0  0  0  0  0
  -26.2882  -12.9384   20.3267 N   0  0  0  0  0  0
  -25.9265  -11.6544   20.5768 N   0  0  0  0  0  0
  -22.0445  -12.8135   22.0436 N   0  0  0  0  0  0
  -25.4187  -15.1920   20.4117 N   0  0  0  0  0  0
  -31.8163  -14.8085   20.1328 O   0  0  0  0  0  0
  -21.6643   -6.8858   21.4237 O   0  0  0  0  0  0
  -22.3435  -14.5526   20.6792 O   0  0  0  0  0  0
  -24.6282  -31.8555   23.1892 C   0  0  0  0  0  0
  -25.9109  -32.4762   23.8254 C   0  0  1  0  0  0
  -27.2423  -27.2833   20.1087 C   0  0  0  0  0  0
  -25.5929  -33.8545   24.2249 N   0  0  0  0  0  0
  -23.4239  -30.4747   21.5311 C   0  0  2  0  0  0
  -24.8772  -28.9193   20.1037 C   0  0  0  0  0  0
  -22.7478  -29.4629   22.4879 C   0  0  0  0  0  0
  -18.0284  -28.1389   22.8500 C   0  0  0  0  0  0
  -24.1456  -36.7218   23.2645 C   0  0  0  0  0  0
  -25.9629  -30.7807   21.3505 C   0  0  0  0  0  0
  -26.0439  -29.3949   20.7137 C   0  0  0  0  0  0
  -27.2225  -28.5850   20.7177 C   0  0  0  0  0  0
  -26.0527  -26.8707   19.4765 C   0  0  0  0  0  0
  -24.8866  -27.6632   19.4762 C   0  0  0  0  0  0
  -23.6384  -29.7940   20.1515 C   0  0  0  0  0  0
  -25.4069  -36.3033   24.0354 C   0  0  1  0  0  0
  -20.5896  -28.3690   23.1267 C   0  0  2  0  0  0
  -20.6773  -26.9421   22.5354 C   0  0  0  0  0  0
  -19.5733  -26.6410   21.5169 C   0  0  0  0  0  0
  -18.1917  -26.7936   22.1618 C   0  0  0  0  0  0
  -19.1549  -28.8853   23.2897 C   0  0  0  0  0  0
  -18.9483  -30.1458   23.8920 C   0  0  0  0  0  0
  -17.6494  -30.6607   24.0591 C   0  0  0  0  0  0
  -25.9050  -34.9446   23.5109 C   0  0  0  0  0  0
  -16.5386  -29.9109   23.6356 C   0  0  0  0  0  0
  -16.7276  -28.6526   23.0366 C   0  0  0  0  0  0
  -26.4528  -31.6541   25.0593 C   0  0  0  0  0  0
  -25.3762  -31.3565   26.1296 C   0  0  0  0  0  0
  -27.0438  -30.3050   24.5887 C   0  0  0  0  0  0
  -27.6120  -32.4236   25.7362 C   0  0  0  0  0  0
  -27.5547  -37.1725   24.8502 C   0  0  0  0  0  0
  -21.4188  -29.3078   22.3667 N   0  0  0  0  0  0
  -26.4221  -37.3760   23.9501 N   0  0  0  0  0  0
  -24.6923  -31.0551   22.0822 N   0  0  0  0  0  0
  -23.4194  -28.8172   23.2975 O   0  0  0  0  0  0
  -28.3427  -26.4041   20.2090 O   0  0  0  0  0  0
  -26.5624  -34.8968   22.4672 O   0  0  0  0  0  0
  -23.5446  -32.1334   23.7221 O   0  0  0  0  0  0
  -29.3491  -22.7799   20.1837 C   0  0  0  0  0  0
  -28.5193  -23.7319   19.4517 C   0  0  0  0  0  0
  -29.1146  -21.4447   19.8199 C   0  0  0  0  0  0
  -27.7247  -22.8966   18.6940 C   0  0  0  0  0  0
  -26.7060  -23.2808   17.6541 C   0  0  0  0  0  0
  -26.2734  -19.8501   18.6330 C   0  0  0  0  0  0
  -28.6226  -25.3236   19.2201 C   0  0  0  0  0  0
  -29.9305  -20.1067   20.1054 C   0  0  0  0  0  0
  -29.3325  -18.6199   20.4048 C   0  0  0  0  0  0
  -27.5790  -20.4364   18.0713 C   0  0  0  0  0  0
  -30.3364  -17.3391   20.2964 C   0  0  0  0  0  0
  -28.0979  -21.5488   18.8688 N   0  0  0  0  0  0
  -29.8658  -15.8975   20.5283 N   0  0  0  0  0  0
  -31.4635  -12.5450   19.1693 H   0  0  0  0  0  0
  -30.3652  -11.4676   19.9807 H   0  0  0  0  0  0
  -29.7750  -11.6821   17.5388 H   0  0  0  0  0  0
  -29.6181  -13.4143   17.7137 H   0  0  0  0  0  0
  -27.8880  -11.2544   18.9502 H   0  0  0  0  0  0
  -27.3633  -12.4608   17.8101 H   0  0  0  0  0  0
  -27.6218  -14.2337   19.4362 H   0  0  0  0  0  0
  -28.7084  -12.1952   21.4384 H   0  0  0  0  0  0
  -28.4192  -13.8849   21.7682 H   0  0  0  0  0  0
  -25.2722   -9.5714   22.4753 H   0  0  0  0  0  0
  -24.0007   -7.4623   22.7466 H   0  0  0  0  0  0
  -21.0842   -8.8690   19.8898 H   0  0  0  0  0  0
  -22.3653  -10.9631   19.6116 H   0  0  0  0  0  0
  -21.1985   -7.6150   23.9702 H   0  0  0  0  0  0
  -21.1478   -6.0539   25.9075 H   0  0  0  0  0  0
  -22.0599   -2.7606   23.2865 H   0  0  0  0  0  0
  -22.4114  -11.9772   22.4724 H   0  0  0  0  0  0
  -21.1043  -13.1090   22.2688 H   0  0  0  0  0  0
  -24.6550  -15.8507   20.5262 H   0  0  0  0  0  0
  -26.2739  -15.6320   20.0962 H   0  0  0  0  0  0
  -26.7160  -32.5461   23.0984 H   0  0  0  0  0  0
  -25.0162  -33.9674   25.0461 H   0  0  0  0  0  0
  -22.7211  -31.2970   21.3730 H   0  0  0  0  0  0
  -23.3785  -35.9492   23.3242 H   0  0  0  0  0  0
  -24.3562  -36.8845   22.2074 H   0  0  0  0  0  0
  -23.7116  -37.6361   23.6693 H   0  0  0  0  0  0
  -26.0572  -31.5212   20.5535 H   0  0  0  0  0  0
  -26.8602  -30.8691   21.9509 H   0  0  0  0  0  0
  -28.1131  -28.9464   21.2092 H   0  0  0  0  0  0
  -25.9982  -25.9003   19.0162 H   0  0  0  0  0  0
  -23.9918  -27.2883   19.0001 H   0  0  0  0  0  0
  -23.7448  -30.5573   19.3804 H   0  0  0  0  0  0
  -22.7635  -29.2081   19.8651 H   0  0  0  0  0  0
  -25.1204  -36.1850   25.0833 H   0  0  0  0  0  0
  -21.0016  -28.3233   24.1380 H   0  0  0  0  0  0
  -20.5658  -26.2301   23.3527 H   0  0  0  0  0  0
  -21.6624  -26.7435   22.1136 H   0  0  0  0  0  0
  -19.6903  -25.6329   21.1165 H   0  0  0  0  0  0
  -19.6659  -27.3274   20.6744 H   0  0  0  0  0  0
  -17.4155  -26.6704   21.4047 H   0  0  0  0  0  0
  -18.0361  -26.0053   22.9007 H   0  0  0  0  0  0
  -19.7982  -30.7273   24.2276 H   0  0  0  0  0  0
  -17.5072  -31.6311   24.5165 H   0  0  0  0  0  0
  -15.5396  -30.3063   23.7683 H   0  0  0  0  0  0
  -15.8647  -28.0878   22.7089 H   0  0  0  0  0  0
  -24.6085  -30.6757   25.7572 H   0  0  0  0  0  0
  -24.8792  -32.2665   26.4680 H   0  0  0  0  0  0
  -25.8101  -30.8795   27.0095 H   0  0  0  0  0  0
  -26.2998  -29.6697   24.1072 H   0  0  0  0  0  0
  -27.4515  -29.7329   25.4231 H   0  0  0  0  0  0
  -27.8644  -30.4509   23.8856 H   0  0  0  0  0  0
  -27.2852  -33.3664   26.1769 H   0  0  0  0  0  0
  -28.4039  -32.6513   25.0208 H   0  0  0  0  0  0
  -28.0657  -31.8392   26.5372 H   0  0  0  0  0  0
  -28.2496  -38.0101   24.7666 H   0  0  0  0  0  0
  -28.1093  -36.2623   24.6162 H   0  0  0  0  0  0
  -27.2288  -37.1134   25.8909 H   0  0  0  0  0  0
  -20.9344  -29.8847   21.6919 H   0  0  0  0  0  0
  -26.0070  -38.2791   24.1632 H   0  0  0  0  0  0
  -30.1611  -23.0681   20.8368 H   0  0  0  0  0  0
  -25.9967  -24.0100   18.0371 H   0  0  0  0  0  0
  -26.0996  -22.4475   17.3100 H   0  0  0  0  0  0
  -27.1935  -23.7076   16.7777 H   0  0  0  0  0  0
  -25.9911  -18.9582   18.0715 H   0  0  0  0  0  0
  -25.4413  -20.5533   18.5638 H   0  0  0  0  0  0
  -26.3835  -19.5646   19.6773 H   0  0  0  0  0  0
  -28.1063  -25.5587   18.2922 H   0  0  0  0  0  0
  -29.6693  -25.4912   18.9604 H   0  0  0  0  0  0
  -30.6064  -20.3266   20.9334 H   0  0  0  0  0  0
  -30.6021  -19.9880   19.2551 H   0  0  0  0  0  0
  -28.5013  -18.4189   19.7362 H   0  0  0  0  0  0
  -28.8954  -18.6390   21.4037 H   0  0  0  0  0  0
  -27.4294  -20.7689   17.0436 H   0  0  0  0  0  0
  -28.3463  -19.6703   17.9806 H   0  0  0  0  0  0
  -31.1681  -17.5121   20.9787 H   0  0  0  0  0  0
  -30.7840  -17.3616   19.3002 H   0  0  0  0  0  0
  -28.8788  -15.7611   20.6883 H   0  0  0  0  0  0
  1 25  1  0  0  0
  1 30  2  0  0  0
  1 83  1  0  0  0
  2  3  1  0  0  0
  2 25  1  0  0  0
  2 84  1  0  0  0
  2 85  1  0  0  0
  3  4  1  0  0  0
  3 86  1  0  0  0
  3 87  1  0  0  0
  4  5  1  0  0  0
  4 88  1  0  0  0
  4 89  1  0  0  0
  5  6  1  0  0  0
  5 26  1  0  0  0
  5 90  1  0  0  0
  6 25  1  0  0  0
  6 91  1  0  0  0
  6 92  1  0  0  0
  7  8  2  0  0  0
  7 26  1  0  0  0
  7 29  1  0  0  0
  8  9  1  0  0  0
  8 22  1  0  0  0
  9 10  1  0  0  0
  9 27  2  0  0  0
 10 11  2  0  0  0
 10 15  1  0  0  0
 11 12  1  0  0  0
 11 93  1  0  0  0
 12 13  2  0  0  0
 12 94  1  0  0  0
 13 14  1  0  0  0
 13 31  1  0  0  0
 14 15  2  0  0  0
 14 95  1  0  0  0
 15 96  1  0  0  0
 16 17  2  0  0  0
 16 21  1  0  0  0
 16 31  1  0  0  0
 17 18  1  0  0  0
 17 97  1  0  0  0
 18 19  2  0  0  0
 18 98  1  0  0  0
 19 20  1  0  0  0
 19 24  1  0  0  0
 20 21  2  0  0  0
 20 99  1  0  0  0
 21 23  1  0  0  0
 22 28  1  0  0  0
 22 32  2  0  0  0
 26 27  1  0  0  0
 28100  1  0  0  0
 28101  1  0  0  0
 29102  1  0  0  0
 29103  1  0  0  0
 33 34  1  0  0  0
 33 66  1  0  0  0
 33 70  2  0  0  0
 34 36  1  0  0  0
 34 59  1  0  0  0
 34104  1  0  0  0
 35 44  2  0  0  0
 35 45  1  0  0  0
 35 68  1  0  0  0
 36 56  1  0  0  0
 36105  1  0  0  0
 37 39  1  0  0  0
 37 47  1  0  0  0
 37 66  1  0  0  0
 37106  1  0  0  0
 38 43  2  0  0  0
 38 46  1  0  0  0
 38 47  1  0  0  0
 39 64  1  0  0  0
 39 67  2  0  0  0
 40 52  1  0  0  0
 40 53  2  0  0  0
 40 58  1  0  0  0
 41107  1  0  0  0
 41108  1  0  0  0
 41109  1  0  0  0
 41 48  1  0  0  0
 42 43  1  0  0  0
 42 66  1  0  0  0
 42110  1  0  0  0
 42111  1  0  0  0
 43 44  1  0  0  0
 44112  1  0  0  0
 45 46  2  0  0  0
 45113  1  0  0  0
 46114  1  0  0  0
 47115  1  0  0  0
 47116  1  0  0  0
 48 56  1  0  0  0
 48 65  1  0  0  0
 48117  1  0  0  0
 49 50  1  0  0  0
 49 53  1  0  0  0
 49 64  1  0  0  0
 49118  1  0  0  0
 50 51  1  0  0  0
 50119  1  0  0  0
 50120  1  0  0  0
 51 52  1  0  0  0
 51121  1  0  0  0
 51122  1  0  0  0
 52123  1  0  0  0
 52124  1  0  0  0
 53 54  1  0  0  0
 54 55  2  0  0  0
 54125  1  0  0  0
 55 57  1  0  0  0
 55126  1  0  0  0
 56 69  2  0  0  0
 57 58  2  0  0  0
 57127  1  0  0  0
 58128  1  0  0  0
 59 60  1  0  0  0
 59 61  1  0  0  0
 59 62  1  0  0  0
 60129  1  0  0  0
 60130  1  0  0  0
 60131  1  0  0  0
 61132  1  0  0  0
 61133  1  0  0  0
 61134  1  0  0  0
 62135  1  0  0  0
 62136  1  0  0  0
 62137  1  0  0  0
 63 65  1  0  0  0
 63138  1  0  0  0
 63139  1  0  0  0
 63140  1  0  0  0
 64141  1  0  0  0
 65142  1  0  0  0
 68 77  1  0  0  0
 71 72  1  0  0  0
 71 73  2  0  0  0
 71143  1  0  0  0
 72 74  2  0  0  0
 72 77  1  0  0  0
 73 78  1  0  0  0
 73 82  1  0  0  0
 74 75  1  0  0  0
 74 82  1  0  0  0
 75144  1  0  0  0
 75145  1  0  0  0
 75146  1  0  0  0
 76 80  1  0  0  0
 76147  1  0  0  0
 76148  1  0  0  0
 76149  1  0  0  0
 77150  1  0  0  0
 77151  1  0  0  0
 78 79  1  0  0  0
 78152  1  0  0  0
 78153  1  0  0  0
 79 81  1  0  0  0
 79154  1  0  0  0
 79155  1  0  0  0
 80 82  1  0  0  0
 80156  1  0  0  0
 80157  1  0  0  0
 81 83  1  0  0  0
 81158  1  0  0  0
 81159  1  0  0  0
 83160  1  0  0  0
M  ISO  4   1 100  68 101  77 101  83 100
M  END
> <chiral flag>
0

> <version>
0

> <s_m_source_file>
/data/baiqing/PycharmProjects/Reinvent-master-3.2/result/LINK_invent/BTK/process_docking_weight1_custom_sum_contain_oxygen_bond_distance_aromatic_linkinvent_7_9_3/rearranged_h_0081.sdf

> <i_m_source_file_index>
55

> <r_mmod_Potential_Energy-OPLS-2005>
191.743576049805

> <r_mmod_Stretch_Energy-OPLS-2005>
126.658248901367

> <r_mmod_Bend_Energy-OPLS-2005>
199.371154785156

> <r_mmod_Torsional_Energy-OPLS-2005>
242.934646606445

> <r_mmod_Improper_Torsional_Energy-OPLS-2005>
10.5390882492065

> <r_mmod_Van_der_Waal_Energy-OPLS-2005>
118.411819458008

> <r_mmod_Electrostatic_Energy-OPLS-2005>
-369.1328125

> <r_mmod_Solvation_Energy-OPLS-2005>
-219.125381469727

> <b_mmod_Minimization_Converged-OPLS-2005>
0

> <r_mmod_RMS_Derivative-OPLS-2005>
4.16527318954468

$$$$
55
                    3D
 Structure written by MMmdl.
160168  0  0  1  0            999 V2000
  -30.6787  -14.5381   20.5366 C   0  0  0  0  0  0
  -30.4264  -12.3390   19.4368 C   0  0  0  0  0  0
  -29.4985  -12.5005   18.2144 C   0  0  0  0  0  0
  -28.0210  -12.3531   18.6279 C   0  0  0  0  0  0
  -27.6563  -13.2123   19.8680 C   0  0  2  0  0  0
  -28.6995  -13.0369   20.9948 C   0  0  0  0  0  0
  -25.2565  -13.8172   20.5683 C   0  0  0  0  0  0
  -24.1824  -13.0442   20.9181 C   0  0  0  0  0  0
  -24.6386  -11.6910   20.8741 C   0  0  0  0  0  0
  -23.9058  -10.4292   21.0408 C   0  0  0  0  0  0
  -24.3612   -9.4208   21.9187 C   0  0  0  0  0  0
  -23.6286   -8.2243   22.0756 C   0  0  0  0  0  0
  -22.4270   -8.0281   21.3544 C   0  0  0  0  0  0
  -21.9902   -9.0257   20.4650 C   0  0  0  0  0  0
  -22.7230  -10.2136   20.3058 C   0  0  0  0  0  0
  -21.6854   -6.0734   22.5276 C   0  0  0  0  0  0
  -21.4015   -6.5637   23.8212 C   0  0  0  0  0  0
  -21.3661   -5.6790   24.9174 C   0  0  0  0  0  0
  -21.6044   -4.3052   24.7223 C   0  0  0  0  0  0
  -21.8820   -3.8144   23.4345 C   0  0  0  0  0  0
  -21.9193   -4.6960   22.3402 C   0  0  0  0  0  0
  -22.7847  -13.5240   21.1842 C   0  0  0  0  0  0
  -22.1663   -4.2147   21.0981 F   0  0  0  0  0  0
  -21.5629   -3.4537   25.7736 F   0  0  0  0  0  0
  -30.0237  -13.3463   20.4334 N   0  0  0  0  0  0
  -26.2998  -12.9349   20.3340 N   0  0  0  0  0  0
  -25.9313  -11.6506   20.5760 N   0  0  0  0  0  0
  -22.0487  -12.8237   22.0401 N   0  0  0  0  0  0
  -25.4285  -15.1891   20.4091 N   0  0  0  0  0  0
  -31.8288  -14.6986   20.1203 O   0  0  0  0  0  0
  -21.6636   -6.8874   21.4238 O   0  0  0  0  0  0
  -22.3536  -14.5548   20.6691 O   0  0  0  0  0  0
  -24.6201  -31.8649   23.2078 C   0  0  0  0  0  0
  -25.9076  -32.4807   23.8383 C   0  0  1  0  0  0
  -27.2244  -27.3808   20.1043 C   0  0  0  0  0  0
  -25.5913  -33.8607   24.2311 N   0  0  0  0  0  0
  -23.4098  -30.4905   21.5494 C   0  0  2  0  0  0
  -24.8545  -28.9553   20.1110 C   0  0  0  0  0  0
  -22.7439  -29.4651   22.4964 C   0  0  0  0  0  0
  -18.0278  -28.1380   22.8491 C   0  0  0  0  0  0
  -24.1487  -36.7309   23.2637 C   0  0  0  0  0  0
  -25.9452  -30.8154   21.3687 C   0  0  0  0  0  0
  -26.0201  -29.4481   20.7107 C   0  0  0  0  0  0
  -27.2086  -28.6710   20.6997 C   0  0  0  0  0  0
  -26.0374  -26.9264   19.4825 C   0  0  0  0  0  0
  -24.8615  -27.6969   19.4905 C   0  0  0  0  0  0
  -23.6200  -29.8279   20.1628 C   0  0  0  0  0  0
  -25.4109  -36.3103   24.0334 C   0  0  1  0  0  0
  -20.5874  -28.3677   23.1302 C   0  0  2  0  0  0
  -20.6768  -26.9408   22.5413 C   0  0  0  0  0  0
  -19.5745  -26.6386   21.5212 C   0  0  0  0  0  0
  -18.1925  -26.7925   22.1626 C   0  0  0  0  0  0
  -19.1529  -28.8844   23.2894 C   0  0  0  0  0  0
  -18.9455  -30.1448   23.8909 C   0  0  0  0  0  0
  -17.6458  -30.6586   24.0566 C   0  0  0  0  0  0
  -25.9041  -34.9470   23.5121 C   0  0  0  0  0  0
  -16.5348  -29.9088   23.6327 C   0  0  0  0  0  0
  -16.7267  -28.6503   23.0350 C   0  0  0  0  0  0
  -26.4483  -31.6598   25.0728 C   0  0  0  0  0  0
  -25.3737  -31.3717   26.1469 C   0  0  0  0  0  0
  -27.0317  -30.3033   24.6136 C   0  0  0  0  0  0
  -27.6052  -32.4323   25.7492 C   0  0  0  0  0  0
  -27.5581  -37.1808   24.8464 C   0  0  0  0  0  0
  -21.4159  -29.3041   22.3704 N   0  0  0  0  0  0
  -26.4292  -37.3791   23.9410 N   0  0  0  0  0  0
  -24.6771  -31.0715   22.0999 N   0  0  0  0  0  0
  -23.4190  -28.8184   23.3016 O   0  0  0  0  0  0
  -28.3635  -26.5810   20.1521 O   0  0  0  0  0  0
  -26.5605  -34.8926   22.4684 O   0  0  0  0  0  0
  -23.5381  -32.1420   23.7443 O   0  0  0  0  0  0
  -29.6235  -22.1461   18.4908 C   0  0  0  0  0  0
  -29.9464  -21.0055   17.8021 C   0  0  0  0  0  0
  -29.5803  -20.4502   19.9390 C   0  0  0  0  0  0
  -30.2837  -20.7851   16.3631 C   0  0  0  0  0  0
  -29.4812  -19.5665   21.1735 C   0  0  0  0  0  0
  -29.1592  -18.0375   20.9667 C   0  0  0  0  0  0
  -29.3276  -24.2781   20.6682 C   0  0  0  0  0  0
  -29.0483  -22.7414   20.9004 C   0  0  0  0  0  0
  -30.3540  -17.0249   20.9393 C   0  0  0  0  0  0
  -28.1610  -25.1379   20.0900 C   0  0  0  0  0  0
  -29.4223  -21.7989   19.8056 N   0  0  0  0  0  0
  -29.9099  -19.9933   18.7246 N   0  3  0  0  0  0
  -29.9384  -15.5975   20.9464 N   0  0  0  0  0  0
  -31.4700  -12.4443   19.1349 H   0  0  0  0  0  0
  -30.3386  -11.3365   19.8585 H   0  0  0  0  0  0
  -29.7472  -11.7624   17.4510 H   0  0  0  0  0  0
  -29.6570  -13.4785   17.7576 H   0  0  0  0  0  0
  -27.8439  -11.2990   18.8443 H   0  0  0  0  0  0
  -27.3684  -12.6037   17.7908 H   0  0  0  0  0  0
  -27.6866  -14.2526   19.5443 H   0  0  0  0  0  0
  -28.6871  -12.0132   21.3721 H   0  0  0  0  0  0
  -28.4585  -13.6704   21.8499 H   0  0  0  0  0  0
  -25.2762   -9.5683   22.4754 H   0  0  0  0  0  0
  -23.9999   -7.4635   22.7474 H   0  0  0  0  0  0
  -21.0834   -8.8777   19.8956 H   0  0  0  0  0  0
  -22.3693  -10.9675   19.6163 H   0  0  0  0  0  0
  -21.2009   -7.6144   23.9714 H   0  0  0  0  0  0
  -21.1482   -6.0520   25.9078 H   0  0  0  0  0  0
  -22.0597   -2.7603   23.2845 H   0  0  0  0  0  0
  -22.4100  -11.9905   22.4801 H   0  0  0  0  0  0
  -21.1109  -13.1273   22.2609 H   0  0  0  0  0  0
  -24.6603  -15.8433   20.5137 H   0  0  0  0  0  0
  -26.2766  -15.6266   20.0727 H   0  0  0  0  0  0
  -26.7146  -32.5499   23.1139 H   0  0  0  0  0  0
  -25.0065  -33.9762   25.0458 H   0  0  0  0  0  0
  -22.7009  -31.3095   21.4111 H   0  0  0  0  0  0
  -23.3746  -35.9645   23.3307 H   0  0  0  0  0  0
  -24.3581  -36.8918   22.2050 H   0  0  0  0  0  0
  -23.7243  -37.6517   23.6649 H   0  0  0  0  0  0
  -26.0666  -31.5816   20.6018 H   0  0  0  0  0  0
  -26.8298  -30.8646   21.9919 H   0  0  0  0  0  0
  -28.1045  -29.0447   21.1756 H   0  0  0  0  0  0
  -25.9939  -25.9667   18.9891 H   0  0  0  0  0  0
  -23.9671  -27.3145   19.0174 H   0  0  0  0  0  0
  -23.7331  -30.6057   19.4067 H   0  0  0  0  0  0
  -22.7415  -29.2534   19.8632 H   0  0  0  0  0  0
  -25.1285  -36.1965   25.0827 H   0  0  0  0  0  0
  -20.9967  -28.3246   24.1422 H   0  0  0  0  0  0
  -20.5671  -26.2285   23.3605 H   0  0  0  0  0  0
  -21.6638  -26.7445   22.1207 H   0  0  0  0  0  0
  -19.6907  -25.6298   21.1237 H   0  0  0  0  0  0
  -19.6683  -27.3200   20.6745 H   0  0  0  0  0  0
  -17.4193  -26.6672   21.4029 H   0  0  0  0  0  0
  -18.0329  -26.0065   22.9021 H   0  0  0  0  0  0
  -19.7932  -30.7260   24.2284 H   0  0  0  0  0  0
  -17.5014  -31.6268   24.5164 H   0  0  0  0  0  0
  -15.5350  -30.2995   23.7643 H   0  0  0  0  0  0
  -15.8665  -28.0828   22.7060 H   0  0  0  0  0  0
  -24.5910  -30.7065   25.7805 H   0  0  0  0  0  0
  -24.8927  -32.2877   26.4912 H   0  0  0  0  0  0
  -25.8080  -30.8889   27.0232 H   0  0  0  0  0  0
  -26.2872  -29.6795   24.1175 H   0  0  0  0  0  0
  -27.4056  -29.7274   25.4612 H   0  0  0  0  0  0
  -27.8724  -30.4340   23.9317 H   0  0  0  0  0  0
  -27.2668  -33.3613   26.2093 H   0  0  0  0  0  0
  -28.3849  -32.6902   25.0312 H   0  0  0  0  0  0
  -28.0738  -31.8436   26.5389 H   0  0  0  0  0  0
  -28.2601  -38.0104   24.7516 H   0  0  0  0  0  0
  -28.1075  -36.2637   24.6282 H   0  0  0  0  0  0
  -27.2302  -37.1450   25.8868 H   0  0  0  0  0  0
  -20.9321  -29.8775   21.6936 H   0  0  0  0  0  0
  -26.0180  -38.2869   24.1412 H   0  0  0  0  0  0
  -29.5362  -23.1637   18.1362 H   0  0  0  0  0  0
  -30.9112  -21.5965   15.9942 H   0  0  0  0  0  0
  -29.3750  -20.7509   15.7627 H   0  0  0  0  0  0
  -30.8242  -19.8482   16.2273 H   0  0  0  0  0  0
  -28.6852  -20.0112   21.7712 H   0  0  0  0  0  0
  -30.4044  -19.7020   21.7372 H   0  0  0  0  0  0
  -28.5121  -17.9019   20.0992 H   0  0  0  0  0  0
  -28.5424  -17.7456   21.8183 H   0  0  0  0  0  0
  -30.2349  -24.4209   20.0809 H   0  0  0  0  0  0
  -29.5599  -24.7032   21.6450 H   0  0  0  0  0  0
  -27.9981  -22.5724   21.1408 H   0  0  0  0  0  0
  -29.6136  -22.4235   21.7770 H   0  0  0  0  0  0
  -30.9935  -17.1913   21.8075 H   0  0  0  0  0  0
  -30.9761  -17.2209   20.0645 H   0  0  0  0  0  0
  -27.2655  -24.8807   20.6593 H   0  0  0  0  0  0
  -27.9760  -24.8443   19.0564 H   0  0  0  0  0  0
  -30.1011  -19.0198   18.5194 H   0  0  0  0  0  0
  -28.9989  -15.3892   21.2512 H   0  0  0  0  0  0
  1 25  1  0  0  0
  1 30  2  0  0  0
  1 83  1  0  0  0
  2  3  1  0  0  0
  2 25  1  0  0  0
  2 84  1  0  0  0
  2 85  1  0  0  0
  3  4  1  0  0  0
  3 86  1  0  0  0
  3 87  1  0  0  0
  4  5  1  0  0  0
  4 88  1  0  0  0
  4 89  1  0  0  0
  5  6  1  0  0  0
  5 26  1  0  0  0
  5 90  1  0  0  0
  6 25  1  0  0  0
  6 91  1  0  0  0
  6 92  1  0  0  0
  7  8  2  0  0  0
  7 26  1  0  0  0
  7 29  1  0  0  0
  8  9  1  0  0  0
  8 22  1  0  0  0
  9 10  1  0  0  0
  9 27  2  0  0  0
 10 11  2  0  0  0
 10 15  1  0  0  0
 11 12  1  0  0  0
 11 93  1  0  0  0
 12 13  2  0  0  0
 12 94  1  0  0  0
 13 14  1  0  0  0
 13 31  1  0  0  0
 14 15  2  0  0  0
 14 95  1  0  0  0
 15 96  1  0  0  0
 16 17  2  0  0  0
 16 21  1  0  0  0
 16 31  1  0  0  0
 17 18  1  0  0  0
 17 97  1  0  0  0
 18 19  2  0  0  0
 18 98  1  0  0  0
 19 20  1  0  0  0
 19 24  1  0  0  0
 20 21  2  0  0  0
 20 99  1  0  0  0
 21 23  1  0  0  0
 22 28  1  0  0  0
 22 32  2  0  0  0
 26 27  1  0  0  0
 28100  1  0  0  0
 28101  1  0  0  0
 29102  1  0  0  0
 29103  1  0  0  0
 33 34  1  0  0  0
 33 66  1  0  0  0
 33 70  2  0  0  0
 34 36  1  0  0  0
 34 59  1  0  0  0
 34104  1  0  0  0
 35 44  2  0  0  0
 35 45  1  0  0  0
 35 68  1  0  0  0
 36 56  1  0  0  0
 36105  1  0  0  0
 37 39  1  0  0  0
 37 47  1  0  0  0
 37 66  1  0  0  0
 37106  1  0  0  0
 38 43  2  0  0  0
 38 46  1  0  0  0
 38 47  1  0  0  0
 39 64  1  0  0  0
 39 67  2  0  0  0
 40 52  1  0  0  0
 40 53  2  0  0  0
 40 58  1  0  0  0
 41107  1  0  0  0
 41108  1  0  0  0
 41109  1  0  0  0
 41 48  1  0  0  0
 42 43  1  0  0  0
 42 66  1  0  0  0
 42110  1  0  0  0
 42111  1  0  0  0
 43 44  1  0  0  0
 44112  1  0  0  0
 45 46  2  0  0  0
 45113  1  0  0  0
 46114  1  0  0  0
 47115  1  0  0  0
 47116  1  0  0  0
 48 56  1  0  0  0
 48 65  1  0  0  0
 48117  1  0  0  0
 49 50  1  0  0  0
 49 53  1  0  0  0
 49 64  1  0  0  0
 49118  1  0  0  0
 50 51  1  0  0  0
 50119  1  0  0  0
 50120  1  0  0  0
 51 52  1  0  0  0
 51121  1  0  0  0
 51122  1  0  0  0
 52123  1  0  0  0
 52124  1  0  0  0
 53 54  1  0  0  0
 54 55  2  0  0  0
 54125  1  0  0  0
 55 57  1  0  0  0
 55126  1  0  0  0
 56 69  2  0  0  0
 57 58  2  0  0  0
 57127  1  0  0  0
 58128  1  0  0  0
 59 60  1  0  0  0
 59 61  1  0  0  0
 59 62  1  0  0  0
 60129  1  0  0  0
 60130  1  0  0  0
 60131  1  0  0  0
 61132  1  0  0  0
 61133  1  0  0  0
 61134  1  0  0  0
 62135  1  0  0  0
 62136  1  0  0  0
 62137  1  0  0  0
 63 65  1  0  0  0
 63138  1  0  0  0
 63139  1  0  0  0
 63140  1  0  0  0
 64141  1  0  0  0
 65142  1  0  0  0
 68 80  1  0  0  0
 71 72  2  0  0  0
 71 81  1  0  0  0
 71143  1  0  0  0
 72 74  1  0  0  0
 72 82  1  0  0  0
 73 75  1  0  0  0
 73 81  1  0  0  0
 73 82  2  0  0  0
 74144  1  0  0  0
 74145  1  0  0  0
 74146  1  0  0  0
 75 76  1  0  0  0
 75147  1  0  0  0
 75148  1  0  0  0
 76 79  1  0  0  0
 76149  1  0  0  0
 76150  1  0  0  0
 77 78  1  0  0  0
 77 80  1  0  0  0
 77151  1  0  0  0
 77152  1  0  0  0
 78 81  1  0  0  0
 78153  1  0  0  0
 78154  1  0  0  0
 79 83  1  0  0  0
 79155  1  0  0  0
 79156  1  0  0  0
 80157  1  0  0  0
 80158  1  0  0  0
 82159  1  0  0  0
 83160  1  0  0  0
M  CHG  1  82   1
M  ISO  4   1 100  68 101  80 101  83 100
M  END
> <chiral flag>
0

> <version>
0

> <s_m_source_file>
/data/baiqing/PycharmProjects/Reinvent-master-3.2/result/LINK_invent/BTK/process_docking_weight1_custom_sum_contain_oxygen_bond_distance_aromatic_linkinvent_7_9_3/rearranged_h_0081.sdf

> <i_m_source_file_index>
56

> <r_mmod_Potential_Energy-OPLS-2005>
-86.9475402832031

> <r_mmod_Stretch_Energy-OPLS-2005>
51.130542755127

> <r_mmod_Bend_Energy-OPLS-2005>
109.683364868164

> <r_mmod_Torsional_Energy-OPLS-2005>
229.039642333984

> <r_mmod_Improper_Torsional_Energy-OPLS-2005>
4.19502210617065

> <r_mmod_Van_der_Waal_Energy-OPLS-2005>
124.521812438965

> <r_mmod_Electrostatic_Energy-OPLS-2005>
-208.630416870117

> <r_mmod_Solvation_Energy-OPLS-2005>
-421.845184326172

> <b_mmod_Minimization_Converged-OPLS-2005>
0

> <r_mmod_RMS_Derivative-OPLS-2005>
0.693353176116943

$$$$
56
                    3D
 Structure written by MMmdl.
164172  0  0  1  0            999 V2000
  -30.6866  -14.5450   20.4568 C   0  0  0  0  0  0
  -30.4062  -12.3212   19.4438 C   0  0  0  0  0  0
  -29.4879  -12.4692   18.2134 C   0  0  0  0  0  0
  -28.0113  -12.3181   18.6285 C   0  0  0  0  0  0
  -27.6389  -13.1980   19.8543 C   0  0  2  0  0  0
  -28.6873  -13.0826   20.9843 C   0  0  0  0  0  0
  -25.2460  -13.8032   20.5754 C   0  0  0  0  0  0
  -24.1734  -13.0342   20.9210 C   0  0  0  0  0  0
  -24.6323  -11.6828   20.8721 C   0  0  0  0  0  0
  -23.9022  -10.4237   21.0383 C   0  0  0  0  0  0
  -24.3604   -9.4183   21.9166 C   0  0  0  0  0  0
  -23.6264   -8.2246   22.0776 C   0  0  0  0  0  0
  -22.4245   -8.0286   21.3571 C   0  0  0  0  0  0
  -21.9867   -9.0248   20.4672 C   0  0  0  0  0  0
  -22.7204  -10.2100   20.3031 C   0  0  0  0  0  0
  -21.6863   -6.0727   22.5273 C   0  0  0  0  0  0
  -21.4040   -6.5647   23.8203 C   0  0  0  0  0  0
  -21.3632   -5.6807   24.9164 C   0  0  0  0  0  0
  -21.6029   -4.3069   24.7224 C   0  0  0  0  0  0
  -21.8825   -3.8143   23.4353 C   0  0  0  0  0  0
  -21.9209   -4.6955   22.3401 C   0  0  0  0  0  0
  -22.7785  -13.5155   21.1928 C   0  0  0  0  0  0
  -22.1656   -4.2139   21.0980 F   0  0  0  0  0  0
  -21.5610   -3.4558   25.7732 F   0  0  0  0  0  0
  -30.0037  -13.3669   20.4000 N   0  0  0  0  0  0
  -26.2894  -12.9228   20.3342 N   0  0  0  0  0  0
  -25.9257  -11.6410   20.5801 N   0  0  0  0  0  0
  -22.0439  -12.8137   22.0472 N   0  0  0  0  0  0
  -25.4142  -15.1733   20.4335 N   0  0  0  0  0  0
  -31.8948  -14.5965   20.2237 O   0  0  0  0  0  0
  -21.6638   -6.8870   21.4243 O   0  0  0  0  0  0
  -22.3492  -14.5502   20.6827 O   0  0  0  0  0  0
  -24.6154  -31.8650   23.2082 C   0  0  0  0  0  0
  -25.9046  -32.4796   23.8382 C   0  0  1  0  0  0
  -27.2511  -27.4167   20.1108 C   0  0  0  0  0  0
  -25.5887  -33.8585   24.2314 N   0  0  0  0  0  0
  -23.4076  -30.4851   21.5480 C   0  0  2  0  0  0
  -24.8629  -28.9449   20.1209 C   0  0  0  0  0  0
  -22.7429  -29.4648   22.4989 C   0  0  0  0  0  0
  -18.0302  -28.1352   22.8473 C   0  0  0  0  0  0
  -24.1496  -36.7305   23.2640 C   0  0  0  0  0  0
  -25.9386  -30.8279   21.3649 C   0  0  0  0  0  0
  -26.0230  -29.4584   20.7146 C   0  0  0  0  0  0
  -27.2223  -28.7025   20.7078 C   0  0  0  0  0  0
  -26.0755  -26.9231   19.5095 C   0  0  0  0  0  0
  -24.8825  -27.6743   19.5170 C   0  0  0  0  0  0
  -23.6229  -29.8108   20.1656 C   0  0  0  0  0  0
  -25.4110  -36.3084   24.0340 C   0  0  1  0  0  0
  -20.5881  -28.3645   23.1296 C   0  0  2  0  0  0
  -20.6798  -26.9414   22.5327 C   0  0  0  0  0  0
  -19.5761  -26.6362   21.5171 C   0  0  0  0  0  0
  -18.1927  -26.7925   22.1544 C   0  0  0  0  0  0
  -19.1549  -28.8804   23.2911 C   0  0  0  0  0  0
  -18.9486  -30.1381   23.8975 C   0  0  0  0  0  0
  -17.6497  -30.6548   24.0595 C   0  0  0  0  0  0
  -25.9028  -34.9451   23.5128 C   0  0  0  0  0  0
  -16.5393  -29.9052   23.6340 C   0  0  0  0  0  0
  -16.7288  -28.6470   23.0355 C   0  0  0  0  0  0
  -26.4473  -31.6573   25.0718 C   0  0  0  0  0  0
  -25.3714  -31.3698   26.1449 C   0  0  0  0  0  0
  -27.0347  -30.3024   24.6119 C   0  0  0  0  0  0
  -27.6053  -32.4295   25.7474 C   0  0  0  0  0  0
  -27.5577  -37.1801   24.8462 C   0  0  0  0  0  0
  -21.4149  -29.3069   22.3758 N   0  0  0  0  0  0
  -26.4289  -37.3772   23.9408 N   0  0  0  0  0  0
  -24.6715  -31.0742   22.0992 N   0  0  0  0  0  0
  -23.4183  -28.8189   23.3041 O   0  0  0  0  0  0
  -28.3965  -26.6417   20.0904 O   0  0  0  0  0  0
  -26.5597  -34.8899   22.4697 O   0  0  0  0  0  0
  -23.5338  -32.1394   23.7465 O   0  0  0  0  0  0
  -27.4760  -19.5163   19.6987 C   0  0  0  0  0  0
  -28.0319  -20.6573   20.2863 C   0  0  0  0  0  0
  -28.2164  -18.3171   19.6423 C   0  0  0  0  0  0
  -29.3147  -20.5746   20.8384 C   0  0  0  0  0  0
  -29.4774  -18.2645   20.2984 C   0  0  0  0  0  0
  -27.5668  -17.5685   17.3002 C   0  0  0  0  0  0
  -31.1796  -17.1770   18.8441 C   0  0  0  0  0  0
  -27.6275  -17.2050   18.7886 C   0  0  0  0  0  0
  -30.0323  -21.8319   21.3684 C   0  0  0  0  0  0
  -29.1915  -23.1305   21.6510 C   0  0  0  0  0  0
  -29.0768  -24.2212   20.5343 C   0  0  0  0  0  0
  -28.4054  -25.5434   21.0304 C   0  0  0  0  0  0
  -30.4641  -17.0650   20.2097 C   0  0  2  0  0  0
  -29.9965  -19.3922   20.8678 N   0  0  0  0  0  0
  -29.9499  -15.6863   20.4859 N   0  0  0  0  0  0
  -31.4540  -12.4027   19.1496 H   0  0  0  0  0  0
  -30.2973  -11.3301   19.8878 H   0  0  0  0  0  0
  -29.7410  -11.7221   17.4587 H   0  0  0  0  0  0
  -29.6445  -13.4465   17.7514 H   0  0  0  0  0  0
  -27.8434  -11.2644   18.8599 H   0  0  0  0  0  0
  -27.3592  -12.5504   17.7847 H   0  0  0  0  0  0
  -27.6395  -14.2219   19.4973 H   0  0  0  0  0  0
  -28.6758  -12.0805   21.4163 H   0  0  0  0  0  0
  -28.4600  -13.7673   21.8016 H   0  0  0  0  0  0
  -25.2782   -9.5679   22.4693 H   0  0  0  0  0  0
  -23.9988   -7.4665   22.7518 H   0  0  0  0  0  0
  -21.0788   -8.8766   19.8997 H   0  0  0  0  0  0
  -22.3698  -10.9627   19.6103 H   0  0  0  0  0  0
  -21.2055   -7.6167   23.9688 H   0  0  0  0  0  0
  -21.1425   -6.0551   25.9059 H   0  0  0  0  0  0
  -22.0625   -2.7610   23.2863 H   0  0  0  0  0  0
  -22.4028  -11.9774   22.4850 H   0  0  0  0  0  0
  -21.1071  -13.1194   22.2673 H   0  0  0  0  0  0
  -24.6490  -15.8234   20.5741 H   0  0  0  0  0  0
  -26.2807  -15.6216   20.1811 H   0  0  0  0  0  0
  -26.7129  -32.5528   23.1150 H   0  0  0  0  0  0
  -25.0032  -33.9760   25.0451 H   0  0  0  0  0  0
  -22.6960  -31.3012   21.3997 H   0  0  0  0  0  0
  -23.3740  -35.9662   23.3312 H   0  0  0  0  0  0
  -24.3581  -36.8907   22.2052 H   0  0  0  0  0  0
  -23.7272  -37.6521   23.6647 H   0  0  0  0  0  0
  -26.0512  -31.5956   20.5979 H   0  0  0  0  0  0
  -26.8238  -30.8859   21.9867 H   0  0  0  0  0  0
  -28.1183  -29.0943   21.1671 H   0  0  0  0  0  0
  -26.0826  -25.9488   19.0412 H   0  0  0  0  0  0
  -23.9886  -27.2692   19.0635 H   0  0  0  0  0  0
  -23.7385  -30.5795   19.4019 H   0  0  0  0  0  0
  -22.7502  -29.2300   19.8650 H   0  0  0  0  0  0
  -25.1286  -36.1949   25.0833 H   0  0  0  0  0  0
  -20.9982  -28.3122   24.1413 H   0  0  0  0  0  0
  -20.5852  -26.2277   23.3518 H   0  0  0  0  0  0
  -21.6633  -26.7483   22.1022 H   0  0  0  0  0  0
  -19.6918  -25.6240   21.1270 H   0  0  0  0  0  0
  -19.6733  -27.3120   20.6662 H   0  0  0  0  0  0
  -17.4251  -26.6726   21.3870 H   0  0  0  0  0  0
  -18.0234  -25.9995   22.8844 H   0  0  0  0  0  0
  -19.7967  -30.7130   24.2446 H   0  0  0  0  0  0
  -17.5048  -31.6242   24.5206 H   0  0  0  0  0  0
  -15.5385  -30.2956   23.7649 H   0  0  0  0  0  0
  -15.8684  -28.0784   22.7088 H   0  0  0  0  0  0
  -24.5852  -30.7101   25.7744 H   0  0  0  0  0  0
  -24.8950  -32.2882   26.4896 H   0  0  0  0  0  0
  -25.8015  -30.8819   27.0204 H   0  0  0  0  0  0
  -26.2937  -29.6746   24.1156 H   0  0  0  0  0  0
  -27.4119  -29.7281   25.4590 H   0  0  0  0  0  0
  -27.8752  -30.4362   23.9306 H   0  0  0  0  0  0
  -27.2672  -33.3564   26.2118 H   0  0  0  0  0  0
  -28.3817  -32.6898   25.0265 H   0  0  0  0  0  0
  -28.0781  -31.8378   26.5324 H   0  0  0  0  0  0
  -28.2590  -38.0099   24.7481 H   0  0  0  0  0  0
  -28.1074  -36.2620   24.6314 H   0  0  0  0  0  0
  -27.2289  -37.1480   25.8863 H   0  0  0  0  0  0
  -20.9298  -29.8795   21.6986 H   0  0  0  0  0  0
  -26.0175  -38.2853   24.1388 H   0  0  0  0  0  0
  -26.5092  -19.5926   19.2230 H   0  0  0  0  0  0
  -27.4868  -21.5891   20.2580 H   0  0  0  0  0  0
  -27.0486  -16.7852   16.7411 H   0  0  0  0  0  0
  -28.5627  -17.6829   16.8668 H   0  0  0  0  0  0
  -27.0141  -18.4917   17.1350 H   0  0  0  0  0  0
  -30.4973  -16.9559   18.0249 H   0  0  0  0  0  0
  -32.0410  -16.5204   18.7502 H   0  0  0  0  0  0
  -31.5642  -18.1880   18.6941 H   0  0  0  0  0  0
  -28.1438  -16.2594   18.8992 H   0  0  0  0  0  0
  -26.6097  -17.0488   19.1337 H   0  0  0  0  0  0
  -30.8612  -22.0677   20.7007 H   0  0  0  0  0  0
  -30.5008  -21.5344   22.3094 H   0  0  0  0  0  0
  -29.6941  -23.6314   22.4806 H   0  0  0  0  0  0
  -28.2111  -22.8693   22.0513 H   0  0  0  0  0  0
  -28.5129  -23.8272   19.6885 H   0  0  0  0  0  0
  -30.0736  -24.4499   20.1567 H   0  0  0  0  0  0
  -28.9445  -25.8975   21.9094 H   0  0  0  0  0  0
  -27.3945  -25.3137   21.3696 H   0  0  0  0  0  0
  -31.2160  -17.2376   20.9831 H   0  0  0  0  0  0
  -28.9553  -15.5981   20.6098 H   0  0  0  0  0  0
  1 25  1  0  0  0
  1 30  2  0  0  0
  1 85  1  0  0  0
  2  3  1  0  0  0
  2 25  1  0  0  0
  2 86  1  0  0  0
  2 87  1  0  0  0
  3  4  1  0  0  0
  3 88  1  0  0  0
  3 89  1  0  0  0
  4  5  1  0  0  0
  4 90  1  0  0  0
  4 91  1  0  0  0
  5  6  1  0  0  0
  5 26  1  0  0  0
  5 92  1  0  0  0
  6 25  1  0  0  0
  6 93  1  0  0  0
  6 94  1  0  0  0
  7  8  2  0  0  0
  7 26  1  0  0  0
  7 29  1  0  0  0
  8  9  1  0  0  0
  8 22  1  0  0  0
  9 10  1  0  0  0
  9 27  2  0  0  0
 10 11  2  0  0  0
 10 15  1  0  0  0
 11 12  1  0  0  0
 11 95  1  0  0  0
 12 13  2  0  0  0
 12 96  1  0  0  0
 13 14  1  0  0  0
 13 31  1  0  0  0
 14 15  2  0  0  0
 14 97  1  0  0  0
 15 98  1  0  0  0
 16 17  2  0  0  0
 16 21  1  0  0  0
 16 31  1  0  0  0
 17 18  1  0  0  0
 17 99  1  0  0  0
 18 19  2  0  0  0
 18100  1  0  0  0
 19 20  1  0  0  0
 19 24  1  0  0  0
 20 21  2  0  0  0
 20101  1  0  0  0
 21 23  1  0  0  0
 22 28  1  0  0  0
 22 32  2  0  0  0
 26 27  1  0  0  0
 28102  1  0  0  0
 28103  1  0  0  0
 29104  1  0  0  0
 29105  1  0  0  0
 33 34  1  0  0  0
 33 66  1  0  0  0
 33 70  2  0  0  0
 34 36  1  0  0  0
 34 59  1  0  0  0
 34106  1  0  0  0
 35 44  2  0  0  0
 35 45  1  0  0  0
 35 68  1  0  0  0
 36 56  1  0  0  0
 36107  1  0  0  0
 37 39  1  0  0  0
 37 47  1  0  0  0
 37 66  1  0  0  0
 37108  1  0  0  0
 38 43  2  0  0  0
 38 46  1  0  0  0
 38 47  1  0  0  0
 39 64  1  0  0  0
 39 67  2  0  0  0
 40 52  1  0  0  0
 40 53  2  0  0  0
 40 58  1  0  0  0
 41109  1  0  0  0
 41110  1  0  0  0
 41111  1  0  0  0
 41 48  1  0  0  0
 42 43  1  0  0  0
 42 66  1  0  0  0
 42112  1  0  0  0
 42113  1  0  0  0
 43 44  1  0  0  0
 44114  1  0  0  0
 45 46  2  0  0  0
 45115  1  0  0  0
 46116  1  0  0  0
 47117  1  0  0  0
 47118  1  0  0  0
 48 56  1  0  0  0
 48 65  1  0  0  0
 48119  1  0  0  0
 49 50  1  0  0  0
 49 53  1  0  0  0
 49 64  1  0  0  0
 49120  1  0  0  0
 50 51  1  0  0  0
 50121  1  0  0  0
 50122  1  0  0  0
 51 52  1  0  0  0
 51123  1  0  0  0
 51124  1  0  0  0
 52125  1  0  0  0
 52126  1  0  0  0
 53 54  1  0  0  0
 54 55  2  0  0  0
 54127  1  0  0  0
 55 57  1  0  0  0
 55128  1  0  0  0
 56 69  2  0  0  0
 57 58  2  0  0  0
 57129  1  0  0  0
 58130  1  0  0  0
 59 60  1  0  0  0
 59 61  1  0  0  0
 59 62  1  0  0  0
 60131  1  0  0  0
 60132  1  0  0  0
 60133  1  0  0  0
 61134  1  0  0  0
 61135  1  0  0  0
 61136  1  0  0  0
 62137  1  0  0  0
 62138  1  0  0  0
 62139  1  0  0  0
 63 65  1  0  0  0
 63140  1  0  0  0
 63141  1  0  0  0
 63142  1  0  0  0
 64143  1  0  0  0
 65144  1  0  0  0
 68 82  1  0  0  0
 71 72  2  0  0  0
 71 73  1  0  0  0
 71145  1  0  0  0
 72 74  1  0  0  0
 72146  1  0  0  0
 73 75  2  0  0  0
 73 78  1  0  0  0
 74 79  1  0  0  0
 74 84  2  0  0  0
 75 83  1  0  0  0
 75 84  1  0  0  0
 76 78  1  0  0  0
 76147  1  0  0  0
 76148  1  0  0  0
 76149  1  0  0  0
 77150  1  0  0  0
 77151  1  0  0  0
 77152  1  0  0  0
 77 83  1  0  0  0
 78153  1  0  0  0
 78154  1  0  0  0
 79 80  1  0  0  0
 79155  1  0  0  0
 79156  1  0  0  0
 80 81  1  0  0  0
 80157  1  0  0  0
 80158  1  0  0  0
 81 82  1  0  0  0
 81159  1  0  0  0
 81160  1  0  0  0
 82161  1  0  0  0
 82162  1  0  0  0
 83 85  1  0  0  0
 83163  1  0  0  0
 85164  1  0  0  0
M  ISO  4   1 100  68 101  82 101  85 100
M  END
> <chiral flag>
0

> <version>
0

> <s_m_source_file>
/data/baiqing/PycharmProjects/Reinvent-master-3.2/result/LINK_invent/BTK/process_docking_weight1_custom_sum_contain_oxygen_bond_distance_aromatic_linkinvent_7_9_3/rearranged_h_0081.sdf

> <i_m_source_file_index>
57

> <r_mmod_Potential_Energy-OPLS-2005>
-228.741577148438

> <r_mmod_Stretch_Energy-OPLS-2005>
50.0604972839355

> <r_mmod_Bend_Energy-OPLS-2005>
121.840950012207

> <r_mmod_Torsional_Energy-OPLS-2005>
235.276290893555

> <r_mmod_Improper_Torsional_Energy-OPLS-2005>
8.31308937072754

> <r_mmod_Van_der_Waal_Energy-OPLS-2005>
146.8798828125

> <r_mmod_Electrostatic_Energy-OPLS-2005>
-611.950256347656

> <r_mmod_Solvation_Energy-OPLS-2005>
-208.493667602539

> <b_mmod_Minimization_Converged-OPLS-2005>
0

> <r_mmod_RMS_Derivative-OPLS-2005>
4.17940425872803

$$$$
57
                    3D
 Structure written by MMmdl.
172180  0  0  1  0            999 V2000
  -30.6143  -14.7185   20.4872 C   0  0  0  0  0  0
  -30.4405  -12.4451   19.4633 C   0  0  0  0  0  0
  -29.5113  -12.5085   18.2304 C   0  0  0  0  0  0
  -28.0375  -12.3301   18.6466 C   0  0  0  0  0  0
  -27.6467  -13.2234   19.8538 C   0  0  2  0  0  0
  -28.6935  -13.1340   20.9868 C   0  0  0  0  0  0
  -25.2535  -13.8180   20.5683 C   0  0  0  0  0  0
  -24.1813  -13.0440   20.9202 C   0  0  0  0  0  0
  -24.6390  -11.6914   20.8745 C   0  0  0  0  0  0
  -23.9061  -10.4293   21.0402 C   0  0  0  0  0  0
  -24.3614   -9.4209   21.9177 C   0  0  0  0  0  0
  -23.6293   -8.2244   22.0749 C   0  0  0  0  0  0
  -22.4277   -8.0274   21.3539 C   0  0  0  0  0  0
  -21.9907   -9.0250   20.4646 C   0  0  0  0  0  0
  -22.7232  -10.2133   20.3052 C   0  0  0  0  0  0
  -21.6853   -6.0730   22.5276 C   0  0  0  0  0  0
  -21.4018   -6.5638   23.8210 C   0  0  0  0  0  0
  -21.3660   -5.6788   24.9172 C   0  0  0  0  0  0
  -21.6042   -4.3051   24.7219 C   0  0  0  0  0  0
  -21.8820   -3.8142   23.4342 C   0  0  0  0  0  0
  -21.9195   -4.6957   22.3401 C   0  0  0  0  0  0
  -22.7835  -13.5231   21.1859 C   0  0  0  0  0  0
  -22.1660   -4.2144   21.0975 F   0  0  0  0  0  0
  -21.5630   -3.4535   25.7734 F   0  0  0  0  0  0
  -29.9976  -13.4918   20.4098 N   0  0  0  0  0  0
  -26.2960  -12.9370   20.3285 N   0  0  0  0  0  0
  -25.9319  -11.6524   20.5754 N   0  0  0  0  0  0
  -22.0475  -12.8231   22.0418 N   0  0  0  0  0  0
  -25.4239  -15.1898   20.4072 N   0  0  0  0  0  0
  -31.7906  -14.8476   20.1428 O   0  0  0  0  0  0
  -21.6640   -6.8871   21.4236 O   0  0  0  0  0  0
  -22.3531  -14.5535   20.6694 O   0  0  0  0  0  0
  -24.6326  -31.8549   23.2006 C   0  0  0  0  0  0
  -25.9152  -32.4750   23.8344 C   0  0  1  0  0  0
  -27.2183  -27.2553   20.1147 C   0  0  0  0  0  0
  -25.5950  -33.8552   24.2266 N   0  0  0  0  0  0
  -23.4292  -30.4799   21.5436 C   0  0  2  0  0  0
  -24.8751  -28.9316   20.1076 C   0  0  0  0  0  0
  -22.7507  -29.4601   22.4901 C   0  0  0  0  0  0
  -18.0294  -28.1388   22.8483 C   0  0  0  0  0  0
  -24.1484  -36.7265   23.2642 C   0  0  0  0  0  0
  -25.9776  -30.7623   21.3865 C   0  0  0  0  0  0
  -26.0468  -29.3869   20.7237 C   0  0  0  0  0  0
  -27.2167  -28.5579   20.7241 C   0  0  0  0  0  0
  -26.0235  -26.8857   19.4511 C   0  0  0  0  0  0
  -24.8686  -27.6882   19.4628 C   0  0  0  0  0  0
  -23.6482  -29.8202   20.1576 C   0  0  0  0  0  0
  -25.4113  -36.3060   24.0330 C   0  0  1  0  0  0
  -20.5898  -28.3701   23.1254 C   0  0  2  0  0  0
  -20.6779  -26.9417   22.5398 C   0  0  0  0  0  0
  -19.5753  -26.6383   21.5206 C   0  0  0  0  0  0
  -18.1936  -26.7931   22.1623 C   0  0  0  0  0  0
  -19.1548  -28.8862   23.2862 C   0  0  0  0  0  0
  -18.9471  -30.1461   23.8885 C   0  0  0  0  0  0
  -17.6472  -30.6591   24.0559 C   0  0  0  0  0  0
  -25.9055  -34.9436   23.5093 C   0  0  0  0  0  0
  -16.5359  -29.9090   23.6332 C   0  0  0  0  0  0
  -16.7280  -28.6503   23.0360 C   0  0  0  0  0  0
  -26.4529  -31.6585   25.0740 C   0  0  0  0  0  0
  -25.3756  -31.3735   26.1461 C   0  0  0  0  0  0
  -27.0397  -30.3001   24.6252 C   0  0  0  0  0  0
  -27.6069  -32.4354   25.7504 C   0  0  0  0  0  0
  -27.5572  -37.1789   24.8471 C   0  0  0  0  0  0
  -21.4213  -29.3045   22.3640 N   0  0  0  0  0  0
  -26.4286  -37.3763   23.9415 N   0  0  0  0  0  0
  -24.6984  -31.0506   22.0990 N   0  0  0  0  0  0
  -23.4195  -28.8130   23.3003 O   0  0  0  0  0  0
  -28.3151  -26.3553   20.2013 O   0  0  0  0  0  0
  -26.5614  -34.8908   22.4655 O   0  0  0  0  0  0
  -23.5471  -32.1373   23.7294 O   0  0  0  0  0  0
  -29.3354  -19.7286   18.1132 C   0  0  0  0  0  0
  -29.5544  -18.5238   17.5034 C   0  0  0  0  0  0
  -29.7552  -18.2278   19.7195 C   0  0  0  0  0  0
  -31.4238  -17.6345   21.5687 C   0  0  0  0  0  0
  -31.8127  -19.2977   15.5954 C   0  0  0  0  0  0
  -30.2576  -18.7345   13.6851 C   0  0  0  0  0  0
  -28.6178  -25.0005   18.2266 C   0  0  0  0  0  0
  -29.5690  -18.1286   16.0567 C   0  0  0  0  0  0
  -28.9392  -22.2288   19.7317 C   0  0  0  0  0  0
  -28.9676  -23.6890   20.4455 C   0  0  0  0  0  0
  -29.4077  -20.8144   20.4067 C   0  0  0  0  0  0
  -30.0495  -17.3244   20.9551 C   0  0  2  0  0  0
  -30.3425  -19.1300   15.1675 C   0  0  0  0  0  0
  -28.2188  -24.9313   19.7106 C   0  0  1  0  0  0
  -29.4937  -19.5814   19.4770 N   0  0  0  0  0  0
  -29.7890  -17.6426   18.5169 N   0  3  0  0  0  0
  -29.8149  -15.8144   20.7574 N   0  0  0  0  0  0
  -31.4803  -12.5777   19.1592 H   0  0  0  0  0  0
  -30.3913  -11.4622   19.9348 H   0  0  0  0  0  0
  -29.7922  -11.7419   17.5069 H   0  0  0  0  0  0
  -29.6359  -13.4662   17.7233 H   0  0  0  0  0  0
  -27.8964  -11.2800   18.9054 H   0  0  0  0  0  0
  -27.3772  -12.5244   17.8008 H   0  0  0  0  0  0
  -27.6472  -14.2484   19.4829 H   0  0  0  0  0  0
  -28.7269  -12.1262   21.4040 H   0  0  0  0  0  0
  -28.4281  -13.7941   21.8141 H   0  0  0  0  0  0
  -25.2759   -9.5690   22.4750 H   0  0  0  0  0  0
  -24.0002   -7.4638   22.7476 H   0  0  0  0  0  0
  -21.0834   -8.8769   19.8960 H   0  0  0  0  0  0
  -22.3683  -10.9668   19.6165 H   0  0  0  0  0  0
  -21.2013   -7.6147   23.9711 H   0  0  0  0  0  0
  -21.1481   -6.0519   25.9075 H   0  0  0  0  0  0
  -22.0600   -2.7603   23.2842 H   0  0  0  0  0  0
  -22.4089  -11.9899   22.4820 H   0  0  0  0  0  0
  -21.1090  -13.1260   22.2617 H   0  0  0  0  0  0
  -24.6508  -15.8390   20.5057 H   0  0  0  0  0  0
  -26.2586  -15.6259   20.0389 H   0  0  0  0  0  0
  -26.7215  -32.5396   23.1078 H   0  0  0  0  0  0
  -25.0147  -33.9694   25.0446 H   0  0  0  0  0  0
  -22.7269  -31.3040   21.4004 H   0  0  0  0  0  0
  -23.3754  -35.9587   23.3303 H   0  0  0  0  0  0
  -24.3573  -36.8884   22.2055 H   0  0  0  0  0  0
  -23.7230  -37.6464   23.6664 H   0  0  0  0  0  0
  -26.1257  -31.5261   20.6215 H   0  0  0  0  0  0
  -26.8511  -30.8032   22.0253 H   0  0  0  0  0  0
  -28.1089  -28.8970   21.2311 H   0  0  0  0  0  0
  -25.9312  -25.9560   18.9128 H   0  0  0  0  0  0
  -23.9744  -27.3394   18.9647 H   0  0  0  0  0  0
  -23.7776  -30.6000   19.4064 H   0  0  0  0  0  0
  -22.7656  -29.2576   19.8484 H   0  0  0  0  0  0
  -25.1297  -36.1897   25.0823 H   0  0  0  0  0  0
  -20.9997  -28.3279   24.1372 H   0  0  0  0  0  0
  -20.5675  -26.2316   23.3605 H   0  0  0  0  0  0
  -21.6647  -26.7440   22.1192 H   0  0  0  0  0  0
  -19.6909  -25.6291   21.1245 H   0  0  0  0  0  0
  -19.6686  -27.3185   20.6725 H   0  0  0  0  0  0
  -17.4202  -26.6675   21.4029 H   0  0  0  0  0  0
  -18.0335  -26.0077   22.9022 H   0  0  0  0  0  0
  -19.7948  -30.7273   24.2256 H   0  0  0  0  0  0
  -17.5029  -31.6274   24.5158 H   0  0  0  0  0  0
  -15.5360  -30.2991   23.7663 H   0  0  0  0  0  0
  -15.8677  -28.0815   22.7095 H   0  0  0  0  0  0
  -24.5916  -30.7106   25.7784 H   0  0  0  0  0  0
  -24.8980  -32.2914   26.4904 H   0  0  0  0  0  0
  -25.8081  -30.8893   27.0229 H   0  0  0  0  0  0
  -26.3002  -29.6723   24.1269 H   0  0  0  0  0  0
  -27.4065  -29.7287   25.4792 H   0  0  0  0  0  0
  -27.8881  -30.4271   23.9522 H   0  0  0  0  0  0
  -27.2654  -33.3653   26.2064 H   0  0  0  0  0  0
  -28.3874  -32.6930   25.0332 H   0  0  0  0  0  0
  -28.0749  -31.8513   26.5438 H   0  0  0  0  0  0
  -28.2595  -38.0082   24.7513 H   0  0  0  0  0  0
  -28.1066  -36.2615   24.6303 H   0  0  0  0  0  0
  -27.2291  -37.1434   25.8875 H   0  0  0  0  0  0
  -20.9398  -29.8778   21.6849 H   0  0  0  0  0  0
  -26.0156  -38.2829   24.1434 H   0  0  0  0  0  0
  -29.1093  -20.6718   17.6404 H   0  0  0  0  0  0
  -31.4871  -18.6798   21.8724 H   0  0  0  0  0  0
  -32.2309  -17.4510   20.8589 H   0  0  0  0  0  0
  -31.6064  -17.0278   22.4558 H   0  0  0  0  0  0
  -32.3312  -20.0085   14.9511 H   0  0  0  0  0  0
  -32.3518  -18.3516   15.5428 H   0  0  0  0  0  0
  -31.9003  -19.6722   16.6156 H   0  0  0  0  0  0
  -30.7561  -19.4696   13.0522 H   0  0  0  0  0  0
  -29.2214  -18.6680   13.3517 H   0  0  0  0  0  0
  -30.7282  -17.7678   13.5026 H   0  0  0  0  0  0
  -28.4085  -24.0668   17.7055 H   0  0  0  0  0  0
  -29.6813  -25.2137   18.1172 H   0  0  0  0  0  0
  -28.0727  -25.7837   17.7001 H   0  0  0  0  0  0
  -28.5356  -18.0513   15.7165 H   0  0  0  0  0  0
  -30.0004  -17.1315   15.9574 H   0  0  0  0  0  0
  -29.5567  -22.3668   18.8454 H   0  0  0  0  0  0
  -27.9252  -22.0749   19.3608 H   0  0  0  0  0  0
  -30.0100  -23.9625   20.6097 H   0  0  0  0  0  0
  -28.5384  -23.5869   21.4431 H   0  0  0  0  0  0
  -28.7348  -20.5528   21.2235 H   0  0  0  0  0  0
  -30.3970  -20.9355   20.8488 H   0  0  0  0  0  0
  -29.2982  -17.6367   21.6815 H   0  0  0  0  0  0
  -29.8603  -20.1034   15.2640 H   0  0  0  0  0  0
  -27.1818  -24.6121   19.7716 H   0  0  0  0  0  0
  -29.9960  -16.6597   18.3920 H   0  0  0  0  0  0
  -28.8631  -15.5436   20.9541 H   0  0  0  0  0  0
  1 25  1  0  0  0
  1 30  2  0  0  0
  1 87  1  0  0  0
  2  3  1  0  0  0
  2 25  1  0  0  0
  2 88  1  0  0  0
  2 89  1  0  0  0
  3  4  1  0  0  0
  3 90  1  0  0  0
  3 91  1  0  0  0
  4  5  1  0  0  0
  4 92  1  0  0  0
  4 93  1  0  0  0
  5  6  1  0  0  0
  5 26  1  0  0  0
  5 94  1  0  0  0
  6 25  1  0  0  0
  6 95  1  0  0  0
  6 96  1  0  0  0
  7  8  2  0  0  0
  7 26  1  0  0  0
  7 29  1  0  0  0
  8  9  1  0  0  0
  8 22  1  0  0  0
  9 10  1  0  0  0
  9 27  2  0  0  0
 10 11  2  0  0  0
 10 15  1  0  0  0
 11 12  1  0  0  0
 11 97  1  0  0  0
 12 13  2  0  0  0
 12 98  1  0  0  0
 13 14  1  0  0  0
 13 31  1  0  0  0
 14 15  2  0  0  0
 14 99  1  0  0  0
 15100  1  0  0  0
 16 17  2  0  0  0
 16 21  1  0  0  0
 16 31  1  0  0  0
 17 18  1  0  0  0
 17101  1  0  0  0
 18 19  2  0  0  0
 18102  1  0  0  0
 19 20  1  0  0  0
 19 24  1  0  0  0
 20 21  2  0  0  0
 20103  1  0  0  0
 21 23  1  0  0  0
 22 28  1  0  0  0
 22 32  2  0  0  0
 26 27  1  0  0  0
 28104  1  0  0  0
 28105  1  0  0  0
 29106  1  0  0  0
 29107  1  0  0  0
 33 34  1  0  0  0
 33 66  1  0  0  0
 33 70  2  0  0  0
 34 36  1  0  0  0
 34 59  1  0  0  0
 34108  1  0  0  0
 35 44  2  0  0  0
 35 45  1  0  0  0
 35 68  1  0  0  0
 36 56  1  0  0  0
 36109  1  0  0  0
 37 39  1  0  0  0
 37 47  1  0  0  0
 37 66  1  0  0  0
 37110  1  0  0  0
 38 43  2  0  0  0
 38 46  1  0  0  0
 38 47  1  0  0  0
 39 64  1  0  0  0
 39 67  2  0  0  0
 40 52  1  0  0  0
 40 53  2  0  0  0
 40 58  1  0  0  0
 41111  1  0  0  0
 41112  1  0  0  0
 41113  1  0  0  0
 41 48  1  0  0  0
 42 43  1  0  0  0
 42 66  1  0  0  0
 42114  1  0  0  0
 42115  1  0  0  0
 43 44  1  0  0  0
 44116  1  0  0  0
 45 46  2  0  0  0
 45117  1  0  0  0
 46118  1  0  0  0
 47119  1  0  0  0
 47120  1  0  0  0
 48 56  1  0  0  0
 48 65  1  0  0  0
 48121  1  0  0  0
 49 50  1  0  0  0
 49 53  1  0  0  0
 49 64  1  0  0  0
 49122  1  0  0  0
 50 51  1  0  0  0
 50123  1  0  0  0
 50124  1  0  0  0
 51 52  1  0  0  0
 51125  1  0  0  0
 51126  1  0  0  0
 52127  1  0  0  0
 52128  1  0  0  0
 53 54  1  0  0  0
 54 55  2  0  0  0
 54129  1  0  0  0
 55 57  1  0  0  0
 55130  1  0  0  0
 56 69  2  0  0  0
 57 58  2  0  0  0
 57131  1  0  0  0
 58132  1  0  0  0
 59 60  1  0  0  0
 59 61  1  0  0  0
 59 62  1  0  0  0
 60133  1  0  0  0
 60134  1  0  0  0
 60135  1  0  0  0
 61136  1  0  0  0
 61137  1  0  0  0
 61138  1  0  0  0
 62139  1  0  0  0
 62140  1  0  0  0
 62141  1  0  0  0
 63 65  1  0  0  0
 63142  1  0  0  0
 63143  1  0  0  0
 63144  1  0  0  0
 64145  1  0  0  0
 65146  1  0  0  0
 68 84  1  0  0  0
 71 72  2  0  0  0
 71 85  1  0  0  0
 71147  1  0  0  0
 72 78  1  0  0  0
 72 86  1  0  0  0
 73 82  1  0  0  0
 73 85  1  0  0  0
 73 86  2  0  0  0
 74148  1  0  0  0
 74149  1  0  0  0
 74150  1  0  0  0
 74 82  1  0  0  0
 75151  1  0  0  0
 75152  1  0  0  0
 75153  1  0  0  0
 75 83  1  0  0  0
 76 83  1  0  0  0
 76154  1  0  0  0
 76155  1  0  0  0
 76156  1  0  0  0
 77157  1  0  0  0
 77158  1  0  0  0
 77159  1  0  0  0
 77 84  1  0  0  0
 78 83  1  0  0  0
 78160  1  0  0  0
 78161  1  0  0  0
 79 80  1  0  0  0
 79 81  1  0  0  0
 79162  1  0  0  0
 79163  1  0  0  0
 80 84  1  0  0  0
 80164  1  0  0  0
 80165  1  0  0  0
 81 85  1  0  0  0
 81166  1  0  0  0
 81167  1  0  0  0
 82 87  1  0  0  0
 82168  1  0  0  0
 83169  1  0  0  0
 84170  1  0  0  0
 86171  1  0  0  0
 87172  1  0  0  0
M  CHG  1  86   1
M  ISO  4   1 100  68 101  84 101  87 100
M  END
> <chiral flag>
0

> <version>
0

> <s_m_source_file>
/data/baiqing/PycharmProjects/Reinvent-master-3.2/result/LINK_invent/BTK/process_docking_weight1_custom_sum_contain_oxygen_bond_distance_aromatic_linkinvent_7_9_3/rearranged_h_0081.sdf

> <i_m_source_file_index>
58

> <r_mmod_Potential_Energy-OPLS-2005>
110.185523986816

> <r_mmod_Stretch_Energy-OPLS-2005>
133.616455078125

> <r_mmod_Bend_Energy-OPLS-2005>
203.093139648438

> <r_mmod_Torsional_Energy-OPLS-2005>
215.230895996094

> <r_mmod_Improper_Torsional_Energy-OPLS-2005>
4.86261415481567

> <r_mmod_Van_der_Waal_Energy-OPLS-2005>
117.211471557617

> <r_mmod_Electrostatic_Energy-OPLS-2005>
-241.065658569336

> <r_mmod_Solvation_Energy-OPLS-2005>
-404.433563232422

> <b_mmod_Minimization_Converged-OPLS-2005>
0

> <r_mmod_RMS_Derivative-OPLS-2005>
1.04460251331329

$$$$
58
                    3D
 Structure written by MMmdl.
170178  0  0  1  0            999 V2000
  -30.7582  -14.3908   20.6169 C   0  0  0  0  0  0
  -30.4157  -12.2844   19.3881 C   0  0  0  0  0  0
  -29.4831  -12.5209   18.1861 C   0  0  0  0  0  0
  -28.0063  -12.3879   18.6053 C   0  0  0  0  0  0
  -27.6663  -13.2078   19.8788 C   0  0  2  0  0  0
  -28.7114  -12.9567   20.9887 C   0  0  0  0  0  0
  -25.2616  -13.8177   20.5694 C   0  0  0  0  0  0
  -24.1866  -13.0436   20.9176 C   0  0  0  0  0  0
  -24.6420  -11.6903   20.8736 C   0  0  0  0  0  0
  -23.9075  -10.4293   21.0400 C   0  0  0  0  0  0
  -24.3617   -9.4212   21.9182 C   0  0  0  0  0  0
  -23.6297   -8.2241   22.0753 C   0  0  0  0  0  0
  -22.4276   -8.0282   21.3540 C   0  0  0  0  0  0
  -21.9916   -9.0255   20.4633 C   0  0  0  0  0  0
  -22.7244  -10.2132   20.3051 C   0  0  0  0  0  0
  -21.6856   -6.0737   22.5272 C   0  0  0  0  0  0
  -21.4015   -6.5639   23.8205 C   0  0  0  0  0  0
  -21.3659   -5.6797   24.9177 C   0  0  0  0  0  0
  -21.6045   -4.3060   24.7225 C   0  0  0  0  0  0
  -21.8819   -3.8144   23.4350 C   0  0  0  0  0  0
  -21.9193   -4.6964   22.3404 C   0  0  0  0  0  0
  -22.7887  -13.5232   21.1821 C   0  0  0  0  0  0
  -22.1660   -4.2151   21.0980 F   0  0  0  0  0  0
  -21.5631   -3.4539   25.7742 F   0  0  0  0  0  0
  -30.0480  -13.2465   20.4367 N   0  0  0  0  0  0
  -26.3062  -12.9335   20.3397 N   0  0  0  0  0  0
  -25.9345  -11.6485   20.5757 N   0  0  0  0  0  0
  -22.0523  -12.8224   22.0376 N   0  0  0  0  0  0
  -25.4330  -15.1879   20.4102 N   0  0  0  0  0  0
  -31.8292  -14.6245   20.0537 O   0  0  0  0  0  0
  -21.6637   -6.8876   21.4230 O   0  0  0  0  0  0
  -22.3571  -14.5541   20.6670 O   0  0  0  0  0  0
  -24.6059  -31.8651   23.2068 C   0  0  0  0  0  0
  -25.8935  -32.4813   23.8370 C   0  0  1  0  0  0
  -27.2438  -27.4454   20.1035 C   0  0  0  0  0  0
  -25.5761  -33.8619   24.2253 N   0  0  0  0  0  0
  -23.4011  -30.4849   21.5504 C   0  0  2  0  0  0
  -24.8515  -28.9549   20.1151 C   0  0  0  0  0  0
  -22.7386  -29.4616   22.5002 C   0  0  0  0  0  0
  -18.0263  -28.1407   22.8529 C   0  0  0  0  0  0
  -24.1477  -36.7362   23.2639 C   0  0  0  0  0  0
  -25.9284  -30.8314   21.3672 C   0  0  0  0  0  0
  -26.0097  -29.4693   20.7144 C   0  0  0  0  0  0
  -27.2093  -28.7239   20.7004 C   0  0  0  0  0  0
  -26.0714  -26.9427   19.4947 C   0  0  0  0  0  0
  -24.8786  -27.6911   19.4995 C   0  0  0  0  0  0
  -23.6085  -29.8159   20.1664 C   0  0  0  0  0  0
  -25.4096  -36.3112   24.0311 C   0  0  1  0  0  0
  -20.5844  -28.3686   23.1366 C   0  0  2  0  0  0
  -20.6769  -26.9434   22.5448 C   0  0  0  0  0  0
  -19.5745  -26.6425   21.5251 C   0  0  0  0  0  0
  -18.1923  -26.7954   22.1663 C   0  0  0  0  0  0
  -19.1510  -28.8877   23.2944 C   0  0  0  0  0  0
  -18.9429  -30.1492   23.8929 C   0  0  0  0  0  0
  -17.6427  -30.6620   24.0614 C   0  0  0  0  0  0
  -25.9009  -34.9471   23.5105 C   0  0  0  0  0  0
  -16.5317  -29.9122   23.6364 C   0  0  0  0  0  0
  -16.7250  -28.6556   23.0355 C   0  0  0  0  0  0
  -26.4370  -31.6643   25.0737 C   0  0  0  0  0  0
  -25.3631  -31.3812   26.1499 C   0  0  0  0  0  0
  -27.0236  -30.3068   24.6191 C   0  0  0  0  0  0
  -27.5913  -32.4412   25.7504 C   0  0  0  0  0  0
  -27.5585  -37.1791   24.8415 C   0  0  0  0  0  0
  -21.4113  -29.3021   22.3744 N   0  0  0  0  0  0
  -26.4288  -37.3783   23.9381 N   0  0  0  0  0  0
  -24.6636  -31.0738   22.0996 N   0  0  0  0  0  0
  -23.4147  -28.8165   23.3055 O   0  0  0  0  0  0
  -28.4162  -26.7203   20.1193 O   0  0  0  0  0  0
  -26.5675  -34.8913   22.4731 O   0  0  0  0  0  0
  -23.5231  -32.1417   23.7418 O   0  0  0  0  0  0
  -31.0154  -22.1820   20.2835 C   0  0  0  0  0  0
  -29.2233  -21.0042   21.3807 C   0  0  0  0  0  0
  -29.8886  -22.2209   21.1309 C   0  0  0  0  0  0
  -31.4267  -20.9478   19.7446 C   0  0  0  0  0  0
  -29.7132  -19.8051   20.8197 C   0  0  0  0  0  0
  -32.6393  -20.8665   18.8399 C   0  0  0  0  0  0
  -28.6876  -17.6591   19.8859 C   0  0  0  0  0  0
  -30.4766  -18.5313   23.3066 C   0  0  0  0  0  0
  -28.6272  -16.8824   23.1155 C   0  0  0  0  0  0
  -29.4548  -23.4868   21.8703 C   0  0  0  0  0  0
  -29.5813  -24.8430   21.1311 C   0  0  0  0  0  0
  -30.7761  -16.5910   21.7762 C   0  0  0  0  0  0
  -28.2846  -25.3363   20.4656 C   0  0  0  0  0  0
  -29.0564  -18.4565   21.1538 C   0  0  1  0  0  0
  -29.7306  -17.6147   22.3089 C   0  0  0  0  0  0
  -30.8026  -19.7828   20.0168 N   0  0  0  0  0  0
  -30.1988  -15.2920   21.4283 N   0  0  0  0  0  0
  -31.4586  -12.3758   19.0782 H   0  0  0  0  0  0
  -30.3063  -11.2662   19.7612 H   0  0  0  0  0  0
  -29.7083  -11.8147   17.3856 H   0  0  0  0  0  0
  -29.6619  -13.5158   17.7757 H   0  0  0  0  0  0
  -27.8025  -11.3306   18.7779 H   0  0  0  0  0  0
  -27.3566  -12.6889   17.7831 H   0  0  0  0  0  0
  -27.7210  -14.2614   19.6061 H   0  0  0  0  0  0
  -28.6755  -11.9151   21.3102 H   0  0  0  0  0  0
  -28.4750  -13.5391   21.8799 H   0  0  0  0  0  0
  -25.2762   -9.5693   22.4763 H   0  0  0  0  0  0
  -24.0000   -7.4644   22.7492 H   0  0  0  0  0  0
  -21.0843   -8.8774   19.8952 H   0  0  0  0  0  0
  -22.3698  -10.9672   19.6160 H   0  0  0  0  0  0
  -21.2002   -7.6148   23.9713 H   0  0  0  0  0  0
  -21.1481   -6.0526   25.9082 H   0  0  0  0  0  0
  -22.0597   -2.7609   23.2850 H   0  0  0  0  0  0
  -22.4110  -11.9873   22.4760 H   0  0  0  0  0  0
  -21.1128  -13.1245   22.2546 H   0  0  0  0  0  0
  -24.6671  -15.8449   20.5193 H   0  0  0  0  0  0
  -26.2884  -15.6243   20.0902 H   0  0  0  0  0  0
  -26.7014  -32.5529   23.1145 H   0  0  0  0  0  0
  -24.9754  -33.9772   25.0282 H   0  0  0  0  0  0
  -22.6901  -31.3024   21.4132 H   0  0  0  0  0  0
  -23.3703  -35.9723   23.3267 H   0  0  0  0  0  0
  -24.3556  -36.9057   22.2058 H   0  0  0  0  0  0
  -23.7266  -37.6545   23.6745 H   0  0  0  0  0  0
  -26.0408  -31.5927   20.5947 H   0  0  0  0  0  0
  -26.8129  -30.8788   21.9921 H   0  0  0  0  0  0
  -28.1064  -29.1126   21.1643 H   0  0  0  0  0  0
  -26.0814  -25.9805   19.0047 H   0  0  0  0  0  0
  -23.9930  -27.2947   19.0221 H   0  0  0  0  0  0
  -23.7007  -30.5886   19.4022 H   0  0  0  0  0  0
  -22.7341  -29.2277   19.8826 H   0  0  0  0  0  0
  -25.1253  -36.1994   25.0800 H   0  0  0  0  0  0
  -20.9966  -28.3282   24.1476 H   0  0  0  0  0  0
  -20.5759  -26.2264   23.3610 H   0  0  0  0  0  0
  -21.6631  -26.7551   22.1181 H   0  0  0  0  0  0
  -19.6906  -25.6350   21.1261 H   0  0  0  0  0  0
  -19.6693  -27.3280   20.6813 H   0  0  0  0  0  0
  -17.4192  -26.6754   21.4063 H   0  0  0  0  0  0
  -18.0287  -26.0083   22.9041 H   0  0  0  0  0  0
  -19.7907  -30.7330   24.2276 H   0  0  0  0  0  0
  -17.4985  -31.6295   24.5228 H   0  0  0  0  0  0
  -15.5324  -30.3027   23.7704 H   0  0  0  0  0  0
  -15.8639  -28.0925   22.6984 H   0  0  0  0  0  0
  -24.5688  -30.7300   25.7826 H   0  0  0  0  0  0
  -24.8956  -32.3028   26.4993 H   0  0  0  0  0  0
  -25.7931  -30.8894   27.0241 H   0  0  0  0  0  0
  -26.2861  -29.6837   24.1121 H   0  0  0  0  0  0
  -27.3837  -29.7276   25.4703 H   0  0  0  0  0  0
  -27.8740  -30.4342   23.9489 H   0  0  0  0  0  0
  -27.2476  -33.3686   26.2102 H   0  0  0  0  0  0
  -28.3701  -32.7046   25.0341 H   0  0  0  0  0  0
  -28.0625  -31.8574   26.5419 H   0  0  0  0  0  0
  -28.2497  -38.0175   24.7509 H   0  0  0  0  0  0
  -28.1193  -36.2694   24.6191 H   0  0  0  0  0  0
  -27.2295  -37.1335   25.8807 H   0  0  0  0  0  0
  -20.9252  -29.8655   21.6913 H   0  0  0  0  0  0
  -26.0179  -38.2848   24.1433 H   0  0  0  0  0  0
  -31.5886  -23.0724   20.0681 H   0  0  0  0  0  0
  -28.3735  -20.9811   22.0489 H   0  0  0  0  0  0
  -32.7687  -21.7994   18.2927 H   0  0  0  0  0  0
  -32.5486  -20.0616   18.1094 H   0  0  0  0  0  0
  -33.5377  -20.6913   19.4308 H   0  0  0  0  0  0
  -28.0672  -18.2517   19.2146 H   0  0  0  0  0  0
  -28.1323  -16.7581   20.1338 H   0  0  0  0  0  0
  -29.5726  -17.3625   19.3240 H   0  0  0  0  0  0
  -30.8631  -17.9709   24.1591 H   0  0  0  0  0  0
  -29.8218  -19.3059   23.7060 H   0  0  0  0  0  0
  -31.3287  -19.0257   22.8390 H   0  0  0  0  0  0
  -29.0522  -16.1835   23.8371 H   0  0  0  0  0  0
  -27.9490  -16.3169   22.4750 H   0  0  0  0  0  0
  -28.0134  -17.5878   23.6757 H   0  0  0  0  0  0
  -30.0745  -23.5326   22.7667 H   0  0  0  0  0  0
  -28.4336  -23.3600   22.2349 H   0  0  0  0  0  0
  -30.4158  -24.8648   20.4343 H   0  0  0  0  0  0
  -29.8343  -25.5841   21.8904 H   0  0  0  0  0  0
  -31.5335  -16.3879   22.5351 H   0  0  0  0  0  0
  -31.3198  -17.0206   20.9325 H   0  0  0  0  0  0
  -27.4643  -25.2116   21.1755 H   0  0  0  0  0  0
  -28.0539  -24.7374   19.5837 H   0  0  0  0  0  0
  -28.0885  -18.7611   21.5534 H   0  0  0  0  0  0
  -29.3202  -15.0488   21.8572 H   0  0  0  0  0  0
  1 25  1  0  0  0
  1 30  2  0  0  0
  1 87  1  0  0  0
  2  3  1  0  0  0
  2 25  1  0  0  0
  2 88  1  0  0  0
  2 89  1  0  0  0
  3  4  1  0  0  0
  3 90  1  0  0  0
  3 91  1  0  0  0
  4  5  1  0  0  0
  4 92  1  0  0  0
  4 93  1  0  0  0
  5  6  1  0  0  0
  5 26  1  0  0  0
  5 94  1  0  0  0
  6 25  1  0  0  0
  6 95  1  0  0  0
  6 96  1  0  0  0
  7  8  2  0  0  0
  7 26  1  0  0  0
  7 29  1  0  0  0
  8  9  1  0  0  0
  8 22  1  0  0  0
  9 10  1  0  0  0
  9 27  2  0  0  0
 10 11  2  0  0  0
 10 15  1  0  0  0
 11 12  1  0  0  0
 11 97  1  0  0  0
 12 13  2  0  0  0
 12 98  1  0  0  0
 13 14  1  0  0  0
 13 31  1  0  0  0
 14 15  2  0  0  0
 14 99  1  0  0  0
 15100  1  0  0  0
 16 17  2  0  0  0
 16 21  1  0  0  0
 16 31  1  0  0  0
 17 18  1  0  0  0
 17101  1  0  0  0
 18 19  2  0  0  0
 18102  1  0  0  0
 19 20  1  0  0  0
 19 24  1  0  0  0
 20 21  2  0  0  0
 20103  1  0  0  0
 21 23  1  0  0  0
 22 28  1  0  0  0
 22 32  2  0  0  0
 26 27  1  0  0  0
 28104  1  0  0  0
 28105  1  0  0  0
 29106  1  0  0  0
 29107  1  0  0  0
 33 34  1  0  0  0
 33 66  1  0  0  0
 33 70  2  0  0  0
 34 36  1  0  0  0
 34 59  1  0  0  0
 34108  1  0  0  0
 35 44  2  0  0  0
 35 45  1  0  0  0
 35 68  1  0  0  0
 36 56  1  0  0  0
 36109  1  0  0  0
 37 39  1  0  0  0
 37 47  1  0  0  0
 37 66  1  0  0  0
 37110  1  0  0  0
 38 43  2  0  0  0
 38 46  1  0  0  0
 38 47  1  0  0  0
 39 64  1  0  0  0
 39 67  2  0  0  0
 40 52  1  0  0  0
 40 53  2  0  0  0
 40 58  1  0  0  0
 41111  1  0  0  0
 41112  1  0  0  0
 41113  1  0  0  0
 41 48  1  0  0  0
 42 43  1  0  0  0
 42 66  1  0  0  0
 42114  1  0  0  0
 42115  1  0  0  0
 43 44  1  0  0  0
 44116  1  0  0  0
 45 46  2  0  0  0
 45117  1  0  0  0
 46118  1  0  0  0
 47119  1  0  0  0
 47120  1  0  0  0
 48 56  1  0  0  0
 48 65  1  0  0  0
 48121  1  0  0  0
 49 50  1  0  0  0
 49 53  1  0  0  0
 49 64  1  0  0  0
 49122  1  0  0  0
 50 51  1  0  0  0
 50123  1  0  0  0
 50124  1  0  0  0
 51 52  1  0  0  0
 51125  1  0  0  0
 51126  1  0  0  0
 52127  1  0  0  0
 52128  1  0  0  0
 53 54  1  0  0  0
 54 55  2  0  0  0
 54129  1  0  0  0
 55 57  1  0  0  0
 55130  1  0  0  0
 56 69  2  0  0  0
 57 58  2  0  0  0
 57131  1  0  0  0
 58132  1  0  0  0
 59 60  1  0  0  0
 59 61  1  0  0  0
 59 62  1  0  0  0
 60133  1  0  0  0
 60134  1  0  0  0
 60135  1  0  0  0
 61136  1  0  0  0
 61137  1  0  0  0
 61138  1  0  0  0
 62139  1  0  0  0
 62140  1  0  0  0
 62141  1  0  0  0
 63 65  1  0  0  0
 63142  1  0  0  0
 63143  1  0  0  0
 63144  1  0  0  0
 64145  1  0  0  0
 65146  1  0  0  0
 68 83  1  0  0  0
 71 73  2  0  0  0
 71 74  1  0  0  0
 71147  1  0  0  0
 72 73  1  0  0  0
 72 75  2  0  0  0
 72148  1  0  0  0
 73 80  1  0  0  0
 74 76  1  0  0  0
 74 86  2  0  0  0
 75 84  1  0  0  0
 75 86  1  0  0  0
 76149  1  0  0  0
 76150  1  0  0  0
 76151  1  0  0  0
 77152  1  0  0  0
 77153  1  0  0  0
 77154  1  0  0  0
 77 84  1  0  0  0
 78155  1  0  0  0
 78156  1  0  0  0
 78157  1  0  0  0
 78 85  1  0  0  0
 79 85  1  0  0  0
 79158  1  0  0  0
 79159  1  0  0  0
 79160  1  0  0  0
 80 81  1  0  0  0
 80161  1  0  0  0
 80162  1  0  0  0
 81 83  1  0  0  0
 81163  1  0  0  0
 81164  1  0  0  0
 82 85  1  0  0  0
 82 87  1  0  0  0
 82165  1  0  0  0
 82166  1  0  0  0
 83167  1  0  0  0
 83168  1  0  0  0
 84 85  1  0  0  0
 84169  1  0  0  0
 87170  1  0  0  0
M  ISO  4   1 100  68 101  83 101  87 100
M  END
> <chiral flag>
0

> <version>
0

> <s_m_source_file>
/data/baiqing/PycharmProjects/Reinvent-master-3.2/result/LINK_invent/BTK/process_docking_weight1_custom_sum_contain_oxygen_bond_distance_aromatic_linkinvent_7_9_3/rearranged_h_0081.sdf

> <i_m_source_file_index>
59

> <r_mmod_Potential_Energy-OPLS-2005>
-235.845062255859

> <r_mmod_Stretch_Energy-OPLS-2005>
38.1047325134277

> <r_mmod_Bend_Energy-OPLS-2005>
107.199005126953

> <r_mmod_Torsional_Energy-OPLS-2005>
224.081665039062

> <r_mmod_Improper_Torsional_Energy-OPLS-2005>
2.37967395782471

> <r_mmod_Van_der_Waal_Energy-OPLS-2005>
160.038543701172

> <r_mmod_Electrostatic_Energy-OPLS-2005>
-569.251281738281

> <r_mmod_Solvation_Energy-OPLS-2005>
-207.544036865234

> <b_mmod_Minimization_Converged-OPLS-2005>
0

> <r_mmod_RMS_Derivative-OPLS-2005>
3.21976852416992

$$$$
59
                    3D
 Structure written by MMmdl.
164172  0  0  1  0            999 V2000
  -30.6810  -14.5359   20.5422 C   0  0  0  0  0  0
  -30.4277  -12.3388   19.4343 C   0  0  0  0  0  0
  -29.4998  -12.5011   18.2123 C   0  0  0  0  0  0
  -28.0212  -12.3571   18.6243 C   0  0  0  0  0  0
  -27.6580  -13.2123   19.8684 C   0  0  2  0  0  0
  -28.7018  -13.0306   20.9932 C   0  0  0  0  0  0
  -25.2579  -13.8164   20.5679 C   0  0  0  0  0  0
  -24.1837  -13.0436   20.9188 C   0  0  0  0  0  0
  -24.6396  -11.6903   20.8742 C   0  0  0  0  0  0
  -23.9061  -10.4289   21.0409 C   0  0  0  0  0  0
  -24.3611   -9.4207   21.9190 C   0  0  0  0  0  0
  -23.6290   -8.2241   22.0755 C   0  0  0  0  0  0
  -22.4273   -8.0281   21.3544 C   0  0  0  0  0  0
  -21.9907   -9.0255   20.4646 C   0  0  0  0  0  0
  -22.7232  -10.2136   20.3059 C   0  0  0  0  0  0
  -21.6853   -6.0729   22.5270 C   0  0  0  0  0  0
  -21.4011   -6.5635   23.8202 C   0  0  0  0  0  0
  -21.3664   -5.6791   24.9166 C   0  0  0  0  0  0
  -21.6054   -4.3054   24.7222 C   0  0  0  0  0  0
  -21.8821   -3.8143   23.4342 C   0  0  0  0  0  0
  -21.9194   -4.6957   22.3396 C   0  0  0  0  0  0
  -22.7859  -13.5236   21.1852 C   0  0  0  0  0  0
  -22.1663   -4.2145   21.0973 F   0  0  0  0  0  0
  -21.5636   -3.4537   25.7737 F   0  0  0  0  0  0
  -30.0250  -13.3445   20.4325 N   0  0  0  0  0  0
  -26.3009  -12.9341   20.3339 N   0  0  0  0  0  0
  -25.9324  -11.6499   20.5759 N   0  0  0  0  0  0
  -22.0495  -12.8231   22.0405 N   0  0  0  0  0  0
  -25.4313  -15.1876   20.4076 N   0  0  0  0  0  0
  -31.8286  -14.6958   20.1202 O   0  0  0  0  0  0
  -21.6641   -6.8875   21.4233 O   0  0  0  0  0  0
  -22.3552  -14.5546   20.6699 O   0  0  0  0  0  0
  -24.6220  -31.8657   23.2090 C   0  0  0  0  0  0
  -25.9093  -32.4810   23.8395 C   0  0  1  0  0  0
  -27.2239  -27.3778   20.0952 C   0  0  0  0  0  0
  -25.5933  -33.8607   24.2327 N   0  0  0  0  0  0
  -23.4107  -30.4935   21.5513 C   0  0  2  0  0  0
  -24.8545  -28.9616   20.1107 C   0  0  0  0  0  0
  -22.7446  -29.4660   22.4966 C   0  0  0  0  0  0
  -18.0280  -28.1379   22.8490 C   0  0  0  0  0  0
  -24.1488  -36.7312   23.2635 C   0  0  0  0  0  0
  -25.9478  -30.8149   21.3704 C   0  0  0  0  0  0
  -26.0221  -29.4479   20.7115 C   0  0  0  0  0  0
  -27.2097  -28.6669   20.6969 C   0  0  0  0  0  0
  -26.0287  -26.9341   19.4763 C   0  0  0  0  0  0
  -24.8569  -27.7072   19.4865 C   0  0  0  0  0  0
  -23.6207  -29.8348   20.1634 C   0  0  0  0  0  0
  -25.4108  -36.3102   24.0334 C   0  0  1  0  0  0
  -20.5879  -28.3679   23.1297 C   0  0  2  0  0  0
  -20.6773  -26.9411   22.5407 C   0  0  0  0  0  0
  -19.5747  -26.6386   21.5208 C   0  0  0  0  0  0
  -18.1926  -26.7926   22.1620 C   0  0  0  0  0  0
  -19.1530  -28.8841   23.2892 C   0  0  0  0  0  0
  -18.9456  -30.1447   23.8907 C   0  0  0  0  0  0
  -17.6455  -30.6582   24.0565 C   0  0  0  0  0  0
  -25.9044  -34.9468   23.5125 C   0  0  0  0  0  0
  -16.5349  -29.9084   23.6325 C   0  0  0  0  0  0
  -16.7266  -28.6501   23.0350 C   0  0  0  0  0  0
  -26.4497  -31.6591   25.0735 C   0  0  0  0  0  0
  -25.3748  -31.3704   26.1472 C   0  0  0  0  0  0
  -27.0332  -30.3026   24.6138 C   0  0  0  0  0  0
  -27.6071  -32.4310   25.7499 C   0  0  0  0  0  0
  -27.5579  -37.1810   24.8466 C   0  0  0  0  0  0
  -21.4168  -29.3046   22.3703 N   0  0  0  0  0  0
  -26.4292  -37.3789   23.9410 N   0  0  0  0  0  0
  -24.6789  -31.0725   22.1011 N   0  0  0  0  0  0
  -23.4201  -28.8193   23.3015 O   0  0  0  0  0  0
  -28.3634  -26.5702   20.1319 O   0  0  0  0  0  0
  -26.5594  -34.8920   22.4678 O   0  0  0  0  0  0
  -23.5399  -32.1425   23.7456 O   0  0  0  0  0  0
  -27.8672  -22.2123   18.1935 C   0  0  0  0  0  0
  -27.5959  -21.4517   17.0492 C   0  0  0  0  0  0
  -28.6881  -21.6984   19.2225 C   0  0  0  0  0  0
  -28.1528  -20.1747   16.9523 C   0  0  0  0  0  0
  -29.1273  -20.3334   19.0783 C   0  0  0  0  0  0
  -27.9115  -19.3048   15.7376 C   0  0  0  0  0  0
  -31.4619  -19.7186   19.8010 C   0  0  0  0  0  0
  -29.0080  -22.6246   20.4252 C   0  0  0  0  0  0
  -29.3398  -24.1547   20.1643 C   0  0  0  0  0  0
  -29.5826  -17.9730   20.1175 C   0  0  0  0  0  0
  -30.3604  -17.0134   21.0780 C   0  0  0  0  0  0
  -28.1603  -25.1471   19.8817 C   0  0  0  0  0  0
  -29.9658  -19.5129   20.0962 C   0  0  2  0  0  0
  -28.8985  -19.6436   17.9348 N   0  0  0  0  0  0
  -29.9476  -15.5854   20.9861 N   0  0  0  0  0  0
  -31.4710  -12.4465   19.1317 H   0  0  0  0  0  0
  -30.3403  -11.3357   19.8546 H   0  0  0  0  0  0
  -29.7477  -11.7606   17.4506 H   0  0  0  0  0  0
  -29.6628  -13.4779   17.7543 H   0  0  0  0  0  0
  -27.8414  -11.3021   18.8346 H   0  0  0  0  0  0
  -27.3701  -12.6142   17.7880 H   0  0  0  0  0  0
  -27.6900  -14.2549   19.5507 H   0  0  0  0  0  0
  -28.6905  -12.0033   21.3602 H   0  0  0  0  0  0
  -28.4610  -13.6550   21.8550 H   0  0  0  0  0  0
  -25.2753   -9.5687   22.4766 H   0  0  0  0  0  0
  -24.0005   -7.4630   22.7469 H   0  0  0  0  0  0
  -21.0841   -8.8769   19.8946 H   0  0  0  0  0  0
  -22.3689  -10.9677   19.6172 H   0  0  0  0  0  0
  -21.1994   -7.6142   23.9700 H   0  0  0  0  0  0
  -21.1492   -6.0522   25.9070 H   0  0  0  0  0  0
  -22.0599   -2.7605   23.2839 H   0  0  0  0  0  0
  -22.4102  -11.9891   22.4801 H   0  0  0  0  0  0
  -21.1107  -13.1257   22.2592 H   0  0  0  0  0  0
  -24.6670  -15.8454   20.5147 H   0  0  0  0  0  0
  -26.2832  -15.6228   20.0770 H   0  0  0  0  0  0
  -26.7165  -32.5506   23.1157 H   0  0  0  0  0  0
  -25.0118  -33.9769   25.0496 H   0  0  0  0  0  0
  -22.7013  -31.3125   21.4148 H   0  0  0  0  0  0
  -23.3746  -35.9651   23.3304 H   0  0  0  0  0  0
  -24.3586  -36.8920   22.2049 H   0  0  0  0  0  0
  -23.7242  -37.6519   23.6646 H   0  0  0  0  0  0
  -26.0692  -31.5815   20.6040 H   0  0  0  0  0  0
  -26.8329  -30.8645   21.9927 H   0  0  0  0  0  0
  -28.1077  -29.0386   21.1700 H   0  0  0  0  0  0
  -25.9614  -25.9797   18.9769 H   0  0  0  0  0  0
  -23.9626  -27.3302   19.0091 H   0  0  0  0  0  0
  -23.7331  -30.6148   19.4093 H   0  0  0  0  0  0
  -22.7418  -29.2619   19.8631 H   0  0  0  0  0  0
  -25.1280  -36.1969   25.0827 H   0  0  0  0  0  0
  -20.9967  -28.3250   24.1420 H   0  0  0  0  0  0
  -20.5678  -26.2294   23.3602 H   0  0  0  0  0  0
  -21.6643  -26.7455   22.1195 H   0  0  0  0  0  0
  -19.6915  -25.6299   21.1235 H   0  0  0  0  0  0
  -19.6680  -27.3199   20.6739 H   0  0  0  0  0  0
  -17.4197  -26.6673   21.4024 H   0  0  0  0  0  0
  -18.0330  -26.0063   22.9010 H   0  0  0  0  0  0
  -19.7932  -30.7259   24.2287 H   0  0  0  0  0  0
  -17.5010  -31.6262   24.5166 H   0  0  0  0  0  0
  -15.5351  -30.2988   23.7637 H   0  0  0  0  0  0
  -15.8671  -28.0819   22.7065 H   0  0  0  0  0  0
  -24.5936  -30.7033   25.7810 H   0  0  0  0  0  0
  -24.8921  -32.2855   26.4910 H   0  0  0  0  0  0
  -25.8091  -30.8885   27.0239 H   0  0  0  0  0  0
  -26.2888  -29.6779   24.1185 H   0  0  0  0  0  0
  -27.4083  -29.7269   25.4612 H   0  0  0  0  0  0
  -27.8735  -30.4338   23.9316 H   0  0  0  0  0  0
  -27.2700  -33.3608   26.2092 H   0  0  0  0  0  0
  -28.3873  -32.6865   25.0316 H   0  0  0  0  0  0
  -28.0749  -31.8418   26.5398 H   0  0  0  0  0  0
  -28.2598  -38.0105   24.7507 H   0  0  0  0  0  0
  -28.1068  -36.2634   24.6294 H   0  0  0  0  0  0
  -27.2299  -37.1468   25.8869 H   0  0  0  0  0  0
  -20.9334  -29.8796   21.6945 H   0  0  0  0  0  0
  -26.0180  -38.2869   24.1401 H   0  0  0  0  0  0
  -27.4189  -23.1848   18.2565 H   0  0  0  0  0  0
  -26.9742  -21.8514   16.2593 H   0  0  0  0  0  0
  -26.9904  -18.7345   15.8598 H   0  0  0  0  0  0
  -28.7319  -18.6035   15.5825 H   0  0  0  0  0  0
  -27.8184  -19.9143   14.8390 H   0  0  0  0  0  0
  -31.7121  -20.7798   19.7813 H   0  0  0  0  0  0
  -31.7299  -19.2981   18.8310 H   0  0  0  0  0  0
  -32.0942  -19.2527   20.5547 H   0  0  0  0  0  0
  -29.8698  -22.2005   20.9402 H   0  0  0  0  0  0
  -28.1851  -22.5516   21.1370 H   0  0  0  0  0  0
  -30.1023  -24.2463   19.3896 H   0  0  0  0  0  0
  -29.8169  -24.5170   21.0754 H   0  0  0  0  0  0
  -28.5166  -17.8959   20.3340 H   0  0  0  0  0  0
  -29.7081  -17.5644   19.1146 H   0  0  0  0  0  0
  -30.2108  -17.3399   22.1074 H   0  0  0  0  0  0
  -31.4313  -17.0973   20.8930 H   0  0  0  0  0  0
  -27.2998  -24.8068   20.4612 H   0  0  0  0  0  0
  -27.9108  -25.0717   18.8260 H   0  0  0  0  0  0
  -29.7547  -19.9085   21.0894 H   0  0  0  0  0  0
  -29.0078  -15.3667   21.2820 H   0  0  0  0  0  0
  1 25  1  0  0  0
  1 30  2  0  0  0
  1 85  1  0  0  0
  2  3  1  0  0  0
  2 25  1  0  0  0
  2 86  1  0  0  0
  2 87  1  0  0  0
  3  4  1  0  0  0
  3 88  1  0  0  0
  3 89  1  0  0  0
  4  5  1  0  0  0
  4 90  1  0  0  0
  4 91  1  0  0  0
  5  6  1  0  0  0
  5 26  1  0  0  0
  5 92  1  0  0  0
  6 25  1  0  0  0
  6 93  1  0  0  0
  6 94  1  0  0  0
  7  8  2  0  0  0
  7 26  1  0  0  0
  7 29  1  0  0  0
  8  9  1  0  0  0
  8 22  1  0  0  0
  9 10  1  0  0  0
  9 27  2  0  0  0
 10 11  2  0  0  0
 10 15  1  0  0  0
 11 12  1  0  0  0
 11 95  1  0  0  0
 12 13  2  0  0  0
 12 96  1  0  0  0
 13 14  1  0  0  0
 13 31  1  0  0  0
 14 15  2  0  0  0
 14 97  1  0  0  0
 15 98  1  0  0  0
 16 17  2  0  0  0
 16 21  1  0  0  0
 16 31  1  0  0  0
 17 18  1  0  0  0
 17 99  1  0  0  0
 18 19  2  0  0  0
 18100  1  0  0  0
 19 20  1  0  0  0
 19 24  1  0  0  0
 20 21  2  0  0  0
 20101  1  0  0  0
 21 23  1  0  0  0
 22 28  1  0  0  0
 22 32  2  0  0  0
 26 27  1  0  0  0
 28102  1  0  0  0
 28103  1  0  0  0
 29104  1  0  0  0
 29105  1  0  0  0
 33 34  1  0  0  0
 33 66  1  0  0  0
 33 70  2  0  0  0
 34 36  1  0  0  0
 34 59  1  0  0  0
 34106  1  0  0  0
 35 44  2  0  0  0
 35 45  1  0  0  0
 35 68  1  0  0  0
 36 56  1  0  0  0
 36107  1  0  0  0
 37 39  1  0  0  0
 37 47  1  0  0  0
 37 66  1  0  0  0
 37108  1  0  0  0
 38 43  2  0  0  0
 38 46  1  0  0  0
 38 47  1  0  0  0
 39 64  1  0  0  0
 39 67  2  0  0  0
 40 52  1  0  0  0
 40 53  2  0  0  0
 40 58  1  0  0  0
 41109  1  0  0  0
 41110  1  0  0  0
 41111  1  0  0  0
 41 48  1  0  0  0
 42 43  1  0  0  0
 42 66  1  0  0  0
 42112  1  0  0  0
 42113  1  0  0  0
 43 44  1  0  0  0
 44114  1  0  0  0
 45 46  2  0  0  0
 45115  1  0  0  0
 46116  1  0  0  0
 47117  1  0  0  0
 47118  1  0  0  0
 48 56  1  0  0  0
 48 65  1  0  0  0
 48119  1  0  0  0
 49 50  1  0  0  0
 49 53  1  0  0  0
 49 64  1  0  0  0
 49120  1  0  0  0
 50 51  1  0  0  0
 50121  1  0  0  0
 50122  1  0  0  0
 51 52  1  0  0  0
 51123  1  0  0  0
 51124  1  0  0  0
 52125  1  0  0  0
 52126  1  0  0  0
 53 54  1  0  0  0
 54 55  2  0  0  0
 54127  1  0  0  0
 55 57  1  0  0  0
 55128  1  0  0  0
 56 69  2  0  0  0
 57 58  2  0  0  0
 57129  1  0  0  0
 58130  1  0  0  0
 59 60  1  0  0  0
 59 61  1  0  0  0
 59 62  1  0  0  0
 60131  1  0  0  0
 60132  1  0  0  0
 60133  1  0  0  0
 61134  1  0  0  0
 61135  1  0  0  0
 61136  1  0  0  0
 62137  1  0  0  0
 62138  1  0  0  0
 62139  1  0  0  0
 63 65  1  0  0  0
 63140  1  0  0  0
 63141  1  0  0  0
 63142  1  0  0  0
 64143  1  0  0  0
 65144  1  0  0  0
 68 82  1  0  0  0
 71 72  2  0  0  0
 71 73  1  0  0  0
 71145  1  0  0  0
 72 74  1  0  0  0
 72146  1  0  0  0
 73 75  2  0  0  0
 73 78  1  0  0  0
 74 76  1  0  0  0
 74 84  2  0  0  0
 75 83  1  0  0  0
 75 84  1  0  0  0
 76147  1  0  0  0
 76148  1  0  0  0
 76149  1  0  0  0
 77150  1  0  0  0
 77151  1  0  0  0
 77152  1  0  0  0
 77 83  1  0  0  0
 78 79  1  0  0  0
 78153  1  0  0  0
 78154  1  0  0  0
 79 82  1  0  0  0
 79155  1  0  0  0
 79156  1  0  0  0
 80 81  1  0  0  0
 80 83  1  0  0  0
 80157  1  0  0  0
 80158  1  0  0  0
 81 85  1  0  0  0
 81159  1  0  0  0
 81160  1  0  0  0
 82161  1  0  0  0
 82162  1  0  0  0
 83163  1  0  0  0
 85164  1  0  0  0
M  ISO  4   1 100  68 101  82 101  85 100
M  END
> <chiral flag>
0

> <version>
0

> <s_m_source_file>
/data/baiqing/PycharmProjects/Reinvent-master-3.2/result/LINK_invent/BTK/process_docking_weight1_custom_sum_contain_oxygen_bond_distance_aromatic_linkinvent_7_9_3/rearranged_h_0081.sdf

> <i_m_source_file_index>
60

> <r_mmod_Potential_Energy-OPLS-2005>
-192.108215332031

> <r_mmod_Stretch_Energy-OPLS-2005>
59.5702247619629

> <r_mmod_Bend_Energy-OPLS-2005>
125.145080566406

> <r_mmod_Torsional_Energy-OPLS-2005>
196.143844604492

> <r_mmod_Improper_Torsional_Energy-OPLS-2005>
3.76862525939941

> <r_mmod_Van_der_Waal_Energy-OPLS-2005>
160.473190307617

> <r_mmod_Electrostatic_Energy-OPLS-2005>
-544.026977539062

> <r_mmod_Solvation_Energy-OPLS-2005>
-217.946899414062

> <b_mmod_Minimization_Converged-OPLS-2005>
0

> <r_mmod_RMS_Derivative-OPLS-2005>
1.01578688621521

$$$$
60
                    3D
 Structure written by MMmdl.
152160  0  0  1  0            999 V2000
  -30.6393  -14.5129   20.5233 C   0  0  0  0  0  0
  -30.4274  -12.3143   19.4267 C   0  0  0  0  0  0
  -29.4987  -12.5107   18.2087 C   0  0  0  0  0  0
  -28.0185  -12.3542   18.6210 C   0  0  0  0  0  0
  -27.6561  -13.1990   19.8718 C   0  0  2  0  0  0
  -28.6972  -12.9856   20.9923 C   0  0  0  0  0  0
  -25.2562  -13.8132   20.5669 C   0  0  0  0  0  0
  -24.1820  -13.0409   20.9170 C   0  0  0  0  0  0
  -24.6382  -11.6892   20.8700 C   0  0  0  0  0  0
  -23.9039  -10.4292   21.0407 C   0  0  0  0  0  0
  -24.3601   -9.4211   21.9187 C   0  0  0  0  0  0
  -23.6271   -8.2238   22.0737 C   0  0  0  0  0  0
  -22.4247   -8.0261   21.3535 C   0  0  0  0  0  0
  -21.9881   -9.0215   20.4629 C   0  0  0  0  0  0
  -22.7206  -10.2107   20.3055 C   0  0  0  0  0  0
  -21.6854   -6.0713   22.5285 C   0  0  0  0  0  0
  -21.3997   -6.5608   23.8205 C   0  0  0  0  0  0
  -21.3681   -5.6771   24.9168 C   0  0  0  0  0  0
  -21.6062   -4.3032   24.7227 C   0  0  0  0  0  0
  -21.8814   -3.8129   23.4350 C   0  0  0  0  0  0
  -21.9175   -4.6939   22.3406 C   0  0  0  0  0  0
  -22.7851  -13.5199   21.1863 C   0  0  0  0  0  0
  -22.1662   -4.2111   21.0983 F   0  0  0  0  0  0
  -21.5659   -3.4534   25.7750 F   0  0  0  0  0  0
  -30.0221  -13.3017   20.4378 N   0  0  0  0  0  0
  -26.2968  -12.9291   20.3329 N   0  0  0  0  0  0
  -25.9290  -11.6459   20.5708 N   0  0  0  0  0  0
  -22.0509  -12.8184   22.0431 N   0  0  0  0  0  0
  -25.4327  -15.1847   20.4077 N   0  0  0  0  0  0
  -31.7871  -14.7147   20.1197 O   0  0  0  0  0  0
  -21.6640   -6.8847   21.4235 O   0  0  0  0  0  0
  -22.3538  -14.5525   20.6737 O   0  0  0  0  0  0
  -24.6171  -31.8678   23.2107 C   0  0  0  0  0  0
  -25.9064  -32.4819   23.8392 C   0  0  1  0  0  0
  -27.2113  -27.4074   20.0975 C   0  0  0  0  0  0
  -25.5928  -33.8614   24.2341 N   0  0  0  0  0  0
  -23.4042  -30.4942   21.5518 C   0  0  2  0  0  0
  -24.8467  -28.9646   20.1047 C   0  0  0  0  0  0
  -22.7421  -29.4654   22.4969 C   0  0  0  0  0  0
  -18.0269  -28.1370   22.8489 C   0  0  0  0  0  0
  -24.1501  -36.7306   23.2636 C   0  0  0  0  0  0
  -25.9362  -30.8243   21.3697 C   0  0  0  0  0  0
  -26.0107  -29.4599   20.7101 C   0  0  0  0  0  0
  -27.1999  -28.6924   20.6977 C   0  0  0  0  0  0
  -26.0366  -26.9375   19.4762 C   0  0  0  0  0  0
  -24.8591  -27.7055   19.4787 C   0  0  0  0  0  0
  -23.6125  -29.8364   20.1615 C   0  0  0  0  0  0
  -25.4120  -36.3114   24.0342 C   0  0  1  0  0  0
  -20.5865  -28.3662   23.1318 C   0  0  2  0  0  0
  -20.6773  -26.9398   22.5404 C   0  0  0  0  0  0
  -19.5752  -26.6375   21.5205 C   0  0  0  0  0  0
  -18.1928  -26.7919   22.1621 C   0  0  0  0  0  0
  -19.1524  -28.8826   23.2912 C   0  0  0  0  0  0
  -18.9450  -30.1431   23.8927 C   0  0  0  0  0  0
  -17.6455  -30.6570   24.0560 C   0  0  0  0  0  0
  -25.9044  -34.9475   23.5134 C   0  0  0  0  0  0
  -16.5341  -29.9078   23.6306 C   0  0  0  0  0  0
  -16.7260  -28.6494   23.0332 C   0  0  0  0  0  0
  -26.4472  -31.6586   25.0715 C   0  0  0  0  0  0
  -25.3721  -31.3684   26.1447 C   0  0  0  0  0  0
  -27.0297  -30.3033   24.6091 C   0  0  0  0  0  0
  -27.6068  -32.4276   25.7473 C   0  0  0  0  0  0
  -27.5600  -37.1816   24.8469 C   0  0  0  0  0  0
  -21.4145  -29.3040   22.3725 N   0  0  0  0  0  0
  -26.4311  -37.3796   23.9405 N   0  0  0  0  0  0
  -24.6705  -31.0763   22.1027 N   0  0  0  0  0  0
  -23.4189  -28.8177   23.2991 O   0  0  0  0  0  0
  -28.3297  -26.5967   20.1320 O   0  0  0  0  0  0
  -26.5581  -34.8920   22.4685 O   0  0  0  0  0  0
  -23.5357  -32.1438   23.7495 O   0  0  0  0  0  0
  -28.2164  -20.1990   20.9747 C   0  0  0  0  0  0
  -28.8393  -19.2615   20.1938 C   0  0  0  0  0  0
  -28.7638  -17.7385   20.2856 C   0  0  0  0  0  0
  -28.3697  -24.0287   20.0066 C   0  0  0  0  0  0
  -28.0809  -22.7589   20.8756 C   0  0  0  0  0  0
  -30.0511  -16.9835   20.7376 C   0  0  0  0  0  0
  -28.1337  -25.3380   20.8217 C   0  0  0  0  0  0
  -29.4987  -19.9578   19.1742 N   0  0  0  0  0  0
  -29.3020  -21.2464   19.3086 N   0  0  0  0  0  0
  -28.5071  -21.4283   20.3947 N   0  0  0  0  0  0
  -29.8233  -15.5262   20.8866 N   0  0  0  0  0  0
  -31.4746  -12.4169   19.1381 H   0  0  0  0  0  0
  -30.3270  -11.3039   19.8237 H   0  0  0  0  0  0
  -29.7460  -11.7972   17.4190 H   0  0  0  0  0  0
  -29.6563  -13.5037   17.7843 H   0  0  0  0  0  0
  -27.8437  -11.2968   18.8253 H   0  0  0  0  0  0
  -27.3668  -12.6212   17.7874 H   0  0  0  0  0  0
  -27.6960  -14.2433   19.5598 H   0  0  0  0  0  0
  -28.6813  -11.9508   21.3304 H   0  0  0  0  0  0
  -28.4629  -13.5812   21.8779 H   0  0  0  0  0  0
  -25.2747   -9.5673   22.4770 H   0  0  0  0  0  0
  -23.9979   -7.4609   22.7446 H   0  0  0  0  0  0
  -21.0814   -8.8690   19.8927 H   0  0  0  0  0  0
  -22.3638  -10.9617   19.6156 H   0  0  0  0  0  0
  -21.1988   -7.6115   23.9684 H   0  0  0  0  0  0
  -21.1535   -6.0531   25.9076 H   0  0  0  0  0  0
  -22.0590   -2.7591   23.2867 H   0  0  0  0  0  0
  -22.4114  -11.9789   22.4762 H   0  0  0  0  0  0
  -21.1130  -13.1220   22.2681 H   0  0  0  0  0  0
  -24.6650  -15.8395   20.4948 H   0  0  0  0  0  0
  -26.2777  -15.6113   20.0533 H   0  0  0  0  0  0
  -26.7125  -32.5502   23.1134 H   0  0  0  0  0  0
  -25.0151  -33.9777   25.0541 H   0  0  0  0  0  0
  -22.6943  -31.3120   21.4170 H   0  0  0  0  0  0
  -23.3769  -35.9638   23.3310 H   0  0  0  0  0  0
  -24.3601  -36.8896   22.2050 H   0  0  0  0  0  0
  -23.7248  -37.6517   23.6622 H   0  0  0  0  0  0
  -26.0591  -31.5955   20.6076 H   0  0  0  0  0  0
  -26.8211  -30.8699   21.9926 H   0  0  0  0  0  0
  -28.0955  -29.0626   21.1766 H   0  0  0  0  0  0
  -26.0283  -25.9686   18.9953 H   0  0  0  0  0  0
  -23.9696  -27.3285   18.9922 H   0  0  0  0  0  0
  -23.7220  -30.6175   19.4076 H   0  0  0  0  0  0
  -22.7335  -29.2632   19.8602 H   0  0  0  0  0  0
  -25.1304  -36.1997   25.0835 H   0  0  0  0  0  0
  -20.9963  -28.3214   24.1446 H   0  0  0  0  0  0
  -20.5691  -26.2263   23.3591 H   0  0  0  0  0  0
  -21.6647  -26.7450   22.1197 H   0  0  0  0  0  0
  -19.6925  -25.6289   21.1241 H   0  0  0  0  0  0
  -19.6700  -27.3183   20.6736 H   0  0  0  0  0  0
  -17.4208  -26.6656   21.4018 H   0  0  0  0  0  0
  -18.0335  -26.0043   22.9004 H   0  0  0  0  0  0
  -19.7918  -30.7231   24.2336 H   0  0  0  0  0  0
  -17.4997  -31.6261   24.5150 H   0  0  0  0  0  0
  -15.5347  -30.2996   23.7598 H   0  0  0  0  0  0
  -15.8660  -28.0816   22.7043 H   0  0  0  0  0  0
  -24.5903  -30.7038   25.7757 H   0  0  0  0  0  0
  -24.8894  -32.2833   26.4894 H   0  0  0  0  0  0
  -25.8048  -30.8835   27.0208 H   0  0  0  0  0  0
  -26.2843  -29.6799   24.1143 H   0  0  0  0  0  0
  -27.4078  -29.7260   25.4537 H   0  0  0  0  0  0
  -27.8676  -30.4360   23.9240 H   0  0  0  0  0  0
  -27.2730  -33.3573   26.2085 H   0  0  0  0  0  0
  -28.3859  -32.6828   25.0280 H   0  0  0  0  0  0
  -28.0751  -31.8360   26.5349 H   0  0  0  0  0  0
  -28.2624  -38.0107   24.7513 H   0  0  0  0  0  0
  -28.1090  -36.2638   24.6310 H   0  0  0  0  0  0
  -27.2305  -37.1492   25.8866 H   0  0  0  0  0  0
  -20.9294  -29.8802   21.6996 H   0  0  0  0  0  0
  -26.0214  -38.2892   24.1361 H   0  0  0  0  0  0
  -27.5908  -20.0993   21.8529 H   0  0  0  0  0  0
  -28.4339  -17.3349   19.3258 H   0  0  0  0  0  0
  -27.9650  -17.4857   20.9826 H   0  0  0  0  0  0
  -27.7173  -24.0232   19.1318 H   0  0  0  0  0  0
  -29.3970  -24.0192   19.6407 H   0  0  0  0  0  0
  -27.0065  -22.7084   21.0648 H   0  0  0  0  0  0
  -28.5466  -22.8915   21.8526 H   0  0  0  0  0  0
  -30.3924  -17.3727   21.6971 H   0  0  0  0  0  0
  -30.8481  -17.1662   20.0143 H   0  0  0  0  0  0
  -28.8267  -25.3409   21.6643 H   0  0  0  0  0  0
  -27.1433  -25.2914   21.2816 H   0  0  0  0  0  0
  -28.9085  -15.2386   21.2018 H   0  0  0  0  0  0
  1 25  1  0  0  0
  1 30  2  0  0  0
  1 81  1  0  0  0
  2  3  1  0  0  0
  2 25  1  0  0  0
  2 82  1  0  0  0
  2 83  1  0  0  0
  3  4  1  0  0  0
  3 84  1  0  0  0
  3 85  1  0  0  0
  4  5  1  0  0  0
  4 86  1  0  0  0
  4 87  1  0  0  0
  5  6  1  0  0  0
  5 26  1  0  0  0
  5 88  1  0  0  0
  6 25  1  0  0  0
  6 89  1  0  0  0
  6 90  1  0  0  0
  7  8  2  0  0  0
  7 26  1  0  0  0
  7 29  1  0  0  0
  8  9  1  0  0  0
  8 22  1  0  0  0
  9 10  1  0  0  0
  9 27  2  0  0  0
 10 11  2  0  0  0
 10 15  1  0  0  0
 11 12  1  0  0  0
 11 91  1  0  0  0
 12 13  2  0  0  0
 12 92  1  0  0  0
 13 14  1  0  0  0
 13 31  1  0  0  0
 14 15  2  0  0  0
 14 93  1  0  0  0
 15 94  1  0  0  0
 16 17  2  0  0  0
 16 21  1  0  0  0
 16 31  1  0  0  0
 17 18  1  0  0  0
 17 95  1  0  0  0
 18 19  2  0  0  0
 18 96  1  0  0  0
 19 20  1  0  0  0
 19 24  1  0  0  0
 20 21  2  0  0  0
 20 97  1  0  0  0
 21 23  1  0  0  0
 22 28  1  0  0  0
 22 32  2  0  0  0
 26 27  1  0  0  0
 28 98  1  0  0  0
 28 99  1  0  0  0
 29100  1  0  0  0
 29101  1  0  0  0
 33 34  1  0  0  0
 33 66  1  0  0  0
 33 70  2  0  0  0
 34 36  1  0  0  0
 34 59  1  0  0  0
 34102  1  0  0  0
 35 44  2  0  0  0
 35 45  1  0  0  0
 35 68  1  0  0  0
 36 56  1  0  0  0
 36103  1  0  0  0
 37 39  1  0  0  0
 37 47  1  0  0  0
 37 66  1  0  0  0
 37104  1  0  0  0
 38 43  2  0  0  0
 38 46  1  0  0  0
 38 47  1  0  0  0
 39 64  1  0  0  0
 39 67  2  0  0  0
 40 52  1  0  0  0
 40 53  2  0  0  0
 40 58  1  0  0  0
 41105  1  0  0  0
 41106  1  0  0  0
 41107  1  0  0  0
 41 48  1  0  0  0
 42 43  1  0  0  0
 42 66  1  0  0  0
 42108  1  0  0  0
 42109  1  0  0  0
 43 44  1  0  0  0
 44110  1  0  0  0
 45 46  2  0  0  0
 45111  1  0  0  0
 46112  1  0  0  0
 47113  1  0  0  0
 47114  1  0  0  0
 48 56  1  0  0  0
 48 65  1  0  0  0
 48115  1  0  0  0
 49 50  1  0  0  0
 49 53  1  0  0  0
 49 64  1  0  0  0
 49116  1  0  0  0
 50 51  1  0  0  0
 50117  1  0  0  0
 50118  1  0  0  0
 51 52  1  0  0  0
 51119  1  0  0  0
 51120  1  0  0  0
 52121  1  0  0  0
 52122  1  0  0  0
 53 54  1  0  0  0
 54 55  2  0  0  0
 54123  1  0  0  0
 55 57  1  0  0  0
 55124  1  0  0  0
 56 69  2  0  0  0
 57 58  2  0  0  0
 57125  1  0  0  0
 58126  1  0  0  0
 59 60  1  0  0  0
 59 61  1  0  0  0
 59 62  1  0  0  0
 60127  1  0  0  0
 60128  1  0  0  0
 60129  1  0  0  0
 61130  1  0  0  0
 61131  1  0  0  0
 61132  1  0  0  0
 62133  1  0  0  0
 62134  1  0  0  0
 62135  1  0  0  0
 63 65  1  0  0  0
 63136  1  0  0  0
 63137  1  0  0  0
 63138  1  0  0  0
 64139  1  0  0  0
 65140  1  0  0  0
 68 77  1  0  0  0
 71 72  2  0  0  0
 71 80  1  0  0  0
 71141  1  0  0  0
 72 73  1  0  0  0
 72 78  1  0  0  0
 73 76  1  0  0  0
 73142  1  0  0  0
 73143  1  0  0  0
 74 75  1  0  0  0
 74 77  1  0  0  0
 74144  1  0  0  0
 74145  1  0  0  0
 75 80  1  0  0  0
 75146  1  0  0  0
 75147  1  0  0  0
 76 81  1  0  0  0
 76148  1  0  0  0
 76149  1  0  0  0
 77150  1  0  0  0
 77151  1  0  0  0
 78 79  2  0  0  0
 79 80  1  0  0  0
 81152  1  0  0  0
M  ISO  4   1 100  68 101  77 101  81 100
M  END
> <chiral flag>
0

> <version>
0

> <s_m_source_file>
/data/baiqing/PycharmProjects/Reinvent-master-3.2/result/LINK_invent/BTK/process_docking_weight1_custom_sum_contain_oxygen_bond_distance_aromatic_linkinvent_7_9_3/rearranged_h_0081.sdf

> <i_m_source_file_index>
61

> <r_mmod_Potential_Energy-OPLS-2005>
-97.7801895141602

> <r_mmod_Stretch_Energy-OPLS-2005>
41.5609130859375

> <r_mmod_Bend_Energy-OPLS-2005>
104.283058166504

> <r_mmod_Torsional_Energy-OPLS-2005>
219.888259887695

> <r_mmod_Improper_Torsional_Energy-OPLS-2005>
5.40003347396851

> <r_mmod_Van_der_Waal_Energy-OPLS-2005>
123.579742431641

> <r_mmod_Electrostatic_Energy-OPLS-2005>
-377.597290039062

> <r_mmod_Solvation_Energy-OPLS-2005>
-236.130554199219

> <b_mmod_Minimization_Converged-OPLS-2005>
0

> <r_mmod_RMS_Derivative-OPLS-2005>
4.23205900192261

$$$$
61
                    3D
 Structure written by MMmdl.
163171  0  0  1  0            999 V2000
  -30.5406  -14.9661   20.4263 C   0  0  0  0  0  0
  -30.4408  -12.6101   19.4812 C   0  0  0  0  0  0
  -29.5088  -12.5178   18.2502 C   0  0  0  0  0  0
  -28.0415  -12.3186   18.6739 C   0  0  0  0  0  0
  -27.6254  -13.2503   19.8420 C   0  0  2  0  0  0
  -28.6775  -13.2859   20.9698 C   0  0  0  0  0  0
  -25.2412  -13.8244   20.5731 C   0  0  0  0  0  0
  -24.1735  -13.0458   20.9260 C   0  0  0  0  0  0
  -24.6366  -11.6942   20.8817 C   0  0  0  0  0  0
  -23.9069  -10.4303   21.0440 C   0  0  0  0  0  0
  -24.3606   -9.4210   21.9209 C   0  0  0  0  0  0
  -23.6287   -8.2239   22.0744 C   0  0  0  0  0  0
  -22.4282   -8.0280   21.3535 C   0  0  0  0  0  0
  -21.9923   -9.0267   20.4645 C   0  0  0  0  0  0
  -22.7248  -10.2148   20.3079 C   0  0  0  0  0  0
  -21.6857   -6.0724   22.5262 C   0  0  0  0  0  0
  -21.4013   -6.5631   23.8185 C   0  0  0  0  0  0
  -21.3664   -5.6788   24.9153 C   0  0  0  0  0  0
  -21.6054   -4.3052   24.7204 C   0  0  0  0  0  0
  -21.8832   -3.8141   23.4335 C   0  0  0  0  0  0
  -21.9192   -4.6954   22.3377 C   0  0  0  0  0  0
  -22.7755  -13.5205   21.1944 C   0  0  0  0  0  0
  -22.1661   -4.2136   21.0961 F   0  0  0  0  0  0
  -21.5639   -3.4541   25.7727 F   0  0  0  0  0  0
  -29.9415  -13.7094   20.3514 N   0  0  0  0  0  0
  -26.2862  -12.9470   20.3344 N   0  0  0  0  0  0
  -25.9303  -11.6605   20.5836 N   0  0  0  0  0  0
  -22.0439  -12.8143   22.0494 N   0  0  0  0  0  0
  -25.4089  -15.1959   20.4066 N   0  0  0  0  0  0
  -31.7576  -15.0228   20.2247 O   0  0  0  0  0  0
  -21.6654   -6.8872   21.4218 O   0  0  0  0  0  0
  -22.3415  -14.5517   20.6823 O   0  0  0  0  0  0
  -24.6499  -31.8328   23.1812 C   0  0  0  0  0  0
  -25.9260  -32.4590   23.8221 C   0  0  1  0  0  0
  -27.2173  -27.0860   20.1876 C   0  0  0  0  0  0
  -25.5996  -33.8398   24.2135 N   0  0  0  0  0  0
  -23.4529  -30.4546   21.5264 C   0  0  2  0  0  0
  -24.9010  -28.8639   20.1095 C   0  0  0  0  0  0
  -22.7562  -29.4519   22.4826 C   0  0  0  0  0  0
  -18.0290  -28.1388   22.8480 C   0  0  0  0  0  0
  -24.1460  -36.7186   23.2663 C   0  0  0  0  0  0
  -26.0103  -30.6905   21.3878 C   0  0  0  0  0  0
  -26.0768  -29.2991   20.7324 C   0  0  0  0  0  0
  -27.2319  -28.4272   20.7526 C   0  0  0  0  0  0
  -26.0222  -26.7623   19.5083 C   0  0  0  0  0  0
  -24.8886  -27.6102   19.4804 C   0  0  0  0  0  0
  -23.6837  -29.7784   20.1452 C   0  0  0  0  0  0
  -25.4091  -36.2934   24.0305 C   0  0  1  0  0  0
  -20.5903  -28.3715   23.1214 C   0  0  2  0  0  0
  -20.6776  -26.9413   22.5414 C   0  0  0  0  0  0
  -19.5755  -26.6378   21.5215 C   0  0  0  0  0  0
  -18.1922  -26.7927   22.1618 C   0  0  0  0  0  0
  -19.1550  -28.8870   23.2835 C   0  0  0  0  0  0
  -18.9502  -30.1477   23.8847 C   0  0  0  0  0  0
  -17.6511  -30.6604   24.0566 C   0  0  0  0  0  0
  -25.9075  -34.9316   23.5013 C   0  0  0  0  0  0
  -16.5392  -29.9087   23.6370 C   0  0  0  0  0  0
  -16.7277  -28.6505   23.0383 C   0  0  0  0  0  0
  -26.4600  -31.6508   25.0707 C   0  0  0  0  0  0
  -25.3790  -31.3743   26.1423 C   0  0  0  0  0  0
  -27.0510  -30.2874   24.6384 C   0  0  0  0  0  0
  -27.6029  -32.4386   25.7520 C   0  0  0  0  0  0
  -27.5512  -37.1731   24.8483 C   0  0  0  0  0  0
  -21.4242  -29.3028   22.3563 N   0  0  0  0  0  0
  -26.4206  -37.3691   23.9445 N   0  0  0  0  0  0
  -24.7245  -31.0143   22.0867 N   0  0  0  0  0  0
  -23.4174  -28.8096   23.3021 O   0  0  0  0  0  0
  -28.2700  -26.0889   20.2959 O   0  0  0  0  0  0
  -26.5656  -34.8856   22.4589 O   0  0  0  0  0  0
  -23.5620  -32.1233   23.7032 O   0  0  0  0  0  0
  -31.8684  -22.5430   21.2887 C   0  0  0  0  0  0
  -31.5761  -23.9196   21.2521 C   0  0  0  0  0  0
  -29.6751  -22.0005   20.6227 C   0  0  0  0  0  0
  -29.3593  -23.5067   20.5676 C   0  0  0  0  0  0
  -33.2211  -21.9923   21.7155 C   0  0  0  0  0  0
  -32.3079  -25.4329   23.1383 C   0  0  0  0  0  0
  -27.0455  -24.2140   21.4388 C   0  0  0  0  0  0
  -32.5577  -24.9970   21.6864 C   0  0  0  0  0  0
  -28.8715  -20.5707   20.5766 C   0  0  0  0  0  0
  -29.4686  -19.0530   20.0355 C   0  0  0  0  0  0
  -30.0111  -17.6835   20.8826 C   0  0  0  0  0  0
  -28.0671  -24.5124   20.3280 C   0  0  1  0  0  0
  -30.9345  -21.6244   20.9722 N   0  0  0  0  0  0
  -30.3590  -24.3653   20.8879 N   0  0  0  0  0  0
  -29.7515  -16.1517   20.5296 N   0  0  0  0  0  0
  -31.4650  -12.7885   19.1521 H   0  0  0  0  0  0
  -30.4595  -11.6669   20.0293 H   0  0  0  0  0  0
  -29.8207  -11.6968   17.6045 H   0  0  0  0  0  0
  -29.5935  -13.4281   17.6557 H   0  0  0  0  0  0
  -27.9215  -11.2760   18.9722 H   0  0  0  0  0  0
  -27.3771  -12.4717   17.8211 H   0  0  0  0  0  0
  -27.5839  -14.2518   19.4141 H   0  0  0  0  0  0
  -28.7787  -12.3133   21.4528 H   0  0  0  0  0  0
  -28.3787  -13.9879   21.7487 H   0  0  0  0  0  0
  -25.2724   -9.5689   22.4806 H   0  0  0  0  0  0
  -24.0011   -7.4608   22.7434 H   0  0  0  0  0  0
  -21.0877   -8.8795   19.8907 H   0  0  0  0  0  0
  -22.3724  -10.9701   19.6200 H   0  0  0  0  0  0
  -21.2008   -7.6144   23.9683 H   0  0  0  0  0  0
  -21.1481   -6.0520   25.9052 H   0  0  0  0  0  0
  -22.0614   -2.7603   23.2831 H   0  0  0  0  0  0
  -22.4081  -11.9768   22.4800 H   0  0  0  0  0  0
  -21.1067  -13.1130   22.2807 H   0  0  0  0  0  0
  -24.6363  -15.8492   20.4823 H   0  0  0  0  0  0
  -26.2554  -15.6304   20.0647 H   0  0  0  0  0  0
  -26.7310  -32.5169   23.0913 H   0  0  0  0  0  0
  -25.0185  -33.9504   25.0323 H   0  0  0  0  0  0
  -22.7628  -31.2841   21.3633 H   0  0  0  0  0  0
  -23.3691  -35.9553   23.3326 H   0  0  0  0  0  0
  -24.3558  -36.8828   22.2088 H   0  0  0  0  0  0
  -23.7257  -37.6383   23.6733 H   0  0  0  0  0  0
  -26.1875  -31.4407   20.6174 H   0  0  0  0  0  0
  -26.8727  -30.7248   22.0404 H   0  0  0  0  0  0
  -28.1159  -28.7540   21.2779 H   0  0  0  0  0  0
  -25.9393  -25.8011   19.0261 H   0  0  0  0  0  0
  -23.9963  -27.2638   18.9751 H   0  0  0  0  0  0
  -23.8384  -30.5549   19.3954 H   0  0  0  0  0  0
  -22.7956  -29.2355   19.8211 H   0  0  0  0  0  0
  -25.1284  -36.1675   25.0790 H   0  0  0  0  0  0
  -21.0014  -28.3294   24.1325 H   0  0  0  0  0  0
  -20.5672  -26.2322   23.3645 H   0  0  0  0  0  0
  -21.6631  -26.7401   22.1196 H   0  0  0  0  0  0
  -19.6920  -25.6283   21.1243 H   0  0  0  0  0  0
  -19.6674  -27.3196   20.6747 H   0  0  0  0  0  0
  -17.4206  -26.6701   21.4014 H   0  0  0  0  0  0
  -18.0267  -26.0069   22.9008 H   0  0  0  0  0  0
  -19.8007  -30.7295   24.2153 H   0  0  0  0  0  0
  -17.5091  -31.6277   24.5181 H   0  0  0  0  0  0
  -15.5398  -30.3000   23.7736 H   0  0  0  0  0  0
  -15.8669  -28.0832   22.7125 H   0  0  0  0  0  0
  -24.5950  -30.7079   25.7826 H   0  0  0  0  0  0
  -24.9051  -32.2963   26.4790 H   0  0  0  0  0  0
  -25.8115  -30.9002   27.0239 H   0  0  0  0  0  0
  -26.3146  -29.6499   24.1477 H   0  0  0  0  0  0
  -27.4168  -29.7261   25.5001 H   0  0  0  0  0  0
  -27.9013  -30.4069   23.9653 H   0  0  0  0  0  0
  -27.2469  -33.3698   26.1925 H   0  0  0  0  0  0
  -28.3903  -32.6949   25.0427 H   0  0  0  0  0  0
  -28.0601  -31.8669   26.5616 H   0  0  0  0  0  0
  -28.2519  -38.0037   24.7491 H   0  0  0  0  0  0
  -28.0991  -36.2554   24.6294 H   0  0  0  0  0  0
  -27.2243  -37.1330   25.8893 H   0  0  0  0  0  0
  -20.9452  -29.8769   21.6765 H   0  0  0  0  0  0
  -26.0004  -38.2703   24.1550 H   0  0  0  0  0  0
  -33.8800  -21.9048   20.8518 H   0  0  0  0  0  0
  -33.1146  -21.0037   22.1641 H   0  0  0  0  0  0
  -33.7118  -22.6204   22.4577 H   0  0  0  0  0  0
  -32.9952  -26.2195   23.4484 H   0  0  0  0  0  0
  -32.4245  -24.5952   23.8273 H   0  0  0  0  0  0
  -31.2958  -25.8193   23.2557 H   0  0  0  0  0  0
  -26.7379  -23.1677   21.4157 H   0  0  0  0  0  0
  -26.1417  -24.8084   21.3466 H   0  0  0  0  0  0
  -27.4736  -24.4098   22.4225 H   0  0  0  0  0  0
  -32.4379  -25.8589   21.0280 H   0  0  0  0  0  0
  -33.5879  -24.6690   21.5501 H   0  0  0  0  0  0
  -27.9872  -20.7823   19.9801 H   0  0  0  0  0  0
  -28.4771  -20.4138   21.5822 H   0  0  0  0  0  0
  -30.2051  -19.2659   19.2582 H   0  0  0  0  0  0
  -28.6291  -18.6517   19.4706 H   0  0  0  0  0  0
  -29.6131  -17.7861   21.8907 H   0  0  0  0  0  0
  -31.0899  -17.7880   21.0127 H   0  0  0  0  0  0
  -27.6357  -24.2207   19.3682 H   0  0  0  0  0  0
  -28.7684  -15.9273   20.5109 H   0  0  0  0  0  0
  1 25  1  0  0  0
  1 30  2  0  0  0
  1 85  1  0  0  0
  2  3  1  0  0  0
  2 25  1  0  0  0
  2 86  1  0  0  0
  2 87  1  0  0  0
  3  4  1  0  0  0
  3 88  1  0  0  0
  3 89  1  0  0  0
  4  5  1  0  0  0
  4 90  1  0  0  0
  4 91  1  0  0  0
  5  6  1  0  0  0
  5 26  1  0  0  0
  5 92  1  0  0  0
  6 25  1  0  0  0
  6 93  1  0  0  0
  6 94  1  0  0  0
  7  8  2  0  0  0
  7 26  1  0  0  0
  7 29  1  0  0  0
  8  9  1  0  0  0
  8 22  1  0  0  0
  9 10  1  0  0  0
  9 27  2  0  0  0
 10 11  2  0  0  0
 10 15  1  0  0  0
 11 12  1  0  0  0
 11 95  1  0  0  0
 12 13  2  0  0  0
 12 96  1  0  0  0
 13 14  1  0  0  0
 13 31  1  0  0  0
 14 15  2  0  0  0
 14 97  1  0  0  0
 15 98  1  0  0  0
 16 17  2  0  0  0
 16 21  1  0  0  0
 16 31  1  0  0  0
 17 18  1  0  0  0
 17 99  1  0  0  0
 18 19  2  0  0  0
 18100  1  0  0  0
 19 20  1  0  0  0
 19 24  1  0  0  0
 20 21  2  0  0  0
 20101  1  0  0  0
 21 23  1  0  0  0
 22 28  1  0  0  0
 22 32  2  0  0  0
 26 27  1  0  0  0
 28102  1  0  0  0
 28103  1  0  0  0
 29104  1  0  0  0
 29105  1  0  0  0
 33 34  1  0  0  0
 33 66  1  0  0  0
 33 70  2  0  0  0
 34 36  1  0  0  0
 34 59  1  0  0  0
 34106  1  0  0  0
 35 44  2  0  0  0
 35 45  1  0  0  0
 35 68  1  0  0  0
 36 56  1  0  0  0
 36107  1  0  0  0
 37 39  1  0  0  0
 37 47  1  0  0  0
 37 66  1  0  0  0
 37108  1  0  0  0
 38 43  2  0  0  0
 38 46  1  0  0  0
 38 47  1  0  0  0
 39 64  1  0  0  0
 39 67  2  0  0  0
 40 52  1  0  0  0
 40 53  2  0  0  0
 40 58  1  0  0  0
 41109  1  0  0  0
 41110  1  0  0  0
 41111  1  0  0  0
 41 48  1  0  0  0
 42 43  1  0  0  0
 42 66  1  0  0  0
 42112  1  0  0  0
 42113  1  0  0  0
 43 44  1  0  0  0
 44114  1  0  0  0
 45 46  2  0  0  0
 45115  1  0  0  0
 46116  1  0  0  0
 47117  1  0  0  0
 47118  1  0  0  0
 48 56  1  0  0  0
 48 65  1  0  0  0
 48119  1  0  0  0
 49 50  1  0  0  0
 49 53  1  0  0  0
 49 64  1  0  0  0
 49120  1  0  0  0
 50 51  1  0  0  0
 50121  1  0  0  0
 50122  1  0  0  0
 51 52  1  0  0  0
 51123  1  0  0  0
 51124  1  0  0  0
 52125  1  0  0  0
 52126  1  0  0  0
 53 54  1  0  0  0
 54 55  2  0  0  0
 54127  1  0  0  0
 55 57  1  0  0  0
 55128  1  0  0  0
 56 69  2  0  0  0
 57 58  2  0  0  0
 57129  1  0  0  0
 58130  1  0  0  0
 59 60  1  0  0  0
 59 61  1  0  0  0
 59 62  1  0  0  0
 60131  1  0  0  0
 60132  1  0  0  0
 60133  1  0  0  0
 61134  1  0  0  0
 61135  1  0  0  0
 61136  1  0  0  0
 62137  1  0  0  0
 62138  1  0  0  0
 62139  1  0  0  0
 63 65  1  0  0  0
 63140  1  0  0  0
 63141  1  0  0  0
 63142  1  0  0  0
 64143  1  0  0  0
 65144  1  0  0  0
 68 82  1  0  0  0
 71 72  2  0  0  0
 71 75  1  0  0  0
 71 83  1  0  0  0
 72 78  1  0  0  0
 72 84  1  0  0  0
 73 74  1  0  0  0
 73 79  1  0  0  0
 73 83  2  0  0  0
 74 82  1  0  0  0
 74 84  2  0  0  0
 75145  1  0  0  0
 75146  1  0  0  0
 75147  1  0  0  0
 76 78  1  0  0  0
 76148  1  0  0  0
 76149  1  0  0  0
 76150  1  0  0  0
 77151  1  0  0  0
 77152  1  0  0  0
 77153  1  0  0  0
 77 82  1  0  0  0
 78154  1  0  0  0
 78155  1  0  0  0
 79 80  1  0  0  0
 79156  1  0  0  0
 79157  1  0  0  0
 80 81  1  0  0  0
 80158  1  0  0  0
 80159  1  0  0  0
 81 85  1  0  0  0
 81160  1  0  0  0
 81161  1  0  0  0
 82162  1  0  0  0
 85163  1  0  0  0
M  ISO  4   1 100  68 101  82 101  85 100
M  END
> <chiral flag>
0

> <version>
0

> <s_m_source_file>
/data/baiqing/PycharmProjects/Reinvent-master-3.2/result/LINK_invent/BTK/process_docking_weight1_custom_sum_contain_oxygen_bond_distance_aromatic_linkinvent_7_9_3/rearranged_h_0081.sdf

> <i_m_source_file_index>
62

> <r_mmod_Potential_Energy-OPLS-2005>
702.890014648438

> <r_mmod_Stretch_Energy-OPLS-2005>
320.803497314453

> <r_mmod_Bend_Energy-OPLS-2005>
358.317077636719

> <r_mmod_Torsional_Energy-OPLS-2005>
218.52294921875

> <r_mmod_Improper_Torsional_Energy-OPLS-2005>
5.21884298324585

> <r_mmod_Van_der_Waal_Energy-OPLS-2005>
126.978210449219

> <r_mmod_Electrostatic_Energy-OPLS-2005>
-322.479461669922

> <r_mmod_Solvation_Energy-OPLS-2005>
-230.222961425781

> <b_mmod_Minimization_Converged-OPLS-2005>
0

> <r_mmod_RMS_Derivative-OPLS-2005>
4.84512662887573

$$$$
62
                    3D
 Structure written by MMmdl.
170178  0  0  1  0            999 V2000
  -30.6626  -14.4748   20.4995 C   0  0  0  0  0  0
  -30.4195  -12.2793   19.4456 C   0  0  0  0  0  0
  -29.5073  -12.5055   18.2197 C   0  0  0  0  0  0
  -28.0213  -12.3686   18.6169 C   0  0  0  0  0  0
  -27.6592  -13.2044   19.8756 C   0  0  2  0  0  0
  -28.6991  -12.9892   21.0038 C   0  0  0  0  0  0
  -25.2574  -13.8146   20.5722 C   0  0  0  0  0  0
  -24.1823  -13.0422   20.9202 C   0  0  0  0  0  0
  -24.6365  -11.6886   20.8728 C   0  0  0  0  0  0
  -23.9025  -10.4270   21.0368 C   0  0  0  0  0  0
  -24.3593   -9.4201   21.9156 C   0  0  0  0  0  0
  -23.6292   -8.2231   22.0714 C   0  0  0  0  0  0
  -22.4282   -8.0245   21.3508 C   0  0  0  0  0  0
  -21.9893   -9.0209   20.4621 C   0  0  0  0  0  0
  -22.7198  -10.2104   20.3023 C   0  0  0  0  0  0
  -21.6850   -6.0718   22.5278 C   0  0  0  0  0  0
  -21.4006   -6.5620   23.8216 C   0  0  0  0  0  0
  -21.3666   -5.6773   24.9176 C   0  0  0  0  0  0
  -21.6051   -4.3040   24.7221 C   0  0  0  0  0  0
  -21.8819   -3.8123   23.4345 C   0  0  0  0  0  0
  -21.9186   -4.6942   22.3399 C   0  0  0  0  0  0
  -22.7851  -13.5225   21.1866 C   0  0  0  0  0  0
  -22.1667   -4.2124   21.0984 F   0  0  0  0  0  0
  -21.5622   -3.4525   25.7739 F   0  0  0  0  0  0
  -30.0375  -13.2705   20.4599 N   0  0  0  0  0  0
  -26.3005  -12.9297   20.3373 N   0  0  0  0  0  0
  -25.9295  -11.6461   20.5751 N   0  0  0  0  0  0
  -22.0479  -12.8210   22.0418 N   0  0  0  0  0  0
  -25.4316  -15.1867   20.4145 N   0  0  0  0  0  0
  -31.8125  -14.6604   20.0884 O   0  0  0  0  0  0
  -21.6628   -6.8858   21.4239 O   0  0  0  0  0  0
  -22.3546  -14.5529   20.6691 O   0  0  0  0  0  0
  -24.6116  -31.8674   23.2097 C   0  0  0  0  0  0
  -25.9016  -32.4813   23.8391 C   0  0  1  0  0  0
  -27.2398  -27.4643   20.1144 C   0  0  0  0  0  0
  -25.5864  -33.8612   24.2315 N   0  0  0  0  0  0
  -23.3978  -30.4913   21.5443 C   0  0  2  0  0  0
  -24.8510  -28.9596   20.1088 C   0  0  0  0  0  0
  -22.7395  -29.4657   22.4940 C   0  0  0  0  0  0
  -18.0265  -28.1383   22.8467 C   0  0  0  0  0  0
  -24.1482  -36.7344   23.2632 C   0  0  0  0  0  0
  -25.9236  -30.8467   21.3564 C   0  0  0  0  0  0
  -26.0063  -29.4820   20.7085 C   0  0  0  0  0  0
  -27.2048  -28.7404   20.7108 C   0  0  0  0  0  0
  -26.0785  -26.9479   19.5039 C   0  0  0  0  0  0
  -24.8828  -27.6903   19.5025 C   0  0  0  0  0  0
  -23.6078  -29.8189   20.1597 C   0  0  0  0  0  0
  -25.4093  -36.3100   24.0330 C   0  0  1  0  0  0
  -20.5856  -28.3655   23.1300 C   0  0  2  0  0  0
  -20.6759  -26.9391   22.5406 C   0  0  0  0  0  0
  -19.5743  -26.6398   21.5192 C   0  0  0  0  0  0
  -18.1918  -26.7939   22.1598 C   0  0  0  0  0  0
  -19.1517  -28.8843   23.2886 C   0  0  0  0  0  0
  -18.9444  -30.1448   23.8877 C   0  0  0  0  0  0
  -17.6449  -30.6569   24.0571 C   0  0  0  0  0  0
  -25.9019  -34.9462   23.5128 C   0  0  0  0  0  0
  -16.5335  -29.9075   23.6336 C   0  0  0  0  0  0
  -16.7261  -28.6508   23.0316 C   0  0  0  0  0  0
  -26.4463  -31.6576   25.0708 C   0  0  0  0  0  0
  -25.3762  -31.3681   26.1490 C   0  0  0  0  0  0
  -27.0293  -30.3014   24.6063 C   0  0  0  0  0  0
  -27.6026  -32.4303   25.7482 C   0  0  0  0  0  0
  -27.5571  -37.1825   24.8446 C   0  0  0  0  0  0
  -21.4111  -29.3025   22.3695 N   0  0  0  0  0  0
  -26.4276  -37.3787   23.9395 N   0  0  0  0  0  0
  -24.6610  -31.0844   22.0946 N   0  0  0  0  0  0
  -23.4177  -28.8213   23.2970 O   0  0  0  0  0  0
  -28.3761  -26.7029   20.1693 O   0  0  0  0  0  0
  -26.5609  -34.8926   22.4701 O   0  0  0  0  0  0
  -23.5322  -32.1372   23.7529 O   0  0  0  0  0  0
  -29.8928  -21.5890   19.6462 C   0  0  0  0  0  0
  -32.0021  -20.4813   19.9255 C   0  0  0  0  0  0
  -30.6512  -20.4031   19.5272 C   0  0  0  0  0  0
  -30.5035  -22.7863   20.0756 C   0  0  0  0  0  0
  -31.8710  -22.7454   20.4278 C   0  0  0  0  0  0
  -32.6608  -23.9678   20.8597 C   0  0  0  0  0  0
  -28.4638  -20.0852   17.1260 C   0  0  0  0  0  0
  -30.9838  -18.6210   17.7873 C   0  0  0  0  0  0
  -29.6701  -24.0674   20.0227 C   0  0  0  0  0  0
  -28.6226  -19.2441   18.4102 C   0  0  0  0  0  0
  -29.5727  -24.8884   21.3190 C   0  0  0  0  0  0
  -30.0889  -17.9953   20.0934 C   0  0  0  0  0  0
  -29.6864  -16.5631   19.6569 C   0  0  0  0  0  0
  -28.3592  -25.8318   21.3049 C   0  0  0  0  0  0
  -30.0780  -19.0794   18.9589 C   0  0  2  0  0  0
  -32.5919  -21.6085   20.3722 N   0  0  0  0  0  0
  -29.8256  -15.5104   20.6773 N   0  0  0  0  0  0
  -31.4721  -12.3577   19.1680 H   0  0  0  0  0  0
  -30.2892  -11.2684   19.8371 H   0  0  0  0  0  0
  -29.7566  -11.7915   17.4346 H   0  0  0  0  0  0
  -29.6907  -13.4964   17.7988 H   0  0  0  0  0  0
  -27.8257  -11.3126   18.8069 H   0  0  0  0  0  0
  -27.3803  -12.6480   17.7797 H   0  0  0  0  0  0
  -27.6924  -14.2504   19.5696 H   0  0  0  0  0  0
  -28.6619  -11.9596   21.3631 H   0  0  0  0  0  0
  -28.4800  -13.6123   21.8727 H   0  0  0  0  0  0
  -25.2734   -9.5699   22.4728 H   0  0  0  0  0  0
  -23.9997   -7.4617   22.7432 H   0  0  0  0  0  0
  -21.0808   -8.8700   19.8952 H   0  0  0  0  0  0
  -22.3619  -10.9614   19.6117 H   0  0  0  0  0  0
  -21.1998   -7.6128   23.9723 H   0  0  0  0  0  0
  -21.1505   -6.0498   25.9092 H   0  0  0  0  0  0
  -22.0601   -2.7581   23.2846 H   0  0  0  0  0  0
  -22.4088  -11.9867   22.4809 H   0  0  0  0  0  0
  -21.1082  -13.1209   22.2576 H   0  0  0  0  0  0
  -24.6630  -15.8415   20.5091 H   0  0  0  0  0  0
  -26.2833  -15.6249   20.0891 H   0  0  0  0  0  0
  -26.7095  -32.5553   23.1180 H   0  0  0  0  0  0
  -24.9974  -33.9760   25.0429 H   0  0  0  0  0  0
  -22.6828  -31.3050   21.4030 H   0  0  0  0  0  0
  -23.3721  -35.9702   23.3286 H   0  0  0  0  0  0
  -24.3577  -36.8980   22.2049 H   0  0  0  0  0  0
  -23.7276  -37.6562   23.6664 H   0  0  0  0  0  0
  -26.0309  -31.6091   20.5834 H   0  0  0  0  0  0
  -26.8155  -30.9067   21.9698 H   0  0  0  0  0  0
  -28.0946  -29.1322   21.1848 H   0  0  0  0  0  0
  -26.1008  -25.9658   19.0518 H   0  0  0  0  0  0
  -23.9957  -27.2793   19.0400 H   0  0  0  0  0  0
  -23.7057  -30.5890   19.3943 H   0  0  0  0  0  0
  -22.7379  -29.2279   19.8701 H   0  0  0  0  0  0
  -25.1269  -36.1959   25.0827 H   0  0  0  0  0  0
  -20.9957  -28.3262   24.1419 H   0  0  0  0  0  0
  -20.5662  -26.2260   23.3586 H   0  0  0  0  0  0
  -21.6633  -26.7459   22.1191 H   0  0  0  0  0  0
  -19.6906  -25.6326   21.1177 H   0  0  0  0  0  0
  -19.6701  -27.3245   20.6750 H   0  0  0  0  0  0
  -17.4199  -26.6681   21.3994 H   0  0  0  0  0  0
  -18.0325  -26.0081   22.8995 H   0  0  0  0  0  0
  -19.7930  -30.7276   24.2221 H   0  0  0  0  0  0
  -17.5001  -31.6240   24.5197 H   0  0  0  0  0  0
  -15.5335  -30.2960   23.7666 H   0  0  0  0  0  0
  -15.8668  -28.0842   22.6996 H   0  0  0  0  0  0
  -24.5902  -30.7054   25.7858 H   0  0  0  0  0  0
  -24.9007  -32.2844   26.4988 H   0  0  0  0  0  0
  -25.8154  -30.8821   27.0207 H   0  0  0  0  0  0
  -26.2830  -29.6802   24.1099 H   0  0  0  0  0  0
  -27.4039  -29.7226   25.4511 H   0  0  0  0  0  0
  -27.8673  -30.4322   23.9217 H   0  0  0  0  0  0
  -27.2604  -33.3571   26.2093 H   0  0  0  0  0  0
  -28.3834  -32.6914   25.0331 H   0  0  0  0  0  0
  -28.0696  -31.8413   26.5380 H   0  0  0  0  0  0
  -28.2577  -38.0127   24.7484 H   0  0  0  0  0  0
  -28.1075  -36.2663   24.6272 H   0  0  0  0  0  0
  -27.2293  -37.1487   25.8848 H   0  0  0  0  0  0
  -20.9274  -29.8705   21.6886 H   0  0  0  0  0  0
  -26.0166  -38.2864   24.1400 H   0  0  0  0  0  0
  -28.8514  -21.6242   19.3630 H   0  0  0  0  0  0
  -32.6536  -19.6232   19.8562 H   0  0  0  0  0  0
  -32.3789  -24.8456   20.2787 H   0  0  0  0  0  0
  -33.7296  -23.8168   20.7035 H   0  0  0  0  0  0
  -32.5060  -24.1690   21.9212 H   0  0  0  0  0  0
  -27.4113  -20.1857   16.8593 H   0  0  0  0  0  0
  -28.9515  -19.6054   16.2783 H   0  0  0  0  0  0
  -28.8784  -21.0875   17.2117 H   0  0  0  0  0  0
  -31.1789  -19.4381   17.0917 H   0  0  0  0  0  0
  -30.5283  -17.8180   17.2061 H   0  0  0  0  0  0
  -31.9514  -18.2588   18.1311 H   0  0  0  0  0  0
  -28.6563  -23.7937   19.7277 H   0  0  0  0  0  0
  -30.0428  -24.6890   19.2090 H   0  0  0  0  0  0
  -28.2032  -18.2733   18.1579 H   0  0  0  0  0  0
  -27.9672  -19.6235   19.1957 H   0  0  0  0  0  0
  -30.4786  -25.4675   21.4896 H   0  0  0  0  0  0
  -29.4704  -24.2179   22.1732 H   0  0  0  0  0  0
  -31.0851  -17.9384   20.5324 H   0  0  0  0  0  0
  -29.4249  -18.3204   20.8958 H   0  0  0  0  0  0
  -30.2336  -16.2696   18.7610 H   0  0  0  0  0  0
  -28.6379  -16.5501   19.3643 H   0  0  0  0  0  0
  -28.3464  -26.4243   22.2218 H   0  0  0  0  0  0
  -27.4476  -25.2315   21.3158 H   0  0  0  0  0  0
  -28.9663  -15.2767   21.1529 H   0  0  0  0  0  0
  1 25  1  0  0  0
  1 30  2  0  0  0
  1 87  1  0  0  0
  2  3  1  0  0  0
  2 25  1  0  0  0
  2 88  1  0  0  0
  2 89  1  0  0  0
  3  4  1  0  0  0
  3 90  1  0  0  0
  3 91  1  0  0  0
  4  5  1  0  0  0
  4 92  1  0  0  0
  4 93  1  0  0  0
  5  6  1  0  0  0
  5 26  1  0  0  0
  5 94  1  0  0  0
  6 25  1  0  0  0
  6 95  1  0  0  0
  6 96  1  0  0  0
  7  8  2  0  0  0
  7 26  1  0  0  0
  7 29  1  0  0  0
  8  9  1  0  0  0
  8 22  1  0  0  0
  9 10  1  0  0  0
  9 27  2  0  0  0
 10 11  2  0  0  0
 10 15  1  0  0  0
 11 12  1  0  0  0
 11 97  1  0  0  0
 12 13  2  0  0  0
 12 98  1  0  0  0
 13 14  1  0  0  0
 13 31  1  0  0  0
 14 15  2  0  0  0
 14 99  1  0  0  0
 15100  1  0  0  0
 16 17  2  0  0  0
 16 21  1  0  0  0
 16 31  1  0  0  0
 17 18  1  0  0  0
 17101  1  0  0  0
 18 19  2  0  0  0
 18102  1  0  0  0
 19 20  1  0  0  0
 19 24  1  0  0  0
 20 21  2  0  0  0
 20103  1  0  0  0
 21 23  1  0  0  0
 22 28  1  0  0  0
 22 32  2  0  0  0
 26 27  1  0  0  0
 28104  1  0  0  0
 28105  1  0  0  0
 29106  1  0  0  0
 29107  1  0  0  0
 33 34  1  0  0  0
 33 66  1  0  0  0
 33 70  2  0  0  0
 34 36  1  0  0  0
 34 59  1  0  0  0
 34108  1  0  0  0
 35 44  2  0  0  0
 35 45  1  0  0  0
 35 68  1  0  0  0
 36 56  1  0  0  0
 36109  1  0  0  0
 37 39  1  0  0  0
 37 47  1  0  0  0
 37 66  1  0  0  0
 37110  1  0  0  0
 38 43  2  0  0  0
 38 46  1  0  0  0
 38 47  1  0  0  0
 39 64  1  0  0  0
 39 67  2  0  0  0
 40 52  1  0  0  0
 40 53  2  0  0  0
 40 58  1  0  0  0
 41111  1  0  0  0
 41112  1  0  0  0
 41113  1  0  0  0
 41 48  1  0  0  0
 42 43  1  0  0  0
 42 66  1  0  0  0
 42114  1  0  0  0
 42115  1  0  0  0
 43 44  1  0  0  0
 44116  1  0  0  0
 45 46  2  0  0  0
 45117  1  0  0  0
 46118  1  0  0  0
 47119  1  0  0  0
 47120  1  0  0  0
 48 56  1  0  0  0
 48 65  1  0  0  0
 48121  1  0  0  0
 49 50  1  0  0  0
 49 53  1  0  0  0
 49 64  1  0  0  0
 49122  1  0  0  0
 50 51  1  0  0  0
 50123  1  0  0  0
 50124  1  0  0  0
 51 52  1  0  0  0
 51125  1  0  0  0
 51126  1  0  0  0
 52127  1  0  0  0
 52128  1  0  0  0
 53 54  1  0  0  0
 54 55  2  0  0  0
 54129  1  0  0  0
 55 57  1  0  0  0
 55130  1  0  0  0
 56 69  2  0  0  0
 57 58  2  0  0  0
 57131  1  0  0  0
 58132  1  0  0  0
 59 60  1  0  0  0
 59 61  1  0  0  0
 59 62  1  0  0  0
 60133  1  0  0  0
 60134  1  0  0  0
 60135  1  0  0  0
 61136  1  0  0  0
 61137  1  0  0  0
 61138  1  0  0  0
 62139  1  0  0  0
 62140  1  0  0  0
 62141  1  0  0  0
 63 65  1  0  0  0
 63142  1  0  0  0
 63143  1  0  0  0
 63144  1  0  0  0
 64145  1  0  0  0
 65146  1  0  0  0
 68 84  1  0  0  0
 71 73  2  0  0  0
 71 74  1  0  0  0
 71147  1  0  0  0
 72 73  1  0  0  0
 72 86  2  0  0  0
 72148  1  0  0  0
 73 85  1  0  0  0
 74 75  2  0  0  0
 74 79  1  0  0  0
 75 76  1  0  0  0
 75 86  1  0  0  0
 76149  1  0  0  0
 76150  1  0  0  0
 76151  1  0  0  0
 77 80  1  0  0  0
 77152  1  0  0  0
 77153  1  0  0  0
 77154  1  0  0  0
 78155  1  0  0  0
 78156  1  0  0  0
 78157  1  0  0  0
 78 85  1  0  0  0
 79 81  1  0  0  0
 79158  1  0  0  0
 79159  1  0  0  0
 80 85  1  0  0  0
 80160  1  0  0  0
 80161  1  0  0  0
 81 84  1  0  0  0
 81162  1  0  0  0
 81163  1  0  0  0
 82 83  1  0  0  0
 82 85  1  0  0  0
 82164  1  0  0  0
 82165  1  0  0  0
 83 87  1  0  0  0
 83166  1  0  0  0
 83167  1  0  0  0
 84168  1  0  0  0
 84169  1  0  0  0
 87170  1  0  0  0
M  ISO  4   1 100  68 101  84 101  87 100
M  END
> <chiral flag>
0

> <version>
0

> <s_m_source_file>
/data/baiqing/PycharmProjects/Reinvent-master-3.2/result/LINK_invent/BTK/process_docking_weight1_custom_sum_contain_oxygen_bond_distance_aromatic_linkinvent_7_9_3/rearranged_h_0081.sdf

> <i_m_source_file_index>
63

> <r_mmod_Potential_Energy-OPLS-2005>
-117.783645629883

> <r_mmod_Stretch_Energy-OPLS-2005>
38.9286956787109

> <r_mmod_Bend_Energy-OPLS-2005>
103.497772216797

> <r_mmod_Torsional_Energy-OPLS-2005>
276.094329833984

> <r_mmod_Improper_Torsional_Energy-OPLS-2005>
13.0696268081665

> <r_mmod_Van_der_Waal_Energy-OPLS-2005>
167.689270019531

> <r_mmod_Electrostatic_Energy-OPLS-2005>
-510.59033203125

> <r_mmod_Solvation_Energy-OPLS-2005>
-221.401931762695

> <b_mmod_Minimization_Converged-OPLS-2005>
0

> <r_mmod_RMS_Derivative-OPLS-2005>
3.73077392578125

$$$$
63
                    3D
 Structure written by MMmdl.
167175  0  0  1  0            999 V2000
  -30.6951  -14.5341   20.5580 C   0  0  0  0  0  0
  -30.4272  -12.3396   19.4389 C   0  0  0  0  0  0
  -29.5007  -12.5071   18.2167 C   0  0  0  0  0  0
  -28.0222  -12.3564   18.6259 C   0  0  0  0  0  0
  -27.6571  -13.2134   19.8677 C   0  0  2  0  0  0
  -28.6997  -13.0407   20.9952 C   0  0  0  0  0  0
  -25.2579  -13.8187   20.5665 C   0  0  0  0  0  0
  -24.1837  -13.0457   20.9181 C   0  0  0  0  0  0
  -24.6417  -11.6926   20.8767 C   0  0  0  0  0  0
  -23.9095  -10.4316   21.0443 C   0  0  0  0  0  0
  -24.3629   -9.4216   21.9225 C   0  0  0  0  0  0
  -23.6296   -8.2254   22.0779 C   0  0  0  0  0  0
  -22.4276   -8.0305   21.3550 C   0  0  0  0  0  0
  -21.9931   -9.0286   20.4645 C   0  0  0  0  0  0
  -22.7277  -10.2155   20.3066 C   0  0  0  0  0  0
  -21.6862   -6.0752   22.5275 C   0  0  0  0  0  0
  -21.4020   -6.5659   23.8221 C   0  0  0  0  0  0
  -21.3648   -5.6801   24.9181 C   0  0  0  0  0  0
  -21.6042   -4.3062   24.7227 C   0  0  0  0  0  0
  -21.8812   -3.8153   23.4352 C   0  0  0  0  0  0
  -21.9196   -4.6973   22.3397 C   0  0  0  0  0  0
  -22.7853  -13.5260   21.1833 C   0  0  0  0  0  0
  -22.1658   -4.2168   21.0966 F   0  0  0  0  0  0
  -21.5626   -3.4524   25.7742 F   0  0  0  0  0  0
  -30.0223  -13.3511   20.4323 N   0  0  0  0  0  0
  -26.3010  -12.9356   20.3338 N   0  0  0  0  0  0
  -25.9350  -11.6516   20.5800 N   0  0  0  0  0  0
  -22.0464  -12.8234   22.0344 N   0  0  0  0  0  0
  -25.4294  -15.1923   20.4038 N   0  0  0  0  0  0
  -31.8466  -14.6763   20.1393 O   0  0  0  0  0  0
  -21.6637   -6.8889   21.4240 O   0  0  0  0  0  0
  -22.3554  -14.5584   20.6725 O   0  0  0  0  0  0
  -24.6161  -31.8679   23.2123 C   0  0  0  0  0  0
  -25.9070  -32.4888   23.8491 C   0  0  1  0  0  0
  -27.2460  -27.3538   20.1467 C   0  0  0  0  0  0
  -25.6026  -33.8706   24.2432 N   0  0  0  0  0  0
  -23.4123  -30.4901   21.5472 C   0  0  2  0  0  0
  -24.8722  -28.9470   20.1111 C   0  0  0  0  0  0
  -22.7448  -29.4645   22.4873 C   0  0  0  0  0  0
  -18.0279  -28.1288   22.8439 C   0  0  0  0  0  0
  -24.1525  -36.7282   23.2652 C   0  0  0  0  0  0
  -25.9501  -30.8038   21.3887 C   0  0  0  0  0  0
  -26.0285  -29.4301   20.7345 C   0  0  0  0  0  0
  -27.2074  -28.6433   20.7567 C   0  0  0  0  0  0
  -26.0784  -26.9134   19.4858 C   0  0  0  0  0  0
  -24.8993  -27.6891   19.4771 C   0  0  0  0  0  0
  -23.6340  -29.8230   20.1590 C   0  0  0  0  0  0
  -25.4179  -36.3182   24.0313 C   0  0  1  0  0  0
  -20.5878  -28.3684   23.1154 C   0  0  2  0  0  0
  -20.6774  -26.9396   22.5298 C   0  0  0  0  0  0
  -19.5775  -26.6278   21.5124 C   0  0  0  0  0  0
  -18.1942  -26.7828   22.1515 C   0  0  0  0  0  0
  -19.1529  -28.8786   23.2796 C   0  0  0  0  0  0
  -18.9490  -30.1400   23.8819 C   0  0  0  0  0  0
  -17.6513  -30.6523   24.0571 C   0  0  0  0  0  0
  -25.9107  -34.9535   23.5153 C   0  0  0  0  0  0
  -16.5389  -29.9010   23.6357 C   0  0  0  0  0  0
  -16.7269  -28.6412   23.0366 C   0  0  0  0  0  0
  -26.4494  -31.6694   25.0840 C   0  0  0  0  0  0
  -25.3659  -31.3776   26.1529 C   0  0  0  0  0  0
  -27.0457  -30.3176   24.6301 C   0  0  0  0  0  0
  -27.6105  -32.4428   25.7552 C   0  0  0  0  0  0
  -27.5606  -37.1862   24.8494 C   0  0  0  0  0  0
  -21.4167  -29.3084   22.3600 N   0  0  0  0  0  0
  -26.4359  -37.3868   23.9390 N   0  0  0  0  0  0
  -24.6782  -31.0698   22.1072 N   0  0  0  0  0  0
  -23.4177  -28.8050   23.2851 O   0  0  0  0  0  0
  -28.3880  -26.5622   20.2558 O   0  0  0  0  0  0
  -26.5628  -34.8920   22.4684 O   0  0  0  0  0  0
  -23.5323  -32.1474   23.7398 O   0  0  0  0  0  0
  -29.1754  -20.7186   21.2828 C   0  0  0  0  0  0
  -28.6425  -22.7458   20.8590 C   0  0  0  0  0  0
  -25.0080  -20.3903   16.8644 C   0  0  0  0  0  0
  -26.8267  -24.3110   21.5921 C   0  0  0  0  0  0
  -29.0580  -19.1865   21.4205 C   0  0  0  0  0  0
  -26.4876  -20.4008   17.2624 C   0  0  0  0  0  0
  -30.0026  -18.2105   20.6355 C   0  0  0  0  0  0
  -26.7554  -20.7189   18.7525 C   0  0  0  0  0  0
  -28.2321  -21.1050   18.9438 C   0  0  0  0  0  0
  -30.5417  -16.9343   21.4040 C   0  0  0  0  0  0
  -28.4681  -25.1912   19.7285 C   0  0  0  0  0  0
  -27.7670  -23.9463   20.4195 C   0  0  1  0  0  0
  -29.7137  -21.4660   22.2574 N   0  0  0  0  0  0
  -29.3782  -22.7755   21.9792 N   0  0  0  0  0  0
  -28.6431  -21.4980   20.2903 N   0  0  0  0  0  0
  -29.9969  -15.5901   21.0462 N   0  0  0  0  0  0
  -31.4708  -12.4420   19.1357 H   0  0  0  0  0  0
  -30.3363  -11.3368   19.8614 H   0  0  0  0  0  0
  -29.7555  -11.7803   17.4455 H   0  0  0  0  0  0
  -29.6529  -13.4926   17.7729 H   0  0  0  0  0  0
  -27.8423  -11.3024   18.8374 H   0  0  0  0  0  0
  -27.3738  -12.6152   17.7891 H   0  0  0  0  0  0
  -27.6880  -14.2538   19.5470 H   0  0  0  0  0  0
  -28.6892  -12.0198   21.3790 H   0  0  0  0  0  0
  -28.4587  -13.6759   21.8477 H   0  0  0  0  0  0
  -25.2775   -9.5698   22.4803 H   0  0  0  0  0  0
  -24.0015   -7.4640   22.7501 H   0  0  0  0  0  0
  -21.0872   -8.8821   19.8927 H   0  0  0  0  0  0
  -22.3785  -10.9703   19.6162 H   0  0  0  0  0  0
  -21.2012   -7.6170   23.9736 H   0  0  0  0  0  0
  -21.1465   -6.0526   25.9090 H   0  0  0  0  0  0
  -22.0596   -2.7618   23.2842 H   0  0  0  0  0  0
  -22.4029  -11.9850   22.4695 H   0  0  0  0  0  0
  -21.1090  -13.1298   22.2543 H   0  0  0  0  0  0
  -24.6616  -15.8461   20.5092 H   0  0  0  0  0  0
  -26.2770  -15.6262   20.0614 H   0  0  0  0  0  0
  -26.7064  -32.5628   23.1221 H   0  0  0  0  0  0
  -25.0637  -33.9988   25.0876 H   0  0  0  0  0  0
  -22.7049  -31.3119   21.4040 H   0  0  0  0  0  0
  -23.3893  -35.9545   23.3369 H   0  0  0  0  0  0
  -24.3626  -36.8809   22.2058 H   0  0  0  0  0  0
  -23.7067  -37.6394   23.6633 H   0  0  0  0  0  0
  -26.0806  -31.5575   20.6088 H   0  0  0  0  0  0
  -26.8245  -30.8630   22.0262 H   0  0  0  0  0  0
  -28.0803  -29.0008   21.2878 H   0  0  0  0  0  0
  -26.0410  -25.9449   19.0079 H   0  0  0  0  0  0
  -24.0169  -27.3034   18.9912 H   0  0  0  0  0  0
  -23.7425  -30.6120   19.4133 H   0  0  0  0  0  0
  -22.7593  -29.2466   19.8514 H   0  0  0  0  0  0
  -25.1274  -36.2185   25.0779 H   0  0  0  0  0  0
  -21.0022  -28.3283   24.1261 H   0  0  0  0  0  0
  -20.5628  -26.2355   23.3530 H   0  0  0  0  0  0
  -21.6640  -26.7334   22.1180 H   0  0  0  0  0  0
  -19.7012  -25.6155   21.1235 H   0  0  0  0  0  0
  -19.6708  -27.3031   20.6610 H   0  0  0  0  0  0
  -17.4230  -26.6582   21.3892 H   0  0  0  0  0  0
  -18.0381  -25.9849   22.8786 H   0  0  0  0  0  0
  -19.8014  -30.7221   24.2077 H   0  0  0  0  0  0
  -17.5110  -31.6229   24.5145 H   0  0  0  0  0  0
  -15.5414  -30.2974   23.7646 H   0  0  0  0  0  0
  -15.8642  -28.0748   22.7117 H   0  0  0  0  0  0
  -24.5880  -30.7129   25.7744 H   0  0  0  0  0  0
  -24.8807  -32.2907   26.4979 H   0  0  0  0  0  0
  -25.7809  -30.8874   27.0329 H   0  0  0  0  0  0
  -26.3096  -29.6889   24.1292 H   0  0  0  0  0  0
  -27.4202  -29.7466   25.4805 H   0  0  0  0  0  0
  -27.8899  -30.4561   23.9527 H   0  0  0  0  0  0
  -27.2857  -33.3831   26.2011 H   0  0  0  0  0  0
  -28.3912  -32.6831   25.0318 H   0  0  0  0  0  0
  -28.0855  -31.8684   26.5499 H   0  0  0  0  0  0
  -28.2640  -38.0171   24.7628 H   0  0  0  0  0  0
  -28.1014  -36.2677   24.6211 H   0  0  0  0  0  0
  -27.2322  -37.1342   25.8898 H   0  0  0  0  0  0
  -20.9357  -29.8939   21.6898 H   0  0  0  0  0  0
  -26.0279  -38.2940   24.1459 H   0  0  0  0  0  0
  -24.9079  -20.1508   15.8020 H   0  0  0  0  0  0
  -24.5494  -21.3712   17.0134 H   0  0  0  0  0  0
  -24.4402  -19.6498   17.4323 H   0  0  0  0  0  0
  -26.2605  -23.4416   21.9351 H   0  0  0  0  0  0
  -26.0923  -25.0717   21.3418 H   0  0  0  0  0  0
  -27.3952  -24.6823   22.4455 H   0  0  0  0  0  0
  -28.0231  -18.9116   21.2177 H   0  0  0  0  0  0
  -29.1903  -18.9841   22.4853 H   0  0  0  0  0  0
  -26.9855  -21.1384   16.6282 H   0  0  0  0  0  0
  -26.9343  -19.4361   17.0000 H   0  0  0  0  0  0
  -30.8740  -18.7883   20.3304 H   0  0  0  0  0  0
  -29.5160  -17.9146   19.7061 H   0  0  0  0  0  0
  -26.5014  -19.8569   19.3760 H   0  0  0  0  0  0
  -26.1130  -21.5380   19.0784 H   0  0  0  0  0  0
  -28.4622  -21.9410   18.2809 H   0  0  0  0  0  0
  -28.8812  -20.2889   18.6200 H   0  0  0  0  0  0
  -30.4282  -17.0552   22.4831 H   0  0  0  0  0  0
  -31.6247  -16.9107   21.2597 H   0  0  0  0  0  0
  -28.1555  -25.2354   18.6852 H   0  0  0  0  0  0
  -29.5282  -24.9460   19.6666 H   0  0  0  0  0  0
  -27.1009  -23.5509   19.6502 H   0  0  0  0  0  0
  -29.0443  -15.3880   21.3077 H   0  0  0  0  0  0
  1 25  1  0  0  0
  1 30  2  0  0  0
  1 86  1  0  0  0
  2  3  1  0  0  0
  2 25  1  0  0  0
  2 87  1  0  0  0
  2 88  1  0  0  0
  3  4  1  0  0  0
  3 89  1  0  0  0
  3 90  1  0  0  0
  4  5  1  0  0  0
  4 91  1  0  0  0
  4 92  1  0  0  0
  5  6  1  0  0  0
  5 26  1  0  0  0
  5 93  1  0  0  0
  6 25  1  0  0  0
  6 94  1  0  0  0
  6 95  1  0  0  0
  7  8  2  0  0  0
  7 26  1  0  0  0
  7 29  1  0  0  0
  8  9  1  0  0  0
  8 22  1  0  0  0
  9 10  1  0  0  0
  9 27  2  0  0  0
 10 11  2  0  0  0
 10 15  1  0  0  0
 11 12  1  0  0  0
 11 96  1  0  0  0
 12 13  2  0  0  0
 12 97  1  0  0  0
 13 14  1  0  0  0
 13 31  1  0  0  0
 14 15  2  0  0  0
 14 98  1  0  0  0
 15 99  1  0  0  0
 16 17  2  0  0  0
 16 21  1  0  0  0
 16 31  1  0  0  0
 17 18  1  0  0  0
 17100  1  0  0  0
 18 19  2  0  0  0
 18101  1  0  0  0
 19 20  1  0  0  0
 19 24  1  0  0  0
 20 21  2  0  0  0
 20102  1  0  0  0
 21 23  1  0  0  0
 22 28  1  0  0  0
 22 32  2  0  0  0
 26 27  1  0  0  0
 28103  1  0  0  0
 28104  1  0  0  0
 29105  1  0  0  0
 29106  1  0  0  0
 33 34  1  0  0  0
 33 66  1  0  0  0
 33 70  2  0  0  0
 34 36  1  0  0  0
 34 59  1  0  0  0
 34107  1  0  0  0
 35 44  2  0  0  0
 35 45  1  0  0  0
 35 68  1  0  0  0
 36 56  1  0  0  0
 36108  1  0  0  0
 37 39  1  0  0  0
 37 47  1  0  0  0
 37 66  1  0  0  0
 37109  1  0  0  0
 38 43  2  0  0  0
 38 46  1  0  0  0
 38 47  1  0  0  0
 39 64  1  0  0  0
 39 67  2  0  0  0
 40 52  1  0  0  0
 40 53  2  0  0  0
 40 58  1  0  0  0
 41110  1  0  0  0
 41111  1  0  0  0
 41112  1  0  0  0
 41 48  1  0  0  0
 42 43  1  0  0  0
 42 66  1  0  0  0
 42113  1  0  0  0
 42114  1  0  0  0
 43 44  1  0  0  0
 44115  1  0  0  0
 45 46  2  0  0  0
 45116  1  0  0  0
 46117  1  0  0  0
 47118  1  0  0  0
 47119  1  0  0  0
 48 56  1  0  0  0
 48 65  1  0  0  0
 48120  1  0  0  0
 49 50  1  0  0  0
 49 53  1  0  0  0
 49 64  1  0  0  0
 49121  1  0  0  0
 50 51  1  0  0  0
 50122  1  0  0  0
 50123  1  0  0  0
 51 52  1  0  0  0
 51124  1  0  0  0
 51125  1  0  0  0
 52126  1  0  0  0
 52127  1  0  0  0
 53 54  1  0  0  0
 54 55  2  0  0  0
 54128  1  0  0  0
 55 57  1  0  0  0
 55129  1  0  0  0
 56 69  2  0  0  0
 57 58  2  0  0  0
 57130  1  0  0  0
 58131  1  0  0  0
 59 60  1  0  0  0
 59 61  1  0  0  0
 59 62  1  0  0  0
 60132  1  0  0  0
 60133  1  0  0  0
 60134  1  0  0  0
 61135  1  0  0  0
 61136  1  0  0  0
 61137  1  0  0  0
 62138  1  0  0  0
 62139  1  0  0  0
 62140  1  0  0  0
 63 65  1  0  0  0
 63141  1  0  0  0
 63142  1  0  0  0
 63143  1  0  0  0
 64144  1  0  0  0
 65145  1  0  0  0
 68 81  1  0  0  0
 71 75  1  0  0  0
 71 83  2  0  0  0
 71 85  1  0  0  0
 72 82  1  0  0  0
 72 84  2  0  0  0
 72 85  1  0  0  0
 73 76  1  0  0  0
 73146  1  0  0  0
 73147  1  0  0  0
 73148  1  0  0  0
 74149  1  0  0  0
 74150  1  0  0  0
 74151  1  0  0  0
 74 82  1  0  0  0
 75 77  1  0  0  0
 75152  1  0  0  0
 75153  1  0  0  0
 76 78  1  0  0  0
 76154  1  0  0  0
 76155  1  0  0  0
 77 80  1  0  0  0
 77156  1  0  0  0
 77157  1  0  0  0
 78 79  1  0  0  0
 78158  1  0  0  0
 78159  1  0  0  0
 79 85  1  0  0  0
 79160  1  0  0  0
 79161  1  0  0  0
 80 86  1  0  0  0
 80162  1  0  0  0
 80163  1  0  0  0
 81 82  1  0  0  0
 81164  1  0  0  0
 81165  1  0  0  0
 82166  1  0  0  0
 83 84  1  0  0  0
 86167  1  0  0  0
M  ISO  4   1 100  68 101  81 101  86 100
M  END
> <chiral flag>
0

> <version>
0

> <s_m_source_file>
/data/baiqing/PycharmProjects/Reinvent-master-3.2/result/LINK_invent/BTK/process_docking_weight1_custom_sum_contain_oxygen_bond_distance_aromatic_linkinvent_7_9_3/rearranged_h_0081.sdf

> <i_m_source_file_index>
64

> <r_mmod_Potential_Energy-OPLS-2005>
46.2867202758789

> <r_mmod_Stretch_Energy-OPLS-2005>
66.2552719116211

> <r_mmod_Bend_Energy-OPLS-2005>
169.025283813477

> <r_mmod_Torsional_Energy-OPLS-2005>
266.777648925781

> <r_mmod_Improper_Torsional_Energy-OPLS-2005>
4.36986875534058

> <r_mmod_Van_der_Waal_Energy-OPLS-2005>
114.772499084473

> <r_mmod_Electrostatic_Energy-OPLS-2005>
-364.449768066406

> <r_mmod_Solvation_Energy-OPLS-2005>
-241.881408691406

> <b_mmod_Minimization_Converged-OPLS-2005>
0

> <r_mmod_RMS_Derivative-OPLS-2005>
6.94860219955444

$$$$
64
                    3D
 Structure written by MMmdl.
154162  0  0  1  0            999 V2000
  -30.5269  -14.9301   20.4339 C   0  0  0  0  0  0
  -30.4324  -12.5761   19.4887 C   0  0  0  0  0  0
  -29.5092  -12.5227   18.2498 C   0  0  0  0  0  0
  -28.0457  -12.3044   18.6775 C   0  0  0  0  0  0
  -27.6235  -13.2419   19.8368 C   0  0  2  0  0  0
  -28.6646  -13.2646   20.9736 C   0  0  0  0  0  0
  -25.2454  -13.8199   20.5745 C   0  0  0  0  0  0
  -24.1776  -13.0437   20.9264 C   0  0  0  0  0  0
  -24.6376  -11.6918   20.8783 C   0  0  0  0  0  0
  -23.9064  -10.4290   21.0429 C   0  0  0  0  0  0
  -24.3613   -9.4202   21.9203 C   0  0  0  0  0  0
  -23.6299   -8.2227   22.0749 C   0  0  0  0  0  0
  -22.4278   -8.0273   21.3530 C   0  0  0  0  0  0
  -21.9923   -9.0251   20.4634 C   0  0  0  0  0  0
  -22.7240  -10.2137   20.3068 C   0  0  0  0  0  0
  -21.6852   -6.0743   22.5278 C   0  0  0  0  0  0
  -21.4017   -6.5650   23.8210 C   0  0  0  0  0  0
  -21.3662   -5.6796   24.9173 C   0  0  0  0  0  0
  -21.6039   -4.3057   24.7217 C   0  0  0  0  0  0
  -21.8814   -3.8155   23.4335 C   0  0  0  0  0  0
  -21.9193   -4.6977   22.3396 C   0  0  0  0  0  0
  -22.7798  -13.5214   21.1921 C   0  0  0  0  0  0
  -22.1666   -4.2169   21.0977 F   0  0  0  0  0  0
  -21.5623   -3.4545   25.7728 F   0  0  0  0  0  0
  -29.9391  -13.6711   20.3695 N   0  0  0  0  0  0
  -26.2851  -12.9419   20.3252 N   0  0  0  0  0  0
  -25.9298  -11.6553   20.5750 N   0  0  0  0  0  0
  -22.0452  -12.8176   22.0460 N   0  0  0  0  0  0
  -25.4175  -15.1917   20.4154 N   0  0  0  0  0  0
  -31.7393  -15.0056   20.2075 O   0  0  0  0  0  0
  -21.6630   -6.8882   21.4232 O   0  0  0  0  0  0
  -22.3494  -14.5529   20.6781 O   0  0  0  0  0  0
  -24.6461  -31.8432   23.1907 C   0  0  0  0  0  0
  -25.9234  -32.4700   23.8271 C   0  0  1  0  0  0
  -27.2050  -27.1239   20.1596 C   0  0  0  0  0  0
  -25.5955  -33.8507   24.2198 N   0  0  0  0  0  0
  -23.4476  -30.4673   21.5381 C   0  0  2  0  0  0
  -24.8946  -28.8933   20.1185 C   0  0  0  0  0  0
  -22.7574  -29.4564   22.4879 C   0  0  0  0  0  0
  -18.0291  -28.1368   22.8463 C   0  0  0  0  0  0
  -24.1512  -36.7295   23.2638 C   0  0  0  0  0  0
  -26.0073  -30.7165   21.3931 C   0  0  0  0  0  0
  -26.0761  -29.3265   20.7342 C   0  0  0  0  0  0
  -27.2346  -28.4598   20.7345 C   0  0  0  0  0  0
  -25.9968  -26.7978   19.5034 C   0  0  0  0  0  0
  -24.8690  -27.6425   19.4887 C   0  0  0  0  0  0
  -23.6756  -29.8018   20.1566 C   0  0  0  0  0  0
  -25.4139  -36.3056   24.0309 C   0  0  1  0  0  0
  -20.5912  -28.3712   23.1231 C   0  0  2  0  0  0
  -20.6819  -26.9420   22.5399 C   0  0  0  0  0  0
  -19.5798  -26.6369   21.5204 C   0  0  0  0  0  0
  -18.1962  -26.7905   22.1589 C   0  0  0  0  0  0
  -19.1550  -28.8851   23.2827 C   0  0  0  0  0  0
  -18.9467  -30.1443   23.8855 C   0  0  0  0  0  0
  -17.6471  -30.6576   24.0541 C   0  0  0  0  0  0
  -25.9073  -34.9419   23.5068 C   0  0  0  0  0  0
  -16.5356  -29.9074   23.6331 C   0  0  0  0  0  0
  -16.7273  -28.6490   23.0351 C   0  0  0  0  0  0
  -26.4522  -31.6556   25.0714 C   0  0  0  0  0  0
  -25.3688  -31.3744   26.1398 C   0  0  0  0  0  0
  -27.0400  -30.2951   24.6321 C   0  0  0  0  0  0
  -27.6054  -32.4326   25.7480 C   0  0  0  0  0  0
  -27.5602  -37.1814   24.8449 C   0  0  0  0  0  0
  -21.4269  -29.3053   22.3631 N   0  0  0  0  0  0
  -26.4308  -37.3764   23.9398 N   0  0  0  0  0  0
  -24.7212  -31.0286   22.0960 N   0  0  0  0  0  0
  -23.4221  -28.8114   23.3022 O   0  0  0  0  0  0
  -28.2459  -26.1236   20.2246 O   0  0  0  0  0  0
  -26.5662  -34.8919   22.4649 O   0  0  0  0  0  0
  -23.5582  -32.1285   23.7146 O   0  0  0  0  0  0
  -26.9744  -21.6511   20.7236 C   0  0  0  0  0  0
  -28.3657  -21.6870   20.4855 C   0  0  0  0  0  0
  -26.5212  -20.8350   21.7762 C   0  0  0  0  0  0
  -29.0705  -20.4414   20.9635 C   0  0  0  0  0  0
  -25.0611  -20.8211   22.1816 C   0  0  0  0  0  0
  -28.9135  -23.2396   20.3452 C   0  0  0  0  0  0
  -29.1234  -18.9526   20.2416 C   0  0  0  0  0  0
  -30.0382  -17.6354   20.7895 C   0  0  0  0  0  0
  -27.9102  -24.5968   20.1875 C   0  0  0  0  0  0
  -27.3882  -20.1499   22.5609 N   0  0  0  0  0  0
  -28.6798  -20.0715   22.2119 N   0  0  0  0  0  0
  -29.7264  -16.0990   20.5541 N   0  0  0  0  0  0
  -31.4662  -12.7353   19.1777 H   0  0  0  0  0  0
  -30.4183  -11.6220   20.0185 H   0  0  0  0  0  0
  -29.8208  -11.7236   17.5759 H   0  0  0  0  0  0
  -29.5938  -13.4530   17.6858 H   0  0  0  0  0  0
  -27.9561  -11.2670   19.0037 H   0  0  0  0  0  0
  -27.3719  -12.4168   17.8278 H   0  0  0  0  0  0
  -27.5889  -14.2430   19.4076 H   0  0  0  0  0  0
  -28.7441  -12.2886   21.4559 H   0  0  0  0  0  0
  -28.3652  -13.9702   21.7514 H   0  0  0  0  0  0
  -25.2744   -9.5682   22.4800 H   0  0  0  0  0  0
  -24.0008   -7.4611   22.7459 H   0  0  0  0  0  0
  -21.0858   -8.8758   19.8938 H   0  0  0  0  0  0
  -22.3682  -10.9684   19.6193 H   0  0  0  0  0  0
  -21.2009   -7.6162   23.9720 H   0  0  0  0  0  0
  -21.1496   -6.0532   25.9076 H   0  0  0  0  0  0
  -22.0592   -2.7628   23.2824 H   0  0  0  0  0  0
  -22.4070  -11.9822   22.4807 H   0  0  0  0  0  0
  -21.1080  -13.1205   22.2696 H   0  0  0  0  0  0
  -24.6507  -15.8469   20.5187 H   0  0  0  0  0  0
  -26.2536  -15.6190   20.0419 H   0  0  0  0  0  0
  -26.7300  -32.5320   23.0990 H   0  0  0  0  0  0
  -25.0052  -33.9609   25.0318 H   0  0  0  0  0  0
  -22.7492  -31.2943   21.3907 H   0  0  0  0  0  0
  -23.3773  -35.9630   23.3265 H   0  0  0  0  0  0
  -24.3573  -36.8986   22.2059 H   0  0  0  0  0  0
  -23.7309  -37.6502   23.6692 H   0  0  0  0  0  0
  -26.1682  -31.4717   20.6219 H   0  0  0  0  0  0
  -26.8764  -30.7603   22.0379 H   0  0  0  0  0  0
  -28.1366  -28.7867   21.2337 H   0  0  0  0  0  0
  -25.8819  -25.8473   19.0072 H   0  0  0  0  0  0
  -23.9654  -27.3060   18.9998 H   0  0  0  0  0  0
  -23.8252  -30.5800   19.4067 H   0  0  0  0  0  0
  -22.7866  -29.2541   19.8373 H   0  0  0  0  0  0
  -25.1336  -36.1876   25.0800 H   0  0  0  0  0  0
  -20.9940  -28.3314   24.1371 H   0  0  0  0  0  0
  -20.5765  -26.2294   23.3601 H   0  0  0  0  0  0
  -21.6685  -26.7479   22.1173 H   0  0  0  0  0  0
  -19.6974  -25.6272   21.1260 H   0  0  0  0  0  0
  -19.6766  -27.3140   20.6711 H   0  0  0  0  0  0
  -17.4251  -26.6614   21.3976 H   0  0  0  0  0  0
  -18.0372  -26.0021   22.8957 H   0  0  0  0  0  0
  -19.7950  -30.7256   24.2227 H   0  0  0  0  0  0
  -17.5039  -31.6259   24.5142 H   0  0  0  0  0  0
  -15.5363  -30.2976   23.7710 H   0  0  0  0  0  0
  -15.8654  -28.0822   22.7097 H   0  0  0  0  0  0
  -24.5847  -30.7107   25.7707 H   0  0  0  0  0  0
  -24.8875  -32.2923   26.4782 H   0  0  0  0  0  0
  -25.7947  -30.8933   27.0207 H   0  0  0  0  0  0
  -26.3030  -29.6631   24.1350 H   0  0  0  0  0  0
  -27.4022  -29.7282   25.4911 H   0  0  0  0  0  0
  -27.8930  -30.4186   23.9644 H   0  0  0  0  0  0
  -27.2654  -33.3658   26.1968 H   0  0  0  0  0  0
  -28.3879  -32.6841   25.0302 H   0  0  0  0  0  0
  -28.0668  -31.8501   26.5452 H   0  0  0  0  0  0
  -28.2605  -38.0132   24.7520 H   0  0  0  0  0  0
  -28.1132  -36.2665   24.6250 H   0  0  0  0  0  0
  -27.2284  -37.1431   25.8841 H   0  0  0  0  0  0
  -20.9485  -29.8753   21.6795 H   0  0  0  0  0  0
  -26.0179  -38.2845   24.1369 H   0  0  0  0  0  0
  -26.3004  -22.3907   20.3184 H   0  0  0  0  0  0
  -24.4239  -21.0047   21.3158 H   0  0  0  0  0  0
  -24.8587  -21.5988   22.9169 H   0  0  0  0  0  0
  -24.7749  -19.8609   22.6094 H   0  0  0  0  0  0
  -29.6174  -23.2491   19.5129 H   0  0  0  0  0  0
  -29.5227  -23.4027   21.2340 H   0  0  0  0  0  0
  -29.3804  -19.1220   19.1957 H   0  0  0  0  0  0
  -28.0867  -18.6149   20.2077 H   0  0  0  0  0  0
  -30.0456  -17.7186   21.8763 H   0  0  0  0  0  0
  -31.0763  -17.8101   20.5058 H   0  0  0  0  0  0
  -27.1391  -24.4826   20.9508 H   0  0  0  0  0  0
  -27.4065  -24.4230   19.2391 H   0  0  0  0  0  0
  -28.7430  -15.8804   20.6094 H   0  0  0  0  0  0
  1 25  1  0  0  0
  1 30  2  0  0  0
  1 82  1  0  0  0
  2  3  1  0  0  0
  2 25  1  0  0  0
  2 83  1  0  0  0
  2 84  1  0  0  0
  3  4  1  0  0  0
  3 85  1  0  0  0
  3 86  1  0  0  0
  4  5  1  0  0  0
  4 87  1  0  0  0
  4 88  1  0  0  0
  5  6  1  0  0  0
  5 26  1  0  0  0
  5 89  1  0  0  0
  6 25  1  0  0  0
  6 90  1  0  0  0
  6 91  1  0  0  0
  7  8  2  0  0  0
  7 26  1  0  0  0
  7 29  1  0  0  0
  8  9  1  0  0  0
  8 22  1  0  0  0
  9 10  1  0  0  0
  9 27  2  0  0  0
 10 11  2  0  0  0
 10 15  1  0  0  0
 11 12  1  0  0  0
 11 92  1  0  0  0
 12 13  2  0  0  0
 12 93  1  0  0  0
 13 14  1  0  0  0
 13 31  1  0  0  0
 14 15  2  0  0  0
 14 94  1  0  0  0
 15 95  1  0  0  0
 16 17  2  0  0  0
 16 21  1  0  0  0
 16 31  1  0  0  0
 17 18  1  0  0  0
 17 96  1  0  0  0
 18 19  2  0  0  0
 18 97  1  0  0  0
 19 20  1  0  0  0
 19 24  1  0  0  0
 20 21  2  0  0  0
 20 98  1  0  0  0
 21 23  1  0  0  0
 22 28  1  0  0  0
 22 32  2  0  0  0
 26 27  1  0  0  0
 28 99  1  0  0  0
 28100  1  0  0  0
 29101  1  0  0  0
 29102  1  0  0  0
 33 34  1  0  0  0
 33 66  1  0  0  0
 33 70  2  0  0  0
 34 36  1  0  0  0
 34 59  1  0  0  0
 34103  1  0  0  0
 35 44  2  0  0  0
 35 45  1  0  0  0
 35 68  1  0  0  0
 36 56  1  0  0  0
 36104  1  0  0  0
 37 39  1  0  0  0
 37 47  1  0  0  0
 37 66  1  0  0  0
 37105  1  0  0  0
 38 43  2  0  0  0
 38 46  1  0  0  0
 38 47  1  0  0  0
 39 64  1  0  0  0
 39 67  2  0  0  0
 40 52  1  0  0  0
 40 53  2  0  0  0
 40 58  1  0  0  0
 41106  1  0  0  0
 41107  1  0  0  0
 41108  1  0  0  0
 41 48  1  0  0  0
 42 43  1  0  0  0
 42 66  1  0  0  0
 42109  1  0  0  0
 42110  1  0  0  0
 43 44  1  0  0  0
 44111  1  0  0  0
 45 46  2  0  0  0
 45112  1  0  0  0
 46113  1  0  0  0
 47114  1  0  0  0
 47115  1  0  0  0
 48 56  1  0  0  0
 48 65  1  0  0  0
 48116  1  0  0  0
 49 50  1  0  0  0
 49 53  1  0  0  0
 49 64  1  0  0  0
 49117  1  0  0  0
 50 51  1  0  0  0
 50118  1  0  0  0
 50119  1  0  0  0
 51 52  1  0  0  0
 51120  1  0  0  0
 51121  1  0  0  0
 52122  1  0  0  0
 52123  1  0  0  0
 53 54  1  0  0  0
 54 55  2  0  0  0
 54124  1  0  0  0
 55 57  1  0  0  0
 55125  1  0  0  0
 56 69  2  0  0  0
 57 58  2  0  0  0
 57126  1  0  0  0
 58127  1  0  0  0
 59 60  1  0  0  0
 59 61  1  0  0  0
 59 62  1  0  0  0
 60128  1  0  0  0
 60129  1  0  0  0
 60130  1  0  0  0
 61131  1  0  0  0
 61132  1  0  0  0
 61133  1  0  0  0
 62134  1  0  0  0
 62135  1  0  0  0
 62136  1  0  0  0
 63 65  1  0  0  0
 63137  1  0  0  0
 63138  1  0  0  0
 63139  1  0  0  0
 64140  1  0  0  0
 65141  1  0  0  0
 68 79  1  0  0  0
 71 72  2  0  0  0
 71 73  1  0  0  0
 71142  1  0  0  0
 72 74  1  0  0  0
 72 76  1  0  0  0
 73 75  1  0  0  0
 73 80  2  0  0  0
 74 77  1  0  0  0
 74 81  2  0  0  0
 75143  1  0  0  0
 75144  1  0  0  0
 75145  1  0  0  0
 76 79  1  0  0  0
 76146  1  0  0  0
 76147  1  0  0  0
 77 78  1  0  0  0
 77148  1  0  0  0
 77149  1  0  0  0
 78 82  1  0  0  0
 78150  1  0  0  0
 78151  1  0  0  0
 79152  1  0  0  0
 79153  1  0  0  0
 80 81  1  0  0  0
 82154  1  0  0  0
M  ISO  4   1 100  68 101  79 101  82 100
M  END
> <chiral flag>
0

> <version>
0

> <s_m_source_file>
/data/baiqing/PycharmProjects/Reinvent-master-3.2/result/LINK_invent/BTK/process_docking_weight1_custom_sum_contain_oxygen_bond_distance_aromatic_linkinvent_7_9_3/rearranged_h_0081.sdf

> <i_m_source_file_index>
65

> <r_mmod_Potential_Energy-OPLS-2005>
703.435119628906

> <r_mmod_Stretch_Energy-OPLS-2005>
277.118499755859

> <r_mmod_Bend_Energy-OPLS-2005>
289.356719970703

> <r_mmod_Torsional_Energy-OPLS-2005>
376.883148193359

> <r_mmod_Improper_Torsional_Energy-OPLS-2005>
28.0672054290771

> <r_mmod_Van_der_Waal_Energy-OPLS-2005>
141.085998535156

> <r_mmod_Electrostatic_Energy-OPLS-2005>
-366.534271240234

> <r_mmod_Solvation_Energy-OPLS-2005>
-237.249816894531

> <b_mmod_Minimization_Converged-OPLS-2005>
0

> <r_mmod_RMS_Derivative-OPLS-2005>
2.63852691650391

$$$$
65
                    3D
 Structure written by MMmdl.
169177  0  0  1  0            999 V2000
  -30.6309  -14.5782   20.4933 C   0  0  0  0  0  0
  -30.4360  -12.3578   19.4195 C   0  0  0  0  0  0
  -29.5006  -12.5125   18.2004 C   0  0  0  0  0  0
  -28.0203  -12.3638   18.6124 C   0  0  0  0  0  0
  -27.6548  -13.2120   19.8601 C   0  0  2  0  0  0
  -28.7033  -13.0293   20.9792 C   0  0  0  0  0  0
  -25.2588  -13.8140   20.5689 C   0  0  0  0  0  0
  -24.1845  -13.0412   20.9208 C   0  0  0  0  0  0
  -24.6412  -11.6893   20.8739 C   0  0  0  0  0  0
  -23.9067  -10.4284   21.0396 C   0  0  0  0  0  0
  -24.3617   -9.4194   21.9170 C   0  0  0  0  0  0
  -23.6294   -8.2229   22.0759 C   0  0  0  0  0  0
  -22.4278   -8.0262   21.3548 C   0  0  0  0  0  0
  -21.9909   -9.0245   20.4661 C   0  0  0  0  0  0
  -22.7236  -10.2120   20.3054 C   0  0  0  0  0  0
  -21.6851   -6.0732   22.5285 C   0  0  0  0  0  0
  -21.4012   -6.5637   23.8222 C   0  0  0  0  0  0
  -21.3653   -5.6789   24.9190 C   0  0  0  0  0  0
  -21.6038   -4.3054   24.7235 C   0  0  0  0  0  0
  -21.8814   -3.8143   23.4359 C   0  0  0  0  0  0
  -21.9193   -4.6962   22.3411 C   0  0  0  0  0  0
  -22.7867  -13.5233   21.1843 C   0  0  0  0  0  0
  -22.1665   -4.2145   21.0994 F   0  0  0  0  0  0
  -21.5622   -3.4536   25.7753 F   0  0  0  0  0  0
  -30.0208  -13.3601   20.4147 N   0  0  0  0  0  0
  -26.3009  -12.9311   20.3299 N   0  0  0  0  0  0
  -25.9339  -11.6473   20.5739 N   0  0  0  0  0  0
  -22.0497  -12.8250   22.0410 N   0  0  0  0  0  0
  -25.4294  -15.1844   20.4104 N   0  0  0  0  0  0
  -31.8028  -14.7562   20.1534 O   0  0  0  0  0  0
  -21.6631   -6.8868   21.4248 O   0  0  0  0  0  0
  -22.3583  -14.5536   20.6669 O   0  0  0  0  0  0
  -24.6237  -31.8645   23.2045 C   0  0  0  0  0  0
  -25.9116  -32.4789   23.8363 C   0  0  1  0  0  0
  -27.2244  -27.3644   20.0884 C   0  0  0  0  0  0
  -25.5964  -33.8584   24.2318 N   0  0  0  0  0  0
  -23.4115  -30.4904   21.5479 C   0  0  2  0  0  0
  -24.8510  -28.9443   20.1149 C   0  0  0  0  0  0
  -22.7444  -29.4656   22.4949 C   0  0  0  0  0  0
  -18.0287  -28.1390   22.8490 C   0  0  0  0  0  0
  -24.1492  -36.7284   23.2636 C   0  0  0  0  0  0
  -25.9471  -30.8079   21.3633 C   0  0  0  0  0  0
  -26.0192  -29.4365   20.7084 C   0  0  0  0  0  0
  -27.2061  -28.6568   20.6861 C   0  0  0  0  0  0
  -26.0213  -26.8943   19.5123 C   0  0  0  0  0  0
  -24.8494  -27.6725   19.5203 C   0  0  0  0  0  0
  -23.6233  -29.8278   20.1618 C   0  0  0  0  0  0
  -25.4112  -36.3076   24.0333 C   0  0  1  0  0  0
  -20.5881  -28.3693   23.1297 C   0  0  2  0  0  0
  -20.6770  -26.9421   22.5433 C   0  0  0  0  0  0
  -19.5749  -26.6392   21.5225 C   0  0  0  0  0  0
  -18.1925  -26.7939   22.1624 C   0  0  0  0  0  0
  -19.1539  -28.8850   23.2893 C   0  0  0  0  0  0
  -18.9465  -30.1449   23.8915 C   0  0  0  0  0  0
  -17.6466  -30.6590   24.0568 C   0  0  0  0  0  0
  -25.9051  -34.9452   23.5119 C   0  0  0  0  0  0
  -16.5358  -29.9093   23.6317 C   0  0  0  0  0  0
  -16.7275  -28.6509   23.0339 C   0  0  0  0  0  0
  -26.4531  -31.6554   25.0696 C   0  0  0  0  0  0
  -25.3814  -31.3663   26.1459 C   0  0  0  0  0  0
  -27.0373  -30.2998   24.6071 C   0  0  0  0  0  0
  -27.6109  -32.4269   25.7472 C   0  0  0  0  0  0
  -27.5578  -37.1795   24.8469 C   0  0  0  0  0  0
  -21.4165  -29.3056   22.3693 N   0  0  0  0  0  0
  -26.4284  -37.3774   23.9415 N   0  0  0  0  0  0
  -24.6799  -31.0698   22.0969 N   0  0  0  0  0  0
  -23.4188  -28.8200   23.3021 O   0  0  0  0  0  0
  -28.3969  -26.6093   20.1007 O   0  0  0  0  0  0
  -26.5592  -34.8919   22.4670 O   0  0  0  0  0  0
  -23.5423  -32.1425   23.7410 O   0  0  0  0  0  0
  -27.4613  -24.0315   21.4380 C   0  0  0  0  0  0
  -28.3261  -24.0292   20.3238 C   0  0  0  0  0  0
  -27.9838  -21.8154   21.8903 C   0  0  0  0  0  0
  -28.8422  -21.7596   20.7530 C   0  0  0  0  0  0
  -28.3345  -20.8966   24.2407 C   0  0  0  0  0  0
  -27.5563  -19.0516   19.8885 C   0  0  0  0  0  0
  -29.2796  -17.0687   18.3674 C   0  0  0  0  0  0
  -31.3214  -18.2817   19.0367 C   0  0  0  0  0  0
  -27.7669  -20.6439   22.8405 C   0  0  0  0  0  0
  -29.6950  -20.4918   20.4219 C   0  0  0  0  0  0
  -28.4922  -25.3008   19.4477 C   0  0  0  0  0  0
  -30.0202  -17.0837   20.8386 C   0  0  0  0  0  0
  -29.0571  -19.2969   19.6002 C   0  0  1  0  0  0
  -29.8930  -17.9325   19.4993 C   0  0  0  0  0  0
  -27.2836  -22.9342   22.2099 N   0  0  0  0  0  0
  -28.9998  -22.8796   19.9719 N   0  0  0  0  0  0
  -29.7930  -15.6109   20.7642 N   0  0  0  0  0  0
  -31.4767  -12.4812   19.1154 H   0  0  0  0  0  0
  -30.3607  -11.3539   19.8404 H   0  0  0  0  0  0
  -29.7485  -11.7760   17.4346 H   0  0  0  0  0  0
  -29.6574  -13.4893   17.7388 H   0  0  0  0  0  0
  -27.8368  -11.3089   18.8135 H   0  0  0  0  0  0
  -27.3703  -12.6271   17.7773 H   0  0  0  0  0  0
  -27.6792  -14.2537   19.5393 H   0  0  0  0  0  0
  -28.7010  -11.9974   21.3315 H   0  0  0  0  0  0
  -28.4637  -13.6423   21.8510 H   0  0  0  0  0  0
  -25.2761   -9.5654   22.4750 H   0  0  0  0  0  0
  -23.9983   -7.4636   22.7508 H   0  0  0  0  0  0
  -21.0824   -8.8778   19.9005 H   0  0  0  0  0  0
  -22.3682  -10.9659   19.6181 H   0  0  0  0  0  0
  -21.2010   -7.6153   23.9702 H   0  0  0  0  0  0
  -21.1478   -6.0545   25.9088 H   0  0  0  0  0  0
  -22.0600   -2.7600   23.2879 H   0  0  0  0  0  0
  -22.4130  -11.9959   22.4864 H   0  0  0  0  0  0
  -21.1127  -13.1327   22.2599 H   0  0  0  0  0  0
  -24.6560  -15.8319   20.5133 H   0  0  0  0  0  0
  -26.2726  -15.6244   20.0663 H   0  0  0  0  0  0
  -26.7183  -32.5499   23.1118 H   0  0  0  0  0  0
  -25.0181  -33.9727   25.0507 H   0  0  0  0  0  0
  -22.7065  -31.3128   21.4111 H   0  0  0  0  0  0
  -23.3745  -35.9623   23.3294 H   0  0  0  0  0  0
  -24.3594  -36.8898   22.2049 H   0  0  0  0  0  0
  -23.7242  -37.6488   23.6660 H   0  0  0  0  0  0
  -26.0692  -31.5692   20.5908 H   0  0  0  0  0  0
  -26.8319  -30.8640   21.9855 H   0  0  0  0  0  0
  -28.1102  -29.0382   21.1399 H   0  0  0  0  0  0
  -25.9427  -25.9154   19.0678 H   0  0  0  0  0  0
  -23.9463  -27.2771   19.0759 H   0  0  0  0  0  0
  -23.7533  -30.6107   19.4133 H   0  0  0  0  0  0
  -22.7411  -29.2669   19.8483 H   0  0  0  0  0  0
  -25.1282  -36.1932   25.0820 H   0  0  0  0  0  0
  -20.9981  -28.3288   24.1413 H   0  0  0  0  0  0
  -20.5663  -26.2319   23.3640 H   0  0  0  0  0  0
  -21.6644  -26.7457   22.1249 H   0  0  0  0  0  0
  -19.6917  -25.6302   21.1249 H   0  0  0  0  0  0
  -19.6683  -27.3203   20.6751 H   0  0  0  0  0  0
  -17.4217  -26.6709   21.4005 H   0  0  0  0  0  0
  -18.0307  -26.0069   22.9000 H   0  0  0  0  0  0
  -19.7942  -30.7253   24.2308 H   0  0  0  0  0  0
  -17.5024  -31.6274   24.5172 H   0  0  0  0  0  0
  -15.5356  -30.3004   23.7621 H   0  0  0  0  0  0
  -15.8678  -28.0831   22.7032 H   0  0  0  0  0  0
  -24.6022  -30.6951   25.7827 H   0  0  0  0  0  0
  -24.8972  -32.2806   26.4894 H   0  0  0  0  0  0
  -25.8202  -30.8885   27.0224 H   0  0  0  0  0  0
  -26.2910  -29.6721   24.1181 H   0  0  0  0  0  0
  -27.4216  -29.7265   25.4513 H   0  0  0  0  0  0
  -27.8713  -30.4306   23.9172 H   0  0  0  0  0  0
  -27.2742  -33.3574   26.2049 H   0  0  0  0  0  0
  -28.3929  -32.6796   25.0302 H   0  0  0  0  0  0
  -28.0761  -31.8384   26.5385 H   0  0  0  0  0  0
  -28.2593  -38.0096   24.7515 H   0  0  0  0  0  0
  -28.1082  -36.2626   24.6294 H   0  0  0  0  0  0
  -27.2319  -37.1443   25.8883 H   0  0  0  0  0  0
  -20.9343  -29.8788   21.6907 H   0  0  0  0  0  0
  -26.0164  -38.2849   24.1426 H   0  0  0  0  0  0
  -26.8982  -24.9134   21.7096 H   0  0  0  0  0  0
  -28.1628  -20.0310   24.8819 H   0  0  0  0  0  0
  -27.8500  -21.7542   24.7079 H   0  0  0  0  0  0
  -29.4077  -21.0918   24.2085 H   0  0  0  0  0  0
  -27.0024  -19.9846   19.9767 H   0  0  0  0  0  0
  -27.3863  -18.4701   20.7931 H   0  0  0  0  0  0
  -27.0767  -18.5111   19.0724 H   0  0  0  0  0  0
  -29.9304  -16.2366   18.0953 H   0  0  0  0  0  0
  -29.1266  -17.6502   17.4578 H   0  0  0  0  0  0
  -28.3150  -16.6456   18.6462 H   0  0  0  0  0  0
  -31.9195  -17.3832   18.8803 H   0  0  0  0  0  0
  -31.8527  -18.8890   19.7708 H   0  0  0  0  0  0
  -31.3163  -18.8371   18.0976 H   0  0  0  0  0  0
  -28.2156  -19.7337   22.4535 H   0  0  0  0  0  0
  -26.6964  -20.4450   22.9036 H   0  0  0  0  0  0
  -30.5779  -20.8418   19.8838 H   0  0  0  0  0  0
  -30.0982  -20.1010   21.3548 H   0  0  0  0  0  0
  -27.8488  -25.2126   18.5737 H   0  0  0  0  0  0
  -29.4985  -25.2537   19.0318 H   0  0  0  0  0  0
  -29.2929  -17.4537   21.5601 H   0  0  0  0  0  0
  -30.9849  -17.2585   21.3198 H   0  0  0  0  0  0
  -29.0358  -19.7008   18.5849 H   0  0  0  0  0  0
  -28.8465  -15.3222   20.9525 H   0  0  0  0  0  0
  1 25  1  0  0  0
  1 30  2  0  0  0
  1 87  1  0  0  0
  2  3  1  0  0  0
  2 25  1  0  0  0
  2 88  1  0  0  0
  2 89  1  0  0  0
  3  4  1  0  0  0
  3 90  1  0  0  0
  3 91  1  0  0  0
  4  5  1  0  0  0
  4 92  1  0  0  0
  4 93  1  0  0  0
  5  6  1  0  0  0
  5 26  1  0  0  0
  5 94  1  0  0  0
  6 25  1  0  0  0
  6 95  1  0  0  0
  6 96  1  0  0  0
  7  8  2  0  0  0
  7 26  1  0  0  0
  7 29  1  0  0  0
  8  9  1  0  0  0
  8 22  1  0  0  0
  9 10  1  0  0  0
  9 27  2  0  0  0
 10 11  2  0  0  0
 10 15  1  0  0  0
 11 12  1  0  0  0
 11 97  1  0  0  0
 12 13  2  0  0  0
 12 98  1  0  0  0
 13 14  1  0  0  0
 13 31  1  0  0  0
 14 15  2  0  0  0
 14 99  1  0  0  0
 15100  1  0  0  0
 16 17  2  0  0  0
 16 21  1  0  0  0
 16 31  1  0  0  0
 17 18  1  0  0  0
 17101  1  0  0  0
 18 19  2  0  0  0
 18102  1  0  0  0
 19 20  1  0  0  0
 19 24  1  0  0  0
 20 21  2  0  0  0
 20103  1  0  0  0
 21 23  1  0  0  0
 22 28  1  0  0  0
 22 32  2  0  0  0
 26 27  1  0  0  0
 28104  1  0  0  0
 28105  1  0  0  0
 29106  1  0  0  0
 29107  1  0  0  0
 33 34  1  0  0  0
 33 66  1  0  0  0
 33 70  2  0  0  0
 34 36  1  0  0  0
 34 59  1  0  0  0
 34108  1  0  0  0
 35 44  2  0  0  0
 35 45  1  0  0  0
 35 68  1  0  0  0
 36 56  1  0  0  0
 36109  1  0  0  0
 37 39  1  0  0  0
 37 47  1  0  0  0
 37 66  1  0  0  0
 37110  1  0  0  0
 38 43  2  0  0  0
 38 46  1  0  0  0
 38 47  1  0  0  0
 39 64  1  0  0  0
 39 67  2  0  0  0
 40 52  1  0  0  0
 40 53  2  0  0  0
 40 58  1  0  0  0
 41111  1  0  0  0
 41112  1  0  0  0
 41113  1  0  0  0
 41 48  1  0  0  0
 42 43  1  0  0  0
 42 66  1  0  0  0
 42114  1  0  0  0
 42115  1  0  0  0
 43 44  1  0  0  0
 44116  1  0  0  0
 45 46  2  0  0  0
 45117  1  0  0  0
 46118  1  0  0  0
 47119  1  0  0  0
 47120  1  0  0  0
 48 56  1  0  0  0
 48 65  1  0  0  0
 48121  1  0  0  0
 49 50  1  0  0  0
 49 53  1  0  0  0
 49 64  1  0  0  0
 49122  1  0  0  0
 50 51  1  0  0  0
 50123  1  0  0  0
 50124  1  0  0  0
 51 52  1  0  0  0
 51125  1  0  0  0
 51126  1  0  0  0
 52127  1  0  0  0
 52128  1  0  0  0
 53 54  1  0  0  0
 54 55  2  0  0  0
 54129  1  0  0  0
 55 57  1  0  0  0
 55130  1  0  0  0
 56 69  2  0  0  0
 57 58  2  0  0  0
 57131  1  0  0  0
 58132  1  0  0  0
 59 60  1  0  0  0
 59 61  1  0  0  0
 59 62  1  0  0  0
 60133  1  0  0  0
 60134  1  0  0  0
 60135  1  0  0  0
 61136  1  0  0  0
 61137  1  0  0  0
 61138  1  0  0  0
 62139  1  0  0  0
 62140  1  0  0  0
 62141  1  0  0  0
 63 65  1  0  0  0
 63142  1  0  0  0
 63143  1  0  0  0
 63144  1  0  0  0
 64145  1  0  0  0
 65146  1  0  0  0
 68 81  1  0  0  0
 71 72  2  0  0  0
 71 85  1  0  0  0
 71147  1  0  0  0
 72 81  1  0  0  0
 72 86  1  0  0  0
 73 74  1  0  0  0
 73 79  1  0  0  0
 73 85  2  0  0  0
 74 80  1  0  0  0
 74 86  2  0  0  0
 75 79  1  0  0  0
 75148  1  0  0  0
 75149  1  0  0  0
 75150  1  0  0  0
 76151  1  0  0  0
 76152  1  0  0  0
 76153  1  0  0  0
 76 83  1  0  0  0
 77154  1  0  0  0
 77155  1  0  0  0
 77156  1  0  0  0
 77 84  1  0  0  0
 78 84  1  0  0  0
 78157  1  0  0  0
 78158  1  0  0  0
 78159  1  0  0  0
 79160  1  0  0  0
 79161  1  0  0  0
 80 83  1  0  0  0
 80162  1  0  0  0
 80163  1  0  0  0
 81164  1  0  0  0
 81165  1  0  0  0
 82 84  1  0  0  0
 82 87  1  0  0  0
 82166  1  0  0  0
 82167  1  0  0  0
 83 84  1  0  0  0
 83168  1  0  0  0
 87169  1  0  0  0
M  ISO  4   1 100  68 101  81 101  87 100
M  END
> <chiral flag>
0

> <version>
0

> <s_m_source_file>
/data/baiqing/PycharmProjects/Reinvent-master-3.2/result/LINK_invent/BTK/process_docking_weight1_custom_sum_contain_oxygen_bond_distance_aromatic_linkinvent_7_9_3/rearranged_h_0081.sdf

> <i_m_source_file_index>
66

> <r_mmod_Potential_Energy-OPLS-2005>
73.9100189208984

> <r_mmod_Stretch_Energy-OPLS-2005>
70.8876953125

> <r_mmod_Bend_Energy-OPLS-2005>
148.936874389648

> <r_mmod_Torsional_Energy-OPLS-2005>
225.370330810547

> <r_mmod_Improper_Torsional_Energy-OPLS-2005>
5.12835311889648

> <r_mmod_Van_der_Waal_Energy-OPLS-2005>
148.837005615234

> <r_mmod_Electrostatic_Energy-OPLS-2005>
-343.361389160156

> <r_mmod_Solvation_Energy-OPLS-2005>
-212.080947875977

> <b_mmod_Minimization_Converged-OPLS-2005>
0

> <r_mmod_RMS_Derivative-OPLS-2005>
2.94406318664551

$$$$
66
                    3D
 Structure written by MMmdl.
165173  0  0  1  0            999 V2000
  -30.7043  -14.4017   20.5564 C   0  0  0  0  0  0
  -30.4205  -12.2551   19.4149 C   0  0  0  0  0  0
  -29.4929  -12.4915   18.2040 C   0  0  0  0  0  0
  -28.0127  -12.3605   18.6130 C   0  0  0  0  0  0
  -27.6674  -13.1897   19.8797 C   0  0  2  0  0  0
  -28.7057  -12.9407   21.0004 C   0  0  0  0  0  0
  -25.2633  -13.8135   20.5619 C   0  0  0  0  0  0
  -24.1873  -13.0449   20.9153 C   0  0  0  0  0  0
  -24.6382  -11.6902   20.8723 C   0  0  0  0  0  0
  -23.9039  -10.4295   21.0404 C   0  0  0  0  0  0
  -24.3605   -9.4216   21.9179 C   0  0  0  0  0  0
  -23.6285   -8.2245   22.0758 C   0  0  0  0  0  0
  -22.4263   -8.0282   21.3552 C   0  0  0  0  0  0
  -21.9891   -9.0249   20.4660 C   0  0  0  0  0  0
  -22.7208  -10.2129   20.3060 C   0  0  0  0  0  0
  -21.6861   -6.0733   22.5272 C   0  0  0  0  0  0
  -21.4029   -6.5646   23.8202 C   0  0  0  0  0  0
  -21.3640   -5.6799   24.9158 C   0  0  0  0  0  0
  -21.6023   -4.3058   24.7217 C   0  0  0  0  0  0
  -21.8833   -3.8147   23.4343 C   0  0  0  0  0  0
  -21.9206   -4.6961   22.3399 C   0  0  0  0  0  0
  -22.7901  -13.5282   21.1816 C   0  0  0  0  0  0
  -22.1676   -4.2152   21.0977 F   0  0  0  0  0  0
  -21.5601   -3.4541   25.7723 F   0  0  0  0  0  0
  -30.0463  -13.2202   20.4555 N   0  0  0  0  0  0
  -26.3055  -12.9264   20.3361 N   0  0  0  0  0  0
  -25.9306  -11.6449   20.5776 N   0  0  0  0  0  0
  -22.0554  -12.8267   22.0372 N   0  0  0  0  0  0
  -25.4421  -15.1828   20.3925 N   0  0  0  0  0  0
  -31.8294  -14.6057   20.0930 O   0  0  0  0  0  0
  -21.6647   -6.8867   21.4231 O   0  0  0  0  0  0
  -22.3591  -14.5577   20.6656 O   0  0  0  0  0  0
  -24.6123  -31.8756   23.2130 C   0  0  0  0  0  0
  -25.9042  -32.4854   23.8401 C   0  0  1  0  0  0
  -27.2386  -27.4907   20.0744 C   0  0  0  0  0  0
  -25.5925  -33.8647   24.2348 N   0  0  0  0  0  0
  -23.3968  -30.5039   21.5526 C   0  0  2  0  0  0
  -24.8397  -28.9619   20.1211 C   0  0  0  0  0  0
  -22.7374  -29.4872   22.5067 C   0  0  0  0  0  0
  -18.0066  -28.1465   22.8260 C   0  0  0  0  0  0
  -24.1487  -36.7326   23.2631 C   0  0  0  0  0  0
  -25.9192  -30.8500   21.3602 C   0  0  0  0  0  0
  -25.9960  -29.4845   20.7159 C   0  0  0  0  0  0
  -27.1980  -28.7511   20.7006 C   0  0  0  0  0  0
  -26.0739  -26.9664   19.4789 C   0  0  0  0  0  0
  -24.8689  -27.6944   19.5079 C   0  0  0  0  0  0
  -23.5991  -29.8233   20.1714 C   0  0  0  0  0  0
  -25.4103  -36.3115   24.0332 C   0  0  1  0  0  0
  -20.5914  -28.3711   23.1113 C   0  0  2  0  0  0
  -20.7759  -26.9757   22.4547 C   0  0  0  0  0  0
  -19.5472  -26.4200   21.7063 C   0  0  0  0  0  0
  -18.1053  -26.8535   22.0278 C   0  0  0  0  0  0
  -19.1461  -28.8693   23.2794 C   0  0  0  0  0  0
  -18.9470  -30.1230   23.9012 C   0  0  0  0  0  0
  -17.6543  -30.6513   24.0757 C   0  0  0  0  0  0
  -25.9031  -34.9488   23.5127 C   0  0  0  0  0  0
  -16.5347  -29.9172   23.6511 C   0  0  0  0  0  0
  -16.7138  -28.6673   23.0364 C   0  0  0  0  0  0
  -26.4478  -31.6602   25.0702 C   0  0  0  0  0  0
  -25.3765  -31.3712   26.1467 C   0  0  0  0  0  0
  -27.0286  -30.3044   24.6040 C   0  0  0  0  0  0
  -27.6051  -32.4309   25.7484 C   0  0  0  0  0  0
  -27.5575  -37.1809   24.8458 C   0  0  0  0  0  0
  -21.4078  -29.3477   22.3961 N   0  0  0  0  0  0
  -26.4284  -37.3797   23.9402 N   0  0  0  0  0  0
  -24.6616  -31.0894   22.1007 N   0  0  0  0  0  0
  -23.4161  -28.8224   23.2946 O   0  0  0  0  0  0
  -28.4153  -26.7974   20.0013 O   0  0  0  0  0  0
  -26.5587  -34.8933   22.4681 O   0  0  0  0  0  0
  -23.5338  -32.1521   23.7560 O   0  0  0  0  0  0
  -28.3700  -20.1473   20.5935 C   0  0  0  0  0  0
  -29.0395  -21.3401   20.7240 C   0  0  0  0  0  0
  -27.1071  -21.4586   21.7503 C   0  0  0  0  0  0
  -30.3777  -21.7294   20.1713 C   0  0  0  0  0  0
  -25.9502  -22.0122   22.5176 C   0  0  0  0  0  0
  -27.9150  -18.6132   18.6579 C   0  0  0  0  0  0
  -28.2377  -24.5218   20.7477 C   0  0  0  0  0  0
  -28.9612  -17.7060   20.8169 C   0  0  0  0  0  0
  -28.5104  -23.5365   21.8900 C   0  0  0  0  0  0
  -30.0604  -16.7391   20.3498 C   0  0  0  0  0  0
  -28.6571  -25.9477   21.1103 C   0  0  0  0  0  0
  -28.8189  -18.9133   19.8665 C   0  0  2  0  0  0
  -27.1443  -20.2284   21.2485 N   0  0  0  0  0  0
  -28.2200  -22.1709   21.4863 N   0  0  0  0  0  0
  -29.9311  -15.4177   20.9516 N   0  0  0  0  0  0
  -31.4662  -12.3465   19.1144 H   0  0  0  0  0  0
  -30.3052  -11.2371   19.7904 H   0  0  0  0  0  0
  -29.7255  -11.7823   17.4086 H   0  0  0  0  0  0
  -29.6694  -13.4828   17.7852 H   0  0  0  0  0  0
  -27.8121  -11.3032   18.7930 H   0  0  0  0  0  0
  -27.3661  -12.6503   17.7833 H   0  0  0  0  0  0
  -27.7231  -14.2403   19.5945 H   0  0  0  0  0  0
  -28.6630  -11.9040   21.3392 H   0  0  0  0  0  0
  -28.4786  -13.5395   21.8831 H   0  0  0  0  0  0
  -25.2750   -9.5690   22.4747 H   0  0  0  0  0  0
  -24.0005   -7.4642   22.7469 H   0  0  0  0  0  0
  -21.0827   -8.8752   19.8966 H   0  0  0  0  0  0
  -22.3659  -10.9665   19.6174 H   0  0  0  0  0  0
  -21.2046   -7.6160   23.9705 H   0  0  0  0  0  0
  -21.1436   -6.0526   25.9056 H   0  0  0  0  0  0
  -22.0629   -2.7613   23.2837 H   0  0  0  0  0  0
  -22.4200  -11.9938   22.4752 H   0  0  0  0  0  0
  -21.1176  -13.1295   22.2590 H   0  0  0  0  0  0
  -24.6811  -15.8445   20.4946 H   0  0  0  0  0  0
  -26.2880  -15.6051   20.0338 H   0  0  0  0  0  0
  -26.7111  -32.5570   23.1171 H   0  0  0  0  0  0
  -25.0078  -33.9814   25.0495 H   0  0  0  0  0  0
  -22.6884  -31.3221   21.4084 H   0  0  0  0  0  0
  -23.3736  -35.9673   23.3319 H   0  0  0  0  0  0
  -24.3586  -36.8917   22.2039 H   0  0  0  0  0  0
  -23.7265  -37.6546   23.6640 H   0  0  0  0  0  0
  -26.0220  -31.6129   20.5881 H   0  0  0  0  0  0
  -26.8120  -30.9112   21.9710 H   0  0  0  0  0  0
  -28.0951  -29.1529   21.1518 H   0  0  0  0  0  0
  -26.1062  -26.0071   18.9825 H   0  0  0  0  0  0
  -23.9794  -27.2832   19.0499 H   0  0  0  0  0  0
  -23.6994  -30.5928   19.4051 H   0  0  0  0  0  0
  -22.7231  -29.2367   19.8866 H   0  0  0  0  0  0
  -25.1281  -36.1969   25.0826 H   0  0  0  0  0  0
  -20.9847  -28.3048   24.1287 H   0  0  0  0  0  0
  -21.1741  -26.2942   23.2179 H   0  0  0  0  0  0
  -21.6068  -26.9999   21.7454 H   0  0  0  0  0  0
  -19.3932  -26.0230   22.7093 H   0  0  0  0  0  0
  -19.6045  -27.3470   21.1322 H   0  0  0  0  0  0
  -17.5734  -27.0134   21.0865 H   0  0  0  0  0  0
  -17.5055  -26.0804   22.5240 H   0  0  0  0  0  0
  -19.7996  -30.6927   24.2459 H   0  0  0  0  0  0
  -17.5229  -31.6161   24.5472 H   0  0  0  0  0  0
  -15.5390  -30.3167   23.7901 H   0  0  0  0  0  0
  -15.8468  -28.1204   22.6920 H   0  0  0  0  0  0
  -24.5891  -30.7120   25.7809 H   0  0  0  0  0  0
  -24.9025  -32.2883   26.4973 H   0  0  0  0  0  0
  -25.8127  -30.8824   27.0189 H   0  0  0  0  0  0
  -26.2811  -29.6819   24.1111 H   0  0  0  0  0  0
  -27.4094  -29.7252   25.4462 H   0  0  0  0  0  0
  -27.8635  -30.4362   23.9153 H   0  0  0  0  0  0
  -27.2654  -33.3568   26.2147 H   0  0  0  0  0  0
  -28.3842  -32.6944   25.0319 H   0  0  0  0  0  0
  -28.0760  -31.8388   26.5347 H   0  0  0  0  0  0
  -28.2591  -38.0105   24.7500 H   0  0  0  0  0  0
  -28.1072  -36.2636   24.6289 H   0  0  0  0  0  0
  -27.2300  -37.1469   25.8863 H   0  0  0  0  0  0
  -20.9210  -29.9421   21.7394 H   0  0  0  0  0  0
  -26.0175  -38.2871   24.1418 H   0  0  0  0  0  0
  -30.6367  -22.7658   20.3770 H   0  0  0  0  0  0
  -30.3947  -21.6012   19.0882 H   0  0  0  0  0  0
  -31.1644  -21.1004   20.5890 H   0  0  0  0  0  0
  -25.1233  -21.3033   22.5367 H   0  0  0  0  0  0
  -25.5966  -22.9343   22.0555 H   0  0  0  0  0  0
  -26.2452  -22.2239   23.5456 H   0  0  0  0  0  0
  -27.8709  -19.4696   17.9840 H   0  0  0  0  0  0
  -26.8945  -18.3862   18.9688 H   0  0  0  0  0  0
  -28.2807  -17.7639   18.0824 H   0  0  0  0  0  0
  -27.1788  -24.4941   20.4948 H   0  0  0  0  0  0
  -28.7715  -24.2168   19.8469 H   0  0  0  0  0  0
  -29.2326  -18.0530   21.8152 H   0  0  0  0  0  0
  -27.9954  -17.2107   20.9280 H   0  0  0  0  0  0
  -27.9146  -23.7964   22.7658 H   0  0  0  0  0  0
  -29.5506  -23.5914   22.2096 H   0  0  0  0  0  0
  -29.9981  -16.6115   19.2666 H   0  0  0  0  0  0
  -31.0465  -17.1584   20.5564 H   0  0  0  0  0  0
  -29.7243  -25.9808   21.3325 H   0  0  0  0  0  0
  -28.1347  -26.2859   22.0071 H   0  0  0  0  0  0
  -29.8112  -19.1182   19.4621 H   0  0  0  0  0  0
  -29.0373  -15.1693   21.3471 H   0  0  0  0  0  0
  1 25  1  0  0  0
  1 30  2  0  0  0
  1 85  1  0  0  0
  2  3  1  0  0  0
  2 25  1  0  0  0
  2 86  1  0  0  0
  2 87  1  0  0  0
  3  4  1  0  0  0
  3 88  1  0  0  0
  3 89  1  0  0  0
  4  5  1  0  0  0
  4 90  1  0  0  0
  4 91  1  0  0  0
  5  6  1  0  0  0
  5 26  1  0  0  0
  5 92  1  0  0  0
  6 25  1  0  0  0
  6 93  1  0  0  0
  6 94  1  0  0  0
  7  8  2  0  0  0
  7 26  1  0  0  0
  7 29  1  0  0  0
  8  9  1  0  0  0
  8 22  1  0  0  0
  9 10  1  0  0  0
  9 27  2  0  0  0
 10 11  2  0  0  0
 10 15  1  0  0  0
 11 12  1  0  0  0
 11 95  1  0  0  0
 12 13  2  0  0  0
 12 96  1  0  0  0
 13 14  1  0  0  0
 13 31  1  0  0  0
 14 15  2  0  0  0
 14 97  1  0  0  0
 15 98  1  0  0  0
 16 17  2  0  0  0
 16 21  1  0  0  0
 16 31  1  0  0  0
 17 18  1  0  0  0
 17 99  1  0  0  0
 18 19  2  0  0  0
 18100  1  0  0  0
 19 20  1  0  0  0
 19 24  1  0  0  0
 20 21  2  0  0  0
 20101  1  0  0  0
 21 23  1  0  0  0
 22 28  1  0  0  0
 22 32  2  0  0  0
 26 27  1  0  0  0
 28102  1  0  0  0
 28103  1  0  0  0
 29104  1  0  0  0
 29105  1  0  0  0
 33 34  1  0  0  0
 33 66  1  0  0  0
 33 70  2  0  0  0
 34 36  1  0  0  0
 34 59  1  0  0  0
 34106  1  0  0  0
 35 44  2  0  0  0
 35 45  1  0  0  0
 35 68  1  0  0  0
 36 56  1  0  0  0
 36107  1  0  0  0
 37 39  1  0  0  0
 37 47  1  0  0  0
 37 66  1  0  0  0
 37108  1  0  0  0
 38 43  2  0  0  0
 38 46  1  0  0  0
 38 47  1  0  0  0
 39 64  1  0  0  0
 39 67  2  0  0  0
 40 52  1  0  0  0
 40 53  2  0  0  0
 40 58  1  0  0  0
 41109  1  0  0  0
 41110  1  0  0  0
 41111  1  0  0  0
 41 48  1  0  0  0
 42 43  1  0  0  0
 42 66  1  0  0  0
 42112  1  0  0  0
 42113  1  0  0  0
 43 44  1  0  0  0
 44114  1  0  0  0
 45 46  2  0  0  0
 45115  1  0  0  0
 46116  1  0  0  0
 47117  1  0  0  0
 47118  1  0  0  0
 48 56  1  0  0  0
 48 65  1  0  0  0
 48119  1  0  0  0
 49 50  1  0  0  0
 49 53  1  0  0  0
 49 64  1  0  0  0
 49120  1  0  0  0
 50 51  1  0  0  0
 50121  1  0  0  0
 50122  1  0  0  0
 51 52  1  0  0  0
 51123  1  0  0  0
 51124  1  0  0  0
 52125  1  0  0  0
 52126  1  0  0  0
 53 54  1  0  0  0
 54 55  2  0  0  0
 54127  1  0  0  0
 55 57  1  0  0  0
 55128  1  0  0  0
 56 69  2  0  0  0
 57 58  2  0  0  0
 57129  1  0  0  0
 58130  1  0  0  0
 59 60  1  0  0  0
 59 61  1  0  0  0
 59 62  1  0  0  0
 60131  1  0  0  0
 60132  1  0  0  0
 60133  1  0  0  0
 61134  1  0  0  0
 61135  1  0  0  0
 61136  1  0  0  0
 62137  1  0  0  0
 62138  1  0  0  0
 62139  1  0  0  0
 63 65  1  0  0  0
 63140  1  0  0  0
 63141  1  0  0  0
 63142  1  0  0  0
 64143  1  0  0  0
 65144  1  0  0  0
 68 81  1  0  0  0
 71 72  2  0  0  0
 71 82  1  0  0  0
 71 83  1  0  0  0
 72 74  1  0  0  0
 72 84  1  0  0  0
 73 75  1  0  0  0
 73 83  2  0  0  0
 73 84  1  0  0  0
 74145  1  0  0  0
 74146  1  0  0  0
 74147  1  0  0  0
 75148  1  0  0  0
 75149  1  0  0  0
 75150  1  0  0  0
 76151  1  0  0  0
 76152  1  0  0  0
 76153  1  0  0  0
 76 82  1  0  0  0
 77 79  1  0  0  0
 77 81  1  0  0  0
 77154  1  0  0  0
 77155  1  0  0  0
 78 80  1  0  0  0
 78 82  1  0  0  0
 78156  1  0  0  0
 78157  1  0  0  0
 79 84  1  0  0  0
 79158  1  0  0  0
 79159  1  0  0  0
 80 85  1  0  0  0
 80160  1  0  0  0
 80161  1  0  0  0
 81162  1  0  0  0
 81163  1  0  0  0
 82164  1  0  0  0
 85165  1  0  0  0
M  ISO  4   1 100  68 101  81 101  85 100
M  END
> <chiral flag>
0

> <version>
0

> <s_m_source_file>
/data/baiqing/PycharmProjects/Reinvent-master-3.2/result/LINK_invent/BTK/process_docking_weight1_custom_sum_contain_oxygen_bond_distance_aromatic_linkinvent_7_9_3/rearranged_h_0081.sdf

> <i_m_source_file_index>
67

> <r_mmod_Potential_Energy-OPLS-2005>
139.7666015625

> <r_mmod_Stretch_Energy-OPLS-2005>
29.988302230835

> <r_mmod_Bend_Energy-OPLS-2005>
327.446258544922

> <r_mmod_Torsional_Energy-OPLS-2005>
251.809417724609

> <r_mmod_Improper_Torsional_Energy-OPLS-2005>
8.62077236175537

> <r_mmod_Van_der_Waal_Energy-OPLS-2005>
147.48307800293

> <r_mmod_Electrostatic_Energy-OPLS-2005>
-435.470489501953

> <r_mmod_Solvation_Energy-OPLS-2005>
-213.435836791992

> <b_mmod_Minimization_Converged-OPLS-2005>
0

> <r_mmod_RMS_Derivative-OPLS-2005>
2.44005274772644

$$$$
67
                    3D
 Structure written by MMmdl.
157165  0  0  1  0            999 V2000
  -30.6409  -14.7094   20.4896 C   0  0  0  0  0  0
  -30.4339  -12.4381   19.4813 C   0  0  0  0  0  0
  -29.5162  -12.5199   18.2427 C   0  0  0  0  0  0
  -28.0403  -12.3457   18.6534 C   0  0  0  0  0  0
  -27.6467  -13.2359   19.8637 C   0  0  2  0  0  0
  -28.6909  -13.1549   21.0007 C   0  0  0  0  0  0
  -25.2511  -13.8188   20.5703 C   0  0  0  0  0  0
  -24.1804  -13.0441   20.9200 C   0  0  0  0  0  0
  -24.6394  -11.6914   20.8749 C   0  0  0  0  0  0
  -23.9077  -10.4294   21.0406 C   0  0  0  0  0  0
  -24.3627   -9.4210   21.9181 C   0  0  0  0  0  0
  -23.6308   -8.2246   22.0755 C   0  0  0  0  0  0
  -22.4293   -8.0276   21.3545 C   0  0  0  0  0  0
  -21.9927   -9.0253   20.4648 C   0  0  0  0  0  0
  -22.7252  -10.2135   20.3060 C   0  0  0  0  0  0
  -21.6859   -6.0744   22.5280 C   0  0  0  0  0  0
  -21.4017   -6.5645   23.8213 C   0  0  0  0  0  0
  -21.3670   -5.6790   24.9174 C   0  0  0  0  0  0
  -21.6055   -4.3055   24.7221 C   0  0  0  0  0  0
  -21.8814   -3.8153   23.4339 C   0  0  0  0  0  0
  -21.9193   -4.6974   22.3399 C   0  0  0  0  0  0
  -22.7824  -13.5215   21.1855 C   0  0  0  0  0  0
  -22.1651   -4.2164   21.0975 F   0  0  0  0  0  0
  -21.5644   -3.4528   25.7731 F   0  0  0  0  0  0
  -29.9997  -13.4932   20.4245 N   0  0  0  0  0  0
  -26.2967  -12.9415   20.3348 N   0  0  0  0  0  0
  -25.9339  -11.6542   20.5770 N   0  0  0  0  0  0
  -22.0485  -12.8205   22.0413 N   0  0  0  0  0  0
  -25.4160  -15.1918   20.4113 N   0  0  0  0  0  0
  -31.8178  -14.8093   20.1341 O   0  0  0  0  0  0
  -21.6646   -6.8886   21.4241 O   0  0  0  0  0  0
  -22.3509  -14.5532   20.6712 O   0  0  0  0  0  0
  -24.6300  -31.8579   23.2035 C   0  0  0  0  0  0
  -25.9145  -32.4777   23.8338 C   0  0  1  0  0  0
  -27.2097  -27.2769   20.1137 C   0  0  0  0  0  0
  -25.5942  -33.8582   24.2253 N   0  0  0  0  0  0
  -23.4238  -30.4882   21.5468 C   0  0  2  0  0  0
  -24.8687  -28.9513   20.1038 C   0  0  0  0  0  0
  -22.7490  -29.4625   22.4900 C   0  0  0  0  0  0
  -18.0299  -28.1403   22.8481 C   0  0  0  0  0  0
  -24.1493  -36.7293   23.2629 C   0  0  0  0  0  0
  -25.9712  -30.7770   21.3814 C   0  0  0  0  0  0
  -26.0418  -29.4035   20.7202 C   0  0  0  0  0  0
  -27.2123  -28.5771   20.7227 C   0  0  0  0  0  0
  -26.0160  -26.9174   19.4366 C   0  0  0  0  0  0
  -24.8615  -27.7152   19.4493 C   0  0  0  0  0  0
  -23.6396  -29.8356   20.1583 C   0  0  0  0  0  0
  -25.4118  -36.3072   24.0310 C   0  0  1  0  0  0
  -20.5903  -28.3714   23.1266 C   0  0  2  0  0  0
  -20.6797  -26.9429   22.5418 C   0  0  0  0  0  0
  -19.5767  -26.6377   21.5227 C   0  0  0  0  0  0
  -18.1941  -26.7942   22.1627 C   0  0  0  0  0  0
  -19.1550  -28.8873   23.2871 C   0  0  0  0  0  0
  -18.9471  -30.1476   23.8889 C   0  0  0  0  0  0
  -17.6472  -30.6601   24.0567 C   0  0  0  0  0  0
  -25.9062  -34.9453   23.5073 C   0  0  0  0  0  0
  -16.5362  -29.9098   23.6345 C   0  0  0  0  0  0
  -16.7282  -28.6523   23.0342 C   0  0  0  0  0  0
  -26.4514  -31.6595   25.0718 C   0  0  0  0  0  0
  -25.3728  -31.3747   26.1423 C   0  0  0  0  0  0
  -27.0350  -30.3009   24.6193 C   0  0  0  0  0  0
  -27.6065  -32.4323   25.7500 C   0  0  0  0  0  0
  -27.5583  -37.1783   24.8444 C   0  0  0  0  0  0
  -21.4200  -29.3052   22.3637 N   0  0  0  0  0  0
  -26.4280  -37.3785   23.9415 N   0  0  0  0  0  0
  -24.6948  -31.0567   22.1006 N   0  0  0  0  0  0
  -23.4199  -28.8146   23.2980 O   0  0  0  0  0  0
  -28.2899  -26.3590   20.2064 O   0  0  0  0  0  0
  -26.5636  -34.8923   22.4644 O   0  0  0  0  0  0
  -23.5454  -32.1397   23.7338 O   0  0  0  0  0  0
  -27.5437  -22.5996   18.1151 C   0  0  0  0  0  0
  -28.4375  -22.3086   19.1760 C   0  0  0  0  0  0
  -28.8786  -20.9059   19.1801 C   0  0  0  0  0  0
  -27.8582  -20.6033   17.1140 C   0  0  0  0  0  0
  -27.6334  -19.7067   15.9152 C   0  0  0  0  0  0
  -28.8269  -23.5653   20.0849 C   0  0  0  0  0  0
  -29.6951  -20.0218   20.2052 C   0  0  0  0  0  0
  -29.2994  -18.4371   20.3022 C   0  0  0  0  0  0
  -30.3506  -17.3032   20.7515 C   0  0  0  0  0  0
  -28.0560  -24.9580   19.7355 C   0  0  0  0  0  0
  -27.2603  -21.7730   17.1042 N   0  0  0  0  0  0
  -28.6268  -20.1513   18.0868 N   0  0  0  0  0  0
  -29.9013  -15.8427   20.7660 N   0  0  0  0  0  0
  -31.4769  -12.5535   19.1837 H   0  0  0  0  0  0
  -30.3652  -11.4552   19.9501 H   0  0  0  0  0  0
  -29.7976  -11.7610   17.5119 H   0  0  0  0  0  0
  -29.6516  -13.4838   17.7490 H   0  0  0  0  0  0
  -27.8904  -11.2950   18.9033 H   0  0  0  0  0  0
  -27.3846  -12.5533   17.8069 H   0  0  0  0  0  0
  -27.6450  -14.2626   19.4955 H   0  0  0  0  0  0
  -28.7133  -12.1540   21.4368 H   0  0  0  0  0  0
  -28.4313  -13.8337   21.8155 H   0  0  0  0  0  0
  -25.2779   -9.5685   22.4744 H   0  0  0  0  0  0
  -24.0027   -7.4635   22.7474 H   0  0  0  0  0  0
  -21.0861   -8.8778   19.8946 H   0  0  0  0  0  0
  -22.3719  -10.9678   19.6167 H   0  0  0  0  0  0
  -21.1998   -7.6151   23.9721 H   0  0  0  0  0  0
  -21.1507   -6.0520   25.9077 H   0  0  0  0  0  0
  -22.0588   -2.7617   23.2830 H   0  0  0  0  0  0
  -22.4125  -11.9886   22.4817 H   0  0  0  0  0  0
  -21.1113  -13.1235   22.2630 H   0  0  0  0  0  0
  -24.6431  -15.8391   20.5223 H   0  0  0  0  0  0
  -26.2622  -15.6389   20.0830 H   0  0  0  0  0  0
  -26.7208  -32.5441   23.1078 H   0  0  0  0  0  0
  -25.0083  -33.9729   25.0383 H   0  0  0  0  0  0
  -22.7198  -31.3114   21.4080 H   0  0  0  0  0  0
  -23.3771  -35.9607   23.3254 H   0  0  0  0  0  0
  -24.3585  -36.8968   22.2052 H   0  0  0  0  0  0
  -23.7236  -37.6467   23.6698 H   0  0  0  0  0  0
  -26.1010  -31.5386   20.6104 H   0  0  0  0  0  0
  -26.8541  -30.8278   22.0078 H   0  0  0  0  0  0
  -28.1053  -28.9162   21.2281 H   0  0  0  0  0  0
  -25.9146  -25.9949   18.8881 H   0  0  0  0  0  0
  -23.9696  -27.3744   18.9404 H   0  0  0  0  0  0
  -23.7574  -30.6182   19.4067 H   0  0  0  0  0  0
  -22.7580  -29.2693   19.8528 H   0  0  0  0  0  0
  -25.1298  -36.1890   25.0800 H   0  0  0  0  0  0
  -21.0013  -28.3315   24.1377 H   0  0  0  0  0  0
  -20.5709  -26.2325   23.3628 H   0  0  0  0  0  0
  -21.6663  -26.7450   22.1201 H   0  0  0  0  0  0
  -19.6931  -25.6272   21.1283 H   0  0  0  0  0  0
  -19.6725  -27.3170   20.6742 H   0  0  0  0  0  0
  -17.4213  -26.6687   21.4024 H   0  0  0  0  0  0
  -18.0338  -26.0092   22.9030 H   0  0  0  0  0  0
  -19.7943  -30.7303   24.2241 H   0  0  0  0  0  0
  -17.5019  -31.6280   24.5168 H   0  0  0  0  0  0
  -15.5362  -30.2992   23.7675 H   0  0  0  0  0  0
  -15.8682  -28.0850   22.7041 H   0  0  0  0  0  0
  -24.5925  -30.7077   25.7741 H   0  0  0  0  0  0
  -24.8902  -32.2924   26.4796 H   0  0  0  0  0  0
  -25.8030  -30.8954   27.0227 H   0  0  0  0  0  0
  -26.2928  -29.6756   24.1220 H   0  0  0  0  0  0
  -27.4036  -29.7266   25.4705 H   0  0  0  0  0  0
  -27.8805  -30.4273   23.9427 H   0  0  0  0  0  0
  -27.2689  -33.3646   26.2035 H   0  0  0  0  0  0
  -28.3917  -32.6838   25.0357 H   0  0  0  0  0  0
  -28.0689  -31.8464   26.5451 H   0  0  0  0  0  0
  -28.2536  -38.0139   24.7573 H   0  0  0  0  0  0
  -28.1138  -36.2675   24.6164 H   0  0  0  0  0  0
  -27.2312  -37.1304   25.8843 H   0  0  0  0  0  0
  -20.9362  -29.8776   21.6858 H   0  0  0  0  0  0
  -26.0142  -38.2828   24.1501 H   0  0  0  0  0  0
  -27.0273  -23.5363   18.0011 H   0  0  0  0  0  0
  -26.9664  -20.1694   15.1863 H   0  0  0  0  0  0
  -27.1887  -18.7604   16.2193 H   0  0  0  0  0  0
  -28.5785  -19.5039   15.4126 H   0  0  0  0  0  0
  -29.8997  -23.7258   19.9814 H   0  0  0  0  0  0
  -28.6580  -23.3090   21.1309 H   0  0  0  0  0  0
  -29.6177  -20.4771   21.1932 H   0  0  0  0  0  0
  -30.7451  -20.1080   19.9246 H   0  0  0  0  0  0
  -28.9724  -18.0935   19.3233 H   0  0  0  0  0  0
  -28.4090  -18.3642   20.9262 H   0  0  0  0  0  0
  -30.6961  -17.5396   21.7581 H   0  0  0  0  0  0
  -31.2346  -17.3857   20.1158 H   0  0  0  0  0  0
  -27.0317  -24.6924   19.9902 H   0  0  0  0  0  0
  -28.1386  -25.1079   18.6605 H   0  0  0  0  0  0
  -28.9462  -15.6783   21.0503 H   0  0  0  0  0  0
  1 25  1  0  0  0
  1 30  2  0  0  0
  1 83  1  0  0  0
  2  3  1  0  0  0
  2 25  1  0  0  0
  2 84  1  0  0  0
  2 85  1  0  0  0
  3  4  1  0  0  0
  3 86  1  0  0  0
  3 87  1  0  0  0
  4  5  1  0  0  0
  4 88  1  0  0  0
  4 89  1  0  0  0
  5  6  1  0  0  0
  5 26  1  0  0  0
  5 90  1  0  0  0
  6 25  1  0  0  0
  6 91  1  0  0  0
  6 92  1  0  0  0
  7  8  2  0  0  0
  7 26  1  0  0  0
  7 29  1  0  0  0
  8  9  1  0  0  0
  8 22  1  0  0  0
  9 10  1  0  0  0
  9 27  2  0  0  0
 10 11  2  0  0  0
 10 15  1  0  0  0
 11 12  1  0  0  0
 11 93  1  0  0  0
 12 13  2  0  0  0
 12 94  1  0  0  0
 13 14  1  0  0  0
 13 31  1  0  0  0
 14 15  2  0  0  0
 14 95  1  0  0  0
 15 96  1  0  0  0
 16 17  2  0  0  0
 16 21  1  0  0  0
 16 31  1  0  0  0
 17 18  1  0  0  0
 17 97  1  0  0  0
 18 19  2  0  0  0
 18 98  1  0  0  0
 19 20  1  0  0  0
 19 24  1  0  0  0
 20 21  2  0  0  0
 20 99  1  0  0  0
 21 23  1  0  0  0
 22 28  1  0  0  0
 22 32  2  0  0  0
 26 27  1  0  0  0
 28100  1  0  0  0
 28101  1  0  0  0
 29102  1  0  0  0
 29103  1  0  0  0
 33 34  1  0  0  0
 33 66  1  0  0  0
 33 70  2  0  0  0
 34 36  1  0  0  0
 34 59  1  0  0  0
 34104  1  0  0  0
 35 44  2  0  0  0
 35 45  1  0  0  0
 35 68  1  0  0  0
 36 56  1  0  0  0
 36105  1  0  0  0
 37 39  1  0  0  0
 37 47  1  0  0  0
 37 66  1  0  0  0
 37106  1  0  0  0
 38 43  2  0  0  0
 38 46  1  0  0  0
 38 47  1  0  0  0
 39 64  1  0  0  0
 39 67  2  0  0  0
 40 52  1  0  0  0
 40 53  2  0  0  0
 40 58  1  0  0  0
 41107  1  0  0  0
 41108  1  0  0  0
 41109  1  0  0  0
 41 48  1  0  0  0
 42 43  1  0  0  0
 42 66  1  0  0  0
 42110  1  0  0  0
 42111  1  0  0  0
 43 44  1  0  0  0
 44112  1  0  0  0
 45 46  2  0  0  0
 45113  1  0  0  0
 46114  1  0  0  0
 47115  1  0  0  0
 47116  1  0  0  0
 48 56  1  0  0  0
 48 65  1  0  0  0
 48117  1  0  0  0
 49 50  1  0  0  0
 49 53  1  0  0  0
 49 64  1  0  0  0
 49118  1  0  0  0
 50 51  1  0  0  0
 50119  1  0  0  0
 50120  1  0  0  0
 51 52  1  0  0  0
 51121  1  0  0  0
 51122  1  0  0  0
 52123  1  0  0  0
 52124  1  0  0  0
 53 54  1  0  0  0
 54 55  2  0  0  0
 54125  1  0  0  0
 55 57  1  0  0  0
 55126  1  0  0  0
 56 69  2  0  0  0
 57 58  2  0  0  0
 57127  1  0  0  0
 58128  1  0  0  0
 59 60  1  0  0  0
 59 61  1  0  0  0
 59 62  1  0  0  0
 60129  1  0  0  0
 60130  1  0  0  0
 60131  1  0  0  0
 61132  1  0  0  0
 61133  1  0  0  0
 61134  1  0  0  0
 62135  1  0  0  0
 62136  1  0  0  0
 62137  1  0  0  0
 63 65  1  0  0  0
 63138  1  0  0  0
 63139  1  0  0  0
 63140  1  0  0  0
 64141  1  0  0  0
 65142  1  0  0  0
 68 80  1  0  0  0
 71 72  2  0  0  0
 71 81  1  0  0  0
 71143  1  0  0  0
 72 73  1  0  0  0
 72 76  1  0  0  0
 73 77  1  0  0  0
 73 82  2  0  0  0
 74 75  1  0  0  0
 74 81  2  0  0  0
 74 82  1  0  0  0
 75144  1  0  0  0
 75145  1  0  0  0
 75146  1  0  0  0
 76 80  1  0  0  0
 76147  1  0  0  0
 76148  1  0  0  0
 77 78  1  0  0  0
 77149  1  0  0  0
 77150  1  0  0  0
 78 79  1  0  0  0
 78151  1  0  0  0
 78152  1  0  0  0
 79 83  1  0  0  0
 79153  1  0  0  0
 79154  1  0  0  0
 80155  1  0  0  0
 80156  1  0  0  0
 83157  1  0  0  0
M  ISO  4   1 100  68 101  80 101  83 100
M  END
> <chiral flag>
0

> <version>
0

> <s_m_source_file>
/data/baiqing/PycharmProjects/Reinvent-master-3.2/result/LINK_invent/BTK/process_docking_weight1_custom_sum_contain_oxygen_bond_distance_aromatic_linkinvent_7_9_3/rearranged_h_0081.sdf

> <i_m_source_file_index>
68

> <r_mmod_Potential_Energy-OPLS-2005>
-235.907638549805

> <r_mmod_Stretch_Energy-OPLS-2005>
126.420593261719

> <r_mmod_Bend_Energy-OPLS-2005>
211.434326171875

> <r_mmod_Torsional_Energy-OPLS-2005>
209.019653320312

> <r_mmod_Improper_Torsional_Energy-OPLS-2005>
4.43929147720337

> <r_mmod_Van_der_Waal_Energy-OPLS-2005>
173.815246582031

> <r_mmod_Electrostatic_Energy-OPLS-2005>
-803.985290527344

> <r_mmod_Solvation_Energy-OPLS-2005>
-234.287796020508

> <b_mmod_Minimization_Converged-OPLS-2005>
0

> <r_mmod_RMS_Derivative-OPLS-2005>
2.54220676422119

$$$$
68
                    3D
 Structure written by MMmdl.
158166  0  0  1  0            999 V2000
  -30.6735  -14.5336   20.5007 C   0  0  0  0  0  0
  -30.4184  -12.3227   19.4446 C   0  0  0  0  0  0
  -29.4986  -12.4997   18.2176 C   0  0  0  0  0  0
  -28.0203  -12.3524   18.6292 C   0  0  0  0  0  0
  -27.6554  -13.2132   19.8691 C   0  0  2  0  0  0
  -28.6981  -13.0449   20.9988 C   0  0  0  0  0  0
  -25.2566  -13.8173   20.5700 C   0  0  0  0  0  0
  -24.1825  -13.0438   20.9192 C   0  0  0  0  0  0
  -24.6387  -11.6909   20.8747 C   0  0  0  0  0  0
  -23.9057  -10.4295   21.0412 C   0  0  0  0  0  0
  -24.3612   -9.4208   21.9187 C   0  0  0  0  0  0
  -23.6286   -8.2245   22.0759 C   0  0  0  0  0  0
  -22.4270   -8.0283   21.3549 C   0  0  0  0  0  0
  -21.9903   -9.0256   20.4652 C   0  0  0  0  0  0
  -22.7234  -10.2138   20.3060 C   0  0  0  0  0  0
  -21.6851   -6.0730   22.5281 C   0  0  0  0  0  0
  -21.4014   -6.5637   23.8215 C   0  0  0  0  0  0
  -21.3661   -5.6792   24.9179 C   0  0  0  0  0  0
  -21.6041   -4.3052   24.7232 C   0  0  0  0  0  0
  -21.8818   -3.8145   23.4354 C   0  0  0  0  0  0
  -21.9193   -4.6959   22.3409 C   0  0  0  0  0  0
  -22.7853  -13.5236   21.1844 C   0  0  0  0  0  0
  -22.1663   -4.2144   21.0987 F   0  0  0  0  0  0
  -21.5628   -3.4536   25.7746 F   0  0  0  0  0  0
  -30.0232  -13.3392   20.4356 N   0  0  0  0  0  0
  -26.2996  -12.9350   20.3352 N   0  0  0  0  0  0
  -25.9317  -11.6506   20.5774 N   0  0  0  0  0  0
  -22.0495  -12.8238   22.0412 N   0  0  0  0  0  0
  -25.4271  -15.1891   20.4104 N   0  0  0  0  0  0
  -31.8376  -14.6704   20.1150 O   0  0  0  0  0  0
  -21.6636   -6.8878   21.4243 O   0  0  0  0  0  0
  -22.3542  -14.5539   20.6688 O   0  0  0  0  0  0
  -24.6171  -31.8638   23.2063 C   0  0  0  0  0  0
  -25.9050  -32.4801   23.8372 C   0  0  1  0  0  0
  -27.2316  -27.3884   20.1035 C   0  0  0  0  0  0
  -25.5894  -33.8606   24.2299 N   0  0  0  0  0  0
  -23.4071  -30.4845   21.5486 C   0  0  2  0  0  0
  -24.8517  -28.9420   20.1152 C   0  0  0  0  0  0
  -22.7419  -29.4627   22.4988 C   0  0  0  0  0  0
  -18.0266  -28.1356   22.8492 C   0  0  0  0  0  0
  -24.1485  -36.7310   23.2642 C   0  0  0  0  0  0
  -25.9387  -30.8153   21.3644 C   0  0  0  0  0  0
  -26.0133  -29.4455   20.7119 C   0  0  0  0  0  0
  -27.2028  -28.6760   20.6995 C   0  0  0  0  0  0
  -26.0464  -26.9055   19.5038 C   0  0  0  0  0  0
  -24.8658  -27.6747   19.5076 C   0  0  0  0  0  0
  -23.6156  -29.8129   20.1645 C   0  0  0  0  0  0
  -25.4110  -36.3106   24.0332 C   0  0  1  0  0  0
  -20.5861  -28.3645   23.1312 C   0  0  2  0  0  0
  -20.6754  -26.9380   22.5414 C   0  0  0  0  0  0
  -19.5739  -26.6370   21.5205 C   0  0  0  0  0  0
  -18.1916  -26.7903   22.1616 C   0  0  0  0  0  0
  -19.1517  -28.8817   23.2895 C   0  0  0  0  0  0
  -18.9451  -30.1425   23.8903 C   0  0  0  0  0  0
  -17.6454  -30.6574   24.0553 C   0  0  0  0  0  0
  -25.9039  -34.9467   23.5122 C   0  0  0  0  0  0
  -16.5343  -29.9074   23.6320 C   0  0  0  0  0  0
  -16.7252  -28.6482   23.0355 C   0  0  0  0  0  0
  -26.4466  -31.6597   25.0718 C   0  0  0  0  0  0
  -25.3724  -31.3712   26.1468 C   0  0  0  0  0  0
  -27.0297  -30.3036   24.6104 C   0  0  0  0  0  0
  -27.6036  -32.4325   25.7479 C   0  0  0  0  0  0
  -27.5579  -37.1810   24.8464 C   0  0  0  0  0  0
  -21.4141  -29.3017   22.3731 N   0  0  0  0  0  0
  -26.4295  -37.3788   23.9403 N   0  0  0  0  0  0
  -24.6728  -31.0701   22.0978 N   0  0  0  0  0  0
  -23.4176  -28.8165   23.3039 O   0  0  0  0  0  0
  -28.4143  -26.6637   20.1293 O   0  0  0  0  0  0
  -26.5610  -34.8923   22.4690 O   0  0  0  0  0  0
  -23.5356  -32.1404   23.7440 O   0  0  0  0  0  0
  -29.1667  -20.8028   20.2694 C   0  0  0  0  0  0
  -28.2384  -21.7779   19.9433 C   0  0  0  0  0  0
  -27.0916  -21.7910   18.9805 C   0  0  0  0  0  0
  -28.8392  -19.1989   18.3054 C   0  0  0  0  0  0
  -29.2675  -18.1590   20.5966 C   0  0  0  0  0  0
  -28.0083  -24.2460   20.8105 C   0  0  0  0  0  0
  -30.2747  -16.9908   20.2998 C   0  0  0  0  0  0
  -28.4749  -25.2691   19.7305 C   0  0  0  0  0  0
  -29.4951  -19.4177   19.6804 C   0  0  2  0  0  0
  -30.0179  -21.3629   21.2240 N   0  0  0  0  0  0
  -29.6742  -22.5910   21.4743 N   0  0  0  0  0  0
  -28.6027  -22.8929   20.7020 N   0  0  0  0  0  0
  -29.9074  -15.6244   20.7535 N   0  0  0  0  0  0
  -31.4652  -12.4083   19.1490 H   0  0  0  0  0  0
  -30.3088  -11.3223   19.8676 H   0  0  0  0  0  0
  -29.7459  -11.7685   17.4464 H   0  0  0  0  0  0
  -29.6612  -13.4816   17.7711 H   0  0  0  0  0  0
  -27.8421  -11.2983   18.8456 H   0  0  0  0  0  0
  -27.3689  -12.6030   17.7913 H   0  0  0  0  0  0
  -27.6820  -14.2524   19.5410 H   0  0  0  0  0  0
  -28.6808  -12.0258   21.3877 H   0  0  0  0  0  0
  -28.4668  -13.6928   21.8452 H   0  0  0  0  0  0
  -25.2761   -9.5683   22.4759 H   0  0  0  0  0  0
  -23.9991   -7.4630   22.7473 H   0  0  0  0  0  0
  -21.0834   -8.8773   19.8957 H   0  0  0  0  0  0
  -22.3686  -10.9672   19.6171 H   0  0  0  0  0  0
  -21.2007   -7.6145   23.9719 H   0  0  0  0  0  0
  -21.1485   -6.0525   25.9079 H   0  0  0  0  0  0
  -22.0597   -2.7606   23.2857 H   0  0  0  0  0  0
  -22.4098  -11.9883   22.4783 H   0  0  0  0  0  0
  -21.1124  -13.1286   22.2627 H   0  0  0  0  0  0
  -24.6562  -15.8416   20.5054 H   0  0  0  0  0  0
  -26.2760  -15.6286   20.0792 H   0  0  0  0  0  0
  -26.7114  -32.5496   23.1129 H   0  0  0  0  0  0
  -25.0050  -33.9761   25.0449 H   0  0  0  0  0  0
  -22.6977  -31.3023   21.4069 H   0  0  0  0  0  0
  -23.3744  -35.9650   23.3315 H   0  0  0  0  0  0
  -24.3578  -36.8917   22.2055 H   0  0  0  0  0  0
  -23.7242  -37.6517   23.6653 H   0  0  0  0  0  0
  -26.0586  -31.5785   20.5939 H   0  0  0  0  0  0
  -26.8247  -30.8688   21.9859 H   0  0  0  0  0  0
  -28.1006  -29.0626   21.1617 H   0  0  0  0  0  0
  -26.0079  -25.9359   19.0301 H   0  0  0  0  0  0
  -23.9713  -27.2826   19.0430 H   0  0  0  0  0  0
  -23.7245  -30.5853   19.4029 H   0  0  0  0  0  0
  -22.7380  -29.2335   19.8708 H   0  0  0  0  0  0
  -25.1288  -36.1976   25.0824 H   0  0  0  0  0  0
  -20.9942  -28.3208   24.1435 H   0  0  0  0  0  0
  -20.5646  -26.2248   23.3598 H   0  0  0  0  0  0
  -21.6628  -26.7414   22.1221 H   0  0  0  0  0  0
  -19.6910  -25.6287   21.1222 H   0  0  0  0  0  0
  -19.6690  -27.3185   20.6741 H   0  0  0  0  0  0
  -17.4187  -26.6642   21.4014 H   0  0  0  0  0  0
  -18.0326  -26.0036   22.9004 H   0  0  0  0  0  0
  -19.7933  -30.7226   24.2282 H   0  0  0  0  0  0
  -17.5017  -31.6258   24.5146 H   0  0  0  0  0  0
  -15.5345  -30.2981   23.7641 H   0  0  0  0  0  0
  -15.8648  -28.0796   22.7084 H   0  0  0  0  0  0
  -24.5896  -30.7053   25.7814 H   0  0  0  0  0  0
  -24.8918  -32.2868   26.4922 H   0  0  0  0  0  0
  -25.8083  -30.8887   27.0225 H   0  0  0  0  0  0
  -26.2842  -29.6804   24.1146 H   0  0  0  0  0  0
  -27.4044  -29.7270   25.4570 H   0  0  0  0  0  0
  -27.8688  -30.4352   23.9268 H   0  0  0  0  0  0
  -27.2644  -33.3619   26.2070 H   0  0  0  0  0  0
  -28.3834  -32.6897   25.0297 H   0  0  0  0  0  0
  -28.0708  -31.8442   26.5382 H   0  0  0  0  0  0
  -28.2606  -38.0098   24.7511 H   0  0  0  0  0  0
  -28.1062  -36.2630   24.6295 H   0  0  0  0  0  0
  -27.2292  -37.1471   25.8865 H   0  0  0  0  0  0
  -20.9302  -29.8759   21.6973 H   0  0  0  0  0  0
  -26.0184  -38.2866   24.1402 H   0  0  0  0  0  0
  -27.4463  -21.8176   17.9506 H   0  0  0  0  0  0
  -26.4473  -22.6574   19.1231 H   0  0  0  0  0  0
  -26.4691  -20.9050   19.1052 H   0  0  0  0  0  0
  -29.0684  -20.0205   17.6261 H   0  0  0  0  0  0
  -27.7555  -19.1183   18.3874 H   0  0  0  0  0  0
  -29.1930  -18.2842   17.8312 H   0  0  0  0  0  0
  -29.3865  -18.4482   21.6418 H   0  0  0  0  0  0
  -28.2356  -17.8212   20.4983 H   0  0  0  0  0  0
  -26.9226  -24.1595   20.8125 H   0  0  0  0  0  0
  -28.2704  -24.6395   21.7938 H   0  0  0  0  0  0
  -30.4313  -16.9251   19.2222 H   0  0  0  0  0  0
  -31.2471  -17.2533   20.7199 H   0  0  0  0  0  0
  -27.9810  -25.0894   18.7756 H   0  0  0  0  0  0
  -29.5299  -25.0792   19.5303 H   0  0  0  0  0  0
  -30.5677  -19.4399   19.4825 H   0  0  0  0  0  0
  -28.9596  -15.4608   21.0569 H   0  0  0  0  0  0
  1 25  1  0  0  0
  1 30  2  0  0  0
  1 83  1  0  0  0
  2  3  1  0  0  0
  2 25  1  0  0  0
  2 84  1  0  0  0
  2 85  1  0  0  0
  3  4  1  0  0  0
  3 86  1  0  0  0
  3 87  1  0  0  0
  4  5  1  0  0  0
  4 88  1  0  0  0
  4 89  1  0  0  0
  5  6  1  0  0  0
  5 26  1  0  0  0
  5 90  1  0  0  0
  6 25  1  0  0  0
  6 91  1  0  0  0
  6 92  1  0  0  0
  7  8  2  0  0  0
  7 26  1  0  0  0
  7 29  1  0  0  0
  8  9  1  0  0  0
  8 22  1  0  0  0
  9 10  1  0  0  0
  9 27  2  0  0  0
 10 11  2  0  0  0
 10 15  1  0  0  0
 11 12  1  0  0  0
 11 93  1  0  0  0
 12 13  2  0  0  0
 12 94  1  0  0  0
 13 14  1  0  0  0
 13 31  1  0  0  0
 14 15  2  0  0  0
 14 95  1  0  0  0
 15 96  1  0  0  0
 16 17  2  0  0  0
 16 21  1  0  0  0
 16 31  1  0  0  0
 17 18  1  0  0  0
 17 97  1  0  0  0
 18 19  2  0  0  0
 18 98  1  0  0  0
 19 20  1  0  0  0
 19 24  1  0  0  0
 20 21  2  0  0  0
 20 99  1  0  0  0
 21 23  1  0  0  0
 22 28  1  0  0  0
 22 32  2  0  0  0
 26 27  1  0  0  0
 28100  1  0  0  0
 28101  1  0  0  0
 29102  1  0  0  0
 29103  1  0  0  0
 33 34  1  0  0  0
 33 66  1  0  0  0
 33 70  2  0  0  0
 34 36  1  0  0  0
 34 59  1  0  0  0
 34104  1  0  0  0
 35 44  2  0  0  0
 35 45  1  0  0  0
 35 68  1  0  0  0
 36 56  1  0  0  0
 36105  1  0  0  0
 37 39  1  0  0  0
 37 47  1  0  0  0
 37 66  1  0  0  0
 37106  1  0  0  0
 38 43  2  0  0  0
 38 46  1  0  0  0
 38 47  1  0  0  0
 39 64  1  0  0  0
 39 67  2  0  0  0
 40 52  1  0  0  0
 40 53  2  0  0  0
 40 58  1  0  0  0
 41107  1  0  0  0
 41108  1  0  0  0
 41109  1  0  0  0
 41 48  1  0  0  0
 42 43  1  0  0  0
 42 66  1  0  0  0
 42110  1  0  0  0
 42111  1  0  0  0
 43 44  1  0  0  0
 44112  1  0  0  0
 45 46  2  0  0  0
 45113  1  0  0  0
 46114  1  0  0  0
 47115  1  0  0  0
 47116  1  0  0  0
 48 56  1  0  0  0
 48 65  1  0  0  0
 48117  1  0  0  0
 49 50  1  0  0  0
 49 53  1  0  0  0
 49 64  1  0  0  0
 49118  1  0  0  0
 50 51  1  0  0  0
 50119  1  0  0  0
 50120  1  0  0  0
 51 52  1  0  0  0
 51121  1  0  0  0
 51122  1  0  0  0
 52123  1  0  0  0
 52124  1  0  0  0
 53 54  1  0  0  0
 54 55  2  0  0  0
 54125  1  0  0  0
 55 57  1  0  0  0
 55126  1  0  0  0
 56 69  2  0  0  0
 57 58  2  0  0  0
 57127  1  0  0  0
 58128  1  0  0  0
 59 60  1  0  0  0
 59 61  1  0  0  0
 59 62  1  0  0  0
 60129  1  0  0  0
 60130  1  0  0  0
 60131  1  0  0  0
 61132  1  0  0  0
 61133  1  0  0  0
 61134  1  0  0  0
 62135  1  0  0  0
 62136  1  0  0  0
 62137  1  0  0  0
 63 65  1  0  0  0
 63138  1  0  0  0
 63139  1  0  0  0
 63140  1  0  0  0
 64141  1  0  0  0
 65142  1  0  0  0
 68 78  1  0  0  0
 71 72  2  0  0  0
 71 79  1  0  0  0
 71 80  1  0  0  0
 72 73  1  0  0  0
 72 82  1  0  0  0
 73143  1  0  0  0
 73144  1  0  0  0
 73145  1  0  0  0
 74146  1  0  0  0
 74147  1  0  0  0
 74148  1  0  0  0
 74 79  1  0  0  0
 75 77  1  0  0  0
 75 79  1  0  0  0
 75149  1  0  0  0
 75150  1  0  0  0
 76 78  1  0  0  0
 76 82  1  0  0  0
 76151  1  0  0  0
 76152  1  0  0  0
 77 83  1  0  0  0
 77153  1  0  0  0
 77154  1  0  0  0
 78155  1  0  0  0
 78156  1  0  0  0
 79157  1  0  0  0
 80 81  2  0  0  0
 81 82  1  0  0  0
 83158  1  0  0  0
M  ISO  4   1 100  68 101  78 101  83 100
M  END
> <chiral flag>
0

> <version>
0

> <s_m_source_file>
/data/baiqing/PycharmProjects/Reinvent-master-3.2/result/LINK_invent/BTK/process_docking_weight1_custom_sum_contain_oxygen_bond_distance_aromatic_linkinvent_7_9_3/rearranged_h_0081.sdf

> <i_m_source_file_index>
69

> <r_mmod_Potential_Energy-OPLS-2005>
-77.3486022949219

> <r_mmod_Stretch_Energy-OPLS-2005>
47.804271697998

> <r_mmod_Bend_Energy-OPLS-2005>
119.314338684082

> <r_mmod_Torsional_Energy-OPLS-2005>
212.070861816406

> <r_mmod_Improper_Torsional_Energy-OPLS-2005>
7.49879932403564

> <r_mmod_Van_der_Waal_Energy-OPLS-2005>
122.674591064453

> <r_mmod_Electrostatic_Energy-OPLS-2005>
-390.429565429688

> <r_mmod_Solvation_Energy-OPLS-2005>
-218.8095703125

> <b_mmod_Minimization_Converged-OPLS-2005>
0

> <r_mmod_RMS_Derivative-OPLS-2005>
1.3554162979126

$$$$
69
                    3D
 Structure written by MMmdl.
167175  0  0  1  0            999 V2000
  -31.3973  -14.4487   20.8951 C   0  0  0  0  0  0
  -30.8044  -13.3680   18.9191 C   0  0  0  0  0  0
  -29.4689  -13.6611   17.6473 C   0  0  0  0  0  0
  -27.6255  -13.7952   18.1859 C   0  0  0  0  0  0
  -27.2776  -13.8247   20.0918 C   0  0  2  0  0  0
  -28.7800  -13.5969   21.3146 C   0  0  0  0  0  0
  -24.9417  -13.9246   20.6461 C   0  0  0  0  0  0
  -23.9864  -13.0414   20.9657 C   0  0  0  0  0  0
  -24.5603  -11.7344   20.9017 C   0  0  0  0  0  0
  -23.8938  -10.4334   21.0344 C   0  0  0  0  0  0
  -24.3587   -9.4311   21.9158 C   0  0  0  0  0  0
  -23.6347   -8.2254   22.0691 C   0  0  0  0  0  0
  -22.4334   -8.0227   21.3480 C   0  0  0  0  0  0
  -21.9944   -9.0131   20.4511 C   0  0  0  0  0  0
  -22.7188  -10.2046   20.2935 C   0  0  0  0  0  0
  -21.6905   -6.0713   22.5287 C   0  0  0  0  0  0
  -21.4042   -6.5622   23.8220 C   0  0  0  0  0  0
  -21.3686   -5.6781   24.9202 C   0  0  0  0  0  0
  -21.6053   -4.3039   24.7260 C   0  0  0  0  0  0
  -21.8798   -3.8120   23.4376 C   0  0  0  0  0  0
  -21.9180   -4.6936   22.3431 C   0  0  0  0  0  0
  -22.5869  -13.4583   21.2211 C   0  0  0  0  0  0
  -22.1633   -4.2116   21.1009 F   0  0  0  0  0  0
  -21.5638   -3.4524   25.7772 F   0  0  0  0  0  0
  -30.4105  -13.6086   20.5936 N   0  0  0  0  0  0
  -26.0632  -13.1793   20.4625 N   0  0  0  0  0  0
  -25.8565  -11.8308   20.6322 N   0  0  0  0  0  0
  -21.9015  -12.7474   22.0984 N   0  0  0  0  0  0
  -24.8984  -15.3196   20.5123 N   0  0  0  0  0  0
  -32.5594  -14.1876   20.7059 O   0  0  0  0  0  0
  -21.6680   -6.8832   21.4244 O   0  0  0  0  0  0
  -22.1335  -14.4794   20.7013 O   0  0  0  0  0  0
  -24.6958  -31.7896   23.1502 C   0  0  0  0  0  0
  -25.9505  -32.4406   23.8055 C   0  0  1  0  0  0
  -27.1013  -26.5985   20.1168 C   0  0  0  0  0  0
  -25.6042  -33.8245   24.1912 N   0  0  0  0  0  0
  -23.5132  -30.4063   21.5114 C   0  0  2  0  0  0
  -24.9318  -28.7344   20.1107 C   0  0  0  0  0  0
  -22.7786  -29.4298   22.4699 C   0  0  0  0  0  0
  -18.0341  -28.1403   22.8460 C   0  0  0  0  0  0
  -24.1503  -36.7121   23.2658 C   0  0  0  0  0  0
  -26.1038  -30.4786   21.4252 C   0  0  0  0  0  0
  -26.1389  -29.0408   20.7484 C   0  0  0  0  0  0
  -27.2228  -28.0018   20.7125 C   0  0  0  0  0  0
  -25.8685  -26.5280   19.4423 C   0  0  0  0  0  0
  -24.8367  -27.5060   19.4403 C   0  0  0  0  0  0
  -23.7580  -29.7212   20.1408 C   0  0  0  0  0  0
  -25.4163  -36.2868   24.0273 C   0  0  1  0  0  0
  -20.5983  -28.3775   23.1134 C   0  0  2  0  0  0
  -20.6797  -26.9427   22.5399 C   0  0  0  0  0  0
  -19.5770  -26.6357   21.5214 C   0  0  0  0  0  0
  -18.1959  -26.7934   22.1620 C   0  0  0  0  0  0
  -19.1607  -28.8914   23.2784 C   0  0  0  0  0  0
  -18.9509  -30.1494   23.8842 C   0  0  0  0  0  0
  -17.6496  -30.6592   24.0548 C   0  0  0  0  0  0
  -25.9151  -34.9254   23.4935 C   0  0  0  0  0  0
  -16.5390  -29.9075   23.6334 C   0  0  0  0  0  0
  -16.7322  -28.6487   23.0377 C   0  0  0  0  0  0
  -26.4629  -31.6512   25.0744 C   0  0  0  0  0  0
  -25.3690  -31.3861   26.1364 C   0  0  0  0  0  0
  -27.0600  -30.2840   24.6760 C   0  0  0  0  0  0
  -27.6039  -32.4435   25.7557 C   0  0  0  0  0  0
  -27.5568  -37.1727   24.8462 C   0  0  0  0  0  0
  -21.4427  -29.3037   22.3467 N   0  0  0  0  0  0
  -26.4277  -37.3640   23.9411 N   0  0  0  0  0  0
  -24.7981  -30.9278   22.0797 N   0  0  0  0  0  0
  -23.4230  -28.7854   23.3004 O   0  0  0  0  0  0
  -27.9957  -25.3233   19.9708 O   0  0  0  0  0  0
  -26.5787  -34.8838   22.4547 O   0  0  0  0  0  0
  -23.5965  -32.1026   23.6421 O   0  0  0  0  0  0
  -26.5596  -21.5767   18.8739 C   0  0  0  0  0  0
  -28.4180  -20.3109   19.6825 C   0  0  0  0  0  0
  -27.7590  -21.8049   19.5877 C   0  0  0  0  0  0
  -26.0996  -20.2980   18.4375 C   0  0  0  0  0  0
  -27.8990  -18.8458   19.2015 C   0  0  0  0  0  0
  -24.4566  -18.9022   16.9828 C   0  0  0  0  0  0
  -28.5514  -17.1141   17.2941 C   0  0  0  0  0  0
  -28.8357  -12.2943   19.4141 C   0  0  0  0  0  0
  -28.7070  -16.1899   20.8789 C   0  0  0  0  0  0
  -27.9185  -23.5544   20.3112 C   0  0  0  0  0  0
  -24.7912  -20.2523   17.6510 C   0  0  0  0  0  0
  -30.4763  -15.9703   19.3415 C   0  0  0  0  0  0
  -28.2608  -16.9918   18.8025 C   0  0  1  0  0  0
  -29.0499  -15.2799   19.4874 C   0  0  0  0  0  0
  -26.6840  -19.0760   18.6427 N   0  0  0  0  0  0
  -31.2229  -15.7036   20.5469 N   0  0  0  0  0  0
  -31.7257  -13.8278   18.5404 H   0  0  0  0  0  0
  -31.1720  -12.3400   18.8421 H   0  0  0  0  0  0
  -29.5509  -12.8698   16.9008 H   0  0  0  0  0  0
  -29.7774  -14.4928   17.0262 H   0  0  0  0  0  0
  -27.0508  -12.9795   17.7379 H   0  0  0  0  0  0
  -27.1650  -14.6604   17.7109 H   0  0  0  0  0  0
  -26.9995  -14.8225   20.1852 H   0  0  0  0  0  0
  -28.6718  -12.6092   21.7749 H   0  0  0  0  0  0
  -28.6758  -14.1145   22.2656 H   0  0  0  0  0  0
  -25.2637   -9.5965   22.4864 H   0  0  0  0  0  0
  -24.0073   -7.4700   22.7444 H   0  0  0  0  0  0
  -21.0882   -8.8582   19.8809 H   0  0  0  0  0  0
  -22.3540  -10.9547   19.6061 H   0  0  0  0  0  0
  -21.2035   -7.6130   23.9744 H   0  0  0  0  0  0
  -21.1555   -6.0503   25.9111 H   0  0  0  0  0  0
  -22.0553   -2.7566   23.2894 H   0  0  0  0  0  0
  -22.3055  -11.9323   22.5333 H   0  0  0  0  0  0
  -20.9519  -13.0088   22.3315 H   0  0  0  0  0  0
  -24.0194  -15.8157   20.6461 H   0  0  0  0  0  0
  -25.6623  -15.9309   20.2533 H   0  0  0  0  0  0
  -26.7590  -32.4788   23.0754 H   0  0  0  0  0  0
  -25.0118  -33.9276   25.0017 H   0  0  0  0  0  0
  -22.8448  -31.2506   21.3305 H   0  0  0  0  0  0
  -23.3795  -35.9419   23.3267 H   0  0  0  0  0  0
  -24.3563  -36.8846   22.2087 H   0  0  0  0  0  0
  -23.7237  -37.6266   23.6779 H   0  0  0  0  0  0
  -26.3445  -31.2090   20.6525 H   0  0  0  0  0  0
  -26.9449  -30.5151   22.1060 H   0  0  0  0  0  0
  -28.1531  -28.2471   21.2073 H   0  0  0  0  0  0
  -25.6637  -25.6162   18.8992 H   0  0  0  0  0  0
  -23.9236  -27.2722   18.9115 H   0  0  0  0  0  0
  -23.9724  -30.4898   19.3972 H   0  0  0  0  0  0
  -22.8502  -29.2261   19.7950 H   0  0  0  0  0  0
  -25.1381  -36.1616   25.0763 H   0  0  0  0  0  0
  -21.0065  -28.3393   24.1258 H   0  0  0  0  0  0
  -20.5635  -26.2406   23.3670 H   0  0  0  0  0  0
  -21.6660  -26.7347   22.1232 H   0  0  0  0  0  0
  -19.6925  -25.6249   21.1293 H   0  0  0  0  0  0
  -19.6706  -27.3122   20.6712 H   0  0  0  0  0  0
  -17.4228  -26.6692   21.4025 H   0  0  0  0  0  0
  -18.0344  -26.0084   22.9021 H   0  0  0  0  0  0
  -19.7988  -30.7317   24.2201 H   0  0  0  0  0  0
  -17.5050  -31.6266   24.5158 H   0  0  0  0  0  0
  -15.5387  -30.2964   23.7676 H   0  0  0  0  0  0
  -15.8727  -28.0775   22.7144 H   0  0  0  0  0  0
  -24.5876  -30.7198   25.7691 H   0  0  0  0  0  0
  -24.8882  -32.3095   26.4605 H   0  0  0  0  0  0
  -25.7874  -30.9160   27.0275 H   0  0  0  0  0  0
  -26.3316  -29.6356   24.1881 H   0  0  0  0  0  0
  -27.4099  -29.7410   25.5552 H   0  0  0  0  0  0
  -27.9272  -30.3944   24.0252 H   0  0  0  0  0  0
  -27.2527  -33.3801   26.1895 H   0  0  0  0  0  0
  -28.3950  -32.6907   25.0472 H   0  0  0  0  0  0
  -28.0598  -31.8762   26.5678 H   0  0  0  0  0  0
  -28.2537  -38.0064   24.7520 H   0  0  0  0  0  0
  -28.1109  -36.2587   24.6278 H   0  0  0  0  0  0
  -27.2276  -37.1347   25.8857 H   0  0  0  0  0  0
  -20.9730  -29.8781   21.6610 H   0  0  0  0  0  0
  -26.0090  -38.2675   24.1427 H   0  0  0  0  0  0
  -25.9236  -22.4298   18.6822 H   0  0  0  0  0  0
  -29.3948  -20.3030   20.1524 H   0  0  0  0  0  0
  -24.3710  -18.1100   17.7255 H   0  0  0  0  0  0
  -25.2207  -18.6171   16.2620 H   0  0  0  0  0  0
  -23.5092  -18.9483   16.4477 H   0  0  0  0  0  0
  -27.6887  -17.5384   16.7800 H   0  0  0  0  0  0
  -28.7281  -16.1710   16.7959 H   0  0  0  0  0  0
  -29.4019  -17.7794   17.1196 H   0  0  0  0  0  0
  -28.9202  -11.6945   18.4978 H   0  0  0  0  0  0
  -27.9562  -11.7288   19.6886 H   0  0  0  0  0  0
  -29.4905  -11.6426   20.0137 H   0  0  0  0  0  0
  -29.0933  -17.2152   20.8727 H   0  0  0  0  0  0
  -29.1801  -15.9389   21.8236 H   0  0  0  0  0  0
  -27.6599  -16.3821   21.1288 H   0  0  0  0  0  0
  -28.8325  -23.4410   20.8946 H   0  0  0  0  0  0
  -27.1365  -23.5310   21.0767 H   0  0  0  0  0  0
  -24.8514  -21.0116   16.8676 H   0  0  0  0  0  0
  -23.9721  -20.5505   18.3050 H   0  0  0  0  0  0
  -30.4803  -17.0603   19.2973 H   0  0  0  0  0  0
  -31.0148  -15.7508   18.4218 H   0  0  0  0  0  0
  -27.2222  -16.6619   18.8311 H   0  0  0  0  0  0
  -32.0329  -16.2838   20.6897 H   0  0  0  0  0  0
  1 25  1  0  0  0
  1 30  2  0  0  0
  1 86  1  0  0  0
  2  3  1  0  0  0
  2 25  1  0  0  0
  2 87  1  0  0  0
  2 88  1  0  0  0
  3  4  1  0  0  0
  3 89  1  0  0  0
  3 90  1  0  0  0
  4  5  1  0  0  0
  4 91  1  0  0  0
  4 92  1  0  0  0
  5  6  1  0  0  0
  5 26  1  0  0  0
  5 93  1  0  0  0
  6 25  1  0  0  0
  6 94  1  0  0  0
  6 95  1  0  0  0
  7  8  2  0  0  0
  7 26  1  0  0  0
  7 29  1  0  0  0
  8  9  1  0  0  0
  8 22  1  0  0  0
  9 10  1  0  0  0
  9 27  2  0  0  0
 10 11  2  0  0  0
 10 15  1  0  0  0
 11 12  1  0  0  0
 11 96  1  0  0  0
 12 13  2  0  0  0
 12 97  1  0  0  0
 13 14  1  0  0  0
 13 31  1  0  0  0
 14 15  2  0  0  0
 14 98  1  0  0  0
 15 99  1  0  0  0
 16 17  2  0  0  0
 16 21  1  0  0  0
 16 31  1  0  0  0
 17 18  1  0  0  0
 17100  1  0  0  0
 18 19  2  0  0  0
 18101  1  0  0  0
 19 20  1  0  0  0
 19 24  1  0  0  0
 20 21  2  0  0  0
 20102  1  0  0  0
 21 23  1  0  0  0
 22 28  1  0  0  0
 22 32  2  0  0  0
 26 27  1  0  0  0
 28103  1  0  0  0
 28104  1  0  0  0
 29105  1  0  0  0
 29106  1  0  0  0
 33 34  1  0  0  0
 33 66  1  0  0  0
 33 70  2  0  0  0
 34 36  1  0  0  0
 34 59  1  0  0  0
 34107  1  0  0  0
 35 44  2  0  0  0
 35 45  1  0  0  0
 35 68  1  0  0  0
 36 56  1  0  0  0
 36108  1  0  0  0
 37 39  1  0  0  0
 37 47  1  0  0  0
 37 66  1  0  0  0
 37109  1  0  0  0
 38 43  2  0  0  0
 38 46  1  0  0  0
 38 47  1  0  0  0
 39 64  1  0  0  0
 39 67  2  0  0  0
 40 52  1  0  0  0
 40 53  2  0  0  0
 40 58  1  0  0  0
 41110  1  0  0  0
 41111  1  0  0  0
 41112  1  0  0  0
 41 48  1  0  0  0
 42 43  1  0  0  0
 42 66  1  0  0  0
 42113  1  0  0  0
 42114  1  0  0  0
 43 44  1  0  0  0
 44115  1  0  0  0
 45 46  2  0  0  0
 45116  1  0  0  0
 46117  1  0  0  0
 47118  1  0  0  0
 47119  1  0  0  0
 48 56  1  0  0  0
 48 65  1  0  0  0
 48120  1  0  0  0
 49 50  1  0  0  0
 49 53  1  0  0  0
 49 64  1  0  0  0
 49121  1  0  0  0
 50 51  1  0  0  0
 50122  1  0  0  0
 50123  1  0  0  0
 51 52  1  0  0  0
 51124  1  0  0  0
 51125  1  0  0  0
 52126  1  0  0  0
 52127  1  0  0  0
 53 54  1  0  0  0
 54 55  2  0  0  0
 54128  1  0  0  0
 55 57  1  0  0  0
 55129  1  0  0  0
 56 69  2  0  0  0
 57 58  2  0  0  0
 57130  1  0  0  0
 58131  1  0  0  0
 59 60  1  0  0  0
 59 61  1  0  0  0
 59 62  1  0  0  0
 60132  1  0  0  0
 60133  1  0  0  0
 60134  1  0  0  0
 61135  1  0  0  0
 61136  1  0  0  0
 61137  1  0  0  0
 62138  1  0  0  0
 62139  1  0  0  0
 62140  1  0  0  0
 63 65  1  0  0  0
 63141  1  0  0  0
 63142  1  0  0  0
 63143  1  0  0  0
 64144  1  0  0  0
 65145  1  0  0  0
 68 80  1  0  0  0
 71 73  2  0  0  0
 71 74  1  0  0  0
 71146  1  0  0  0
 72 73  1  0  0  0
 72 75  2  0  0  0
 72147  1  0  0  0
 73 80  1  0  0  0
 74 81  1  0  0  0
 74 85  2  0  0  0
 75 83  1  0  0  0
 75 85  1  0  0  0
 76 81  1  0  0  0
 76148  1  0  0  0
 76149  1  0  0  0
 76150  1  0  0  0
 77151  1  0  0  0
 77152  1  0  0  0
 77153  1  0  0  0
 77 83  1  0  0  0
 78154  1  0  0  0
 78155  1  0  0  0
 78156  1  0  0  0
 78 84  1  0  0  0
 79 84  1  0  0  0
 79157  1  0  0  0
 79158  1  0  0  0
 79159  1  0  0  0
 80160  1  0  0  0
 80161  1  0  0  0
 81162  1  0  0  0
 81163  1  0  0  0
 82 84  1  0  0  0
 82 86  1  0  0  0
 82164  1  0  0  0
 82165  1  0  0  0
 83 84  1  0  0  0
 83166  1  0  0  0
 86167  1  0  0  0
M  ISO  4   1 100  68 101  80 101  86 100
M  END
> <chiral flag>
0

> <version>
0

> <s_m_source_file>
/data/baiqing/PycharmProjects/Reinvent-master-3.2/result/LINK_invent/BTK/process_docking_weight1_custom_sum_contain_oxygen_bond_distance_aromatic_linkinvent_7_9_3/rearranged_h_0081.sdf

> <i_m_source_file_index>
70

> <r_mmod_Potential_Energy-OPLS-2005>
8772.8388671875

> <r_mmod_Stretch_Energy-OPLS-2005>
4706.58203125

> <r_mmod_Bend_Energy-OPLS-2005>
1234.17907714844

> <r_mmod_Torsional_Energy-OPLS-2005>
401.433074951172

> <r_mmod_Improper_Torsional_Energy-OPLS-2005>
44.1851577758789

> <r_mmod_Van_der_Waal_Energy-OPLS-2005>
1775.36376953125

> <r_mmod_Electrostatic_Energy-OPLS-2005>
-570.925903320312

> <r_mmod_Solvation_Energy-OPLS-2005>
-210.390960693359

> <b_mmod_Minimization_Converged-OPLS-2005>
0

> <r_mmod_RMS_Derivative-OPLS-2005>
8.83849143981934

$$$$
70
                    3D
 Structure written by MMmdl.
167175  0  0  1  0            999 V2000
  -30.7220  -14.5506   20.6451 C   0  0  0  0  0  0
  -30.4128  -12.3675   19.4730 C   0  0  0  0  0  0
  -29.5054  -12.5256   18.2348 C   0  0  0  0  0  0
  -28.0274  -12.3564   18.6308 C   0  0  0  0  0  0
  -27.6540  -13.2143   19.8663 C   0  0  2  0  0  0
  -28.6834  -13.0444   21.0017 C   0  0  0  0  0  0
  -25.2517  -13.8145   20.5579 C   0  0  0  0  0  0
  -24.1812  -13.0431   20.9153 C   0  0  0  0  0  0
  -24.6389  -11.6895   20.8735 C   0  0  0  0  0  0
  -23.9058  -10.4294   21.0394 C   0  0  0  0  0  0
  -24.3618   -9.4223   21.9177 C   0  0  0  0  0  0
  -23.6298   -8.2253   22.0757 C   0  0  0  0  0  0
  -22.4285   -8.0285   21.3548 C   0  0  0  0  0  0
  -21.9904   -9.0256   20.4651 C   0  0  0  0  0  0
  -22.7221  -10.2136   20.3053 C   0  0  0  0  0  0
  -21.6873   -6.0727   22.5264 C   0  0  0  0  0  0
  -21.4031   -6.5634   23.8192 C   0  0  0  0  0  0
  -21.3663   -5.6782   24.9158 C   0  0  0  0  0  0
  -21.6046   -4.3046   24.7203 C   0  0  0  0  0  0
  -21.8828   -3.8141   23.4329 C   0  0  0  0  0  0
  -21.9203   -4.6958   22.3388 C   0  0  0  0  0  0
  -22.7840  -13.5228   21.1820 C   0  0  0  0  0  0
  -22.1683   -4.2141   21.0962 F   0  0  0  0  0  0
  -21.5619   -3.4531   25.7720 F   0  0  0  0  0  0
  -30.0153  -13.3818   20.4793 N   0  0  0  0  0  0
  -26.2979  -12.9339   20.3272 N   0  0  0  0  0  0
  -25.9319  -11.6499   20.5755 N   0  0  0  0  0  0
  -22.0510  -12.8241   22.0406 N   0  0  0  0  0  0
  -25.4142  -15.1845   20.3893 N   0  0  0  0  0  0
  -31.7837  -14.6746   20.0244 O   0  0  0  0  0  0
  -21.6669   -6.8876   21.4229 O   0  0  0  0  0  0
  -22.3515  -14.5535   20.6671 O   0  0  0  0  0  0
  -24.6214  -31.8679   23.2069 C   0  0  0  0  0  0
  -25.9091  -32.4811   23.8395 C   0  0  1  0  0  0
  -27.2273  -27.3851   20.1116 C   0  0  0  0  0  0
  -25.5938  -33.8610   24.2319 N   0  0  0  0  0  0
  -23.4097  -30.4927   21.5502 C   0  0  2  0  0  0
  -24.8543  -28.9581   20.1074 C   0  0  0  0  0  0
  -22.7456  -29.4665   22.4978 C   0  0  0  0  0  0
  -18.0284  -28.1382   22.8484 C   0  0  0  0  0  0
  -24.1483  -36.7298   23.2636 C   0  0  0  0  0  0
  -25.9448  -30.8187   21.3661 C   0  0  0  0  0  0
  -26.0191  -29.4531   20.7070 C   0  0  0  0  0  0
  -27.2089  -28.6789   20.6969 C   0  0  0  0  0  0
  -26.0431  -26.9297   19.4848 C   0  0  0  0  0  0
  -24.8658  -27.6985   19.4877 C   0  0  0  0  0  0
  -23.6168  -29.8291   20.1637 C   0  0  0  0  0  0
  -25.4108  -36.3113   24.0340 C   0  0  1  0  0  0
  -20.5881  -28.3676   23.1297 C   0  0  2  0  0  0
  -20.6776  -26.9407   22.5407 C   0  0  0  0  0  0
  -19.5737  -26.6382   21.5219 C   0  0  0  0  0  0
  -18.1914  -26.7925   22.1630 C   0  0  0  0  0  0
  -19.1537  -28.8846   23.2878 C   0  0  0  0  0  0
  -18.9466  -30.1454   23.8887 C   0  0  0  0  0  0
  -17.6465  -30.6582   24.0567 C   0  0  0  0  0  0
  -25.9047  -34.9477   23.5128 C   0  0  0  0  0  0
  -16.5352  -29.9079   23.6326 C   0  0  0  0  0  0
  -16.7275  -28.6505   23.0341 C   0  0  0  0  0  0
  -26.4483  -31.6602   25.0741 C   0  0  0  0  0  0
  -25.3716  -31.3724   26.1478 C   0  0  0  0  0  0
  -27.0321  -30.3039   24.6147 C   0  0  0  0  0  0
  -27.6063  -32.4345   25.7482 C   0  0  0  0  0  0
  -27.5579  -37.1803   24.8463 C   0  0  0  0  0  0
  -21.4178  -29.3037   22.3709 N   0  0  0  0  0  0
  -26.4290  -37.3805   23.9414 N   0  0  0  0  0  0
  -24.6771  -31.0751   22.0983 N   0  0  0  0  0  0
  -23.4211  -28.8216   23.3040 O   0  0  0  0  0  0
  -28.3651  -26.5835   20.1816 O   0  0  0  0  0  0
  -26.5603  -34.8934   22.4684 O   0  0  0  0  0  0
  -23.5397  -32.1468   23.7435 O   0  0  0  0  0  0
  -30.6909  -18.3438   19.3398 C   0  0  0  0  0  0
  -30.8080  -19.6726   19.0524 C   0  0  0  0  0  0
  -29.2522  -19.4515   20.6296 C   0  0  0  0  0  0
  -29.7086  -18.1653   20.3560 C   0  0  0  0  0  0
  -27.9441  -16.9912   21.7244 C   0  0  0  0  0  0
  -29.0126  -22.1041   18.2758 C   0  0  0  0  0  0
  -29.9137  -15.3069   23.0130 C   0  0  0  0  0  0
  -31.6050  -16.5956   21.8791 C   0  0  0  0  0  0
  -29.2814  -24.2565   20.7319 C   0  0  0  0  0  0
  -29.0622  -22.6881   20.7797 C   0  0  0  0  0  0
  -28.1706  -25.1421   20.0782 C   0  0  0  0  0  0
  -29.2291  -16.7804   20.8937 C   0  0  2  0  0  0
  -29.7152  -21.8579   19.6236 C   0  0  1  0  0  0
  -30.3051  -15.7879   21.5756 C   0  0  0  0  0  0
  -29.9047  -20.3895   19.8147 N   0  0  0  0  0  0
  -31.4635  -12.4365   19.1883 H   0  0  0  0  0  0
  -30.3008  -11.3670   19.8933 H   0  0  0  0  0  0
  -29.7776  -11.7943   17.4730 H   0  0  0  0  0  0
  -29.6577  -13.5101   17.7906 H   0  0  0  0  0  0
  -27.8625  -11.3015   18.8510 H   0  0  0  0  0  0
  -27.3756  -12.5987   17.7922 H   0  0  0  0  0  0
  -27.6861  -14.2549   19.5478 H   0  0  0  0  0  0
  -28.6765  -12.0214   21.3804 H   0  0  0  0  0  0
  -28.3737  -13.6567   21.8337 H   0  0  0  0  0  0
  -25.2762   -9.5721   22.4742 H   0  0  0  0  0  0
  -24.0031   -7.4653   22.7471 H   0  0  0  0  0  0
  -21.0830   -8.8752   19.8952 H   0  0  0  0  0  0
  -22.3662  -10.9675   19.6165 H   0  0  0  0  0  0
  -21.2047   -7.6144   23.9692 H   0  0  0  0  0  0
  -21.1476   -6.0516   25.9055 H   0  0  0  0  0  0
  -22.0612   -2.7601   23.2821 H   0  0  0  0  0  0
  -22.4171  -11.9927   22.4804 H   0  0  0  0  0  0
  -21.1118  -13.1248   22.2617 H   0  0  0  0  0  0
  -24.6493  -15.8353   20.5258 H   0  0  0  0  0  0
  -26.2700  -15.6347   20.0928 H   0  0  0  0  0  0
  -26.7155  -32.5507   23.1160 H   0  0  0  0  0  0
  -25.0115  -33.9744   25.0487 H   0  0  0  0  0  0
  -22.6991  -31.3108   21.4139 H   0  0  0  0  0  0
  -23.3760  -35.9620   23.3326 H   0  0  0  0  0  0
  -24.3575  -36.8883   22.2044 H   0  0  0  0  0  0
  -23.7215  -37.6504   23.6634 H   0  0  0  0  0  0
  -26.0736  -31.5877   20.6041 H   0  0  0  0  0  0
  -26.8258  -30.8654   21.9944 H   0  0  0  0  0  0
  -28.1056  -29.0596   21.1666 H   0  0  0  0  0  0
  -26.0002  -25.9686   18.9946 H   0  0  0  0  0  0
  -23.9743  -27.3112   19.0119 H   0  0  0  0  0  0
  -23.7251  -30.6119   19.4121 H   0  0  0  0  0  0
  -22.7353  -29.2570   19.8646 H   0  0  0  0  0  0
  -25.1280  -36.1992   25.0836 H   0  0  0  0  0  0
  -20.9963  -28.3258   24.1425 H   0  0  0  0  0  0
  -20.5708  -26.2290   23.3608 H   0  0  0  0  0  0
  -21.6639  -26.7461   22.1175 H   0  0  0  0  0  0
  -19.6897  -25.6303   21.1227 H   0  0  0  0  0  0
  -19.6659  -27.3217   20.6767 H   0  0  0  0  0  0
  -17.4192  -26.6685   21.4025 H   0  0  0  0  0  0
  -18.0300  -26.0063   22.9018 H   0  0  0  0  0  0
  -19.7943  -30.7269   24.2240 H   0  0  0  0  0  0
  -17.5024  -31.6262   24.5184 H   0  0  0  0  0  0
  -15.5354  -30.2982   23.7656 H   0  0  0  0  0  0
  -15.8678  -28.0831   22.7037 H   0  0  0  0  0  0
  -24.5890  -30.7074   25.7813 H   0  0  0  0  0  0
  -24.8886  -32.2861   26.4940 H   0  0  0  0  0  0
  -25.8033  -30.8885   27.0240 H   0  0  0  0  0  0
  -26.2875  -29.6802   24.1183 H   0  0  0  0  0  0
  -27.4057  -29.7303   25.4640 H   0  0  0  0  0  0
  -27.8735  -30.4366   23.9344 H   0  0  0  0  0  0
  -27.2696  -33.3654   26.2069 H   0  0  0  0  0  0
  -28.3839  -32.6898   25.0266 H   0  0  0  0  0  0
  -28.0777  -31.8467   26.5371 H   0  0  0  0  0  0
  -28.2613  -38.0089   24.7551 H   0  0  0  0  0  0
  -28.1063  -36.2633   24.6263 H   0  0  0  0  0  0
  -27.2300  -37.1427   25.8865 H   0  0  0  0  0  0
  -20.9367  -29.8765   21.6914 H   0  0  0  0  0  0
  -26.0192  -38.2886   24.1437 H   0  0  0  0  0  0
  -31.2554  -17.5618   18.8500 H   0  0  0  0  0  0
  -31.4378  -20.1757   18.3292 H   0  0  0  0  0  0
  -28.4843  -19.7867   21.3143 H   0  0  0  0  0  0
  -27.2251  -17.6107   21.1880 H   0  0  0  0  0  0
  -28.1594  -17.4880   22.6710 H   0  0  0  0  0  0
  -27.4332  -16.0550   21.9415 H   0  0  0  0  0  0
  -28.0164  -21.6617   18.2585 H   0  0  0  0  0  0
  -29.5807  -21.6764   17.4482 H   0  0  0  0  0  0
  -28.9161  -23.1640   18.0564 H   0  0  0  0  0  0
  -30.1486  -16.0583   23.7680 H   0  0  0  0  0  0
  -30.4577  -14.4060   23.2909 H   0  0  0  0  0  0
  -28.8639  -15.0936   23.1781 H   0  0  0  0  0  0
  -31.3914  -17.4917   22.4622 H   0  0  0  0  0  0
  -32.1311  -16.9282   20.9869 H   0  0  0  0  0  0
  -32.3184  -16.0020   22.4550 H   0  0  0  0  0  0
  -30.2470  -24.4842   20.2825 H   0  0  0  0  0  0
  -29.3664  -24.5972   21.7653 H   0  0  0  0  0  0
  -28.0000  -22.4561   20.8687 H   0  0  0  0  0  0
  -29.5110  -22.3353   21.7100 H   0  0  0  0  0  0
  -27.2317  -24.8671   20.5606 H   0  0  0  0  0  0
  -28.0682  -24.9004   19.0230 H   0  0  0  0  0  0
  -28.8886  -16.2770   19.9879 H   0  0  0  0  0  0
  -30.7270  -22.2563   19.5239 H   0  0  0  0  0  0
  1 25  1  0  0  0
  1 30  2  0  0  0
  1 84  1  0  0  0
  2  3  1  0  0  0
  2 25  1  0  0  0
  2 86  1  0  0  0
  2 87  1  0  0  0
  3  4  1  0  0  0
  3 88  1  0  0  0
  3 89  1  0  0  0
  4  5  1  0  0  0
  4 90  1  0  0  0
  4 91  1  0  0  0
  5  6  1  0  0  0
  5 26  1  0  0  0
  5 92  1  0  0  0
  6 25  1  0  0  0
  6 93  1  0  0  0
  6 94  1  0  0  0
  7  8  2  0  0  0
  7 26  1  0  0  0
  7 29  1  0  0  0
  8  9  1  0  0  0
  8 22  1  0  0  0
  9 10  1  0  0  0
  9 27  2  0  0  0
 10 11  2  0  0  0
 10 15  1  0  0  0
 11 12  1  0  0  0
 11 95  1  0  0  0
 12 13  2  0  0  0
 12 96  1  0  0  0
 13 14  1  0  0  0
 13 31  1  0  0  0
 14 15  2  0  0  0
 14 97  1  0  0  0
 15 98  1  0  0  0
 16 17  2  0  0  0
 16 21  1  0  0  0
 16 31  1  0  0  0
 17 18  1  0  0  0
 17 99  1  0  0  0
 18 19  2  0  0  0
 18100  1  0  0  0
 19 20  1  0  0  0
 19 24  1  0  0  0
 20 21  2  0  0  0
 20101  1  0  0  0
 21 23  1  0  0  0
 22 28  1  0  0  0
 22 32  2  0  0  0
 26 27  1  0  0  0
 28102  1  0  0  0
 28103  1  0  0  0
 29104  1  0  0  0
 29105  1  0  0  0
 33 34  1  0  0  0
 33 66  1  0  0  0
 33 70  2  0  0  0
 34 36  1  0  0  0
 34 59  1  0  0  0
 34106  1  0  0  0
 35 44  2  0  0  0
 35 45  1  0  0  0
 35 68  1  0  0  0
 36 56  1  0  0  0
 36107  1  0  0  0
 37 39  1  0  0  0
 37 47  1  0  0  0
 37 66  1  0  0  0
 37108  1  0  0  0
 38 43  2  0  0  0
 38 46  1  0  0  0
 38 47  1  0  0  0
 39 64  1  0  0  0
 39 67  2  0  0  0
 40 52  1  0  0  0
 40 53  2  0  0  0
 40 58  1  0  0  0
 41109  1  0  0  0
 41110  1  0  0  0
 41111  1  0  0  0
 41 48  1  0  0  0
 42 43  1  0  0  0
 42 66  1  0  0  0
 42112  1  0  0  0
 42113  1  0  0  0
 43 44  1  0  0  0
 44114  1  0  0  0
 45 46  2  0  0  0
 45115  1  0  0  0
 46116  1  0  0  0
 47117  1  0  0  0
 47118  1  0  0  0
 48 56  1  0  0  0
 48 65  1  0  0  0
 48119  1  0  0  0
 49 50  1  0  0  0
 49 53  1  0  0  0
 49 64  1  0  0  0
 49120  1  0  0  0
 50 51  1  0  0  0
 50121  1  0  0  0
 50122  1  0  0  0
 51 52  1  0  0  0
 51123  1  0  0  0
 51124  1  0  0  0
 52125  1  0  0  0
 52126  1  0  0  0
 53 54  1  0  0  0
 54 55  2  0  0  0
 54127  1  0  0  0
 55 57  1  0  0  0
 55128  1  0  0  0
 56 69  2  0  0  0
 57 58  2  0  0  0
 57129  1  0  0  0
 58130  1  0  0  0
 59 60  1  0  0  0
 59 61  1  0  0  0
 59 62  1  0  0  0
 60131  1  0  0  0
 60132  1  0  0  0
 60133  1  0  0  0
 61134  1  0  0  0
 61135  1  0  0  0
 61136  1  0  0  0
 62137  1  0  0  0
 62138  1  0  0  0
 62139  1  0  0  0
 63 65  1  0  0  0
 63140  1  0  0  0
 63141  1  0  0  0
 63142  1  0  0  0
 64143  1  0  0  0
 65144  1  0  0  0
 68 81  1  0  0  0
 71 72  2  0  0  0
 71 74  1  0  0  0
 71145  1  0  0  0
 72 85  1  0  0  0
 72146  1  0  0  0
 73 74  2  0  0  0
 73 85  1  0  0  0
 73147  1  0  0  0
 74 82  1  0  0  0
 75148  1  0  0  0
 75149  1  0  0  0
 75150  1  0  0  0
 75 82  1  0  0  0
 76151  1  0  0  0
 76152  1  0  0  0
 76153  1  0  0  0
 76 83  1  0  0  0
 77154  1  0  0  0
 77155  1  0  0  0
 77156  1  0  0  0
 77 84  1  0  0  0
 78 84  1  0  0  0
 78157  1  0  0  0
 78158  1  0  0  0
 78159  1  0  0  0
 79 80  1  0  0  0
 79 81  1  0  0  0
 79160  1  0  0  0
 79161  1  0  0  0
 80 83  1  0  0  0
 80162  1  0  0  0
 80163  1  0  0  0
 81164  1  0  0  0
 81165  1  0  0  0
 82 84  1  0  0  0
 82166  1  0  0  0
 83 85  1  0  0  0
 83167  1  0  0  0
M  ISO  4   1 100  68 101  81 101  84 100
M  END
> <chiral flag>
0

> <version>
0

> <s_m_source_file>
/data/baiqing/PycharmProjects/Reinvent-master-3.2/result/LINK_invent/BTK/process_docking_weight1_custom_sum_contain_oxygen_bond_distance_aromatic_linkinvent_7_9_3/rearranged_h_0081.sdf

> <i_m_source_file_index>
71

> <r_mmod_Potential_Energy-OPLS-2005>
125.494277954102

> <r_mmod_Stretch_Energy-OPLS-2005>
74.1673583984375

> <r_mmod_Bend_Energy-OPLS-2005>
155.126907348633

> <r_mmod_Torsional_Energy-OPLS-2005>
229.141738891602

> <r_mmod_Improper_Torsional_Energy-OPLS-2005>
2.23448896408081

> <r_mmod_Van_der_Waal_Energy-OPLS-2005>
149.770095825195

> <r_mmod_Electrostatic_Energy-OPLS-2005>
-332.550903320312

> <r_mmod_Solvation_Energy-OPLS-2005>
-178.253158569336

> <b_mmod_Minimization_Converged-OPLS-2005>
0

> <r_mmod_RMS_Derivative-OPLS-2005>
2.71505689620972

$$$$
71
                    3D
 Structure written by MMmdl.
156164  0  0  1  0            999 V2000
  -30.6773  -14.5150   20.5492 C   0  0  0  0  0  0
  -30.4270  -12.3303   19.4246 C   0  0  0  0  0  0
  -29.4961  -12.5090   18.2068 C   0  0  0  0  0  0
  -28.0174  -12.3656   18.6194 C   0  0  0  0  0  0
  -27.6593  -13.2096   19.8722 C   0  0  2  0  0  0
  -28.7032  -13.0059   20.9935 C   0  0  0  0  0  0
  -25.2578  -13.8164   20.5681 C   0  0  0  0  0  0
  -24.1834  -13.0439   20.9183 C   0  0  0  0  0  0
  -24.6389  -11.6907   20.8729 C   0  0  0  0  0  0
  -23.9054  -10.4292   21.0403 C   0  0  0  0  0  0
  -24.3614   -9.4208   21.9180 C   0  0  0  0  0  0
  -23.6296   -8.2240   22.0752 C   0  0  0  0  0  0
  -22.4275   -8.0277   21.3545 C   0  0  0  0  0  0
  -21.9905   -9.0246   20.4644 C   0  0  0  0  0  0
  -22.7226  -10.2130   20.3054 C   0  0  0  0  0  0
  -21.6849   -6.0735   22.5280 C   0  0  0  0  0  0
  -21.4007   -6.5641   23.8212 C   0  0  0  0  0  0
  -21.3660   -5.6797   24.9177 C   0  0  0  0  0  0
  -21.6043   -4.3058   24.7227 C   0  0  0  0  0  0
  -21.8818   -3.8148   23.4348 C   0  0  0  0  0  0
  -21.9192   -4.6964   22.3403 C   0  0  0  0  0  0
  -22.7858  -13.5235   21.1856 C   0  0  0  0  0  0
  -22.1665   -4.2152   21.0981 F   0  0  0  0  0  0
  -21.5632   -3.4540   25.7738 F   0  0  0  0  0  0
  -30.0291  -13.3218   20.4365 N   0  0  0  0  0  0
  -26.3012  -12.9337   20.3358 N   0  0  0  0  0  0
  -25.9317  -11.6491   20.5761 N   0  0  0  0  0  0
  -22.0506  -12.8216   22.0409 N   0  0  0  0  0  0
  -25.4306  -15.1881   20.4072 N   0  0  0  0  0  0
  -31.8155  -14.6980   20.1100 O   0  0  0  0  0  0
  -21.6639   -6.8876   21.4241 O   0  0  0  0  0  0
  -22.3543  -14.5548   20.6719 O   0  0  0  0  0  0
  -24.6172  -31.8653   23.2076 C   0  0  0  0  0  0
  -25.9053  -32.4811   23.8384 C   0  0  1  0  0  0
  -27.2337  -27.4151   20.1034 C   0  0  0  0  0  0
  -25.5900  -33.8609   24.2314 N   0  0  0  0  0  0
  -23.4074  -30.4880   21.5479 C   0  0  2  0  0  0
  -24.8557  -28.9512   20.1129 C   0  0  0  0  0  0
  -22.7430  -29.4643   22.4974 C   0  0  0  0  0  0
  -18.0277  -28.1377   22.8487 C   0  0  0  0  0  0
  -24.1487  -36.7319   23.2639 C   0  0  0  0  0  0
  -25.9379  -30.8269   21.3624 C   0  0  0  0  0  0
  -26.0176  -29.4599   20.7089 C   0  0  0  0  0  0
  -27.2138  -28.7010   20.6960 C   0  0  0  0  0  0
  -26.0579  -26.9262   19.4976 C   0  0  0  0  0  0
  -24.8717  -27.6853   19.5017 C   0  0  0  0  0  0
  -23.6177  -29.8195   20.1628 C   0  0  0  0  0  0
  -25.4108  -36.3107   24.0335 C   0  0  1  0  0  0
  -20.5868  -28.3669   23.1312 C   0  0  2  0  0  0
  -20.6767  -26.9403   22.5417 C   0  0  0  0  0  0
  -19.5747  -26.6384   21.5212 C   0  0  0  0  0  0
  -18.1923  -26.7925   22.1622 C   0  0  0  0  0  0
  -19.1524  -28.8842   23.2897 C   0  0  0  0  0  0
  -18.9452  -30.1446   23.8911 C   0  0  0  0  0  0
  -17.6452  -30.6584   24.0566 C   0  0  0  0  0  0
  -25.9036  -34.9469   23.5124 C   0  0  0  0  0  0
  -16.5344  -29.9086   23.6320 C   0  0  0  0  0  0
  -16.7266  -28.6503   23.0344 C   0  0  0  0  0  0
  -26.4474  -31.6597   25.0717 C   0  0  0  0  0  0
  -25.3734  -31.3707   26.1462 C   0  0  0  0  0  0
  -27.0308  -30.3040   24.6098 C   0  0  0  0  0  0
  -27.6050  -32.4317   25.7482 C   0  0  0  0  0  0
  -27.5581  -37.1812   24.8463 C   0  0  0  0  0  0
  -21.4154  -29.3031   22.3716 N   0  0  0  0  0  0
  -26.4296  -37.3791   23.9402 N   0  0  0  0  0  0
  -24.6725  -31.0743   22.0980 N   0  0  0  0  0  0
  -23.4191  -28.8184   23.3025 O   0  0  0  0  0  0
  -28.3716  -26.6314   20.1060 O   0  0  0  0  0  0
  -26.5601  -34.8926   22.4686 O   0  0  0  0  0  0
  -23.5359  -32.1409   23.7458 O   0  0  0  0  0  0
  -28.6030  -20.3481   20.8597 C   0  0  0  0  0  0
  -30.4115  -21.3323   20.1919 C   0  0  0  0  0  0
  -29.4755  -19.3857   20.3834 C   0  0  0  0  0  0
  -29.1882  -17.4761   18.7612 C   0  0  0  0  0  0
  -28.8174  -24.1242   20.2483 C   0  0  0  0  0  0
  -28.6830  -22.8939   21.2001 C   0  0  0  0  0  0
  -30.2698  -16.9830   21.0355 C   0  0  0  0  0  0
  -28.2710  -25.4294   20.9029 C   0  0  0  0  0  0
  -29.2601  -17.8762   20.2447 C   0  0  1  0  0  0
  -30.6343  -20.0370   19.9501 N   0  0  0  0  0  0
  -29.2112  -21.6019   20.7280 N   0  0  0  0  0  0
  -29.9308  -15.5379   21.0175 N   0  0  0  0  0  0
  -31.4701  -12.4404   19.1223 H   0  0  0  0  0  0
  -30.3403  -11.3229   19.8330 H   0  0  0  0  0  0
  -29.7403  -11.7784   17.4343 H   0  0  0  0  0  0
  -29.6580  -13.4917   17.7601 H   0  0  0  0  0  0
  -27.8308  -11.3100   18.8191 H   0  0  0  0  0  0
  -27.3669  -12.6357   17.7868 H   0  0  0  0  0  0
  -27.6960  -14.2553   19.5666 H   0  0  0  0  0  0
  -28.6878  -11.9729   21.3435 H   0  0  0  0  0  0
  -28.4636  -13.6133   21.8673 H   0  0  0  0  0  0
  -25.2763   -9.5684   22.4752 H   0  0  0  0  0  0
  -24.0007   -7.4625   22.7463 H   0  0  0  0  0  0
  -21.0844   -8.8754   19.8945 H   0  0  0  0  0  0
  -22.3682  -10.9667   19.6161 H   0  0  0  0  0  0
  -21.1993   -7.6147   23.9711 H   0  0  0  0  0  0
  -21.1491   -6.0533   25.9081 H   0  0  0  0  0  0
  -22.0599   -2.7610   23.2848 H   0  0  0  0  0  0
  -22.4139  -11.9881   22.4790 H   0  0  0  0  0  0
  -21.1119  -13.1229   22.2621 H   0  0  0  0  0  0
  -24.6643  -15.8454   20.5065 H   0  0  0  0  0  0
  -26.2799  -15.6205   20.0682 H   0  0  0  0  0  0
  -26.7127  -32.5522   23.1153 H   0  0  0  0  0  0
  -25.0046  -33.9766   25.0458 H   0  0  0  0  0  0
  -22.6972  -31.3050   21.4066 H   0  0  0  0  0  0
  -23.3740  -35.9662   23.3312 H   0  0  0  0  0  0
  -24.3581  -36.8925   22.2051 H   0  0  0  0  0  0
  -23.7251  -37.6531   23.6649 H   0  0  0  0  0  0
  -26.0502  -31.5923   20.5932 H   0  0  0  0  0  0
  -26.8255  -30.8822   21.9802 H   0  0  0  0  0  0
  -28.1124  -29.0877   21.1565 H   0  0  0  0  0  0
  -26.0592  -25.9523   19.0277 H   0  0  0  0  0  0
  -23.9796  -27.2897   19.0356 H   0  0  0  0  0  0
  -23.7266  -30.5938   19.4027 H   0  0  0  0  0  0
  -22.7416  -29.2392   19.8665 H   0  0  0  0  0  0
  -25.1286  -36.1974   25.0829 H   0  0  0  0  0  0
  -20.9961  -28.3234   24.1435 H   0  0  0  0  0  0
  -20.5672  -26.2274   23.3605 H   0  0  0  0  0  0
  -21.6638  -26.7442   22.1209 H   0  0  0  0  0  0
  -19.6910  -25.6297   21.1236 H   0  0  0  0  0  0
  -19.6692  -27.3200   20.6746 H   0  0  0  0  0  0
  -17.4197  -26.6672   21.4024 H   0  0  0  0  0  0
  -18.0327  -26.0066   22.9018 H   0  0  0  0  0  0
  -19.7928  -30.7254   24.2295 H   0  0  0  0  0  0
  -17.5009  -31.6266   24.5163 H   0  0  0  0  0  0
  -15.5346  -30.2994   23.7637 H   0  0  0  0  0  0
  -15.8666  -28.0831   22.7048 H   0  0  0  0  0  0
  -24.5897  -30.7071   25.7792 H   0  0  0  0  0  0
  -24.8938  -32.2865   26.4928 H   0  0  0  0  0  0
  -25.8077  -30.8855   27.0211 H   0  0  0  0  0  0
  -26.2853  -29.6803   24.1148 H   0  0  0  0  0  0
  -27.4076  -29.7277   25.4558 H   0  0  0  0  0  0
  -27.8690  -30.4365   23.9252 H   0  0  0  0  0  0
  -27.2669  -33.3602   26.2098 H   0  0  0  0  0  0
  -28.3841  -32.6902   25.0297 H   0  0  0  0  0  0
  -28.0743  -31.8417   26.5366 H   0  0  0  0  0  0
  -28.2603  -38.0104   24.7502 H   0  0  0  0  0  0
  -28.1070  -36.2634   24.6296 H   0  0  0  0  0  0
  -27.2297  -37.1475   25.8865 H   0  0  0  0  0  0
  -20.9319  -29.8759   21.6938 H   0  0  0  0  0  0
  -26.0186  -38.2871   24.1394 H   0  0  0  0  0  0
  -27.6115  -20.2395   21.2796 H   0  0  0  0  0  0
  -31.1459  -22.1004   19.9910 H   0  0  0  0  0  0
  -28.4353  -18.0638   18.2356 H   0  0  0  0  0  0
  -28.9258  -16.4260   18.6349 H   0  0  0  0  0  0
  -30.1435  -17.6432   18.2639 H   0  0  0  0  0  0
  -28.2771  -23.9301   19.3214 H   0  0  0  0  0  0
  -29.8626  -24.2717   19.9752 H   0  0  0  0  0  0
  -27.6303  -22.7533   21.4482 H   0  0  0  0  0  0
  -29.1832  -23.1164   22.1438 H   0  0  0  0  0  0
  -30.2868  -17.3037   22.0777 H   0  0  0  0  0  0
  -31.2780  -17.1501   20.6533 H   0  0  0  0  0  0
  -28.8298  -25.6188   21.8202 H   0  0  0  0  0  0
  -27.2441  -25.2502   21.2273 H   0  0  0  0  0  0
  -28.2758  -17.6600   20.6623 H   0  0  0  0  0  0
  -29.0082  -15.2903   21.3420 H   0  0  0  0  0  0
  1 25  1  0  0  0
  1 30  2  0  0  0
  1 82  1  0  0  0
  2  3  1  0  0  0
  2 25  1  0  0  0
  2 83  1  0  0  0
  2 84  1  0  0  0
  3  4  1  0  0  0
  3 85  1  0  0  0
  3 86  1  0  0  0
  4  5  1  0  0  0
  4 87  1  0  0  0
  4 88  1  0  0  0
  5  6  1  0  0  0
  5 26  1  0  0  0
  5 89  1  0  0  0
  6 25  1  0  0  0
  6 90  1  0  0  0
  6 91  1  0  0  0
  7  8  2  0  0  0
  7 26  1  0  0  0
  7 29  1  0  0  0
  8  9  1  0  0  0
  8 22  1  0  0  0
  9 10  1  0  0  0
  9 27  2  0  0  0
 10 11  2  0  0  0
 10 15  1  0  0  0
 11 12  1  0  0  0
 11 92  1  0  0  0
 12 13  2  0  0  0
 12 93  1  0  0  0
 13 14  1  0  0  0
 13 31  1  0  0  0
 14 15  2  0  0  0
 14 94  1  0  0  0
 15 95  1  0  0  0
 16 17  2  0  0  0
 16 21  1  0  0  0
 16 31  1  0  0  0
 17 18  1  0  0  0
 17 96  1  0  0  0
 18 19  2  0  0  0
 18 97  1  0  0  0
 19 20  1  0  0  0
 19 24  1  0  0  0
 20 21  2  0  0  0
 20 98  1  0  0  0
 21 23  1  0  0  0
 22 28  1  0  0  0
 22 32  2  0  0  0
 26 27  1  0  0  0
 28 99  1  0  0  0
 28100  1  0  0  0
 29101  1  0  0  0
 29102  1  0  0  0
 33 34  1  0  0  0
 33 66  1  0  0  0
 33 70  2  0  0  0
 34 36  1  0  0  0
 34 59  1  0  0  0
 34103  1  0  0  0
 35 44  2  0  0  0
 35 45  1  0  0  0
 35 68  1  0  0  0
 36 56  1  0  0  0
 36104  1  0  0  0
 37 39  1  0  0  0
 37 47  1  0  0  0
 37 66  1  0  0  0
 37105  1  0  0  0
 38 43  2  0  0  0
 38 46  1  0  0  0
 38 47  1  0  0  0
 39 64  1  0  0  0
 39 67  2  0  0  0
 40 52  1  0  0  0
 40 53  2  0  0  0
 40 58  1  0  0  0
 41106  1  0  0  0
 41107  1  0  0  0
 41108  1  0  0  0
 41 48  1  0  0  0
 42 43  1  0  0  0
 42 66  1  0  0  0
 42109  1  0  0  0
 42110  1  0  0  0
 43 44  1  0  0  0
 44111  1  0  0  0
 45 46  2  0  0  0
 45112  1  0  0  0
 46113  1  0  0  0
 47114  1  0  0  0
 47115  1  0  0  0
 48 56  1  0  0  0
 48 65  1  0  0  0
 48116  1  0  0  0
 49 50  1  0  0  0
 49 53  1  0  0  0
 49 64  1  0  0  0
 49117  1  0  0  0
 50 51  1  0  0  0
 50118  1  0  0  0
 50119  1  0  0  0
 51 52  1  0  0  0
 51120  1  0  0  0
 51121  1  0  0  0
 52122  1  0  0  0
 52123  1  0  0  0
 53 54  1  0  0  0
 54 55  2  0  0  0
 54124  1  0  0  0
 55 57  1  0  0  0
 55125  1  0  0  0
 56 69  2  0  0  0
 57 58  2  0  0  0
 57126  1  0  0  0
 58127  1  0  0  0
 59 60  1  0  0  0
 59 61  1  0  0  0
 59 62  1  0  0  0
 60128  1  0  0  0
 60129  1  0  0  0
 60130  1  0  0  0
 61131  1  0  0  0
 61132  1  0  0  0
 61133  1  0  0  0
 62134  1  0  0  0
 62135  1  0  0  0
 62136  1  0  0  0
 63 65  1  0  0  0
 63137  1  0  0  0
 63138  1  0  0  0
 63139  1  0  0  0
 64140  1  0  0  0
 65141  1  0  0  0
 68 78  1  0  0  0
 71 73  2  0  0  0
 71 81  1  0  0  0
 71142  1  0  0  0
 72 80  2  0  0  0
 72 81  1  0  0  0
 72143  1  0  0  0
 73 79  1  0  0  0
 73 80  1  0  0  0
 74144  1  0  0  0
 74145  1  0  0  0
 74146  1  0  0  0
 74 79  1  0  0  0
 75 76  1  0  0  0
 75 78  1  0  0  0
 75147  1  0  0  0
 75148  1  0  0  0
 76 81  1  0  0  0
 76149  1  0  0  0
 76150  1  0  0  0
 77 79  1  0  0  0
 77 82  1  0  0  0
 77151  1  0  0  0
 77152  1  0  0  0
 78153  1  0  0  0
 78154  1  0  0  0
 79155  1  0  0  0
 82156  1  0  0  0
M  ISO  4   1 100  68 101  78 101  82 100
M  END
> <chiral flag>
0

> <version>
0

> <s_m_source_file>
/data/baiqing/PycharmProjects/Reinvent-master-3.2/result/LINK_invent/BTK/process_docking_weight1_custom_sum_contain_oxygen_bond_distance_aromatic_linkinvent_7_9_3/rearranged_h_0081.sdf

> <i_m_source_file_index>
72

> <r_mmod_Potential_Energy-OPLS-2005>
-115.685516357422

> <r_mmod_Stretch_Energy-OPLS-2005>
42.058723449707

> <r_mmod_Bend_Energy-OPLS-2005>
106.092910766602

> <r_mmod_Torsional_Energy-OPLS-2005>
222.457229614258

> <r_mmod_Improper_Torsional_Energy-OPLS-2005>
4.34649038314819

> <r_mmod_Van_der_Waal_Energy-OPLS-2005>
118.495162963867

> <r_mmod_Electrostatic_Energy-OPLS-2005>
-395.083679199219

> <r_mmod_Solvation_Energy-OPLS-2005>
-231.598342895508

> <b_mmod_Minimization_Converged-OPLS-2005>
0

> <r_mmod_RMS_Derivative-OPLS-2005>
0.898563504219055

$$$$
72
                    3D
 Structure written by MMmdl.
175183  0  0  1  0            999 V2000
  -30.6061  -14.7139   20.4692 C   0  0  0  0  0  0
  -30.4387  -12.4308   19.4765 C   0  0  0  0  0  0
  -29.5164  -12.5179   18.2414 C   0  0  0  0  0  0
  -28.0422  -12.3378   18.6476 C   0  0  0  0  0  0
  -27.6492  -13.2241   19.8595 C   0  0  2  0  0  0
  -28.6920  -13.1342   20.9968 C   0  0  0  0  0  0
  -25.2527  -13.8174   20.5669 C   0  0  0  0  0  0
  -24.1830  -13.0426   20.9182 C   0  0  0  0  0  0
  -24.6415  -11.6896   20.8751 C   0  0  0  0  0  0
  -23.9082  -10.4286   21.0419 C   0  0  0  0  0  0
  -24.3640   -9.4188   21.9183 C   0  0  0  0  0  0
  -23.6306   -8.2230   22.0757 C   0  0  0  0  0  0
  -22.4280   -8.0284   21.3544 C   0  0  0  0  0  0
  -21.9927   -9.0261   20.4637 C   0  0  0  0  0  0
  -22.7269  -10.2125   20.3060 C   0  0  0  0  0  0
  -21.6848   -6.0745   22.5282 C   0  0  0  0  0  0
  -21.4017   -6.5652   23.8216 C   0  0  0  0  0  0
  -21.3654   -5.6806   24.9178 C   0  0  0  0  0  0
  -21.6045   -4.3079   24.7227 C   0  0  0  0  0  0
  -21.8808   -3.8156   23.4355 C   0  0  0  0  0  0
  -21.9198   -4.6973   22.3403 C   0  0  0  0  0  0
  -22.7847  -13.5187   21.1852 C   0  0  0  0  0  0
  -22.1655   -4.2162   21.0987 F   0  0  0  0  0  0
  -21.5626   -3.4562   25.7737 F   0  0  0  0  0  0
  -29.9990  -13.4814   20.4243 N   0  0  0  0  0  0
  -26.2973  -12.9376   20.3286 N   0  0  0  0  0  0
  -25.9341  -11.6523   20.5770 N   0  0  0  0  0  0
  -22.0539  -12.8166   22.0414 N   0  0  0  0  0  0
  -25.4170  -15.1914   20.4088 N   0  0  0  0  0  0
  -31.7825  -14.8421   20.1180 O   0  0  0  0  0  0
  -21.6642   -6.8899   21.4254 O   0  0  0  0  0  0
  -22.3500  -14.5488   20.6687 O   0  0  0  0  0  0
  -24.6272  -31.8556   23.2022 C   0  0  0  0  0  0
  -25.9109  -32.4749   23.8360 C   0  0  1  0  0  0
  -27.2190  -27.2759   20.1262 C   0  0  0  0  0  0
  -25.5916  -33.8555   24.2274 N   0  0  0  0  0  0
  -23.4225  -30.4783   21.5451 C   0  0  2  0  0  0
  -24.8706  -28.9299   20.1077 C   0  0  0  0  0  0
  -22.7476  -29.4583   22.4926 C   0  0  0  0  0  0
  -18.0281  -28.1370   22.8477 C   0  0  0  0  0  0
  -24.1484  -36.7296   23.2644 C   0  0  0  0  0  0
  -25.9662  -30.7730   21.3798 C   0  0  0  0  0  0
  -26.0394  -29.3958   20.7224 C   0  0  0  0  0  0
  -27.2143  -28.5790   20.7258 C   0  0  0  0  0  0
  -26.0317  -26.8819   19.4679 C   0  0  0  0  0  0
  -24.8712  -27.6801   19.4702 C   0  0  0  0  0  0
  -23.6384  -29.8132   20.1599 C   0  0  0  0  0  0
  -25.4105  -36.3064   24.0331 C   0  0  1  0  0  0
  -20.5878  -28.3664   23.1288 C   0  0  2  0  0  0
  -20.6755  -26.9381   22.5418 C   0  0  0  0  0  0
  -19.5742  -26.6363   21.5204 C   0  0  0  0  0  0
  -18.1922  -26.7913   22.1610 C   0  0  0  0  0  0
  -19.1534  -28.8835   23.2874 C   0  0  0  0  0  0
  -18.9461  -30.1438   23.8884 C   0  0  0  0  0  0
  -17.6467  -30.6573   24.0552 C   0  0  0  0  0  0
  -25.9047  -34.9432   23.5101 C   0  0  0  0  0  0
  -16.5352  -29.9071   23.6334 C   0  0  0  0  0  0
  -16.7269  -28.6488   23.0349 C   0  0  0  0  0  0
  -26.4487  -31.6574   25.0744 C   0  0  0  0  0  0
  -25.3740  -31.3736   26.1493 C   0  0  0  0  0  0
  -27.0324  -30.2988   24.6224 C   0  0  0  0  0  0
  -27.6027  -32.4318   25.7534 C   0  0  0  0  0  0
  -27.5570  -37.1802   24.8458 C   0  0  0  0  0  0
  -21.4187  -29.3021   22.3685 N   0  0  0  0  0  0
  -26.4271  -37.3769   23.9417 N   0  0  0  0  0  0
  -24.6904  -31.0533   22.0993 N   0  0  0  0  0  0
  -23.4183  -28.8118   23.3013 O   0  0  0  0  0  0
  -28.3175  -26.3902   20.2022 O   0  0  0  0  0  0
  -26.5622  -34.8906   22.4677 O   0  0  0  0  0  0
  -23.5424  -32.1375   23.7330 O   0  0  0  0  0  0
  -29.2833  -21.0913   21.0045 C   0  0  0  0  0  0
  -28.5005  -21.7611   19.0616 C   0  0  0  0  0  0
  -28.9577  -22.2916   20.2375 C   0  0  0  0  0  0
  -28.9730  -19.9057   20.3341 C   0  0  0  0  0  0
  -24.6895  -21.6503   17.3833 C   0  0  0  0  0  0
  -24.6230  -19.4046   18.5484 C   0  0  0  0  0  0
  -29.0959  -19.1814   17.0719 C   0  0  0  0  0  0
  -30.5543  -24.2393   20.1245 C   0  0  0  0  0  0
  -29.0844  -23.9743   22.1300 C   0  0  0  0  0  0
  -28.9652  -18.3805   20.7741 C   0  0  0  0  0  0
  -26.7304  -20.1404   17.2644 C   0  0  0  0  0  0
  -30.1008  -17.2973   20.4022 C   0  0  0  0  0  0
  -28.1100  -24.9174   19.9799 C   0  0  0  0  0  0
  -25.5161  -20.5836   18.1235 C   0  0  0  0  0  0
  -27.9363  -19.5211   18.0238 C   0  0  2  0  0  0
  -29.1472  -23.8390   20.5975 C   0  0  0  0  0  0
  -28.4399  -20.3598   19.1175 N   0  0  0  0  0  0
  -29.8124  -15.8233   20.6894 N   0  0  0  0  0  0
  -31.4817  -12.5515   19.1819 H   0  0  0  0  0  0
  -30.3734  -11.4478   19.9439 H   0  0  0  0  0  0
  -29.7957  -11.7731   17.4957 H   0  0  0  0  0  0
  -29.6456  -13.4895   17.7619 H   0  0  0  0  0  0
  -27.8882  -11.2854   18.8886 H   0  0  0  0  0  0
  -27.3874  -12.5505   17.8015 H   0  0  0  0  0  0
  -27.6496  -14.2500   19.4908 H   0  0  0  0  0  0
  -28.7187  -12.1310   21.4226 H   0  0  0  0  0  0
  -28.4281  -13.8020   21.8184 H   0  0  0  0  0  0
  -25.2821   -9.5640   22.4715 H   0  0  0  0  0  0
  -24.0025   -7.4618   22.7475 H   0  0  0  0  0  0
  -21.0857   -8.8794   19.8942 H   0  0  0  0  0  0
  -22.3773  -10.9663   19.6141 H   0  0  0  0  0  0
  -21.1999   -7.6169   23.9722 H   0  0  0  0  0  0
  -21.1478   -6.0543   25.9079 H   0  0  0  0  0  0
  -22.0584   -2.7623   23.2853 H   0  0  0  0  0  0
  -22.4249  -11.9860   22.4783 H   0  0  0  0  0  0
  -21.1129  -13.1111   22.2632 H   0  0  0  0  0  0
  -24.6251  -15.8204   20.4900 H   0  0  0  0  0  0
  -26.2458  -15.6436   20.0489 H   0  0  0  0  0  0
  -26.7172  -32.5406   23.1104 H   0  0  0  0  0  0
  -25.0036  -33.9706   25.0394 H   0  0  0  0  0  0
  -22.7159  -31.2984   21.4021 H   0  0  0  0  0  0
  -23.3737  -35.9635   23.3289 H   0  0  0  0  0  0
  -24.3585  -36.8945   22.2063 H   0  0  0  0  0  0
  -23.7244  -37.6497   23.6685 H   0  0  0  0  0  0
  -26.0993  -31.5318   20.6071 H   0  0  0  0  0  0
  -26.8455  -30.8241   22.0105 H   0  0  0  0  0  0
  -28.1037  -28.9254   21.2333 H   0  0  0  0  0  0
  -25.9701  -25.9326   18.9574 H   0  0  0  0  0  0
  -23.9789  -27.3192   18.9766 H   0  0  0  0  0  0
  -23.7549  -30.5910   19.4039 H   0  0  0  0  0  0
  -22.7571  -29.2439   19.8586 H   0  0  0  0  0  0
  -25.1279  -36.1912   25.0821 H   0  0  0  0  0  0
  -20.9960  -28.3234   24.1413 H   0  0  0  0  0  0
  -20.5627  -26.2269   23.3619 H   0  0  0  0  0  0
  -21.6634  -26.7387   22.1240 H   0  0  0  0  0  0
  -19.6907  -25.6277   21.1230 H   0  0  0  0  0  0
  -19.6699  -27.3174   20.6741 H   0  0  0  0  0  0
  -17.4194  -26.6659   21.4011 H   0  0  0  0  0  0
  -18.0319  -26.0053   22.9004 H   0  0  0  0  0  0
  -19.7943  -30.7247   24.2249 H   0  0  0  0  0  0
  -17.5028  -31.6260   24.5146 H   0  0  0  0  0  0
  -15.5354  -30.2966   23.7682 H   0  0  0  0  0  0
  -15.8665  -28.0811   22.7073 H   0  0  0  0  0  0
  -24.5944  -30.7015   25.7897 H   0  0  0  0  0  0
  -24.8894  -32.2902   26.4866 H   0  0  0  0  0  0
  -25.8107  -30.9014   27.0305 H   0  0  0  0  0  0
  -26.2909  -29.6760   24.1207 H   0  0  0  0  0  0
  -27.3956  -29.7220   25.4744 H   0  0  0  0  0  0
  -27.8806  -30.4262   23.9494 H   0  0  0  0  0  0
  -27.2609  -33.3615   26.2105 H   0  0  0  0  0  0
  -28.3861  -32.6888   25.0391 H   0  0  0  0  0  0
  -28.0667  -31.8452   26.5481 H   0  0  0  0  0  0
  -28.2567  -38.0112   24.7495 H   0  0  0  0  0  0
  -28.1073  -36.2643   24.6264 H   0  0  0  0  0  0
  -27.2302  -37.1437   25.8862 H   0  0  0  0  0  0
  -20.9346  -29.8775   21.6934 H   0  0  0  0  0  0
  -26.0141  -38.2832   24.1446 H   0  0  0  0  0  0
  -29.6973  -21.0980   22.0021 H   0  0  0  0  0  0
  -28.1745  -22.2789   18.1706 H   0  0  0  0  0  0
  -23.8878  -22.0422   18.0108 H   0  0  0  0  0  0
  -24.2365  -21.2487   16.4769 H   0  0  0  0  0  0
  -25.3154  -22.4981   17.0964 H   0  0  0  0  0  0
  -23.7743  -19.7506   19.1411 H   0  0  0  0  0  0
  -25.1698  -18.6876   19.1620 H   0  0  0  0  0  0
  -24.2202  -18.8692   17.6875 H   0  0  0  0  0  0
  -28.8409  -18.3461   16.4190 H   0  0  0  0  0  0
  -29.9900  -18.8966   17.6278 H   0  0  0  0  0  0
  -29.3654  -20.0290   16.4408 H   0  0  0  0  0  0
  -31.3238  -23.6046   20.5666 H   0  0  0  0  0  0
  -30.7856  -25.2711   20.3895 H   0  0  0  0  0  0
  -30.6405  -24.1504   19.0415 H   0  0  0  0  0  0
  -29.8763  -23.4083   22.6209 H   0  0  0  0  0  0
  -28.1316  -23.6103   22.5172 H   0  0  0  0  0  0
  -29.1869  -25.0134   22.4437 H   0  0  0  0  0  0
  -28.0188  -17.9498   20.4475 H   0  0  0  0  0  0
  -28.8718  -18.3656   21.8606 H   0  0  0  0  0  0
  -27.0940  -20.9995   16.7007 H   0  0  0  0  0  0
  -26.3876  -19.4448   16.4983 H   0  0  0  0  0  0
  -31.0279  -17.5740   20.9080 H   0  0  0  0  0  0
  -30.3140  -17.3650   19.3368 H   0  0  0  0  0  0
  -27.1235  -24.6396   20.3544 H   0  0  0  0  0  0
  -28.0704  -24.7730   18.8997 H   0  0  0  0  0  0
  -25.8763  -21.0565   19.0370 H   0  0  0  0  0  0
  -27.5798  -18.5846   18.4485 H   0  0  0  0  0  0
  -28.8676  -15.6143   20.9721 H   0  0  0  0  0  0
  1 25  1  0  0  0
  1 30  2  0  0  0
  1 88  1  0  0  0
  2  3  1  0  0  0
  2 25  1  0  0  0
  2 89  1  0  0  0
  2 90  1  0  0  0
  3  4  1  0  0  0
  3 91  1  0  0  0
  3 92  1  0  0  0
  4  5  1  0  0  0
  4 93  1  0  0  0
  4 94  1  0  0  0
  5  6  1  0  0  0
  5 26  1  0  0  0
  5 95  1  0  0  0
  6 25  1  0  0  0
  6 96  1  0  0  0
  6 97  1  0  0  0
  7  8  2  0  0  0
  7 26  1  0  0  0
  7 29  1  0  0  0
  8  9  1  0  0  0
  8 22  1  0  0  0
  9 10  1  0  0  0
  9 27  2  0  0  0
 10 11  2  0  0  0
 10 15  1  0  0  0
 11 12  1  0  0  0
 11 98  1  0  0  0
 12 13  2  0  0  0
 12 99  1  0  0  0
 13 14  1  0  0  0
 13 31  1  0  0  0
 14 15  2  0  0  0
 14100  1  0  0  0
 15101  1  0  0  0
 16 17  2  0  0  0
 16 21  1  0  0  0
 16 31  1  0  0  0
 17 18  1  0  0  0
 17102  1  0  0  0
 18 19  2  0  0  0
 18103  1  0  0  0
 19 20  1  0  0  0
 19 24  1  0  0  0
 20 21  2  0  0  0
 20104  1  0  0  0
 21 23  1  0  0  0
 22 28  1  0  0  0
 22 32  2  0  0  0
 26 27  1  0  0  0
 28105  1  0  0  0
 28106  1  0  0  0
 29107  1  0  0  0
 29108  1  0  0  0
 33 34  1  0  0  0
 33 66  1  0  0  0
 33 70  2  0  0  0
 34 36  1  0  0  0
 34 59  1  0  0  0
 34109  1  0  0  0
 35 44  2  0  0  0
 35 45  1  0  0  0
 35 68  1  0  0  0
 36 56  1  0  0  0
 36110  1  0  0  0
 37 39  1  0  0  0
 37 47  1  0  0  0
 37 66  1  0  0  0
 37111  1  0  0  0
 38 43  2  0  0  0
 38 46  1  0  0  0
 38 47  1  0  0  0
 39 64  1  0  0  0
 39 67  2  0  0  0
 40 52  1  0  0  0
 40 53  2  0  0  0
 40 58  1  0  0  0
 41112  1  0  0  0
 41113  1  0  0  0
 41114  1  0  0  0
 41 48  1  0  0  0
 42 43  1  0  0  0
 42 66  1  0  0  0
 42115  1  0  0  0
 42116  1  0  0  0
 43 44  1  0  0  0
 44117  1  0  0  0
 45 46  2  0  0  0
 45118  1  0  0  0
 46119  1  0  0  0
 47120  1  0  0  0
 47121  1  0  0  0
 48 56  1  0  0  0
 48 65  1  0  0  0
 48122  1  0  0  0
 49 50  1  0  0  0
 49 53  1  0  0  0
 49 64  1  0  0  0
 49123  1  0  0  0
 50 51  1  0  0  0
 50124  1  0  0  0
 50125  1  0  0  0
 51 52  1  0  0  0
 51126  1  0  0  0
 51127  1  0  0  0
 52128  1  0  0  0
 52129  1  0  0  0
 53 54  1  0  0  0
 54 55  2  0  0  0
 54130  1  0  0  0
 55 57  1  0  0  0
 55131  1  0  0  0
 56 69  2  0  0  0
 57 58  2  0  0  0
 57132  1  0  0  0
 58133  1  0  0  0
 59 60  1  0  0  0
 59 61  1  0  0  0
 59 62  1  0  0  0
 60134  1  0  0  0
 60135  1  0  0  0
 60136  1  0  0  0
 61137  1  0  0  0
 61138  1  0  0  0
 61139  1  0  0  0
 62140  1  0  0  0
 62141  1  0  0  0
 62142  1  0  0  0
 63 65  1  0  0  0
 63143  1  0  0  0
 63144  1  0  0  0
 63145  1  0  0  0
 64146  1  0  0  0
 65147  1  0  0  0
 68 83  1  0  0  0
 71 73  1  0  0  0
 71 74  2  0  0  0
 71148  1  0  0  0
 72 73  2  0  0  0
 72 87  1  0  0  0
 72149  1  0  0  0
 73 86  1  0  0  0
 74 80  1  0  0  0
 74 87  1  0  0  0
 75150  1  0  0  0
 75151  1  0  0  0
 75152  1  0  0  0
 75 84  1  0  0  0
 76 84  1  0  0  0
 76153  1  0  0  0
 76154  1  0  0  0
 76155  1  0  0  0
 77156  1  0  0  0
 77157  1  0  0  0
 77158  1  0  0  0
 77 85  1  0  0  0
 78159  1  0  0  0
 78160  1  0  0  0
 78161  1  0  0  0
 78 86  1  0  0  0
 79 86  1  0  0  0
 79162  1  0  0  0
 79163  1  0  0  0
 79164  1  0  0  0
 80 82  1  0  0  0
 80165  1  0  0  0
 80166  1  0  0  0
 81 84  1  0  0  0
 81 85  1  0  0  0
 81167  1  0  0  0
 81168  1  0  0  0
 82 88  1  0  0  0
 82169  1  0  0  0
 82170  1  0  0  0
 83 86  1  0  0  0
 83171  1  0  0  0
 83172  1  0  0  0
 84173  1  0  0  0
 85 87  1  0  0  0
 85174  1  0  0  0
 88175  1  0  0  0
M  ISO  4   1 100  68 101  83 101  88 100
M  END
> <chiral flag>
0

> <version>
0

> <s_m_source_file>
/data/baiqing/PycharmProjects/Reinvent-master-3.2/result/LINK_invent/BTK/process_docking_weight1_custom_sum_contain_oxygen_bond_distance_aromatic_linkinvent_7_9_3/rearranged_h_0081.sdf

> <i_m_source_file_index>
73

> <r_mmod_Potential_Energy-OPLS-2005>
118.555465698242

> <r_mmod_Stretch_Energy-OPLS-2005>
116.173706054688

> <r_mmod_Bend_Energy-OPLS-2005>
164.666046142578

> <r_mmod_Torsional_Energy-OPLS-2005>
242.878860473633

> <r_mmod_Improper_Torsional_Energy-OPLS-2005>
6.35183429718018

> <r_mmod_Van_der_Waal_Energy-OPLS-2005>
111.357925415039

> <r_mmod_Electrostatic_Energy-OPLS-2005>
-399.486328125

> <r_mmod_Solvation_Energy-OPLS-2005>
-198.147598266602

> <b_mmod_Minimization_Converged-OPLS-2005>
0

> <r_mmod_RMS_Derivative-OPLS-2005>
3.05504179000854

$$$$
73
                    3D
 Structure written by MMmdl.
152160  0  0  1  0            999 V2000
  -30.7144  -14.5474   20.5091 C   0  0  0  0  0  0
  -30.4044  -12.3402   19.4503 C   0  0  0  0  0  0
  -29.4933  -12.4887   18.2161 C   0  0  0  0  0  0
  -28.0171  -12.3423   18.6280 C   0  0  0  0  0  0
  -27.6473  -13.2215   19.8547 C   0  0  2  0  0  0
  -28.6892  -13.1017   20.9892 C   0  0  0  0  0  0
  -25.2532  -13.8184   20.5676 C   0  0  0  0  0  0
  -24.1808  -13.0447   20.9182 C   0  0  0  0  0  0
  -24.6376  -11.6915   20.8735 C   0  0  0  0  0  0
  -23.9054  -10.4292   21.0392 C   0  0  0  0  0  0
  -24.3616   -9.4206   21.9168 C   0  0  0  0  0  0
  -23.6290   -8.2245   22.0759 C   0  0  0  0  0  0
  -22.4273   -8.0272   21.3550 C   0  0  0  0  0  0
  -21.9900   -9.0241   20.4652 C   0  0  0  0  0  0
  -22.7224  -10.2120   20.3044 C   0  0  0  0  0  0
  -21.6854   -6.0720   22.5273 C   0  0  0  0  0  0
  -21.4016   -6.5636   23.8202 C   0  0  0  0  0  0
  -21.3664   -5.6792   24.9168 C   0  0  0  0  0  0
  -21.6052   -4.3054   24.7223 C   0  0  0  0  0  0
  -21.8820   -3.8135   23.4346 C   0  0  0  0  0  0
  -21.9195   -4.6949   22.3398 C   0  0  0  0  0  0
  -22.7835  -13.5237   21.1850 C   0  0  0  0  0  0
  -22.1661   -4.2130   21.0977 F   0  0  0  0  0  0
  -21.5629   -3.4545   25.7740 F   0  0  0  0  0  0
  -30.0091  -13.3838   20.4132 N   0  0  0  0  0  0
  -26.2959  -12.9381   20.3290 N   0  0  0  0  0  0
  -25.9308  -11.6529   20.5763 N   0  0  0  0  0  0
  -22.0489  -12.8228   22.0407 N   0  0  0  0  0  0
  -25.4225  -15.1910   20.4104 N   0  0  0  0  0  0
  -31.8871  -14.6157   20.1372 O   0  0  0  0  0  0
  -21.6649   -6.8862   21.4234 O   0  0  0  0  0  0
  -22.3524  -14.5547   20.6695 O   0  0  0  0  0  0
  -24.6178  -31.8655   23.2061 C   0  0  0  0  0  0
  -25.9055  -32.4814   23.8375 C   0  0  1  0  0  0
  -27.2278  -27.3920   20.1168 C   0  0  0  0  0  0
  -25.5883  -33.8611   24.2312 N   0  0  0  0  0  0
  -23.4083  -30.4885   21.5470 C   0  0  2  0  0  0
  -24.8552  -28.9465   20.1144 C   0  0  0  0  0  0
  -22.7421  -29.4670   22.4975 C   0  0  0  0  0  0
  -18.0271  -28.1386   22.8476 C   0  0  0  0  0  0
  -24.1481  -36.7318   23.2641 C   0  0  0  0  0  0
  -25.9393  -30.8221   21.3602 C   0  0  0  0  0  0
  -26.0185  -29.4524   20.7087 C   0  0  0  0  0  0
  -27.2113  -28.6867   20.6965 C   0  0  0  0  0  0
  -26.0487  -26.9124   19.5082 C   0  0  0  0  0  0
  -24.8678  -27.6798   19.5060 C   0  0  0  0  0  0
  -23.6194  -29.8179   20.1630 C   0  0  0  0  0  0
  -25.4100  -36.3114   24.0344 C   0  0  1  0  0  0
  -20.5860  -28.3697   23.1309 C   0  0  2  0  0  0
  -20.6766  -26.9430   22.5423 C   0  0  0  0  0  0
  -19.5760  -26.6407   21.5204 C   0  0  0  0  0  0
  -18.1929  -26.7938   22.1599 C   0  0  0  0  0  0
  -19.1513  -28.8853   23.2888 C   0  0  0  0  0  0
  -18.9435  -30.1455   23.8900 C   0  0  0  0  0  0
  -17.6435  -30.6591   24.0551 C   0  0  0  0  0  0
  -25.9028  -34.9475   23.5132 C   0  0  0  0  0  0
  -16.5331  -29.9087   23.6314 C   0  0  0  0  0  0
  -16.7254  -28.6506   23.0330 C   0  0  0  0  0  0
  -26.4468  -31.6597   25.0713 C   0  0  0  0  0  0
  -25.3725  -31.3707   26.1458 C   0  0  0  0  0  0
  -27.0290  -30.3037   24.6089 C   0  0  0  0  0  0
  -27.6048  -32.4302   25.7475 C   0  0  0  0  0  0
  -27.5580  -37.1813   24.8469 C   0  0  0  0  0  0
  -21.4141  -29.3076   22.3723 N   0  0  0  0  0  0
  -26.4291  -37.3796   23.9414 N   0  0  0  0  0  0
  -24.6743  -31.0730   22.0968 N   0  0  0  0  0  0
  -23.4173  -28.8220   23.3039 O   0  0  0  0  0  0
  -28.3697  -26.6077   20.1433 O   0  0  0  0  0  0
  -26.5606  -34.8930   22.4704 O   0  0  0  0  0  0
  -23.5364  -32.1409   23.7443 O   0  0  0  0  0  0
  -30.4481  -19.5785   20.7110 C   0  0  0  0  0  0
  -29.9419  -18.3078   20.8346 C   0  0  0  0  0  0
  -30.7416  -17.0047   20.8623 C   0  0  0  0  0  0
  -28.3409  -22.6452   19.8986 C   0  0  0  0  0  0
  -28.6072  -24.1583   19.5594 C   0  0  0  0  0  0
  -29.3656  -21.9211   20.8277 C   0  0  0  0  0  0
  -28.2142  -25.2378   20.6116 C   0  0  0  0  0  0
  -28.5581  -18.4345   20.9830 N   0  0  0  0  0  0
  -28.2274  -19.7045   20.9691 N   0  0  0  0  0  0
  -29.3611  -20.4368   20.7920 N   0  0  0  0  0  0
  -30.0550  -15.6852   20.8468 N   0  0  0  0  0  0
  -31.4528  -12.4109   19.1563 H   0  0  0  0  0  0
  -30.2878  -11.3522   19.8985 H   0  0  0  0  0  0
  -29.7460  -11.7382   17.4665 H   0  0  0  0  0  0
  -29.6547  -13.4589   17.7434 H   0  0  0  0  0  0
  -27.8482  -11.2904   18.8625 H   0  0  0  0  0  0
  -27.3636  -12.5731   17.7851 H   0  0  0  0  0  0
  -27.6635  -14.2540   19.5047 H   0  0  0  0  0  0
  -28.6737  -12.1036   21.4305 H   0  0  0  0  0  0
  -28.4530  -13.7947   21.7981 H   0  0  0  0  0  0
  -25.2756   -9.5696   22.4741 H   0  0  0  0  0  0
  -23.9992   -7.4654   22.7501 H   0  0  0  0  0  0
  -21.0818   -8.8757   19.8975 H   0  0  0  0  0  0
  -22.3666  -10.9657   19.6156 H   0  0  0  0  0  0
  -21.2010   -7.6143   23.9694 H   0  0  0  0  0  0
  -21.1489   -6.0530   25.9070 H   0  0  0  0  0  0
  -22.0593   -2.7597   23.2857 H   0  0  0  0  0  0
  -22.4119  -11.9893   22.4789 H   0  0  0  0  0  0
  -21.1107  -13.1248   22.2620 H   0  0  0  0  0  0
  -24.6596  -15.8463   20.5394 H   0  0  0  0  0  0
  -26.2790  -15.6390   20.1101 H   0  0  0  0  0  0
  -26.7128  -32.5516   23.1141 H   0  0  0  0  0  0
  -24.9994  -33.9766   25.0430 H   0  0  0  0  0  0
  -22.6994  -31.3066   21.4045 H   0  0  0  0  0  0
  -23.3739  -35.9657   23.3311 H   0  0  0  0  0  0
  -24.3582  -36.8921   22.2057 H   0  0  0  0  0  0
  -23.7235  -37.6526   23.6643 H   0  0  0  0  0  0
  -26.0476  -31.5840   20.5873 H   0  0  0  0  0  0
  -26.8283  -30.8824   21.9760 H   0  0  0  0  0  0
  -28.1106  -29.0737   21.1548 H   0  0  0  0  0  0
  -26.0375  -25.9378   19.0404 H   0  0  0  0  0  0
  -23.9741  -27.2866   19.0418 H   0  0  0  0  0  0
  -23.7341  -30.5902   19.4022 H   0  0  0  0  0  0
  -22.7411  -29.2430   19.8638 H   0  0  0  0  0  0
  -25.1278  -36.1984   25.0839 H   0  0  0  0  0  0
  -20.9939  -28.3272   24.1436 H   0  0  0  0  0  0
  -20.5669  -26.2305   23.3614 H   0  0  0  0  0  0
  -21.6642  -26.7482   22.1228 H   0  0  0  0  0  0
  -19.6937  -25.6328   21.1215 H   0  0  0  0  0  0
  -19.6701  -27.3231   20.6748 H   0  0  0  0  0  0
  -17.4215  -26.6686   21.3982 H   0  0  0  0  0  0
  -18.0319  -26.0071   22.8981 H   0  0  0  0  0  0
  -19.7909  -30.7273   24.2268 H   0  0  0  0  0  0
  -17.4986  -31.6277   24.5140 H   0  0  0  0  0  0
  -15.5327  -30.2993   23.7624 H   0  0  0  0  0  0
  -15.8652  -28.0836   22.7025 H   0  0  0  0  0  0
  -24.5913  -30.7034   25.7799 H   0  0  0  0  0  0
  -24.8892  -32.2856   26.4892 H   0  0  0  0  0  0
  -25.8078  -30.8895   27.0223 H   0  0  0  0  0  0
  -26.2835  -29.6817   24.1115 H   0  0  0  0  0  0
  -27.4027  -29.7262   25.4555 H   0  0  0  0  0  0
  -27.8687  -30.4361   23.9261 H   0  0  0  0  0  0
  -27.2686  -33.3600   26.2073 H   0  0  0  0  0  0
  -28.3847  -32.6853   25.0288 H   0  0  0  0  0  0
  -28.0715  -31.8395   26.5367 H   0  0  0  0  0  0
  -28.2611  -38.0096   24.7505 H   0  0  0  0  0  0
  -28.1059  -36.2629   24.6300 H   0  0  0  0  0  0
  -27.2304  -37.1478   25.8874 H   0  0  0  0  0  0
  -20.9304  -29.8808   21.6952 H   0  0  0  0  0  0
  -26.0186  -38.2882   24.1390 H   0  0  0  0  0  0
  -31.4659  -19.9345   20.6032 H   0  0  0  0  0  0
  -31.4284  -17.0455   20.0148 H   0  0  0  0  0  0
  -31.3857  -17.0140   21.7423 H   0  0  0  0  0  0
  -28.3422  -22.1056   18.9501 H   0  0  0  0  0  0
  -27.3320  -22.5265   20.2956 H   0  0  0  0  0  0
  -29.6557  -24.2857   19.2897 H   0  0  0  0  0  0
  -28.0481  -24.3896   18.6519 H   0  0  0  0  0  0
  -29.2149  -22.2364   21.8610 H   0  0  0  0  0  0
  -30.3725  -22.2456   20.5618 H   0  0  0  0  0  0
  -28.8593  -25.1193   21.4823 H   0  0  0  0  0  0
  -27.2040  -25.0514   20.9808 H   0  0  0  0  0  0
  -29.0729  -15.6544   21.0734 H   0  0  0  0  0  0
  1 25  1  0  0  0
  1 30  2  0  0  0
  1 81  1  0  0  0
  2  3  1  0  0  0
  2 25  1  0  0  0
  2 82  1  0  0  0
  2 83  1  0  0  0
  3  4  1  0  0  0
  3 84  1  0  0  0
  3 85  1  0  0  0
  4  5  1  0  0  0
  4 86  1  0  0  0
  4 87  1  0  0  0
  5  6  1  0  0  0
  5 26  1  0  0  0
  5 88  1  0  0  0
  6 25  1  0  0  0
  6 89  1  0  0  0
  6 90  1  0  0  0
  7  8  2  0  0  0
  7 26  1  0  0  0
  7 29  1  0  0  0
  8  9  1  0  0  0
  8 22  1  0  0  0
  9 10  1  0  0  0
  9 27  2  0  0  0
 10 11  2  0  0  0
 10 15  1  0  0  0
 11 12  1  0  0  0
 11 91  1  0  0  0
 12 13  2  0  0  0
 12 92  1  0  0  0
 13 14  1  0  0  0
 13 31  1  0  0  0
 14 15  2  0  0  0
 14 93  1  0  0  0
 15 94  1  0  0  0
 16 17  2  0  0  0
 16 21  1  0  0  0
 16 31  1  0  0  0
 17 18  1  0  0  0
 17 95  1  0  0  0
 18 19  2  0  0  0
 18 96  1  0  0  0
 19 20  1  0  0  0
 19 24  1  0  0  0
 20 21  2  0  0  0
 20 97  1  0  0  0
 21 23  1  0  0  0
 22 28  1  0  0  0
 22 32  2  0  0  0
 26 27  1  0  0  0
 28 98  1  0  0  0
 28 99  1  0  0  0
 29100  1  0  0  0
 29101  1  0  0  0
 33 34  1  0  0  0
 33 66  1  0  0  0
 33 70  2  0  0  0
 34 36  1  0  0  0
 34 59  1  0  0  0
 34102  1  0  0  0
 35 44  2  0  0  0
 35 45  1  0  0  0
 35 68  1  0  0  0
 36 56  1  0  0  0
 36103  1  0  0  0
 37 39  1  0  0  0
 37 47  1  0  0  0
 37 66  1  0  0  0
 37104  1  0  0  0
 38 43  2  0  0  0
 38 46  1  0  0  0
 38 47  1  0  0  0
 39 64  1  0  0  0
 39 67  2  0  0  0
 40 52  1  0  0  0
 40 53  2  0  0  0
 40 58  1  0  0  0
 41105  1  0  0  0
 41106  1  0  0  0
 41107  1  0  0  0
 41 48  1  0  0  0
 42 43  1  0  0  0
 42 66  1  0  0  0
 42108  1  0  0  0
 42109  1  0  0  0
 43 44  1  0  0  0
 44110  1  0  0  0
 45 46  2  0  0  0
 45111  1  0  0  0
 46112  1  0  0  0
 47113  1  0  0  0
 47114  1  0  0  0
 48 56  1  0  0  0
 48 65  1  0  0  0
 48115  1  0  0  0
 49 50  1  0  0  0
 49 53  1  0  0  0
 49 64  1  0  0  0
 49116  1  0  0  0
 50 51  1  0  0  0
 50117  1  0  0  0
 50118  1  0  0  0
 51 52  1  0  0  0
 51119  1  0  0  0
 51120  1  0  0  0
 52121  1  0  0  0
 52122  1  0  0  0
 53 54  1  0  0  0
 54 55  2  0  0  0
 54123  1  0  0  0
 55 57  1  0  0  0
 55124  1  0  0  0
 56 69  2  0  0  0
 57 58  2  0  0  0
 57125  1  0  0  0
 58126  1  0  0  0
 59 60  1  0  0  0
 59 61  1  0  0  0
 59 62  1  0  0  0
 60127  1  0  0  0
 60128  1  0  0  0
 60129  1  0  0  0
 61130  1  0  0  0
 61131  1  0  0  0
 61132  1  0  0  0
 62133  1  0  0  0
 62134  1  0  0  0
 62135  1  0  0  0
 63 65  1  0  0  0
 63136  1  0  0  0
 63137  1  0  0  0
 63138  1  0  0  0
 64139  1  0  0  0
 65140  1  0  0  0
 68 77  1  0  0  0
 71 72  2  0  0  0
 71 80  1  0  0  0
 71141  1  0  0  0
 72 73  1  0  0  0
 72 78  1  0  0  0
 73 81  1  0  0  0
 73142  1  0  0  0
 73143  1  0  0  0
 74 75  1  0  0  0
 74 76  1  0  0  0
 74144  1  0  0  0
 74145  1  0  0  0
 75 77  1  0  0  0
 75146  1  0  0  0
 75147  1  0  0  0
 76 80  1  0  0  0
 76148  1  0  0  0
 76149  1  0  0  0
 77150  1  0  0  0
 77151  1  0  0  0
 78 79  2  0  0  0
 79 80  1  0  0  0
 81152  1  0  0  0
M  ISO  4   1 100  68 101  77 101  81 100
M  END
> <chiral flag>
0

> <version>
0

> <s_m_source_file>
/data/baiqing/PycharmProjects/Reinvent-master-3.2/result/LINK_invent/BTK/process_docking_weight1_custom_sum_contain_oxygen_bond_distance_aromatic_linkinvent_7_9_3/rearranged_h_0081.sdf

> <i_m_source_file_index>
74

> <r_mmod_Potential_Energy-OPLS-2005>
-141.358261108398

> <r_mmod_Stretch_Energy-OPLS-2005>
46.505443572998

> <r_mmod_Bend_Energy-OPLS-2005>
116.943572998047

> <r_mmod_Torsional_Energy-OPLS-2005>
224.917083740234

> <r_mmod_Improper_Torsional_Energy-OPLS-2005>
4.05688333511353

> <r_mmod_Van_der_Waal_Energy-OPLS-2005>
124.516975402832

> <r_mmod_Electrostatic_Energy-OPLS-2005>
-470.176544189453

> <r_mmod_Solvation_Energy-OPLS-2005>
-216.419952392578

> <b_mmod_Minimization_Converged-OPLS-2005>
0

> <r_mmod_RMS_Derivative-OPLS-2005>
1.67415070533752

$$$$
74
                    3D
 Structure written by MMmdl.
176185  0  0  1  0            999 V2000
  -30.7685  -14.4021   20.6191 C   0  0  0  0  0  0
  -30.4042  -12.2812   19.4286 C   0  0  0  0  0  0
  -29.4897  -12.5127   18.2112 C   0  0  0  0  0  0
  -28.0119  -12.3809   18.6204 C   0  0  0  0  0  0
  -27.6636  -13.2149   19.8826 C   0  0  2  0  0  0
  -28.7007  -12.9977   21.0088 C   0  0  0  0  0  0
  -25.2573  -13.8174   20.5660 C   0  0  0  0  0  0
  -24.1830  -13.0456   20.9188 C   0  0  0  0  0  0
  -24.6393  -11.6925   20.8749 C   0  0  0  0  0  0
  -23.9054  -10.4303   21.0409 C   0  0  0  0  0  0
  -24.3613   -9.4211   21.9183 C   0  0  0  0  0  0
  -23.6295   -8.2242   22.0747 C   0  0  0  0  0  0
  -22.4276   -8.0282   21.3539 C   0  0  0  0  0  0
  -21.9906   -9.0252   20.4643 C   0  0  0  0  0  0
  -22.7227  -10.2135   20.3052 C   0  0  0  0  0  0
  -21.6854   -6.0735   22.5272 C   0  0  0  0  0  0
  -21.4024   -6.5638   23.8208 C   0  0  0  0  0  0
  -21.3657   -5.6789   24.9166 C   0  0  0  0  0  0
  -21.6036   -4.3052   24.7218 C   0  0  0  0  0  0
  -21.8824   -3.8146   23.4339 C   0  0  0  0  0  0
  -21.9196   -4.6964   22.3397 C   0  0  0  0  0  0
  -22.7855  -13.5251   21.1857 C   0  0  0  0  0  0
  -22.1668   -4.2152   21.0977 F   0  0  0  0  0  0
  -21.5614   -3.4535   25.7730 F   0  0  0  0  0  0
  -30.0422  -13.2641   20.4637 N   0  0  0  0  0  0
  -26.3033  -12.9366   20.3406 N   0  0  0  0  0  0
  -25.9328  -11.6514   20.5789 N   0  0  0  0  0  0
  -22.0496  -12.8242   22.0417 N   0  0  0  0  0  0
  -25.4281  -15.1866   20.3948 N   0  0  0  0  0  0
  -31.8314  -14.5962   20.0244 O   0  0  0  0  0  0
  -21.6640   -6.8881   21.4238 O   0  0  0  0  0  0
  -22.3535  -14.5552   20.6703 O   0  0  0  0  0  0
  -24.6122  -31.8696   23.2105 C   0  0  0  0  0  0
  -25.9025  -32.4830   23.8394 C   0  0  1  0  0  0
  -27.2346  -27.4566   20.1042 C   0  0  0  0  0  0
  -25.5887  -33.8627   24.2329 N   0  0  0  0  0  0
  -23.3992  -30.4919   21.5506 C   0  0  2  0  0  0
  -24.8472  -28.9580   20.1154 C   0  0  0  0  0  0
  -22.7397  -29.4665   22.5000 C   0  0  0  0  0  0
  -18.0272  -28.1376   22.8496 C   0  0  0  0  0  0
  -24.1483  -36.7316   23.2635 C   0  0  0  0  0  0
  -25.9241  -30.8439   21.3573 C   0  0  0  0  0  0
  -26.0043  -29.4784   20.7091 C   0  0  0  0  0  0
  -27.2042  -28.7354   20.6989 C   0  0  0  0  0  0
  -26.0672  -26.9420   19.5055 C   0  0  0  0  0  0
  -24.8725  -27.6884   19.5085 C   0  0  0  0  0  0
  -23.6067  -29.8211   20.1654 C   0  0  0  0  0  0
  -25.4099  -36.3115   24.0342 C   0  0  1  0  0  0
  -20.5860  -28.3656   23.1325 C   0  0  2  0  0  0
  -20.6759  -26.9395   22.5421 C   0  0  0  0  0  0
  -19.5737  -26.6388   21.5212 C   0  0  0  0  0  0
  -18.1917  -26.7923   22.1626 C   0  0  0  0  0  0
  -19.1521  -28.8833   23.2910 C   0  0  0  0  0  0
  -18.9452  -30.1443   23.8918 C   0  0  0  0  0  0
  -17.6453  -30.6583   24.0568 C   0  0  0  0  0  0
  -25.9029  -34.9482   23.5132 C   0  0  0  0  0  0
  -16.5342  -29.9088   23.6325 C   0  0  0  0  0  0
  -16.7259  -28.6503   23.0346 C   0  0  0  0  0  0
  -26.4463  -31.6599   25.0712 C   0  0  0  0  0  0
  -25.3747  -31.3701   26.1475 C   0  0  0  0  0  0
  -27.0276  -30.3046   24.6052 C   0  0  0  0  0  0
  -27.6045  -32.4313   25.7471 C   0  0  0  0  0  0
  -27.5585  -37.1797   24.8457 C   0  0  0  0  0  0
  -21.4128  -29.3028   22.3736 N   0  0  0  0  0  0
  -26.4283  -37.3803   23.9423 N   0  0  0  0  0  0
  -24.6634  -31.0823   22.0985 N   0  0  0  0  0  0
  -23.4180  -28.8215   23.3040 O   0  0  0  0  0  0
  -28.3934  -26.7211   20.1024 O   0  0  0  0  0  0
  -26.5595  -34.8932   22.4696 O   0  0  0  0  0  0
  -23.5322  -32.1432   23.7518 O   0  0  0  0  0  0
  -29.5123  -19.7108   21.7593 C   0  0  0  0  0  0
  -28.3793  -20.5196   21.5874 C   0  0  0  0  0  0
  -29.3552  -18.5342   22.5096 C   0  0  0  0  0  0
  -27.1570  -19.0687   22.8722 C   0  0  0  0  0  0
  -24.1068  -17.1164   25.3774 C   0  0  0  0  0  0
  -24.7182  -18.4371   25.8722 C   0  0  0  0  0  0
  -23.8878  -17.1382   23.8552 C   0  0  0  0  0  0
  -26.0357  -18.7461   25.1385 C   0  0  0  0  0  0
  -25.1959  -17.4490   23.1046 C   0  0  0  0  0  0
  -25.8540  -18.7512   23.6047 C   0  0  0  0  0  0
  -30.4162  -16.7506   24.0347 C   0  0  0  0  0  0
  -28.3913  -21.7410   20.6741 C   0  0  0  0  0  0
  -28.4368  -23.1017   21.3990 C   0  0  0  0  0  0
  -28.3615  -24.2880   20.4090 C   0  0  0  0  0  0
  -30.8709  -16.6967   21.4928 C   0  0  0  0  0  0
  -28.4269  -25.6735   21.0772 C   0  0  0  0  0  0
  -30.5168  -17.5603   22.7275 C   0  0  1  0  0  0
  -27.2094  -20.2004   22.1726 N   0  0  0  0  0  0
  -28.1577  -18.2072   23.0268 N   0  0  0  0  0  0
  -30.2546  -15.3600   21.4069 N   0  0  0  0  0  0
  -31.4528  -12.3446   19.1329 H   0  0  0  0  0  0
  -30.2734  -11.2706   19.8179 H   0  0  0  0  0  0
  -29.7250  -11.7970   17.4220 H   0  0  0  0  0  0
  -29.6717  -13.5045   17.7932 H   0  0  0  0  0  0
  -27.8145  -11.3245   18.8084 H   0  0  0  0  0  0
  -27.3639  -12.6691   17.7920 H   0  0  0  0  0  0
  -27.7101  -14.2647   19.5916 H   0  0  0  0  0  0
  -28.6559  -11.9701   21.3715 H   0  0  0  0  0  0
  -28.4622  -13.6212   21.8717 H   0  0  0  0  0  0
  -25.2758   -9.5681   22.4754 H   0  0  0  0  0  0
  -24.0008   -7.4629   22.7456 H   0  0  0  0  0  0
  -21.0836   -8.8758   19.8953 H   0  0  0  0  0  0
  -22.3681  -10.9669   19.6155 H   0  0  0  0  0  0
  -21.2033   -7.6151   23.9710 H   0  0  0  0  0  0
  -21.1467   -6.0521   25.9067 H   0  0  0  0  0  0
  -22.0609   -2.7612   23.2830 H   0  0  0  0  0  0
  -22.4112  -11.9910   22.4816 H   0  0  0  0  0  0
  -21.1104  -13.1243   22.2609 H   0  0  0  0  0  0
  -24.6590  -15.8412   20.4779 H   0  0  0  0  0  0
  -26.2862  -15.6159   20.0726 H   0  0  0  0  0  0
  -26.7101  -32.5556   23.1167 H   0  0  0  0  0  0
  -25.0042  -33.9787   25.0477 H   0  0  0  0  0  0
  -22.6866  -31.3080   21.4114 H   0  0  0  0  0  0
  -23.3745  -35.9647   23.3291 H   0  0  0  0  0  0
  -24.3586  -36.8936   22.2052 H   0  0  0  0  0  0
  -23.7230  -37.6520   23.6648 H   0  0  0  0  0  0
  -26.0284  -31.6079   20.5857 H   0  0  0  0  0  0
  -26.8152  -30.9035   21.9699 H   0  0  0  0  0  0
  -28.1006  -29.1342   21.1527 H   0  0  0  0  0  0
  -26.0819  -25.9680   19.0382 H   0  0  0  0  0  0
  -23.9834  -27.2824   19.0462 H   0  0  0  0  0  0
  -23.7089  -30.5937   19.4028 H   0  0  0  0  0  0
  -22.7318  -29.2370   19.8742 H   0  0  0  0  0  0
  -25.1267  -36.1978   25.0832 H   0  0  0  0  0  0
  -20.9957  -28.3222   24.1444 H   0  0  0  0  0  0
  -20.5660  -26.2262   23.3604 H   0  0  0  0  0  0
  -21.6632  -26.7443   22.1214 H   0  0  0  0  0  0
  -19.6897  -25.6303   21.1229 H   0  0  0  0  0  0
  -19.6675  -27.3208   20.6750 H   0  0  0  0  0  0
  -17.4188  -26.6677   21.4031 H   0  0  0  0  0  0
  -18.0319  -26.0062   22.9021 H   0  0  0  0  0  0
  -19.7928  -30.7253   24.2294 H   0  0  0  0  0  0
  -17.5009  -31.6265   24.5170 H   0  0  0  0  0  0
  -15.5344  -30.2997   23.7635 H   0  0  0  0  0  0
  -15.8661  -28.0828   22.7048 H   0  0  0  0  0  0
  -24.5899  -30.7067   25.7821 H   0  0  0  0  0  0
  -24.8965  -32.2859   26.4959 H   0  0  0  0  0  0
  -25.8120  -30.8846   27.0209 H   0  0  0  0  0  0
  -26.2795  -29.6825   24.1122 H   0  0  0  0  0  0
  -27.4074  -29.7260   25.4482 H   0  0  0  0  0  0
  -27.8618  -30.4367   23.9159 H   0  0  0  0  0  0
  -27.2659  -33.3595   26.2084 H   0  0  0  0  0  0
  -28.3833  -32.6904   25.0289 H   0  0  0  0  0  0
  -28.0732  -31.8418   26.5359 H   0  0  0  0  0  0
  -28.2576  -38.0122   24.7557 H   0  0  0  0  0  0
  -28.1107  -36.2659   24.6206 H   0  0  0  0  0  0
  -27.2320  -37.1369   25.8862 H   0  0  0  0  0  0
  -20.9282  -29.8742   21.6955 H   0  0  0  0  0  0
  -26.0171  -38.2875   24.1457 H   0  0  0  0  0  0
  -30.4597  -19.9628   21.2997 H   0  0  0  0  0  0
  -23.1607  -16.9299   25.8880 H   0  0  0  0  0  0
  -24.7646  -16.2875   25.6413 H   0  0  0  0  0  0
  -24.8966  -18.3849   26.9475 H   0  0  0  0  0  0
  -24.0094  -19.2527   25.7187 H   0  0  0  0  0  0
  -23.1341  -17.8856   23.6037 H   0  0  0  0  0  0
  -23.4903  -16.1779   23.5221 H   0  0  0  0  0  0
  -26.7815  -17.9987   25.4119 H   0  0  0  0  0  0
  -26.4310  -19.7079   25.4667 H   0  0  0  0  0  0
  -24.9996  -17.5303   22.0355 H   0  0  0  0  0  0
  -25.8918  -16.6177   23.2254 H   0  0  0  0  0  0
  -25.1589  -19.5613   23.3759 H   0  0  0  0  0  0
  -30.3092  -17.4123   24.8939 H   0  0  0  0  0  0
  -31.3090  -16.1444   24.1885 H   0  0  0  0  0  0
  -29.5569  -16.0806   24.0252 H   0  0  0  0  0  0
  -27.5030  -21.6976   20.0438 H   0  0  0  0  0  0
  -29.2397  -21.6637   19.9934 H   0  0  0  0  0  0
  -29.3506  -23.1646   21.9908 H   0  0  0  0  0  0
  -27.6064  -23.1613   22.1044 H   0  0  0  0  0  0
  -27.4380  -24.2112   19.8345 H   0  0  0  0  0  0
  -29.1764  -24.2084   19.6883 H   0  0  0  0  0  0
  -31.9527  -16.5586   21.5355 H   0  0  0  0  0  0
  -30.6897  -17.2515   20.5710 H   0  0  0  0  0  0
  -29.3631  -25.7658   21.6296 H   0  0  0  0  0  0
  -27.6278  -25.7765   21.8145 H   0  0  0  0  0  0
  -31.3730  -18.2217   22.8690 H   0  0  0  0  0  0
  -29.3760  -15.1931   21.8744 H   0  0  0  0  0  0
  1 25  1  0  0  0
  1 30  2  0  0  0
  1 90  1  0  0  0
  2  3  1  0  0  0
  2 25  1  0  0  0
  2 91  1  0  0  0
  2 92  1  0  0  0
  3  4  1  0  0  0
  3 93  1  0  0  0
  3 94  1  0  0  0
  4  5  1  0  0  0
  4 95  1  0  0  0
  4 96  1  0  0  0
  5  6  1  0  0  0
  5 26  1  0  0  0
  5 97  1  0  0  0
  6 25  1  0  0  0
  6 98  1  0  0  0
  6 99  1  0  0  0
  7  8  2  0  0  0
  7 26  1  0  0  0
  7 29  1  0  0  0
  8  9  1  0  0  0
  8 22  1  0  0  0
  9 10  1  0  0  0
  9 27  2  0  0  0
 10 11  2  0  0  0
 10 15  1  0  0  0
 11 12  1  0  0  0
 11100  1  0  0  0
 12 13  2  0  0  0
 12101  1  0  0  0
 13 14  1  0  0  0
 13 31  1  0  0  0
 14 15  2  0  0  0
 14102  1  0  0  0
 15103  1  0  0  0
 16 17  2  0  0  0
 16 21  1  0  0  0
 16 31  1  0  0  0
 17 18  1  0  0  0
 17104  1  0  0  0
 18 19  2  0  0  0
 18105  1  0  0  0
 19 20  1  0  0  0
 19 24  1  0  0  0
 20 21  2  0  0  0
 20106  1  0  0  0
 21 23  1  0  0  0
 22 28  1  0  0  0
 22 32  2  0  0  0
 26 27  1  0  0  0
 28107  1  0  0  0
 28108  1  0  0  0
 29109  1  0  0  0
 29110  1  0  0  0
 33 34  1  0  0  0
 33 66  1  0  0  0
 33 70  2  0  0  0
 34 36  1  0  0  0
 34 59  1  0  0  0
 34111  1  0  0  0
 35 44  2  0  0  0
 35 45  1  0  0  0
 35 68  1  0  0  0
 36 56  1  0  0  0
 36112  1  0  0  0
 37 39  1  0  0  0
 37 47  1  0  0  0
 37 66  1  0  0  0
 37113  1  0  0  0
 38 43  2  0  0  0
 38 46  1  0  0  0
 38 47  1  0  0  0
 39 64  1  0  0  0
 39 67  2  0  0  0
 40 52  1  0  0  0
 40 53  2  0  0  0
 40 58  1  0  0  0
 41114  1  0  0  0
 41115  1  0  0  0
 41116  1  0  0  0
 41 48  1  0  0  0
 42 43  1  0  0  0
 42 66  1  0  0  0
 42117  1  0  0  0
 42118  1  0  0  0
 43 44  1  0  0  0
 44119  1  0  0  0
 45 46  2  0  0  0
 45120  1  0  0  0
 46121  1  0  0  0
 47122  1  0  0  0
 47123  1  0  0  0
 48 56  1  0  0  0
 48 65  1  0  0  0
 48124  1  0  0  0
 49 50  1  0  0  0
 49 53  1  0  0  0
 49 64  1  0  0  0
 49125  1  0  0  0
 50 51  1  0  0  0
 50126  1  0  0  0
 50127  1  0  0  0
 51 52  1  0  0  0
 51128  1  0  0  0
 51129  1  0  0  0
 52130  1  0  0  0
 52131  1  0  0  0
 53 54  1  0  0  0
 54 55  2  0  0  0
 54132  1  0  0  0
 55 57  1  0  0  0
 55133  1  0  0  0
 56 69  2  0  0  0
 57 58  2  0  0  0
 57134  1  0  0  0
 58135  1  0  0  0
 59 60  1  0  0  0
 59 61  1  0  0  0
 59 62  1  0  0  0
 60136  1  0  0  0
 60137  1  0  0  0
 60138  1  0  0  0
 61139  1  0  0  0
 61140  1  0  0  0
 61141  1  0  0  0
 62142  1  0  0  0
 62143  1  0  0  0
 62144  1  0  0  0
 63 65  1  0  0  0
 63145  1  0  0  0
 63146  1  0  0  0
 63147  1  0  0  0
 64148  1  0  0  0
 65149  1  0  0  0
 68 86  1  0  0  0
 71 72  2  0  0  0
 71 73  1  0  0  0
 71150  1  0  0  0
 72 82  1  0  0  0
 72 88  1  0  0  0
 73 87  1  0  0  0
 73 89  2  0  0  0
 74 88  2  0  0  0
 74 89  1  0  0  0
 74 80  1  0  0  0
 75 76  1  0  0  0
 75 77  1  0  0  0
 75151  1  0  0  0
 75152  1  0  0  0
 76 78  1  0  0  0
 76153  1  0  0  0
 76154  1  0  0  0
 77 79  1  0  0  0
 77155  1  0  0  0
 77156  1  0  0  0
 78 80  1  0  0  0
 78157  1  0  0  0
 78158  1  0  0  0
 79 80  1  0  0  0
 79159  1  0  0  0
 79160  1  0  0  0
 80161  1  0  0  0
 81162  1  0  0  0
 81163  1  0  0  0
 81164  1  0  0  0
 81 87  1  0  0  0
 82 83  1  0  0  0
 82165  1  0  0  0
 82166  1  0  0  0
 83 84  1  0  0  0
 83167  1  0  0  0
 83168  1  0  0  0
 84 86  1  0  0  0
 84169  1  0  0  0
 84170  1  0  0  0
 85 87  1  0  0  0
 85 90  1  0  0  0
 85171  1  0  0  0
 85172  1  0  0  0
 86173  1  0  0  0
 86174  1  0  0  0
 87175  1  0  0  0
 90176  1  0  0  0
M  ISO  4   1 100  68 101  86 101  90 100
M  END
> <chiral flag>
0

> <version>
0

> <s_m_source_file>
/data/baiqing/PycharmProjects/Reinvent-master-3.2/result/LINK_invent/BTK/process_docking_weight1_custom_sum_contain_oxygen_bond_distance_aromatic_linkinvent_7_9_3/rearranged_h_0081.sdf

> <i_m_source_file_index>
75

> <r_mmod_Potential_Energy-OPLS-2005>
-438.966705322266

> <r_mmod_Stretch_Energy-OPLS-2005>
34.2300300598145

> <r_mmod_Bend_Energy-OPLS-2005>
103.373764038086

> <r_mmod_Torsional_Energy-OPLS-2005>
231.867828369141

> <r_mmod_Improper_Torsional_Energy-OPLS-2005>
2.42777013778687

> <r_mmod_Van_der_Waal_Energy-OPLS-2005>
153.376052856445

> <r_mmod_Electrostatic_Energy-OPLS-2005>
-764.416198730469

> <r_mmod_Solvation_Energy-OPLS-2005>
-208.922790527344

> <b_mmod_Minimization_Converged-OPLS-2005>
0

> <r_mmod_RMS_Derivative-OPLS-2005>
1.27154970169067

$$$$
75
                    3D
 Structure written by MMmdl.
166174  0  0  1  0            999 V2000
  -30.7577  -14.3790   20.7059 C   0  0  0  0  0  0
  -30.4146  -12.3056   19.3949 C   0  0  0  0  0  0
  -29.4801  -12.5310   18.1925 C   0  0  0  0  0  0
  -28.0078  -12.3730   18.6110 C   0  0  0  0  0  0
  -27.6628  -13.1994   19.8761 C   0  0  2  0  0  0
  -28.6997  -12.9520   20.9923 C   0  0  0  0  0  0
  -25.2607  -13.8145   20.5693 C   0  0  0  0  0  0
  -24.1858  -13.0439   20.9199 C   0  0  0  0  0  0
  -24.6390  -11.6899   20.8730 C   0  0  0  0  0  0
  -23.9041  -10.4292   21.0393 C   0  0  0  0  0  0
  -24.3600   -9.4216   21.9168 C   0  0  0  0  0  0
  -23.6286   -8.2251   22.0748 C   0  0  0  0  0  0
  -22.4269   -8.0279   21.3542 C   0  0  0  0  0  0
  -21.9895   -9.0247   20.4641 C   0  0  0  0  0  0
  -22.7215  -10.2129   20.3048 C   0  0  0  0  0  0
  -21.6866   -6.0720   22.5262 C   0  0  0  0  0  0
  -21.4019   -6.5631   23.8190 C   0  0  0  0  0  0
  -21.3662   -5.6792   24.9154 C   0  0  0  0  0  0
  -21.6045   -4.3058   24.7216 C   0  0  0  0  0  0
  -21.8828   -3.8137   23.4346 C   0  0  0  0  0  0
  -21.9211   -4.6946   22.3397 C   0  0  0  0  0  0
  -22.7874  -13.5237   21.1850 C   0  0  0  0  0  0
  -22.1685   -4.2122   21.0985 F   0  0  0  0  0  0
  -21.5627   -3.4558   25.7748 F   0  0  0  0  0  0
  -30.0397  -13.2505   20.4591 N   0  0  0  0  0  0
  -26.3022  -12.9305   20.3347 N   0  0  0  0  0  0
  -25.9307  -11.6468   20.5725 N   0  0  0  0  0  0
  -22.0518  -12.8201   22.0385 N   0  0  0  0  0  0
  -25.4368  -15.1865   20.4092 N   0  0  0  0  0  0
  -31.7705  -14.6650   20.0596 O   0  0  0  0  0  0
  -21.6656   -6.8865   21.4229 O   0  0  0  0  0  0
  -22.3569  -14.5546   20.6696 O   0  0  0  0  0  0
  -24.6124  -31.8682   23.2102 C   0  0  0  0  0  0
  -25.9026  -32.4819   23.8403 C   0  0  1  0  0  0
  -27.2424  -27.4542   20.1059 C   0  0  0  0  0  0
  -25.5892  -33.8620   24.2335 N   0  0  0  0  0  0
  -23.4001  -30.4891   21.5500 C   0  0  2  0  0  0
  -24.8481  -28.9498   20.1220 C   0  0  0  0  0  0
  -22.7397  -29.4654   22.5010 C   0  0  0  0  0  0
  -18.0267  -28.1373   22.8495 C   0  0  0  0  0  0
  -24.1484  -36.7324   23.2636 C   0  0  0  0  0  0
  -25.9245  -30.8413   21.3573 C   0  0  0  0  0  0
  -26.0048  -29.4742   20.7120 C   0  0  0  0  0  0
  -27.2069  -28.7350   20.6957 C   0  0  0  0  0  0
  -26.0709  -26.9308   19.5193 C   0  0  0  0  0  0
  -24.8744  -27.6760   19.5242 C   0  0  0  0  0  0
  -23.6081  -29.8140   20.1668 C   0  0  0  0  0  0
  -25.4099  -36.3116   24.0339 C   0  0  1  0  0  0
  -20.5855  -28.3651   23.1329 C   0  0  2  0  0  0
  -20.6758  -26.9391   22.5418 C   0  0  0  0  0  0
  -19.5737  -26.6385   21.5209 C   0  0  0  0  0  0
  -18.1916  -26.7921   22.1622 C   0  0  0  0  0  0
  -19.1515  -28.8829   23.2913 C   0  0  0  0  0  0
  -18.9445  -30.1437   23.8918 C   0  0  0  0  0  0
  -17.6450  -30.6582   24.0566 C   0  0  0  0  0  0
  -25.9025  -34.9474   23.5131 C   0  0  0  0  0  0
  -16.5343  -29.9085   23.6327 C   0  0  0  0  0  0
  -16.7257  -28.6502   23.0346 C   0  0  0  0  0  0
  -26.4468  -31.6592   25.0721 C   0  0  0  0  0  0
  -25.3745  -31.3689   26.1481 C   0  0  0  0  0  0
  -27.0293  -30.3037   24.6070 C   0  0  0  0  0  0
  -27.6059  -32.4302   25.7471 C   0  0  0  0  0  0
  -27.5585  -37.1805   24.8459 C   0  0  0  0  0  0
  -21.4127  -29.3027   22.3745 N   0  0  0  0  0  0
  -26.4287  -37.3800   23.9415 N   0  0  0  0  0  0
  -24.6640  -31.0802   22.0989 N   0  0  0  0  0  0
  -23.4175  -28.8202   23.3052 O   0  0  0  0  0  0
  -28.4307  -26.7660   20.0605 O   0  0  0  0  0  0
  -26.5594  -34.8929   22.4698 O   0  0  0  0  0  0
  -23.5322  -32.1427   23.7511 O   0  0  0  0  0  0
  -28.9959  -21.9074   23.1809 C   0  0  0  0  0  0
  -28.3968  -23.1223   22.9757 C   0  0  0  0  0  0
  -27.0135  -22.7870   22.8332 C   0  0  0  0  0  0
  -25.8248  -23.6888   22.6518 C   0  0  0  0  0  0
  -27.6640  -16.5346   23.0824 C   0  0  0  0  0  0
  -29.1034  -24.4646   23.0038 C   0  0  0  0  0  0
  -30.3605  -15.3291   21.8520 C   0  0  0  0  0  0
  -28.4664  -25.6296   22.2145 C   0  0  0  0  0  0
  -28.1413  -19.5144   23.4452 C   0  0  0  0  0  0
  -29.4631  -16.5062   21.3916 C   0  0  0  0  0  0
  -28.5617  -18.6798   22.2116 C   0  0  0  0  0  0
  -28.4662  -25.4779   20.6811 C   0  0  0  0  0  0
  -26.8050  -21.4791   22.9270 N   0  0  0  0  0  0
  -28.0178  -20.9378   23.1651 N   0  0  0  0  0  0
  -28.8463  -17.2475   22.5313 N   0  3  1  0  0  0
  -31.4564  -12.4083   19.0867 H   0  0  0  0  0  0
  -30.3195  -11.2828   19.7615 H   0  0  0  0  0  0
  -29.7167  -11.8303   17.3903 H   0  0  0  0  0  0
  -29.6378  -13.5313   17.7863 H   0  0  0  0  0  0
  -27.8259  -11.3140   18.7977 H   0  0  0  0  0  0
  -27.3510  -12.6552   17.7877 H   0  0  0  0  0  0
  -27.7183  -14.2506   19.5965 H   0  0  0  0  0  0
  -28.6675  -11.9104   21.3148 H   0  0  0  0  0  0
  -28.4290  -13.5333   21.8692 H   0  0  0  0  0  0
  -25.2759   -9.5699   22.4715 H   0  0  0  0  0  0
  -24.0014   -7.4639   22.7460 H   0  0  0  0  0  0
  -21.0834   -8.8751   19.8929 H   0  0  0  0  0  0
  -22.3679  -10.9654   19.6148 H   0  0  0  0  0  0
  -21.2011   -7.6136   23.9684 H   0  0  0  0  0  0
  -21.1473   -6.0524   25.9052 H   0  0  0  0  0  0
  -22.0607   -2.7595   23.2851 H   0  0  0  0  0  0
  -22.4191  -11.9871   22.4741 H   0  0  0  0  0  0
  -21.1110  -13.1163   22.2592 H   0  0  0  0  0  0
  -24.6521  -15.8243   20.4840 H   0  0  0  0  0  0
  -26.2335  -15.5961   19.9400 H   0  0  0  0  0  0
  -26.7105  -32.5546   23.1183 H   0  0  0  0  0  0
  -25.0043  -33.9780   25.0482 H   0  0  0  0  0  0
  -22.6880  -31.3049   21.4082 H   0  0  0  0  0  0
  -23.3738  -35.9666   23.3292 H   0  0  0  0  0  0
  -24.3583  -36.8945   22.2053 H   0  0  0  0  0  0
  -23.7241  -37.6530   23.6652 H   0  0  0  0  0  0
  -26.0262  -31.6040   20.5843 H   0  0  0  0  0  0
  -26.8161  -30.9036   21.9687 H   0  0  0  0  0  0
  -28.1066  -29.1404   21.1375 H   0  0  0  0  0  0
  -26.0876  -25.9606   19.0429 H   0  0  0  0  0  0
  -23.9853  -27.2646   19.0659 H   0  0  0  0  0  0
  -23.7145  -30.5852   19.4034 H   0  0  0  0  0  0
  -22.7338  -29.2301   19.8745 H   0  0  0  0  0  0
  -25.1268  -36.1984   25.0830 H   0  0  0  0  0  0
  -20.9947  -28.3213   24.1451 H   0  0  0  0  0  0
  -20.5651  -26.2257   23.3598 H   0  0  0  0  0  0
  -21.6629  -26.7434   22.1216 H   0  0  0  0  0  0
  -19.6896  -25.6301   21.1223 H   0  0  0  0  0  0
  -19.6682  -27.3206   20.6746 H   0  0  0  0  0  0
  -17.4187  -26.6675   21.4023 H   0  0  0  0  0  0
  -18.0319  -26.0056   22.9007 H   0  0  0  0  0  0
  -19.7919  -30.7244   24.2301 H   0  0  0  0  0  0
  -17.5003  -31.6260   24.5165 H   0  0  0  0  0  0
  -15.5341  -30.2992   23.7635 H   0  0  0  0  0  0
  -15.8657  -28.0825   22.7050 H   0  0  0  0  0  0
  -24.5908  -30.7046   25.7820 H   0  0  0  0  0  0
  -24.8945  -32.2838   26.4963 H   0  0  0  0  0  0
  -25.8110  -30.8835   27.0218 H   0  0  0  0  0  0
  -26.2822  -29.6792   24.1155 H   0  0  0  0  0  0
  -27.4112  -29.7280   25.4511 H   0  0  0  0  0  0
  -27.8636  -30.4367   23.9176 H   0  0  0  0  0  0
  -27.2698  -33.3593   26.2085 H   0  0  0  0  0  0
  -28.3847  -32.6869   25.0279 H   0  0  0  0  0  0
  -28.0751  -31.8399   26.5353 H   0  0  0  0  0  0
  -28.2587  -38.0121   24.7534 H   0  0  0  0  0  0
  -28.1100  -36.2653   24.6239 H   0  0  0  0  0  0
  -27.2313  -37.1400   25.8865 H   0  0  0  0  0  0
  -20.9284  -29.8758   21.6978 H   0  0  0  0  0  0
  -26.0178  -38.2877   24.1434 H   0  0  0  0  0  0
  -30.0304  -21.6590   23.3791 H   0  0  0  0  0  0
  -25.8289  -24.4930   23.3865 H   0  0  0  0  0  0
  -24.8866  -23.1496   22.7793 H   0  0  0  0  0  0
  -25.8114  -24.1401   21.6606 H   0  0  0  0  0  0
  -26.8153  -16.5976   22.4014 H   0  0  0  0  0  0
  -27.3550  -16.9475   24.0420 H   0  0  0  0  0  0
  -27.8647  -15.4783   23.2578 H   0  0  0  0  0  0
  -30.1313  -24.3482   22.6574 H   0  0  0  0  0  0
  -29.2039  -24.7902   24.0403 H   0  0  0  0  0  0
  -29.9314  -14.7629   22.6748 H   0  0  0  0  0  0
  -31.2791  -15.7434   22.2689 H   0  0  0  0  0  0
  -29.0572  -26.5149   22.4521 H   0  0  0  0  0  0
  -27.4651  -25.8586   22.5735 H   0  0  0  0  0  0
  -28.8728  -19.3989   24.2461 H   0  0  0  0  0  0
  -27.1874  -19.1682   23.8447 H   0  0  0  0  0  0
  -28.6777  -16.1631   20.7172 H   0  0  0  0  0  0
  -30.0818  -17.1822   20.7988 H   0  0  0  0  0  0
  -29.4603  -19.1315   21.7883 H   0  0  0  0  0  0
  -27.7914  -18.7412   21.4412 H   0  0  0  0  0  0
  -27.6636  -24.8244   20.3402 H   0  0  0  0  0  0
  -29.3971  -25.0040   20.3687 H   0  0  0  0  0  0
  -29.5449  -17.2677   23.2602 H   0  0  0  0  0  0
  1 25  1  0  0  0
  1 30  2  0  0  0
  1 77  1  0  0  0
  2  3  1  0  0  0
  2 25  1  0  0  0
  2 86  1  0  0  0
  2 87  1  0  0  0
  3  4  1  0  0  0
  3 88  1  0  0  0
  3 89  1  0  0  0
  4  5  1  0  0  0
  4 90  1  0  0  0
  4 91  1  0  0  0
  5  6  1  0  0  0
  5 26  1  0  0  0
  5 92  1  0  0  0
  6 25  1  0  0  0
  6 93  1  0  0  0
  6 94  1  0  0  0
  7  8  2  0  0  0
  7 26  1  0  0  0
  7 29  1  0  0  0
  8  9  1  0  0  0
  8 22  1  0  0  0
  9 10  1  0  0  0
  9 27  2  0  0  0
 10 11  2  0  0  0
 10 15  1  0  0  0
 11 12  1  0  0  0
 11 95  1  0  0  0
 12 13  2  0  0  0
 12 96  1  0  0  0
 13 14  1  0  0  0
 13 31  1  0  0  0
 14 15  2  0  0  0
 14 97  1  0  0  0
 15 98  1  0  0  0
 16 17  2  0  0  0
 16 21  1  0  0  0
 16 31  1  0  0  0
 17 18  1  0  0  0
 17 99  1  0  0  0
 18 19  2  0  0  0
 18100  1  0  0  0
 19 20  1  0  0  0
 19 24  1  0  0  0
 20 21  2  0  0  0
 20101  1  0  0  0
 21 23  1  0  0  0
 22 28  1  0  0  0
 22 32  2  0  0  0
 26 27  1  0  0  0
 28102  1  0  0  0
 28103  1  0  0  0
 29104  1  0  0  0
 29105  1  0  0  0
 33 34  1  0  0  0
 33 66  1  0  0  0
 33 70  2  0  0  0
 34 36  1  0  0  0
 34 59  1  0  0  0
 34106  1  0  0  0
 35 44  2  0  0  0
 35 45  1  0  0  0
 35 68  1  0  0  0
 36 56  1  0  0  0
 36107  1  0  0  0
 37 39  1  0  0  0
 37 47  1  0  0  0
 37 66  1  0  0  0
 37108  1  0  0  0
 38 43  2  0  0  0
 38 46  1  0  0  0
 38 47  1  0  0  0
 39 64  1  0  0  0
 39 67  2  0  0  0
 40 52  1  0  0  0
 40 53  2  0  0  0
 40 58  1  0  0  0
 41109  1  0  0  0
 41110  1  0  0  0
 41111  1  0  0  0
 41 48  1  0  0  0
 42 43  1  0  0  0
 42 66  1  0  0  0
 42112  1  0  0  0
 42113  1  0  0  0
 43 44  1  0  0  0
 44114  1  0  0  0
 45 46  2  0  0  0
 45115  1  0  0  0
 46116  1  0  0  0
 47117  1  0  0  0
 47118  1  0  0  0
 48 56  1  0  0  0
 48 65  1  0  0  0
 48119  1  0  0  0
 49 50  1  0  0  0
 49 53  1  0  0  0
 49 64  1  0  0  0
 49120  1  0  0  0
 50 51  1  0  0  0
 50121  1  0  0  0
 50122  1  0  0  0
 51 52  1  0  0  0
 51123  1  0  0  0
 51124  1  0  0  0
 52125  1  0  0  0
 52126  1  0  0  0
 53 54  1  0  0  0
 54 55  2  0  0  0
 54127  1  0  0  0
 55 57  1  0  0  0
 55128  1  0  0  0
 56 69  2  0  0  0
 57 58  2  0  0  0
 57129  1  0  0  0
 58130  1  0  0  0
 59 60  1  0  0  0
 59 61  1  0  0  0
 59 62  1  0  0  0
 60131  1  0  0  0
 60132  1  0  0  0
 60133  1  0  0  0
 61134  1  0  0  0
 61135  1  0  0  0
 61136  1  0  0  0
 62137  1  0  0  0
 62138  1  0  0  0
 62139  1  0  0  0
 63 65  1  0  0  0
 63140  1  0  0  0
 63141  1  0  0  0
 63142  1  0  0  0
 64143  1  0  0  0
 65144  1  0  0  0
 68 82  1  0  0  0
 71 72  2  0  0  0
 71 84  1  0  0  0
 71145  1  0  0  0
 72 73  1  0  0  0
 72 76  1  0  0  0
 73 74  1  0  0  0
 73 83  2  0  0  0
 74146  1  0  0  0
 74147  1  0  0  0
 74148  1  0  0  0
 75149  1  0  0  0
 75150  1  0  0  0
 75151  1  0  0  0
 75 85  1  0  0  0
 76 78  1  0  0  0
 76152  1  0  0  0
 76153  1  0  0  0
 77 80  1  0  0  0
 77154  1  0  0  0
 77155  1  0  0  0
 78 82  1  0  0  0
 78156  1  0  0  0
 78157  1  0  0  0
 79 81  1  0  0  0
 79 84  1  0  0  0
 79158  1  0  0  0
 79159  1  0  0  0
 80 85  1  0  0  0
 80160  1  0  0  0
 80161  1  0  0  0
 81 85  1  0  0  0
 81162  1  0  0  0
 81163  1  0  0  0
 82164  1  0  0  0
 82165  1  0  0  0
 83 84  1  0  0  0
 85166  1  0  0  0
M  CHG  1  85   1
M  ISO  4   1 100  68 101  77 100  82 101
M  END
> <chiral flag>
0

> <version>
0

> <s_m_source_file>
/data/baiqing/PycharmProjects/Reinvent-master-3.2/result/LINK_invent/BTK/process_docking_weight1_custom_sum_contain_oxygen_bond_distance_aromatic_linkinvent_7_9_3/rearranged_h_0081.sdf

> <i_m_source_file_index>
76

> <r_mmod_Potential_Energy-OPLS-2005>
-248.94841003418

> <r_mmod_Stretch_Energy-OPLS-2005>
33.9571304321289

> <r_mmod_Bend_Energy-OPLS-2005>
97.9529037475586

> <r_mmod_Torsional_Energy-OPLS-2005>
212.890991210938

> <r_mmod_Improper_Torsional_Energy-OPLS-2005>
3.17994713783264

> <r_mmod_Van_der_Waal_Energy-OPLS-2005>
114.313858032227

> <r_mmod_Electrostatic_Energy-OPLS-2005>
-261.504547119141

> <r_mmod_Solvation_Energy-OPLS-2005>
-457.090057373047

> <b_mmod_Minimization_Converged-OPLS-2005>
0

> <r_mmod_RMS_Derivative-OPLS-2005>
1.5176408290863

$$$$
76
                    3D
 Structure written by MMmdl.
163171  0  0  1  0            999 V2000
  -30.6072  -14.7438   20.4597 C   0  0  0  0  0  0
  -30.4367  -12.4515   19.4831 C   0  0  0  0  0  0
  -29.5153  -12.5121   18.2436 C   0  0  0  0  0  0
  -28.0403  -12.3365   18.6532 C   0  0  0  0  0  0
  -27.6464  -13.2312   19.8584 C   0  0  2  0  0  0
  -28.6898  -13.1563   20.9967 C   0  0  0  0  0  0
  -25.2522  -13.8189   20.5689 C   0  0  0  0  0  0
  -24.1812  -13.0436   20.9195 C   0  0  0  0  0  0
  -24.6399  -11.6913   20.8742 C   0  0  0  0  0  0
  -23.9071  -10.4290   21.0404 C   0  0  0  0  0  0
  -24.3621   -9.4204   21.9180 C   0  0  0  0  0  0
  -23.6298   -8.2240   22.0751 C   0  0  0  0  0  0
  -22.4281   -8.0279   21.3539 C   0  0  0  0  0  0
  -21.9914   -9.0251   20.4640 C   0  0  0  0  0  0
  -22.7242  -10.2131   20.3053 C   0  0  0  0  0  0
  -21.6858   -6.0738   22.5279 C   0  0  0  0  0  0
  -21.4016   -6.5640   23.8212 C   0  0  0  0  0  0
  -21.3661   -5.6792   24.9174 C   0  0  0  0  0  0
  -21.6048   -4.3055   24.7225 C   0  0  0  0  0  0
  -21.8820   -3.8149   23.4344 C   0  0  0  0  0  0
  -21.9195   -4.6966   22.3402 C   0  0  0  0  0  0
  -22.7832  -13.5215   21.1864 C   0  0  0  0  0  0
  -22.1660   -4.2152   21.0980 F   0  0  0  0  0  0
  -21.5632   -3.4536   25.7736 F   0  0  0  0  0  0
  -29.9961  -13.5089   20.4240 N   0  0  0  0  0  0
  -26.2961  -12.9400   20.3312 N   0  0  0  0  0  0
  -25.9334  -11.6538   20.5758 N   0  0  0  0  0  0
  -22.0485  -12.8197   22.0416 N   0  0  0  0  0  0
  -25.4213  -15.1914   20.4101 N   0  0  0  0  0  0
  -31.7765  -14.8623   20.0844 O   0  0  0  0  0  0
  -21.6641   -6.8880   21.4241 O   0  0  0  0  0  0
  -22.3508  -14.5519   20.6713 O   0  0  0  0  0  0
  -24.6334  -31.8550   23.2001 C   0  0  0  0  0  0
  -25.9152  -32.4755   23.8345 C   0  0  1  0  0  0
  -27.2123  -27.2458   20.1252 C   0  0  0  0  0  0
  -25.5942  -33.8559   24.2264 N   0  0  0  0  0  0
  -23.4309  -30.4798   21.5439 C   0  0  2  0  0  0
  -24.8776  -28.9333   20.1062 C   0  0  0  0  0  0
  -22.7522  -29.4597   22.4905 C   0  0  0  0  0  0
  -18.0299  -28.1382   22.8480 C   0  0  0  0  0  0
  -24.1491  -36.7281   23.2639 C   0  0  0  0  0  0
  -25.9802  -30.7606   21.3871 C   0  0  0  0  0  0
  -26.0505  -29.3841   20.7253 C   0  0  0  0  0  0
  -27.2191  -28.5515   20.7295 C   0  0  0  0  0  0
  -26.0238  -26.8912   19.4423 C   0  0  0  0  0  0
  -24.8708  -27.6952   19.4525 C   0  0  0  0  0  0
  -23.6499  -29.8207   20.1580 C   0  0  0  0  0  0
  -25.4117  -36.3071   24.0327 C   0  0  1  0  0  0
  -20.5906  -28.3698   23.1260 C   0  0  2  0  0  0
  -20.6785  -26.9411   22.5405 C   0  0  0  0  0  0
  -19.5759  -26.6377   21.5209 C   0  0  0  0  0  0
  -18.1940  -26.7923   22.1624 C   0  0  0  0  0  0
  -19.1554  -28.8859   23.2860 C   0  0  0  0  0  0
  -18.9471  -30.1455   23.8881 C   0  0  0  0  0  0
  -17.6469  -30.6580   24.0561 C   0  0  0  0  0  0
  -25.9060  -34.9440   23.5099 C   0  0  0  0  0  0
  -16.5361  -29.9076   23.6332 C   0  0  0  0  0  0
  -16.7285  -28.6497   23.0350 C   0  0  0  0  0  0
  -26.4511  -31.6582   25.0741 C   0  0  0  0  0  0
  -25.3720  -31.3737   26.1453 C   0  0  0  0  0  0
  -27.0372  -30.2995   24.6250 C   0  0  0  0  0  0
  -27.6063  -32.4324   25.7513 C   0  0  0  0  0  0
  -27.5580  -37.1800   24.8466 C   0  0  0  0  0  0
  -21.4228  -29.3043   22.3648 N   0  0  0  0  0  0
  -26.4292  -37.3770   23.9406 N   0  0  0  0  0  0
  -24.7004  -31.0499   22.0991 N   0  0  0  0  0  0
  -23.4215  -28.8128   23.3001 O   0  0  0  0  0  0
  -28.2774  -26.3069   20.2183 O   0  0  0  0  0  0
  -26.5630  -34.8914   22.4667 O   0  0  0  0  0  0
  -23.5479  -32.1386   23.7277 O   0  0  0  0  0  0
  -30.6533  -23.3636   19.2243 C   0  0  0  0  0  0
  -29.6972  -22.6229   19.9526 C   0  0  0  0  0  0
  -31.6844  -22.6946   18.5387 C   0  0  0  0  0  0
  -29.8872  -21.1564   19.9389 C   0  0  0  0  0  0
  -33.1071  -24.8182   18.2849 C   0  0  0  0  0  0
  -32.3178  -23.5295   16.2404 C   0  0  0  0  0  0
  -28.6271  -23.5255   20.6823 C   0  0  0  0  0  0
  -28.9900  -19.9942   20.5146 C   0  0  0  0  0  0
  -29.6014  -18.5801   21.0733 C   0  0  0  0  0  0
  -29.9598  -17.2953   20.1516 C   0  0  0  0  0  0
  -27.9756  -24.8425   19.9715 C   0  0  0  0  0  0
  -32.7365  -23.4360   17.7156 C   0  0  0  0  0  0
  -31.7809  -21.3477   18.5426 N   0  0  0  0  0  0
  -30.8992  -20.6099   19.2172 N   0  0  0  0  0  0
  -29.8205  -15.8631   20.6924 N   0  0  0  0  0  0
  -31.4790  -12.5736   19.1825 H   0  0  0  0  0  0
  -30.3796  -11.4717   19.9595 H   0  0  0  0  0  0
  -29.7978  -11.7422   17.5242 H   0  0  0  0  0  0
  -29.6434  -13.4685   17.7342 H   0  0  0  0  0  0
  -27.8939  -11.2866   18.9091 H   0  0  0  0  0  0
  -27.3846  -12.5352   17.8049 H   0  0  0  0  0  0
  -27.6436  -14.2548   19.4829 H   0  0  0  0  0  0
  -28.7207  -12.1555   21.4296 H   0  0  0  0  0  0
  -28.4236  -13.8314   21.8117 H   0  0  0  0  0  0
  -25.2768   -9.5682   22.4749 H   0  0  0  0  0  0
  -24.0015   -7.4629   22.7461 H   0  0  0  0  0  0
  -21.0849   -8.8762   19.8940 H   0  0  0  0  0  0
  -22.3700  -10.9666   19.6158 H   0  0  0  0  0  0
  -21.2007   -7.6148   23.9715 H   0  0  0  0  0  0
  -21.1483   -6.0521   25.9076 H   0  0  0  0  0  0
  -22.0600   -2.7612   23.2840 H   0  0  0  0  0  0
  -22.4121  -11.9869   22.4808 H   0  0  0  0  0  0
  -21.1096  -13.1202   22.2623 H   0  0  0  0  0  0
  -24.6507  -15.8421   20.5175 H   0  0  0  0  0  0
  -26.2663  -15.6323   20.0703 H   0  0  0  0  0  0
  -26.7218  -32.5400   23.1084 H   0  0  0  0  0  0
  -25.0094  -33.9695   25.0414 H   0  0  0  0  0  0
  -22.7283  -31.3030   21.4003 H   0  0  0  0  0  0
  -23.3758  -35.9608   23.3299 H   0  0  0  0  0  0
  -24.3581  -36.8908   22.2054 H   0  0  0  0  0  0
  -23.7242  -37.6481   23.6664 H   0  0  0  0  0  0
  -26.1272  -31.5220   20.6198 H   0  0  0  0  0  0
  -26.8552  -30.8049   22.0241 H   0  0  0  0  0  0
  -28.1102  -28.8854   21.2426 H   0  0  0  0  0  0
  -25.9443  -25.9608   18.9015 H   0  0  0  0  0  0
  -23.9788  -27.3523   18.9458 H   0  0  0  0  0  0
  -23.7764  -30.6008   19.4067 H   0  0  0  0  0  0
  -22.7686  -29.2563   19.8486 H   0  0  0  0  0  0
  -25.1299  -36.1921   25.0820 H   0  0  0  0  0  0
  -20.9995  -28.3274   24.1384 H   0  0  0  0  0  0
  -20.5684  -26.2307   23.3613 H   0  0  0  0  0  0
  -21.6652  -26.7429   22.1201 H   0  0  0  0  0  0
  -19.6920  -25.6284   21.1247 H   0  0  0  0  0  0
  -19.6695  -27.3180   20.6733 H   0  0  0  0  0  0
  -17.4210  -26.6669   21.4025 H   0  0  0  0  0  0
  -18.0337  -26.0062   22.9019 H   0  0  0  0  0  0
  -19.7946  -30.7273   24.2245 H   0  0  0  0  0  0
  -17.5024  -31.6260   24.5162 H   0  0  0  0  0  0
  -15.5361  -30.2973   23.7659 H   0  0  0  0  0  0
  -15.8689  -28.0811   22.7071 H   0  0  0  0  0  0
  -24.5900  -30.7082   25.7778 H   0  0  0  0  0  0
  -24.8903  -32.2908   26.4857 H   0  0  0  0  0  0
  -25.8025  -30.8930   27.0247 H   0  0  0  0  0  0
  -26.2975  -29.6732   24.1252 H   0  0  0  0  0  0
  -27.4024  -29.7270   25.4788 H   0  0  0  0  0  0
  -27.8863  -30.4270   23.9532 H   0  0  0  0  0  0
  -27.2677  -33.3633   26.2073 H   0  0  0  0  0  0
  -28.3881  -32.6870   25.0342 H   0  0  0  0  0  0
  -28.0722  -31.8458   26.5444 H   0  0  0  0  0  0
  -28.2600  -38.0096   24.7511 H   0  0  0  0  0  0
  -28.1075  -36.2629   24.6294 H   0  0  0  0  0  0
  -27.2296  -37.1447   25.8869 H   0  0  0  0  0  0
  -20.9414  -29.8783   21.6869 H   0  0  0  0  0  0
  -26.0175  -38.2846   24.1400 H   0  0  0  0  0  0
  -30.5910  -24.4408   19.1923 H   0  0  0  0  0  0
  -33.4123  -24.7435   19.3292 H   0  0  0  0  0  0
  -32.2790  -25.5244   18.2241 H   0  0  0  0  0  0
  -33.9396  -25.2541   17.7326 H   0  0  0  0  0  0
  -32.1447  -22.5380   15.8208 H   0  0  0  0  0  0
  -33.0896  -24.0095   15.6383 H   0  0  0  0  0  0
  -31.3970  -24.1019   16.1254 H   0  0  0  0  0  0
  -29.0320  -23.8173   21.6513 H   0  0  0  0  0  0
  -27.8057  -22.8479   20.9192 H   0  0  0  0  0  0
  -28.2307  -19.7722   19.7649 H   0  0  0  0  0  0
  -28.4418  -20.4483   21.3400 H   0  0  0  0  0  0
  -28.8347  -18.2121   21.7561 H   0  0  0  0  0  0
  -30.4508  -18.8016   21.7204 H   0  0  0  0  0  0
  -30.9674  -17.4259   19.7539 H   0  0  0  0  0  0
  -29.3091  -17.3348   19.2772 H   0  0  0  0  0  0
  -26.9458  -24.7213   20.3059 H   0  0  0  0  0  0
  -27.9430  -24.6774   18.8939 H   0  0  0  0  0  0
  -33.6449  -22.8318   17.7564 H   0  0  0  0  0  0
  -28.9019  -15.6366   21.0447 H   0  0  0  0  0  0
  1 25  1  0  0  0
  1 30  2  0  0  0
  1 85  1  0  0  0
  2  3  1  0  0  0
  2 25  1  0  0  0
  2 86  1  0  0  0
  2 87  1  0  0  0
  3  4  1  0  0  0
  3 88  1  0  0  0
  3 89  1  0  0  0
  4  5  1  0  0  0
  4 90  1  0  0  0
  4 91  1  0  0  0
  5  6  1  0  0  0
  5 26  1  0  0  0
  5 92  1  0  0  0
  6 25  1  0  0  0
  6 93  1  0  0  0
  6 94  1  0  0  0
  7  8  2  0  0  0
  7 26  1  0  0  0
  7 29  1  0  0  0
  8  9  1  0  0  0
  8 22  1  0  0  0
  9 10  1  0  0  0
  9 27  2  0  0  0
 10 11  2  0  0  0
 10 15  1  0  0  0
 11 12  1  0  0  0
 11 95  1  0  0  0
 12 13  2  0  0  0
 12 96  1  0  0  0
 13 14  1  0  0  0
 13 31  1  0  0  0
 14 15  2  0  0  0
 14 97  1  0  0  0
 15 98  1  0  0  0
 16 17  2  0  0  0
 16 21  1  0  0  0
 16 31  1  0  0  0
 17 18  1  0  0  0
 17 99  1  0  0  0
 18 19  2  0  0  0
 18100  1  0  0  0
 19 20  1  0  0  0
 19 24  1  0  0  0
 20 21  2  0  0  0
 20101  1  0  0  0
 21 23  1  0  0  0
 22 28  1  0  0  0
 22 32  2  0  0  0
 26 27  1  0  0  0
 28102  1  0  0  0
 28103  1  0  0  0
 29104  1  0  0  0
 29105  1  0  0  0
 33 34  1  0  0  0
 33 66  1  0  0  0
 33 70  2  0  0  0
 34 36  1  0  0  0
 34 59  1  0  0  0
 34106  1  0  0  0
 35 44  2  0  0  0
 35 45  1  0  0  0
 35 68  1  0  0  0
 36 56  1  0  0  0
 36107  1  0  0  0
 37 39  1  0  0  0
 37 47  1  0  0  0
 37 66  1  0  0  0
 37108  1  0  0  0
 38 43  2  0  0  0
 38 46  1  0  0  0
 38 47  1  0  0  0
 39 64  1  0  0  0
 39 67  2  0  0  0
 40 52  1  0  0  0
 40 53  2  0  0  0
 40 58  1  0  0  0
 41109  1  0  0  0
 41110  1  0  0  0
 41111  1  0  0  0
 41 48  1  0  0  0
 42 43  1  0  0  0
 42 66  1  0  0  0
 42112  1  0  0  0
 42113  1  0  0  0
 43 44  1  0  0  0
 44114  1  0  0  0
 45 46  2  0  0  0
 45115  1  0  0  0
 46116  1  0  0  0
 47117  1  0  0  0
 47118  1  0  0  0
 48 56  1  0  0  0
 48 65  1  0  0  0
 48119  1  0  0  0
 49 50  1  0  0  0
 49 53  1  0  0  0
 49 64  1  0  0  0
 49120  1  0  0  0
 50 51  1  0  0  0
 50121  1  0  0  0
 50122  1  0  0  0
 51 52  1  0  0  0
 51123  1  0  0  0
 51124  1  0  0  0
 52125  1  0  0  0
 52126  1  0  0  0
 53 54  1  0  0  0
 54 55  2  0  0  0
 54127  1  0  0  0
 55 57  1  0  0  0
 55128  1  0  0  0
 56 69  2  0  0  0
 57 58  2  0  0  0
 57129  1  0  0  0
 58130  1  0  0  0
 59 60  1  0  0  0
 59 61  1  0  0  0
 59 62  1  0  0  0
 60131  1  0  0  0
 60132  1  0  0  0
 60133  1  0  0  0
 61134  1  0  0  0
 61135  1  0  0  0
 61136  1  0  0  0
 62137  1  0  0  0
 62138  1  0  0  0
 62139  1  0  0  0
 63 65  1  0  0  0
 63140  1  0  0  0
 63141  1  0  0  0
 63142  1  0  0  0
 64143  1  0  0  0
 65144  1  0  0  0
 68 81  1  0  0  0
 71 72  2  0  0  0
 71 73  1  0  0  0
 71145  1  0  0  0
 72 74  1  0  0  0
 72 77  1  0  0  0
 73 82  1  0  0  0
 73 83  2  0  0  0
 74 78  1  0  0  0
 74 84  2  0  0  0
 75146  1  0  0  0
 75147  1  0  0  0
 75148  1  0  0  0
 75 82  1  0  0  0
 76 82  1  0  0  0
 76149  1  0  0  0
 76150  1  0  0  0
 76151  1  0  0  0
 77 81  1  0  0  0
 77152  1  0  0  0
 77153  1  0  0  0
 78 79  1  0  0  0
 78154  1  0  0  0
 78155  1  0  0  0
 79 80  1  0  0  0
 79156  1  0  0  0
 79157  1  0  0  0
 80 85  1  0  0  0
 80158  1  0  0  0
 80159  1  0  0  0
 81160  1  0  0  0
 81161  1  0  0  0
 82162  1  0  0  0
 83 84  1  0  0  0
 85163  1  0  0  0
M  ISO  4   1 100  68 101  81 101  85 100
M  END
> <chiral flag>
0

> <version>
0

> <s_m_source_file>
/data/baiqing/PycharmProjects/Reinvent-master-3.2/result/LINK_invent/BTK/process_docking_weight1_custom_sum_contain_oxygen_bond_distance_aromatic_linkinvent_7_9_3/rearranged_h_0081.sdf

> <i_m_source_file_index>
77

> <r_mmod_Potential_Energy-OPLS-2005>
237.793273925781

> <r_mmod_Stretch_Energy-OPLS-2005>
138.900344848633

> <r_mmod_Bend_Energy-OPLS-2005>
225.965515136719

> <r_mmod_Torsional_Energy-OPLS-2005>
221.538803100586

> <r_mmod_Improper_Torsional_Energy-OPLS-2005>
6.80818748474121

> <r_mmod_Van_der_Waal_Energy-OPLS-2005>
145.940460205078

> <r_mmod_Electrostatic_Energy-OPLS-2005>
-356.383056640625

> <r_mmod_Solvation_Energy-OPLS-2005>
-238.646591186523

> <b_mmod_Minimization_Converged-OPLS-2005>
0

> <r_mmod_RMS_Derivative-OPLS-2005>
0.814547061920166

$$$$
77
                    3D
 Structure written by MMmdl.
163171  0  0  1  0            999 V2000
  -30.6155  -14.7161   20.4894 C   0  0  0  0  0  0
  -30.4366  -12.4449   19.4590 C   0  0  0  0  0  0
  -29.5096  -12.5049   18.2261 C   0  0  0  0  0  0
  -28.0349  -12.3306   18.6406 C   0  0  0  0  0  0
  -27.6428  -13.2265   19.8479 C   0  0  2  0  0  0
  -28.6878  -13.1411   20.9806 C   0  0  0  0  0  0
  -25.2508  -13.8183   20.5667 C   0  0  0  0  0  0
  -24.1805  -13.0435   20.9201 C   0  0  0  0  0  0
  -24.6389  -11.6912   20.8730 C   0  0  0  0  0  0
  -23.9075  -10.4291   21.0405 C   0  0  0  0  0  0
  -24.3618   -9.4211   21.9189 C   0  0  0  0  0  0
  -23.6285   -8.2248   22.0760 C   0  0  0  0  0  0
  -22.4263   -8.0289   21.3556 C   0  0  0  0  0  0
  -21.9909   -9.0265   20.4663 C   0  0  0  0  0  0
  -22.7241  -10.2137   20.3066 C   0  0  0  0  0  0
  -21.6851   -6.0738   22.5289 C   0  0  0  0  0  0
  -21.4017   -6.5639   23.8224 C   0  0  0  0  0  0
  -21.3659   -5.6790   24.9181 C   0  0  0  0  0  0
  -21.6046   -4.3056   24.7230 C   0  0  0  0  0  0
  -21.8818   -3.8145   23.4352 C   0  0  0  0  0  0
  -21.9180   -4.6964   22.3402 C   0  0  0  0  0  0
  -22.7821  -13.5228   21.1863 C   0  0  0  0  0  0
  -22.1649   -4.2147   21.0979 F   0  0  0  0  0  0
  -21.5628   -3.4537   25.7747 F   0  0  0  0  0  0
  -29.9880  -13.4959   20.3974 N   0  0  0  0  0  0
  -26.2936  -12.9381   20.3243 N   0  0  0  0  0  0
  -25.9319  -11.6532   20.5720 N   0  0  0  0  0  0
  -22.0443  -12.8233   22.0413 N   0  0  0  0  0  0
  -25.4179  -15.1912   20.4087 N   0  0  0  0  0  0
  -31.8078  -14.8269   20.1966 O   0  0  0  0  0  0
  -21.6630   -6.8881   21.4253 O   0  0  0  0  0  0
  -22.3512  -14.5523   20.6692 O   0  0  0  0  0  0
  -24.6304  -31.8550   23.1984 C   0  0  0  0  0  0
  -25.9133  -32.4755   23.8332 C   0  0  1  0  0  0
  -27.2162  -27.2644   20.1422 C   0  0  0  0  0  0
  -25.5924  -33.8555   24.2257 N   0  0  0  0  0  0
  -23.4277  -30.4775   21.5405 C   0  0  2  0  0  0
  -24.8761  -28.9224   20.1135 C   0  0  0  0  0  0
  -22.7501  -29.4600   22.4908 C   0  0  0  0  0  0
  -18.0284  -28.1397   22.8480 C   0  0  0  0  0  0
  -24.1487  -36.7289   23.2636 C   0  0  0  0  0  0
  -25.9728  -30.7693   21.3781 C   0  0  0  0  0  0
  -26.0462  -29.3908   20.7245 C   0  0  0  0  0  0
  -27.2215  -28.5742   20.7267 C   0  0  0  0  0  0
  -26.0292  -26.8672   19.4896 C   0  0  0  0  0  0
  -24.8713  -27.6689   19.4844 C   0  0  0  0  0  0
  -23.6474  -29.8092   20.1578 C   0  0  0  0  0  0
  -25.4113  -36.3068   24.0323 C   0  0  1  0  0  0
  -20.5892  -28.3701   23.1265 C   0  0  2  0  0  0
  -20.6775  -26.9419   22.5401 C   0  0  0  0  0  0
  -19.5750  -26.6387   21.5206 C   0  0  0  0  0  0
  -18.1933  -26.7938   22.1623 C   0  0  0  0  0  0
  -19.1543  -28.8865   23.2868 C   0  0  0  0  0  0
  -18.9466  -30.1461   23.8894 C   0  0  0  0  0  0
  -17.6467  -30.6595   24.0568 C   0  0  0  0  0  0
  -25.9055  -34.9440   23.5089 C   0  0  0  0  0  0
  -16.5355  -29.9097   23.6328 C   0  0  0  0  0  0
  -16.7273  -28.6513   23.0352 C   0  0  0  0  0  0
  -26.4501  -31.6582   25.0724 C   0  0  0  0  0  0
  -25.3713  -31.3753   26.1440 C   0  0  0  0  0  0
  -27.0347  -30.2992   24.6216 C   0  0  0  0  0  0
  -27.6052  -32.4327   25.7499 C   0  0  0  0  0  0
  -27.5577  -37.1799   24.8462 C   0  0  0  0  0  0
  -21.4207  -29.3051   22.3655 N   0  0  0  0  0  0
  -26.4289  -37.3768   23.9403 N   0  0  0  0  0  0
  -24.6959  -31.0525   22.0954 N   0  0  0  0  0  0
  -23.4202  -28.8129   23.2998 O   0  0  0  0  0  0
  -28.3092  -26.3727   20.1742 O   0  0  0  0  0  0
  -26.5633  -34.8913   22.4667 O   0  0  0  0  0  0
  -23.5455  -32.1367   23.7281 O   0  0  0  0  0  0
  -29.4847  -22.1066   22.6482 C   0  0  0  0  0  0
  -29.3546  -21.3377   21.4679 C   0  0  0  0  0  0
  -30.0645  -21.5548   23.7956 C   0  0  0  0  0  0
  -29.7703  -19.9178   21.5938 C   0  0  0  0  0  0
  -30.1810  -22.3543   25.0749 C   0  0  0  0  0  0
  -29.9323  -18.8542   19.2125 C   0  0  0  0  0  0
  -30.5197  -24.1067   20.3863 C   0  0  0  0  0  0
  -28.7063  -22.1708   20.2935 C   0  0  0  0  0  0
  -30.2650  -17.2287   21.1856 C   0  0  0  0  0  0
  -28.0686  -24.9382   20.5630 C   0  0  0  0  0  0
  -29.5447  -18.6168   20.6790 C   0  0  1  0  0  0
  -29.0553  -23.7599   20.0597 C   0  0  1  0  0  0
  -30.5248  -20.2941   23.8237 N   0  0  0  0  0  0
  -30.3648  -19.5192   22.7540 N   0  0  0  0  0  0
  -29.8385  -15.8318   20.7412 N   0  0  0  0  0  0
  -31.4763  -12.5789   19.1550 H   0  0  0  0  0  0
  -30.3894  -11.4636   19.9339 H   0  0  0  0  0  0
  -29.7894  -11.7355   17.5057 H   0  0  0  0  0  0
  -29.6394  -13.4631   17.7199 H   0  0  0  0  0  0
  -27.8884  -11.2813   18.9006 H   0  0  0  0  0  0
  -27.3769  -12.5237   17.7922 H   0  0  0  0  0  0
  -27.6431  -14.2516   19.4772 H   0  0  0  0  0  0
  -28.7186  -12.1369   21.4056 H   0  0  0  0  0  0
  -28.4246  -13.8099   21.8026 H   0  0  0  0  0  0
  -25.2761   -9.5671   22.4774 H   0  0  0  0  0  0
  -23.9993   -7.4626   22.7466 H   0  0  0  0  0  0
  -21.0850   -8.8811   19.8947 H   0  0  0  0  0  0
  -22.3729  -10.9692   19.6181 H   0  0  0  0  0  0
  -21.2030   -7.6153   23.9731 H   0  0  0  0  0  0
  -21.1474   -6.0518   25.9085 H   0  0  0  0  0  0
  -22.0587   -2.7609   23.2853 H   0  0  0  0  0  0
  -22.4028  -11.9933   22.4897 H   0  0  0  0  0  0
  -21.1059  -13.1294   22.2565 H   0  0  0  0  0  0
  -24.6449  -15.8381   20.5196 H   0  0  0  0  0  0
  -26.2556  -15.6352   20.0544 H   0  0  0  0  0  0
  -26.7198  -32.5415   23.1072 H   0  0  0  0  0  0
  -25.0057  -33.9697   25.0393 H   0  0  0  0  0  0
  -22.7226  -31.2984   21.3923 H   0  0  0  0  0  0
  -23.3742  -35.9629   23.3303 H   0  0  0  0  0  0
  -24.3571  -36.8916   22.2049 H   0  0  0  0  0  0
  -23.7251  -37.6494   23.6665 H   0  0  0  0  0  0
  -26.1084  -31.5251   20.6035 H   0  0  0  0  0  0
  -26.8524  -30.8232   22.0086 H   0  0  0  0  0  0
  -28.1187  -28.9251   21.2170 H   0  0  0  0  0  0
  -25.9792  -25.9164   18.9808 H   0  0  0  0  0  0
  -23.9784  -27.3095   18.9921 H   0  0  0  0  0  0
  -23.7751  -30.5830   19.4000 H   0  0  0  0  0  0
  -22.7673  -29.2414   19.8524 H   0  0  0  0  0  0
  -25.1293  -36.1914   25.0816 H   0  0  0  0  0  0
  -20.9979  -28.3286   24.1390 H   0  0  0  0  0  0
  -20.5669  -26.2317   23.3609 H   0  0  0  0  0  0
  -21.6647  -26.7444   22.1203 H   0  0  0  0  0  0
  -19.6919  -25.6293   21.1248 H   0  0  0  0  0  0
  -19.6694  -27.3188   20.6730 H   0  0  0  0  0  0
  -17.4198  -26.6665   21.4032 H   0  0  0  0  0  0
  -18.0348  -26.0087   22.9027 H   0  0  0  0  0  0
  -19.7939  -30.7275   24.2275 H   0  0  0  0  0  0
  -17.5021  -31.6275   24.5169 H   0  0  0  0  0  0
  -15.5359  -30.3006   23.7655 H   0  0  0  0  0  0
  -15.8666  -28.0834   22.7078 H   0  0  0  0  0  0
  -24.5878  -30.7114   25.7765 H   0  0  0  0  0  0
  -24.8919  -32.2939   26.4838 H   0  0  0  0  0  0
  -25.8012  -30.8938   27.0232 H   0  0  0  0  0  0
  -26.2938  -29.6741   24.1212 H   0  0  0  0  0  0
  -27.3991  -29.7252   25.4747 H   0  0  0  0  0  0
  -27.8834  -30.4257   23.9490 H   0  0  0  0  0  0
  -27.2652  -33.3621   26.2076 H   0  0  0  0  0  0
  -28.3865  -32.6894   25.0335 H   0  0  0  0  0  0
  -28.0717  -31.8457   26.5419 H   0  0  0  0  0  0
  -28.2593  -38.0096   24.7499 H   0  0  0  0  0  0
  -28.1074  -36.2626   24.6294 H   0  0  0  0  0  0
  -27.2294  -37.1460   25.8867 H   0  0  0  0  0  0
  -20.9392  -29.8781   21.6868 H   0  0  0  0  0  0
  -26.0165  -38.2841   24.1409 H   0  0  0  0  0  0
  -29.1248  -23.1230   22.6892 H   0  0  0  0  0  0
  -30.2442  -23.4217   24.8646 H   0  0  0  0  0  0
  -31.0676  -22.0679   25.6413 H   0  0  0  0  0  0
  -29.3037  -22.1823   25.6975 H   0  0  0  0  0  0
  -29.3157  -19.6201   18.7503 H   0  0  0  0  0  0
  -29.7926  -17.9447   18.6262 H   0  0  0  0  0  0
  -30.9785  -19.1494   19.1240 H   0  0  0  0  0  0
  -31.2023  -23.3660   19.9686 H   0  0  0  0  0  0
  -30.7088  -24.1711   21.4566 H   0  0  0  0  0  0
  -30.7885  -25.0747   19.9623 H   0  0  0  0  0  0
  -27.6241  -22.0503   20.3566 H   0  0  0  0  0  0
  -28.9905  -21.6592   19.3776 H   0  0  0  0  0  0
  -30.1087  -17.1439   22.2596 H   0  0  0  0  0  0
  -31.3448  -17.3328   21.0639 H   0  0  0  0  0  0
  -28.0620  -24.9263   21.6532 H   0  0  0  0  0  0
  -27.0621  -24.6271   20.2909 H   0  0  0  0  0  0
  -28.4699  -18.4411   20.7107 H   0  0  0  0  0  0
  -28.9814  -23.8582   18.9754 H   0  0  0  0  0  0
  -28.8546  -15.6363   20.8414 H   0  0  0  0  0  0
  1 25  1  0  0  0
  1 30  2  0  0  0
  1 85  1  0  0  0
  2  3  1  0  0  0
  2 25  1  0  0  0
  2 86  1  0  0  0
  2 87  1  0  0  0
  3  4  1  0  0  0
  3 88  1  0  0  0
  3 89  1  0  0  0
  4  5  1  0  0  0
  4 90  1  0  0  0
  4 91  1  0  0  0
  5  6  1  0  0  0
  5 26  1  0  0  0
  5 92  1  0  0  0
  6 25  1  0  0  0
  6 93  1  0  0  0
  6 94  1  0  0  0
  7  8  2  0  0  0
  7 26  1  0  0  0
  7 29  1  0  0  0
  8  9  1  0  0  0
  8 22  1  0  0  0
  9 10  1  0  0  0
  9 27  2  0  0  0
 10 11  2  0  0  0
 10 15  1  0  0  0
 11 12  1  0  0  0
 11 95  1  0  0  0
 12 13  2  0  0  0
 12 96  1  0  0  0
 13 14  1  0  0  0
 13 31  1  0  0  0
 14 15  2  0  0  0
 14 97  1  0  0  0
 15 98  1  0  0  0
 16 17  2  0  0  0
 16 21  1  0  0  0
 16 31  1  0  0  0
 17 18  1  0  0  0
 17 99  1  0  0  0
 18 19  2  0  0  0
 18100  1  0  0  0
 19 20  1  0  0  0
 19 24  1  0  0  0
 20 21  2  0  0  0
 20101  1  0  0  0
 21 23  1  0  0  0
 22 28  1  0  0  0
 22 32  2  0  0  0
 26 27  1  0  0  0
 28102  1  0  0  0
 28103  1  0  0  0
 29104  1  0  0  0
 29105  1  0  0  0
 33 34  1  0  0  0
 33 66  1  0  0  0
 33 70  2  0  0  0
 34 36  1  0  0  0
 34 59  1  0  0  0
 34106  1  0  0  0
 35 44  2  0  0  0
 35 45  1  0  0  0
 35 68  1  0  0  0
 36 56  1  0  0  0
 36107  1  0  0  0
 37 39  1  0  0  0
 37 47  1  0  0  0
 37 66  1  0  0  0
 37108  1  0  0  0
 38 43  2  0  0  0
 38 46  1  0  0  0
 38 47  1  0  0  0
 39 64  1  0  0  0
 39 67  2  0  0  0
 40 52  1  0  0  0
 40 53  2  0  0  0
 40 58  1  0  0  0
 41109  1  0  0  0
 41110  1  0  0  0
 41111  1  0  0  0
 41 48  1  0  0  0
 42 43  1  0  0  0
 42 66  1  0  0  0
 42112  1  0  0  0
 42113  1  0  0  0
 43 44  1  0  0  0
 44114  1  0  0  0
 45 46  2  0  0  0
 45115  1  0  0  0
 46116  1  0  0  0
 47117  1  0  0  0
 47118  1  0  0  0
 48 56  1  0  0  0
 48 65  1  0  0  0
 48119  1  0  0  0
 49 50  1  0  0  0
 49 53  1  0  0  0
 49 64  1  0  0  0
 49120  1  0  0  0
 50 51  1  0  0  0
 50121  1  0  0  0
 50122  1  0  0  0
 51 52  1  0  0  0
 51123  1  0  0  0
 51124  1  0  0  0
 52125  1  0  0  0
 52126  1  0  0  0
 53 54  1  0  0  0
 54 55  2  0  0  0
 54127  1  0  0  0
 55 57  1  0  0  0
 55128  1  0  0  0
 56 69  2  0  0  0
 57 58  2  0  0  0
 57129  1  0  0  0
 58130  1  0  0  0
 59 60  1  0  0  0
 59 61  1  0  0  0
 59 62  1  0  0  0
 60131  1  0  0  0
 60132  1  0  0  0
 60133  1  0  0  0
 61134  1  0  0  0
 61135  1  0  0  0
 61136  1  0  0  0
 62137  1  0  0  0
 62138  1  0  0  0
 62139  1  0  0  0
 63 65  1  0  0  0
 63140  1  0  0  0
 63141  1  0  0  0
 63142  1  0  0  0
 64143  1  0  0  0
 65144  1  0  0  0
 68 80  1  0  0  0
 71 72  2  0  0  0
 71 73  1  0  0  0
 71145  1  0  0  0
 72 74  1  0  0  0
 72 78  1  0  0  0
 73 75  1  0  0  0
 73 83  2  0  0  0
 74 81  1  0  0  0
 74 84  2  0  0  0
 75146  1  0  0  0
 75147  1  0  0  0
 75148  1  0  0  0
 76149  1  0  0  0
 76150  1  0  0  0
 76151  1  0  0  0
 76 81  1  0  0  0
 77152  1  0  0  0
 77153  1  0  0  0
 77154  1  0  0  0
 77 82  1  0  0  0
 78 82  1  0  0  0
 78155  1  0  0  0
 78156  1  0  0  0
 79 81  1  0  0  0
 79 85  1  0  0  0
 79157  1  0  0  0
 79158  1  0  0  0
 80 82  1  0  0  0
 80159  1  0  0  0
 80160  1  0  0  0
 81161  1  0  0  0
 82162  1  0  0  0
 83 84  1  0  0  0
 85163  1  0  0  0
M  ISO  4   1 100  68 101  80 101  85 100
M  END
> <chiral flag>
0

> <version>
0

> <s_m_source_file>
/data/baiqing/PycharmProjects/Reinvent-master-3.2/result/LINK_invent/BTK/process_docking_weight1_custom_sum_contain_oxygen_bond_distance_aromatic_linkinvent_7_9_3/rearranged_h_0081.sdf

> <i_m_source_file_index>
78

> <r_mmod_Potential_Energy-OPLS-2005>
224.241165161133

> <r_mmod_Stretch_Energy-OPLS-2005>
139.500747680664

> <r_mmod_Bend_Energy-OPLS-2005>
215.150024414062

> <r_mmod_Torsional_Energy-OPLS-2005>
244.635314941406

> <r_mmod_Improper_Torsional_Energy-OPLS-2005>
4.7122688293457

> <r_mmod_Van_der_Waal_Energy-OPLS-2005>
147.603729248047

> <r_mmod_Electrostatic_Energy-OPLS-2005>
-375.130340576172

> <r_mmod_Solvation_Energy-OPLS-2005>
-231.019836425781

> <b_mmod_Minimization_Converged-OPLS-2005>
0

> <r_mmod_RMS_Derivative-OPLS-2005>
2.07332634925842

$$$$
78
                    3D
 Structure written by MMmdl.
181189  0  0  1  0            999 V2000
  -30.7236  -14.4526   20.6087 C   0  0  0  0  0  0
  -30.4195  -12.3110   19.4165 C   0  0  0  0  0  0
  -29.4913  -12.5129   18.2028 C   0  0  0  0  0  0
  -28.0140  -12.3725   18.6167 C   0  0  0  0  0  0
  -27.6611  -13.2105   19.8740 C   0  0  2  0  0  0
  -28.7013  -12.9897   20.9939 C   0  0  0  0  0  0
  -25.2588  -13.8162   20.5689 C   0  0  0  0  0  0
  -24.1837  -13.0434   20.9159 C   0  0  0  0  0  0
  -24.6393  -11.6904   20.8720 C   0  0  0  0  0  0
  -23.9058  -10.4295   21.0394 C   0  0  0  0  0  0
  -24.3613   -9.4213   21.9176 C   0  0  0  0  0  0
  -23.6290   -8.2246   22.0750 C   0  0  0  0  0  0
  -22.4277   -8.0279   21.3536 C   0  0  0  0  0  0
  -21.9907   -9.0246   20.4638 C   0  0  0  0  0  0
  -22.7232  -10.2131   20.3042 C   0  0  0  0  0  0
  -21.6853   -6.0734   22.5280 C   0  0  0  0  0  0
  -21.4016   -6.5640   23.8214 C   0  0  0  0  0  0
  -21.3655   -5.6792   24.9175 C   0  0  0  0  0  0
  -21.6045   -4.3053   24.7226 C   0  0  0  0  0  0
  -21.8817   -3.8146   23.4347 C   0  0  0  0  0  0
  -21.9199   -4.6962   22.3407 C   0  0  0  0  0  0
  -22.7867  -13.5230   21.1836 C   0  0  0  0  0  0
  -22.1669   -4.2149   21.0980 F   0  0  0  0  0  0
  -21.5626   -3.4535   25.7738 F   0  0  0  0  0  0
  -30.0334  -13.2918   20.4435 N   0  0  0  0  0  0
  -26.3025  -12.9338   20.3356 N   0  0  0  0  0  0
  -25.9319  -11.6494   20.5740 N   0  0  0  0  0  0
  -22.0506  -12.8214   22.0383 N   0  0  0  0  0  0
  -25.4302  -15.1877   20.4158 N   0  0  0  0  0  0
  -31.8259  -14.6531   20.0930 O   0  0  0  0  0  0
  -21.6637   -6.8877   21.4245 O   0  0  0  0  0  0
  -22.3557  -14.5542   20.6699 O   0  0  0  0  0  0
  -24.6130  -31.8694   23.2107 C   0  0  0  0  0  0
  -25.9033  -32.4831   23.8391 C   0  0  1  0  0  0
  -27.2306  -27.4242   20.1097 C   0  0  0  0  0  0
  -25.5903  -33.8620   24.2335 N   0  0  0  0  0  0
  -23.4005  -30.4916   21.5518 C   0  0  2  0  0  0
  -24.8475  -28.9487   20.1260 C   0  0  0  0  0  0
  -22.7409  -29.4675   22.5030 C   0  0  0  0  0  0
  -18.0270  -28.1371   22.8473 C   0  0  0  0  0  0
  -24.1495  -36.7310   23.2644 C   0  0  0  0  0  0
  -25.9314  -30.8291   21.3675 C   0  0  0  0  0  0
  -26.0091  -29.4603   20.7214 C   0  0  0  0  0  0
  -27.2061  -28.7050   20.7092 C   0  0  0  0  0  0
  -26.0542  -26.9260   19.5114 C   0  0  0  0  0  0
  -24.8649  -27.6794   19.5216 C   0  0  0  0  0  0
  -23.6106  -29.8189   20.1701 C   0  0  0  0  0  0
  -25.4114  -36.3105   24.0346 C   0  0  1  0  0  0
  -20.5859  -28.3667   23.1324 C   0  0  2  0  0  0
  -20.6767  -26.9408   22.5416 C   0  0  0  0  0  0
  -19.5747  -26.6393   21.5204 C   0  0  0  0  0  0
  -18.1915  -26.7917   22.1611 C   0  0  0  0  0  0
  -19.1515  -28.8829   23.2882 C   0  0  0  0  0  0
  -18.9448  -30.1419   23.8908 C   0  0  0  0  0  0
  -17.6457  -30.6586   24.0549 C   0  0  0  0  0  0
  -25.9039  -34.9469   23.5132 C   0  0  0  0  0  0
  -16.5347  -29.9089   23.6326 C   0  0  0  0  0  0
  -16.7261  -28.6500   23.0360 C   0  0  0  0  0  0
  -26.4470  -31.6614   25.0716 C   0  0  0  0  0  0
  -25.3741  -31.3698   26.1464 C   0  0  0  0  0  0
  -27.0328  -30.3062   24.6101 C   0  0  0  0  0  0
  -27.6038  -32.4351   25.7485 C   0  0  0  0  0  0
  -27.5583  -37.1802   24.8458 C   0  0  0  0  0  0
  -21.4143  -29.3028   22.3744 N   0  0  0  0  0  0
  -26.4298  -37.3791   23.9407 N   0  0  0  0  0  0
  -24.6664  -31.0780   22.1014 N   0  0  0  0  0  0
  -23.4172  -28.8228   23.3081 O   0  0  0  0  0  0
  -28.4074  -26.7167   20.0128 O   0  0  0  0  0  0
  -26.5595  -34.8906   22.4690 O   0  0  0  0  0  0
  -23.5336  -32.1476   23.7497 O   0  0  0  0  0  0
  -28.2862  -18.3213   19.8363 C   0  0  0  0  0  0
  -29.3513  -19.9406   20.9346 C   0  0  0  0  0  0
  -29.5158  -18.6571   20.4673 C   0  0  0  0  0  0
  -27.4336  -19.3882   19.9133 C   0  0  0  0  0  0
  -32.0291  -18.6215   20.6407 C   0  0  0  0  0  0
  -24.3100  -22.9368   17.1623 C   0  0  0  0  0  0
  -25.0825  -21.3606   15.3524 C   0  0  0  0  0  0
  -22.6911  -21.3545   16.1017 C   0  0  0  0  0  0
  -26.0299  -19.4999   19.3980 C   0  0  0  0  0  0
  -25.9019  -20.3272   18.1074 C   0  0  0  0  0  0
  -28.5061  -22.9362   20.7351 C   0  0  0  0  0  0
  -27.7903  -24.2826   20.4188 C   0  0  0  0  0  0
  -24.4382  -20.4408   17.6397 C   0  0  0  0  0  0
  -27.5374  -21.7392   20.9190 C   0  0  0  0  0  0
  -30.6996  -16.7121   21.6927 C   0  0  0  0  0  0
  -28.5789  -25.5512   20.8360 C   0  0  0  0  0  0
  -30.7534  -17.7677   20.5501 C   0  0  1  0  0  0
  -24.1495  -21.5220   16.5681 C   0  0  0  0  0  0
  -28.0947  -20.4173   20.5806 N   0  0  0  0  0  0
  -30.1066  -15.4174   21.3163 N   0  0  0  0  0  0
  -31.4638  -12.4096   19.1138 H   0  0  0  0  0  0
  -30.3206  -11.2980   19.8105 H   0  0  0  0  0  0
  -29.7286  -11.7907   17.4207 H   0  0  0  0  0  0
  -29.6612  -13.5000   17.7708 H   0  0  0  0  0  0
  -27.8258  -11.3167   18.8131 H   0  0  0  0  0  0
  -27.3631  -12.6472   17.7864 H   0  0  0  0  0  0
  -27.7063  -14.2594   19.5794 H   0  0  0  0  0  0
  -28.6735  -11.9529   21.3326 H   0  0  0  0  0  0
  -28.4566  -13.5888   21.8720 H   0  0  0  0  0  0
  -25.2750   -9.5693   22.4755 H   0  0  0  0  0  0
  -23.9993   -7.4642   22.7477 H   0  0  0  0  0  0
  -21.0833   -8.8766   19.8946 H   0  0  0  0  0  0
  -22.3683  -10.9669   19.6154 H   0  0  0  0  0  0
  -21.2006   -7.6150   23.9716 H   0  0  0  0  0  0
  -21.1484   -6.0523   25.9076 H   0  0  0  0  0  0
  -22.0598   -2.7608   23.2849 H   0  0  0  0  0  0
  -22.4111  -11.9872   22.4763 H   0  0  0  0  0  0
  -21.1124  -13.1241   22.2584 H   0  0  0  0  0  0
  -24.6668  -15.8436   20.5384 H   0  0  0  0  0  0
  -26.2942  -15.6326   20.1337 H   0  0  0  0  0  0
  -26.7098  -32.5556   23.1152 H   0  0  0  0  0  0
  -25.0048  -33.9794   25.0467 H   0  0  0  0  0  0
  -22.6868  -31.3063   21.4111 H   0  0  0  0  0  0
  -23.3762  -35.9641   23.3310 H   0  0  0  0  0  0
  -24.3565  -36.8915   22.2048 H   0  0  0  0  0  0
  -23.7255  -37.6518   23.6661 H   0  0  0  0  0  0
  -26.0423  -31.5940   20.5979 H   0  0  0  0  0  0
  -26.8190  -30.8849   21.9864 H   0  0  0  0  0  0
  -28.1098  -29.0996   21.1547 H   0  0  0  0  0  0
  -26.0573  -25.9665   19.0151 H   0  0  0  0  0  0
  -23.9742  -27.2800   19.0549 H   0  0  0  0  0  0
  -23.7203  -30.5927   19.4086 H   0  0  0  0  0  0
  -22.7339  -29.2392   19.8764 H   0  0  0  0  0  0
  -25.1286  -36.1968   25.0842 H   0  0  0  0  0  0
  -20.9908  -28.3238   24.1465 H   0  0  0  0  0  0
  -20.5680  -26.2277   23.3599 H   0  0  0  0  0  0
  -21.6641  -26.7472   22.1193 H   0  0  0  0  0  0
  -19.6929  -25.6307   21.1230 H   0  0  0  0  0  0
  -19.6704  -27.3214   20.6733 H   0  0  0  0  0  0
  -17.4193  -26.6667   21.4002 H   0  0  0  0  0  0
  -18.0297  -26.0057   22.9003 H   0  0  0  0  0  0
  -19.7923  -30.7194   24.2336 H   0  0  0  0  0  0
  -17.5030  -31.6274   24.5131 H   0  0  0  0  0  0
  -15.5349  -30.2991   23.7662 H   0  0  0  0  0  0
  -15.8658  -28.0818   22.7111 H   0  0  0  0  0  0
  -24.5925  -30.7045   25.7788 H   0  0  0  0  0  0
  -24.8914  -32.2837   26.4934 H   0  0  0  0  0  0
  -25.8088  -30.8854   27.0216 H   0  0  0  0  0  0
  -26.2889  -29.6786   24.1188 H   0  0  0  0  0  0
  -27.4143  -29.7328   25.4558 H   0  0  0  0  0  0
  -27.8694  -30.4382   23.9239 H   0  0  0  0  0  0
  -27.2666  -33.3656   26.2068 H   0  0  0  0  0  0
  -28.3850  -32.6913   25.0318 H   0  0  0  0  0  0
  -28.0714  -31.8479   26.5395 H   0  0  0  0  0  0
  -28.2592  -38.0102   24.7506 H   0  0  0  0  0  0
  -28.1092  -36.2631   24.6304 H   0  0  0  0  0  0
  -27.2278  -37.1450   25.8851 H   0  0  0  0  0  0
  -20.9335  -29.8737   21.6938 H   0  0  0  0  0  0
  -26.0193  -38.2877   24.1403 H   0  0  0  0  0  0
  -28.0512  -17.3806   19.3575 H   0  0  0  0  0  0
  -30.0333  -20.5798   21.4803 H   0  0  0  0  0  0
  -32.0953  -19.3111   19.7983 H   0  0  0  0  0  0
  -32.9236  -17.9979   20.6157 H   0  0  0  0  0  0
  -32.0611  -19.2067   21.5596 H   0  0  0  0  0  0
  -24.0068  -23.7038   16.4485 H   0  0  0  0  0  0
  -25.3405  -23.1564   17.4413 H   0  0  0  0  0  0
  -23.6952  -23.0654   18.0545 H   0  0  0  0  0  0
  -24.8332  -22.0701   14.5624 H   0  0  0  0  0  0
  -25.0133  -20.3582   14.9279 H   0  0  0  0  0  0
  -26.1263  -21.5337   15.6161 H   0  0  0  0  0  0
  -22.4160  -22.1083   15.3622 H   0  0  0  0  0  0
  -21.9915  -21.4468   16.9335 H   0  0  0  0  0  0
  -22.5248  -20.3779   15.6455 H   0  0  0  0  0  0
  -25.3884  -19.9163   20.1754 H   0  0  0  0  0  0
  -25.6399  -18.4983   19.2117 H   0  0  0  0  0  0
  -26.5062  -19.8669   17.3243 H   0  0  0  0  0  0
  -26.3238  -21.3180   18.2633 H   0  0  0  0  0  0
  -29.1025  -23.0318   21.6441 H   0  0  0  0  0  0
  -29.2112  -22.7224   19.9304 H   0  0  0  0  0  0
  -26.8166  -24.3149   20.9085 H   0  0  0  0  0  0
  -27.5880  -24.3052   19.3477 H   0  0  0  0  0  0
  -23.8022  -20.6339   18.5052 H   0  0  0  0  0  0
  -24.1302  -19.4619   17.2676 H   0  0  0  0  0  0
  -26.6461  -21.9173   20.3228 H   0  0  0  0  0  0
  -27.1876  -21.7069   21.9508 H   0  0  0  0  0  0
  -30.1772  -17.1195   22.5598 H   0  0  0  0  0  0
  -31.7121  -16.5042   22.0444 H   0  0  0  0  0  0
  -29.6446  -25.3250   20.7907 H   0  0  0  0  0  0
  -28.3768  -25.7970   21.8797 H   0  0  0  0  0  0
  -30.8168  -17.2397   19.5976 H   0  0  0  0  0  0
  -29.1888  -15.2089   21.6808 H   0  0  0  0  0  0
  1 25  1  0  0  0
  1 30  2  0  0  0
  1 90  1  0  0  0
  2  3  1  0  0  0
  2 25  1  0  0  0
  2 91  1  0  0  0
  2 92  1  0  0  0
  3  4  1  0  0  0
  3 93  1  0  0  0
  3 94  1  0  0  0
  4  5  1  0  0  0
  4 95  1  0  0  0
  4 96  1  0  0  0
  5  6  1  0  0  0
  5 26  1  0  0  0
  5 97  1  0  0  0
  6 25  1  0  0  0
  6 98  1  0  0  0
  6 99  1  0  0  0
  7  8  2  0  0  0
  7 26  1  0  0  0
  7 29  1  0  0  0
  8  9  1  0  0  0
  8 22  1  0  0  0
  9 10  1  0  0  0
  9 27  2  0  0  0
 10 11  2  0  0  0
 10 15  1  0  0  0
 11 12  1  0  0  0
 11100  1  0  0  0
 12 13  2  0  0  0
 12101  1  0  0  0
 13 14  1  0  0  0
 13 31  1  0  0  0
 14 15  2  0  0  0
 14102  1  0  0  0
 15103  1  0  0  0
 16 17  2  0  0  0
 16 21  1  0  0  0
 16 31  1  0  0  0
 17 18  1  0  0  0
 17104  1  0  0  0
 18 19  2  0  0  0
 18105  1  0  0  0
 19 20  1  0  0  0
 19 24  1  0  0  0
 20 21  2  0  0  0
 20106  1  0  0  0
 21 23  1  0  0  0
 22 28  1  0  0  0
 22 32  2  0  0  0
 26 27  1  0  0  0
 28107  1  0  0  0
 28108  1  0  0  0
 29109  1  0  0  0
 29110  1  0  0  0
 33 34  1  0  0  0
 33 66  1  0  0  0
 33 70  2  0  0  0
 34 36  1  0  0  0
 34 59  1  0  0  0
 34111  1  0  0  0
 35 44  2  0  0  0
 35 45  1  0  0  0
 35 68  1  0  0  0
 36 56  1  0  0  0
 36112  1  0  0  0
 37 39  1  0  0  0
 37 47  1  0  0  0
 37 66  1  0  0  0
 37113  1  0  0  0
 38 43  2  0  0  0
 38 46  1  0  0  0
 38 47  1  0  0  0
 39 64  1  0  0  0
 39 67  2  0  0  0
 40 52  1  0  0  0
 40 53  2  0  0  0
 40 58  1  0  0  0
 41114  1  0  0  0
 41115  1  0  0  0
 41116  1  0  0  0
 41 48  1  0  0  0
 42 43  1  0  0  0
 42 66  1  0  0  0
 42117  1  0  0  0
 42118  1  0  0  0
 43 44  1  0  0  0
 44119  1  0  0  0
 45 46  2  0  0  0
 45120  1  0  0  0
 46121  1  0  0  0
 47122  1  0  0  0
 47123  1  0  0  0
 48 56  1  0  0  0
 48 65  1  0  0  0
 48124  1  0  0  0
 49 50  1  0  0  0
 49 53  1  0  0  0
 49 64  1  0  0  0
 49125  1  0  0  0
 50 51  1  0  0  0
 50126  1  0  0  0
 50127  1  0  0  0
 51 52  1  0  0  0
 51128  1  0  0  0
 51129  1  0  0  0
 52130  1  0  0  0
 52131  1  0  0  0
 53 54  1  0  0  0
 54 55  2  0  0  0
 54132  1  0  0  0
 55 57  1  0  0  0
 55133  1  0  0  0
 56 69  2  0  0  0
 57 58  2  0  0  0
 57134  1  0  0  0
 58135  1  0  0  0
 59 60  1  0  0  0
 59 61  1  0  0  0
 59 62  1  0  0  0
 60136  1  0  0  0
 60137  1  0  0  0
 60138  1  0  0  0
 61139  1  0  0  0
 61140  1  0  0  0
 61141  1  0  0  0
 62142  1  0  0  0
 62143  1  0  0  0
 62144  1  0  0  0
 63 65  1  0  0  0
 63145  1  0  0  0
 63146  1  0  0  0
 63147  1  0  0  0
 64148  1  0  0  0
 65149  1  0  0  0
 68 86  1  0  0  0
 71 73  1  0  0  0
 71 74  2  0  0  0
 71150  1  0  0  0
 72 73  2  0  0  0
 72 89  1  0  0  0
 72151  1  0  0  0
 73 87  1  0  0  0
 74 79  1  0  0  0
 74 89  1  0  0  0
 75152  1  0  0  0
 75153  1  0  0  0
 75154  1  0  0  0
 75 87  1  0  0  0
 76155  1  0  0  0
 76156  1  0  0  0
 76157  1  0  0  0
 76 88  1  0  0  0
 77 88  1  0  0  0
 77158  1  0  0  0
 77159  1  0  0  0
 77160  1  0  0  0
 78 88  1  0  0  0
 78161  1  0  0  0
 78162  1  0  0  0
 78163  1  0  0  0
 79 80  1  0  0  0
 79164  1  0  0  0
 79165  1  0  0  0
 80 83  1  0  0  0
 80166  1  0  0  0
 80167  1  0  0  0
 81 82  1  0  0  0
 81 84  1  0  0  0
 81168  1  0  0  0
 81169  1  0  0  0
 82 86  1  0  0  0
 82170  1  0  0  0
 82171  1  0  0  0
 83 88  1  0  0  0
 83172  1  0  0  0
 83173  1  0  0  0
 84 89  1  0  0  0
 84174  1  0  0  0
 84175  1  0  0  0
 85 87  1  0  0  0
 85 90  1  0  0  0
 85176  1  0  0  0
 85177  1  0  0  0
 86178  1  0  0  0
 86179  1  0  0  0
 87180  1  0  0  0
 90181  1  0  0  0
M  ISO  4   1 100  68 101  86 101  90 100
M  END
> <chiral flag>
0

> <version>
0

> <s_m_source_file>
/data/baiqing/PycharmProjects/Reinvent-master-3.2/result/LINK_invent/BTK/process_docking_weight1_custom_sum_contain_oxygen_bond_distance_aromatic_linkinvent_7_9_3/rearranged_h_0081.sdf

> <i_m_source_file_index>
79

> <r_mmod_Potential_Energy-OPLS-2005>
-82.4465255737305

> <r_mmod_Stretch_Energy-OPLS-2005>
38.1707000732422

> <r_mmod_Bend_Energy-OPLS-2005>
111.903755187988

> <r_mmod_Torsional_Energy-OPLS-2005>
267.039428710938

> <r_mmod_Improper_Torsional_Energy-OPLS-2005>
2.48266768455505

> <r_mmod_Van_der_Waal_Energy-OPLS-2005>
118.911659240723

> <r_mmod_Electrostatic_Energy-OPLS-2005>
-441.041961669922

> <r_mmod_Solvation_Energy-OPLS-2005>
-190.385803222656

> <b_mmod_Minimization_Converged-OPLS-2005>
0

> <r_mmod_RMS_Derivative-OPLS-2005>
2.01836085319519

$$$$
79
                    3D
 Structure written by MMmdl.
163171  0  0  1  0            999 V2000
  -30.6975  -14.5032   20.6201 C   0  0  0  0  0  0
  -30.4245  -12.3448   19.4245 C   0  0  0  0  0  0
  -29.4936  -12.5346   18.2103 C   0  0  0  0  0  0
  -28.0169  -12.3898   18.6195 C   0  0  0  0  0  0
  -27.6604  -13.2209   19.8803 C   0  0  2  0  0  0
  -28.6986  -13.0000   20.9994 C   0  0  0  0  0  0
  -25.2554  -13.8216   20.5682 C   0  0  0  0  0  0
  -24.1831  -13.0468   20.9168 C   0  0  0  0  0  0
  -24.6413  -11.6937   20.8718 C   0  0  0  0  0  0
  -23.9075  -10.4319   21.0378 C   0  0  0  0  0  0
  -24.3654   -9.4236   21.9156 C   0  0  0  0  0  0
  -23.6314   -8.2276   22.0735 C   0  0  0  0  0  0
  -22.4280   -8.0330   21.3565 C   0  0  0  0  0  0
  -21.9914   -9.0282   20.4644 C   0  0  0  0  0  0
  -22.7249  -10.2151   20.3032 C   0  0  0  0  0  0
  -21.6858   -6.0749   22.5274 C   0  0  0  0  0  0
  -21.4015   -6.5629   23.8216 C   0  0  0  0  0  0
  -21.3652   -5.6783   24.9184 C   0  0  0  0  0  0
  -21.6050   -4.3049   24.7224 C   0  0  0  0  0  0
  -21.8820   -3.8148   23.4347 C   0  0  0  0  0  0
  -21.9190   -4.6964   22.3396 C   0  0  0  0  0  0
  -22.7845  -13.5203   21.1878 C   0  0  0  0  0  0
  -22.1655   -4.2161   21.0977 F   0  0  0  0  0  0
  -21.5637   -3.4515   25.7726 F   0  0  0  0  0  0
  -30.0299  -13.3221   20.4561 N   0  0  0  0  0  0
  -26.3029  -12.9424   20.3415 N   0  0  0  0  0  0
  -25.9340  -11.6559   20.5772 N   0  0  0  0  0  0
  -22.0512  -12.8170   22.0441 N   0  0  0  0  0  0
  -25.4184  -15.1956   20.4050 N   0  0  0  0  0  0
  -31.7717  -14.7314   20.0537 O   0  0  0  0  0  0
  -21.6669   -6.8909   21.4243 O   0  0  0  0  0  0
  -22.3516  -14.5515   20.6727 O   0  0  0  0  0  0
  -24.6168  -31.8656   23.2020 C   0  0  0  0  0  0
  -25.9047  -32.4803   23.8339 C   0  0  1  0  0  0
  -27.2594  -27.4094   20.1116 C   0  0  0  0  0  0
  -25.5888  -33.8603   24.2278 N   0  0  0  0  0  0
  -23.4069  -30.4839   21.5436 C   0  0  2  0  0  0
  -24.8564  -28.9348   20.1201 C   0  0  0  0  0  0
  -22.7412  -29.4658   22.4981 C   0  0  0  0  0  0
  -18.0276  -28.1400   22.8485 C   0  0  0  0  0  0
  -24.1493  -36.7309   23.2634 C   0  0  0  0  0  0
  -25.9338  -30.8276   21.3525 C   0  0  0  0  0  0
  -26.0159  -29.4549   20.7073 C   0  0  0  0  0  0
  -27.2141  -28.7034   20.6904 C   0  0  0  0  0  0
  -26.0738  -26.8981   19.5363 C   0  0  0  0  0  0
  -24.8827  -27.6553   19.5336 C   0  0  0  0  0  0
  -23.6160  -29.8013   20.1637 C   0  0  0  0  0  0
  -25.4111  -36.3105   24.0331 C   0  0  1  0  0  0
  -20.5863  -28.3685   23.1309 C   0  0  2  0  0  0
  -20.6765  -26.9419   22.5414 C   0  0  0  0  0  0
  -19.5746  -26.6396   21.5212 C   0  0  0  0  0  0
  -18.1927  -26.7945   22.1625 C   0  0  0  0  0  0
  -19.1522  -28.8852   23.2898 C   0  0  0  0  0  0
  -18.9461  -30.1467   23.8906 C   0  0  0  0  0  0
  -17.6461  -30.6601   24.0577 C   0  0  0  0  0  0
  -25.9038  -34.9471   23.5110 C   0  0  0  0  0  0
  -16.5352  -29.9109   23.6331 C   0  0  0  0  0  0
  -16.7263  -28.6531   23.0332 C   0  0  0  0  0  0
  -26.4462  -31.6593   25.0678 C   0  0  0  0  0  0
  -25.3703  -31.3712   26.1399 C   0  0  0  0  0  0
  -27.0289  -30.3037   24.6064 C   0  0  0  0  0  0
  -27.6054  -32.4288   25.7438 C   0  0  0  0  0  0
  -27.5584  -37.1805   24.8462 C   0  0  0  0  0  0
  -21.4134  -29.3050   22.3702 N   0  0  0  0  0  0
  -26.4296  -37.3787   23.9407 N   0  0  0  0  0  0
  -24.6711  -31.0739   22.0921 N   0  0  0  0  0  0
  -23.4163  -28.8213   23.3048 O   0  0  0  0  0  0
  -28.4685  -26.7285   20.1229 O   0  0  0  0  0  0
  -26.5624  -34.8935   22.4686 O   0  0  0  0  0  0
  -23.5352  -32.1405   23.7410 O   0  0  0  0  0  0
  -29.4529  -20.6858   21.5164 C   0  0  0  0  0  0
  -29.2881  -21.8752   20.7603 C   0  0  0  0  0  0
  -29.5690  -19.4568   20.8255 C   0  0  0  0  0  0
  -29.3279  -20.6036   18.8518 C   0  0  0  0  0  0
  -27.7426  -20.5293   16.8695 C   0  0  0  0  0  0
  -30.2399  -15.4798   22.7774 C   0  0  0  0  0  0
  -29.3988  -23.2770   21.4001 C   0  0  0  0  0  0
  -29.9150  -18.1193   21.5281 C   0  0  0  0  0  0
  -29.2015  -20.5201   17.3414 C   0  0  0  0  0  0
  -28.3409  -24.3947   21.0795 C   0  0  0  0  0  0
  -29.6950  -16.7965   20.6967 C   0  0  0  0  0  0
  -28.5954  -25.3119   19.8445 C   0  0  0  0  0  0
  -29.2349  -21.8092   19.4166 N   0  0  0  0  0  0
  -29.4901  -19.4459   19.4850 N   0  0  0  0  0  0
  -30.0569  -15.4824   21.3228 N   0  0  0  0  0  0
  -31.4657  -12.4528   19.1179 H   0  0  0  0  0  0
  -30.3307  -11.3296   19.8107 H   0  0  0  0  0  0
  -29.7341  -11.8107   17.4299 H   0  0  0  0  0  0
  -29.6626  -13.5196   17.7728 H   0  0  0  0  0  0
  -27.8301  -11.3322   18.8045 H   0  0  0  0  0  0
  -27.3689  -12.6730   17.7897 H   0  0  0  0  0  0
  -27.7044  -14.2706   19.5908 H   0  0  0  0  0  0
  -28.6825  -11.9640   21.3394 H   0  0  0  0  0  0
  -28.4356  -13.5988   21.8709 H   0  0  0  0  0  0
  -25.2805   -9.5706   22.4730 H   0  0  0  0  0  0
  -24.0024   -7.4645   22.7431 H   0  0  0  0  0  0
  -21.0864   -8.8776   19.8945 H   0  0  0  0  0  0
  -22.3696  -10.9681   19.6142 H   0  0  0  0  0  0
  -21.1997   -7.6141   23.9723 H   0  0  0  0  0  0
  -21.1474   -6.0526   25.9084 H   0  0  0  0  0  0
  -22.0601   -2.7599   23.2848 H   0  0  0  0  0  0
  -22.4119  -11.9803   22.4815 H   0  0  0  0  0  0
  -21.1136  -13.1191   22.2658 H   0  0  0  0  0  0
  -24.6491  -15.8477   20.5124 H   0  0  0  0  0  0
  -26.2763  -15.6446   20.1119 H   0  0  0  0  0  0
  -26.7125  -32.5531   23.1107 H   0  0  0  0  0  0
  -25.0002  -33.9750   25.0397 H   0  0  0  0  0  0
  -22.6957  -31.2997   21.3955 H   0  0  0  0  0  0
  -23.3753  -35.9646   23.3296 H   0  0  0  0  0  0
  -24.3580  -36.8923   22.2049 H   0  0  0  0  0  0
  -23.7255  -37.6512   23.6655 H   0  0  0  0  0  0
  -26.0367  -31.5898   20.5783 H   0  0  0  0  0  0
  -26.8235  -30.8921   21.9672 H   0  0  0  0  0  0
  -28.1123  -29.1126   21.1321 H   0  0  0  0  0  0
  -26.0544  -25.9154   19.0912 H   0  0  0  0  0  0
  -23.9885  -27.2397   19.0897 H   0  0  0  0  0  0
  -23.7153  -30.5671   19.3936 H   0  0  0  0  0  0
  -22.7411  -29.2147   19.8784 H   0  0  0  0  0  0
  -25.1300  -36.1957   25.0825 H   0  0  0  0  0  0
  -20.9966  -28.3276   24.1428 H   0  0  0  0  0  0
  -20.5664  -26.2309   23.3616 H   0  0  0  0  0  0
  -21.6643  -26.7464   22.1218 H   0  0  0  0  0  0
  -19.6910  -25.6306   21.1251 H   0  0  0  0  0  0
  -19.6696  -27.3200   20.6740 H   0  0  0  0  0  0
  -17.4198  -26.6687   21.4034 H   0  0  0  0  0  0
  -18.0331  -26.0096   22.9030 H   0  0  0  0  0  0
  -19.7931  -30.7286   24.2272 H   0  0  0  0  0  0
  -17.5014  -31.6279   24.5189 H   0  0  0  0  0  0
  -15.5350  -30.3015   23.7648 H   0  0  0  0  0  0
  -15.8669  -28.0872   22.7013 H   0  0  0  0  0  0
  -24.5882  -30.7061   25.7705 H   0  0  0  0  0  0
  -24.8874  -32.2877   26.4816 H   0  0  0  0  0  0
  -25.8001  -30.8877   27.0181 H   0  0  0  0  0  0
  -26.2840  -29.6783   24.1121 H   0  0  0  0  0  0
  -27.4066  -29.7281   25.4529 H   0  0  0  0  0  0
  -27.8666  -30.4349   23.9202 H   0  0  0  0  0  0
  -27.2716  -33.3602   26.2025 H   0  0  0  0  0  0
  -28.3859  -32.6813   25.0246 H   0  0  0  0  0  0
  -28.0723  -31.8389   26.5336 H   0  0  0  0  0  0
  -28.2606  -38.0099   24.7512 H   0  0  0  0  0  0
  -28.1081  -36.2633   24.6290 H   0  0  0  0  0  0
  -27.2303  -37.1451   25.8865 H   0  0  0  0  0  0
  -20.9290  -29.8755   21.6910 H   0  0  0  0  0  0
  -26.0188  -38.2867   24.1398 H   0  0  0  0  0  0
  -29.5554  -20.7110   22.5930 H   0  0  0  0  0  0
  -27.6825  -20.3424   15.7969 H   0  0  0  0  0  0
  -27.2684  -21.4875   17.0770 H   0  0  0  0  0  0
  -27.1710  -19.7530   17.3814 H   0  0  0  0  0  0
  -31.1379  -16.0345   23.0553 H   0  0  0  0  0  0
  -30.3538  -14.4708   23.1779 H   0  0  0  0  0  0
  -29.3800  -15.9216   23.2786 H   0  0  0  0  0  0
  -30.4065  -23.6621   21.2299 H   0  0  0  0  0  0
  -29.3488  -23.1059   22.4768 H   0  0  0  0  0  0
  -29.3161  -18.0870   22.4374 H   0  0  0  0  0  0
  -30.9556  -18.1767   21.8475 H   0  0  0  0  0  0
  -29.6668  -19.5970   16.9982 H   0  0  0  0  0  0
  -29.7705  -21.3283   16.8774 H   0  0  0  0  0  0
  -28.3731  -25.0655   21.9399 H   0  0  0  0  0  0
  -27.3282  -23.9972   21.0669 H   0  0  0  0  0  0
  -30.2207  -16.8989   19.7461 H   0  0  0  0  0  0
  -28.6423  -16.7434   20.4264 H   0  0  0  0  0  0
  -28.0089  -24.9965   18.9826 H   0  0  0  0  0  0
  -29.6320  -25.1839   19.5286 H   0  0  0  0  0  0
  1 25  1  0  0  0
  1 30  2  0  0  0
  1 85  1  0  0  0
  2  3  1  0  0  0
  2 25  1  0  0  0
  2 86  1  0  0  0
  2 87  1  0  0  0
  3  4  1  0  0  0
  3 88  1  0  0  0
  3 89  1  0  0  0
  4  5  1  0  0  0
  4 90  1  0  0  0
  4 91  1  0  0  0
  5  6  1  0  0  0
  5 26  1  0  0  0
  5 92  1  0  0  0
  6 25  1  0  0  0
  6 93  1  0  0  0
  6 94  1  0  0  0
  7  8  2  0  0  0
  7 26  1  0  0  0
  7 29  1  0  0  0
  8  9  1  0  0  0
  8 22  1  0  0  0
  9 10  1  0  0  0
  9 27  2  0  0  0
 10 11  2  0  0  0
 10 15  1  0  0  0
 11 12  1  0  0  0
 11 95  1  0  0  0
 12 13  2  0  0  0
 12 96  1  0  0  0
 13 14  1  0  0  0
 13 31  1  0  0  0
 14 15  2  0  0  0
 14 97  1  0  0  0
 15 98  1  0  0  0
 16 17  2  0  0  0
 16 21  1  0  0  0
 16 31  1  0  0  0
 17 18  1  0  0  0
 17 99  1  0  0  0
 18 19  2  0  0  0
 18100  1  0  0  0
 19 20  1  0  0  0
 19 24  1  0  0  0
 20 21  2  0  0  0
 20101  1  0  0  0
 21 23  1  0  0  0
 22 28  1  0  0  0
 22 32  2  0  0  0
 26 27  1  0  0  0
 28102  1  0  0  0
 28103  1  0  0  0
 29104  1  0  0  0
 29105  1  0  0  0
 33 34  1  0  0  0
 33 66  1  0  0  0
 33 70  2  0  0  0
 34 36  1  0  0  0
 34 59  1  0  0  0
 34106  1  0  0  0
 35 44  2  0  0  0
 35 45  1  0  0  0
 35 68  1  0  0  0
 36 56  1  0  0  0
 36107  1  0  0  0
 37 39  1  0  0  0
 37 47  1  0  0  0
 37 66  1  0  0  0
 37108  1  0  0  0
 38 43  2  0  0  0
 38 46  1  0  0  0
 38 47  1  0  0  0
 39 64  1  0  0  0
 39 67  2  0  0  0
 40 52  1  0  0  0
 40 53  2  0  0  0
 40 58  1  0  0  0
 41109  1  0  0  0
 41110  1  0  0  0
 41111  1  0  0  0
 41 48  1  0  0  0
 42 43  1  0  0  0
 42 66  1  0  0  0
 42112  1  0  0  0
 42113  1  0  0  0
 43 44  1  0  0  0
 44114  1  0  0  0
 45 46  2  0  0  0
 45115  1  0  0  0
 46116  1  0  0  0
 47117  1  0  0  0
 47118  1  0  0  0
 48 56  1  0  0  0
 48 65  1  0  0  0
 48119  1  0  0  0
 49 50  1  0  0  0
 49 53  1  0  0  0
 49 64  1  0  0  0
 49120  1  0  0  0
 50 51  1  0  0  0
 50121  1  0  0  0
 50122  1  0  0  0
 51 52  1  0  0  0
 51123  1  0  0  0
 51124  1  0  0  0
 52125  1  0  0  0
 52126  1  0  0  0
 53 54  1  0  0  0
 54 55  2  0  0  0
 54127  1  0  0  0
 55 57  1  0  0  0
 55128  1  0  0  0
 56 69  2  0  0  0
 57 58  2  0  0  0
 57129  1  0  0  0
 58130  1  0  0  0
 59 60  1  0  0  0
 59 61  1  0  0  0
 59 62  1  0  0  0
 60131  1  0  0  0
 60132  1  0  0  0
 60133  1  0  0  0
 61134  1  0  0  0
 61135  1  0  0  0
 61136  1  0  0  0
 62137  1  0  0  0
 62138  1  0  0  0
 62139  1  0  0  0
 63 65  1  0  0  0
 63140  1  0  0  0
 63141  1  0  0  0
 63142  1  0  0  0
 64143  1  0  0  0
 65144  1  0  0  0
 68 82  1  0  0  0
 71 72  2  0  0  0
 71 73  1  0  0  0
 71145  1  0  0  0
 72 77  1  0  0  0
 72 83  1  0  0  0
 73 78  1  0  0  0
 73 84  2  0  0  0
 74 79  1  0  0  0
 74 83  2  0  0  0
 74 84  1  0  0  0
 75 79  1  0  0  0
 75146  1  0  0  0
 75147  1  0  0  0
 75148  1  0  0  0
 76 85  1  0  0  0
 76149  1  0  0  0
 76150  1  0  0  0
 76151  1  0  0  0
 77 80  1  0  0  0
 77152  1  0  0  0
 77153  1  0  0  0
 78 81  1  0  0  0
 78154  1  0  0  0
 78155  1  0  0  0
 79156  1  0  0  0
 79157  1  0  0  0
 80 82  1  0  0  0
 80158  1  0  0  0
 80159  1  0  0  0
 81 85  1  0  0  0
 81160  1  0  0  0
 81161  1  0  0  0
 82162  1  0  0  0
 82163  1  0  0  0
M  ISO  4   1 100  68 101  82 101  85 100
M  END
> <chiral flag>
0

> <version>
0

> <s_m_source_file>
/data/baiqing/PycharmProjects/Reinvent-master-3.2/result/LINK_invent/BTK/process_docking_weight1_custom_sum_contain_oxygen_bond_distance_aromatic_linkinvent_7_9_3/rearranged_h_0081.sdf

> <i_m_source_file_index>
80

> <r_mmod_Potential_Energy-OPLS-2005>
-321.104187011719

> <r_mmod_Stretch_Energy-OPLS-2005>
51.2422523498535

> <r_mmod_Bend_Energy-OPLS-2005>
133.706558227539

> <r_mmod_Torsional_Energy-OPLS-2005>
282.445129394531

> <r_mmod_Improper_Torsional_Energy-OPLS-2005>
5.9759955406189

> <r_mmod_Van_der_Waal_Energy-OPLS-2005>
152.671096801758

> <r_mmod_Electrostatic_Energy-OPLS-2005>
-749.323425292969

> <r_mmod_Solvation_Energy-OPLS-2005>
-213.658920288086

> <b_mmod_Minimization_Converged-OPLS-2005>
0

> <r_mmod_RMS_Derivative-OPLS-2005>
4.07062673568726

$$$$
80
                    3D
 Structure written by MMmdl.
166174  0  0  1  0            999 V2000
  -30.6643  -14.5041   20.5666 C   0  0  0  0  0  0
  -30.4381  -12.3284   19.4152 C   0  0  0  0  0  0
  -29.5020  -12.5163   18.2027 C   0  0  0  0  0  0
  -28.0225  -12.3693   18.6151 C   0  0  0  0  0  0
  -27.6638  -13.2049   19.8723 C   0  0  2  0  0  0
  -28.7071  -12.9770   20.9894 C   0  0  0  0  0  0
  -25.2603  -13.8146   20.5680 C   0  0  0  0  0  0
  -24.1863  -13.0431   20.9173 C   0  0  0  0  0  0
  -24.6419  -11.6891   20.8718 C   0  0  0  0  0  0
  -23.9078  -10.4291   21.0399 C   0  0  0  0  0  0
  -24.3631   -9.4207   21.9174 C   0  0  0  0  0  0
  -23.6306   -8.2240   22.0748 C   0  0  0  0  0  0
  -22.4282   -8.0285   21.3543 C   0  0  0  0  0  0
  -21.9923   -9.0258   20.4639 C   0  0  0  0  0  0
  -22.7249  -10.2135   20.3051 C   0  0  0  0  0  0
  -21.6848   -6.0746   22.5290 C   0  0  0  0  0  0
  -21.4001   -6.5647   23.8221 C   0  0  0  0  0  0
  -21.3662   -5.6797   24.9182 C   0  0  0  0  0  0
  -21.6047   -4.3059   24.7226 C   0  0  0  0  0  0
  -21.8819   -3.8157   23.4343 C   0  0  0  0  0  0
  -21.9190   -4.6977   22.3404 C   0  0  0  0  0  0
  -22.7880  -13.5215   21.1851 C   0  0  0  0  0  0
  -22.1662   -4.2166   21.0980 F   0  0  0  0  0  0
  -21.5640   -3.4540   25.7733 F   0  0  0  0  0  0
  -30.0339  -13.3042   20.4389 N   0  0  0  0  0  0
  -26.3040  -12.9318   20.3339 N   0  0  0  0  0  0
  -25.9337  -11.6482   20.5733 N   0  0  0  0  0  0
  -22.0533  -12.8206   22.0407 N   0  0  0  0  0  0
  -25.4319  -15.1867   20.4110 N   0  0  0  0  0  0
  -31.7952  -14.7232   20.1256 O   0  0  0  0  0  0
  -21.6638   -6.8888   21.4250 O   0  0  0  0  0  0
  -22.3571  -14.5532   20.6702 O   0  0  0  0  0  0
  -24.6211  -31.8622   23.2115 C   0  0  0  0  0  0
  -25.9058  -32.4819   23.8401 C   0  0  1  0  0  0
  -27.2279  -27.3874   20.1060 C   0  0  0  0  0  0
  -25.5897  -33.8633   24.2324 N   0  0  0  0  0  0
  -23.4115  -30.4886   21.5562 C   0  0  2  0  0  0
  -24.8543  -28.9525   20.1139 C   0  0  0  0  0  0
  -22.7423  -29.4632   22.5020 C   0  0  0  0  0  0
  -18.0281  -28.1367   22.8518 C   0  0  0  0  0  0
  -24.1470  -36.7362   23.2625 C   0  0  0  0  0  0
  -25.9437  -30.8105   21.3704 C   0  0  0  0  0  0
  -26.0184  -29.4429   20.7185 C   0  0  0  0  0  0
  -27.2092  -28.6679   20.7152 C   0  0  0  0  0  0
  -26.0520  -26.9423   19.4604 C   0  0  0  0  0  0
  -24.8671  -27.6996   19.4797 C   0  0  0  0  0  0
  -23.6212  -29.8285   20.1678 C   0  0  0  0  0  0
  -25.4102  -36.3138   24.0304 C   0  0  1  0  0  0
  -20.5875  -28.3666   23.1334 C   0  0  2  0  0  0
  -20.6816  -26.9405   22.5442 C   0  0  0  0  0  0
  -19.5761  -26.6374   21.5262 C   0  0  0  0  0  0
  -18.1935  -26.7921   22.1658 C   0  0  0  0  0  0
  -19.1534  -28.8841   23.2907 C   0  0  0  0  0  0
  -18.9460  -30.1468   23.8869 C   0  0  0  0  0  0
  -17.6459  -30.6579   24.0585 C   0  0  0  0  0  0
  -25.9025  -34.9488   23.5115 C   0  0  0  0  0  0
  -16.5346  -29.9093   23.6324 C   0  0  0  0  0  0
  -16.7273  -28.6523   23.0319 C   0  0  0  0  0  0
  -26.4455  -31.6634   25.0753 C   0  0  0  0  0  0
  -25.3692  -31.3751   26.1479 C   0  0  0  0  0  0
  -27.0301  -30.3094   24.6153 C   0  0  0  0  0  0
  -27.6032  -32.4368   25.7490 C   0  0  0  0  0  0
  -27.5586  -37.1826   24.8444 C   0  0  0  0  0  0
  -21.4150  -29.3017   22.3718 N   0  0  0  0  0  0
  -26.4306  -37.3830   23.9380 N   0  0  0  0  0  0
  -24.6784  -31.0661   22.1063 N   0  0  0  0  0  0
  -23.4161  -28.8166   23.3084 O   0  0  0  0  0  0
  -28.3611  -26.5821   20.1306 O   0  0  0  0  0  0
  -26.5608  -34.8929   22.4681 O   0  0  0  0  0  0
  -23.5377  -32.1434   23.7470 O   0  0  0  0  0  0
  -27.7937  -21.5361   22.0329 C   0  0  0  0  0  0
  -27.8431  -20.3499   22.7948 C   0  0  0  0  0  0
  -28.4466  -21.5223   20.7755 C   0  0  0  0  0  0
  -28.9235  -19.2625   21.0893 C   0  0  0  0  0  0
  -27.0018  -22.7345   22.5349 C   0  0  0  0  0  0
  -27.2282  -20.2169   24.1774 C   0  0  0  0  0  0
  -30.3414  -23.9535   20.9294 C   0  0  0  0  0  0
  -29.6551  -24.5934   18.6338 C   0  0  0  0  0  0
  -28.3719  -22.7067   19.7677 C   0  0  0  0  0  0
  -29.2090  -17.8764   20.4682 C   0  0  0  0  0  0
  -30.1817  -16.9339   21.2552 C   0  0  0  0  0  0
  -28.1511  -25.2027   20.5619 C   0  0  0  0  0  0
  -29.1215  -24.0966   19.9993 C   0  0  0  0  0  0
  -28.3910  -19.2297   22.3027 N   0  0  0  0  0  0
  -29.0049  -20.3625   20.3271 N   0  0  0  0  0  0
  -29.8937  -15.4895   21.0721 N   0  0  0  0  0  0
  -31.4790  -12.4538   19.1122 H   0  0  0  0  0  0
  -30.3621  -11.3137   19.8090 H   0  0  0  0  0  0
  -29.7467  -11.7957   17.4206 H   0  0  0  0  0  0
  -29.6636  -13.5039   17.7671 H   0  0  0  0  0  0
  -27.8387  -11.3124   18.8107 H   0  0  0  0  0  0
  -27.3721  -12.6428   17.7843 H   0  0  0  0  0  0
  -27.7071  -14.2537   19.5762 H   0  0  0  0  0  0
  -28.6936  -11.9350   21.3145 H   0  0  0  0  0  0
  -28.4655  -13.5607   21.8784 H   0  0  0  0  0  0
  -25.2782   -9.5673   22.4737 H   0  0  0  0  0  0
  -24.0016   -7.4631   22.7465 H   0  0  0  0  0  0
  -21.0851   -8.8774   19.8945 H   0  0  0  0  0  0
  -22.3714  -10.9671   19.6156 H   0  0  0  0  0  0
  -21.1979   -7.6151   23.9727 H   0  0  0  0  0  0
  -21.1490   -6.0525   25.9087 H   0  0  0  0  0  0
  -22.0593   -2.7617   23.2835 H   0  0  0  0  0  0
  -22.4149  -11.9859   22.4782 H   0  0  0  0  0  0
  -21.1144  -13.1226   22.2632 H   0  0  0  0  0  0
  -24.6603  -15.8360   20.5134 H   0  0  0  0  0  0
  -26.2816  -15.6281   20.0856 H   0  0  0  0  0  0
  -26.7138  -32.5489   23.1159 H   0  0  0  0  0  0
  -25.0034  -33.9778   25.0462 H   0  0  0  0  0  0
  -22.7046  -31.3111   21.4232 H   0  0  0  0  0  0
  -23.3723  -35.9706   23.3302 H   0  0  0  0  0  0
  -24.3563  -36.8996   22.2044 H   0  0  0  0  0  0
  -23.7247  -37.6564   23.6652 H   0  0  0  0  0  0
  -26.0513  -31.5611   20.5847 H   0  0  0  0  0  0
  -26.8346  -30.8752   21.9836 H   0  0  0  0  0  0
  -28.1026  -29.0363   21.2016 H   0  0  0  0  0  0
  -26.0418  -25.9973   18.9366 H   0  0  0  0  0  0
  -23.9799  -27.3109   18.9948 H   0  0  0  0  0  0
  -23.7396  -30.6082   19.4155 H   0  0  0  0  0  0
  -22.7400  -29.2604   19.8687 H   0  0  0  0  0  0
  -25.1312  -36.2027   25.0809 H   0  0  0  0  0  0
  -20.9969  -28.3249   24.1443 H   0  0  0  0  0  0
  -20.5839  -26.2240   23.3629 H   0  0  0  0  0  0
  -21.6678  -26.7521   22.1152 H   0  0  0  0  0  0
  -19.6924  -25.6294   21.1259 H   0  0  0  0  0  0
  -19.6701  -27.3218   20.6821 H   0  0  0  0  0  0
  -17.4244  -26.6686   21.4015 H   0  0  0  0  0  0
  -18.0278  -26.0050   22.9030 H   0  0  0  0  0  0
  -19.7924  -30.7318   24.2172 H   0  0  0  0  0  0
  -17.5008  -31.6238   24.5223 H   0  0  0  0  0  0
  -15.5353  -30.3000   23.7660 H   0  0  0  0  0  0
  -15.8669  -28.0889   22.6974 H   0  0  0  0  0  0
  -24.5868  -30.7096   25.7831 H   0  0  0  0  0  0
  -24.8840  -32.2903   26.4893 H   0  0  0  0  0  0
  -25.7999  -30.8958   27.0278 H   0  0  0  0  0  0
  -26.2869  -29.6833   24.1199 H   0  0  0  0  0  0
  -27.4092  -29.7379   25.4634 H   0  0  0  0  0  0
  -27.8688  -30.4471   23.9318 H   0  0  0  0  0  0
  -27.2672  -33.3696   26.2042 H   0  0  0  0  0  0
  -28.3810  -32.6891   25.0264 H   0  0  0  0  0  0
  -28.0706  -31.8505   26.5403 H   0  0  0  0  0  0
  -28.2616  -38.0126   24.7576 H   0  0  0  0  0  0
  -28.1080  -36.2667   24.6223 H   0  0  0  0  0  0
  -27.2269  -37.1460   25.8835 H   0  0  0  0  0  0
  -20.9308  -29.8746   21.6947 H   0  0  0  0  0  0
  -26.0188  -38.2889   24.1447 H   0  0  0  0  0  0
  -26.2006  -22.4377   23.2137 H   0  0  0  0  0  0
  -26.5019  -23.2406   21.7152 H   0  0  0  0  0  0
  -27.6469  -23.4378   23.0604 H   0  0  0  0  0  0
  -26.1523  -20.0577   24.1013 H   0  0  0  0  0  0
  -27.4051  -21.1090   24.7771 H   0  0  0  0  0  0
  -27.6574  -19.3720   24.7167 H   0  0  0  0  0  0
  -31.0794  -23.2657   20.5126 H   0  0  0  0  0  0
  -30.0629  -23.5909   21.9194 H   0  0  0  0  0  0
  -30.8375  -24.9170   21.0622 H   0  0  0  0  0  0
  -30.3440  -23.8756   18.1844 H   0  0  0  0  0  0
  -30.2096  -25.5291   18.7247 H   0  0  0  0  0  0
  -28.8390  -24.7667   17.9315 H   0  0  0  0  0  0
  -27.3194  -22.8700   19.5289 H   0  0  0  0  0  0
  -28.7585  -22.2901   18.8350 H   0  0  0  0  0  0
  -29.5811  -18.0055   19.4504 H   0  0  0  0  0  0
  -28.2379  -17.3932   20.3612 H   0  0  0  0  0  0
  -30.0671  -17.1224   22.3220 H   0  0  0  0  0  0
  -31.2174  -17.1797   21.0138 H   0  0  0  0  0  0
  -28.2151  -25.2124   21.6512 H   0  0  0  0  0  0
  -27.1331  -24.8824   20.3627 H   0  0  0  0  0  0
  -28.9814  -15.1834   21.3756 H   0  0  0  0  0  0
  1 25  1  0  0  0
  1 30  2  0  0  0
  1 86  1  0  0  0
  2  3  1  0  0  0
  2 25  1  0  0  0
  2 87  1  0  0  0
  2 88  1  0  0  0
  3  4  1  0  0  0
  3 89  1  0  0  0
  3 90  1  0  0  0
  4  5  1  0  0  0
  4 91  1  0  0  0
  4 92  1  0  0  0
  5  6  1  0  0  0
  5 26  1  0  0  0
  5 93  1  0  0  0
  6 25  1  0  0  0
  6 94  1  0  0  0
  6 95  1  0  0  0
  7  8  2  0  0  0
  7 26  1  0  0  0
  7 29  1  0  0  0
  8  9  1  0  0  0
  8 22  1  0  0  0
  9 10  1  0  0  0
  9 27  2  0  0  0
 10 11  2  0  0  0
 10 15  1  0  0  0
 11 12  1  0  0  0
 11 96  1  0  0  0
 12 13  2  0  0  0
 12 97  1  0  0  0
 13 14  1  0  0  0
 13 31  1  0  0  0
 14 15  2  0  0  0
 14 98  1  0  0  0
 15 99  1  0  0  0
 16 17  2  0  0  0
 16 21  1  0  0  0
 16 31  1  0  0  0
 17 18  1  0  0  0
 17100  1  0  0  0
 18 19  2  0  0  0
 18101  1  0  0  0
 19 20  1  0  0  0
 19 24  1  0  0  0
 20 21  2  0  0  0
 20102  1  0  0  0
 21 23  1  0  0  0
 22 28  1  0  0  0
 22 32  2  0  0  0
 26 27  1  0  0  0
 28103  1  0  0  0
 28104  1  0  0  0
 29105  1  0  0  0
 29106  1  0  0  0
 33 34  1  0  0  0
 33 66  1  0  0  0
 33 70  2  0  0  0
 34 36  1  0  0  0
 34 59  1  0  0  0
 34107  1  0  0  0
 35 44  2  0  0  0
 35 45  1  0  0  0
 35 68  1  0  0  0
 36 56  1  0  0  0
 36108  1  0  0  0
 37 39  1  0  0  0
 37 47  1  0  0  0
 37 66  1  0  0  0
 37109  1  0  0  0
 38 43  2  0  0  0
 38 46  1  0  0  0
 38 47  1  0  0  0
 39 64  1  0  0  0
 39 67  2  0  0  0
 40 52  1  0  0  0
 40 53  2  0  0  0
 40 58  1  0  0  0
 41110  1  0  0  0
 41111  1  0  0  0
 41112  1  0  0  0
 41 48  1  0  0  0
 42 43  1  0  0  0
 42 66  1  0  0  0
 42113  1  0  0  0
 42114  1  0  0  0
 43 44  1  0  0  0
 44115  1  0  0  0
 45 46  2  0  0  0
 45116  1  0  0  0
 46117  1  0  0  0
 47118  1  0  0  0
 47119  1  0  0  0
 48 56  1  0  0  0
 48 65  1  0  0  0
 48120  1  0  0  0
 49 50  1  0  0  0
 49 53  1  0  0  0
 49 64  1  0  0  0
 49121  1  0  0  0
 50 51  1  0  0  0
 50122  1  0  0  0
 50123  1  0  0  0
 51 52  1  0  0  0
 51124  1  0  0  0
 51125  1  0  0  0
 52126  1  0  0  0
 52127  1  0  0  0
 53 54  1  0  0  0
 54 55  2  0  0  0
 54128  1  0  0  0
 55 57  1  0  0  0
 55129  1  0  0  0
 56 69  2  0  0  0
 57 58  2  0  0  0
 57130  1  0  0  0
 58131  1  0  0  0
 59 60  1  0  0  0
 59 61  1  0  0  0
 59 62  1  0  0  0
 60132  1  0  0  0
 60133  1  0  0  0
 60134  1  0  0  0
 61135  1  0  0  0
 61136  1  0  0  0
 61137  1  0  0  0
 62138  1  0  0  0
 62139  1  0  0  0
 62140  1  0  0  0
 63 65  1  0  0  0
 63141  1  0  0  0
 63142  1  0  0  0
 63143  1  0  0  0
 64144  1  0  0  0
 65145  1  0  0  0
 68 82  1  0  0  0
 71 72  2  0  0  0
 71 73  1  0  0  0
 71 75  1  0  0  0
 72 76  1  0  0  0
 72 84  1  0  0  0
 73 79  1  0  0  0
 73 85  2  0  0  0
 74 80  1  0  0  0
 74 84  2  0  0  0
 74 85  1  0  0  0
 75146  1  0  0  0
 75147  1  0  0  0
 75148  1  0  0  0
 76149  1  0  0  0
 76150  1  0  0  0
 76151  1  0  0  0
 77152  1  0  0  0
 77153  1  0  0  0
 77154  1  0  0  0
 77 83  1  0  0  0
 78 83  1  0  0  0
 78155  1  0  0  0
 78156  1  0  0  0
 78157  1  0  0  0
 79 83  1  0  0  0
 79158  1  0  0  0
 79159  1  0  0  0
 80 81  1  0  0  0
 80160  1  0  0  0
 80161  1  0  0  0
 81 86  1  0  0  0
 81162  1  0  0  0
 81163  1  0  0  0
 82 83  1  0  0  0
 82164  1  0  0  0
 82165  1  0  0  0
 86166  1  0  0  0
M  ISO  4   1 100  68 101  82 101  86 100
M  END
> <chiral flag>
0

> <version>
0

> <s_m_source_file>
/data/baiqing/PycharmProjects/Reinvent-master-3.2/result/LINK_invent/BTK/process_docking_weight1_custom_sum_contain_oxygen_bond_distance_aromatic_linkinvent_7_9_3/rearranged_h_0081.sdf

> <i_m_source_file_index>
81

> <r_mmod_Potential_Energy-OPLS-2005>
-329.293640136719

> <r_mmod_Stretch_Energy-OPLS-2005>
54.0150527954102

> <r_mmod_Bend_Energy-OPLS-2005>
127.628784179688

> <r_mmod_Torsional_Energy-OPLS-2005>
225.674514770508

> <r_mmod_Improper_Torsional_Energy-OPLS-2005>
6.12891149520874

> <r_mmod_Van_der_Waal_Energy-OPLS-2005>
165.340484619141

> <r_mmod_Electrostatic_Energy-OPLS-2005>
-702.86376953125

> <r_mmod_Solvation_Energy-OPLS-2005>
-225.863403320312

> <b_mmod_Minimization_Converged-OPLS-2005>
0

> <r_mmod_RMS_Derivative-OPLS-2005>
3.70551800727844

$$$$
81
                    3D
 Structure written by MMmdl.
160168  0  0  1  0            999 V2000
  -30.7074  -14.3439   20.7601 C   0  0  0  0  0  0
  -30.4311  -12.2882   19.4024 C   0  0  0  0  0  0
  -29.4921  -12.5607   18.2090 C   0  0  0  0  0  0
  -28.0153  -12.3975   18.6116 C   0  0  0  0  0  0
  -27.6697  -13.1871   19.8995 C   0  0  2  0  0  0
  -28.6890  -12.8605   21.0107 C   0  0  0  0  0  0
  -25.2589  -13.8128   20.5672 C   0  0  0  0  0  0
  -24.1834  -13.0440   20.9164 C   0  0  0  0  0  0
  -24.6366  -11.6880   20.8736 C   0  0  0  0  0  0
  -23.9067  -10.4286   21.0455 C   0  0  0  0  0  0
  -24.3629   -9.4184   21.9222 C   0  0  0  0  0  0
  -23.6300   -8.2222   22.0762 C   0  0  0  0  0  0
  -22.4266   -8.0290   21.3570 C   0  0  0  0  0  0
  -21.9942   -9.0264   20.4654 C   0  0  0  0  0  0
  -22.7266  -10.2141   20.3082 C   0  0  0  0  0  0
  -21.6861   -6.0733   22.5280 C   0  0  0  0  0  0
  -21.4009   -6.5635   23.8213 C   0  0  0  0  0  0
  -21.3654   -5.6794   24.9176 C   0  0  0  0  0  0
  -21.6047   -4.3058   24.7237 C   0  0  0  0  0  0
  -21.8811   -3.8140   23.4360 C   0  0  0  0  0  0
  -21.9183   -4.6956   22.3412 C   0  0  0  0  0  0
  -22.7841  -13.5206   21.1855 C   0  0  0  0  0  0
  -22.1647   -4.2141   21.0992 F   0  0  0  0  0  0
  -21.5641   -3.4541   25.7755 F   0  0  0  0  0  0
  -30.0462  -13.1848   20.5041 N   0  0  0  0  0  0
  -26.3035  -12.9264   20.3421 N   0  0  0  0  0  0
  -25.9276  -11.6422   20.5757 N   0  0  0  0  0  0
  -22.0490  -12.8208   22.0416 N   0  0  0  0  0  0
  -25.4374  -15.1869   20.4160 N   0  0  0  0  0  0
  -31.7117  -14.7239   20.1445 O   0  0  0  0  0  0
  -21.6622   -6.8895   21.4257 O   0  0  0  0  0  0
  -22.3516  -14.5525   20.6703 O   0  0  0  0  0  0
  -24.6117  -31.8692   23.2080 C   0  0  0  0  0  0
  -25.9006  -32.4825   23.8372 C   0  0  1  0  0  0
  -27.2403  -27.4642   20.0871 C   0  0  0  0  0  0
  -25.5886  -33.8607   24.2299 N   0  0  0  0  0  0
  -23.3996  -30.4915   21.5454 C   0  0  2  0  0  0
  -24.8488  -28.9558   20.1173 C   0  0  0  0  0  0
  -22.7389  -29.4722   22.4965 C   0  0  0  0  0  0
  -18.0266  -28.1458   22.8403 C   0  0  0  0  0  0
  -24.1490  -36.7335   23.2632 C   0  0  0  0  0  0
  -25.9243  -30.8424   21.3626 C   0  0  0  0  0  0
  -26.0052  -29.4785   20.7122 C   0  0  0  0  0  0
  -27.2054  -28.7355   20.6951 C   0  0  0  0  0  0
  -26.0710  -26.9393   19.5000 C   0  0  0  0  0  0
  -24.8743  -27.6835   19.5122 C   0  0  0  0  0  0
  -23.6088  -29.8177   20.1642 C   0  0  0  0  0  0
  -25.4111  -36.3106   24.0316 C   0  0  1  0  0  0
  -20.5828  -28.3738   23.1314 C   0  0  2  0  0  0
  -20.6779  -26.9465   22.5408 C   0  0  0  0  0  0
  -19.5784  -26.6528   21.5172 C   0  0  0  0  0  0
  -18.1964  -26.7997   22.1551 C   0  0  0  0  0  0
  -19.1463  -28.8894   23.2944 C   0  0  0  0  0  0
  -18.9344  -30.1458   23.9047 C   0  0  0  0  0  0
  -17.6320  -30.6537   24.0711 C   0  0  0  0  0  0
  -25.9024  -34.9500   23.5108 C   0  0  0  0  0  0
  -16.5239  -29.9102   23.6257 C   0  0  0  0  0  0
  -16.7217  -28.6608   23.0134 C   0  0  0  0  0  0
  -26.4456  -31.6601   25.0708 C   0  0  0  0  0  0
  -25.3753  -31.3713   26.1481 C   0  0  0  0  0  0
  -27.0279  -30.3037   24.6106 C   0  0  0  0  0  0
  -27.6024  -32.4328   25.7501 C   0  0  0  0  0  0
  -27.5573  -37.1816   24.8455 C   0  0  0  0  0  0
  -21.4098  -29.3086   22.3691 N   0  0  0  0  0  0
  -26.4298  -37.3789   23.9397 N   0  0  0  0  0  0
  -24.6620  -31.0826   22.0975 N   0  0  0  0  0  0
  -23.4128  -28.8299   23.3090 O   0  0  0  0  0  0
  -28.4089  -26.7451   20.0543 O   0  0  0  0  0  0
  -26.5611  -34.8945   22.4669 O   0  0  0  0  0  0
  -23.5324  -32.1401   23.7518 O   0  0  0  0  0  0
  -27.9846  -18.5679   23.2690 C   0  0  0  0  0  0
  -27.1203  -19.6363   23.0322 C   0  0  0  0  0  0
  -29.2651  -18.6422   22.7009 C   0  0  0  0  0  0
  -28.7164  -20.6579   21.7477 C   0  0  0  0  0  0
  -30.2271  -16.8180   24.1793 C   0  0  0  0  0  0
  -29.0370  -21.7778   20.7628 C   0  0  0  0  0  0
  -28.7438  -23.1795   21.3372 C   0  0  0  0  0  0
  -28.6955  -24.3202   20.2988 C   0  0  0  0  0  0
  -29.7911  -16.4855   21.5982 C   0  0  0  0  0  0
  -28.4549  -25.6712   20.9852 C   0  0  0  0  0  0
  -30.1953  -17.4325   22.7600 C   0  0  1  0  0  0
  -27.4892  -20.6640   22.2516 N   0  0  0  0  0  0
  -29.6308  -19.7047   21.9429 N   0  0  0  0  0  0
  -30.1334  -15.0678   21.7272 N   0  0  0  0  0  0
  -31.4712  -12.4305   19.1086 H   0  0  0  0  0  0
  -30.3564  -11.2481   19.7240 H   0  0  0  0  0  0
  -29.7274  -11.8956   17.3790 H   0  0  0  0  0  0
  -29.6511  -13.5756   17.8411 H   0  0  0  0  0  0
  -27.8364  -11.3358   18.7749 H   0  0  0  0  0  0
  -27.3573  -12.6969   17.7965 H   0  0  0  0  0  0
  -27.7567  -14.2518   19.6777 H   0  0  0  0  0  0
  -28.6407  -11.7999   21.2668 H   0  0  0  0  0  0
  -28.3989  -13.3680   21.9331 H   0  0  0  0  0  0
  -25.2791   -9.5603   22.4790 H   0  0  0  0  0  0
  -24.0001   -7.4588   22.7461 H   0  0  0  0  0  0
  -21.0883   -8.8769   19.8945 H   0  0  0  0  0  0
  -22.3758  -10.9673   19.6162 H   0  0  0  0  0  0
  -21.1992   -7.6142   23.9722 H   0  0  0  0  0  0
  -21.1496   -6.0524   25.9089 H   0  0  0  0  0  0
  -22.0604   -2.7609   23.2851 H   0  0  0  0  0  0
  -22.4110  -11.9843   22.4756 H   0  0  0  0  0  0
  -21.1095  -13.1197   22.2628 H   0  0  0  0  0  0
  -24.6787  -15.8493   20.5271 H   0  0  0  0  0  0
  -26.3011  -15.6264   20.1231 H   0  0  0  0  0  0
  -26.7077  -32.5553   23.1139 H   0  0  0  0  0  0
  -25.0061  -33.9776   25.0466 H   0  0  0  0  0  0
  -22.6861  -31.3046   21.4027 H   0  0  0  0  0  0
  -23.3731  -35.9689   23.3332 H   0  0  0  0  0  0
  -24.3585  -36.8936   22.2041 H   0  0  0  0  0  0
  -23.7281  -37.6556   23.6646 H   0  0  0  0  0  0
  -26.0354  -31.6086   20.5944 H   0  0  0  0  0  0
  -26.8118  -30.8948   21.9804 H   0  0  0  0  0  0
  -28.0974  -29.1336   21.1508 H   0  0  0  0  0  0
  -26.0893  -25.9622   19.0358 H   0  0  0  0  0  0
  -23.9824  -27.2717   19.0556 H   0  0  0  0  0  0
  -23.7114  -30.5854   19.3984 H   0  0  0  0  0  0
  -22.7336  -29.2333   19.8699 H   0  0  0  0  0  0
  -25.1286  -36.1969   25.0810 H   0  0  0  0  0  0
  -20.9871  -28.3354   24.1437 H   0  0  0  0  0  0
  -20.5850  -26.2265   23.3567 H   0  0  0  0  0  0
  -21.6620  -26.7572   22.1113 H   0  0  0  0  0  0
  -19.6942  -25.6563   21.0927 H   0  0  0  0  0  0
  -19.6760  -27.3488   20.6843 H   0  0  0  0  0  0
  -17.4240  -26.6700   21.3963 H   0  0  0  0  0  0
  -18.0429  -26.0048   22.8855 H   0  0  0  0  0  0
  -19.7740  -30.7282   24.2611 H   0  0  0  0  0  0
  -17.4817  -31.6133   24.5477 H   0  0  0  0  0  0
  -15.5222  -30.2929   23.7557 H   0  0  0  0  0  0
  -15.8653  -28.1020   22.6611 H   0  0  0  0  0  0
  -24.5906  -30.7055   25.7873 H   0  0  0  0  0  0
  -24.8974  -32.2871   26.4974 H   0  0  0  0  0  0
  -25.8153  -30.8885   27.0215 H   0  0  0  0  0  0
  -26.2823  -29.6814   24.1150 H   0  0  0  0  0  0
  -27.3997  -29.7258   25.4581 H   0  0  0  0  0  0
  -27.8679  -30.4332   23.9278 H   0  0  0  0  0  0
  -27.2591  -33.3587   26.2131 H   0  0  0  0  0  0
  -28.3831  -32.6953   25.0347 H   0  0  0  0  0  0
  -28.0686  -31.8420   26.5401 H   0  0  0  0  0  0
  -28.2579  -38.0111   24.7462 H   0  0  0  0  0  0
  -28.1069  -36.2638   24.6324 H   0  0  0  0  0  0
  -27.2281  -37.1510   25.8850 H   0  0  0  0  0  0
  -20.9281  -29.8612   21.6748 H   0  0  0  0  0  0
  -26.0185  -38.2864   24.1401 H   0  0  0  0  0  0
  -27.6559  -17.6949   23.8179 H   0  0  0  0  0  0
  -26.1142  -19.6415   23.4207 H   0  0  0  0  0  0
  -30.3714  -17.6168   24.9084 H   0  0  0  0  0  0
  -31.0424  -16.1067   24.3107 H   0  0  0  0  0  0
  -29.3043  -16.3017   24.4438 H   0  0  0  0  0  0
  -28.4374  -21.6002   19.8723 H   0  0  0  0  0  0
  -30.0830  -21.7350   20.4548 H   0  0  0  0  0  0
  -27.7706  -23.1678   21.8294 H   0  0  0  0  0  0
  -29.4721  -23.3857   22.1233 H   0  0  0  0  0  0
  -27.9081  -24.1311   19.5608 H   0  0  0  0  0  0
  -29.6326  -24.3600   19.7426 H   0  0  0  0  0  0
  -30.1210  -16.9149   20.6475 H   0  0  0  0  0  0
  -28.7008  -16.4854   21.5285 H   0  0  0  0  0  0
  -29.2736  -25.8699   21.6748 H   0  0  0  0  0  0
  -27.5441  -25.6163   21.5874 H   0  0  0  0  0  0
  -31.2090  -17.7764   22.5427 H   0  0  0  0  0  0
  -29.4425  -14.5352   22.2389 H   0  0  0  0  0  0
  1 25  1  0  0  0
  1 30  2  0  0  0
  1 84  1  0  0  0
  2  3  1  0  0  0
  2 25  1  0  0  0
  2 85  1  0  0  0
  2 86  1  0  0  0
  3  4  1  0  0  0
  3 87  1  0  0  0
  3 88  1  0  0  0
  4  5  1  0  0  0
  4 89  1  0  0  0
  4 90  1  0  0  0
  5  6  1  0  0  0
  5 26  1  0  0  0
  5 91  1  0  0  0
  6 25  1  0  0  0
  6 92  1  0  0  0
  6 93  1  0  0  0
  7  8  2  0  0  0
  7 26  1  0  0  0
  7 29  1  0  0  0
  8  9  1  0  0  0
  8 22  1  0  0  0
  9 10  1  0  0  0
  9 27  2  0  0  0
 10 11  2  0  0  0
 10 15  1  0  0  0
 11 12  1  0  0  0
 11 94  1  0  0  0
 12 13  2  0  0  0
 12 95  1  0  0  0
 13 14  1  0  0  0
 13 31  1  0  0  0
 14 15  2  0  0  0
 14 96  1  0  0  0
 15 97  1  0  0  0
 16 17  2  0  0  0
 16 21  1  0  0  0
 16 31  1  0  0  0
 17 18  1  0  0  0
 17 98  1  0  0  0
 18 19  2  0  0  0
 18 99  1  0  0  0
 19 20  1  0  0  0
 19 24  1  0  0  0
 20 21  2  0  0  0
 20100  1  0  0  0
 21 23  1  0  0  0
 22 28  1  0  0  0
 22 32  2  0  0  0
 26 27  1  0  0  0
 28101  1  0  0  0
 28102  1  0  0  0
 29103  1  0  0  0
 29104  1  0  0  0
 33 34  1  0  0  0
 33 66  1  0  0  0
 33 70  2  0  0  0
 34 36  1  0  0  0
 34 59  1  0  0  0
 34105  1  0  0  0
 35 44  2  0  0  0
 35 45  1  0  0  0
 35 68  1  0  0  0
 36 56  1  0  0  0
 36106  1  0  0  0
 37 39  1  0  0  0
 37 47  1  0  0  0
 37 66  1  0  0  0
 37107  1  0  0  0
 38 43  2  0  0  0
 38 46  1  0  0  0
 38 47  1  0  0  0
 39 64  1  0  0  0
 39 67  2  0  0  0
 40 52  1  0  0  0
 40 53  2  0  0  0
 40 58  1  0  0  0
 41108  1  0  0  0
 41109  1  0  0  0
 41110  1  0  0  0
 41 48  1  0  0  0
 42 43  1  0  0  0
 42 66  1  0  0  0
 42111  1  0  0  0
 42112  1  0  0  0
 43 44  1  0  0  0
 44113  1  0  0  0
 45 46  2  0  0  0
 45114  1  0  0  0
 46115  1  0  0  0
 47116  1  0  0  0
 47117  1  0  0  0
 48 56  1  0  0  0
 48 65  1  0  0  0
 48118  1  0  0  0
 49 50  1  0  0  0
 49 53  1  0  0  0
 49 64  1  0  0  0
 49119  1  0  0  0
 50 51  1  0  0  0
 50120  1  0  0  0
 50121  1  0  0  0
 51 52  1  0  0  0
 51122  1  0  0  0
 51123  1  0  0  0
 52124  1  0  0  0
 52125  1  0  0  0
 53 54  1  0  0  0
 54 55  2  0  0  0
 54126  1  0  0  0
 55 57  1  0  0  0
 55127  1  0  0  0
 56 69  2  0  0  0
 57 58  2  0  0  0
 57128  1  0  0  0
 58129  1  0  0  0
 59 60  1  0  0  0
 59 61  1  0  0  0
 59 62  1  0  0  0
 60130  1  0  0  0
 60131  1  0  0  0
 60132  1  0  0  0
 61133  1  0  0  0
 61134  1  0  0  0
 61135  1  0  0  0
 62136  1  0  0  0
 62137  1  0  0  0
 62138  1  0  0  0
 63 65  1  0  0  0
 63139  1  0  0  0
 63140  1  0  0  0
 63141  1  0  0  0
 64142  1  0  0  0
 65143  1  0  0  0
 68 80  1  0  0  0
 71 72  2  0  0  0
 71 73  1  0  0  0
 71144  1  0  0  0
 72 82  1  0  0  0
 72145  1  0  0  0
 73 81  1  0  0  0
 73 83  2  0  0  0
 74 76  1  0  0  0
 74 82  2  0  0  0
 74 83  1  0  0  0
 75146  1  0  0  0
 75147  1  0  0  0
 75148  1  0  0  0
 75 81  1  0  0  0
 76 77  1  0  0  0
 76149  1  0  0  0
 76150  1  0  0  0
 77 78  1  0  0  0
 77151  1  0  0  0
 77152  1  0  0  0
 78 80  1  0  0  0
 78153  1  0  0  0
 78154  1  0  0  0
 79 81  1  0  0  0
 79 84  1  0  0  0
 79155  1  0  0  0
 79156  1  0  0  0
 80157  1  0  0  0
 80158  1  0  0  0
 81159  1  0  0  0
 84160  1  0  0  0
M  ISO  4   1 100  68 101  80 101  84 100
M  END
> <chiral flag>
0

> <version>
0

> <s_m_source_file>
/data/baiqing/PycharmProjects/Reinvent-master-3.2/result/LINK_invent/BTK/process_docking_weight1_custom_sum_contain_oxygen_bond_distance_aromatic_linkinvent_7_9_3/rearranged_h_0081.sdf

> <i_m_source_file_index>
82

> <r_mmod_Potential_Energy-OPLS-2005>
-460.795043945312

> <r_mmod_Stretch_Energy-OPLS-2005>
33.0474166870117

> <r_mmod_Bend_Energy-OPLS-2005>
103.088111877441

> <r_mmod_Torsional_Energy-OPLS-2005>
243.174240112305

> <r_mmod_Improper_Torsional_Energy-OPLS-2005>
6.41930437088013

> <r_mmod_Van_der_Waal_Energy-OPLS-2005>
162.447860717773

> <r_mmod_Electrostatic_Energy-OPLS-2005>
-789.351257324219

> <r_mmod_Solvation_Energy-OPLS-2005>
-230.584106445312

> <b_mmod_Minimization_Converged-OPLS-2005>
0

> <r_mmod_RMS_Derivative-OPLS-2005>
8.74254894256592

$$$$
82
                    3D
 Structure written by MMmdl.
167174  0  0  1  0            999 V2000
  -30.5682  -14.8589   20.4275 C   0  0  0  0  0  0
  -30.4334  -12.5298   19.4797 C   0  0  0  0  0  0
  -29.5075  -12.5048   18.2428 C   0  0  0  0  0  0
  -28.0432  -12.3022   18.6724 C   0  0  0  0  0  0
  -27.6320  -13.2360   19.8404 C   0  0  2  0  0  0
  -28.6764  -13.2369   20.9762 C   0  0  0  0  0  0
  -25.2491  -13.8191   20.5714 C   0  0  0  0  0  0
  -24.1801  -13.0430   20.9228 C   0  0  0  0  0  0
  -24.6394  -11.6913   20.8772 C   0  0  0  0  0  0
  -23.9082  -10.4287   21.0423 C   0  0  0  0  0  0
  -24.3621   -9.4200   21.9203 C   0  0  0  0  0  0
  -23.6293   -8.2238   22.0762 C   0  0  0  0  0  0
  -22.4281   -8.0279   21.3544 C   0  0  0  0  0  0
  -21.9928   -9.0252   20.4645 C   0  0  0  0  0  0
  -22.7261  -10.2133   20.3060 C   0  0  0  0  0  0
  -21.6856   -6.0742   22.5280 C   0  0  0  0  0  0
  -21.4011   -6.5647   23.8215 C   0  0  0  0  0  0
  -21.3655   -5.6802   24.9173 C   0  0  0  0  0  0
  -21.6043   -4.3063   24.7231 C   0  0  0  0  0  0
  -21.8818   -3.8157   23.4348 C   0  0  0  0  0  0
  -21.9193   -4.6969   22.3406 C   0  0  0  0  0  0
  -22.7824  -13.5213   21.1867 C   0  0  0  0  0  0
  -22.1666   -4.2159   21.0985 F   0  0  0  0  0  0
  -21.5623   -3.4545   25.7736 F   0  0  0  0  0  0
  -29.9589  -13.6164   20.3753 N   0  0  0  0  0  0
  -26.2901  -12.9404   20.3269 N   0  0  0  0  0  0
  -25.9324  -11.6545   20.5779 N   0  0  0  0  0  0
  -22.0473  -12.8186   22.0404 N   0  0  0  0  0  0
  -25.4187  -15.1912   20.4102 N   0  0  0  0  0  0
  -31.7715  -14.9320   20.1641 O   0  0  0  0  0  0
  -21.6638   -6.8877   21.4241 O   0  0  0  0  0  0
  -22.3519  -14.5527   20.6718 O   0  0  0  0  0  0
  -24.6375  -31.8482   23.1880 C   0  0  0  0  0  0
  -25.9157  -32.4728   23.8289 C   0  0  1  0  0  0
  -27.2220  -27.1940   20.1396 C   0  0  0  0  0  0
  -25.5903  -33.8530   24.2209 N   0  0  0  0  0  0
  -23.4373  -30.4686   21.5342 C   0  0  2  0  0  0
  -24.8868  -28.8983   20.1109 C   0  0  0  0  0  0
  -22.7538  -29.4576   22.4867 C   0  0  0  0  0  0
  -18.0285  -28.1381   22.8442 C   0  0  0  0  0  0
  -24.1472  -36.7277   23.2652 C   0  0  0  0  0  0
  -25.9885  -30.7454   21.3710 C   0  0  0  0  0  0
  -26.0641  -29.3590   20.7154 C   0  0  0  0  0  0
  -27.2351  -28.5237   20.7077 C   0  0  0  0  0  0
  -26.0198  -26.8105   19.5108 C   0  0  0  0  0  0
  -24.8756  -27.6352   19.4955 C   0  0  0  0  0  0
  -23.6604  -29.7943   20.1544 C   0  0  0  0  0  0
  -25.4100  -36.3064   24.0333 C   0  0  1  0  0  0
  -20.5899  -28.3697   23.1221 C   0  0  2  0  0  0
  -20.6777  -26.9407   22.5374 C   0  0  0  0  0  0
  -19.5757  -26.6367   21.5172 C   0  0  0  0  0  0
  -18.1931  -26.7912   22.1583 C   0  0  0  0  0  0
  -19.1547  -28.8853   23.2824 C   0  0  0  0  0  0
  -18.9480  -30.1439   23.8864 C   0  0  0  0  0  0
  -17.6488  -30.6579   24.0556 C   0  0  0  0  0  0
  -25.9045  -34.9436   23.5087 C   0  0  0  0  0  0
  -16.5368  -29.9078   23.6338 C   0  0  0  0  0  0
  -16.7280  -28.6498   23.0343 C   0  0  0  0  0  0
  -26.4496  -31.6579   25.0709 C   0  0  0  0  0  0
  -25.3691  -31.3711   26.1402 C   0  0  0  0  0  0
  -27.0400  -30.3018   24.6212 C   0  0  0  0  0  0
  -27.6023  -32.4347   25.7512 C   0  0  0  0  0  0
  -27.5555  -37.1797   24.8466 C   0  0  0  0  0  0
  -21.4237  -29.3049   22.3626 N   0  0  0  0  0  0
  -26.4266  -37.3765   23.9414 N   0  0  0  0  0  0
  -24.7085  -31.0395   22.0885 N   0  0  0  0  0  0
  -23.4225  -28.8119   23.2980 O   0  0  0  0  0  0
  -28.3052  -26.2656   20.1888 O   0  0  0  0  0  0
  -26.5641  -34.8927   22.4671 O   0  0  0  0  0  0
  -23.5504  -32.1312   23.7136 O   0  0  0  0  0  0
  -33.1483  -20.5572   20.3620 C   0  0  0  0  0  0
  -27.5662  -21.8565   21.4683 C   0  0  0  0  0  0
  -27.8928  -18.5376   20.9679 C   0  0  0  0  0  0
  -30.2981  -20.5973   21.8741 C   0  0  0  0  0  0
  -32.1357  -20.1457   19.2797 C   0  0  0  0  0  0
  -30.7442  -20.8105   19.3668 C   0  0  0  0  0  0
  -29.0538  -23.3557   20.0665 C   0  0  0  0  0  0
  -30.2266  -17.5252   20.6026 C   0  0  0  0  0  0
  -28.0985  -24.7452   20.0972 C   0  0  0  0  0  0
  -28.5826  -21.7656   20.3147 C   0  0  1  0  0  0
  -29.2297  -18.8356   20.2786 C   0  0  2  0  0  0
  -29.6790  -20.4674   20.4651 C   0  0  2  0  0  0
  -29.7953  -16.0268   20.5701 N   0  0  0  0  0  0
  -31.4676  -12.6775   19.1647 H   0  0  0  0  0  0
  -30.4125  -11.5709   19.9995 H   0  0  0  0  0  0
  -29.8081  -11.7080   17.5611 H   0  0  0  0  0  0
  -29.6044  -13.4387   17.6875 H   0  0  0  0  0  0
  -27.9391  -11.2624   18.9845 H   0  0  0  0  0  0
  -27.3710  -12.4321   17.8233 H   0  0  0  0  0  0
  -27.6061  -14.2414   19.4195 H   0  0  0  0  0  0
  -28.7449  -12.2594   21.4545 H   0  0  0  0  0  0
  -28.3933  -13.9449   21.7563 H   0  0  0  0  0  0
  -25.2760   -9.5680   22.4793 H   0  0  0  0  0  0
  -24.0003   -7.4630   22.7485 H   0  0  0  0  0  0
  -21.0868   -8.8777   19.8938 H   0  0  0  0  0  0
  -22.3733  -10.9672   19.6170 H   0  0  0  0  0  0
  -21.2003   -7.6155   23.9720 H   0  0  0  0  0  0
  -21.1475   -6.0530   25.9079 H   0  0  0  0  0  0
  -22.0599   -2.7617   23.2850 H   0  0  0  0  0  0
  -22.4106  -11.9821   22.4739 H   0  0  0  0  0  0
  -21.1092  -13.1191   22.2625 H   0  0  0  0  0  0
  -24.6469  -15.8409   20.5075 H   0  0  0  0  0  0
  -26.2570  -15.6263   20.0500 H   0  0  0  0  0  0
  -26.7249  -32.5386   23.1060 H   0  0  0  0  0  0
  -25.0077  -33.9651   25.0377 H   0  0  0  0  0  0
  -22.7372  -31.2930   21.3804 H   0  0  0  0  0  0
  -23.3746  -35.9594   23.3301 H   0  0  0  0  0  0
  -24.3569  -36.8909   22.2064 H   0  0  0  0  0  0
  -23.7201  -37.6467   23.6692 H   0  0  0  0  0  0
  -26.1202  -31.5003   20.5947 H   0  0  0  0  0  0
  -26.8689  -30.8104   21.9988 H   0  0  0  0  0  0
  -28.1400  -28.8740   21.1843 H   0  0  0  0  0  0
  -25.9482  -25.8391   19.0437 H   0  0  0  0  0  0
  -23.9742  -27.2748   19.0182 H   0  0  0  0  0  0
  -23.7921  -30.5684   19.3978 H   0  0  0  0  0  0
  -22.7774  -29.2332   19.8435 H   0  0  0  0  0  0
  -25.1276  -36.1922   25.0823 H   0  0  0  0  0  0
  -20.9974  -28.3273   24.1352 H   0  0  0  0  0  0
  -20.5642  -26.2312   23.3588 H   0  0  0  0  0  0
  -21.6649  -26.7411   22.1188 H   0  0  0  0  0  0
  -19.6936  -25.6275   21.1209 H   0  0  0  0  0  0
  -19.6695  -27.3168   20.6697 H   0  0  0  0  0  0
  -17.4196  -26.6629   21.3992 H   0  0  0  0  0  0
  -18.0354  -26.0051   22.8983 H   0  0  0  0  0  0
  -19.7974  -30.7226   24.2236 H   0  0  0  0  0  0
  -17.5066  -31.6263   24.5158 H   0  0  0  0  0  0
  -15.5373  -30.2991   23.7684 H   0  0  0  0  0  0
  -15.8665  -28.0824   22.7088 H   0  0  0  0  0  0
  -24.5911  -30.7017   25.7707 H   0  0  0  0  0  0
  -24.8825  -32.2865   26.4788 H   0  0  0  0  0  0
  -25.7968  -30.8923   27.0219 H   0  0  0  0  0  0
  -26.3031  -29.6721   24.1216 H   0  0  0  0  0  0
  -27.4103  -29.7307   25.4738 H   0  0  0  0  0  0
  -27.8868  -30.4335   23.9470 H   0  0  0  0  0  0
  -27.2637  -33.3699   26.1990 H   0  0  0  0  0  0
  -28.3894  -32.6814   25.0372 H   0  0  0  0  0  0
  -28.0633  -31.8538   26.5509 H   0  0  0  0  0  0
  -28.2550  -38.0113   24.7543 H   0  0  0  0  0  0
  -28.1073  -36.2646   24.6276 H   0  0  0  0  0  0
  -27.2284  -37.1431   25.8870 H   0  0  0  0  0  0
  -20.9437  -29.8830   21.6865 H   0  0  0  0  0  0
  -26.0148  -38.2835   24.1428 H   0  0  0  0  0  0
  -34.1595  -20.2917   20.0557 H   0  0  0  0  0  0
  -32.9796  -20.0619   21.3158 H   0  0  0  0  0  0
  -33.1291  -21.6351   20.5283 H   0  0  0  0  0  0
  -26.7437  -22.5191   21.1943 H   0  0  0  0  0  0
  -28.0266  -22.2691   22.3668 H   0  0  0  0  0  0
  -27.1163  -20.9074   21.7363 H   0  0  0  0  0  0
  -27.6033  -17.4928   20.8621 H   0  0  0  0  0  0
  -27.0838  -19.1135   20.5217 H   0  0  0  0  0  0
  -27.9441  -18.7499   22.0353 H   0  0  0  0  0  0
  -30.8254  -21.5437   21.9980 H   0  0  0  0  0  0
  -31.0032  -19.7991   22.0894 H   0  0  0  0  0  0
  -29.5441  -20.5351   22.6580 H   0  0  0  0  0  0
  -32.0967  -19.0734   19.1580 H   0  0  0  0  0  0
  -32.5575  -20.4868   18.3336 H   0  0  0  0  0  0
  -30.2577  -20.6898   18.3975 H   0  0  0  0  0  0
  -30.9975  -21.8640   19.4302 H   0  0  0  0  0  0
  -29.8916  -23.5375   20.7411 H   0  0  0  0  0  0
  -29.5100  -23.3241   19.0752 H   0  0  0  0  0  0
  -30.6453  -17.6672   21.5979 H   0  0  0  0  0  0
  -31.0777  -17.5460   19.9362 H   0  0  0  0  0  0
  -28.7509  -25.0801   19.2915 H   0  0  0  0  0  0
  -28.2381  -24.8206   21.1764 H   0  0  0  0  0  0
  -28.0003  -21.5080   19.4287 H   0  0  0  0  0  0
  -29.0103  -18.7399   19.2141 H   0  0  0  0  0  0
  -28.8085  -15.8642   20.7048 H   0  0  0  0  0  0
  1 25  1  0  0  0
  1 30  2  0  0  0
  1 83  1  0  0  0
  2  3  1  0  0  0
  2 25  1  0  0  0
  2 84  1  0  0  0
  2 85  1  0  0  0
  3  4  1  0  0  0
  3 86  1  0  0  0
  3 87  1  0  0  0
  4  5  1  0  0  0
  4 88  1  0  0  0
  4 89  1  0  0  0
  5  6  1  0  0  0
  5 26  1  0  0  0
  5 90  1  0  0  0
  6 25  1  0  0  0
  6 91  1  0  0  0
  6 92  1  0  0  0
  7  8  2  0  0  0
  7 26  1  0  0  0
  7 29  1  0  0  0
  8  9  1  0  0  0
  8 22  1  0  0  0
  9 10  1  0  0  0
  9 27  2  0  0  0
 10 11  2  0  0  0
 10 15  1  0  0  0
 11 12  1  0  0  0
 11 93  1  0  0  0
 12 13  2  0  0  0
 12 94  1  0  0  0
 13 14  1  0  0  0
 13 31  1  0  0  0
 14 15  2  0  0  0
 14 95  1  0  0  0
 15 96  1  0  0  0
 16 17  2  0  0  0
 16 21  1  0  0  0
 16 31  1  0  0  0
 17 18  1  0  0  0
 17 97  1  0  0  0
 18 19  2  0  0  0
 18 98  1  0  0  0
 19 20  1  0  0  0
 19 24  1  0  0  0
 20 21  2  0  0  0
 20 99  1  0  0  0
 21 23  1  0  0  0
 22 28  1  0  0  0
 22 32  2  0  0  0
 26 27  1  0  0  0
 28100  1  0  0  0
 28101  1  0  0  0
 29102  1  0  0  0
 29103  1  0  0  0
 33 34  1  0  0  0
 33 66  1  0  0  0
 33 70  2  0  0  0
 34 36  1  0  0  0
 34 59  1  0  0  0
 34104  1  0  0  0
 35 44  2  0  0  0
 35 45  1  0  0  0
 35 68  1  0  0  0
 36 56  1  0  0  0
 36105  1  0  0  0
 37 39  1  0  0  0
 37 47  1  0  0  0
 37 66  1  0  0  0
 37106  1  0  0  0
 38 43  2  0  0  0
 38 46  1  0  0  0
 38 47  1  0  0  0
 39 64  1  0  0  0
 39 67  2  0  0  0
 40 52  1  0  0  0
 40 53  2  0  0  0
 40 58  1  0  0  0
 41107  1  0  0  0
 41108  1  0  0  0
 41109  1  0  0  0
 41 48  1  0  0  0
 42 43  1  0  0  0
 42 66  1  0  0  0
 42110  1  0  0  0
 42111  1  0  0  0
 43 44  1  0  0  0
 44112  1  0  0  0
 45 46  2  0  0  0
 45113  1  0  0  0
 46114  1  0  0  0
 47115  1  0  0  0
 47116  1  0  0  0
 48 56  1  0  0  0
 48 65  1  0  0  0
 48117  1  0  0  0
 49 50  1  0  0  0
 49 53  1  0  0  0
 49 64  1  0  0  0
 49118  1  0  0  0
 50 51  1  0  0  0
 50119  1  0  0  0
 50120  1  0  0  0
 51 52  1  0  0  0
 51121  1  0  0  0
 51122  1  0  0  0
 52123  1  0  0  0
 52124  1  0  0  0
 53 54  1  0  0  0
 54 55  2  0  0  0
 54125  1  0  0  0
 55 57  1  0  0  0
 55126  1  0  0  0
 56 69  2  0  0  0
 57 58  2  0  0  0
 57127  1  0  0  0
 58128  1  0  0  0
 59 60  1  0  0  0
 59 61  1  0  0  0
 59 62  1  0  0  0
 60129  1  0  0  0
 60130  1  0  0  0
 60131  1  0  0  0
 61132  1  0  0  0
 61133  1  0  0  0
 61134  1  0  0  0
 62135  1  0  0  0
 62136  1  0  0  0
 62137  1  0  0  0
 63 65  1  0  0  0
 63138  1  0  0  0
 63139  1  0  0  0
 63140  1  0  0  0
 64141  1  0  0  0
 65142  1  0  0  0
 68 79  1  0  0  0
 71 75  1  0  0  0
 71143  1  0  0  0
 71144  1  0  0  0
 71145  1  0  0  0
 72146  1  0  0  0
 72147  1  0  0  0
 72148  1  0  0  0
 72 80  1  0  0  0
 73149  1  0  0  0
 73150  1  0  0  0
 73151  1  0  0  0
 73 81  1  0  0  0
 74152  1  0  0  0
 74153  1  0  0  0
 74154  1  0  0  0
 74 82  1  0  0  0
 75 76  1  0  0  0
 75155  1  0  0  0
 75156  1  0  0  0
 76 82  1  0  0  0
 76157  1  0  0  0
 76158  1  0  0  0
 77 79  1  0  0  0
 77 80  1  0  0  0
 77159  1  0  0  0
 77160  1  0  0  0
 78 81  1  0  0  0
 78 83  1  0  0  0
 78161  1  0  0  0
 78162  1  0  0  0
 79163  1  0  0  0
 79164  1  0  0  0
 80 82  1  0  0  0
 80165  1  0  0  0
 81 82  1  0  0  0
 81166  1  0  0  0
 83167  1  0  0  0
M  ISO  4   1 100  68 101  79 101  83 100
M  END
> <chiral flag>
0

> <version>
0

> <s_m_source_file>
/data/baiqing/PycharmProjects/Reinvent-master-3.2/result/LINK_invent/BTK/process_docking_weight1_custom_sum_contain_oxygen_bond_distance_aromatic_linkinvent_7_9_3/rearranged_h_0081.sdf

> <i_m_source_file_index>
83

> <r_mmod_Potential_Energy-OPLS-2005>
672.627685546875

> <r_mmod_Stretch_Energy-OPLS-2005>
249.728637695312

> <r_mmod_Bend_Energy-OPLS-2005>
475.930999755859

> <r_mmod_Torsional_Energy-OPLS-2005>
259.741943359375

> <r_mmod_Improper_Torsional_Energy-OPLS-2005>
4.35796928405762

> <r_mmod_Van_der_Waal_Energy-OPLS-2005>
133.18342590332

> <r_mmod_Electrostatic_Energy-OPLS-2005>
-398.621490478516

> <r_mmod_Solvation_Energy-OPLS-2005>
-190.070617675781

> <b_mmod_Minimization_Converged-OPLS-2005>
0

> <r_mmod_RMS_Derivative-OPLS-2005>
2.40690541267395

$$$$
83
                    3D
 Structure written by MMmdl.
162170  0  0  1  0            999 V2000
  -30.7269  -14.4931   20.6303 C   0  0  0  0  0  0
  -30.4217  -12.3376   19.4400 C   0  0  0  0  0  0
  -29.4989  -12.5186   18.2154 C   0  0  0  0  0  0
  -28.0194  -12.3672   18.6189 C   0  0  0  0  0  0
  -27.6567  -13.2113   19.8675 C   0  0  2  0  0  0
  -28.6900  -13.0015   20.9922 C   0  0  0  0  0  0
  -25.2550  -13.8171   20.5670 C   0  0  0  0  0  0
  -24.1813  -13.0438   20.9168 C   0  0  0  0  0  0
  -24.6377  -11.6910   20.8720 C   0  0  0  0  0  0
  -23.9054  -10.4295   21.0397 C   0  0  0  0  0  0
  -24.3615   -9.4209   21.9172 C   0  0  0  0  0  0
  -23.6289   -8.2245   22.0749 C   0  0  0  0  0  0
  -22.4267   -8.0292   21.3548 C   0  0  0  0  0  0
  -21.9897   -9.0262   20.4641 C   0  0  0  0  0  0
  -22.7223  -10.2136   20.3042 C   0  0  0  0  0  0
  -21.6850   -6.0732   22.5280 C   0  0  0  0  0  0
  -21.4017   -6.5635   23.8215 C   0  0  0  0  0  0
  -21.3655   -5.6780   24.9175 C   0  0  0  0  0  0
  -21.6039   -4.3048   24.7221 C   0  0  0  0  0  0
  -21.8814   -3.8142   23.4343 C   0  0  0  0  0  0
  -21.9189   -4.6955   22.3399 C   0  0  0  0  0  0
  -22.7830  -13.5217   21.1838 C   0  0  0  0  0  0
  -22.1648   -4.2140   21.0974 F   0  0  0  0  0  0
  -21.5645   -3.4537   25.7740 F   0  0  0  0  0  0
  -30.0269  -13.3271   20.4623 N   0  0  0  0  0  0
  -26.2977  -12.9346   20.3301 N   0  0  0  0  0  0
  -25.9294  -11.6504   20.5717 N   0  0  0  0  0  0
  -22.0484  -12.8216   22.0413 N   0  0  0  0  0  0
  -25.4262  -15.1899   20.4110 N   0  0  0  0  0  0
  -31.8034  -14.6810   20.0515 O   0  0  0  0  0  0
  -21.6635   -6.8880   21.4244 O   0  0  0  0  0  0
  -22.3504  -14.5525   20.6687 O   0  0  0  0  0  0
  -24.6176  -31.8655   23.2080 C   0  0  0  0  0  0
  -25.9057  -32.4810   23.8387 C   0  0  1  0  0  0
  -27.2254  -27.4093   20.1079 C   0  0  0  0  0  0
  -25.5900  -33.8612   24.2313 N   0  0  0  0  0  0
  -23.4073  -30.4890   21.5490 C   0  0  2  0  0  0
  -24.8544  -28.9535   20.1113 C   0  0  0  0  0  0
  -22.7430  -29.4645   22.4977 C   0  0  0  0  0  0
  -18.0281  -28.1374   22.8488 C   0  0  0  0  0  0
  -24.1490  -36.7312   23.2638 C   0  0  0  0  0  0
  -25.9391  -30.8261   21.3639 C   0  0  0  0  0  0
  -26.0172  -29.4598   20.7077 C   0  0  0  0  0  0
  -27.2113  -28.6969   20.6973 C   0  0  0  0  0  0
  -26.0498  -26.9265   19.4972 C   0  0  0  0  0  0
  -24.8665  -27.6880   19.4996 C   0  0  0  0  0  0
  -23.6173  -29.8224   20.1627 C   0  0  0  0  0  0
  -25.4111  -36.3109   24.0338 C   0  0  1  0  0  0
  -20.5871  -28.3664   23.1307 C   0  0  2  0  0  0
  -20.6772  -26.9396   22.5415 C   0  0  0  0  0  0
  -19.5751  -26.6380   21.5211 C   0  0  0  0  0  0
  -18.1925  -26.7923   22.1618 C   0  0  0  0  0  0
  -19.1530  -28.8839   23.2895 C   0  0  0  0  0  0
  -18.9456  -30.1443   23.8908 C   0  0  0  0  0  0
  -17.6456  -30.6577   24.0562 C   0  0  0  0  0  0
  -25.9038  -34.9472   23.5125 C   0  0  0  0  0  0
  -16.5349  -29.9080   23.6324 C   0  0  0  0  0  0
  -16.7270  -28.6495   23.0350 C   0  0  0  0  0  0
  -26.4478  -31.6597   25.0722 C   0  0  0  0  0  0
  -25.3739  -31.3708   26.1468 C   0  0  0  0  0  0
  -27.0309  -30.3035   24.6108 C   0  0  0  0  0  0
  -27.6053  -32.4321   25.7483 C   0  0  0  0  0  0
  -27.5582  -37.1810   24.8465 C   0  0  0  0  0  0
  -21.4157  -29.3029   22.3714 N   0  0  0  0  0  0
  -26.4297  -37.3789   23.9407 N   0  0  0  0  0  0
  -24.6730  -31.0746   22.0984 N   0  0  0  0  0  0
  -23.4187  -28.8180   23.3022 O   0  0  0  0  0  0
  -28.3482  -26.6055   20.1368 O   0  0  0  0  0  0
  -26.5602  -34.8925   22.4687 O   0  0  0  0  0  0
  -23.5361  -32.1415   23.7460 O   0  0  0  0  0  0
  -28.9386  -21.4453   20.7340 C   0  0  0  0  0  0
  -29.8658  -21.0489   19.7186 C   0  0  0  0  0  0
  -28.5228  -20.2363   21.2499 C   0  0  0  0  0  0
  -30.6873  -21.9091   18.8034 C   0  0  0  0  0  0
  -27.5542  -19.9539   22.3549 C   0  0  0  0  0  0
  -29.9130  -15.3837   22.7526 C   0  0  0  0  0  0
  -28.4988  -22.8415   21.2143 C   0  0  0  0  0  0
  -28.7259  -24.0823   20.2899 C   0  0  0  0  0  0
  -29.0085  -17.7422   20.6929 C   0  0  0  0  0  0
  -30.3296  -16.9467   20.9131 C   0  0  0  0  0  0
  -28.1893  -25.4013   20.9267 C   0  0  0  0  0  0
  -29.9800  -19.7261   19.6198 N   0  0  0  0  0  0
  -29.1673  -19.2088   20.5675 N   0  0  0  0  0  0
  -30.1217  -15.5183   21.3030 N   0  0  0  0  0  0
  -31.4674  -12.4354   19.1439 H   0  0  0  0  0  0
  -30.3262  -11.3279   19.8419 H   0  0  0  0  0  0
  -29.7529  -11.7912   17.4428 H   0  0  0  0  0  0
  -29.6614  -13.5035   17.7731 H   0  0  0  0  0  0
  -27.8373  -11.3113   18.8226 H   0  0  0  0  0  0
  -27.3695  -12.6341   17.7846 H   0  0  0  0  0  0
  -27.6997  -14.2584   19.5711 H   0  0  0  0  0  0
  -28.6801  -11.9658   21.3353 H   0  0  0  0  0  0
  -28.3969  -13.5906   21.8560 H   0  0  0  0  0  0
  -25.2769   -9.5686   22.4730 H   0  0  0  0  0  0
  -24.0005   -7.4637   22.7468 H   0  0  0  0  0  0
  -21.0829   -8.8763   19.8947 H   0  0  0  0  0  0
  -22.3687  -10.9671   19.6144 H   0  0  0  0  0  0
  -21.2006   -7.6143   23.9720 H   0  0  0  0  0  0
  -21.1489   -6.0514   25.9081 H   0  0  0  0  0  0
  -22.0599   -2.7602   23.2845 H   0  0  0  0  0  0
  -22.4094  -11.9894   22.4827 H   0  0  0  0  0  0
  -21.1108  -13.1259   22.2617 H   0  0  0  0  0  0
  -24.6627  -15.8468   20.5310 H   0  0  0  0  0  0
  -26.2835  -15.6337   20.1079 H   0  0  0  0  0  0
  -26.7127  -32.5511   23.1151 H   0  0  0  0  0  0
  -25.0064  -33.9768   25.0468 H   0  0  0  0  0  0
  -22.6971  -31.3064   21.4088 H   0  0  0  0  0  0
  -23.3746  -35.9651   23.3318 H   0  0  0  0  0  0
  -24.3581  -36.8903   22.2046 H   0  0  0  0  0  0
  -23.7250  -37.6526   23.6645 H   0  0  0  0  0  0
  -26.0573  -31.5938   20.5978 H   0  0  0  0  0  0
  -26.8247  -30.8757   21.9857 H   0  0  0  0  0  0
  -28.1093  -29.0799   21.1625 H   0  0  0  0  0  0
  -26.0464  -25.9497   19.0340 H   0  0  0  0  0  0
  -23.9724  -27.2929   19.0373 H   0  0  0  0  0  0
  -23.7263  -30.5979   19.4040 H   0  0  0  0  0  0
  -22.7408  -29.2436   19.8662 H   0  0  0  0  0  0
  -25.1290  -36.1974   25.0831 H   0  0  0  0  0  0
  -20.9961  -28.3233   24.1430 H   0  0  0  0  0  0
  -20.5670  -26.2271   23.3604 H   0  0  0  0  0  0
  -21.6643  -26.7436   22.1208 H   0  0  0  0  0  0
  -19.6909  -25.6293   21.1237 H   0  0  0  0  0  0
  -19.6691  -27.3196   20.6745 H   0  0  0  0  0  0
  -17.4195  -26.6672   21.4021 H   0  0  0  0  0  0
  -18.0326  -26.0065   22.9014 H   0  0  0  0  0  0
  -19.7930  -30.7262   24.2278 H   0  0  0  0  0  0
  -17.5012  -31.6260   24.5158 H   0  0  0  0  0  0
  -15.5353  -30.2988   23.7648 H   0  0  0  0  0  0
  -15.8666  -28.0826   22.7062 H   0  0  0  0  0  0
  -24.5914  -30.7054   25.7807 H   0  0  0  0  0  0
  -24.8934  -32.2861   26.4929 H   0  0  0  0  0  0
  -25.8087  -30.8869   27.0220 H   0  0  0  0  0  0
  -26.2851  -29.6796   24.1166 H   0  0  0  0  0  0
  -27.4074  -29.7278   25.4573 H   0  0  0  0  0  0
  -27.8696  -30.4356   23.9268 H   0  0  0  0  0  0
  -27.2672  -33.3610   26.2093 H   0  0  0  0  0  0
  -28.3845  -32.6893   25.0298 H   0  0  0  0  0  0
  -28.0746  -31.8428   26.5369 H   0  0  0  0  0  0
  -28.2612  -38.0096   24.7502 H   0  0  0  0  0  0
  -28.1066  -36.2627   24.6313 H   0  0  0  0  0  0
  -27.2298  -37.1483   25.8867 H   0  0  0  0  0  0
  -20.9321  -29.8755   21.6937 H   0  0  0  0  0  0
  -26.0190  -38.2872   24.1393 H   0  0  0  0  0  0
  -30.0520  -22.5177   18.1600 H   0  0  0  0  0  0
  -31.3331  -21.3141   18.1556 H   0  0  0  0  0  0
  -31.3301  -22.5803   19.3727 H   0  0  0  0  0  0
  -27.2527  -20.8674   22.8643 H   0  0  0  0  0  0
  -27.9961  -19.2953   23.1026 H   0  0  0  0  0  0
  -26.6552  -19.4726   21.9701 H   0  0  0  0  0  0
  -30.1500  -14.3841   23.1230 H   0  0  0  0  0  0
  -28.8726  -15.5927   23.0030 H   0  0  0  0  0  0
  -30.5346  -16.0725   23.3250 H   0  0  0  0  0  0
  -28.9785  -23.0529   22.1704 H   0  0  0  0  0  0
  -27.4334  -22.8117   21.4467 H   0  0  0  0  0  0
  -28.2343  -23.9211   19.3306 H   0  0  0  0  0  0
  -29.7878  -24.2074   20.0856 H   0  0  0  0  0  0
  -28.3235  -17.5365   21.5137 H   0  0  0  0  0  0
  -28.5079  -17.3796   19.7945 H   0  0  0  0  0  0
  -30.9289  -17.4562   21.6686 H   0  0  0  0  0  0
  -30.9221  -17.0224   20.0002 H   0  0  0  0  0  0
  -28.7128  -25.5711   21.8684 H   0  0  0  0  0  0
  -27.1468  -25.2413   21.2085 H   0  0  0  0  0  0
  1 25  1  0  0  0
  1 30  2  0  0  0
  1 84  1  0  0  0
  2  3  1  0  0  0
  2 25  1  0  0  0
  2 85  1  0  0  0
  2 86  1  0  0  0
  3  4  1  0  0  0
  3 87  1  0  0  0
  3 88  1  0  0  0
  4  5  1  0  0  0
  4 89  1  0  0  0
  4 90  1  0  0  0
  5  6  1  0  0  0
  5 26  1  0  0  0
  5 91  1  0  0  0
  6 25  1  0  0  0
  6 92  1  0  0  0
  6 93  1  0  0  0
  7  8  2  0  0  0
  7 26  1  0  0  0
  7 29  1  0  0  0
  8  9  1  0  0  0
  8 22  1  0  0  0
  9 10  1  0  0  0
  9 27  2  0  0  0
 10 11  2  0  0  0
 10 15  1  0  0  0
 11 12  1  0  0  0
 11 94  1  0  0  0
 12 13  2  0  0  0
 12 95  1  0  0  0
 13 14  1  0  0  0
 13 31  1  0  0  0
 14 15  2  0  0  0
 14 96  1  0  0  0
 15 97  1  0  0  0
 16 17  2  0  0  0
 16 21  1  0  0  0
 16 31  1  0  0  0
 17 18  1  0  0  0
 17 98  1  0  0  0
 18 19  2  0  0  0
 18 99  1  0  0  0
 19 20  1  0  0  0
 19 24  1  0  0  0
 20 21  2  0  0  0
 20100  1  0  0  0
 21 23  1  0  0  0
 22 28  1  0  0  0
 22 32  2  0  0  0
 26 27  1  0  0  0
 28101  1  0  0  0
 28102  1  0  0  0
 29103  1  0  0  0
 29104  1  0  0  0
 33 34  1  0  0  0
 33 66  1  0  0  0
 33 70  2  0  0  0
 34 36  1  0  0  0
 34 59  1  0  0  0
 34105  1  0  0  0
 35 44  2  0  0  0
 35 45  1  0  0  0
 35 68  1  0  0  0
 36 56  1  0  0  0
 36106  1  0  0  0
 37 39  1  0  0  0
 37 47  1  0  0  0
 37 66  1  0  0  0
 37107  1  0  0  0
 38 43  2  0  0  0
 38 46  1  0  0  0
 38 47  1  0  0  0
 39 64  1  0  0  0
 39 67  2  0  0  0
 40 52  1  0  0  0
 40 53  2  0  0  0
 40 58  1  0  0  0
 41108  1  0  0  0
 41109  1  0  0  0
 41110  1  0  0  0
 41 48  1  0  0  0
 42 43  1  0  0  0
 42 66  1  0  0  0
 42111  1  0  0  0
 42112  1  0  0  0
 43 44  1  0  0  0
 44113  1  0  0  0
 45 46  2  0  0  0
 45114  1  0  0  0
 46115  1  0  0  0
 47116  1  0  0  0
 47117  1  0  0  0
 48 56  1  0  0  0
 48 65  1  0  0  0
 48118  1  0  0  0
 49 50  1  0  0  0
 49 53  1  0  0  0
 49 64  1  0  0  0
 49119  1  0  0  0
 50 51  1  0  0  0
 50120  1  0  0  0
 50121  1  0  0  0
 51 52  1  0  0  0
 51122  1  0  0  0
 51123  1  0  0  0
 52124  1  0  0  0
 52125  1  0  0  0
 53 54  1  0  0  0
 54 55  2  0  0  0
 54126  1  0  0  0
 55 57  1  0  0  0
 55127  1  0  0  0
 56 69  2  0  0  0
 57 58  2  0  0  0
 57128  1  0  0  0
 58129  1  0  0  0
 59 60  1  0  0  0
 59 61  1  0  0  0
 59 62  1  0  0  0
 60130  1  0  0  0
 60131  1  0  0  0
 60132  1  0  0  0
 61133  1  0  0  0
 61134  1  0  0  0
 61135  1  0  0  0
 62136  1  0  0  0
 62137  1  0  0  0
 62138  1  0  0  0
 63 65  1  0  0  0
 63139  1  0  0  0
 63140  1  0  0  0
 63141  1  0  0  0
 64142  1  0  0  0
 65143  1  0  0  0
 68 81  1  0  0  0
 71 72  1  0  0  0
 71 73  2  0  0  0
 71 77  1  0  0  0
 72 74  1  0  0  0
 72 82  2  0  0  0
 73 75  1  0  0  0
 73 83  1  0  0  0
 74144  1  0  0  0
 74145  1  0  0  0
 74146  1  0  0  0
 75147  1  0  0  0
 75148  1  0  0  0
 75149  1  0  0  0
 76 84  1  0  0  0
 76150  1  0  0  0
 76151  1  0  0  0
 76152  1  0  0  0
 77 78  1  0  0  0
 77153  1  0  0  0
 77154  1  0  0  0
 78 81  1  0  0  0
 78155  1  0  0  0
 78156  1  0  0  0
 79 80  1  0  0  0
 79 83  1  0  0  0
 79157  1  0  0  0
 79158  1  0  0  0
 80 84  1  0  0  0
 80159  1  0  0  0
 80160  1  0  0  0
 81161  1  0  0  0
 81162  1  0  0  0
 82 83  1  0  0  0
M  ISO  4   1 100  68 101  81 101  84 100
M  END
> <chiral flag>
0

> <version>
0

> <s_m_source_file>
/data/baiqing/PycharmProjects/Reinvent-master-3.2/result/LINK_invent/BTK/process_docking_weight1_custom_sum_contain_oxygen_bond_distance_aromatic_linkinvent_7_9_3/rearranged_h_0081.sdf

> <i_m_source_file_index>
84

> <r_mmod_Potential_Energy-OPLS-2005>
53.9184150695801

> <r_mmod_Stretch_Energy-OPLS-2005>
48.0033340454102

> <r_mmod_Bend_Energy-OPLS-2005>
108.100212097168

> <r_mmod_Torsional_Energy-OPLS-2005>
289.847259521484

> <r_mmod_Improper_Torsional_Energy-OPLS-2005>
6.62979888916016

> <r_mmod_Van_der_Waal_Energy-OPLS-2005>
128.521774291992

> <r_mmod_Electrostatic_Energy-OPLS-2005>
-335.961822509766

> <r_mmod_Solvation_Energy-OPLS-2005>
-208.087966918945

> <b_mmod_Minimization_Converged-OPLS-2005>
0

> <r_mmod_RMS_Derivative-OPLS-2005>
1.9251754283905

$$$$
84
                    3D
 Structure written by MMmdl.
158166  0  0  1  0            999 V2000
  -30.6093  -14.6987   20.4813 C   0  0  0  0  0  0
  -30.4316  -12.4283   19.4654 C   0  0  0  0  0  0
  -29.5120  -12.5186   18.2304 C   0  0  0  0  0  0
  -28.0353  -12.3466   18.6393 C   0  0  0  0  0  0
  -27.6468  -13.2275   19.8560 C   0  0  2  0  0  0
  -28.6885  -13.1213   20.9908 C   0  0  0  0  0  0
  -25.2558  -13.8205   20.5687 C   0  0  0  0  0  0
  -24.1864  -13.0441   20.9217 C   0  0  0  0  0  0
  -24.6436  -11.6926   20.8776 C   0  0  0  0  0  0
  -23.9102  -10.4306   21.0434 C   0  0  0  0  0  0
  -24.3655   -9.4219   21.9201 C   0  0  0  0  0  0
  -23.6330   -8.2257   22.0761 C   0  0  0  0  0  0
  -22.4298   -8.0305   21.3569 C   0  0  0  0  0  0
  -21.9942   -9.0274   20.4653 C   0  0  0  0  0  0
  -22.7278  -10.2146   20.3070 C   0  0  0  0  0  0
  -21.6850   -6.0778   22.5314 C   0  0  0  0  0  0
  -21.4003   -6.5678   23.8249 C   0  0  0  0  0  0
  -21.3656   -5.6815   24.9209 C   0  0  0  0  0  0
  -21.6049   -4.3080   24.7242 C   0  0  0  0  0  0
  -21.8816   -3.8185   23.4356 C   0  0  0  0  0  0
  -21.9186   -4.7012   22.3420 C   0  0  0  0  0  0
  -22.7882  -13.5217   21.1866 C   0  0  0  0  0  0
  -22.1658   -4.2210   21.0994 F   0  0  0  0  0  0
  -21.5630   -3.4541   25.7744 F   0  0  0  0  0  0
  -29.9939  -13.4718   20.4183 N   0  0  0  0  0  0
  -26.2980  -12.9393   20.3287 N   0  0  0  0  0  0
  -25.9363  -11.6541   20.5760 N   0  0  0  0  0  0
  -22.0495  -12.8225   22.0404 N   0  0  0  0  0  0
  -25.4226  -15.1929   20.4075 N   0  0  0  0  0  0
  -31.7873  -14.8235   20.1381 O   0  0  0  0  0  0
  -21.6651   -6.8919   21.4272 O   0  0  0  0  0  0
  -22.3577  -14.5507   20.6675 O   0  0  0  0  0  0
  -24.6293  -31.8569   23.1962 C   0  0  0  0  0  0
  -25.9128  -32.4753   23.8317 C   0  0  1  0  0  0
  -27.2260  -27.2877   20.1249 C   0  0  0  0  0  0
  -25.5919  -33.8553   24.2240 N   0  0  0  0  0  0
  -23.4233  -30.4775   21.5405 C   0  0  2  0  0  0
  -24.8688  -28.9206   20.1090 C   0  0  0  0  0  0
  -22.7484  -29.4616   22.4941 C   0  0  0  0  0  0
  -18.0284  -28.1396   22.8484 C   0  0  0  0  0  0
  -24.1487  -36.7295   23.2643 C   0  0  0  0  0  0
  -25.9644  -30.7781   21.3695 C   0  0  0  0  0  0
  -26.0355  -29.4006   20.7143 C   0  0  0  0  0  0
  -27.2126  -28.5938   20.7130 C   0  0  0  0  0  0
  -26.0324  -26.8567   19.5033 C   0  0  0  0  0  0
  -24.8708  -27.6561   19.4948 C   0  0  0  0  0  0
  -23.6369  -29.8039   20.1577 C   0  0  0  0  0  0
  -25.4115  -36.3078   24.0327 C   0  0  1  0  0  0
  -20.5881  -28.3688   23.1289 C   0  0  2  0  0  0
  -20.6771  -26.9410   22.5414 C   0  0  0  0  0  0
  -19.5748  -26.6387   21.5217 C   0  0  0  0  0  0
  -18.1930  -26.7933   22.1627 C   0  0  0  0  0  0
  -19.1539  -28.8865   23.2876 C   0  0  0  0  0  0
  -18.9457  -30.1468   23.8889 C   0  0  0  0  0  0
  -17.6459  -30.6594   24.0569 C   0  0  0  0  0  0
  -25.9057  -34.9448   23.5088 C   0  0  0  0  0  0
  -16.5351  -29.9093   23.6328 C   0  0  0  0  0  0
  -16.7271  -28.6514   23.0339 C   0  0  0  0  0  0
  -26.4477  -31.6586   25.0719 C   0  0  0  0  0  0
  -25.3684  -31.3752   26.1431 C   0  0  0  0  0  0
  -27.0332  -30.3007   24.6211 C   0  0  0  0  0  0
  -27.6040  -32.4318   25.7495 C   0  0  0  0  0  0
  -27.5578  -37.1801   24.8458 C   0  0  0  0  0  0
  -21.4192  -29.3045   22.3687 N   0  0  0  0  0  0
  -26.4286  -37.3774   23.9406 N   0  0  0  0  0  0
  -24.6913  -31.0554   22.0922 N   0  0  0  0  0  0
  -23.4198  -28.8182   23.3046 O   0  0  0  0  0  0
  -28.3687  -26.4689   20.2007 O   0  0  0  0  0  0
  -26.5643  -34.8921   22.4670 O   0  0  0  0  0  0
  -23.5453  -32.1395   23.7272 O   0  0  0  0  0  0
  -30.5485  -22.5587   20.0037 C   0  0  0  0  0  0
  -28.7084  -21.1007   20.5248 C   0  0  0  0  0  0
  -29.1880  -22.4583   20.3556 C   0  0  0  0  0  0
  -31.3273  -21.3978   19.8190 C   0  0  0  0  0  0
  -29.5671  -19.9491   20.3230 C   0  0  0  0  0  0
  -32.8043  -21.5019   19.5063 C   0  0  0  0  0  0
  -28.3699  -18.0684   19.0689 C   0  0  0  0  0  0
  -28.3782  -23.7922   20.6654 C   0  0  0  0  0  0
  -30.2173  -17.2833   20.6895 C   0  0  0  0  0  0
  -28.4657  -25.0692   19.6863 C   0  0  0  0  0  0
  -29.1090  -18.4238   20.3703 C   0  0  1  0  0  0
  -30.8467  -20.1407   19.9384 N   0  0  0  0  0  0
  -29.8265  -15.8071   20.7364 N   0  0  0  0  0  0
  -31.4732  -12.5512   19.1677 H   0  0  0  0  0  0
  -30.3687  -11.4417   19.9252 H   0  0  0  0  0  0
  -29.7904  -11.7616   17.4965 H   0  0  0  0  0  0
  -29.6498  -13.4842   17.7419 H   0  0  0  0  0  0
  -27.8843  -11.2929   18.8782 H   0  0  0  0  0  0
  -27.3786  -12.5650   17.7966 H   0  0  0  0  0  0
  -27.6477  -14.2569   19.4979 H   0  0  0  0  0  0
  -28.7148  -12.1095   21.4012 H   0  0  0  0  0  0
  -28.4281  -13.7817   21.8191 H   0  0  0  0  0  0
  -25.2785   -9.5710   22.4800 H   0  0  0  0  0  0
  -24.0046   -7.4650   22.7475 H   0  0  0  0  0  0
  -21.0875   -8.8798   19.8950 H   0  0  0  0  0  0
  -22.3736  -10.9705   19.6207 H   0  0  0  0  0  0
  -21.1980   -7.6181   23.9770 H   0  0  0  0  0  0
  -21.1472   -6.0541   25.9110 H   0  0  0  0  0  0
  -22.0578   -2.7648   23.2835 H   0  0  0  0  0  0
  -22.4025  -11.9864   22.4820 H   0  0  0  0  0  0
  -21.1119  -13.1322   22.2564 H   0  0  0  0  0  0
  -24.6438  -15.8353   20.5071 H   0  0  0  0  0  0
  -26.2566  -15.6377   20.0474 H   0  0  0  0  0  0
  -26.7214  -32.5392   23.1080 H   0  0  0  0  0  0
  -25.0005  -33.9677   25.0343 H   0  0  0  0  0  0
  -22.7201  -31.3010   21.3923 H   0  0  0  0  0  0
  -23.3746  -35.9626   23.3294 H   0  0  0  0  0  0
  -24.3582  -36.8931   22.2059 H   0  0  0  0  0  0
  -23.7240  -37.6493   23.6673 H   0  0  0  0  0  0
  -26.0982  -31.5399   20.6002 H   0  0  0  0  0  0
  -26.8453  -30.8283   21.9983 H   0  0  0  0  0  0
  -28.1081  -28.9556   21.1993 H   0  0  0  0  0  0
  -25.9622  -25.8858   19.0398 H   0  0  0  0  0  0
  -23.9731  -27.2793   19.0256 H   0  0  0  0  0  0
  -23.7535  -30.5764   19.3966 H   0  0  0  0  0  0
  -22.7561  -29.2322   19.8578 H   0  0  0  0  0  0
  -25.1300  -36.1924   25.0818 H   0  0  0  0  0  0
  -20.9960  -28.3250   24.1415 H   0  0  0  0  0  0
  -20.5665  -26.2296   23.3610 H   0  0  0  0  0  0
  -21.6640  -26.7439   22.1212 H   0  0  0  0  0  0
  -19.6903  -25.6294   21.1251 H   0  0  0  0  0  0
  -19.6691  -27.3192   20.6746 H   0  0  0  0  0  0
  -17.4191  -26.6674   21.4033 H   0  0  0  0  0  0
  -18.0335  -26.0086   22.9036 H   0  0  0  0  0  0
  -19.7937  -30.7296   24.2244 H   0  0  0  0  0  0
  -17.5010  -31.6267   24.5184 H   0  0  0  0  0  0
  -15.5347  -30.2998   23.7663 H   0  0  0  0  0  0
  -15.8666  -28.0848   22.7041 H   0  0  0  0  0  0
  -24.5844  -30.7123   25.7749 H   0  0  0  0  0  0
  -24.8886  -32.2923   26.4853 H   0  0  0  0  0  0
  -25.7975  -30.8918   27.0214 H   0  0  0  0  0  0
  -26.2929  -29.6753   24.1200 H   0  0  0  0  0  0
  -27.3979  -29.7279   25.4752 H   0  0  0  0  0  0
  -27.8811  -30.4300   23.9483 H   0  0  0  0  0  0
  -27.2656  -33.3615   26.2080 H   0  0  0  0  0  0
  -28.3838  -32.6874   25.0311 H   0  0  0  0  0  0
  -28.0707  -31.8427   26.5396 H   0  0  0  0  0  0
  -28.2588  -38.0105   24.7511 H   0  0  0  0  0  0
  -28.1079  -36.2636   24.6269 H   0  0  0  0  0  0
  -27.2296  -37.1432   25.8860 H   0  0  0  0  0  0
  -20.9387  -29.8766   21.6890 H   0  0  0  0  0  0
  -26.0169  -38.2847   24.1397 H   0  0  0  0  0  0
  -31.0091  -23.5319   19.9055 H   0  0  0  0  0  0
  -27.6778  -20.9445   20.8161 H   0  0  0  0  0  0
  -33.0884  -22.5298   19.2788 H   0  0  0  0  0  0
  -33.0695  -20.8823   18.6493 H   0  0  0  0  0  0
  -33.3914  -21.1739   20.3655 H   0  0  0  0  0  0
  -27.5468  -18.7578   18.8780 H   0  0  0  0  0  0
  -27.9469  -17.0656   19.1104 H   0  0  0  0  0  0
  -29.0411  -18.1084   18.2102 H   0  0  0  0  0  0
  -28.7364  -24.1154   21.6432 H   0  0  0  0  0  0
  -27.3277  -23.5398   20.8122 H   0  0  0  0  0  0
  -30.6872  -17.5213   21.6439 H   0  0  0  0  0  0
  -31.0097  -17.3784   19.9455 H   0  0  0  0  0  0
  -27.8252  -24.9097   18.8209 H   0  0  0  0  0  0
  -29.4645  -25.0516   19.2531 H   0  0  0  0  0  0
  -28.3799  -18.3792   21.1784 H   0  0  0  0  0  0
  -28.8694  -15.6112   20.9911 H   0  0  0  0  0  0
  1 25  1  0  0  0
  1 30  2  0  0  0
  1 83  1  0  0  0
  2  3  1  0  0  0
  2 25  1  0  0  0
  2 84  1  0  0  0
  2 85  1  0  0  0
  3  4  1  0  0  0
  3 86  1  0  0  0
  3 87  1  0  0  0
  4  5  1  0  0  0
  4 88  1  0  0  0
  4 89  1  0  0  0
  5  6  1  0  0  0
  5 26  1  0  0  0
  5 90  1  0  0  0
  6 25  1  0  0  0
  6 91  1  0  0  0
  6 92  1  0  0  0
  7  8  2  0  0  0
  7 26  1  0  0  0
  7 29  1  0  0  0
  8  9  1  0  0  0
  8 22  1  0  0  0
  9 10  1  0  0  0
  9 27  2  0  0  0
 10 11  2  0  0  0
 10 15  1  0  0  0
 11 12  1  0  0  0
 11 93  1  0  0  0
 12 13  2  0  0  0
 12 94  1  0  0  0
 13 14  1  0  0  0
 13 31  1  0  0  0
 14 15  2  0  0  0
 14 95  1  0  0  0
 15 96  1  0  0  0
 16 17  2  0  0  0
 16 21  1  0  0  0
 16 31  1  0  0  0
 17 18  1  0  0  0
 17 97  1  0  0  0
 18 19  2  0  0  0
 18 98  1  0  0  0
 19 20  1  0  0  0
 19 24  1  0  0  0
 20 21  2  0  0  0
 20 99  1  0  0  0
 21 23  1  0  0  0
 22 28  1  0  0  0
 22 32  2  0  0  0
 26 27  1  0  0  0
 28100  1  0  0  0
 28101  1  0  0  0
 29102  1  0  0  0
 29103  1  0  0  0
 33 34  1  0  0  0
 33 66  1  0  0  0
 33 70  2  0  0  0
 34 36  1  0  0  0
 34 59  1  0  0  0
 34104  1  0  0  0
 35 44  2  0  0  0
 35 45  1  0  0  0
 35 68  1  0  0  0
 36 56  1  0  0  0
 36105  1  0  0  0
 37 39  1  0  0  0
 37 47  1  0  0  0
 37 66  1  0  0  0
 37106  1  0  0  0
 38 43  2  0  0  0
 38 46  1  0  0  0
 38 47  1  0  0  0
 39 64  1  0  0  0
 39 67  2  0  0  0
 40 52  1  0  0  0
 40 53  2  0  0  0
 40 58  1  0  0  0
 41107  1  0  0  0
 41108  1  0  0  0
 41109  1  0  0  0
 41 48  1  0  0  0
 42 43  1  0  0  0
 42 66  1  0  0  0
 42110  1  0  0  0
 42111  1  0  0  0
 43 44  1  0  0  0
 44112  1  0  0  0
 45 46  2  0  0  0
 45113  1  0  0  0
 46114  1  0  0  0
 47115  1  0  0  0
 47116  1  0  0  0
 48 56  1  0  0  0
 48 65  1  0  0  0
 48117  1  0  0  0
 49 50  1  0  0  0
 49 53  1  0  0  0
 49 64  1  0  0  0
 49118  1  0  0  0
 50 51  1  0  0  0
 50119  1  0  0  0
 50120  1  0  0  0
 51 52  1  0  0  0
 51121  1  0  0  0
 51122  1  0  0  0
 52123  1  0  0  0
 52124  1  0  0  0
 53 54  1  0  0  0
 54 55  2  0  0  0
 54125  1  0  0  0
 55 57  1  0  0  0
 55126  1  0  0  0
 56 69  2  0  0  0
 57 58  2  0  0  0
 57127  1  0  0  0
 58128  1  0  0  0
 59 60  1  0  0  0
 59 61  1  0  0  0
 59 62  1  0  0  0
 60129  1  0  0  0
 60130  1  0  0  0
 60131  1  0  0  0
 61132  1  0  0  0
 61133  1  0  0  0
 61134  1  0  0  0
 62135  1  0  0  0
 62136  1  0  0  0
 62137  1  0  0  0
 63 65  1  0  0  0
 63138  1  0  0  0
 63139  1  0  0  0
 63140  1  0  0  0
 64141  1  0  0  0
 65142  1  0  0  0
 68 80  1  0  0  0
 71 73  2  0  0  0
 71 74  1  0  0  0
 71143  1  0  0  0
 72 73  1  0  0  0
 72 75  2  0  0  0
 72144  1  0  0  0
 73 78  1  0  0  0
 74 76  1  0  0  0
 74 82  2  0  0  0
 75 81  1  0  0  0
 75 82  1  0  0  0
 76145  1  0  0  0
 76146  1  0  0  0
 76147  1  0  0  0
 77148  1  0  0  0
 77149  1  0  0  0
 77150  1  0  0  0
 77 81  1  0  0  0
 78 80  1  0  0  0
 78151  1  0  0  0
 78152  1  0  0  0
 79 81  1  0  0  0
 79 83  1  0  0  0
 79153  1  0  0  0
 79154  1  0  0  0
 80155  1  0  0  0
 80156  1  0  0  0
 81157  1  0  0  0
 83158  1  0  0  0
M  ISO  4   1 100  68 101  80 101  83 100
M  END
> <chiral flag>
0

> <version>
0

> <s_m_source_file>
/data/baiqing/PycharmProjects/Reinvent-master-3.2/result/LINK_invent/BTK/process_docking_weight1_custom_sum_contain_oxygen_bond_distance_aromatic_linkinvent_7_9_3/rearranged_h_0081.sdf

> <i_m_source_file_index>
85

> <r_mmod_Potential_Energy-OPLS-2005>
-60.0725021362305

> <r_mmod_Stretch_Energy-OPLS-2005>
107.987747192383

> <r_mmod_Bend_Energy-OPLS-2005>
163.186813354492

> <r_mmod_Torsional_Energy-OPLS-2005>
201.780624389648

> <r_mmod_Improper_Torsional_Energy-OPLS-2005>
5.43601417541504

> <r_mmod_Van_der_Waal_Energy-OPLS-2005>
135.475738525391

> <r_mmod_Electrostatic_Energy-OPLS-2005>
-516.012268066406

> <r_mmod_Solvation_Energy-OPLS-2005>
-222.868087768555

> <b_mmod_Minimization_Converged-OPLS-2005>
0

> <r_mmod_RMS_Derivative-OPLS-2005>
2.59073781967163

$$$$
85
                    3D
 Structure written by MMmdl.
157165  0  0  1  0            999 V2000
  -30.6206  -14.6920   20.4700 C   0  0  0  0  0  0
  -30.4303  -12.4189   19.4733 C   0  0  0  0  0  0
  -29.5094  -12.5054   18.2358 C   0  0  0  0  0  0
  -28.0327  -12.3408   18.6444 C   0  0  0  0  0  0
  -27.6459  -13.2282   19.8580 C   0  0  2  0  0  0
  -28.6889  -13.1313   20.9941 C   0  0  0  0  0  0
  -25.2503  -13.8181   20.5677 C   0  0  0  0  0  0
  -24.1801  -13.0429   20.9212 C   0  0  0  0  0  0
  -24.6392  -11.6909   20.8752 C   0  0  0  0  0  0
  -23.9067  -10.4288   21.0411 C   0  0  0  0  0  0
  -24.3616   -9.4205   21.9191 C   0  0  0  0  0  0
  -23.6294   -8.2239   22.0759 C   0  0  0  0  0  0
  -22.4276   -8.0276   21.3551 C   0  0  0  0  0  0
  -21.9909   -9.0247   20.4653 C   0  0  0  0  0  0
  -22.7235  -10.2128   20.3065 C   0  0  0  0  0  0
  -21.6853   -6.0730   22.5283 C   0  0  0  0  0  0
  -21.4014   -6.5639   23.8213 C   0  0  0  0  0  0
  -21.3661   -5.6794   24.9176 C   0  0  0  0  0  0
  -21.6047   -4.3057   24.7228 C   0  0  0  0  0  0
  -21.8820   -3.8146   23.4349 C   0  0  0  0  0  0
  -21.9194   -4.6959   22.3404 C   0  0  0  0  0  0
  -22.7821  -13.5214   21.1868 C   0  0  0  0  0  0
  -22.1661   -4.2144   21.0981 F   0  0  0  0  0  0
  -21.5630   -3.4544   25.7742 F   0  0  0  0  0  0
  -29.9994  -13.4679   20.4233 N   0  0  0  0  0  0
  -26.2950  -12.9395   20.3307 N   0  0  0  0  0  0
  -25.9327  -11.6539   20.5769 N   0  0  0  0  0  0
  -22.0468  -12.8210   22.0428 N   0  0  0  0  0  0
  -25.4152  -15.1894   20.4029 N   0  0  0  0  0  0
  -31.7925  -14.8153   20.1052 O   0  0  0  0  0  0
  -21.6643   -6.8871   21.4244 O   0  0  0  0  0  0
  -22.3504  -14.5512   20.6703 O   0  0  0  0  0  0
  -24.6288  -31.8567   23.1994 C   0  0  0  0  0  0
  -25.9125  -32.4762   23.8330 C   0  0  1  0  0  0
  -27.2259  -27.2884   20.1172 C   0  0  0  0  0  0
  -25.5934  -33.8564   24.2263 N   0  0  0  0  0  0
  -23.4229  -30.4798   21.5426 C   0  0  2  0  0  0
  -24.8679  -28.9273   20.1105 C   0  0  0  0  0  0
  -22.7483  -29.4612   22.4925 C   0  0  0  0  0  0
  -18.0289  -28.1382   22.8486 C   0  0  0  0  0  0
  -24.1492  -36.7288   23.2638 C   0  0  0  0  0  0
  -25.9654  -30.7783   21.3731 C   0  0  0  0  0  0
  -26.0370  -29.4023   20.7155 C   0  0  0  0  0  0
  -27.2141  -28.5939   20.7088 C   0  0  0  0  0  0
  -26.0263  -26.8654   19.4996 C   0  0  0  0  0  0
  -24.8662  -27.6659   19.4950 C   0  0  0  0  0  0
  -23.6379  -29.8123   20.1585 C   0  0  0  0  0  0
  -25.4118  -36.3076   24.0326 C   0  0  1  0  0  0
  -20.5891  -28.3686   23.1277 C   0  0  2  0  0  0
  -20.6780  -26.9407   22.5408 C   0  0  0  0  0  0
  -19.5755  -26.6380   21.5212 C   0  0  0  0  0  0
  -18.1935  -26.7926   22.1624 C   0  0  0  0  0  0
  -19.1542  -28.8851   23.2879 C   0  0  0  0  0  0
  -18.9466  -30.1455   23.8893 C   0  0  0  0  0  0
  -17.6465  -30.6583   24.0563 C   0  0  0  0  0  0
  -25.9055  -34.9445   23.5096 C   0  0  0  0  0  0
  -16.5356  -29.9080   23.6333 C   0  0  0  0  0  0
  -16.7277  -28.6500   23.0350 C   0  0  0  0  0  0
  -26.4502  -31.6580   25.0711 C   0  0  0  0  0  0
  -25.3731  -31.3719   26.1435 C   0  0  0  0  0  0
  -27.0345  -30.3002   24.6179 C   0  0  0  0  0  0
  -27.6057  -32.4317   25.7487 C   0  0  0  0  0  0
  -27.5580  -37.1802   24.8465 C   0  0  0  0  0  0
  -21.4194  -29.3037   22.3667 N   0  0  0  0  0  0
  -26.4295  -37.3773   23.9404 N   0  0  0  0  0  0
  -24.6914  -31.0557   22.0954 N   0  0  0  0  0  0
  -23.4195  -28.8156   23.3018 O   0  0  0  0  0  0
  -28.3678  -26.4647   20.1857 O   0  0  0  0  0  0
  -26.5622  -34.8917   22.4662 O   0  0  0  0  0  0
  -23.5446  -32.1378   23.7314 O   0  0  0  0  0  0
  -28.9661  -21.1360   20.8029 C   0  0  0  0  0  0
  -29.1777  -22.1832   18.6602 C   0  0  0  0  0  0
  -28.9133  -22.3616   20.0336 C   0  0  0  0  0  0
  -29.2578  -19.8627   20.1694 C   0  0  0  0  0  0
  -29.4095  -18.5381   22.3667 C   0  0  0  0  0  0
  -27.6864  -17.9458   20.6609 C   0  0  0  0  0  0
  -28.5879  -23.8017   20.6225 C   0  0  0  0  0  0
  -30.1180  -17.2489   20.3100 C   0  0  0  0  0  0
  -28.4521  -25.0746   19.6455 C   0  0  0  0  0  0
  -29.1401  -18.4196   20.8528 C   0  0  0  0  0  0
  -29.4399  -20.9730   18.1003 N   0  0  0  0  0  0
  -29.4575  -19.8460   18.8268 N   0  0  0  0  0  0
  -29.8383  -15.8022   20.7017 N   0  0  0  0  0  0
  -31.4743  -12.5316   19.1767 H   0  0  0  0  0  0
  -30.3588  -11.4348   19.9391 H   0  0  0  0  0  0
  -29.7832  -11.7409   17.5075 H   0  0  0  0  0  0
  -29.6482  -13.4665   17.7381 H   0  0  0  0  0  0
  -27.8762  -11.2902   18.8915 H   0  0  0  0  0  0
  -27.3794  -12.5535   17.7971 H   0  0  0  0  0  0
  -27.6502  -14.2561   19.4945 H   0  0  0  0  0  0
  -28.7063  -12.1266   21.4191 H   0  0  0  0  0  0
  -28.4321  -13.8036   21.8143 H   0  0  0  0  0  0
  -25.2757   -9.5684   22.4775 H   0  0  0  0  0  0
  -24.0006   -7.4629   22.7476 H   0  0  0  0  0  0
  -21.0843   -8.8758   19.8957 H   0  0  0  0  0  0
  -22.3688  -10.9666   19.6178 H   0  0  0  0  0  0
  -21.2004   -7.6147   23.9712 H   0  0  0  0  0  0
  -21.1485   -6.0527   25.9079 H   0  0  0  0  0  0
  -22.0598   -2.7609   23.2853 H   0  0  0  0  0  0
  -22.4085  -11.9867   22.4811 H   0  0  0  0  0  0
  -21.1088  -13.1243   22.2643 H   0  0  0  0  0  0
  -24.6377  -15.8342   20.4925 H   0  0  0  0  0  0
  -26.2469  -15.6233   20.0269 H   0  0  0  0  0  0
  -26.7187  -32.5419   23.1065 H   0  0  0  0  0  0
  -25.0097  -33.9705   25.0420 H   0  0  0  0  0  0
  -22.7179  -31.3012   21.3984 H   0  0  0  0  0  0
  -23.3757  -35.9618   23.3300 H   0  0  0  0  0  0
  -24.3581  -36.8911   22.2052 H   0  0  0  0  0  0
  -23.7246  -37.6489   23.6661 H   0  0  0  0  0  0
  -26.0997  -31.5403   20.6042 H   0  0  0  0  0  0
  -26.8450  -30.8269   22.0037 H   0  0  0  0  0  0
  -28.1116  -28.9562   21.1907 H   0  0  0  0  0  0
  -25.9351  -25.8986   19.0329 H   0  0  0  0  0  0
  -23.9665  -27.2930   19.0248 H   0  0  0  0  0  0
  -23.7589  -30.5882   19.4015 H   0  0  0  0  0  0
  -22.7563  -29.2441   19.8567 H   0  0  0  0  0  0
  -25.1303  -36.1923   25.0820 H   0  0  0  0  0  0
  -20.9989  -28.3263   24.1395 H   0  0  0  0  0  0
  -20.5688  -26.2293   23.3608 H   0  0  0  0  0  0
  -21.6648  -26.7438   22.1196 H   0  0  0  0  0  0
  -19.6918  -25.6289   21.1244 H   0  0  0  0  0  0
  -19.6697  -27.3189   20.6740 H   0  0  0  0  0  0
  -17.4207  -26.6674   21.4024 H   0  0  0  0  0  0
  -18.0333  -26.0065   22.9018 H   0  0  0  0  0  0
  -19.7942  -30.7274   24.2257 H   0  0  0  0  0  0
  -17.5018  -31.6263   24.5163 H   0  0  0  0  0  0
  -15.5356  -30.2978   23.7660 H   0  0  0  0  0  0
  -15.8679  -28.0820   22.7060 H   0  0  0  0  0  0
  -24.5915  -30.7056   25.7762 H   0  0  0  0  0  0
  -24.8908  -32.2882   26.4849 H   0  0  0  0  0  0
  -25.8054  -30.8906   27.0216 H   0  0  0  0  0  0
  -26.2918  -29.6748   24.1212 H   0  0  0  0  0  0
  -27.4045  -29.7266   25.4687 H   0  0  0  0  0  0
  -27.8787  -30.4283   23.9401 H   0  0  0  0  0  0
  -27.2666  -33.3622   26.2052 H   0  0  0  0  0  0
  -28.3874  -32.6870   25.0320 H   0  0  0  0  0  0
  -28.0716  -31.8449   26.5413 H   0  0  0  0  0  0
  -28.2601  -38.0097   24.7511 H   0  0  0  0  0  0
  -28.1076  -36.2628   24.6296 H   0  0  0  0  0  0
  -27.2294  -37.1456   25.8868 H   0  0  0  0  0  0
  -20.9370  -29.8749   21.6870 H   0  0  0  0  0  0
  -26.0176  -38.2850   24.1399 H   0  0  0  0  0  0
  -28.7490  -21.1752   21.8594 H   0  0  0  0  0  0
  -29.1750  -23.0192   17.9772 H   0  0  0  0  0  0
  -29.3601  -17.5670   22.8594 H   0  0  0  0  0  0
  -28.6832  -19.1795   22.8651 H   0  0  0  0  0  0
  -30.4023  -18.9483   22.5564 H   0  0  0  0  0  0
  -27.4830  -17.0208   21.1990 H   0  0  0  0  0  0
  -27.4640  -17.7774   19.6068 H   0  0  0  0  0  0
  -26.9779  -18.6900   21.0267 H   0  0  0  0  0  0
  -29.3693  -24.0213   21.3502 H   0  0  0  0  0  0
  -27.6678  -23.7168   21.2005 H   0  0  0  0  0  0
  -31.1497  -17.4930   20.5674 H   0  0  0  0  0  0
  -30.0875  -17.2599   19.2199 H   0  0  0  0  0  0
  -27.6871  -24.8689   18.9024 H   0  0  0  0  0  0
  -29.3709  -25.0978   19.0597 H   0  0  0  0  0  0
  -28.8957  -15.6051   20.9995 H   0  0  0  0  0  0
  1 25  1  0  0  0
  1 30  2  0  0  0
  1 83  1  0  0  0
  2  3  1  0  0  0
  2 25  1  0  0  0
  2 84  1  0  0  0
  2 85  1  0  0  0
  3  4  1  0  0  0
  3 86  1  0  0  0
  3 87  1  0  0  0
  4  5  1  0  0  0
  4 88  1  0  0  0
  4 89  1  0  0  0
  5  6  1  0  0  0
  5 26  1  0  0  0
  5 90  1  0  0  0
  6 25  1  0  0  0
  6 91  1  0  0  0
  6 92  1  0  0  0
  7  8  2  0  0  0
  7 26  1  0  0  0
  7 29  1  0  0  0
  8  9  1  0  0  0
  8 22  1  0  0  0
  9 10  1  0  0  0
  9 27  2  0  0  0
 10 11  2  0  0  0
 10 15  1  0  0  0
 11 12  1  0  0  0
 11 93  1  0  0  0
 12 13  2  0  0  0
 12 94  1  0  0  0
 13 14  1  0  0  0
 13 31  1  0  0  0
 14 15  2  0  0  0
 14 95  1  0  0  0
 15 96  1  0  0  0
 16 17  2  0  0  0
 16 21  1  0  0  0
 16 31  1  0  0  0
 17 18  1  0  0  0
 17 97  1  0  0  0
 18 19  2  0  0  0
 18 98  1  0  0  0
 19 20  1  0  0  0
 19 24  1  0  0  0
 20 21  2  0  0  0
 20 99  1  0  0  0
 21 23  1  0  0  0
 22 28  1  0  0  0
 22 32  2  0  0  0
 26 27  1  0  0  0
 28100  1  0  0  0
 28101  1  0  0  0
 29102  1  0  0  0
 29103  1  0  0  0
 33 34  1  0  0  0
 33 66  1  0  0  0
 33 70  2  0  0  0
 34 36  1  0  0  0
 34 59  1  0  0  0
 34104  1  0  0  0
 35 44  2  0  0  0
 35 45  1  0  0  0
 35 68  1  0  0  0
 36 56  1  0  0  0
 36105  1  0  0  0
 37 39  1  0  0  0
 37 47  1  0  0  0
 37 66  1  0  0  0
 37106  1  0  0  0
 38 43  2  0  0  0
 38 46  1  0  0  0
 38 47  1  0  0  0
 39 64  1  0  0  0
 39 67  2  0  0  0
 40 52  1  0  0  0
 40 53  2  0  0  0
 40 58  1  0  0  0
 41107  1  0  0  0
 41108  1  0  0  0
 41109  1  0  0  0
 41 48  1  0  0  0
 42 43  1  0  0  0
 42 66  1  0  0  0
 42110  1  0  0  0
 42111  1  0  0  0
 43 44  1  0  0  0
 44112  1  0  0  0
 45 46  2  0  0  0
 45113  1  0  0  0
 46114  1  0  0  0
 47115  1  0  0  0
 47116  1  0  0  0
 48 56  1  0  0  0
 48 65  1  0  0  0
 48117  1  0  0  0
 49 50  1  0  0  0
 49 53  1  0  0  0
 49 64  1  0  0  0
 49118  1  0  0  0
 50 51  1  0  0  0
 50119  1  0  0  0
 50120  1  0  0  0
 51 52  1  0  0  0
 51121  1  0  0  0
 51122  1  0  0  0
 52123  1  0  0  0
 52124  1  0  0  0
 53 54  1  0  0  0
 54 55  2  0  0  0
 54125  1  0  0  0
 55 57  1  0  0  0
 55126  1  0  0  0
 56 69  2  0  0  0
 57 58  2  0  0  0
 57127  1  0  0  0
 58128  1  0  0  0
 59 60  1  0  0  0
 59 61  1  0  0  0
 59 62  1  0  0  0
 60129  1  0  0  0
 60130  1  0  0  0
 60131  1  0  0  0
 61132  1  0  0  0
 61133  1  0  0  0
 61134  1  0  0  0
 62135  1  0  0  0
 62136  1  0  0  0
 62137  1  0  0  0
 63 65  1  0  0  0
 63138  1  0  0  0
 63139  1  0  0  0
 63140  1  0  0  0
 64141  1  0  0  0
 65142  1  0  0  0
 68 79  1  0  0  0
 71 73  2  0  0  0
 71 74  1  0  0  0
 71143  1  0  0  0
 72 73  1  0  0  0
 72 81  2  0  0  0
 72144  1  0  0  0
 73 77  1  0  0  0
 74 80  1  0  0  0
 74 82  2  0  0  0
 75145  1  0  0  0
 75146  1  0  0  0
 75147  1  0  0  0
 75 80  1  0  0  0
 76 80  1  0  0  0
 76148  1  0  0  0
 76149  1  0  0  0
 76150  1  0  0  0
 77 79  1  0  0  0
 77151  1  0  0  0
 77152  1  0  0  0
 78 80  1  0  0  0
 78 83  1  0  0  0
 78153  1  0  0  0
 78154  1  0  0  0
 79155  1  0  0  0
 79156  1  0  0  0
 81 82  1  0  0  0
 83157  1  0  0  0
M  ISO  4   1 100  68 101  79 101  83 100
M  END
> <chiral flag>
0

> <version>
0

> <s_m_source_file>
/data/baiqing/PycharmProjects/Reinvent-master-3.2/result/LINK_invent/BTK/process_docking_weight1_custom_sum_contain_oxygen_bond_distance_aromatic_linkinvent_7_9_3/rearranged_h_0081.sdf

> <i_m_source_file_index>
86

> <r_mmod_Potential_Energy-OPLS-2005>
100.84920501709

> <r_mmod_Stretch_Energy-OPLS-2005>
109.719909667969

> <r_mmod_Bend_Energy-OPLS-2005>
163.935653686523

> <r_mmod_Torsional_Energy-OPLS-2005>
204.224945068359

> <r_mmod_Improper_Torsional_Energy-OPLS-2005>
6.94639158248901

> <r_mmod_Van_der_Waal_Energy-OPLS-2005>
141.192138671875

> <r_mmod_Electrostatic_Energy-OPLS-2005>
-359.511627197266

> <r_mmod_Solvation_Energy-OPLS-2005>
-228.977828979492

> <b_mmod_Minimization_Converged-OPLS-2005>
0

> <r_mmod_RMS_Derivative-OPLS-2005>
0.671814739704132

$$$$
86
                    3D
 Structure written by MMmdl.
175183  0  0  1  0            999 V2000
  -30.6486  -14.5332   20.4851 C   0  0  0  0  0  0
  -30.4231  -12.3157   19.4414 C   0  0  0  0  0  0
  -29.4952  -12.4799   18.2176 C   0  0  0  0  0  0
  -28.0183  -12.3331   18.6315 C   0  0  0  0  0  0
  -27.6533  -13.2013   19.8652 C   0  0  2  0  0  0
  -28.6959  -13.0250   20.9945 C   0  0  0  0  0  0
  -25.2562  -13.8139   20.5679 C   0  0  0  0  0  0
  -24.1830  -13.0442   20.9204 C   0  0  0  0  0  0
  -24.6385  -11.6901   20.8759 C   0  0  0  0  0  0
  -23.9065  -10.4294   21.0435 C   0  0  0  0  0  0
  -24.3614   -9.4206   21.9208 C   0  0  0  0  0  0
  -23.6291   -8.2242   22.0762 C   0  0  0  0  0  0
  -22.4279   -8.0283   21.3545 C   0  0  0  0  0  0
  -21.9917   -9.0269   20.4647 C   0  0  0  0  0  0
  -22.7243  -10.2145   20.3071 C   0  0  0  0  0  0
  -21.6843   -6.0754   22.5276 C   0  0  0  0  0  0
  -21.4021   -6.5657   23.8233 C   0  0  0  0  0  0
  -21.3658   -5.6799   24.9180 C   0  0  0  0  0  0
  -21.6037   -4.3055   24.7215 C   0  0  0  0  0  0
  -21.8818   -3.8165   23.4335 C   0  0  0  0  0  0
  -21.9194   -4.6985   22.3395 C   0  0  0  0  0  0
  -22.7853  -13.5240   21.1875 C   0  0  0  0  0  0
  -22.1659   -4.2184   21.0956 F   0  0  0  0  0  0
  -21.5625   -3.4536   25.7725 F   0  0  0  0  0  0
  -30.0227  -13.3250   20.4338 N   0  0  0  0  0  0
  -26.2987  -12.9307   20.3331 N   0  0  0  0  0  0
  -25.9297  -11.6480   20.5779 N   0  0  0  0  0  0
  -22.0497  -12.8227   22.0417 N   0  0  0  0  0  0
  -25.4275  -15.1857   20.4059 N   0  0  0  0  0  0
  -31.8146  -14.6997   20.1192 O   0  0  0  0  0  0
  -21.6621   -6.8895   21.4241 O   0  0  0  0  0  0
  -22.3558  -14.5559   20.6723 O   0  0  0  0  0  0
  -24.6166  -31.8660   23.2028 C   0  0  0  0  0  0
  -25.9049  -32.4796   23.8344 C   0  0  1  0  0  0
  -27.2386  -27.3878   20.1112 C   0  0  0  0  0  0
  -25.5878  -33.8589   24.2256 N   0  0  0  0  0  0
  -23.4076  -30.4846   21.5437 C   0  0  2  0  0  0
  -24.8581  -28.9355   20.1209 C   0  0  0  0  0  0
  -22.7429  -29.4643   22.4965 C   0  0  0  0  0  0
  -18.0281  -28.1349   22.8484 C   0  0  0  0  0  0
  -24.1492  -36.7338   23.2635 C   0  0  0  0  0  0
  -25.9389  -30.8197   21.3612 C   0  0  0  0  0  0
  -26.0202  -29.4469   20.7120 C   0  0  0  0  0  0
  -27.2162  -28.6824   20.6949 C   0  0  0  0  0  0
  -26.0536  -26.8989   19.5243 C   0  0  0  0  0  0
  -24.8682  -27.6605   19.5282 C   0  0  0  0  0  0
  -23.6205  -29.8075   20.1645 C   0  0  0  0  0  0
  -25.4119  -36.3094   24.0301 C   0  0  1  0  0  0
  -20.5870  -28.3668   23.1296 C   0  0  2  0  0  0
  -20.6783  -26.9391   22.5419 C   0  0  0  0  0  0
  -19.5779  -26.6370   21.5193 C   0  0  0  0  0  0
  -18.1936  -26.7899   22.1583 C   0  0  0  0  0  0
  -19.1530  -28.8809   23.2892 C   0  0  0  0  0  0
  -18.9474  -30.1412   23.8903 C   0  0  0  0  0  0
  -17.6484  -30.6574   24.0538 C   0  0  0  0  0  0
  -25.9038  -34.9459   23.5083 C   0  0  0  0  0  0
  -16.5364  -29.9079   23.6314 C   0  0  0  0  0  0
  -16.7275  -28.6484   23.0343 C   0  0  0  0  0  0
  -26.4464  -31.6607   25.0710 C   0  0  0  0  0  0
  -25.3708  -31.3698   26.1441 C   0  0  0  0  0  0
  -27.0325  -30.3032   24.6141 C   0  0  0  0  0  0
  -27.6014  -32.4360   25.7504 C   0  0  0  0  0  0
  -27.5590  -37.1811   24.8456 C   0  0  0  0  0  0
  -21.4147  -29.3025   22.3696 N   0  0  0  0  0  0
  -26.4314  -37.3775   23.9368 N   0  0  0  0  0  0
  -24.6717  -31.0731   22.0945 N   0  0  0  0  0  0
  -23.4194  -28.8178   23.3007 O   0  0  0  0  0  0
  -28.4096  -26.6432   20.0892 O   0  0  0  0  0  0
  -26.5644  -34.8930   22.4675 O   0  0  0  0  0  0
  -23.5352  -32.1414   23.7403 O   0  0  0  0  0  0
  -30.6592  -20.9561   20.2140 C   0  0  0  0  0  0
  -30.7552  -22.3341   19.8819 C   0  0  0  0  0  0
  -29.3395  -20.6282   20.2896 C   0  0  0  0  0  0
  -29.5011  -22.8795   19.7313 C   0  0  0  0  0  0
  -24.1339  -21.2017   20.8275 C   0  0  0  0  0  0
  -25.0961  -20.3536   23.0053 C   0  0  0  0  0  0
  -28.4274  -24.3830   17.9351 C   0  0  0  0  0  0
  -30.5065  -25.0888   19.0222 C   0  0  0  0  0  0
  -28.6792  -19.2820   20.5921 C   0  0  0  0  0  0
  -29.5203  -18.0829   21.1589 C   0  0  0  0  0  0
  -26.5425  -21.7643   21.4435 C   0  0  0  0  0  0
  -27.1470  -21.8599   20.0229 C   0  0  0  0  0  0
  -29.9826  -16.9668   20.1694 C   0  0  0  0  0  0
  -28.3720  -25.2046   20.3399 C   0  0  0  0  0  0
  -25.4035  -20.7235   21.5461 C   0  0  0  0  0  0
  -29.1706  -24.3419   19.2898 C   0  0  0  0  0  0
  -28.6115  -21.8125   20.0199 N   0  0  0  0  0  0
  -29.8206  -15.5838   20.6889 N   0  0  0  0  0  0
  -31.4688  -12.4148   19.1451 H   0  0  0  0  0  0
  -30.3284  -11.3156   19.8680 H   0  0  0  0  0  0
  -29.7432  -11.7400   17.4558 H   0  0  0  0  0  0
  -29.6516  -13.4557   17.7575 H   0  0  0  0  0  0
  -27.8454  -11.2805   18.8593 H   0  0  0  0  0  0
  -27.3629  -12.5721   17.7940 H   0  0  0  0  0  0
  -27.6803  -14.2380   19.5297 H   0  0  0  0  0  0
  -28.6778  -12.0021   21.3765 H   0  0  0  0  0  0
  -28.4618  -13.6642   21.8488 H   0  0  0  0  0  0
  -25.2759   -9.5684   22.4793 H   0  0  0  0  0  0
  -24.0005   -7.4629   22.7485 H   0  0  0  0  0  0
  -21.0855   -8.8792   19.8941 H   0  0  0  0  0  0
  -22.3717  -10.9697   19.6183 H   0  0  0  0  0  0
  -21.2026   -7.6172   23.9741 H   0  0  0  0  0  0
  -21.1476   -6.0521   25.9082 H   0  0  0  0  0  0
  -22.0603   -2.7633   23.2807 H   0  0  0  0  0  0
  -22.4090  -11.9847   22.4741 H   0  0  0  0  0  0
  -21.1123  -13.1270   22.2658 H   0  0  0  0  0  0
  -24.6537  -15.8334   20.5060 H   0  0  0  0  0  0
  -26.2711  -15.6276   20.0659 H   0  0  0  0  0  0
  -26.7133  -32.5505   23.1123 H   0  0  0  0  0  0
  -24.9915  -33.9732   25.0317 H   0  0  0  0  0  0
  -22.6923  -31.2960   21.3995 H   0  0  0  0  0  0
  -23.3729  -35.9717   23.3325 H   0  0  0  0  0  0
  -24.3542  -36.8964   22.2059 H   0  0  0  0  0  0
  -23.7306  -37.6546   23.6684 H   0  0  0  0  0  0
  -26.0517  -31.5858   20.5932 H   0  0  0  0  0  0
  -26.8222  -30.8756   21.9861 H   0  0  0  0  0  0
  -28.1203  -29.0722   21.1432 H   0  0  0  0  0  0
  -26.0374  -25.9260   19.0582 H   0  0  0  0  0  0
  -23.9714  -27.2532   19.0820 H   0  0  0  0  0  0
  -23.7331  -30.5769   19.3989 H   0  0  0  0  0  0
  -22.7440  -29.2251   19.8754 H   0  0  0  0  0  0
  -25.1318  -36.1931   25.0786 H   0  0  0  0  0  0
  -20.9949  -28.3272   24.1429 H   0  0  0  0  0  0
  -20.5655  -26.2279   23.3622 H   0  0  0  0  0  0
  -21.6667  -26.7424   22.1234 H   0  0  0  0  0  0
  -19.6944  -25.6282   21.1238 H   0  0  0  0  0  0
  -19.6728  -27.3171   20.6717 H   0  0  0  0  0  0
  -17.4223  -26.6656   21.3971 H   0  0  0  0  0  0
  -18.0315  -26.0015   22.8946 H   0  0  0  0  0  0
  -19.7958  -30.7188   24.2313 H   0  0  0  0  0  0
  -17.5060  -31.6260   24.5138 H   0  0  0  0  0  0
  -15.5359  -30.2980   23.7654 H   0  0  0  0  0  0
  -15.8665  -28.0812   22.7058 H   0  0  0  0  0  0
  -24.6004  -30.6892   25.7781 H   0  0  0  0  0  0
  -24.8766  -32.2839   26.4747 H   0  0  0  0  0  0
  -25.8097  -30.9022   27.0269 H   0  0  0  0  0  0
  -26.2908  -29.6717   24.1225 H   0  0  0  0  0  0
  -27.4081  -29.7341   25.4654 H   0  0  0  0  0  0
  -27.8744  -30.4297   23.9325 H   0  0  0  0  0  0
  -27.2632  -33.3701   26.1993 H   0  0  0  0  0  0
  -28.3889  -32.6819   25.0374 H   0  0  0  0  0  0
  -28.0594  -31.8528   26.5487 H   0  0  0  0  0  0
  -28.2599  -38.0119   24.7469 H   0  0  0  0  0  0
  -28.1099  -36.2623   24.6344 H   0  0  0  0  0  0
  -27.2286  -37.1545   25.8861 H   0  0  0  0  0  0
  -20.9316  -29.8753   21.6921 H   0  0  0  0  0  0
  -26.0196  -38.2854   24.1356 H   0  0  0  0  0  0
  -31.4831  -20.2707   20.3681 H   0  0  0  0  0  0
  -31.6877  -22.8627   19.7404 H   0  0  0  0  0  0
  -23.3429  -20.4522   20.8844 H   0  0  0  0  0  0
  -24.3213  -21.3859   19.7696 H   0  0  0  0  0  0
  -23.7486  -22.1236   21.2648 H   0  0  0  0  0  0
  -24.2655  -19.6490   23.0679 H   0  0  0  0  0  0
  -24.8319  -21.2301   23.5999 H   0  0  0  0  0  0
  -25.9551  -19.8731   23.4794 H   0  0  0  0  0  0
  -29.0073  -23.8804   17.1573 H   0  0  0  0  0  0
  -28.2804  -25.4159   17.6127 H   0  0  0  0  0  0
  -27.4372  -23.9333   17.9443 H   0  0  0  0  0  0
  -31.0910  -24.5931   18.2437 H   0  0  0  0  0  0
  -31.1237  -25.1425   19.9180 H   0  0  0  0  0  0
  -30.3559  -26.1146   18.6822 H   0  0  0  0  0  0
  -28.1074  -18.9543   19.7237 H   0  0  0  0  0  0
  -27.9326  -19.4682   21.3599 H   0  0  0  0  0  0
  -28.8615  -17.5907   21.8752 H   0  0  0  0  0  0
  -30.3554  -18.4337   21.7676 H   0  0  0  0  0  0
  -26.1794  -22.7476   21.7483 H   0  0  0  0  0  0
  -27.3274  -21.5243   22.1620 H   0  0  0  0  0  0
  -26.7826  -22.7656   19.5493 H   0  0  0  0  0  0
  -26.7956  -21.0431   19.3905 H   0  0  0  0  0  0
  -31.0116  -17.1535   19.8583 H   0  0  0  0  0  0
  -29.3881  -17.0245   19.2553 H   0  0  0  0  0  0
  -28.8449  -25.0722   21.3131 H   0  0  0  0  0  0
  -27.3593  -24.8225   20.4722 H   0  0  0  0  0  0
  -25.7218  -19.8009   21.0582 H   0  0  0  0  0  0
  -28.8805  -15.3164   20.9395 H   0  0  0  0  0  0
  1 25  1  0  0  0
  1 30  2  0  0  0
  1 88  1  0  0  0
  2  3  1  0  0  0
  2 25  1  0  0  0
  2 89  1  0  0  0
  2 90  1  0  0  0
  3  4  1  0  0  0
  3 91  1  0  0  0
  3 92  1  0  0  0
  4  5  1  0  0  0
  4 93  1  0  0  0
  4 94  1  0  0  0
  5  6  1  0  0  0
  5 26  1  0  0  0
  5 95  1  0  0  0
  6 25  1  0  0  0
  6 96  1  0  0  0
  6 97  1  0  0  0
  7  8  2  0  0  0
  7 26  1  0  0  0
  7 29  1  0  0  0
  8  9  1  0  0  0
  8 22  1  0  0  0
  9 10  1  0  0  0
  9 27  2  0  0  0
 10 11  2  0  0  0
 10 15  1  0  0  0
 11 12  1  0  0  0
 11 98  1  0  0  0
 12 13  2  0  0  0
 12 99  1  0  0  0
 13 14  1  0  0  0
 13 31  1  0  0  0
 14 15  2  0  0  0
 14100  1  0  0  0
 15101  1  0  0  0
 16 17  2  0  0  0
 16 21  1  0  0  0
 16 31  1  0  0  0
 17 18  1  0  0  0
 17102  1  0  0  0
 18 19  2  0  0  0
 18103  1  0  0  0
 19 20  1  0  0  0
 19 24  1  0  0  0
 20 21  2  0  0  0
 20104  1  0  0  0
 21 23  1  0  0  0
 22 28  1  0  0  0
 22 32  2  0  0  0
 26 27  1  0  0  0
 28105  1  0  0  0
 28106  1  0  0  0
 29107  1  0  0  0
 29108  1  0  0  0
 33 34  1  0  0  0
 33 66  1  0  0  0
 33 70  2  0  0  0
 34 36  1  0  0  0
 34 59  1  0  0  0
 34109  1  0  0  0
 35 44  2  0  0  0
 35 45  1  0  0  0
 35 68  1  0  0  0
 36 56  1  0  0  0
 36110  1  0  0  0
 37 39  1  0  0  0
 37 47  1  0  0  0
 37 66  1  0  0  0
 37111  1  0  0  0
 38 43  2  0  0  0
 38 46  1  0  0  0
 38 47  1  0  0  0
 39 64  1  0  0  0
 39 67  2  0  0  0
 40 52  1  0  0  0
 40 53  2  0  0  0
 40 58  1  0  0  0
 41112  1  0  0  0
 41113  1  0  0  0
 41114  1  0  0  0
 41 48  1  0  0  0
 42 43  1  0  0  0
 42 66  1  0  0  0
 42115  1  0  0  0
 42116  1  0  0  0
 43 44  1  0  0  0
 44117  1  0  0  0
 45 46  2  0  0  0
 45118  1  0  0  0
 46119  1  0  0  0
 47120  1  0  0  0
 47121  1  0  0  0
 48 56  1  0  0  0
 48 65  1  0  0  0
 48122  1  0  0  0
 49 50  1  0  0  0
 49 53  1  0  0  0
 49 64  1  0  0  0
 49123  1  0  0  0
 50 51  1  0  0  0
 50124  1  0  0  0
 50125  1  0  0  0
 51 52  1  0  0  0
 51126  1  0  0  0
 51127  1  0  0  0
 52128  1  0  0  0
 52129  1  0  0  0
 53 54  1  0  0  0
 54 55  2  0  0  0
 54130  1  0  0  0
 55 57  1  0  0  0
 55131  1  0  0  0
 56 69  2  0  0  0
 57 58  2  0  0  0
 57132  1  0  0  0
 58133  1  0  0  0
 59 60  1  0  0  0
 59 61  1  0  0  0
 59 62  1  0  0  0
 60134  1  0  0  0
 60135  1  0  0  0
 60136  1  0  0  0
 61137  1  0  0  0
 61138  1  0  0  0
 61139  1  0  0  0
 62140  1  0  0  0
 62141  1  0  0  0
 62142  1  0  0  0
 63 65  1  0  0  0
 63143  1  0  0  0
 63144  1  0  0  0
 63145  1  0  0  0
 64146  1  0  0  0
 65147  1  0  0  0
 68 84  1  0  0  0
 71 72  1  0  0  0
 71 73  2  0  0  0
 71148  1  0  0  0
 72 74  2  0  0  0
 72149  1  0  0  0
 73 79  1  0  0  0
 73 87  1  0  0  0
 74 86  1  0  0  0
 74 87  1  0  0  0
 75150  1  0  0  0
 75151  1  0  0  0
 75152  1  0  0  0
 75 85  1  0  0  0
 76 85  1  0  0  0
 76153  1  0  0  0
 76154  1  0  0  0
 76155  1  0  0  0
 77156  1  0  0  0
 77157  1  0  0  0
 77158  1  0  0  0
 77 86  1  0  0  0
 78 86  1  0  0  0
 78159  1  0  0  0
 78160  1  0  0  0
 78161  1  0  0  0
 79 80  1  0  0  0
 79162  1  0  0  0
 79163  1  0  0  0
 80 83  1  0  0  0
 80164  1  0  0  0
 80165  1  0  0  0
 81 82  1  0  0  0
 81 85  1  0  0  0
 81166  1  0  0  0
 81167  1  0  0  0
 82 87  1  0  0  0
 82168  1  0  0  0
 82169  1  0  0  0
 83 88  1  0  0  0
 83170  1  0  0  0
 83171  1  0  0  0
 84 86  1  0  0  0
 84172  1  0  0  0
 84173  1  0  0  0
 85174  1  0  0  0
 88175  1  0  0  0
M  ISO  4   1 100  68 101  84 101  88 100
M  END
> <chiral flag>
0

> <version>
0

> <s_m_source_file>
/data/baiqing/PycharmProjects/Reinvent-master-3.2/result/LINK_invent/BTK/process_docking_weight1_custom_sum_contain_oxygen_bond_distance_aromatic_linkinvent_7_9_3/rearranged_h_0081.sdf

> <i_m_source_file_index>
87

> <r_mmod_Potential_Energy-OPLS-2005>
42.2490119934082

> <r_mmod_Stretch_Energy-OPLS-2005>
59.7207183837891

> <r_mmod_Bend_Energy-OPLS-2005>
136.46354675293

> <r_mmod_Torsional_Energy-OPLS-2005>
273.435485839844

> <r_mmod_Improper_Torsional_Energy-OPLS-2005>
8.28546047210693

> <r_mmod_Van_der_Waal_Energy-OPLS-2005>
126.385757446289

> <r_mmod_Electrostatic_Energy-OPLS-2005>
-385.734527587891

> <r_mmod_Solvation_Energy-OPLS-2005>
-198.943572998047

> <b_mmod_Minimization_Converged-OPLS-2005>
0

> <r_mmod_RMS_Derivative-OPLS-2005>
4.1901068687439

$$$$
87
                    3D
 Structure written by MMmdl.
166174  0  0  1  0            999 V2000
  -30.7415  -14.4614   20.6091 C   0  0  0  0  0  0
  -30.4187  -12.3141   19.4332 C   0  0  0  0  0  0
  -29.4955  -12.5094   18.2143 C   0  0  0  0  0  0
  -28.0179  -12.3666   18.6261 C   0  0  0  0  0  0
  -27.6623  -13.2122   19.8785 C   0  0  2  0  0  0
  -28.7035  -13.0123   21.0041 C   0  0  0  0  0  0
  -25.2588  -13.8172   20.5706 C   0  0  0  0  0  0
  -24.1833  -13.0443   20.9167 C   0  0  0  0  0  0
  -24.6389  -11.6914   20.8719 C   0  0  0  0  0  0
  -23.9047  -10.4295   21.0392 C   0  0  0  0  0  0
  -24.3599   -9.4219   21.9180 C   0  0  0  0  0  0
  -23.6283   -8.2251   22.0756 C   0  0  0  0  0  0
  -22.4271   -8.0274   21.3540 C   0  0  0  0  0  0
  -21.9899   -9.0243   20.4640 C   0  0  0  0  0  0
  -22.7219  -10.2128   20.3047 C   0  0  0  0  0  0
  -21.6857   -6.0728   22.5276 C   0  0  0  0  0  0
  -21.4014   -6.5634   23.8208 C   0  0  0  0  0  0
  -21.3663   -5.6790   24.9170 C   0  0  0  0  0  0
  -21.6050   -4.3053   24.7225 C   0  0  0  0  0  0
  -21.8818   -3.8141   23.4345 C   0  0  0  0  0  0
  -21.9193   -4.6954   22.3400 C   0  0  0  0  0  0
  -22.7851  -13.5239   21.1830 C   0  0  0  0  0  0
  -22.1664   -4.2141   21.0977 F   0  0  0  0  0  0
  -21.5631   -3.4538   25.7738 F   0  0  0  0  0  0
  -30.0383  -13.3047   20.4539 N   0  0  0  0  0  0
  -26.3026  -12.9355   20.3391 N   0  0  0  0  0  0
  -25.9323  -11.6503   20.5772 N   0  0  0  0  0  0
  -22.0481  -12.8226   22.0371 N   0  0  0  0  0  0
  -25.4312  -15.1886   20.4137 N   0  0  0  0  0  0
  -31.8376  -14.6445   20.0750 O   0  0  0  0  0  0
  -21.6644   -6.8869   21.4235 O   0  0  0  0  0  0
  -22.3547  -14.5556   20.6694 O   0  0  0  0  0  0
  -24.6164  -31.8672   23.2114 C   0  0  0  0  0  0
  -25.9052  -32.4816   23.8405 C   0  0  1  0  0  0
  -27.2221  -27.4132   20.0959 C   0  0  0  0  0  0
  -25.5902  -33.8614   24.2324 N   0  0  0  0  0  0
  -23.4050  -30.4966   21.5502 C   0  0  2  0  0  0
  -24.8507  -28.9741   20.1053 C   0  0  0  0  0  0
  -22.7427  -29.4661   22.4941 C   0  0  0  0  0  0
  -18.0272  -28.1397   22.8497 C   0  0  0  0  0  0
  -24.1464  -36.7285   23.2641 C   0  0  0  0  0  0
  -25.9392  -30.8265   21.3731 C   0  0  0  0  0  0
  -26.0138  -29.4648   20.7117 C   0  0  0  0  0  0
  -27.2033  -28.6927   20.7057 C   0  0  0  0  0  0
  -26.0401  -26.9657   19.4535 C   0  0  0  0  0  0
  -24.8619  -27.7268   19.4688 C   0  0  0  0  0  0
  -23.6149  -29.8431   20.1601 C   0  0  0  0  0  0
  -25.4088  -36.3095   24.0342 C   0  0  1  0  0  0
  -20.5872  -28.3678   23.1289 C   0  0  2  0  0  0
  -20.6757  -26.9401   22.5409 C   0  0  0  0  0  0
  -19.5734  -26.6393   21.5208 C   0  0  0  0  0  0
  -18.1915  -26.7939   22.1633 C   0  0  0  0  0  0
  -19.1527  -28.8854   23.2898 C   0  0  0  0  0  0
  -18.9470  -30.1459   23.8914 C   0  0  0  0  0  0
  -17.6477  -30.6606   24.0574 C   0  0  0  0  0  0
  -25.9036  -34.9472   23.5130 C   0  0  0  0  0  0
  -16.5362  -29.9116   23.6333 C   0  0  0  0  0  0
  -16.7265  -28.6536   23.0339 C   0  0  0  0  0  0
  -26.4481  -31.6608   25.0738 C   0  0  0  0  0  0
  -25.3751  -31.3697   26.1492 C   0  0  0  0  0  0
  -27.0338  -30.3051   24.6141 C   0  0  0  0  0  0
  -27.6059  -32.4340   25.7491 C   0  0  0  0  0  0
  -27.5569  -37.1781   24.8458 C   0  0  0  0  0  0
  -21.4154  -29.3049   22.3694 N   0  0  0  0  0  0
  -26.4256  -37.3801   23.9449 N   0  0  0  0  0  0
  -24.6708  -31.0773   22.1023 N   0  0  0  0  0  0
  -23.4195  -28.8193   23.2970 O   0  0  0  0  0  0
  -28.3575  -26.6145   20.1597 O   0  0  0  0  0  0
  -26.5616  -34.8930   22.4698 O   0  0  0  0  0  0
  -23.5352  -32.1422   23.7500 O   0  0  0  0  0  0
  -27.5336  -22.3098   19.9029 C   0  0  0  0  0  0
  -29.6287  -21.6716   20.9129 C   0  0  0  0  0  0
  -28.7709  -22.7088   20.4598 C   0  0  0  0  0  0
  -27.2126  -20.9443   19.8208 C   0  0  0  0  0  0
  -29.2280  -20.3188   20.7878 C   0  0  0  0  0  0
  -24.9854  -19.8577   20.3264 C   0  0  0  0  0  0
  -26.0734  -19.5465   18.0420 C   0  0  0  0  0  0
  -31.1720  -16.9856   22.9370 C   0  0  0  0  0  0
  -29.1689  -24.1994   20.5809 C   0  0  0  0  0  0
  -29.5787  -17.8698   21.1333 C   0  0  0  0  0  0
  -28.1072  -25.1938   20.0393 C   0  0  0  0  0  0
  -25.8798  -20.4832   19.2448 C   0  0  0  0  0  0
  -30.6561  -16.8172   21.4980 C   0  0  2  0  0  0
  -28.0426  -19.9763   20.2558 N   0  0  0  0  0  0
  -30.0529  -19.2600   21.2046 N   0  0  0  0  0  0
  -30.1425  -15.4464   21.3075 N   0  0  0  0  0  0
  -31.4646  -12.4010   19.1331 H   0  0  0  0  0  0
  -30.3124  -11.3066   19.8385 H   0  0  0  0  0  0
  -29.7384  -11.7822   17.4386 H   0  0  0  0  0  0
  -29.6633  -13.4944   17.7763 H   0  0  0  0  0  0
  -27.8315  -11.3108   18.8269 H   0  0  0  0  0  0
  -27.3671  -12.6369   17.7932 H   0  0  0  0  0  0
  -27.7025  -14.2582   19.5741 H   0  0  0  0  0  0
  -28.6780  -11.9842   21.3680 H   0  0  0  0  0  0
  -28.4575  -13.6306   21.8679 H   0  0  0  0  0  0
  -25.2742   -9.5714   22.4756 H   0  0  0  0  0  0
  -23.9998   -7.4653   22.7485 H   0  0  0  0  0  0
  -21.0831   -8.8745   19.8948 H   0  0  0  0  0  0
  -22.3663  -10.9658   19.6152 H   0  0  0  0  0  0
  -21.2003   -7.6144   23.9704 H   0  0  0  0  0  0
  -21.1491   -6.0524   25.9072 H   0  0  0  0  0  0
  -22.0595   -2.7604   23.2847 H   0  0  0  0  0  0
  -22.4078  -11.9869   22.4736 H   0  0  0  0  0  0
  -21.1095  -13.1250   22.2561 H   0  0  0  0  0  0
  -24.6685  -15.8470   20.5282 H   0  0  0  0  0  0
  -26.2918  -15.6284   20.1125 H   0  0  0  0  0  0
  -26.7125  -32.5527   23.1172 H   0  0  0  0  0  0
  -25.0023  -33.9782   25.0445 H   0  0  0  0  0  0
  -22.6960  -31.3158   21.4154 H   0  0  0  0  0  0
  -23.3753  -35.9592   23.3291 H   0  0  0  0  0  0
  -24.3551  -36.8911   22.2056 H   0  0  0  0  0  0
  -23.7188  -37.6473   23.6668 H   0  0  0  0  0  0
  -26.0636  -31.5965   20.6103 H   0  0  0  0  0  0
  -26.8224  -30.8700   21.9982 H   0  0  0  0  0  0
  -28.0959  -29.0594   21.1940 H   0  0  0  0  0  0
  -25.9941  -26.0207   18.9340 H   0  0  0  0  0  0
  -23.9734  -27.3534   18.9788 H   0  0  0  0  0  0
  -23.7288  -30.6255   19.4080 H   0  0  0  0  0  0
  -22.7374  -29.2691   19.8567 H   0  0  0  0  0  0
  -25.1250  -36.1941   25.0833 H   0  0  0  0  0  0
  -20.9988  -28.3257   24.1401 H   0  0  0  0  0  0
  -20.5633  -26.2293   23.3607 H   0  0  0  0  0  0
  -21.6630  -26.7416   22.1216 H   0  0  0  0  0  0
  -19.6892  -25.6306   21.1229 H   0  0  0  0  0  0
  -19.6679  -27.3223   20.6755 H   0  0  0  0  0  0
  -17.4176  -26.6687   21.4049 H   0  0  0  0  0  0
  -18.0332  -26.0077   22.9025 H   0  0  0  0  0  0
  -19.7953  -30.7275   24.2275 H   0  0  0  0  0  0
  -17.5041  -31.6281   24.5194 H   0  0  0  0  0  0
  -15.5377  -30.3050   23.7627 H   0  0  0  0  0  0
  -15.8657  -28.0884   22.7028 H   0  0  0  0  0  0
  -24.5924  -30.7046   25.7823 H   0  0  0  0  0  0
  -24.8946  -32.2847   26.4971 H   0  0  0  0  0  0
  -25.8104  -30.8843   27.0235 H   0  0  0  0  0  0
  -26.2905  -29.6802   24.1178 H   0  0  0  0  0  0
  -27.4098  -29.7298   25.4614 H   0  0  0  0  0  0
  -27.8742  -30.4375   23.9317 H   0  0  0  0  0  0
  -27.2686  -33.3653   26.2053 H   0  0  0  0  0  0
  -28.3866  -32.6880   25.0304 H   0  0  0  0  0  0
  -28.0737  -31.8474   26.5407 H   0  0  0  0  0  0
  -28.2540  -38.0119   24.7586 H   0  0  0  0  0  0
  -28.1103  -36.2665   24.6170 H   0  0  0  0  0  0
  -27.2314  -37.1302   25.8861 H   0  0  0  0  0  0
  -20.9307  -29.8791   21.6938 H   0  0  0  0  0  0
  -26.0130  -38.2853   24.1550 H   0  0  0  0  0  0
  -26.8134  -23.0255   19.5352 H   0  0  0  0  0  0
  -30.5884  -21.9196   21.3471 H   0  0  0  0  0  0
  -24.8142  -20.5589   21.1434 H   0  0  0  0  0  0
  -25.4430  -18.9629   20.7496 H   0  0  0  0  0  0
  -24.0149  -19.5758   19.9192 H   0  0  0  0  0  0
  -26.7306  -19.9989   17.2992 H   0  0  0  0  0  0
  -25.1222  -19.3263   17.5587 H   0  0  0  0  0  0
  -26.5210  -18.6003   18.3471 H   0  0  0  0  0  0
  -31.6125  -17.9710   23.0864 H   0  0  0  0  0  0
  -31.9484  -16.2551   23.1664 H   0  0  0  0  0  0
  -30.3744  -16.8683   23.6710 H   0  0  0  0  0  0
  -30.1138  -24.3562   20.0602 H   0  0  0  0  0  0
  -29.3545  -24.4164   21.6336 H   0  0  0  0  0  0
  -28.7084  -17.7593   21.7812 H   0  0  0  0  0  0
  -29.2329  -17.6765   20.1151 H   0  0  0  0  0  0
  -27.1909  -24.9640   20.5856 H   0  0  0  0  0  0
  -27.9412  -24.9722   18.9840 H   0  0  0  0  0  0
  -25.3637  -21.3698   18.8747 H   0  0  0  0  0  0
  -31.4998  -16.9805   20.8243 H   0  0  0  0  0  0
  -30.9061  -19.4615   21.7134 H   0  0  0  0  0  0
  -29.2388  -15.2301   21.7022 H   0  0  0  0  0  0
  1 25  1  0  0  0
  1 30  2  0  0  0
  1 86  1  0  0  0
  2  3  1  0  0  0
  2 25  1  0  0  0
  2 87  1  0  0  0
  2 88  1  0  0  0
  3  4  1  0  0  0
  3 89  1  0  0  0
  3 90  1  0  0  0
  4  5  1  0  0  0
  4 91  1  0  0  0
  4 92  1  0  0  0
  5  6  1  0  0  0
  5 26  1  0  0  0
  5 93  1  0  0  0
  6 25  1  0  0  0
  6 94  1  0  0  0
  6 95  1  0  0  0
  7  8  2  0  0  0
  7 26  1  0  0  0
  7 29  1  0  0  0
  8  9  1  0  0  0
  8 22  1  0  0  0
  9 10  1  0  0  0
  9 27  2  0  0  0
 10 11  2  0  0  0
 10 15  1  0  0  0
 11 12  1  0  0  0
 11 96  1  0  0  0
 12 13  2  0  0  0
 12 97  1  0  0  0
 13 14  1  0  0  0
 13 31  1  0  0  0
 14 15  2  0  0  0
 14 98  1  0  0  0
 15 99  1  0  0  0
 16 17  2  0  0  0
 16 21  1  0  0  0
 16 31  1  0  0  0
 17 18  1  0  0  0
 17100  1  0  0  0
 18 19  2  0  0  0
 18101  1  0  0  0
 19 20  1  0  0  0
 19 24  1  0  0  0
 20 21  2  0  0  0
 20102  1  0  0  0
 21 23  1  0  0  0
 22 28  1  0  0  0
 22 32  2  0  0  0
 26 27  1  0  0  0
 28103  1  0  0  0
 28104  1  0  0  0
 29105  1  0  0  0
 29106  1  0  0  0
 33 34  1  0  0  0
 33 66  1  0  0  0
 33 70  2  0  0  0
 34 36  1  0  0  0
 34 59  1  0  0  0
 34107  1  0  0  0
 35 44  2  0  0  0
 35 45  1  0  0  0
 35 68  1  0  0  0
 36 56  1  0  0  0
 36108  1  0  0  0
 37 39  1  0  0  0
 37 47  1  0  0  0
 37 66  1  0  0  0
 37109  1  0  0  0
 38 43  2  0  0  0
 38 46  1  0  0  0
 38 47  1  0  0  0
 39 64  1  0  0  0
 39 67  2  0  0  0
 40 52  1  0  0  0
 40 53  2  0  0  0
 40 58  1  0  0  0
 41110  1  0  0  0
 41111  1  0  0  0
 41112  1  0  0  0
 41 48  1  0  0  0
 42 43  1  0  0  0
 42 66  1  0  0  0
 42113  1  0  0  0
 42114  1  0  0  0
 43 44  1  0  0  0
 44115  1  0  0  0
 45 46  2  0  0  0
 45116  1  0  0  0
 46117  1  0  0  0
 47118  1  0  0  0
 47119  1  0  0  0
 48 56  1  0  0  0
 48 65  1  0  0  0
 48120  1  0  0  0
 49 50  1  0  0  0
 49 53  1  0  0  0
 49 64  1  0  0  0
 49121  1  0  0  0
 50 51  1  0  0  0
 50122  1  0  0  0
 50123  1  0  0  0
 51 52  1  0  0  0
 51124  1  0  0  0
 51125  1  0  0  0
 52126  1  0  0  0
 52127  1  0  0  0
 53 54  1  0  0  0
 54 55  2  0  0  0
 54128  1  0  0  0
 55 57  1  0  0  0
 55129  1  0  0  0
 56 69  2  0  0  0
 57 58  2  0  0  0
 57130  1  0  0  0
 58131  1  0  0  0
 59 60  1  0  0  0
 59 61  1  0  0  0
 59 62  1  0  0  0
 60132  1  0  0  0
 60133  1  0  0  0
 60134  1  0  0  0
 61135  1  0  0  0
 61136  1  0  0  0
 61137  1  0  0  0
 62138  1  0  0  0
 62139  1  0  0  0
 62140  1  0  0  0
 63 65  1  0  0  0
 63141  1  0  0  0
 63142  1  0  0  0
 63143  1  0  0  0
 64144  1  0  0  0
 65145  1  0  0  0
 68 81  1  0  0  0
 71 73  2  0  0  0
 71 74  1  0  0  0
 71146  1  0  0  0
 72 73  1  0  0  0
 72 75  2  0  0  0
 72147  1  0  0  0
 73 79  1  0  0  0
 74 82  1  0  0  0
 74 84  2  0  0  0
 75 84  1  0  0  0
 75 85  1  0  0  0
 76148  1  0  0  0
 76149  1  0  0  0
 76150  1  0  0  0
 76 82  1  0  0  0
 77 82  1  0  0  0
 77151  1  0  0  0
 77152  1  0  0  0
 77153  1  0  0  0
 78154  1  0  0  0
 78155  1  0  0  0
 78156  1  0  0  0
 78 83  1  0  0  0
 79 81  1  0  0  0
 79157  1  0  0  0
 79158  1  0  0  0
 80 83  1  0  0  0
 80 85  1  0  0  0
 80159  1  0  0  0
 80160  1  0  0  0
 81161  1  0  0  0
 81162  1  0  0  0
 82163  1  0  0  0
 83 86  1  0  0  0
 83164  1  0  0  0
 85165  1  0  0  0
 86166  1  0  0  0
M  ISO  4   1 100  68 101  81 101  86 100
M  END
> <chiral flag>
0

> <version>
0

> <s_m_source_file>
/data/baiqing/PycharmProjects/Reinvent-master-3.2/result/LINK_invent/BTK/process_docking_weight1_custom_sum_contain_oxygen_bond_distance_aromatic_linkinvent_7_9_3/rearranged_h_0081.sdf

> <i_m_source_file_index>
88

> <r_mmod_Potential_Energy-OPLS-2005>
-372.543365478516

> <r_mmod_Stretch_Energy-OPLS-2005>
41.019832611084

> <r_mmod_Bend_Energy-OPLS-2005>
108.105209350586

> <r_mmod_Torsional_Energy-OPLS-2005>
174.956802368164

> <r_mmod_Improper_Torsional_Energy-OPLS-2005>
2.5250506401062

> <r_mmod_Van_der_Waal_Energy-OPLS-2005>
170.375900268555

> <r_mmod_Electrostatic_Energy-OPLS-2005>
-665.193969726562

> <r_mmod_Solvation_Energy-OPLS-2005>
-221.054260253906

> <b_mmod_Minimization_Converged-OPLS-2005>
0

> <r_mmod_RMS_Derivative-OPLS-2005>
2.17505526542664

$$$$
88
                    3D
 Structure written by MMmdl.
163171  0  0  1  0            999 V2000
  -30.6719  -14.5701   20.5150 C   0  0  0  0  0  0
  -30.4374  -12.3564   19.4324 C   0  0  0  0  0  0
  -29.5006  -12.4913   18.2125 C   0  0  0  0  0  0
  -28.0260  -12.3352   18.6338 C   0  0  0  0  0  0
  -27.6577  -13.2108   19.8609 C   0  0  2  0  0  0
  -28.7065  -13.0515   20.9857 C   0  0  0  0  0  0
  -25.2583  -13.8154   20.5672 C   0  0  0  0  0  0
  -24.1851  -13.0426   20.9179 C   0  0  0  0  0  0
  -24.6417  -11.6895   20.8738 C   0  0  0  0  0  0
  -23.9084  -10.4276   21.0405 C   0  0  0  0  0  0
  -24.3631   -9.4191   21.9185 C   0  0  0  0  0  0
  -23.6297   -8.2235   22.0760 C   0  0  0  0  0  0
  -22.4278   -8.0278   21.3548 C   0  0  0  0  0  0
  -21.9921   -9.0252   20.4649 C   0  0  0  0  0  0
  -22.7261  -10.2124   20.3051 C   0  0  0  0  0  0
  -21.6849   -6.0733   22.5278 C   0  0  0  0  0  0
  -21.4009   -6.5636   23.8212 C   0  0  0  0  0  0
  -21.3655   -5.6790   24.9179 C   0  0  0  0  0  0
  -21.6046   -4.3056   24.7229 C   0  0  0  0  0  0
  -21.8822   -3.8145   23.4352 C   0  0  0  0  0  0
  -21.9192   -4.6958   22.3406 C   0  0  0  0  0  0
  -22.7867  -13.5208   21.1849 C   0  0  0  0  0  0
  -22.1660   -4.2144   21.0983 F   0  0  0  0  0  0
  -21.5630   -3.4540   25.7742 F   0  0  0  0  0  0
  -30.0268  -13.3703   20.4169 N   0  0  0  0  0  0
  -26.3024  -12.9339   20.3328 N   0  0  0  0  0  0
  -25.9345  -11.6494   20.5775 N   0  0  0  0  0  0
  -22.0525  -12.8173   22.0401 N   0  0  0  0  0  0
  -25.4274  -15.1877   20.4064 N   0  0  0  0  0  0
  -31.8354  -14.7282   20.1429 O   0  0  0  0  0  0
  -21.6642   -6.8878   21.4243 O   0  0  0  0  0  0
  -22.3539  -14.5520   20.6720 O   0  0  0  0  0  0
  -24.6165  -31.8628   23.2038 C   0  0  0  0  0  0
  -25.9034  -32.4797   23.8351 C   0  0  1  0  0  0
  -27.2516  -27.3927   20.1138 C   0  0  0  0  0  0
  -25.5894  -33.8595   24.2289 N   0  0  0  0  0  0
  -23.4096  -30.4778   21.5465 C   0  0  2  0  0  0
  -24.8637  -28.9289   20.1227 C   0  0  0  0  0  0
  -22.7432  -29.4598   22.4995 C   0  0  0  0  0  0
  -18.0269  -28.1340   22.8480 C   0  0  0  0  0  0
  -24.1510  -36.7297   23.2634 C   0  0  0  0  0  0
  -25.9400  -30.8167   21.3605 C   0  0  0  0  0  0
  -26.0245  -29.4428   20.7155 C   0  0  0  0  0  0
  -27.2229  -28.6855   20.7015 C   0  0  0  0  0  0
  -26.0750  -26.8997   19.5145 C   0  0  0  0  0  0
  -24.8840  -27.6572   19.5194 C   0  0  0  0  0  0
  -23.6229  -29.7977   20.1664 C   0  0  0  0  0  0
  -25.4122  -36.3079   24.0331 C   0  0  1  0  0  0
  -20.5859  -28.3624   23.1324 C   0  0  2  0  0  0
  -20.6748  -26.9352   22.5422 C   0  0  0  0  0  0
  -19.5734  -26.6366   21.5201 C   0  0  0  0  0  0
  -18.1910  -26.7890   22.1605 C   0  0  0  0  0  0
  -19.1521  -28.8797   23.2888 C   0  0  0  0  0  0
  -18.9447  -30.1408   23.8895 C   0  0  0  0  0  0
  -17.6445  -30.6557   24.0547 C   0  0  0  0  0  0
  -25.9056  -34.9453   23.5108 C   0  0  0  0  0  0
  -16.5339  -29.9053   23.6328 C   0  0  0  0  0  0
  -16.7260  -28.6466   23.0349 C   0  0  0  0  0  0
  -26.4463  -31.6568   25.0674 C   0  0  0  0  0  0
  -25.3705  -31.3648   26.1403 C   0  0  0  0  0  0
  -27.0287  -30.3027   24.6009 C   0  0  0  0  0  0
  -27.6062  -32.4263   25.7425 C   0  0  0  0  0  0
  -27.5591  -37.1767   24.8455 C   0  0  0  0  0  0
  -21.4158  -29.2998   22.3746 N   0  0  0  0  0  0
  -26.4303  -37.3769   23.9406 N   0  0  0  0  0  0
  -24.6738  -31.0680   22.0956 N   0  0  0  0  0  0
  -23.4178  -28.8149   23.3060 O   0  0  0  0  0  0
  -28.4264  -26.6557   20.0592 O   0  0  0  0  0  0
  -26.5633  -34.8908   22.4685 O   0  0  0  0  0  0
  -23.5350  -32.1410   23.7419 O   0  0  0  0  0  0
  -28.2106  -21.1055   19.3097 C   0  0  0  0  0  0
  -29.8567  -20.4312   20.6479 C   0  0  0  0  0  0
  -28.5116  -19.8095   18.9773 C   0  0  0  0  0  0
  -29.5606  -19.3504   19.8400 C   0  0  0  0  0  0
  -27.8541  -19.0244   17.8711 C   0  0  0  0  0  0
  -31.6692  -18.1249   19.2347 C   0  0  0  0  0  0
  -27.9134  -25.6030   22.2557 C   0  0  0  0  0  0
  -28.4215  -24.0730   20.1972 C   0  0  0  0  0  0
  -29.0395  -22.8528   20.9859 C   0  0  0  0  0  0
  -30.2065  -17.0673   21.0567 C   0  0  0  0  0  0
  -30.2323  -17.9517   19.7581 C   0  0  1  0  0  0
  -28.6169  -25.4733   20.8898 C   0  0  1  0  0  0
  -29.0452  -21.5247   20.3235 N   0  0  0  0  0  0
  -29.8942  -15.6191   20.8788 N   0  0  0  0  0  0
  -31.4780  -12.4735   19.1238 H   0  0  0  0  0  0
  -30.3650  -11.3596   19.8690 H   0  0  0  0  0  0
  -29.7530  -11.7402   17.4623 H   0  0  0  0  0  0
  -29.6459  -13.4616   17.7358 H   0  0  0  0  0  0
  -27.8654  -11.2828   18.8751 H   0  0  0  0  0  0
  -27.3661  -12.5583   17.7958 H   0  0  0  0  0  0
  -27.6811  -14.2462   19.5215 H   0  0  0  0  0  0
  -28.7056  -12.0316   21.3696 H   0  0  0  0  0  0
  -28.4652  -13.6893   21.8369 H   0  0  0  0  0  0
  -25.2780   -9.5648   22.4757 H   0  0  0  0  0  0
  -23.9998   -7.4618   22.7474 H   0  0  0  0  0  0
  -21.0859   -8.8783   19.8944 H   0  0  0  0  0  0
  -22.3744  -10.9665   19.6153 H   0  0  0  0  0  0
  -21.2003   -7.6143   23.9716 H   0  0  0  0  0  0
  -21.1472   -6.0522   25.9082 H   0  0  0  0  0  0
  -22.0605   -2.7605   23.2861 H   0  0  0  0  0  0
  -22.4167  -11.9820   22.4732 H   0  0  0  0  0  0
  -21.1151  -13.1183   22.2656 H   0  0  0  0  0  0
  -24.6560  -15.8390   20.5120 H   0  0  0  0  0  0
  -26.2743  -15.6293   20.0706 H   0  0  0  0  0  0
  -26.7096  -32.5521   23.1098 H   0  0  0  0  0  0
  -25.0020  -33.9751   25.0422 H   0  0  0  0  0  0
  -22.7001  -31.2939   21.3952 H   0  0  0  0  0  0
  -23.3776  -35.9619   23.3279 H   0  0  0  0  0  0
  -24.3608  -36.8952   22.2054 H   0  0  0  0  0  0
  -23.7264  -37.6491   23.6687 H   0  0  0  0  0  0
  -26.0479  -31.5782   20.5864 H   0  0  0  0  0  0
  -26.8300  -30.8809   21.9753 H   0  0  0  0  0  0
  -28.1264  -29.0802   21.1464 H   0  0  0  0  0  0
  -26.0868  -25.9298   19.0381 H   0  0  0  0  0  0
  -23.9932  -27.2559   19.0580 H   0  0  0  0  0  0
  -23.7296  -30.5660   19.4004 H   0  0  0  0  0  0
  -22.7491  -29.2102   19.8749 H   0  0  0  0  0  0
  -25.1288  -36.1945   25.0821 H   0  0  0  0  0  0
  -20.9922  -28.3185   24.1452 H   0  0  0  0  0  0
  -20.5655  -26.2209   23.3594 H   0  0  0  0  0  0
  -21.6617  -26.7417   22.1186 H   0  0  0  0  0  0
  -19.6914  -25.6291   21.1190 H   0  0  0  0  0  0
  -19.6697  -27.3205   20.6746 H   0  0  0  0  0  0
  -17.4188  -26.6659   21.4000 H   0  0  0  0  0  0
  -18.0298  -26.0036   22.8996 H   0  0  0  0  0  0
  -19.7942  -30.7196   24.2288 H   0  0  0  0  0  0
  -17.5026  -31.6241   24.5114 H   0  0  0  0  0  0
  -15.5338  -30.2924   23.7676 H   0  0  0  0  0  0
  -15.8671  -28.0775   22.7056 H   0  0  0  0  0  0
  -24.5908  -30.6982   25.7700 H   0  0  0  0  0  0
  -24.8826  -32.2774   26.4848 H   0  0  0  0  0  0
  -25.8015  -30.8807   27.0176 H   0  0  0  0  0  0
  -26.2803  -29.6775   24.1123 H   0  0  0  0  0  0
  -27.4178  -29.7266   25.4407 H   0  0  0  0  0  0
  -27.8584  -30.4377   23.9056 H   0  0  0  0  0  0
  -27.2769  -33.3632   26.1936 H   0  0  0  0  0  0
  -28.3908  -32.6696   25.0242 H   0  0  0  0  0  0
  -28.0682  -31.8393   26.5388 H   0  0  0  0  0  0
  -28.2546  -38.0119   24.7562 H   0  0  0  0  0  0
  -28.1141  -36.2646   24.6211 H   0  0  0  0  0  0
  -27.2299  -37.1324   25.8850 H   0  0  0  0  0  0
  -20.9339  -29.8767   21.6993 H   0  0  0  0  0  0
  -26.0194  -38.2841   24.1439 H   0  0  0  0  0  0
  -27.4742  -21.7789   18.8911 H   0  0  0  0  0  0
  -30.5988  -20.5274   21.4284 H   0  0  0  0  0  0
  -27.1269  -19.6361   17.3371 H   0  0  0  0  0  0
  -27.3403  -18.1487   18.2678 H   0  0  0  0  0  0
  -28.6007  -18.6864   17.1514 H   0  0  0  0  0  0
  -31.6812  -18.6607   18.2853 H   0  0  0  0  0  0
  -32.1612  -17.1671   19.0762 H   0  0  0  0  0  0
  -32.2804  -18.6954   19.9355 H   0  0  0  0  0  0
  -28.2266  -24.8215   22.9462 H   0  0  0  0  0  0
  -26.8291  -25.5442   22.1583 H   0  0  0  0  0  0
  -28.1637  -26.5554   22.7243 H   0  0  0  0  0  0
  -27.3617  -23.9014   20.0128 H   0  0  0  0  0  0
  -28.8913  -24.1143   19.2145 H   0  0  0  0  0  0
  -28.5111  -22.7345   21.9315 H   0  0  0  0  0  0
  -30.0730  -23.0853   21.2486 H   0  0  0  0  0  0
  -29.4232  -17.4524   21.7110 H   0  0  0  0  0  0
  -31.1335  -17.1825   21.6213 H   0  0  0  0  0  0
  -29.6847  -17.4003   18.9935 H   0  0  0  0  0  0
  -29.6827  -25.5170   21.1172 H   0  0  0  0  0  0
  -28.9464  -15.3611   21.1094 H   0  0  0  0  0  0
  1 25  1  0  0  0
  1 30  2  0  0  0
  1 84  1  0  0  0
  2  3  1  0  0  0
  2 25  1  0  0  0
  2 85  1  0  0  0
  2 86  1  0  0  0
  3  4  1  0  0  0
  3 87  1  0  0  0
  3 88  1  0  0  0
  4  5  1  0  0  0
  4 89  1  0  0  0
  4 90  1  0  0  0
  5  6  1  0  0  0
  5 26  1  0  0  0
  5 91  1  0  0  0
  6 25  1  0  0  0
  6 92  1  0  0  0
  6 93  1  0  0  0
  7  8  2  0  0  0
  7 26  1  0  0  0
  7 29  1  0  0  0
  8  9  1  0  0  0
  8 22  1  0  0  0
  9 10  1  0  0  0
  9 27  2  0  0  0
 10 11  2  0  0  0
 10 15  1  0  0  0
 11 12  1  0  0  0
 11 94  1  0  0  0
 12 13  2  0  0  0
 12 95  1  0  0  0
 13 14  1  0  0  0
 13 31  1  0  0  0
 14 15  2  0  0  0
 14 96  1  0  0  0
 15 97  1  0  0  0
 16 17  2  0  0  0
 16 21  1  0  0  0
 16 31  1  0  0  0
 17 18  1  0  0  0
 17 98  1  0  0  0
 18 19  2  0  0  0
 18 99  1  0  0  0
 19 20  1  0  0  0
 19 24  1  0  0  0
 20 21  2  0  0  0
 20100  1  0  0  0
 21 23  1  0  0  0
 22 28  1  0  0  0
 22 32  2  0  0  0
 26 27  1  0  0  0
 28101  1  0  0  0
 28102  1  0  0  0
 29103  1  0  0  0
 29104  1  0  0  0
 33 34  1  0  0  0
 33 66  1  0  0  0
 33 70  2  0  0  0
 34 36  1  0  0  0
 34 59  1  0  0  0
 34105  1  0  0  0
 35 44  2  0  0  0
 35 45  1  0  0  0
 35 68  1  0  0  0
 36 56  1  0  0  0
 36106  1  0  0  0
 37 39  1  0  0  0
 37 47  1  0  0  0
 37 66  1  0  0  0
 37107  1  0  0  0
 38 43  2  0  0  0
 38 46  1  0  0  0
 38 47  1  0  0  0
 39 64  1  0  0  0
 39 67  2  0  0  0
 40 52  1  0  0  0
 40 53  2  0  0  0
 40 58  1  0  0  0
 41108  1  0  0  0
 41109  1  0  0  0
 41110  1  0  0  0
 41 48  1  0  0  0
 42 43  1  0  0  0
 42 66  1  0  0  0
 42111  1  0  0  0
 42112  1  0  0  0
 43 44  1  0  0  0
 44113  1  0  0  0
 45 46  2  0  0  0
 45114  1  0  0  0
 46115  1  0  0  0
 47116  1  0  0  0
 47117  1  0  0  0
 48 56  1  0  0  0
 48 65  1  0  0  0
 48118  1  0  0  0
 49 50  1  0  0  0
 49 53  1  0  0  0
 49 64  1  0  0  0
 49119  1  0  0  0
 50 51  1  0  0  0
 50120  1  0  0  0
 50121  1  0  0  0
 51 52  1  0  0  0
 51122  1  0  0  0
 51123  1  0  0  0
 52124  1  0  0  0
 52125  1  0  0  0
 53 54  1  0  0  0
 54 55  2  0  0  0
 54126  1  0  0  0
 55 57  1  0  0  0
 55127  1  0  0  0
 56 69  2  0  0  0
 57 58  2  0  0  0
 57128  1  0  0  0
 58129  1  0  0  0
 59 60  1  0  0  0
 59 61  1  0  0  0
 59 62  1  0  0  0
 60130  1  0  0  0
 60131  1  0  0  0
 60132  1  0  0  0
 61133  1  0  0  0
 61134  1  0  0  0
 61135  1  0  0  0
 62136  1  0  0  0
 62137  1  0  0  0
 62138  1  0  0  0
 63 65  1  0  0  0
 63139  1  0  0  0
 63140  1  0  0  0
 63141  1  0  0  0
 64142  1  0  0  0
 65143  1  0  0  0
 68 82  1  0  0  0
 71 73  2  0  0  0
 71 83  1  0  0  0
 71144  1  0  0  0
 72 74  2  0  0  0
 72 83  1  0  0  0
 72145  1  0  0  0
 73 74  1  0  0  0
 73 75  1  0  0  0
 74 81  1  0  0  0
 75146  1  0  0  0
 75147  1  0  0  0
 75148  1  0  0  0
 76149  1  0  0  0
 76150  1  0  0  0
 76151  1  0  0  0
 76 81  1  0  0  0
 77152  1  0  0  0
 77153  1  0  0  0
 77154  1  0  0  0
 77 82  1  0  0  0
 78 79  1  0  0  0
 78 82  1  0  0  0
 78155  1  0  0  0
 78156  1  0  0  0
 79 83  1  0  0  0
 79157  1  0  0  0
 79158  1  0  0  0
 80 81  1  0  0  0
 80 84  1  0  0  0
 80159  1  0  0  0
 80160  1  0  0  0
 81161  1  0  0  0
 82162  1  0  0  0
 84163  1  0  0  0
M  ISO  4   1 100  68 101  82 101  84 100
M  END
> <chiral flag>
0

> <version>
0

> <s_m_source_file>
/data/baiqing/PycharmProjects/Reinvent-master-3.2/result/LINK_invent/BTK/process_docking_weight1_custom_sum_contain_oxygen_bond_distance_aromatic_linkinvent_7_9_3/rearranged_h_0081.sdf

> <i_m_source_file_index>
89

> <r_mmod_Potential_Energy-OPLS-2005>
-64.9342880249023

> <r_mmod_Stretch_Energy-OPLS-2005>
53.0973510742188

> <r_mmod_Bend_Energy-OPLS-2005>
129.836059570312

> <r_mmod_Torsional_Energy-OPLS-2005>
251.187438964844

> <r_mmod_Improper_Torsional_Energy-OPLS-2005>
4.29782390594482

> <r_mmod_Van_der_Waal_Energy-OPLS-2005>
111.503440856934

> <r_mmod_Electrostatic_Energy-OPLS-2005>
-434.104248046875

> <r_mmod_Solvation_Energy-OPLS-2005>
-205.703201293945

> <b_mmod_Minimization_Converged-OPLS-2005>
0

> <r_mmod_RMS_Derivative-OPLS-2005>
3.10292506217957

$$$$
89
                    3D
 Structure written by MMmdl.
163171  0  0  1  0            999 V2000
  -30.7468  -14.4523   20.6339 C   0  0  0  0  0  0
  -30.4147  -12.3238   19.4166 C   0  0  0  0  0  0
  -29.4882  -12.5210   18.2026 C   0  0  0  0  0  0
  -28.0137  -12.3688   18.6191 C   0  0  0  0  0  0
  -27.6595  -13.2127   19.8727 C   0  0  2  0  0  0
  -28.7001  -13.0082   20.9956 C   0  0  0  0  0  0
  -25.2576  -13.8173   20.5659 C   0  0  0  0  0  0
  -24.1839  -13.0442   20.9175 C   0  0  0  0  0  0
  -24.6402  -11.6911   20.8749 C   0  0  0  0  0  0
  -23.9075  -10.4289   21.0416 C   0  0  0  0  0  0
  -24.3625   -9.4202   21.9193 C   0  0  0  0  0  0
  -23.6293   -8.2239   22.0764 C   0  0  0  0  0  0
  -22.4276   -8.0279   21.3551 C   0  0  0  0  0  0
  -21.9916   -9.0254   20.4656 C   0  0  0  0  0  0
  -22.7248  -10.2131   20.3063 C   0  0  0  0  0  0
  -21.6851   -6.0734   22.5280 C   0  0  0  0  0  0
  -21.4014   -6.5639   23.8213 C   0  0  0  0  0  0
  -21.3661   -5.6792   24.9174 C   0  0  0  0  0  0
  -21.6042   -4.3053   24.7226 C   0  0  0  0  0  0
  -21.8819   -3.8146   23.4346 C   0  0  0  0  0  0
  -21.9190   -4.6963   22.3401 C   0  0  0  0  0  0
  -22.7858  -13.5240   21.1818 C   0  0  0  0  0  0
  -22.1656   -4.2149   21.0979 F   0  0  0  0  0  0
  -21.5628   -3.4537   25.7740 F   0  0  0  0  0  0
  -30.0318  -13.3093   20.4430 N   0  0  0  0  0  0
  -26.3017  -12.9355   20.3351 N   0  0  0  0  0  0
  -25.9334  -11.6512   20.5776 N   0  0  0  0  0  0
  -22.0490  -12.8250   22.0382 N   0  0  0  0  0  0
  -25.4291  -15.1888   20.4037 N   0  0  0  0  0  0
  -31.8355  -14.6513   20.0873 O   0  0  0  0  0  0
  -21.6636   -6.8879   21.4245 O   0  0  0  0  0  0
  -22.3553  -14.5538   20.6651 O   0  0  0  0  0  0
  -24.6172  -31.8670   23.2102 C   0  0  0  0  0  0
  -25.9061  -32.4808   23.8400 C   0  0  1  0  0  0
  -27.2308  -27.4142   20.0933 C   0  0  0  0  0  0
  -25.5910  -33.8609   24.2345 N   0  0  0  0  0  0
  -23.4048  -30.4952   21.5494 C   0  0  2  0  0  0
  -24.8497  -28.9586   20.1188 C   0  0  0  0  0  0
  -22.7421  -29.4678   22.4955 C   0  0  0  0  0  0
  -18.0283  -28.1359   22.8504 C   0  0  0  0  0  0
  -24.1485  -36.7309   23.2642 C   0  0  0  0  0  0
  -25.9386  -30.8280   21.3663 C   0  0  0  0  0  0
  -26.0146  -29.4609   20.7126 C   0  0  0  0  0  0
  -27.2077  -28.6974   20.6950 C   0  0  0  0  0  0
  -26.0404  -26.9351   19.4953 C   0  0  0  0  0  0
  -24.8581  -27.6950   19.5089 C   0  0  0  0  0  0
  -23.6144  -29.8291   20.1647 C   0  0  0  0  0  0
  -25.4104  -36.3100   24.0341 C   0  0  1  0  0  0
  -20.5881  -28.3674   23.1305 C   0  0  2  0  0  0
  -20.6773  -26.9405   22.5422 C   0  0  0  0  0  0
  -19.5745  -26.6388   21.5220 C   0  0  0  0  0  0
  -18.1926  -26.7908   22.1634 C   0  0  0  0  0  0
  -19.1532  -28.8827   23.2905 C   0  0  0  0  0  0
  -18.9461  -30.1432   23.8919 C   0  0  0  0  0  0
  -17.6460  -30.6569   24.0567 C   0  0  0  0  0  0
  -25.9032  -34.9465   23.5138 C   0  0  0  0  0  0
  -16.5353  -29.9076   23.6315 C   0  0  0  0  0  0
  -16.7273  -28.6484   23.0355 C   0  0  0  0  0  0
  -26.4490  -31.6572   25.0716 C   0  0  0  0  0  0
  -25.3761  -31.3709   26.1472 C   0  0  0  0  0  0
  -27.0333  -30.3003   24.6108 C   0  0  0  0  0  0
  -27.6047  -32.4308   25.7482 C   0  0  0  0  0  0
  -27.5573  -37.1812   24.8466 C   0  0  0  0  0  0
  -21.4145  -29.3051   22.3705 N   0  0  0  0  0  0
  -26.4286  -37.3788   23.9408 N   0  0  0  0  0  0
  -24.6720  -31.0778   22.0997 N   0  0  0  0  0  0
  -23.4199  -28.8205   23.2982 O   0  0  0  0  0  0
  -28.3966  -26.6623   20.1029 O   0  0  0  0  0  0
  -26.5592  -34.8912   22.4699 O   0  0  0  0  0  0
  -23.5363  -32.1415   23.7497 O   0  0  0  0  0  0
  -29.9996  -20.9692   21.0262 C   0  0  0  0  0  0
  -29.2176  -19.8302   21.0667 C   0  0  0  0  0  0
  -27.9102  -21.6308   21.3478 C   0  0  0  0  0  0
  -26.6791  -22.4394   21.5965 C   0  0  0  0  0  0
  -30.4204  -18.5240   23.4389 C   0  0  0  0  0  0
  -29.5402  -18.3434   21.0204 C   0  0  0  0  0  0
  -29.5702  -24.4494   20.2678 C   0  0  0  0  0  0
  -29.6165  -23.4676   21.4746 C   0  0  0  0  0  0
  -30.9968  -16.3931   22.1815 C   0  0  0  0  0  0
  -28.2472  -25.2272   20.0451 C   0  0  0  0  0  0
  -30.6390  -17.9150   22.0358 C   0  0  2  0  0  0
  -29.1811  -22.0594   21.2474 N   0  0  0  0  0  0
  -27.9363  -20.2966   21.2253 N   0  3  0  0  0  0
  -30.2112  -15.3748   21.4580 N   0  0  0  0  0  0
  -31.4588  -12.4161   19.1122 H   0  0  0  0  0  0
  -30.3129  -11.3124   19.8135 H   0  0  0  0  0  0
  -29.7327  -11.8019   17.4198 H   0  0  0  0  0  0
  -29.6491  -13.5111   17.7728 H   0  0  0  0  0  0
  -27.8341  -11.3121   18.8212 H   0  0  0  0  0  0
  -27.3585  -12.6335   17.7886 H   0  0  0  0  0  0
  -27.7008  -14.2599   19.5724 H   0  0  0  0  0  0
  -28.6792  -11.9766   21.3484 H   0  0  0  0  0  0
  -28.4497  -13.6168   21.8656 H   0  0  0  0  0  0
  -25.2772   -9.5667   22.4771 H   0  0  0  0  0  0
  -23.9992   -7.4634   22.7494 H   0  0  0  0  0  0
  -21.0838   -8.8775   19.8973 H   0  0  0  0  0  0
  -22.3704  -10.9671   19.6173 H   0  0  0  0  0  0
  -21.2008   -7.6149   23.9717 H   0  0  0  0  0  0
  -21.1488   -6.0522   25.9076 H   0  0  0  0  0  0
  -22.0603   -2.7609   23.2843 H   0  0  0  0  0  0
  -22.4077  -11.9909   22.4790 H   0  0  0  0  0  0
  -21.1116  -13.1314   22.2573 H   0  0  0  0  0  0
  -24.6607  -15.8434   20.5000 H   0  0  0  0  0  0
  -26.2783  -15.6215   20.0624 H   0  0  0  0  0  0
  -26.7136  -32.5521   23.1167 H   0  0  0  0  0  0
  -25.0080  -33.9787   25.0503 H   0  0  0  0  0  0
  -22.6930  -31.3116   21.4104 H   0  0  0  0  0  0
  -23.3730  -35.9657   23.3311 H   0  0  0  0  0  0
  -24.3588  -36.8913   22.2056 H   0  0  0  0  0  0
  -23.7250  -37.6526   23.6643 H   0  0  0  0  0  0
  -26.0574  -31.5943   20.5989 H   0  0  0  0  0  0
  -26.8253  -30.8790   21.9867 H   0  0  0  0  0  0
  -28.1068  -29.0799   21.1591 H   0  0  0  0  0  0
  -25.9951  -25.9758   19.0038 H   0  0  0  0  0  0
  -23.9633  -27.3019   19.0467 H   0  0  0  0  0  0
  -23.7253  -30.6025   19.4039 H   0  0  0  0  0  0
  -22.7366  -29.2526   19.8667 H   0  0  0  0  0  0
  -25.1282  -36.1969   25.0835 H   0  0  0  0  0  0
  -20.9998  -28.3249   24.1415 H   0  0  0  0  0  0
  -20.5673  -26.2293   23.3624 H   0  0  0  0  0  0
  -21.6645  -26.7432   22.1220 H   0  0  0  0  0  0
  -19.6910  -25.6311   21.1219 H   0  0  0  0  0  0
  -19.6659  -27.3227   20.6770 H   0  0  0  0  0  0
  -17.4202  -26.6671   21.4027 H   0  0  0  0  0  0
  -18.0309  -26.0031   22.9008 H   0  0  0  0  0  0
  -19.7939  -30.7243   24.2299 H   0  0  0  0  0  0
  -17.5017  -31.6250   24.5167 H   0  0  0  0  0  0
  -15.5355  -30.2990   23.7608 H   0  0  0  0  0  0
  -15.8677  -28.0802   22.7064 H   0  0  0  0  0  0
  -24.5904  -30.7077   25.7834 H   0  0  0  0  0  0
  -24.8997  -32.2893   26.4914 H   0  0  0  0  0  0
  -25.8123  -30.8886   27.0228 H   0  0  0  0  0  0
  -26.2900  -29.6738   24.1159 H   0  0  0  0  0  0
  -27.4099  -29.7248   25.4578 H   0  0  0  0  0  0
  -27.8730  -30.4304   23.9272 H   0  0  0  0  0  0
  -27.2628  -33.3585   26.2084 H   0  0  0  0  0  0
  -28.3842  -32.6913   25.0307 H   0  0  0  0  0  0
  -28.0719  -31.8420   26.5384 H   0  0  0  0  0  0
  -28.2609  -38.0095   24.7502 H   0  0  0  0  0  0
  -28.1050  -36.2627   24.6298 H   0  0  0  0  0  0
  -27.2291  -37.1478   25.8872 H   0  0  0  0  0  0
  -20.9282  -29.8809   21.6973 H   0  0  0  0  0  0
  -26.0164  -38.2865   24.1400 H   0  0  0  0  0  0
  -31.0720  -21.0736   20.9262 H   0  0  0  0  0  0
  -26.8845  -23.1882   22.3598 H   0  0  0  0  0  0
  -25.8864  -21.7777   21.9435 H   0  0  0  0  0  0
  -26.3792  -22.9084   20.6606 H   0  0  0  0  0  0
  -30.4246  -19.6134   23.4279 H   0  0  0  0  0  0
  -31.2131  -18.2266   24.1263 H   0  0  0  0  0  0
  -29.4706  -18.2017   23.8672 H   0  0  0  0  0  0
  -29.8424  -18.0769   20.0077 H   0  0  0  0  0  0
  -28.6273  -17.7821   21.2212 H   0  0  0  0  0  0
  -29.8574  -23.9276   19.3539 H   0  0  0  0  0  0
  -30.3566  -25.1887   20.4229 H   0  0  0  0  0  0
  -29.0677  -23.8752   22.3240 H   0  0  0  0  0  0
  -30.6502  -23.4091   21.8182 H   0  0  0  0  0  0
  -30.9241  -16.1047   23.2311 H   0  0  0  0  0  0
  -32.0614  -16.2763   21.9667 H   0  0  0  0  0  0
  -27.5125  -24.9315   20.7926 H   0  0  0  0  0  0
  -27.8561  -24.9323   19.0709 H   0  0  0  0  0  0
  -31.5502  -18.3884   21.6659 H   0  0  0  0  0  0
  -27.1112  -19.7095   21.2856 H   0  0  0  0  0  0
  -29.2951  -15.1589   21.8235 H   0  0  0  0  0  0
  1 25  1  0  0  0
  1 30  2  0  0  0
  1 84  1  0  0  0
  2  3  1  0  0  0
  2 25  1  0  0  0
  2 85  1  0  0  0
  2 86  1  0  0  0
  3  4  1  0  0  0
  3 87  1  0  0  0
  3 88  1  0  0  0
  4  5  1  0  0  0
  4 89  1  0  0  0
  4 90  1  0  0  0
  5  6  1  0  0  0
  5 26  1  0  0  0
  5 91  1  0  0  0
  6 25  1  0  0  0
  6 92  1  0  0  0
  6 93  1  0  0  0
  7  8  2  0  0  0
  7 26  1  0  0  0
  7 29  1  0  0  0
  8  9  1  0  0  0
  8 22  1  0  0  0
  9 10  1  0  0  0
  9 27  2  0  0  0
 10 11  2  0  0  0
 10 15  1  0  0  0
 11 12  1  0  0  0
 11 94  1  0  0  0
 12 13  2  0  0  0
 12 95  1  0  0  0
 13 14  1  0  0  0
 13 31  1  0  0  0
 14 15  2  0  0  0
 14 96  1  0  0  0
 15 97  1  0  0  0
 16 17  2  0  0  0
 16 21  1  0  0  0
 16 31  1  0  0  0
 17 18  1  0  0  0
 17 98  1  0  0  0
 18 19  2  0  0  0
 18 99  1  0  0  0
 19 20  1  0  0  0
 19 24  1  0  0  0
 20 21  2  0  0  0
 20100  1  0  0  0
 21 23  1  0  0  0
 22 28  1  0  0  0
 22 32  2  0  0  0
 26 27  1  0  0  0
 28101  1  0  0  0
 28102  1  0  0  0
 29103  1  0  0  0
 29104  1  0  0  0
 33 34  1  0  0  0
 33 66  1  0  0  0
 33 70  2  0  0  0
 34 36  1  0  0  0
 34 59  1  0  0  0
 34105  1  0  0  0
 35 44  2  0  0  0
 35 45  1  0  0  0
 35 68  1  0  0  0
 36 56  1  0  0  0
 36106  1  0  0  0
 37 39  1  0  0  0
 37 47  1  0  0  0
 37 66  1  0  0  0
 37107  1  0  0  0
 38 43  2  0  0  0
 38 46  1  0  0  0
 38 47  1  0  0  0
 39 64  1  0  0  0
 39 67  2  0  0  0
 40 52  1  0  0  0
 40 53  2  0  0  0
 40 58  1  0  0  0
 41108  1  0  0  0
 41109  1  0  0  0
 41110  1  0  0  0
 41 48  1  0  0  0
 42 43  1  0  0  0
 42 66  1  0  0  0
 42111  1  0  0  0
 42112  1  0  0  0
 43 44  1  0  0  0
 44113  1  0  0  0
 45 46  2  0  0  0
 45114  1  0  0  0
 46115  1  0  0  0
 47116  1  0  0  0
 47117  1  0  0  0
 48 56  1  0  0  0
 48 65  1  0  0  0
 48118  1  0  0  0
 49 50  1  0  0  0
 49 53  1  0  0  0
 49 64  1  0  0  0
 49119  1  0  0  0
 50 51  1  0  0  0
 50120  1  0  0  0
 50121  1  0  0  0
 51 52  1  0  0  0
 51122  1  0  0  0
 51123  1  0  0  0
 52124  1  0  0  0
 52125  1  0  0  0
 53 54  1  0  0  0
 54 55  2  0  0  0
 54126  1  0  0  0
 55 57  1  0  0  0
 55127  1  0  0  0
 56 69  2  0  0  0
 57 58  2  0  0  0
 57128  1  0  0  0
 58129  1  0  0  0
 59 60  1  0  0  0
 59 61  1  0  0  0
 59 62  1  0  0  0
 60130  1  0  0  0
 60131  1  0  0  0
 60132  1  0  0  0
 61133  1  0  0  0
 61134  1  0  0  0
 61135  1  0  0  0
 62136  1  0  0  0
 62137  1  0  0  0
 62138  1  0  0  0
 63 65  1  0  0  0
 63139  1  0  0  0
 63140  1  0  0  0
 63141  1  0  0  0
 64142  1  0  0  0
 65143  1  0  0  0
 68 80  1  0  0  0
 71 72  2  0  0  0
 71 82  1  0  0  0
 71144  1  0  0  0
 72 76  1  0  0  0
 72 83  1  0  0  0
 73 74  1  0  0  0
 73 82  1  0  0  0
 73 83  2  0  0  0
 74145  1  0  0  0
 74146  1  0  0  0
 74147  1  0  0  0
 75148  1  0  0  0
 75149  1  0  0  0
 75150  1  0  0  0
 75 81  1  0  0  0
 76 81  1  0  0  0
 76151  1  0  0  0
 76152  1  0  0  0
 77 78  1  0  0  0
 77 80  1  0  0  0
 77153  1  0  0  0
 77154  1  0  0  0
 78 82  1  0  0  0
 78155  1  0  0  0
 78156  1  0  0  0
 79 81  1  0  0  0
 79 84  1  0  0  0
 79157  1  0  0  0
 79158  1  0  0  0
 80159  1  0  0  0
 80160  1  0  0  0
 81161  1  0  0  0
 83162  1  0  0  0
 84163  1  0  0  0
M  CHG  1  83   1
M  ISO  4   1 100  68 101  80 101  84 100
M  END
> <chiral flag>
0

> <version>
0

> <s_m_source_file>
/data/baiqing/PycharmProjects/Reinvent-master-3.2/result/LINK_invent/BTK/process_docking_weight1_custom_sum_contain_oxygen_bond_distance_aromatic_linkinvent_7_9_3/rearranged_h_0081.sdf

> <i_m_source_file_index>
90

> <r_mmod_Potential_Energy-OPLS-2005>
-73.334358215332

> <r_mmod_Stretch_Energy-OPLS-2005>
42.066463470459

> <r_mmod_Bend_Energy-OPLS-2005>
118.214752197266

> <r_mmod_Torsional_Energy-OPLS-2005>
253.705352783203

> <r_mmod_Improper_Torsional_Energy-OPLS-2005>
3.30895042419434

> <r_mmod_Van_der_Waal_Energy-OPLS-2005>
133.771514892578

> <r_mmod_Electrostatic_Energy-OPLS-2005>
-217.987594604492

> <r_mmod_Solvation_Energy-OPLS-2005>
-419.329193115234

> <b_mmod_Minimization_Converged-OPLS-2005>
0

> <r_mmod_RMS_Derivative-OPLS-2005>
1.36845064163208

$$$$
90
                    3D
 Structure written by MMmdl.
172180  0  0  1  0            999 V2000
  -30.7308  -14.5035   20.4966 C   0  0  0  0  0  0
  -30.4059  -12.3159   19.4355 C   0  0  0  0  0  0
  -29.4932  -12.5168   18.2092 C   0  0  0  0  0  0
  -28.0142  -12.3693   18.6172 C   0  0  0  0  0  0
  -27.6551  -13.2323   19.8591 C   0  0  2  0  0  0
  -28.6990  -13.0821   20.9922 C   0  0  0  0  0  0
  -25.2549  -13.8245   20.5750 C   0  0  0  0  0  0
  -24.1832  -13.0493   20.9240 C   0  0  0  0  0  0
  -24.6404  -11.6981   20.8735 C   0  0  0  0  0  0
  -23.9064  -10.4344   21.0355 C   0  0  0  0  0  0
  -24.3619   -9.4244   21.9154 C   0  0  0  0  0  0
  -23.6295   -8.2255   22.0683 C   0  0  0  0  0  0
  -22.4294   -8.0267   21.3464 C   0  0  0  0  0  0
  -21.9904   -9.0268   20.4598 C   0  0  0  0  0  0
  -22.7228  -10.2142   20.3007 C   0  0  0  0  0  0
  -21.6882   -6.0750   22.5272 C   0  0  0  0  0  0
  -21.4043   -6.5641   23.8222 C   0  0  0  0  0  0
  -21.3654   -5.6752   24.9158 C   0  0  0  0  0  0
  -21.6034   -4.3019   24.7217 C   0  0  0  0  0  0
  -21.8826   -3.8142   23.4328 C   0  0  0  0  0  0
  -21.9207   -4.6977   22.3397 C   0  0  0  0  0  0
  -22.7830  -13.5286   21.1830 C   0  0  0  0  0  0
  -22.1679   -4.2183   21.0969 F   0  0  0  0  0  0
  -21.5605   -3.4494   25.7716 F   0  0  0  0  0  0
  -30.0334  -13.3380   20.4268 N   0  0  0  0  0  0
  -26.3002  -12.9469   20.3314 N   0  0  0  0  0  0
  -25.9336  -11.6607   20.5728 N   0  0  0  0  0  0
  -22.0412  -12.8315   22.0380 N   0  0  0  0  0  0
  -25.4259  -15.1942   20.4221 N   0  0  0  0  0  0
  -31.9069  -14.5870   20.1387 O   0  0  0  0  0  0
  -21.6608   -6.8881   21.4217 O   0  0  0  0  0  0
  -22.3555  -14.5590   20.6615 O   0  0  0  0  0  0
  -24.6151  -31.8720   23.2167 C   0  0  0  0  0  0
  -25.9082  -32.4822   23.8395 C   0  0  1  0  0  0
  -27.2241  -27.4271   20.1210 C   0  0  0  0  0  0
  -25.5912  -33.8621   24.2333 N   0  0  0  0  0  0
  -23.4005  -30.4976   21.5602 C   0  0  2  0  0  0
  -24.8458  -28.9810   20.1013 C   0  0  0  0  0  0
  -22.7377  -29.4689   22.5048 C   0  0  0  0  0  0
  -18.0297  -28.1359   22.8559 C   0  0  0  0  0  0
  -24.1475  -36.7336   23.2647 C   0  0  0  0  0  0
  -25.9298  -30.8411   21.3720 C   0  0  0  0  0  0
  -26.0066  -29.4814   20.7055 C   0  0  0  0  0  0
  -27.1969  -28.7141   20.7119 C   0  0  0  0  0  0
  -26.0477  -26.9672   19.4769 C   0  0  0  0  0  0
  -24.8643  -27.7235   19.4779 C   0  0  0  0  0  0
  -23.6011  -29.8369   20.1701 C   0  0  0  0  0  0
  -25.4098  -36.3133   24.0353 C   0  0  1  0  0  0
  -20.5872  -28.3630   23.1389 C   0  0  2  0  0  0
  -20.6779  -26.9367   22.5467 C   0  0  0  0  0  0
  -19.5735  -26.6373   21.5285 C   0  0  0  0  0  0
  -18.1912  -26.7931   22.1675 C   0  0  0  0  0  0
  -19.1539  -28.8833   23.2978 C   0  0  0  0  0  0
  -18.9442  -30.1447   23.8951 C   0  0  0  0  0  0
  -17.6435  -30.6578   24.0586 C   0  0  0  0  0  0
  -25.9020  -34.9499   23.5130 C   0  0  0  0  0  0
  -16.5349  -29.9060   23.6341 C   0  0  0  0  0  0
  -16.7274  -28.6490   23.0372 C   0  0  0  0  0  0
  -26.4514  -31.6594   25.0724 C   0  0  0  0  0  0
  -25.3783  -31.3691   26.1468 C   0  0  0  0  0  0
  -27.0348  -30.3013   24.6136 C   0  0  0  0  0  0
  -27.6090  -32.4307   25.7482 C   0  0  0  0  0  0
  -27.5584  -37.1812   24.8465 C   0  0  0  0  0  0
  -21.4133  -29.2998   22.3772 N   0  0  0  0  0  0
  -26.4290  -37.3817   23.9406 N   0  0  0  0  0  0
  -24.6673  -31.0790   22.1077 N   0  0  0  0  0  0
  -23.4162  -28.8251   23.3124 O   0  0  0  0  0  0
  -28.3644  -26.6451   20.2095 O   0  0  0  0  0  0
  -26.5565  -34.8951   22.4679 O   0  0  0  0  0  0
  -23.5351  -32.1523   23.7512 O   0  0  0  0  0  0
  -29.7216  -21.6844   20.2203 C   0  0  0  0  0  0
  -29.4046  -22.9257   19.6957 C   0  0  0  0  0  0
  -29.1952  -22.6916   18.2886 C   0  0  0  0  0  0
  -29.2989  -21.3409   18.0555 C   0  0  0  0  0  0
  -28.9463  -23.7188   17.1958 C   0  0  0  0  0  0
  -29.1458  -20.6075   16.7474 C   0  0  0  0  0  0
  -30.7204  -25.0299   20.2008 C   0  0  0  0  0  0
  -29.2372  -24.0899   21.9686 C   0  0  0  0  0  0
  -28.3233  -18.1556   20.7553 C   0  0  0  0  0  0
  -30.6258  -18.6423   21.7020 C   0  0  0  0  0  0
  -30.1376  -19.2733   19.2619 C   0  0  0  0  0  0
  -30.3385  -16.8666   19.9064 C   0  0  0  0  0  0
  -28.1857  -25.2209   20.0185 C   0  0  0  0  0  0
  -29.3815  -24.3012   20.4453 C   0  0  0  0  0  0
  -29.8306  -18.2575   20.4334 C   0  0  0  0  0  0
  -29.6792  -20.6957   19.2313 N   0  0  0  0  0  0
  -29.9983  -15.6274   20.6507 N   0  0  0  0  0  0
  -31.4540  -12.3849   19.1454 H   0  0  0  0  0  0
  -30.2800  -11.3167   19.8565 H   0  0  0  0  0  0
  -29.7408  -11.7911   17.4331 H   0  0  0  0  0  0
  -29.6645  -13.5045   17.7732 H   0  0  0  0  0  0
  -27.8387  -11.3154   18.8340 H   0  0  0  0  0  0
  -27.3584  -12.6146   17.7787 H   0  0  0  0  0  0
  -27.6773  -14.2690   19.5223 H   0  0  0  0  0  0
  -28.6641  -12.0835   21.4287 H   0  0  0  0  0  0
  -28.4832  -13.7781   21.8042 H   0  0  0  0  0  0
  -25.2759   -9.5770   22.4727 H   0  0  0  0  0  0
  -24.0035   -7.4669   22.7401 H   0  0  0  0  0  0
  -21.0830   -8.8805   19.8937 H   0  0  0  0  0  0
  -22.3679  -10.9669   19.6112 H   0  0  0  0  0  0
  -21.2040   -7.6149   23.9774 H   0  0  0  0  0  0
  -21.1445   -6.0445   25.9070 H   0  0  0  0  0  0
  -22.0604   -2.7615   23.2794 H   0  0  0  0  0  0
  -22.4011  -12.0114   22.5001 H   0  0  0  0  0  0
  -21.0973  -13.1274   22.2404 H   0  0  0  0  0  0
  -24.6467  -15.8405   20.5160 H   0  0  0  0  0  0
  -26.2796  -15.6338   20.1040 H   0  0  0  0  0  0
  -26.7136  -32.5572   23.1153 H   0  0  0  0  0  0
  -25.0064  -33.9751   25.0463 H   0  0  0  0  0  0
  -22.6937  -31.3207   21.4297 H   0  0  0  0  0  0
  -23.3743  -35.9658   23.3316 H   0  0  0  0  0  0
  -24.3586  -36.8945   22.2062 H   0  0  0  0  0  0
  -23.7213  -37.6528   23.6663 H   0  0  0  0  0  0
  -26.0403  -31.6245   20.6199 H   0  0  0  0  0  0
  -26.8175  -30.8833   21.9934 H   0  0  0  0  0  0
  -28.0802  -29.0861   21.2123 H   0  0  0  0  0  0
  -26.0084  -26.0133   18.9752 H   0  0  0  0  0  0
  -23.9767  -27.3344   18.9980 H   0  0  0  0  0  0
  -23.6738  -30.6181   19.4126 H   0  0  0  0  0  0
  -22.7298  -29.2413   19.8904 H   0  0  0  0  0  0
  -25.1256  -36.2014   25.0844 H   0  0  0  0  0  0
  -20.9990  -28.3201   24.1504 H   0  0  0  0  0  0
  -20.5801  -26.2191   23.3631 H   0  0  0  0  0  0
  -21.6632  -26.7488   22.1185 H   0  0  0  0  0  0
  -19.6876  -25.6305   21.1263 H   0  0  0  0  0  0
  -19.6665  -27.3253   20.6871 H   0  0  0  0  0  0
  -17.4199  -26.6817   21.4024 H   0  0  0  0  0  0
  -18.0206  -26.0025   22.9009 H   0  0  0  0  0  0
  -19.7920  -30.7287   24.2288 H   0  0  0  0  0  0
  -17.4989  -31.6275   24.5157 H   0  0  0  0  0  0
  -15.5334  -30.2962   23.7630 H   0  0  0  0  0  0
  -15.8708  -28.0824   22.7003 H   0  0  0  0  0  0
  -24.5922  -30.7092   25.7785 H   0  0  0  0  0  0
  -24.9032  -32.2844   26.4987 H   0  0  0  0  0  0
  -25.8142  -30.8783   27.0175 H   0  0  0  0  0  0
  -26.2885  -29.6705   24.1295 H   0  0  0  0  0  0
  -27.4174  -29.7325   25.4619 H   0  0  0  0  0  0
  -27.8703  -30.4267   23.9253 H   0  0  0  0  0  0
  -27.2716  -33.3596   26.2078 H   0  0  0  0  0  0
  -28.3893  -32.6868   25.0311 H   0  0  0  0  0  0
  -28.0779  -31.8426   26.5374 H   0  0  0  0  0  0
  -28.2600  -38.0110   24.7503 H   0  0  0  0  0  0
  -28.1063  -36.2632   24.6281 H   0  0  0  0  0  0
  -27.2305  -37.1477   25.8870 H   0  0  0  0  0  0
  -20.9258  -29.8604   21.6924 H   0  0  0  0  0  0
  -26.0197  -38.2889   24.1408 H   0  0  0  0  0  0
  -30.0295  -21.4319   21.2241 H   0  0  0  0  0  0
  -29.5836  -24.5920   17.3367 H   0  0  0  0  0  0
  -27.9043  -24.0389   17.1831 H   0  0  0  0  0  0
  -29.1602  -23.3370   16.1980 H   0  0  0  0  0  0
  -28.6176  -21.2094   16.0106 H   0  0  0  0  0  0
  -28.5613  -19.6925   16.8419 H   0  0  0  0  0  0
  -30.1174  -20.3490   16.3232 H   0  0  0  0  0  0
  -31.5628  -24.4302   20.5465 H   0  0  0  0  0  0
  -30.7714  -25.9742   20.7453 H   0  0  0  0  0  0
  -30.8873  -25.2635   19.1521 H   0  0  0  0  0  0
  -30.0959  -23.5734   22.3979 H   0  0  0  0  0  0
  -28.3424  -23.5163   22.2130 H   0  0  0  0  0  0
  -29.1452  -25.0464   22.4882 H   0  0  0  0  0  0
  -27.8985  -19.1205   21.0365 H   0  0  0  0  0  0
  -28.1437  -17.4686   21.5852 H   0  0  0  0  0  0
  -27.7577  -17.7740   19.9027 H   0  0  0  0  0  0
  -30.2100  -19.5149   22.2018 H   0  0  0  0  0  0
  -31.6712  -18.8651   21.4710 H   0  0  0  0  0  0
  -30.6296  -17.8300   22.4295 H   0  0  0  0  0  0
  -29.7526  -18.7876   18.3665 H   0  0  0  0  0  0
  -31.2151  -19.2966   19.0900 H   0  0  0  0  0  0
  -31.4159  -16.9436   19.7458 H   0  0  0  0  0  0
  -29.9143  -16.6894   18.9167 H   0  0  0  0  0  0
  -27.2957  -24.8856   20.5607 H   0  0  0  0  0  0
  -27.9623  -25.1012   18.9711 H   0  0  0  0  0  0
  -29.0283  -15.4941   20.8857 H   0  0  0  0  0  0
  1 25  1  0  0  0
  1 30  2  0  0  0
  1 87  1  0  0  0
  2  3  1  0  0  0
  2 25  1  0  0  0
  2 88  1  0  0  0
  2 89  1  0  0  0
  3  4  1  0  0  0
  3 90  1  0  0  0
  3 91  1  0  0  0
  4  5  1  0  0  0
  4 92  1  0  0  0
  4 93  1  0  0  0
  5  6  1  0  0  0
  5 26  1  0  0  0
  5 94  1  0  0  0
  6 25  1  0  0  0
  6 95  1  0  0  0
  6 96  1  0  0  0
  7  8  2  0  0  0
  7 26  1  0  0  0
  7 29  1  0  0  0
  8  9  1  0  0  0
  8 22  1  0  0  0
  9 10  1  0  0  0
  9 27  2  0  0  0
 10 11  2  0  0  0
 10 15  1  0  0  0
 11 12  1  0  0  0
 11 97  1  0  0  0
 12 13  2  0  0  0
 12 98  1  0  0  0
 13 14  1  0  0  0
 13 31  1  0  0  0
 14 15  2  0  0  0
 14 99  1  0  0  0
 15100  1  0  0  0
 16 17  2  0  0  0
 16 21  1  0  0  0
 16 31  1  0  0  0
 17 18  1  0  0  0
 17101  1  0  0  0
 18 19  2  0  0  0
 18102  1  0  0  0
 19 20  1  0  0  0
 19 24  1  0  0  0
 20 21  2  0  0  0
 20103  1  0  0  0
 21 23  1  0  0  0
 22 28  1  0  0  0
 22 32  2  0  0  0
 26 27  1  0  0  0
 28104  1  0  0  0
 28105  1  0  0  0
 29106  1  0  0  0
 29107  1  0  0  0
 33 34  1  0  0  0
 33 66  1  0  0  0
 33 70  2  0  0  0
 34 36  1  0  0  0
 34 59  1  0  0  0
 34108  1  0  0  0
 35 44  2  0  0  0
 35 45  1  0  0  0
 35 68  1  0  0  0
 36 56  1  0  0  0
 36109  1  0  0  0
 37 39  1  0  0  0
 37 47  1  0  0  0
 37 66  1  0  0  0
 37110  1  0  0  0
 38 43  2  0  0  0
 38 46  1  0  0  0
 38 47  1  0  0  0
 39 64  1  0  0  0
 39 67  2  0  0  0
 40 52  1  0  0  0
 40 53  2  0  0  0
 40 58  1  0  0  0
 41111  1  0  0  0
 41112  1  0  0  0
 41113  1  0  0  0
 41 48  1  0  0  0
 42 43  1  0  0  0
 42 66  1  0  0  0
 42114  1  0  0  0
 42115  1  0  0  0
 43 44  1  0  0  0
 44116  1  0  0  0
 45 46  2  0  0  0
 45117  1  0  0  0
 46118  1  0  0  0
 47119  1  0  0  0
 47120  1  0  0  0
 48 56  1  0  0  0
 48 65  1  0  0  0
 48121  1  0  0  0
 49 50  1  0  0  0
 49 53  1  0  0  0
 49 64  1  0  0  0
 49122  1  0  0  0
 50 51  1  0  0  0
 50123  1  0  0  0
 50124  1  0  0  0
 51 52  1  0  0  0
 51125  1  0  0  0
 51126  1  0  0  0
 52127  1  0  0  0
 52128  1  0  0  0
 53 54  1  0  0  0
 54 55  2  0  0  0
 54129  1  0  0  0
 55 57  1  0  0  0
 55130  1  0  0  0
 56 69  2  0  0  0
 57 58  2  0  0  0
 57131  1  0  0  0
 58132  1  0  0  0
 59 60  1  0  0  0
 59 61  1  0  0  0
 59 62  1  0  0  0
 60133  1  0  0  0
 60134  1  0  0  0
 60135  1  0  0  0
 61136  1  0  0  0
 61137  1  0  0  0
 61138  1  0  0  0
 62139  1  0  0  0
 62140  1  0  0  0
 62141  1  0  0  0
 63 65  1  0  0  0
 63142  1  0  0  0
 63143  1  0  0  0
 63144  1  0  0  0
 64145  1  0  0  0
 65146  1  0  0  0
 68 83  1  0  0  0
 71 72  2  0  0  0
 71 86  1  0  0  0
 71147  1  0  0  0
 72 73  1  0  0  0
 72 84  1  0  0  0
 73 74  2  0  0  0
 73 75  1  0  0  0
 74 76  1  0  0  0
 74 86  1  0  0  0
 75148  1  0  0  0
 75149  1  0  0  0
 75150  1  0  0  0
 76151  1  0  0  0
 76152  1  0  0  0
 76153  1  0  0  0
 77154  1  0  0  0
 77155  1  0  0  0
 77156  1  0  0  0
 77 84  1  0  0  0
 78 84  1  0  0  0
 78157  1  0  0  0
 78158  1  0  0  0
 78159  1  0  0  0
 79160  1  0  0  0
 79161  1  0  0  0
 79162  1  0  0  0
 79 85  1  0  0  0
 80 85  1  0  0  0
 80163  1  0  0  0
 80164  1  0  0  0
 80165  1  0  0  0
 81 85  1  0  0  0
 81 86  1  0  0  0
 81166  1  0  0  0
 81167  1  0  0  0
 82 85  1  0  0  0
 82 87  1  0  0  0
 82168  1  0  0  0
 82169  1  0  0  0
 83 84  1  0  0  0
 83170  1  0  0  0
 83171  1  0  0  0
 87172  1  0  0  0
M  ISO  4   1 100  68 101  83 101  87 100
M  END
> <chiral flag>
0

> <version>
0

> <s_m_source_file>
/data/baiqing/PycharmProjects/Reinvent-master-3.2/result/LINK_invent/BTK/process_docking_weight1_custom_sum_contain_oxygen_bond_distance_aromatic_linkinvent_7_9_3/rearranged_h_0081.sdf

> <i_m_source_file_index>
91

> <r_mmod_Potential_Energy-OPLS-2005>
-3.92502403259277

> <r_mmod_Stretch_Energy-OPLS-2005>
55.0703353881836

> <r_mmod_Bend_Energy-OPLS-2005>
146.010025024414

> <r_mmod_Torsional_Energy-OPLS-2005>
250.186004638672

> <r_mmod_Improper_Torsional_Energy-OPLS-2005>
12.3599977493286

> <r_mmod_Van_der_Waal_Energy-OPLS-2005>
148.749938964844

> <r_mmod_Electrostatic_Energy-OPLS-2005>
-443.303649902344

> <r_mmod_Solvation_Energy-OPLS-2005>
-197.89582824707

> <b_mmod_Minimization_Converged-OPLS-2005>
0

> <r_mmod_RMS_Derivative-OPLS-2005>
6.92293739318848

$$$$
91
                    3D
 Structure written by MMmdl.
157165  0  0  1  0            999 V2000
  -30.5461  -14.9630   20.4001 C   0  0  0  0  0  0
  -30.4387  -12.5942   19.5086 C   0  0  0  0  0  0
  -29.5205  -12.5252   18.2655 C   0  0  0  0  0  0
  -28.0564  -12.3068   18.6872 C   0  0  0  0  0  0
  -27.6294  -13.2514   19.8401 C   0  0  2  0  0  0
  -28.6700  -13.2930   20.9795 C   0  0  0  0  0  0
  -25.2461  -13.8233   20.5722 C   0  0  0  0  0  0
  -24.1776  -13.0448   20.9246 C   0  0  0  0  0  0
  -24.6404  -11.6942   20.8791 C   0  0  0  0  0  0
  -23.9106  -10.4301   21.0442 C   0  0  0  0  0  0
  -24.3645   -9.4200   21.9214 C   0  0  0  0  0  0
  -23.6307   -8.2246   22.0762 C   0  0  0  0  0  0
  -22.4289   -8.0304   21.3546 C   0  0  0  0  0  0
  -21.9946   -9.0283   20.4646 C   0  0  0  0  0  0
  -22.7289  -10.2154   20.3069 C   0  0  0  0  0  0
  -21.6842   -6.0764   22.5276 C   0  0  0  0  0  0
  -21.4010   -6.5659   23.8216 C   0  0  0  0  0  0
  -21.3656   -5.6800   24.9175 C   0  0  0  0  0  0
  -21.6039   -4.3067   24.7211 C   0  0  0  0  0  0
  -21.8818   -3.8171   23.4331 C   0  0  0  0  0  0
  -21.9185   -4.6991   22.3394 C   0  0  0  0  0  0
  -22.7788  -13.5216   21.1897 C   0  0  0  0  0  0
  -22.1650   -4.2189   21.0970 F   0  0  0  0  0  0
  -21.5629   -3.4544   25.7724 F   0  0  0  0  0  0
  -29.9487  -13.7009   20.3824 N   0  0  0  0  0  0
  -26.2885  -12.9468   20.3265 N   0  0  0  0  0  0
  -25.9338  -11.6598   20.5776 N   0  0  0  0  0  0
  -22.0421  -12.8192   22.0430 N   0  0  0  0  0  0
  -25.4137  -15.1956   20.4127 N   0  0  0  0  0  0
  -31.7413  -15.0164   20.0939 O   0  0  0  0  0  0
  -21.6626   -6.8916   21.4247 O   0  0  0  0  0  0
  -22.3481  -14.5527   20.6753 O   0  0  0  0  0  0
  -24.6482  -31.8434   23.1889 C   0  0  0  0  0  0
  -25.9254  -32.4680   23.8289 C   0  0  1  0  0  0
  -27.2060  -27.1026   20.1493 C   0  0  0  0  0  0
  -25.6005  -33.8481   24.2208 N   0  0  0  0  0  0
  -23.4523  -30.4637   21.5357 C   0  0  2  0  0  0
  -24.9006  -28.8883   20.1148 C   0  0  0  0  0  0
  -22.7618  -29.4538   22.4855 C   0  0  0  0  0  0
  -18.0326  -28.1368   22.8459 C   0  0  0  0  0  0
  -24.1484  -36.7235   23.2626 C   0  0  0  0  0  0
  -26.0106  -30.7074   21.3914 C   0  0  0  0  0  0
  -26.0830  -29.3165   20.7286 C   0  0  0  0  0  0
  -27.2423  -28.4434   20.7215 C   0  0  0  0  0  0
  -25.9924  -26.7862   19.4980 C   0  0  0  0  0  0
  -24.8677  -27.6355   19.4884 C   0  0  0  0  0  0
  -23.6806  -29.7940   20.1573 C   0  0  0  0  0  0
  -25.4120  -36.2998   24.0286 C   0  0  1  0  0  0
  -20.5943  -28.3699   23.1205 C   0  0  2  0  0  0
  -20.6801  -26.9394   22.5400 C   0  0  0  0  0  0
  -19.5775  -26.6359   21.5196 C   0  0  0  0  0  0
  -18.1952  -26.7918   22.1601 C   0  0  0  0  0  0
  -19.1585  -28.8856   23.2813 C   0  0  0  0  0  0
  -18.9500  -30.1448   23.8829 C   0  0  0  0  0  0
  -17.6489  -30.6553   24.0539 C   0  0  0  0  0  0
  -25.9080  -34.9381   23.5047 C   0  0  0  0  0  0
  -16.5380  -29.9041   23.6311 C   0  0  0  0  0  0
  -16.7315  -28.6471   23.0315 C   0  0  0  0  0  0
  -26.4578  -31.6556   25.0724 C   0  0  0  0  0  0
  -25.3741  -31.3719   26.1388 C   0  0  0  0  0  0
  -27.0480  -30.2947   24.6339 C   0  0  0  0  0  0
  -27.6083  -32.4363   25.7521 C   0  0  0  0  0  0
  -27.5572  -37.1765   24.8454 C   0  0  0  0  0  0
  -21.4315  -29.3029   22.3595 N   0  0  0  0  0  0
  -26.4283  -37.3721   23.9398 N   0  0  0  0  0  0
  -24.7244  -31.0268   22.0934 N   0  0  0  0  0  0
  -23.4246  -28.8066   23.3009 O   0  0  0  0  0  0
  -28.2349  -26.0811   20.2211 O   0  0  0  0  0  0
  -26.5654  -34.8868   22.4608 O   0  0  0  0  0  0
  -23.5603  -32.1350   23.7073 O   0  0  0  0  0  0
  -29.6399  -20.1588   18.1749 C   0  0  0  0  0  0
  -29.3588  -20.4381   19.4915 C   0  0  0  0  0  0
  -29.4209  -22.3627   18.2325 C   0  0  0  0  0  0
  -30.2674  -23.9058   16.3561 C   0  0  0  0  0  0
  -29.3315  -19.1260   20.4785 C   0  0  0  0  0  0
  -29.4556  -23.7573   17.6528 C   0  0  0  0  0  0
  -28.8044  -23.1353   20.5018 C   0  0  0  0  0  0
  -30.0443  -17.6398   20.0000 C   0  0  0  0  0  0
  -27.8893  -24.5453   20.1537 C   0  0  0  0  0  0
  -29.1354  -21.9267   19.4921 N   0  0  0  0  0  0
  -29.6612  -21.3067   17.4664 N   0  3  0  0  0  0
  -29.7832  -16.1618   20.5276 N   0  0  0  0  0  0
  -31.4720  -12.7450   19.1913 H   0  0  0  0  0  0
  -30.4337  -11.6475   20.0520 H   0  0  0  0  0  0
  -29.8426  -11.7231   17.6003 H   0  0  0  0  0  0
  -29.6027  -13.4509   17.6949 H   0  0  0  0  0  0
  -27.9622  -11.2687   19.0104 H   0  0  0  0  0  0
  -27.3895  -12.4188   17.8315 H   0  0  0  0  0  0
  -27.5903  -14.2492   19.4020 H   0  0  0  0  0  0
  -28.7549  -12.3212   21.4681 H   0  0  0  0  0  0
  -28.3665  -14.0022   21.7506 H   0  0  0  0  0  0
  -25.2787   -9.5658   22.4804 H   0  0  0  0  0  0
  -23.9998   -7.4624   22.7480 H   0  0  0  0  0  0
  -21.0883   -8.8835   19.8935 H   0  0  0  0  0  0
  -22.3786  -10.9711   19.6182 H   0  0  0  0  0  0
  -21.2006   -7.6168   23.9738 H   0  0  0  0  0  0
  -21.1472   -6.0528   25.9083 H   0  0  0  0  0  0
  -22.0600   -2.7639   23.2814 H   0  0  0  0  0  0
  -22.4006  -11.9825   22.4785 H   0  0  0  0  0  0
  -21.1045  -13.1228   22.2639 H   0  0  0  0  0  0
  -24.6518  -15.8545   20.5328 H   0  0  0  0  0  0
  -26.2576  -15.6300   20.0622 H   0  0  0  0  0  0
  -26.7308  -32.5292   23.1021 H   0  0  0  0  0  0
  -25.0143  -33.9620   25.0347 H   0  0  0  0  0  0
  -22.7524  -31.2865   21.3800 H   0  0  0  0  0  0
  -23.3752  -35.9554   23.3267 H   0  0  0  0  0  0
  -24.3573  -36.8926   22.2050 H   0  0  0  0  0  0
  -23.7267  -37.6417   23.6717 H   0  0  0  0  0  0
  -26.1689  -31.4611   20.6190 H   0  0  0  0  0  0
  -26.8798  -30.7629   22.0353 H   0  0  0  0  0  0
  -28.1510  -28.7639   21.2123 H   0  0  0  0  0  0
  -25.8640  -25.8321   19.0112 H   0  0  0  0  0  0
  -23.9570  -27.3000   19.0113 H   0  0  0  0  0  0
  -23.8314  -30.5681   19.4043 H   0  0  0  0  0  0
  -22.7932  -29.2439   19.8399 H   0  0  0  0  0  0
  -25.1305  -36.1808   25.0782 H   0  0  0  0  0  0
  -21.0024  -28.3294   24.1332 H   0  0  0  0  0  0
  -20.5694  -26.2301   23.3624 H   0  0  0  0  0  0
  -21.6650  -26.7394   22.1184 H   0  0  0  0  0  0
  -19.6917  -25.6262   21.1238 H   0  0  0  0  0  0
  -19.6703  -27.3141   20.6693 H   0  0  0  0  0  0
  -17.4235  -26.6674   21.3988 H   0  0  0  0  0  0
  -18.0319  -26.0052   22.8983 H   0  0  0  0  0  0
  -19.7964  -30.7279   24.2178 H   0  0  0  0  0  0
  -17.5031  -31.6224   24.5159 H   0  0  0  0  0  0
  -15.5366  -30.2893   23.7686 H   0  0  0  0  0  0
  -15.8731  -28.0782   22.7004 H   0  0  0  0  0  0
  -24.5987  -30.6990   25.7710 H   0  0  0  0  0  0
  -24.8817  -32.2858   26.4698 H   0  0  0  0  0  0
  -25.7991  -30.9009   27.0254 H   0  0  0  0  0  0
  -26.3118  -29.6628   24.1346 H   0  0  0  0  0  0
  -27.4087  -29.7277   25.4935 H   0  0  0  0  0  0
  -27.9020  -30.4165   23.9669 H   0  0  0  0  0  0
  -27.2686  -33.3731   26.1940 H   0  0  0  0  0  0
  -28.3978  -32.6841   25.0418 H   0  0  0  0  0  0
  -28.0660  -31.8613   26.5586 H   0  0  0  0  0  0
  -28.2534  -38.0107   24.7524 H   0  0  0  0  0  0
  -28.1146  -36.2639   24.6273 H   0  0  0  0  0  0
  -27.2287  -37.1369   25.8856 H   0  0  0  0  0  0
  -20.9552  -29.8809   21.6822 H   0  0  0  0  0  0
  -26.0135  -38.2763   24.1472 H   0  0  0  0  0  0
  -29.8475  -19.2247   17.6741 H   0  0  0  0  0  0
  -30.2250  -24.9347   15.9975 H   0  0  0  0  0  0
  -29.8678  -23.2777   15.5597 H   0  0  0  0  0  0
  -31.3162  -23.6495   16.5049 H   0  0  0  0  0  0
  -28.2814  -18.9300   20.6881 H   0  0  0  0  0  0
  -29.7641  -19.4211   21.4356 H   0  0  0  0  0  0
  -29.8620  -24.4328   18.4047 H   0  0  0  0  0  0
  -28.4264  -24.0350   17.4308 H   0  0  0  0  0  0
  -28.3293  -22.6476   21.3524 H   0  0  0  0  0  0
  -29.7667  -23.4644   20.8921 H   0  0  0  0  0  0
  -31.1259  -17.7893   19.9954 H   0  0  0  0  0  0
  -29.7914  -17.5070   18.9498 H   0  0  0  0  0  0
  -27.0648  -24.4743   20.8655 H   0  0  0  0  0  0
  -27.3707  -24.3539   19.2196 H   0  0  0  0  0  0
  -29.8735  -21.3595   16.4779 H   0  0  0  0  0  0
  -28.8293  -15.9894   20.8098 H   0  0  0  0  0  0
  1 25  1  0  0  0
  1 30  2  0  0  0
  1 82  1  0  0  0
  2  3  1  0  0  0
  2 25  1  0  0  0
  2 83  1  0  0  0
  2 84  1  0  0  0
  3  4  1  0  0  0
  3 85  1  0  0  0
  3 86  1  0  0  0
  4  5  1  0  0  0
  4 87  1  0  0  0
  4 88  1  0  0  0
  5  6  1  0  0  0
  5 26  1  0  0  0
  5 89  1  0  0  0
  6 25  1  0  0  0
  6 90  1  0  0  0
  6 91  1  0  0  0
  7  8  2  0  0  0
  7 26  1  0  0  0
  7 29  1  0  0  0
  8  9  1  0  0  0
  8 22  1  0  0  0
  9 10  1  0  0  0
  9 27  2  0  0  0
 10 11  2  0  0  0
 10 15  1  0  0  0
 11 12  1  0  0  0
 11 92  1  0  0  0
 12 13  2  0  0  0
 12 93  1  0  0  0
 13 14  1  0  0  0
 13 31  1  0  0  0
 14 15  2  0  0  0
 14 94  1  0  0  0
 15 95  1  0  0  0
 16 17  2  0  0  0
 16 21  1  0  0  0
 16 31  1  0  0  0
 17 18  1  0  0  0
 17 96  1  0  0  0
 18 19  2  0  0  0
 18 97  1  0  0  0
 19 20  1  0  0  0
 19 24  1  0  0  0
 20 21  2  0  0  0
 20 98  1  0  0  0
 21 23  1  0  0  0
 22 28  1  0  0  0
 22 32  2  0  0  0
 26 27  1  0  0  0
 28 99  1  0  0  0
 28100  1  0  0  0
 29101  1  0  0  0
 29102  1  0  0  0
 33 34  1  0  0  0
 33 66  1  0  0  0
 33 70  2  0  0  0
 34 36  1  0  0  0
 34 59  1  0  0  0
 34103  1  0  0  0
 35 44  2  0  0  0
 35 45  1  0  0  0
 35 68  1  0  0  0
 36 56  1  0  0  0
 36104  1  0  0  0
 37 39  1  0  0  0
 37 47  1  0  0  0
 37 66  1  0  0  0
 37105  1  0  0  0
 38 43  2  0  0  0
 38 46  1  0  0  0
 38 47  1  0  0  0
 39 64  1  0  0  0
 39 67  2  0  0  0
 40 52  1  0  0  0
 40 53  2  0  0  0
 40 58  1  0  0  0
 41106  1  0  0  0
 41107  1  0  0  0
 41108  1  0  0  0
 41 48  1  0  0  0
 42 43  1  0  0  0
 42 66  1  0  0  0
 42109  1  0  0  0
 42110  1  0  0  0
 43 44  1  0  0  0
 44111  1  0  0  0
 45 46  2  0  0  0
 45112  1  0  0  0
 46113  1  0  0  0
 47114  1  0  0  0
 47115  1  0  0  0
 48 56  1  0  0  0
 48 65  1  0  0  0
 48116  1  0  0  0
 49 50  1  0  0  0
 49 53  1  0  0  0
 49 64  1  0  0  0
 49117  1  0  0  0
 50 51  1  0  0  0
 50118  1  0  0  0
 50119  1  0  0  0
 51 52  1  0  0  0
 51120  1  0  0  0
 51121  1  0  0  0
 52122  1  0  0  0
 52123  1  0  0  0
 53 54  1  0  0  0
 54 55  2  0  0  0
 54124  1  0  0  0
 55 57  1  0  0  0
 55125  1  0  0  0
 56 69  2  0  0  0
 57 58  2  0  0  0
 57126  1  0  0  0
 58127  1  0  0  0
 59 60  1  0  0  0
 59 61  1  0  0  0
 59 62  1  0  0  0
 60128  1  0  0  0
 60129  1  0  0  0
 60130  1  0  0  0
 61131  1  0  0  0
 61132  1  0  0  0
 61133  1  0  0  0
 62134  1  0  0  0
 62135  1  0  0  0
 62136  1  0  0  0
 63 65  1  0  0  0
 63137  1  0  0  0
 63138  1  0  0  0
 63139  1  0  0  0
 64140  1  0  0  0
 65141  1  0  0  0
 68 79  1  0  0  0
 71 72  2  0  0  0
 71 81  1  0  0  0
 71142  1  0  0  0
 72 75  1  0  0  0
 72 80  1  0  0  0
 73 76  1  0  0  0
 73 80  1  0  0  0
 73 81  2  0  0  0
 74 76  1  0  0  0
 74143  1  0  0  0
 74144  1  0  0  0
 74145  1  0  0  0
 75 78  1  0  0  0
 75146  1  0  0  0
 75147  1  0  0  0
 76148  1  0  0  0
 76149  1  0  0  0
 77 79  1  0  0  0
 77 80  1  0  0  0
 77150  1  0  0  0
 77151  1  0  0  0
 78 82  1  0  0  0
 78152  1  0  0  0
 78153  1  0  0  0
 79154  1  0  0  0
 79155  1  0  0  0
 81156  1  0  0  0
 82157  1  0  0  0
M  CHG  1  81   1
M  ISO  4   1 100  68 101  79 101  82 100
M  END
> <chiral flag>
0

> <version>
0

> <s_m_source_file>
/data/baiqing/PycharmProjects/Reinvent-master-3.2/result/LINK_invent/BTK/process_docking_weight1_custom_sum_contain_oxygen_bond_distance_aromatic_linkinvent_7_9_3/rearranged_h_0081.sdf

> <i_m_source_file_index>
92

> <r_mmod_Potential_Energy-OPLS-2005>
569.185729980469

> <r_mmod_Stretch_Energy-OPLS-2005>
325.913543701172

> <r_mmod_Bend_Energy-OPLS-2005>
333.571807861328

> <r_mmod_Torsional_Energy-OPLS-2005>
237.834686279297

> <r_mmod_Improper_Torsional_Energy-OPLS-2005>
6.37515020370483

> <r_mmod_Van_der_Waal_Energy-OPLS-2005>
124.621803283691

> <r_mmod_Electrostatic_Energy-OPLS-2005>
-239.611862182617

> <r_mmod_Solvation_Energy-OPLS-2005>
-434.321624755859

> <b_mmod_Minimization_Converged-OPLS-2005>
0

> <r_mmod_RMS_Derivative-OPLS-2005>
3.0392153263092

$$$$
92
                    3D
 Structure written by MMmdl.
167175  0  0  1  0            999 V2000
  -30.6304  -14.5016   20.5599 C   0  0  0  0  0  0
  -30.4372  -12.3249   19.4351 C   0  0  0  0  0  0
  -29.4982  -12.5119   18.2195 C   0  0  0  0  0  0
  -28.0183  -12.3646   18.6225 C   0  0  0  0  0  0
  -27.6578  -13.1933   19.8798 C   0  0  2  0  0  0
  -28.6938  -12.9473   21.0004 C   0  0  0  0  0  0
  -25.2459  -13.8039   20.5439 C   0  0  0  0  0  0
  -24.1763  -13.0395   20.9081 C   0  0  0  0  0  0
  -24.6313  -11.6858   20.8740 C   0  0  0  0  0  0
  -23.8984  -10.4259   21.0367 C   0  0  0  0  0  0
  -24.3562   -9.4208   21.9142 C   0  0  0  0  0  0
  -23.6269   -8.2253   22.0737 C   0  0  0  0  0  0
  -22.4251   -8.0240   21.3551 C   0  0  0  0  0  0
  -21.9889   -9.0218   20.4639 C   0  0  0  0  0  0
  -22.7160  -10.2115   20.3022 C   0  0  0  0  0  0
  -21.6885   -6.0699   22.5275 C   0  0  0  0  0  0
  -21.4033   -6.5619   23.8215 C   0  0  0  0  0  0
  -21.3654   -5.6757   24.9172 C   0  0  0  0  0  0
  -21.6035   -4.3002   24.7238 C   0  0  0  0  0  0
  -21.8837   -3.8131   23.4361 C   0  0  0  0  0  0
  -21.9227   -4.6930   22.3415 C   0  0  0  0  0  0
  -22.7800  -13.5186   21.1859 C   0  0  0  0  0  0
  -22.1644   -4.2139   21.0981 F   0  0  0  0  0  0
  -21.5689   -3.4474   25.7750 F   0  0  0  0  0  0
  -30.0275  -13.2784   20.4726 N   0  0  0  0  0  0
  -26.2958  -12.9229   20.3333 N   0  0  0  0  0  0
  -25.9249  -11.6413   20.5860 N   0  0  0  0  0  0
  -22.0498  -12.8227   22.0441 N   0  0  0  0  0  0
  -25.4190  -15.1738   20.3555 N   0  0  0  0  0  0
  -31.7379  -14.7440   20.0760 O   0  0  0  0  0  0
  -21.6660   -6.8813   21.4218 O   0  0  0  0  0  0
  -22.3466  -14.5533   20.6729 O   0  0  0  0  0  0
  -24.6212  -31.8704   23.2130 C   0  0  0  0  0  0
  -25.9075  -32.4838   23.8414 C   0  0  1  0  0  0
  -27.1641  -27.3407   20.0885 C   0  0  0  0  0  0
  -25.5947  -33.8642   24.2335 N   0  0  0  0  0  0
  -23.4086  -30.5037   21.5598 C   0  0  2  0  0  0
  -24.8389  -28.9857   20.0894 C   0  0  0  0  0  0
  -22.7456  -29.4662   22.4968 C   0  0  0  0  0  0
  -18.0291  -28.1368   22.8464 C   0  0  0  0  0  0
  -24.1487  -36.7310   23.2632 C   0  0  0  0  0  0
  -25.9521  -30.7968   21.3837 C   0  0  0  0  0  0
  -26.0110  -29.4381   20.7064 C   0  0  0  0  0  0
  -27.1785  -28.6246   20.7010 C   0  0  0  0  0  0
  -25.9813  -26.9577   19.4074 C   0  0  0  0  0  0
  -24.8263  -27.7562   19.4251 C   0  0  0  0  0  0
  -23.6121  -29.8737   20.1627 C   0  0  0  0  0  0
  -25.4116  -36.3131   24.0333 C   0  0  1  0  0  0
  -20.5879  -28.3660   23.1313 C   0  0  2  0  0  0
  -20.6794  -26.9391   22.5420 C   0  0  0  0  0  0
  -19.5773  -26.6377   21.5235 C   0  0  0  0  0  0
  -18.1939  -26.7919   22.1607 C   0  0  0  0  0  0
  -19.1536  -28.8832   23.2882 C   0  0  0  0  0  0
  -18.9478  -30.1435   23.8891 C   0  0  0  0  0  0
  -17.6468  -30.6571   24.0548 C   0  0  0  0  0  0
  -25.9068  -34.9485   23.5122 C   0  0  0  0  0  0
  -16.5361  -29.9058   23.6343 C   0  0  0  0  0  0
  -16.7291  -28.6470   23.0366 C   0  0  0  0  0  0
  -26.4466  -31.6618   25.0770 C   0  0  0  0  0  0
  -25.3718  -31.3700   26.1503 C   0  0  0  0  0  0
  -27.0275  -30.3059   24.6152 C   0  0  0  0  0  0
  -27.6049  -32.4346   25.7521 C   0  0  0  0  0  0
  -27.5587  -37.1795   24.8463 C   0  0  0  0  0  0
  -21.4179  -29.3003   22.3690 N   0  0  0  0  0  0
  -26.4298  -37.3822   23.9420 N   0  0  0  0  0  0
  -24.6807  -31.0703   22.1098 N   0  0  0  0  0  0
  -23.4192  -28.8167   23.3000 O   0  0  0  0  0  0
  -28.2288  -26.4468   20.2075 O   0  0  0  0  0  0
  -26.5644  -34.8912   22.4686 O   0  0  0  0  0  0
  -23.5398  -32.1507   23.7508 O   0  0  0  0  0  0
  -28.7075  -18.8122   21.4823 C   0  0  0  0  0  0
  -27.7019  -20.1813   22.6627 C   0  0  0  0  0  0
  -26.8717  -21.7561   24.5006 C   0  0  0  0  0  0
  -29.2707  -21.6607   24.0119 C   0  0  0  0  0  0
  -28.2782  -19.6647   25.0141 C   0  0  0  0  0  0
  -29.9050  -18.0803   20.8670 C   0  0  0  0  0  0
  -28.5122  -22.4798   20.4280 C   0  0  0  0  0  0
  -28.8099  -23.9605   20.8931 C   0  0  0  0  0  0
  -29.3416  -21.2395   20.9591 C   0  0  0  0  0  0
  -29.5079  -16.7052   20.2310 C   0  0  0  0  0  0
  -27.8248  -25.0280   20.2839 C   0  0  0  0  0  0
  -27.9919  -20.8234   24.0093 C   0  0  0  0  0  0
  -27.6638  -18.1571   22.0138 N   0  0  0  0  0  0
  -26.9023  -19.1122   22.6332 N   0  0  0  0  0  0
  -28.5897  -20.1616   21.6366 N   0  0  0  0  0  0
  -29.8131  -15.4784   21.0006 N   0  0  0  0  0  0
  -31.4782  -12.4600   19.1355 H   0  0  0  0  0  0
  -30.3811  -11.3093   19.8296 H   0  0  0  0  0  0
  -29.7551  -11.7888   17.4461 H   0  0  0  0  0  0
  -29.6426  -13.4996   17.7741 H   0  0  0  0  0  0
  -27.8272  -11.3068   18.8184 H   0  0  0  0  0  0
  -27.3842  -12.6537   17.7825 H   0  0  0  0  0  0
  -27.7086  -14.2455   19.5959 H   0  0  0  0  0  0
  -28.6747  -11.8941   21.2941 H   0  0  0  0  0  0
  -28.4448  -13.5152   21.8967 H   0  0  0  0  0  0
  -25.2676   -9.5768   22.4717 H   0  0  0  0  0  0
  -24.0072   -7.4635   22.7411 H   0  0  0  0  0  0
  -21.0896   -8.8620   19.8898 H   0  0  0  0  0  0
  -22.3522  -10.9653   19.6157 H   0  0  0  0  0  0
  -21.1979   -7.6106   23.9739 H   0  0  0  0  0  0
  -21.1449   -6.0470   25.9072 H   0  0  0  0  0  0
  -22.0646   -2.7588   23.2893 H   0  0  0  0  0  0
  -22.4136  -11.9829   22.4722 H   0  0  0  0  0  0
  -21.1101  -13.1208   22.2651 H   0  0  0  0  0  0
  -24.6408  -15.8246   20.3965 H   0  0  0  0  0  0
  -26.2747  -15.5875   20.0091 H   0  0  0  0  0  0
  -26.7104  -32.5447   23.1116 H   0  0  0  0  0  0
  -25.0105  -33.9825   25.0478 H   0  0  0  0  0  0
  -22.6987  -31.3261   21.4407 H   0  0  0  0  0  0
  -23.3793  -35.9608   23.3331 H   0  0  0  0  0  0
  -24.3585  -36.8934   22.2050 H   0  0  0  0  0  0
  -23.7213  -37.6495   23.6655 H   0  0  0  0  0  0
  -26.0972  -31.5715   20.6295 H   0  0  0  0  0  0
  -26.8285  -30.8221   22.0187 H   0  0  0  0  0  0
  -28.0696  -28.9413   21.2218 H   0  0  0  0  0  0
  -25.9076  -26.0294   18.8616 H   0  0  0  0  0  0
  -23.9238  -27.4380   18.9212 H   0  0  0  0  0  0
  -23.7318  -30.6740   19.4325 H   0  0  0  0  0  0
  -22.7190  -29.3325   19.8517 H   0  0  0  0  0  0
  -25.1264  -36.2019   25.0838 H   0  0  0  0  0  0
  -20.9968  -28.3235   24.1448 H   0  0  0  0  0  0
  -20.5802  -26.2225   23.3583 H   0  0  0  0  0  0
  -21.6636  -26.7500   22.1126 H   0  0  0  0  0  0
  -19.6976  -25.6320   21.1229 H   0  0  0  0  0  0
  -19.6757  -27.3211   20.6798 H   0  0  0  0  0  0
  -17.4232  -26.6744   21.3989 H   0  0  0  0  0  0
  -18.0273  -26.0048   22.8977 H   0  0  0  0  0  0
  -19.7949  -30.7257   24.2251 H   0  0  0  0  0  0
  -17.5025  -31.6253   24.5144 H   0  0  0  0  0  0
  -15.5344  -30.2940   23.7695 H   0  0  0  0  0  0
  -15.8701  -28.0796   22.7094 H   0  0  0  0  0  0
  -24.5971  -30.6956   25.7866 H   0  0  0  0  0  0
  -24.8766  -32.2792   26.4905 H   0  0  0  0  0  0
  -25.8048  -30.8949   27.0313 H   0  0  0  0  0  0
  -26.2789  -29.6860   24.1226 H   0  0  0  0  0  0
  -27.4059  -29.7274   25.4580 H   0  0  0  0  0  0
  -27.8626  -30.4388   23.9284 H   0  0  0  0  0  0
  -27.2723  -33.3694   26.2033 H   0  0  0  0  0  0
  -28.3863  -32.6870   25.0354 H   0  0  0  0  0  0
  -28.0695  -31.8525   26.5479 H   0  0  0  0  0  0
  -28.2580  -38.0117   24.7560 H   0  0  0  0  0  0
  -28.1095  -36.2647   24.6209 H   0  0  0  0  0  0
  -27.2294  -37.1351   25.8861 H   0  0  0  0  0  0
  -20.9362  -29.8679   21.6884 H   0  0  0  0  0  0
  -26.0202  -38.2909   24.1461 H   0  0  0  0  0  0
  -26.8079  -22.6184   23.8336 H   0  0  0  0  0  0
  -27.1103  -22.1324   25.5013 H   0  0  0  0  0  0
  -25.8838  -21.2948   24.5379 H   0  0  0  0  0  0
  -29.2167  -22.4819   23.3087 H   0  0  0  0  0  0
  -30.1412  -21.0554   23.7614 H   0  0  0  0  0  0
  -29.4420  -22.0823   25.0014 H   0  0  0  0  0  0
  -27.4090  -19.0292   25.2088 H   0  0  0  0  0  0
  -28.6411  -20.0304   25.9728 H   0  0  0  0  0  0
  -29.0495  -18.9958   24.6183 H   0  0  0  0  0  0
  -30.7493  -18.0312   21.5767 H   0  0  0  0  0  0
  -30.3043  -18.6791   20.0424 H   0  0  0  0  0  0
  -28.7105  -22.4976   19.3566 H   0  0  0  0  0  0
  -27.4465  -22.2638   20.4602 H   0  0  0  0  0  0
  -29.8376  -24.2207   20.6538 H   0  0  0  0  0  0
  -28.7455  -24.0416   21.9766 H   0  0  0  0  0  0
  -30.2414  -21.4863   21.5174 H   0  0  0  0  0  0
  -29.6826  -20.7552   20.0424 H   0  0  0  0  0  0
  -29.8581  -16.6247   19.2032 H   0  0  0  0  0  0
  -28.4301  -16.7039   20.0785 H   0  0  0  0  0  0
  -26.9122  -24.9600   20.8893 H   0  0  0  0  0  0
  -27.5343  -24.6958   19.2830 H   0  0  0  0  0  0
  -29.0165  -15.1384   21.5186 H   0  0  0  0  0  0
  1 25  1  0  0  0
  1 30  2  0  0  0
  1 86  1  0  0  0
  2  3  1  0  0  0
  2 25  1  0  0  0
  2 87  1  0  0  0
  2 88  1  0  0  0
  3  4  1  0  0  0
  3 89  1  0  0  0
  3 90  1  0  0  0
  4  5  1  0  0  0
  4 91  1  0  0  0
  4 92  1  0  0  0
  5  6  1  0  0  0
  5 26  1  0  0  0
  5 93  1  0  0  0
  6 25  1  0  0  0
  6 94  1  0  0  0
  6 95  1  0  0  0
  7  8  2  0  0  0
  7 26  1  0  0  0
  7 29  1  0  0  0
  8  9  1  0  0  0
  8 22  1  0  0  0
  9 10  1  0  0  0
  9 27  2  0  0  0
 10 11  2  0  0  0
 10 15  1  0  0  0
 11 12  1  0  0  0
 11 96  1  0  0  0
 12 13  2  0  0  0
 12 97  1  0  0  0
 13 14  1  0  0  0
 13 31  1  0  0  0
 14 15  2  0  0  0
 14 98  1  0  0  0
 15 99  1  0  0  0
 16 17  2  0  0  0
 16 21  1  0  0  0
 16 31  1  0  0  0
 17 18  1  0  0  0
 17100  1  0  0  0
 18 19  2  0  0  0
 18101  1  0  0  0
 19 20  1  0  0  0
 19 24  1  0  0  0
 20 21  2  0  0  0
 20102  1  0  0  0
 21 23  1  0  0  0
 22 28  1  0  0  0
 22 32  2  0  0  0
 26 27  1  0  0  0
 28103  1  0  0  0
 28104  1  0  0  0
 29105  1  0  0  0
 29106  1  0  0  0
 33 34  1  0  0  0
 33 66  1  0  0  0
 33 70  2  0  0  0
 34 36  1  0  0  0
 34 59  1  0  0  0
 34107  1  0  0  0
 35 44  2  0  0  0
 35 45  1  0  0  0
 35 68  1  0  0  0
 36 56  1  0  0  0
 36108  1  0  0  0
 37 39  1  0  0  0
 37 47  1  0  0  0
 37 66  1  0  0  0
 37109  1  0  0  0
 38 43  2  0  0  0
 38 46  1  0  0  0
 38 47  1  0  0  0
 39 64  1  0  0  0
 39 67  2  0  0  0
 40 52  1  0  0  0
 40 53  2  0  0  0
 40 58  1  0  0  0
 41110  1  0  0  0
 41111  1  0  0  0
 41112  1  0  0  0
 41 48  1  0  0  0
 42 43  1  0  0  0
 42 66  1  0  0  0
 42113  1  0  0  0
 42114  1  0  0  0
 43 44  1  0  0  0
 44115  1  0  0  0
 45 46  2  0  0  0
 45116  1  0  0  0
 46117  1  0  0  0
 47118  1  0  0  0
 47119  1  0  0  0
 48 56  1  0  0  0
 48 65  1  0  0  0
 48120  1  0  0  0
 49 50  1  0  0  0
 49 53  1  0  0  0
 49 64  1  0  0  0
 49121  1  0  0  0
 50 51  1  0  0  0
 50122  1  0  0  0
 50123  1  0  0  0
 51 52  1  0  0  0
 51124  1  0  0  0
 51125  1  0  0  0
 52126  1  0  0  0
 52127  1  0  0  0
 53 54  1  0  0  0
 54 55  2  0  0  0
 54128  1  0  0  0
 55 57  1  0  0  0
 55129  1  0  0  0
 56 69  2  0  0  0
 57 58  2  0  0  0
 57130  1  0  0  0
 58131  1  0  0  0
 59 60  1  0  0  0
 59 61  1  0  0  0
 59 62  1  0  0  0
 60132  1  0  0  0
 60133  1  0  0  0
 60134  1  0  0  0
 61135  1  0  0  0
 61136  1  0  0  0
 61137  1  0  0  0
 62138  1  0  0  0
 62139  1  0  0  0
 62140  1  0  0  0
 63 65  1  0  0  0
 63141  1  0  0  0
 63142  1  0  0  0
 63143  1  0  0  0
 64144  1  0  0  0
 65145  1  0  0  0
 68 81  1  0  0  0
 71 76  1  0  0  0
 71 83  2  0  0  0
 71 85  1  0  0  0
 72 82  1  0  0  0
 72 84  2  0  0  0
 72 85  1  0  0  0
 73146  1  0  0  0
 73147  1  0  0  0
 73148  1  0  0  0
 73 82  1  0  0  0
 74 82  1  0  0  0
 74149  1  0  0  0
 74150  1  0  0  0
 74151  1  0  0  0
 75 82  1  0  0  0
 75152  1  0  0  0
 75153  1  0  0  0
 75154  1  0  0  0
 76 80  1  0  0  0
 76155  1  0  0  0
 76156  1  0  0  0
 77 78  1  0  0  0
 77 79  1  0  0  0
 77157  1  0  0  0
 77158  1  0  0  0
 78 81  1  0  0  0
 78159  1  0  0  0
 78160  1  0  0  0
 79 85  1  0  0  0
 79161  1  0  0  0
 79162  1  0  0  0
 80 86  1  0  0  0
 80163  1  0  0  0
 80164  1  0  0  0
 81165  1  0  0  0
 81166  1  0  0  0
 83 84  1  0  0  0
 86167  1  0  0  0
M  ISO  4   1 100  68 101  81 101  86 100
M  END
> <chiral flag>
0

> <version>
0

> <s_m_source_file>
/data/baiqing/PycharmProjects/Reinvent-master-3.2/result/LINK_invent/BTK/process_docking_weight1_custom_sum_contain_oxygen_bond_distance_aromatic_linkinvent_7_9_3/rearranged_h_0081.sdf

> <i_m_source_file_index>
93

> <r_mmod_Potential_Energy-OPLS-2005>
205.67822265625

> <r_mmod_Stretch_Energy-OPLS-2005>
59.9309272766113

> <r_mmod_Bend_Energy-OPLS-2005>
164.233688354492

> <r_mmod_Torsional_Energy-OPLS-2005>
382.969635009766

> <r_mmod_Improper_Torsional_Energy-OPLS-2005>
18.4516658782959

> <r_mmod_Van_der_Waal_Energy-OPLS-2005>
147.109985351562

> <r_mmod_Electrostatic_Energy-OPLS-2005>
-383.170715332031

> <r_mmod_Solvation_Energy-OPLS-2005>
-224.668533325195

> <b_mmod_Minimization_Converged-OPLS-2005>
0

> <r_mmod_RMS_Derivative-OPLS-2005>
13.4628772735596

$$$$
93
                    3D
 Structure written by MMmdl.
173182  0  0  1  0            999 V2000
  -30.7887  -14.4215   20.6386 C   0  0  0  0  0  0
  -30.4096  -12.3086   19.4172 C   0  0  0  0  0  0
  -29.4867  -12.5212   18.2021 C   0  0  0  0  0  0
  -28.0113  -12.3812   18.6165 C   0  0  0  0  0  0
  -27.6621  -13.2203   19.8755 C   0  0  2  0  0  0
  -28.7068  -13.0142   20.9989 C   0  0  0  0  0  0
  -25.2579  -13.8207   20.5682 C   0  0  0  0  0  0
  -24.1827  -13.0433   20.9168 C   0  0  0  0  0  0
  -24.6417  -11.6920   20.8718 C   0  0  0  0  0  0
  -23.9080  -10.4288   21.0389 C   0  0  0  0  0  0
  -24.3624   -9.4206   21.9176 C   0  0  0  0  0  0
  -23.6293   -8.2243   22.0755 C   0  0  0  0  0  0
  -22.4274   -8.0279   21.3541 C   0  0  0  0  0  0
  -21.9911   -9.0254   20.4641 C   0  0  0  0  0  0
  -22.7252  -10.2131   20.3044 C   0  0  0  0  0  0
  -21.6850   -6.0732   22.5288 C   0  0  0  0  0  0
  -21.4014   -6.5640   23.8218 C   0  0  0  0  0  0
  -21.3660   -5.6787   24.9181 C   0  0  0  0  0  0
  -21.6043   -4.3050   24.7224 C   0  0  0  0  0  0
  -21.8821   -3.8148   23.4348 C   0  0  0  0  0  0
  -21.9191   -4.6965   22.3407 C   0  0  0  0  0  0
  -22.7863  -13.5243   21.1838 C   0  0  0  0  0  0
  -22.1658   -4.2152   21.0977 F   0  0  0  0  0  0
  -21.5627   -3.4540   25.7737 F   0  0  0  0  0  0
  -30.0442  -13.2944   20.4494 N   0  0  0  0  0  0
  -26.3021  -12.9395   20.3381 N   0  0  0  0  0  0
  -25.9348  -11.6533   20.5756 N   0  0  0  0  0  0
  -22.0487  -12.8220   22.0392 N   0  0  0  0  0  0
  -25.4270  -15.1916   20.4123 N   0  0  0  0  0  0
  -31.8404  -14.6303   20.0325 O   0  0  0  0  0  0
  -21.6638   -6.8881   21.4245 O   0  0  0  0  0  0
  -22.3531  -14.5534   20.6694 O   0  0  0  0  0  0
  -24.6178  -31.8631   23.2045 C   0  0  0  0  0  0
  -25.9031  -32.4834   23.8396 C   0  0  1  0  0  0
  -27.3043  -27.4763   20.1143 C   0  0  0  0  0  0
  -25.5861  -33.8621   24.2377 N   0  0  0  0  0  0
  -23.4152  -30.4763   21.5363 C   0  0  2  0  0  0
  -24.8854  -28.9453   20.1071 C   0  0  0  0  0  0
  -22.7460  -29.4615   22.4923 C   0  0  0  0  0  0
  -18.0282  -28.1421   22.8516 C   0  0  0  0  0  0
  -24.1514  -36.7294   23.2641 C   0  0  0  0  0  0
  -25.9329  -30.8536   21.3447 C   0  0  0  0  0  0
  -26.0320  -29.4848   20.7042 C   0  0  0  0  0  0
  -27.2389  -28.7557   20.7061 C   0  0  0  0  0  0
  -26.1385  -26.9255   19.5431 C   0  0  0  0  0  0
  -24.9347  -27.6663   19.5172 C   0  0  0  0  0  0
  -23.6319  -29.7906   20.1562 C   0  0  0  0  0  0
  -25.4120  -36.3133   24.0380 C   0  0  1  0  0  0
  -20.5870  -28.3726   23.1284 C   0  0  2  0  0  0
  -20.6775  -26.9459   22.5384 C   0  0  0  0  0  0
  -19.5746  -26.6427   21.5188 C   0  0  0  0  0  0
  -18.1924  -26.7987   22.1600 C   0  0  0  0  0  0
  -19.1529  -28.8883   23.2911 C   0  0  0  0  0  0
  -18.9442  -30.1451   23.9003 C   0  0  0  0  0  0
  -17.6454  -30.6632   24.0577 C   0  0  0  0  0  0
  -25.9008  -34.9477   23.5184 C   0  0  0  0  0  0
  -16.5350  -29.9149   23.6315 C   0  0  0  0  0  0
  -16.7265  -28.6518   23.0427 C   0  0  0  0  0  0
  -26.4489  -31.6627   25.0730 C   0  0  0  0  0  0
  -25.3713  -31.3685   26.1452 C   0  0  0  0  0  0
  -27.0334  -30.3107   24.6021 C   0  0  0  0  0  0
  -27.6120  -32.4337   25.7429 C   0  0  0  0  0  0
  -27.5603  -37.1807   24.8477 C   0  0  0  0  0  0
  -21.4164  -29.3088   22.3699 N   0  0  0  0  0  0
  -26.4317  -37.3804   23.9419 N   0  0  0  0  0  0
  -24.6727  -31.0764   22.0903 N   0  0  0  0  0  0
  -23.4202  -28.8109   23.2958 O   0  0  0  0  0  0
  -28.4824  -26.7716   20.2220 O   0  0  0  0  0  0
  -26.5551  -34.8914   22.4747 O   0  0  0  0  0  0
  -23.5356  -32.1286   23.7442 O   0  0  0  0  0  0
  -28.4530  -24.1072   17.8720 C   0  0  0  0  0  0
  -29.6159  -23.8946   19.9871 C   0  0  0  0  0  0
  -29.0673  -24.7268   18.9773 C   0  0  0  0  0  0
  -28.3315  -22.7075   17.8662 C   0  0  0  0  0  0
  -29.4833  -22.4913   19.8832 C   0  0  0  0  0  0
  -29.4967  -20.0216   22.7416 C   0  0  0  0  0  0
  -31.3279  -19.4672   21.2259 C   0  0  0  0  0  0
  -29.0182  -21.1613   21.8074 C   0  0  0  0  0  0
  -30.8410  -20.5451   20.2303 C   0  0  0  0  0  0
  -30.1313  -18.8255   21.9742 C   0  0  0  0  0  0
  -27.6176  -21.9805   16.7453 C   0  0  0  0  0  0
  -29.1275  -16.9791   23.4607 C   0  0  0  0  0  0
  -31.3221  -17.9590   24.0558 C   0  0  0  0  0  0
  -29.1229  -26.2535   19.0582 C   0  0  0  0  0  0
  -31.1844  -16.3858   22.1132 C   0  0  0  0  0  0
  -30.4356  -17.5487   22.8659 C   0  0  0  0  0  0
  -28.8238  -21.9276   18.8484 N   0  0  0  0  0  0
  -30.0356  -21.6123   20.8470 N   0  0  0  0  0  0
  -30.3494  -15.3031   21.5541 N   0  0  0  0  0  0
  -31.4554  -12.3790   19.1126 H   0  0  0  0  0  0
  -30.2894  -11.2972   19.8100 H   0  0  0  0  0  0
  -29.7218  -11.7978   17.4195 H   0  0  0  0  0  0
  -29.6614  -13.5091   17.7707 H   0  0  0  0  0  0
  -27.8253  -11.3246   18.8092 H   0  0  0  0  0  0
  -27.3593  -12.6574   17.7865 H   0  0  0  0  0  0
  -27.7016  -14.2685   19.5775 H   0  0  0  0  0  0
  -28.6724  -11.9843   21.3585 H   0  0  0  0  0  0
  -28.4625  -13.6343   21.8612 H   0  0  0  0  0  0
  -25.2772   -9.5684   22.4743 H   0  0  0  0  0  0
  -24.0005   -7.4639   22.7478 H   0  0  0  0  0  0
  -21.0846   -8.8779   19.8940 H   0  0  0  0  0  0
  -22.3728  -10.9663   19.6140 H   0  0  0  0  0  0
  -21.2004   -7.6144   23.9732 H   0  0  0  0  0  0
  -21.1479   -6.0508   25.9078 H   0  0  0  0  0  0
  -22.0596   -2.7605   23.2852 H   0  0  0  0  0  0
  -22.4078  -11.9865   22.4766 H   0  0  0  0  0  0
  -21.1104  -13.1260   22.2599 H   0  0  0  0  0  0
  -24.6640  -15.8498   20.5215 H   0  0  0  0  0  0
  -26.2871  -15.6320   20.1093 H   0  0  0  0  0  0
  -26.7170  -32.5645   23.1243 H   0  0  0  0  0  0
  -25.0166  -33.9765   25.0641 H   0  0  0  0  0  0
  -22.7070  -31.2915   21.3839 H   0  0  0  0  0  0
  -23.3786  -35.9605   23.3261 H   0  0  0  0  0  0
  -24.3650  -36.8920   22.2064 H   0  0  0  0  0  0
  -23.7236  -37.6499   23.6630 H   0  0  0  0  0  0
  -26.0240  -31.6128   20.5658 H   0  0  0  0  0  0
  -26.8237  -30.9362   21.9541 H   0  0  0  0  0  0
  -28.1265  -29.1679   21.1680 H   0  0  0  0  0  0
  -26.1596  -25.9091   19.1768 H   0  0  0  0  0  0
  -24.0519  -27.2338   19.0646 H   0  0  0  0  0  0
  -23.7202  -30.5514   19.3802 H   0  0  0  0  0  0
  -22.7741  -29.1787   19.8773 H   0  0  0  0  0  0
  -25.1301  -36.2043   25.0880 H   0  0  0  0  0  0
  -20.9960  -28.3321   24.1404 H   0  0  0  0  0  0
  -20.5672  -26.2354   23.3581 H   0  0  0  0  0  0
  -21.6648  -26.7516   22.1168 H   0  0  0  0  0  0
  -19.6901  -25.6326   21.1249 H   0  0  0  0  0  0
  -19.6682  -27.3204   20.6698 H   0  0  0  0  0  0
  -17.4174  -26.6779   21.4011 H   0  0  0  0  0  0
  -18.0320  -26.0115   22.8978 H   0  0  0  0  0  0
  -19.7889  -30.7212   24.2527 H   0  0  0  0  0  0
  -17.4987  -31.6318   24.5145 H   0  0  0  0  0  0
  -15.5347  -30.3093   23.7568 H   0  0  0  0  0  0
  -15.8650  -28.0790   22.7273 H   0  0  0  0  0  0
  -24.5892  -30.7099   25.7675 H   0  0  0  0  0  0
  -24.8883  -32.2805   26.4964 H   0  0  0  0  0  0
  -25.7991  -30.8737   27.0174 H   0  0  0  0  0  0
  -26.2861  -29.6866   24.1128 H   0  0  0  0  0  0
  -27.4262  -29.7369   25.4418 H   0  0  0  0  0  0
  -27.8587  -30.4512   23.9043 H   0  0  0  0  0  0
  -27.2853  -33.3670   26.2026 H   0  0  0  0  0  0
  -28.3853  -32.6876   25.0161 H   0  0  0  0  0  0
  -28.0876  -31.8453   26.5289 H   0  0  0  0  0  0
  -28.2645  -38.0093   24.7579 H   0  0  0  0  0  0
  -28.1115  -36.2655   24.6271 H   0  0  0  0  0  0
  -27.2309  -37.1380   25.8875 H   0  0  0  0  0  0
  -20.9363  -29.8864   21.6934 H   0  0  0  0  0  0
  -26.0231  -38.2906   24.1380 H   0  0  0  0  0  0
  -28.0561  -24.7046   17.0606 H   0  0  0  0  0  0
  -30.1403  -24.3353   20.8232 H   0  0  0  0  0  0
  -28.6485  -19.7007   23.3430 H   0  0  0  0  0  0
  -30.2214  -20.4380   23.4439 H   0  0  0  0  0  0
  -32.0444  -19.9023   21.9264 H   0  0  0  0  0  0
  -31.8821  -18.7322   20.6469 H   0  0  0  0  0  0
  -28.7475  -22.0181   22.4297 H   0  0  0  0  0  0
  -28.1101  -20.8501   21.2866 H   0  0  0  0  0  0
  -30.2788  -20.0438   19.4410 H   0  0  0  0  0  0
  -31.7087  -21.0019   19.7508 H   0  0  0  0  0  0
  -29.4216  -18.4960   21.2130 H   0  0  0  0  0  0
  -26.8195  -22.5922   16.3265 H   0  0  0  0  0  0
  -27.1629  -21.0607   17.1156 H   0  0  0  0  0  0
  -28.3103  -21.7237   15.9429 H   0  0  0  0  0  0
  -28.6895  -17.6552   24.1936 H   0  0  0  0  0  0
  -29.3084  -16.0404   23.9873 H   0  0  0  0  0  0
  -28.3756  -16.7930   22.6916 H   0  0  0  0  0  0
  -30.8605  -18.7271   24.6733 H   0  0  0  0  0  0
  -32.2864  -18.3314   23.7153 H   0  0  0  0  0  0
  -31.4963  -17.1114   24.7192 H   0  0  0  0  0  0
  -28.7394  -26.7103   18.1443 H   0  0  0  0  0  0
  -30.1678  -26.5663   19.1294 H   0  0  0  0  0  0
  -31.8316  -15.8653   22.8230 H   0  0  0  0  0  0
  -31.8738  -16.7772   21.3685 H   0  0  0  0  0  0
  -29.4897  -15.0856   22.0307 H   0  0  0  0  0  0
  1 25  1  0  0  0
  1 30  2  0  0  0
  1 89  1  0  0  0
  2  3  1  0  0  0
  2 25  1  0  0  0
  2 90  1  0  0  0
  2 91  1  0  0  0
  3  4  1  0  0  0
  3 92  1  0  0  0
  3 93  1  0  0  0
  4  5  1  0  0  0
  4 94  1  0  0  0
  4 95  1  0  0  0
  5  6  1  0  0  0
  5 26  1  0  0  0
  5 96  1  0  0  0
  6 25  1  0  0  0
  6 97  1  0  0  0
  6 98  1  0  0  0
  7  8  2  0  0  0
  7 26  1  0  0  0
  7 29  1  0  0  0
  8  9  1  0  0  0
  8 22  1  0  0  0
  9 10  1  0  0  0
  9 27  2  0  0  0
 10 11  2  0  0  0
 10 15  1  0  0  0
 11 12  1  0  0  0
 11 99  1  0  0  0
 12 13  2  0  0  0
 12100  1  0  0  0
 13 14  1  0  0  0
 13 31  1  0  0  0
 14 15  2  0  0  0
 14101  1  0  0  0
 15102  1  0  0  0
 16 17  2  0  0  0
 16 21  1  0  0  0
 16 31  1  0  0  0
 17 18  1  0  0  0
 17103  1  0  0  0
 18 19  2  0  0  0
 18104  1  0  0  0
 19 20  1  0  0  0
 19 24  1  0  0  0
 20 21  2  0  0  0
 20105  1  0  0  0
 21 23  1  0  0  0
 22 28  1  0  0  0
 22 32  2  0  0  0
 26 27  1  0  0  0
 28106  1  0  0  0
 28107  1  0  0  0
 29108  1  0  0  0
 29109  1  0  0  0
 33 34  1  0  0  0
 33 66  1  0  0  0
 33 70  2  0  0  0
 34 36  1  0  0  0
 34 59  1  0  0  0
 34110  1  0  0  0
 35 44  2  0  0  0
 35 45  1  0  0  0
 35 68  1  0  0  0
 36 56  1  0  0  0
 36111  1  0  0  0
 37 39  1  0  0  0
 37 47  1  0  0  0
 37 66  1  0  0  0
 37112  1  0  0  0
 38 43  2  0  0  0
 38 46  1  0  0  0
 38 47  1  0  0  0
 39 64  1  0  0  0
 39 67  2  0  0  0
 40 52  1  0  0  0
 40 53  2  0  0  0
 40 58  1  0  0  0
 41113  1  0  0  0
 41114  1  0  0  0
 41115  1  0  0  0
 41 48  1  0  0  0
 42 43  1  0  0  0
 42 66  1  0  0  0
 42116  1  0  0  0
 42117  1  0  0  0
 43 44  1  0  0  0
 44118  1  0  0  0
 45 46  2  0  0  0
 45119  1  0  0  0
 46120  1  0  0  0
 47121  1  0  0  0
 47122  1  0  0  0
 48 56  1  0  0  0
 48 65  1  0  0  0
 48123  1  0  0  0
 49 50  1  0  0  0
 49 53  1  0  0  0
 49 64  1  0  0  0
 49124  1  0  0  0
 50 51  1  0  0  0
 50125  1  0  0  0
 50126  1  0  0  0
 51 52  1  0  0  0
 51127  1  0  0  0
 51128  1  0  0  0
 52129  1  0  0  0
 52130  1  0  0  0
 53 54  1  0  0  0
 54 55  2  0  0  0
 54131  1  0  0  0
 55 57  1  0  0  0
 55132  1  0  0  0
 56 69  2  0  0  0
 57 58  2  0  0  0
 57133  1  0  0  0
 58134  1  0  0  0
 59 60  1  0  0  0
 59 61  1  0  0  0
 59 62  1  0  0  0
 60135  1  0  0  0
 60136  1  0  0  0
 60137  1  0  0  0
 61138  1  0  0  0
 61139  1  0  0  0
 61140  1  0  0  0
 62141  1  0  0  0
 62142  1  0  0  0
 62143  1  0  0  0
 63 65  1  0  0  0
 63144  1  0  0  0
 63145  1  0  0  0
 63146  1  0  0  0
 64147  1  0  0  0
 65148  1  0  0  0
 68 84  1  0  0  0
 71 73  2  0  0  0
 71 74  1  0  0  0
 71149  1  0  0  0
 72 73  1  0  0  0
 72 75  2  0  0  0
 72150  1  0  0  0
 73 84  1  0  0  0
 74 81  1  0  0  0
 74 87  2  0  0  0
 75 87  1  0  0  0
 75 88  1  0  0  0
 76 78  1  0  0  0
 76151  1  0  0  0
 76152  1  0  0  0
 76 80  1  0  0  0
 77 79  1  0  0  0
 77 80  1  0  0  0
 77153  1  0  0  0
 77154  1  0  0  0
 78 88  1  0  0  0
 78155  1  0  0  0
 78156  1  0  0  0
 79 88  1  0  0  0
 79157  1  0  0  0
 79158  1  0  0  0
 80 86  1  0  0  0
 80159  1  0  0  0
 81160  1  0  0  0
 81161  1  0  0  0
 81162  1  0  0  0
 82163  1  0  0  0
 82164  1  0  0  0
 82165  1  0  0  0
 82 86  1  0  0  0
 83 86  1  0  0  0
 83166  1  0  0  0
 83167  1  0  0  0
 83168  1  0  0  0
 84169  1  0  0  0
 84170  1  0  0  0
 85 86  1  0  0  0
 85 89  1  0  0  0
 85171  1  0  0  0
 85172  1  0  0  0
 89173  1  0  0  0
M  ISO  4   1 100  68 101  84 101  89 100
M  END
> <chiral flag>
0

> <version>
0

> <s_m_source_file>
/data/baiqing/PycharmProjects/Reinvent-master-3.2/result/LINK_invent/BTK/process_docking_weight1_custom_sum_contain_oxygen_bond_distance_aromatic_linkinvent_7_9_3/rearranged_h_0081.sdf

> <i_m_source_file_index>
94

> <r_mmod_Potential_Energy-OPLS-2005>
-202.683502197266

> <r_mmod_Stretch_Energy-OPLS-2005>
46.2362937927246

> <r_mmod_Bend_Energy-OPLS-2005>
123.633613586426

> <r_mmod_Torsional_Energy-OPLS-2005>
306.321563720703

> <r_mmod_Improper_Torsional_Energy-OPLS-2005>
7.18955850601196

> <r_mmod_Van_der_Waal_Energy-OPLS-2005>
171.284027099609

> <r_mmod_Electrostatic_Energy-OPLS-2005>
-650.639587402344

> <r_mmod_Solvation_Energy-OPLS-2005>
-221.755310058594

> <b_mmod_Minimization_Converged-OPLS-2005>
0

> <r_mmod_RMS_Derivative-OPLS-2005>
6.23003005981445

$$$$
94
                    3D
 Structure written by MMmdl.
161169  0  0  1  0            999 V2000
  -30.6749  -14.5108   20.5079 C   0  0  0  0  0  0
  -30.3907  -12.3076   19.4419 C   0  0  0  0  0  0
  -29.4802  -12.4982   18.2092 C   0  0  0  0  0  0
  -28.0039  -12.3476   18.6170 C   0  0  0  0  0  0
  -27.6392  -13.2099   19.8535 C   0  0  2  0  0  0
  -28.6739  -13.0613   20.9929 C   0  0  0  0  0  0
  -25.2481  -13.8181   20.5663 C   0  0  0  0  0  0
  -24.1743  -13.0465   20.9184 C   0  0  0  0  0  0
  -24.6276  -11.6949   20.8682 C   0  0  0  0  0  0
  -23.8976  -10.4317   21.0373 C   0  0  0  0  0  0
  -24.3550   -9.4260   21.9143 C   0  0  0  0  0  0
  -23.6266   -8.2266   22.0737 C   0  0  0  0  0  0
  -22.4261   -8.0289   21.3515 C   0  0  0  0  0  0
  -21.9868   -9.0232   20.4619 C   0  0  0  0  0  0
  -22.7162  -10.2138   20.3019 C   0  0  0  0  0  0
  -21.6882   -6.0717   22.5255 C   0  0  0  0  0  0
  -21.4053   -6.5629   23.8206 C   0  0  0  0  0  0
  -21.3666   -5.6789   24.9156 C   0  0  0  0  0  0
  -21.6034   -4.3043   24.7221 C   0  0  0  0  0  0
  -21.8817   -3.8135   23.4342 C   0  0  0  0  0  0
  -21.9222   -4.6930   22.3411 C   0  0  0  0  0  0
  -22.7785  -13.5300   21.1945 C   0  0  0  0  0  0
  -22.1662   -4.2122   21.0973 F   0  0  0  0  0  0
  -21.5644   -3.4555   25.7733 F   0  0  0  0  0  0
  -30.0108  -13.3275   20.4296 N   0  0  0  0  0  0
  -26.2867  -12.9310   20.3234 N   0  0  0  0  0  0
  -25.9190  -11.6477   20.5644 N   0  0  0  0  0  0
  -22.0433  -12.8186   22.0450 N   0  0  0  0  0  0
  -25.4272  -15.1896   20.4171 N   0  0  0  0  0  0
  -31.8450  -14.6654   20.1466 O   0  0  0  0  0  0
  -21.6678   -6.8839   21.4219 O   0  0  0  0  0  0
  -22.3455  -14.5606   20.6879 O   0  0  0  0  0  0
  -24.6149  -31.8667   23.2137 C   0  0  0  0  0  0
  -25.9072  -32.4827   23.8407 C   0  0  1  0  0  0
  -27.2334  -27.4272   20.1069 C   0  0  0  0  0  0
  -25.5947  -33.8635   24.2355 N   0  0  0  0  0  0
  -23.4009  -30.4937   21.5469 C   0  0  2  0  0  0
  -24.8551  -28.9586   20.1156 C   0  0  0  0  0  0
  -22.7348  -29.4681   22.4929 C   0  0  0  0  0  0
  -18.0178  -28.1504   22.8311 C   0  0  0  0  0  0
  -24.1512  -36.7312   23.2618 C   0  0  0  0  0  0
  -25.9361  -30.8282   21.3764 C   0  0  0  0  0  0
  -26.0125  -29.4623   20.7229 C   0  0  0  0  0  0
  -27.2064  -28.7032   20.7141 C   0  0  0  0  0  0
  -26.0537  -26.9338   19.5067 C   0  0  0  0  0  0
  -24.8721  -27.6957   19.5007 C   0  0  0  0  0  0
  -23.6209  -29.8283   20.1591 C   0  0  0  0  0  0
  -25.4121  -36.3110   24.0344 C   0  0  1  0  0  0
  -20.5737  -28.3735   23.1287 C   0  0  2  0  0  0
  -20.6601  -26.9485   22.5304 C   0  0  0  0  0  0
  -19.5642  -26.6592   21.4987 C   0  0  0  0  0  0
  -18.1743  -26.8249   22.1115 C   0  0  0  0  0  0
  -19.1390  -28.8871   23.2936 C   0  0  0  0  0  0
  -18.9197  -30.1351   23.9112 C   0  0  0  0  0  0
  -17.6171  -30.6469   24.0746 C   0  0  0  0  0  0
  -25.9043  -34.9483   23.5130 C   0  0  0  0  0  0
  -16.5122  -29.9024   23.6313 C   0  0  0  0  0  0
  -16.7167  -28.6568   23.0182 C   0  0  0  0  0  0
  -26.4525  -31.6609   25.0747 C   0  0  0  0  0  0
  -25.3780  -31.3722   26.1483 C   0  0  0  0  0  0
  -27.0386  -30.3050   24.6193 C   0  0  0  0  0  0
  -27.6129  -32.4304   25.7527 C   0  0  0  0  0  0
  -27.5594  -37.1822   24.8468 C   0  0  0  0  0  0
  -21.4054  -29.3186   22.3791 N   0  0  0  0  0  0
  -26.4304  -37.3800   23.9408 N   0  0  0  0  0  0
  -24.6673  -31.0789   22.1027 N   0  0  0  0  0  0
  -23.4091  -28.8093   23.2896 O   0  0  0  0  0  0
  -28.4247  -26.7425   20.0140 O   0  0  0  0  0  0
  -26.5564  -34.8917   22.4667 O   0  0  0  0  0  0
  -23.5350  -32.1468   23.7498 O   0  0  0  0  0  0
  -25.7635  -21.0598   20.8068 C   0  0  0  0  0  0
  -27.5300  -19.9360   20.9817 C   0  0  0  0  0  0
  -24.7169  -22.0328   20.3574 C   0  0  0  0  0  0
  -28.9228  -19.3589   20.8071 C   0  0  0  0  0  0
  -28.8718  -17.8061   20.7331 C   0  0  0  0  0  0
  -28.5254  -22.9492   19.9453 C   0  0  0  0  0  0
  -27.8093  -24.3163   19.9563 C   0  0  0  0  0  0
  -27.6524  -21.8447   19.3067 C   0  0  0  0  0  0
  -30.2049  -16.9986   20.6939 C   0  0  0  0  0  0
  -28.5432  -25.4719   20.6622 C   0  0  0  0  0  0
  -25.5053  -20.1314   21.7299 N   0  0  0  0  0  0
  -26.6750  -19.4344   21.8851 N   0  0  0  0  0  0
  -27.0198  -20.9996   20.3114 N   0  0  0  0  0  0
  -29.8938  -15.5632   20.7978 N   0  0  0  0  0  0
  -31.4484  -12.3656   19.1790 H   0  0  0  0  0  0
  -30.2344  -11.3169   19.8690 H   0  0  0  0  0  0
  -29.7273  -11.7646   17.4392 H   0  0  0  0  0  0
  -29.6438  -13.4813   17.7597 H   0  0  0  0  0  0
  -27.8252  -11.2924   18.8295 H   0  0  0  0  0  0
  -27.3493  -12.5947   17.7775 H   0  0  0  0  0  0
  -27.6565  -14.2473   19.5147 H   0  0  0  0  0  0
  -28.4219  -13.7465   21.8077 H   0  0  0  0  0  0
  -28.6339  -12.0628   21.4287 H   0  0  0  0  0  0
  -25.2683   -9.5832   22.4706 H   0  0  0  0  0  0
  -24.0056   -7.4696   22.7447 H   0  0  0  0  0  0
  -21.0823   -8.8677   19.8907 H   0  0  0  0  0  0
  -22.3548  -10.9641   19.6139 H   0  0  0  0  0  0
  -21.2008   -7.6150   23.9676 H   0  0  0  0  0  0
  -21.1513   -6.0535   25.9058 H   0  0  0  0  0  0
  -22.0585   -2.7607   23.2855 H   0  0  0  0  0  0
  -22.4053  -11.9842   22.4805 H   0  0  0  0  0  0
  -21.1027  -13.1140   22.2685 H   0  0  0  0  0  0
  -24.6661  -15.8521   20.5210 H   0  0  0  0  0  0
  -26.3009  -15.6288   20.1622 H   0  0  0  0  0  0
  -26.7118  -32.5532   23.1134 H   0  0  0  0  0  0
  -25.0280  -33.9816   25.0625 H   0  0  0  0  0  0
  -22.6863  -31.3096   21.4091 H   0  0  0  0  0  0
  -23.3775  -35.9640   23.3276 H   0  0  0  0  0  0
  -24.3609  -36.8937   22.2028 H   0  0  0  0  0  0
  -23.7265  -37.6527   23.6627 H   0  0  0  0  0  0
  -26.0628  -31.5928   20.6103 H   0  0  0  0  0  0
  -26.8170  -30.8671   22.0045 H   0  0  0  0  0  0
  -28.1078  -29.0907   21.1711 H   0  0  0  0  0  0
  -26.0395  -25.9752   19.0109 H   0  0  0  0  0  0
  -23.9934  -27.3026   19.0110 H   0  0  0  0  0  0
  -23.7429  -30.6071   19.4079 H   0  0  0  0  0  0
  -22.7425  -29.2607   19.8475 H   0  0  0  0  0  0
  -25.1293  -36.1979   25.0843 H   0  0  0  0  0  0
  -20.9849  -28.3156   24.1376 H   0  0  0  0  0  0
  -20.5599  -26.2209   23.3359 H   0  0  0  0  0  0
  -21.6438  -26.7472   22.1106 H   0  0  0  0  0  0
  -19.6693  -25.6559   21.0861 H   0  0  0  0  0  0
  -19.6812  -27.3584   20.6648 H   0  0  0  0  0  0
  -17.4348  -26.7779   21.3073 H   0  0  0  0  0  0
  -17.9432  -26.0148   22.8052 H   0  0  0  0  0  0
  -19.7573  -30.7215   24.2577 H   0  0  0  0  0  0
  -17.4631  -31.6022   24.5521 H   0  0  0  0  0  0
  -15.5041  -30.2744   23.7597 H   0  0  0  0  0  0
  -15.8584  -28.0999   22.6702 H   0  0  0  0  0  0
  -24.5946  -30.7110   25.7766 H   0  0  0  0  0  0
  -24.9004  -32.2901   26.4938 H   0  0  0  0  0  0
  -25.8109  -30.8856   27.0233 H   0  0  0  0  0  0
  -26.2968  -29.6777   24.1265 H   0  0  0  0  0  0
  -27.4138  -29.7350   25.4696 H   0  0  0  0  0  0
  -27.8807  -30.4359   23.9392 H   0  0  0  0  0  0
  -27.2801  -33.3584   26.2191 H   0  0  0  0  0  0
  -28.3945  -32.6887   25.0363 H   0  0  0  0  0  0
  -28.0809  -31.8370   26.5403 H   0  0  0  0  0  0
  -28.2612  -38.0118   24.7511 H   0  0  0  0  0  0
  -28.1095  -36.2657   24.6300 H   0  0  0  0  0  0
  -27.2310  -37.1483   25.8869 H   0  0  0  0  0  0
  -20.9180  -29.9128   21.7221 H   0  0  0  0  0  0
  -26.0191  -38.2882   24.1414 H   0  0  0  0  0  0
  -23.8401  -21.9563   21.0036 H   0  0  0  0  0  0
  -24.4031  -21.7811   19.3471 H   0  0  0  0  0  0
  -25.0683  -23.0574   20.3893 H   0  0  0  0  0  0
  -29.5273  -19.6840   21.6553 H   0  0  0  0  0  0
  -29.3916  -19.7781   19.9100 H   0  0  0  0  0  0
  -28.2607  -17.5354   19.8696 H   0  0  0  0  0  0
  -28.3224  -17.4647   21.6118 H   0  0  0  0  0  0
  -28.8401  -22.6449   20.9454 H   0  0  0  0  0  0
  -29.4400  -23.0564   19.3579 H   0  0  0  0  0  0
  -26.8238  -24.2213   20.3991 H   0  0  0  0  0  0
  -27.6584  -24.5871   18.9142 H   0  0  0  0  0  0
  -28.2281  -21.2103   18.6342 H   0  0  0  0  0  0
  -26.8806  -22.2925   18.6776 H   0  0  0  0  0  0
  -30.7685  -17.2065   19.7823 H   0  0  0  0  0  0
  -30.8569  -17.2683   21.5259 H   0  0  0  0  0  0
  -29.6041  -25.2397   20.6778 H   0  0  0  0  0  0
  -28.2422  -25.5469   21.7063 H   0  0  0  0  0  0
  -28.9314  -15.3290   20.9854 H   0  0  0  0  0  0
  1 25  1  0  0  0
  1 30  2  0  0  0
  1 84  1  0  0  0
  2  3  1  0  0  0
  2 25  1  0  0  0
  2 85  1  0  0  0
  2 86  1  0  0  0
  3  4  1  0  0  0
  3 87  1  0  0  0
  3 88  1  0  0  0
  4  5  1  0  0  0
  4 89  1  0  0  0
  4 90  1  0  0  0
  5  6  1  0  0  0
  5 26  1  0  0  0
  5 91  1  0  0  0
  6 25  1  0  0  0
  6 92  1  0  0  0
  6 93  1  0  0  0
  7  8  2  0  0  0
  7 26  1  0  0  0
  7 29  1  0  0  0
  8  9  1  0  0  0
  8 22  1  0  0  0
  9 10  1  0  0  0
  9 27  2  0  0  0
 10 11  2  0  0  0
 10 15  1  0  0  0
 11 12  1  0  0  0
 11 94  1  0  0  0
 12 13  2  0  0  0
 12 95  1  0  0  0
 13 14  1  0  0  0
 13 31  1  0  0  0
 14 15  2  0  0  0
 14 96  1  0  0  0
 15 97  1  0  0  0
 16 17  2  0  0  0
 16 21  1  0  0  0
 16 31  1  0  0  0
 17 18  1  0  0  0
 17 98  1  0  0  0
 18 19  2  0  0  0
 18 99  1  0  0  0
 19 20  1  0  0  0
 19 24  1  0  0  0
 20 21  2  0  0  0
 20100  1  0  0  0
 21 23  1  0  0  0
 22 28  1  0  0  0
 22 32  2  0  0  0
 26 27  1  0  0  0
 28101  1  0  0  0
 28102  1  0  0  0
 29103  1  0  0  0
 29104  1  0  0  0
 33 34  1  0  0  0
 33 66  1  0  0  0
 33 70  2  0  0  0
 34 36  1  0  0  0
 34 59  1  0  0  0
 34105  1  0  0  0
 35 44  2  0  0  0
 35 45  1  0  0  0
 35 68  1  0  0  0
 36 56  1  0  0  0
 36106  1  0  0  0
 37 39  1  0  0  0
 37 47  1  0  0  0
 37 66  1  0  0  0
 37107  1  0  0  0
 38 43  2  0  0  0
 38 46  1  0  0  0
 38 47  1  0  0  0
 39 64  1  0  0  0
 39 67  2  0  0  0
 40 52  1  0  0  0
 40 53  2  0  0  0
 40 58  1  0  0  0
 41108  1  0  0  0
 41109  1  0  0  0
 41110  1  0  0  0
 41 48  1  0  0  0
 42 43  1  0  0  0
 42 66  1  0  0  0
 42111  1  0  0  0
 42112  1  0  0  0
 43 44  1  0  0  0
 44113  1  0  0  0
 45 46  2  0  0  0
 45114  1  0  0  0
 46115  1  0  0  0
 47116  1  0  0  0
 47117  1  0  0  0
 48 56  1  0  0  0
 48 65  1  0  0  0
 48118  1  0  0  0
 49 50  1  0  0  0
 49 53  1  0  0  0
 49 64  1  0  0  0
 49119  1  0  0  0
 50 51  1  0  0  0
 50120  1  0  0  0
 50121  1  0  0  0
 51 52  1  0  0  0
 51122  1  0  0  0
 51123  1  0  0  0
 52124  1  0  0  0
 52125  1  0  0  0
 53 54  1  0  0  0
 54 55  2  0  0  0
 54126  1  0  0  0
 55 57  1  0  0  0
 55127  1  0  0  0
 56 69  2  0  0  0
 57 58  2  0  0  0
 57128  1  0  0  0
 58129  1  0  0  0
 59 60  1  0  0  0
 59 61  1  0  0  0
 59 62  1  0  0  0
 60130  1  0  0  0
 60131  1  0  0  0
 60132  1  0  0  0
 61133  1  0  0  0
 61134  1  0  0  0
 61135  1  0  0  0
 62136  1  0  0  0
 62137  1  0  0  0
 62138  1  0  0  0
 63 65  1  0  0  0
 63139  1  0  0  0
 63140  1  0  0  0
 63141  1  0  0  0
 64142  1  0  0  0
 65143  1  0  0  0
 68 80  1  0  0  0
 71 73  1  0  0  0
 71 81  2  0  0  0
 71 83  1  0  0  0
 72 74  1  0  0  0
 72 82  2  0  0  0
 72 83  1  0  0  0
 73144  1  0  0  0
 73145  1  0  0  0
 73146  1  0  0  0
 74 75  1  0  0  0
 74147  1  0  0  0
 74148  1  0  0  0
 75 79  1  0  0  0
 75149  1  0  0  0
 75150  1  0  0  0
 76 77  1  0  0  0
 76 78  1  0  0  0
 76151  1  0  0  0
 76152  1  0  0  0
 77 80  1  0  0  0
 77153  1  0  0  0
 77154  1  0  0  0
 78 83  1  0  0  0
 78155  1  0  0  0
 78156  1  0  0  0
 79 84  1  0  0  0
 79157  1  0  0  0
 79158  1  0  0  0
 80159  1  0  0  0
 80160  1  0  0  0
 81 82  1  0  0  0
 84161  1  0  0  0
M  ISO  4   1 100  68 101  80 101  84 100
M  END
> <chiral flag>
0

> <version>
0

> <s_m_source_file>
/data/baiqing/PycharmProjects/Reinvent-master-3.2/result/LINK_invent/BTK/process_docking_weight1_custom_sum_contain_oxygen_bond_distance_aromatic_linkinvent_7_9_3/rearranged_h_0081.sdf

> <i_m_source_file_index>
95

> <r_mmod_Potential_Energy-OPLS-2005>
-88.814338684082

> <r_mmod_Stretch_Energy-OPLS-2005>
36.412670135498

> <r_mmod_Bend_Energy-OPLS-2005>
116.157722473145

> <r_mmod_Torsional_Energy-OPLS-2005>
246.590194702148

> <r_mmod_Improper_Torsional_Energy-OPLS-2005>
5.34833478927612

> <r_mmod_Van_der_Waal_Energy-OPLS-2005>
125.569526672363

> <r_mmod_Electrostatic_Energy-OPLS-2005>
-398.400115966797

> <r_mmod_Solvation_Energy-OPLS-2005>
-240.180404663086

> <b_mmod_Minimization_Converged-OPLS-2005>
0

> <r_mmod_RMS_Derivative-OPLS-2005>
9.75529003143311

$$$$
95
                    3D
 Structure written by MMmdl.
163171  0  0  1  0            999 V2000
  -30.6603  -14.5496   20.5253 C   0  0  0  0  0  0
  -30.4389  -12.3440   19.4190 C   0  0  0  0  0  0
  -29.4985  -12.4926   18.2030 C   0  0  0  0  0  0
  -28.0216  -12.3463   18.6250 C   0  0  0  0  0  0
  -27.6601  -13.2056   19.8654 C   0  0  2  0  0  0
  -28.7104  -13.0180   20.9843 C   0  0  0  0  0  0
  -25.2605  -13.8147   20.5691 C   0  0  0  0  0  0
  -24.1856  -13.0425   20.9209 C   0  0  0  0  0  0
  -24.6406  -11.6892   20.8745 C   0  0  0  0  0  0
  -23.9070  -10.4279   21.0410 C   0  0  0  0  0  0
  -24.3622   -9.4202   21.9190 C   0  0  0  0  0  0
  -23.6290   -8.2236   22.0759 C   0  0  0  0  0  0
  -22.4273   -8.0281   21.3545 C   0  0  0  0  0  0
  -21.9916   -9.0254   20.4649 C   0  0  0  0  0  0
  -22.7245  -10.2131   20.3055 C   0  0  0  0  0  0
  -21.6846   -6.0729   22.5286 C   0  0  0  0  0  0
  -21.4004   -6.5635   23.8219 C   0  0  0  0  0  0
  -21.3658   -5.6787   24.9179 C   0  0  0  0  0  0
  -21.6045   -4.3051   24.7229 C   0  0  0  0  0  0
  -21.8820   -3.8146   23.4352 C   0  0  0  0  0  0
  -21.9190   -4.6960   22.3405 C   0  0  0  0  0  0
  -22.7879  -13.5223   21.1873 C   0  0  0  0  0  0
  -22.1664   -4.2145   21.0984 F   0  0  0  0  0  0
  -21.5631   -3.4540   25.7742 F   0  0  0  0  0  0
  -30.0299  -13.3453   20.4172 N   0  0  0  0  0  0
  -26.3033  -12.9318   20.3346 N   0  0  0  0  0  0
  -25.9335  -11.6479   20.5770 N   0  0  0  0  0  0
  -22.0515  -12.8196   22.0406 N   0  0  0  0  0  0
  -25.4324  -15.1866   20.4107 N   0  0  0  0  0  0
  -31.8207  -14.7336   20.1532 O   0  0  0  0  0  0
  -21.6638   -6.8879   21.4247 O   0  0  0  0  0  0
  -22.3572  -14.5541   20.6736 O   0  0  0  0  0  0
  -24.6158  -31.8656   23.2069 C   0  0  0  0  0  0
  -25.9032  -32.4822   23.8381 C   0  0  1  0  0  0
  -27.2357  -27.3985   20.1139 C   0  0  0  0  0  0
  -25.5865  -33.8618   24.2312 N   0  0  0  0  0  0
  -23.4067  -30.4865   21.5498 C   0  0  2  0  0  0
  -24.8566  -28.9441   20.1156 C   0  0  0  0  0  0
  -22.7430  -29.4654   22.5005 C   0  0  0  0  0  0
  -18.0285  -28.1366   22.8511 C   0  0  0  0  0  0
  -24.1476  -36.7331   23.2644 C   0  0  0  0  0  0
  -25.9363  -30.8208   21.3614 C   0  0  0  0  0  0
  -26.0179  -29.4501   20.7139 C   0  0  0  0  0  0
  -27.2141  -28.6864   20.7059 C   0  0  0  0  0  0
  -26.0584  -26.9130   19.5085 C   0  0  0  0  0  0
  -24.8729  -27.6762   19.5069 C   0  0  0  0  0  0
  -23.6168  -29.8139   20.1659 C   0  0  0  0  0  0
  -25.4100  -36.3119   24.0334 C   0  0  1  0  0  0
  -20.5877  -28.3673   23.1326 C   0  0  2  0  0  0
  -20.6784  -26.9415   22.5424 C   0  0  0  0  0  0
  -19.5753  -26.6390   21.5225 C   0  0  0  0  0  0
  -18.1924  -26.7920   22.1627 C   0  0  0  0  0  0
  -19.1532  -28.8837   23.2904 C   0  0  0  0  0  0
  -18.9460  -30.1443   23.8918 C   0  0  0  0  0  0
  -17.6458  -30.6587   24.0569 C   0  0  0  0  0  0
  -25.9020  -34.9473   23.5134 C   0  0  0  0  0  0
  -16.5349  -29.9084   23.6325 C   0  0  0  0  0  0
  -16.7270  -28.6493   23.0373 C   0  0  0  0  0  0
  -26.4440  -31.6608   25.0721 C   0  0  0  0  0  0
  -25.3714  -31.3674   26.1479 C   0  0  0  0  0  0
  -27.0289  -30.3067   24.6083 C   0  0  0  0  0  0
  -27.6006  -32.4339   25.7492 C   0  0  0  0  0  0
  -27.5585  -37.1811   24.8460 C   0  0  0  0  0  0
  -21.4158  -29.3027   22.3728 N   0  0  0  0  0  0
  -26.4296  -37.3801   23.9407 N   0  0  0  0  0  0
  -24.6716  -31.0725   22.0988 N   0  0  0  0  0  0
  -23.4191  -28.8222   23.3082 O   0  0  0  0  0  0
  -28.3808  -26.6193   20.0999 O   0  0  0  0  0  0
  -26.5619  -34.8928   22.4712 O   0  0  0  0  0  0
  -23.5342  -32.1442   23.7439 O   0  0  0  0  0  0
  -29.9402  -20.5242   20.6809 C   0  0  0  0  0  0
  -29.5176  -19.3367   20.1033 C   0  0  0  0  0  0
  -27.8853  -20.8782   19.9313 C   0  0  0  0  0  0
  -26.3497  -21.7859   18.1268 C   0  0  0  0  0  0
  -31.5703  -18.1346   19.3300 C   0  0  0  0  0  0
  -26.5343  -21.4473   19.6132 C   0  0  0  0  0  0
  -28.7349  -24.0749   20.1683 C   0  0  0  0  0  0
  -28.8769  -22.8462   21.1408 C   0  0  0  0  0  0
  -30.1282  -17.0153   21.1372 C   0  0  0  0  0  0
  -28.3353  -25.4051   20.8938 C   0  0  0  0  0  0
  -30.1468  -17.9551   19.8797 C   0  0  1  0  0  0
  -28.9236  -21.4627   20.5585 N   0  0  0  0  0  0
  -28.2536  -19.6208   19.6489 N   0  3  0  0  0  0
  -29.8590  -15.5705   20.9042 N   0  0  0  0  0  0
  -31.4794  -12.4674   19.1110 H   0  0  0  0  0  0
  -30.3674  -11.3404   19.8398 H   0  0  0  0  0  0
  -29.7409  -11.7440   17.4480 H   0  0  0  0  0  0
  -29.6531  -13.4642   17.7308 H   0  0  0  0  0  0
  -27.8476  -11.2915   18.8482 H   0  0  0  0  0  0
  -27.3625  -12.5910   17.7918 H   0  0  0  0  0  0
  -27.6901  -14.2461   19.5414 H   0  0  0  0  0  0
  -28.7092  -11.9870   21.3413 H   0  0  0  0  0  0
  -28.4738  -13.6298   21.8562 H   0  0  0  0  0  0
  -25.2759   -9.5665   22.4775 H   0  0  0  0  0  0
  -23.9990   -7.4627   22.7475 H   0  0  0  0  0  0
  -21.0850   -8.8784   19.8954 H   0  0  0  0  0  0
  -22.3717  -10.9676   19.6174 H   0  0  0  0  0  0
  -21.1994   -7.6139   23.9719 H   0  0  0  0  0  0
  -21.1478   -6.0517   25.9081 H   0  0  0  0  0  0
  -22.0598   -2.7606   23.2858 H   0  0  0  0  0  0
  -22.4116  -11.9821   22.4740 H   0  0  0  0  0  0
  -21.1147  -13.1232   22.2650 H   0  0  0  0  0  0
  -24.6656  -15.8402   20.5258 H   0  0  0  0  0  0
  -26.2749  -15.6232   20.0586 H   0  0  0  0  0  0
  -26.7119  -32.5533   23.1159 H   0  0  0  0  0  0
  -24.9948  -33.9767   25.0416 H   0  0  0  0  0  0
  -22.6959  -31.3032   21.4094 H   0  0  0  0  0  0
  -23.3721  -35.9674   23.3299 H   0  0  0  0  0  0
  -24.3563  -36.8971   22.2060 H   0  0  0  0  0  0
  -23.7247  -37.6537   23.6683 H   0  0  0  0  0  0
  -26.0418  -31.5792   20.5839 H   0  0  0  0  0  0
  -26.8257  -30.8854   21.9773 H   0  0  0  0  0  0
  -28.1104  -29.0736   21.1687 H   0  0  0  0  0  0
  -26.0586  -25.9402   19.0366 H   0  0  0  0  0  0
  -23.9816  -27.2825   19.0367 H   0  0  0  0  0  0
  -23.7173  -30.5874   19.4029 H   0  0  0  0  0  0
  -22.7390  -29.2319   19.8804 H   0  0  0  0  0  0
  -25.1267  -36.1982   25.0827 H   0  0  0  0  0  0
  -20.9953  -28.3253   24.1453 H   0  0  0  0  0  0
  -20.5724  -26.2274   23.3607 H   0  0  0  0  0  0
  -21.6651  -26.7493   22.1193 H   0  0  0  0  0  0
  -19.6920  -25.6306   21.1241 H   0  0  0  0  0  0
  -19.6686  -27.3205   20.6760 H   0  0  0  0  0  0
  -17.4210  -26.6689   21.4012 H   0  0  0  0  0  0
  -18.0307  -26.0044   22.9003 H   0  0  0  0  0  0
  -19.7941  -30.7249   24.2303 H   0  0  0  0  0  0
  -17.5022  -31.6274   24.5157 H   0  0  0  0  0  0
  -15.5349  -30.2994   23.7646 H   0  0  0  0  0  0
  -15.8671  -28.0814   22.7094 H   0  0  0  0  0  0
  -24.5891  -30.7025   25.7815 H   0  0  0  0  0  0
  -24.8879  -32.2795   26.4988 H   0  0  0  0  0  0
  -25.8064  -30.8817   27.0225 H   0  0  0  0  0  0
  -26.2850  -29.6816   24.1144 H   0  0  0  0  0  0
  -27.4099  -29.7306   25.4522 H   0  0  0  0  0  0
  -27.8644  -30.4406   23.9209 H   0  0  0  0  0  0
  -27.2644  -33.3655   26.2063 H   0  0  0  0  0  0
  -28.3822  -32.6888   25.0327 H   0  0  0  0  0  0
  -28.0667  -31.8472   26.5423 H   0  0  0  0  0  0
  -28.2585  -38.0128   24.7549 H   0  0  0  0  0  0
  -28.1097  -36.2660   24.6234 H   0  0  0  0  0  0
  -27.2300  -37.1420   25.8862 H   0  0  0  0  0  0
  -20.9333  -29.8726   21.6921 H   0  0  0  0  0  0
  -26.0171  -38.2877   24.1398 H   0  0  0  0  0  0
  -30.8746  -20.7553   21.1753 H   0  0  0  0  0  0
  -25.3408  -22.1547   17.9438 H   0  0  0  0  0  0
  -26.4984  -20.9084   17.4959 H   0  0  0  0  0  0
  -27.0485  -22.5528   17.7957 H   0  0  0  0  0  0
  -31.5661  -18.7209   18.4094 H   0  0  0  0  0  0
  -32.0352  -17.1763   19.1034 H   0  0  0  0  0  0
  -32.2099  -18.6534   20.0461 H   0  0  0  0  0  0
  -26.3659  -22.3178   20.2448 H   0  0  0  0  0  0
  -25.8037  -20.6973   19.9159 H   0  0  0  0  0  0
  -27.9919  -23.8748   19.4008 H   0  0  0  0  0  0
  -29.6785  -24.2181   19.6425 H   0  0  0  0  0  0
  -28.0504  -22.8475   21.8527 H   0  0  0  0  0  0
  -29.7758  -22.9738   21.7455 H   0  0  0  0  0  0
  -29.3123  -17.3421   21.7829 H   0  0  0  0  0  0
  -31.0343  -17.1414   21.7314 H   0  0  0  0  0  0
  -29.0165  -25.5648   21.7304 H   0  0  0  0  0  0
  -27.3529  -25.2716   21.3507 H   0  0  0  0  0  0
  -29.5600  -17.4659   19.1000 H   0  0  0  0  0  0
  -27.6575  -18.9617   19.1622 H   0  0  0  0  0  0
  -28.9172  -15.2791   21.1188 H   0  0  0  0  0  0
  1 25  1  0  0  0
  1 30  2  0  0  0
  1 84  1  0  0  0
  2  3  1  0  0  0
  2 25  1  0  0  0
  2 85  1  0  0  0
  2 86  1  0  0  0
  3  4  1  0  0  0
  3 87  1  0  0  0
  3 88  1  0  0  0
  4  5  1  0  0  0
  4 89  1  0  0  0
  4 90  1  0  0  0
  5  6  1  0  0  0
  5 26  1  0  0  0
  5 91  1  0  0  0
  6 25  1  0  0  0
  6 92  1  0  0  0
  6 93  1  0  0  0
  7  8  2  0  0  0
  7 26  1  0  0  0
  7 29  1  0  0  0
  8  9  1  0  0  0
  8 22  1  0  0  0
  9 10  1  0  0  0
  9 27  2  0  0  0
 10 11  2  0  0  0
 10 15  1  0  0  0
 11 12  1  0  0  0
 11 94  1  0  0  0
 12 13  2  0  0  0
 12 95  1  0  0  0
 13 14  1  0  0  0
 13 31  1  0  0  0
 14 15  2  0  0  0
 14 96  1  0  0  0
 15 97  1  0  0  0
 16 17  2  0  0  0
 16 21  1  0  0  0
 16 31  1  0  0  0
 17 18  1  0  0  0
 17 98  1  0  0  0
 18 19  2  0  0  0
 18 99  1  0  0  0
 19 20  1  0  0  0
 19 24  1  0  0  0
 20 21  2  0  0  0
 20100  1  0  0  0
 21 23  1  0  0  0
 22 28  1  0  0  0
 22 32  2  0  0  0
 26 27  1  0  0  0
 28101  1  0  0  0
 28102  1  0  0  0
 29103  1  0  0  0
 29104  1  0  0  0
 33 34  1  0  0  0
 33 66  1  0  0  0
 33 70  2  0  0  0
 34 36  1  0  0  0
 34 59  1  0  0  0
 34105  1  0  0  0
 35 44  2  0  0  0
 35 45  1  0  0  0
 35 68  1  0  0  0
 36 56  1  0  0  0
 36106  1  0  0  0
 37 39  1  0  0  0
 37 47  1  0  0  0
 37 66  1  0  0  0
 37107  1  0  0  0
 38 43  2  0  0  0
 38 46  1  0  0  0
 38 47  1  0  0  0
 39 64  1  0  0  0
 39 67  2  0  0  0
 40 52  1  0  0  0
 40 53  2  0  0  0
 40 58  1  0  0  0
 41108  1  0  0  0
 41109  1  0  0  0
 41110  1  0  0  0
 41 48  1  0  0  0
 42 43  1  0  0  0
 42 66  1  0  0  0
 42111  1  0  0  0
 42112  1  0  0  0
 43 44  1  0  0  0
 44113  1  0  0  0
 45 46  2  0  0  0
 45114  1  0  0  0
 46115  1  0  0  0
 47116  1  0  0  0
 47117  1  0  0  0
 48 56  1  0  0  0
 48 65  1  0  0  0
 48118  1  0  0  0
 49 50  1  0  0  0
 49 53  1  0  0  0
 49 64  1  0  0  0
 49119  1  0  0  0
 50 51  1  0  0  0
 50120  1  0  0  0
 50121  1  0  0  0
 51 52  1  0  0  0
 51122  1  0  0  0
 51123  1  0  0  0
 52124  1  0  0  0
 52125  1  0  0  0
 53 54  1  0  0  0
 54 55  2  0  0  0
 54126  1  0  0  0
 55 57  1  0  0  0
 55127  1  0  0  0
 56 69  2  0  0  0
 57 58  2  0  0  0
 57128  1  0  0  0
 58129  1  0  0  0
 59 60  1  0  0  0
 59 61  1  0  0  0
 59 62  1  0  0  0
 60130  1  0  0  0
 60131  1  0  0  0
 60132  1  0  0  0
 61133  1  0  0  0
 61134  1  0  0  0
 61135  1  0  0  0
 62136  1  0  0  0
 62137  1  0  0  0
 62138  1  0  0  0
 63 65  1  0  0  0
 63139  1  0  0  0
 63140  1  0  0  0
 63141  1  0  0  0
 64142  1  0  0  0
 65143  1  0  0  0
 68 80  1  0  0  0
 71 72  2  0  0  0
 71 82  1  0  0  0
 71144  1  0  0  0
 72 81  1  0  0  0
 72 83  1  0  0  0
 73 76  1  0  0  0
 73 82  1  0  0  0
 73 83  2  0  0  0
 74 76  1  0  0  0
 74145  1  0  0  0
 74146  1  0  0  0
 74147  1  0  0  0
 75148  1  0  0  0
 75149  1  0  0  0
 75150  1  0  0  0
 75 81  1  0  0  0
 76151  1  0  0  0
 76152  1  0  0  0
 77 78  1  0  0  0
 77 80  1  0  0  0
 77153  1  0  0  0
 77154  1  0  0  0
 78 82  1  0  0  0
 78155  1  0  0  0
 78156  1  0  0  0
 79 81  1  0  0  0
 79 84  1  0  0  0
 79157  1  0  0  0
 79158  1  0  0  0
 80159  1  0  0  0
 80160  1  0  0  0
 81161  1  0  0  0
 83162  1  0  0  0
 84163  1  0  0  0
M  CHG  1  83   1
M  ISO  4   1 100  68 101  80 101  84 100
M  END
> <chiral flag>
0

> <version>
0

> <s_m_source_file>
/data/baiqing/PycharmProjects/Reinvent-master-3.2/result/LINK_invent/BTK/process_docking_weight1_custom_sum_contain_oxygen_bond_distance_aromatic_linkinvent_7_9_3/rearranged_h_0081.sdf

> <i_m_source_file_index>
96

> <r_mmod_Potential_Energy-OPLS-2005>
-98.1131744384766

> <r_mmod_Stretch_Energy-OPLS-2005>
49.296199798584

> <r_mmod_Bend_Energy-OPLS-2005>
113.15185546875

> <r_mmod_Torsional_Energy-OPLS-2005>
263.801635742188

> <r_mmod_Improper_Torsional_Energy-OPLS-2005>
4.5164270401001

> <r_mmod_Van_der_Waal_Energy-OPLS-2005>
112.63215637207

> <r_mmod_Electrostatic_Energy-OPLS-2005>
-241.485244750977

> <r_mmod_Solvation_Energy-OPLS-2005>
-422.970031738281

> <b_mmod_Minimization_Converged-OPLS-2005>
0

> <r_mmod_RMS_Derivative-OPLS-2005>
2.3219907283783

$$$$
96
                    3D
 Structure written by MMmdl.
160168  0  0  1  0            999 V2000
  -30.6047  -14.7649   20.4349 C   0  0  0  0  0  0
  -30.4333  -12.4671   19.4606 C   0  0  0  0  0  0
  -29.5035  -12.4960   18.2282 C   0  0  0  0  0  0
  -28.0327  -12.3183   18.6514 C   0  0  0  0  0  0
  -27.6378  -13.2313   19.8425 C   0  0  2  0  0  0
  -28.6875  -13.1854   20.9738 C   0  0  0  0  0  0
  -25.2498  -13.8200   20.5705 C   0  0  0  0  0  0
  -24.1801  -13.0435   20.9225 C   0  0  0  0  0  0
  -24.6400  -11.6929   20.8771 C   0  0  0  0  0  0
  -23.9084  -10.4296   21.0423 C   0  0  0  0  0  0
  -24.3633   -9.4211   21.9194 C   0  0  0  0  0  0
  -23.6313   -8.2244   22.0751 C   0  0  0  0  0  0
  -22.4291   -8.0287   21.3544 C   0  0  0  0  0  0
  -21.9931   -9.0261   20.4646 C   0  0  0  0  0  0
  -22.7261  -10.2142   20.3064 C   0  0  0  0  0  0
  -21.6852   -6.0746   22.5283 C   0  0  0  0  0  0
  -21.4011   -6.5649   23.8219 C   0  0  0  0  0  0
  -21.3654   -5.6798   24.9181 C   0  0  0  0  0  0
  -21.6043   -4.3062   24.7232 C   0  0  0  0  0  0
  -21.8819   -3.8159   23.4350 C   0  0  0  0  0  0
  -21.9195   -4.6973   22.3408 C   0  0  0  0  0  0
  -22.7818  -13.5222   21.1896 C   0  0  0  0  0  0
  -22.1665   -4.2166   21.0987 F   0  0  0  0  0  0
  -21.5625   -3.4546   25.7740 F   0  0  0  0  0  0
  -29.9818  -13.5385   20.3770 N   0  0  0  0  0  0
  -26.2924  -12.9408   20.3287 N   0  0  0  0  0  0
  -25.9329  -11.6555   20.5778 N   0  0  0  0  0  0
  -22.0480  -12.8183   22.0447 N   0  0  0  0  0  0
  -25.4169  -15.1922   20.4113 N   0  0  0  0  0  0
  -31.8066  -14.8547   20.1715 O   0  0  0  0  0  0
  -21.6643   -6.8893   21.4248 O   0  0  0  0  0  0
  -22.3505  -14.5527   20.6764 O   0  0  0  0  0  0
  -24.6303  -31.8561   23.2039 C   0  0  0  0  0  0
  -25.9143  -32.4756   23.8360 C   0  0  1  0  0  0
  -27.2128  -27.2684   20.1043 C   0  0  0  0  0  0
  -25.5946  -33.8560   24.2289 N   0  0  0  0  0  0
  -23.4259  -30.4813   21.5489 C   0  0  2  0  0  0
  -24.8682  -28.9320   20.1088 C   0  0  0  0  0  0
  -22.7497  -29.4591   22.4940 C   0  0  0  0  0  0
  -18.0277  -28.1372   22.8469 C   0  0  0  0  0  0
  -24.1480  -36.7298   23.2634 C   0  0  0  0  0  0
  -25.9715  -30.7663   21.3849 C   0  0  0  0  0  0
  -26.0407  -29.3906   20.7217 C   0  0  0  0  0  0
  -27.2133  -28.5685   20.7142 C   0  0  0  0  0  0
  -26.0188  -26.8867   19.4495 C   0  0  0  0  0  0
  -24.8614  -27.6872   19.4639 C   0  0  0  0  0  0
  -23.6425  -29.8234   20.1623 C   0  0  0  0  0  0
  -25.4105  -36.3072   24.0319 C   0  0  1  0  0  0
  -20.5888  -28.3683   23.1267 C   0  0  2  0  0  0
  -20.6770  -26.9409   22.5412 C   0  0  0  0  0  0
  -19.5757  -26.6378   21.5198 C   0  0  0  0  0  0
  -18.1929  -26.7922   22.1602 C   0  0  0  0  0  0
  -19.1530  -28.8842   23.2858 C   0  0  0  0  0  0
  -18.9458  -30.1444   23.8876 C   0  0  0  0  0  0
  -17.6460  -30.6574   24.0551 C   0  0  0  0  0  0
  -25.9052  -34.9431   23.5106 C   0  0  0  0  0  0
  -16.5352  -29.9075   23.6317 C   0  0  0  0  0  0
  -16.7269  -28.6495   23.0336 C   0  0  0  0  0  0
  -26.4525  -31.6564   25.0742 C   0  0  0  0  0  0
  -25.3742  -31.3698   26.1465 C   0  0  0  0  0  0
  -27.0383  -30.2975   24.6240 C   0  0  0  0  0  0
  -27.6080  -32.4317   25.7504 C   0  0  0  0  0  0
  -27.5591  -37.1794   24.8455 C   0  0  0  0  0  0
  -21.4205  -29.3038   22.3666 N   0  0  0  0  0  0
  -26.4288  -37.3774   23.9416 N   0  0  0  0  0  0
  -24.6954  -31.0518   22.1026 N   0  0  0  0  0  0
  -23.4191  -28.8116   23.3039 O   0  0  0  0  0  0
  -28.3081  -26.3746   20.1657 O   0  0  0  0  0  0
  -26.5627  -34.8902   22.4679 O   0  0  0  0  0  0
  -23.5462  -32.1392   23.7349 O   0  0  0  0  0  0
  -27.2684  -21.5785   21.3967 C   0  0  0  0  0  0
  -28.3843  -21.0983   20.6711 C   0  0  0  0  0  0
  -26.4537  -20.6859   22.1055 C   0  0  0  0  0  0
  -28.5846  -19.6262   20.7254 C   0  0  0  0  0  0
  -25.2598  -21.1829   22.8910 C   0  0  0  0  0  0
  -30.6286  -19.3771   19.1639 C   0  0  0  0  0  0
  -29.1520  -22.2483   19.9020 C   0  0  0  0  0  0
  -29.1055  -23.7975   20.4223 C   0  0  0  0  0  0
  -30.2285  -17.3758   20.7802 C   0  0  0  0  0  0
  -28.1197  -24.9220   19.8245 C   0  0  0  0  0  0
  -29.5508  -18.6186   19.9525 C   0  0  1  0  0  0
  -26.6869  -19.3606   22.1246 N   0  0  0  0  0  0
  -27.7133  -18.8618   21.4384 N   0  0  0  0  0  0
  -29.8242  -15.9044   20.5896 N   0  0  0  0  0  0
  -31.4704  -12.6003   19.1485 H   0  0  0  0  0  0
  -30.3908  -11.4977   19.9595 H   0  0  0  0  0  0
  -29.7842  -11.7108   17.5248 H   0  0  0  0  0  0
  -29.6211  -13.4407   17.6951 H   0  0  0  0  0  0
  -27.8977  -11.2726   18.9311 H   0  0  0  0  0  0
  -27.3694  -12.4933   17.8037 H   0  0  0  0  0  0
  -27.6243  -14.2473   19.4463 H   0  0  0  0  0  0
  -28.7313  -12.1959   21.4312 H   0  0  0  0  0  0
  -28.4238  -13.8812   21.7716 H   0  0  0  0  0  0
  -25.2771   -9.5682   22.4774 H   0  0  0  0  0  0
  -24.0020   -7.4629   22.7461 H   0  0  0  0  0  0
  -21.0863   -8.8793   19.8942 H   0  0  0  0  0  0
  -22.3728  -10.9691   19.6179 H   0  0  0  0  0  0
  -21.1995   -7.6161   23.9732 H   0  0  0  0  0  0
  -21.1471   -6.0528   25.9088 H   0  0  0  0  0  0
  -22.0599   -2.7627   23.2854 H   0  0  0  0  0  0
  -22.4115  -11.9837   22.4804 H   0  0  0  0  0  0
  -21.1099  -13.1193   22.2684 H   0  0  0  0  0  0
  -24.6520  -15.8459   20.5393 H   0  0  0  0  0  0
  -26.2668  -15.6430   20.0997 H   0  0  0  0  0  0
  -26.7199  -32.5405   23.1092 H   0  0  0  0  0  0
  -25.0050  -33.9672   25.0403 H   0  0  0  0  0  0
  -22.7218  -31.3035   21.4126 H   0  0  0  0  0  0
  -23.3740  -35.9635   23.3272 H   0  0  0  0  0  0
  -24.3571  -36.8969   22.2063 H   0  0  0  0  0  0
  -23.7245  -37.6488   23.6678 H   0  0  0  0  0  0
  -26.1095  -31.5302   20.6182 H   0  0  0  0  0  0
  -26.8481  -30.8159   22.0186 H   0  0  0  0  0  0
  -28.1095  -28.9107   21.2121 H   0  0  0  0  0  0
  -25.9458  -25.9496   18.9187 H   0  0  0  0  0  0
  -23.9653  -27.3349   18.9711 H   0  0  0  0  0  0
  -23.7742  -30.6065   19.4157 H   0  0  0  0  0  0
  -22.7554  -29.2679   19.8515 H   0  0  0  0  0  0
  -25.1288  -36.1916   25.0813 H   0  0  0  0  0  0
  -20.9959  -28.3288   24.1390 H   0  0  0  0  0  0
  -20.5670  -26.2309   23.3623 H   0  0  0  0  0  0
  -21.6638  -26.7439   22.1211 H   0  0  0  0  0  0
  -19.6915  -25.6279   21.1236 H   0  0  0  0  0  0
  -19.6679  -27.3165   20.6707 H   0  0  0  0  0  0
  -17.4203  -26.6642   21.4002 H   0  0  0  0  0  0
  -18.0327  -26.0061   22.8998 H   0  0  0  0  0  0
  -19.7947  -30.7247   24.2254 H   0  0  0  0  0  0
  -17.5025  -31.6249   24.5167 H   0  0  0  0  0  0
  -15.5354  -30.2965   23.7657 H   0  0  0  0  0  0
  -15.8674  -28.0813   22.7052 H   0  0  0  0  0  0
  -24.5920  -30.7042   25.7795 H   0  0  0  0  0  0
  -24.8899  -32.2841   26.4891 H   0  0  0  0  0  0
  -25.8058  -30.8878   27.0243 H   0  0  0  0  0  0
  -26.2967  -29.6699   24.1284 H   0  0  0  0  0  0
  -27.4075  -29.7278   25.4775 H   0  0  0  0  0  0
  -27.8838  -30.4247   23.9486 H   0  0  0  0  0  0
  -27.2698  -33.3633   26.2040 H   0  0  0  0  0  0
  -28.3884  -32.6848   25.0322 H   0  0  0  0  0  0
  -28.0733  -31.8466   26.5437 H   0  0  0  0  0  0
  -28.2572  -38.0132   24.7567 H   0  0  0  0  0  0
  -28.1133  -36.2666   24.6193 H   0  0  0  0  0  0
  -27.2316  -37.1362   25.8860 H   0  0  0  0  0  0
  -20.9394  -29.8812   21.6905 H   0  0  0  0  0  0
  -26.0164  -38.2844   24.1448 H   0  0  0  0  0  0
  -27.0040  -22.6257   21.4055 H   0  0  0  0  0  0
  -24.7172  -21.9408   22.3251 H   0  0  0  0  0  0
  -25.5930  -21.6250   23.8300 H   0  0  0  0  0  0
  -24.5657  -20.3745   23.1177 H   0  0  0  0  0  0
  -30.1787  -20.0496   18.4345 H   0  0  0  0  0  0
  -31.2741  -18.6984   18.6074 H   0  0  0  0  0  0
  -31.2626  -19.9639   19.8284 H   0  0  0  0  0  0
  -28.8697  -22.2134   18.8498 H   0  0  0  0  0  0
  -30.2031  -21.9657   19.9258 H   0  0  0  0  0  0
  -30.1007  -24.1904   20.2112 H   0  0  0  0  0  0
  -29.0464  -23.8081   21.5104 H   0  0  0  0  0  0
  -30.1312  -17.5938   21.8440 H   0  0  0  0  0  0
  -31.3053  -17.4171   20.6112 H   0  0  0  0  0  0
  -28.1568  -24.8563   18.7357 H   0  0  0  0  0  0
  -27.1171  -24.6102   20.1153 H   0  0  0  0  0  0
  -28.9151  -18.1592   19.1945 H   0  0  0  0  0  0
  -28.8382  -15.7214   20.7011 H   0  0  0  0  0  0
  1 25  1  0  0  0
  1 30  2  0  0  0
  1 84  1  0  0  0
  2  3  1  0  0  0
  2 25  1  0  0  0
  2 85  1  0  0  0
  2 86  1  0  0  0
  3  4  1  0  0  0
  3 87  1  0  0  0
  3 88  1  0  0  0
  4  5  1  0  0  0
  4 89  1  0  0  0
  4 90  1  0  0  0
  5  6  1  0  0  0
  5 26  1  0  0  0
  5 91  1  0  0  0
  6 25  1  0  0  0
  6 92  1  0  0  0
  6 93  1  0  0  0
  7  8  2  0  0  0
  7 26  1  0  0  0
  7 29  1  0  0  0
  8  9  1  0  0  0
  8 22  1  0  0  0
  9 10  1  0  0  0
  9 27  2  0  0  0
 10 11  2  0  0  0
 10 15  1  0  0  0
 11 12  1  0  0  0
 11 94  1  0  0  0
 12 13  2  0  0  0
 12 95  1  0  0  0
 13 14  1  0  0  0
 13 31  1  0  0  0
 14 15  2  0  0  0
 14 96  1  0  0  0
 15 97  1  0  0  0
 16 17  2  0  0  0
 16 21  1  0  0  0
 16 31  1  0  0  0
 17 18  1  0  0  0
 17 98  1  0  0  0
 18 19  2  0  0  0
 18 99  1  0  0  0
 19 20  1  0  0  0
 19 24  1  0  0  0
 20 21  2  0  0  0
 20100  1  0  0  0
 21 23  1  0  0  0
 22 28  1  0  0  0
 22 32  2  0  0  0
 26 27  1  0  0  0
 28101  1  0  0  0
 28102  1  0  0  0
 29103  1  0  0  0
 29104  1  0  0  0
 33 34  1  0  0  0
 33 66  1  0  0  0
 33 70  2  0  0  0
 34 36  1  0  0  0
 34 59  1  0  0  0
 34105  1  0  0  0
 35 44  2  0  0  0
 35 45  1  0  0  0
 35 68  1  0  0  0
 36 56  1  0  0  0
 36106  1  0  0  0
 37 39  1  0  0  0
 37 47  1  0  0  0
 37 66  1  0  0  0
 37107  1  0  0  0
 38 43  2  0  0  0
 38 46  1  0  0  0
 38 47  1  0  0  0
 39 64  1  0  0  0
 39 67  2  0  0  0
 40 52  1  0  0  0
 40 53  2  0  0  0
 40 58  1  0  0  0
 41108  1  0  0  0
 41109  1  0  0  0
 41110  1  0  0  0
 41 48  1  0  0  0
 42 43  1  0  0  0
 42 66  1  0  0  0
 42111  1  0  0  0
 42112  1  0  0  0
 43 44  1  0  0  0
 44113  1  0  0  0
 45 46  2  0  0  0
 45114  1  0  0  0
 46115  1  0  0  0
 47116  1  0  0  0
 47117  1  0  0  0
 48 56  1  0  0  0
 48 65  1  0  0  0
 48118  1  0  0  0
 49 50  1  0  0  0
 49 53  1  0  0  0
 49 64  1  0  0  0
 49119  1  0  0  0
 50 51  1  0  0  0
 50120  1  0  0  0
 50121  1  0  0  0
 51 52  1  0  0  0
 51122  1  0  0  0
 51123  1  0  0  0
 52124  1  0  0  0
 52125  1  0  0  0
 53 54  1  0  0  0
 54 55  2  0  0  0
 54126  1  0  0  0
 55 57  1  0  0  0
 55127  1  0  0  0
 56 69  2  0  0  0
 57 58  2  0  0  0
 57128  1  0  0  0
 58129  1  0  0  0
 59 60  1  0  0  0
 59 61  1  0  0  0
 59 62  1  0  0  0
 60130  1  0  0  0
 60131  1  0  0  0
 60132  1  0  0  0
 61133  1  0  0  0
 61134  1  0  0  0
 61135  1  0  0  0
 62136  1  0  0  0
 62137  1  0  0  0
 62138  1  0  0  0
 63 65  1  0  0  0
 63139  1  0  0  0
 63140  1  0  0  0
 63141  1  0  0  0
 64142  1  0  0  0
 65143  1  0  0  0
 68 80  1  0  0  0
 71 72  2  0  0  0
 71 73  1  0  0  0
 71144  1  0  0  0
 72 74  1  0  0  0
 72 77  1  0  0  0
 73 75  1  0  0  0
 73 82  2  0  0  0
 74 81  1  0  0  0
 74 83  2  0  0  0
 75145  1  0  0  0
 75146  1  0  0  0
 75147  1  0  0  0
 76148  1  0  0  0
 76149  1  0  0  0
 76150  1  0  0  0
 76 81  1  0  0  0
 77 78  1  0  0  0
 77151  1  0  0  0
 77152  1  0  0  0
 78 80  1  0  0  0
 78153  1  0  0  0
 78154  1  0  0  0
 79 81  1  0  0  0
 79 84  1  0  0  0
 79155  1  0  0  0
 79156  1  0  0  0
 80157  1  0  0  0
 80158  1  0  0  0
 81159  1  0  0  0
 82 83  1  0  0  0
 84160  1  0  0  0
M  ISO  4   1 100  68 101  80 101  84 100
M  END
> <chiral flag>
0

> <version>
0

> <s_m_source_file>
/data/baiqing/PycharmProjects/Reinvent-master-3.2/result/LINK_invent/BTK/process_docking_weight1_custom_sum_contain_oxygen_bond_distance_aromatic_linkinvent_7_9_3/rearranged_h_0081.sdf

> <i_m_source_file_index>
97

> <r_mmod_Potential_Energy-OPLS-2005>
223.185256958008

> <r_mmod_Stretch_Energy-OPLS-2005>
138.474624633789

> <r_mmod_Bend_Energy-OPLS-2005>
215.06901550293

> <r_mmod_Torsional_Energy-OPLS-2005>
231.629150390625

> <r_mmod_Improper_Torsional_Energy-OPLS-2005>
4.86488056182861

> <r_mmod_Van_der_Waal_Energy-OPLS-2005>
144.29182434082

> <r_mmod_Electrostatic_Energy-OPLS-2005>
-379.086730957031

> <r_mmod_Solvation_Energy-OPLS-2005>
-223.398651123047

> <b_mmod_Minimization_Converged-OPLS-2005>
0

> <r_mmod_RMS_Derivative-OPLS-2005>
2.4397087097168

$$$$
