0
                    3D
 Structure written by MMmdl.
156165  0  0  1  0            999 V2000
  -30.6554  -14.6945   20.4810 C   0  0  0  0  0  0
  -30.4296  -12.4287   19.4664 C   0  0  0  0  0  0
  -29.5058  -12.5036   18.2318 C   0  0  0  0  0  0
  -28.0332  -12.3331   18.6492 C   0  0  0  0  0  0
  -27.6465  -13.2294   19.8560 C   0  0  2  0  0  0
  -28.6942  -13.1540   20.9894 C   0  0  0  0  0  0
  -25.2536  -13.8196   20.5712 C   0  0  0  0  0  0
  -24.1817  -13.0445   20.9212 C   0  0  0  0  0  0
  -24.6405  -11.6920   20.8756 C   0  0  0  0  0  0
  -23.9075  -10.4298   21.0410 C   0  0  0  0  0  0
  -24.3626   -9.4215   21.9194 C   0  0  0  0  0  0
  -23.6301   -8.2246   22.0757 C   0  0  0  0  0  0
  -22.4283   -8.0287   21.3543 C   0  0  0  0  0  0
  -21.9926   -9.0259   20.4647 C   0  0  0  0  0  0
  -22.7249  -10.2139   20.3058 C   0  0  0  0  0  0
  -21.6856   -6.0746   22.5282 C   0  0  0  0  0  0
  -21.4011   -6.5641   23.8214 C   0  0  0  0  0  0
  -21.3659   -5.6795   24.9176 C   0  0  0  0  0  0
  -21.6044   -4.3061   24.7225 C   0  0  0  0  0  0
  -21.8815   -3.8155   23.4344 C   0  0  0  0  0  0
  -21.9191   -4.6973   22.3403 C   0  0  0  0  0  0
  -22.7838  -13.5231   21.1871 C   0  0  0  0  0  0
  -22.1663   -4.2160   21.0981 F   0  0  0  0  0  0
  -21.5629   -3.4547   25.7739 F   0  0  0  0  0  0
  -30.0001  -13.4880   20.4062 N   0  0  0  0  0  0
  -26.2970  -12.9398   20.3327 N   0  0  0  0  0  0
  -25.9339  -11.6541   20.5784 N   0  0  0  0  0  0
  -22.0484  -12.8210   22.0418 N   0  0  0  0  0  0
  -25.4229  -15.1919   20.4118 N   0  0  0  0  0  0
  -31.8379  -14.7801   20.1407 O   0  0  0  0  0  0
  -21.6641   -6.8889   21.4244 O   0  0  0  0  0  0
  -22.3525  -14.5543   20.6730 O   0  0  0  0  0  0
  -24.6326  -31.8579   23.2033 C   0  0  0  0  0  0
  -25.9154  -32.4772   23.8370 C   0  0  1  0  0  0
  -27.2082  -27.2659   20.1148 C   0  0  0  0  0  0
  -25.5951  -33.8575   24.2283 N   0  0  0  0  0  0
  -23.4268  -30.4877   21.5468 C   0  0  2  0  0  0
  -24.8715  -28.9490   20.1086 C   0  0  0  0  0  0
  -22.7503  -29.4630   22.4915 C   0  0  0  0  0  0
  -18.0291  -28.1390   22.8492 C   0  0  0  0  0  0
  -24.1480  -36.7282   23.2643 C   0  0  0  0  0  0
  -25.9773  -30.7712   21.3864 C   0  0  0  0  0  0
  -26.0474  -29.3983   20.7232 C   0  0  0  0  0  0
  -27.2180  -28.5688   20.7212 C   0  0  0  0  0  0
  -26.0059  -26.9081   19.4514 C   0  0  0  0  0  0
  -24.8567  -27.7104   19.4634 C   0  0  0  0  0  0
  -23.6429  -29.8329   20.1605 C   0  0  0  0  0  0
  -25.4108  -36.3076   24.0333 C   0  0  1  0  0  0
  -20.5902  -28.3705   23.1258 C   0  0  2  0  0  0
  -20.6783  -26.9423   22.5387 C   0  0  0  0  0  0
  -19.5742  -26.6375   21.5212 C   0  0  0  0  0  0
  -18.1924  -26.7935   22.1624 C   0  0  0  0  0  0
  -19.1550  -28.8864   23.2869 C   0  0  0  0  0  0
  -18.9479  -30.1468   23.8881 C   0  0  0  0  0  0
  -17.6478  -30.6596   24.0561 C   0  0  0  0  0  0
  -25.9055  -34.9449   23.5106 C   0  0  0  0  0  0
  -16.5366  -29.9092   23.6348 C   0  0  0  0  0  0
  -16.7280  -28.6511   23.0370 C   0  0  0  0  0  0
  -26.4518  -31.6604   25.0761 C   0  0  0  0  0  0
  -25.3733  -31.3749   26.1469 C   0  0  0  0  0  0
  -27.0404  -30.3034   24.6257 C   0  0  0  0  0  0
  -27.6044  -32.4376   25.7536 C   0  0  0  0  0  0
  -27.5569  -37.1795   24.8472 C   0  0  0  0  0  0
  -21.4211  -29.3073   22.3659 N   0  0  0  0  0  0
  -26.4281  -37.3772   23.9417 N   0  0  0  0  0  0
  -24.6981  -31.0557   22.1012 N   0  0  0  0  0  0
  -23.4213  -28.8142   23.2984 O   0  0  0  0  0  0
  -28.2721  -26.3251   20.1934 O   0  0  0  0  0  0
  -26.5609  -34.8920   22.4667 O   0  0  0  0  0  0
  -23.5477  -32.1407   23.7324 O   0  0  0  0  0  0
  -29.7881  -21.4726   19.3939 C   0  0  0  0  0  0
  -28.5625  -22.8618   21.4351 C   0  0  0  0  0  0
  -29.3854  -22.8364   19.1997 C   0  0  0  0  0  0
  -28.7219  -23.5797   20.2203 C   0  0  0  0  0  0
  -29.5993  -20.7095   20.5860 C   0  0  0  0  0  0
  -28.9839  -21.5027   21.6161 C   0  0  0  0  0  0
  -29.7707  -18.3068   21.7038 C   0  0  0  0  0  0
  -29.9531  -18.2759   19.6461 C   0  0  0  0  0  0
  -30.4428  -17.2689   20.7442 C   0  0  0  0  0  0
  -29.6335  -23.4637   17.8378 C   0  0  0  0  0  0
  -27.8838  -24.8999   19.9243 C   0  0  0  0  0  0
  -30.1145  -19.3166   20.6832 N   0  0  0  0  0  0
  -29.9294  -15.8363   20.7444 N   0  0  0  0  0  0
  -28.6947  -20.8234   23.1803 Cl  0  0  0  0  0  0
  -31.4715  -12.5395   19.1622 H   0  0  0  0  0  0
  -30.3618  -11.4489   19.9423 H   0  0  0  0  0  0
  -29.7799  -11.7357   17.5073 H   0  0  0  0  0  0
  -29.6359  -13.4623   17.7268 H   0  0  0  0  0  0
  -27.8871  -11.2837   18.9077 H   0  0  0  0  0  0
  -27.3726  -12.5323   17.8046 H   0  0  0  0  0  0
  -27.6462  -14.2534   19.4819 H   0  0  0  0  0  0
  -28.7198  -12.1564   21.4304 H   0  0  0  0  0  0
  -28.4391  -13.8391   21.7996 H   0  0  0  0  0  0
  -25.2766   -9.5693   22.4775 H   0  0  0  0  0  0
  -24.0012   -7.4639   22.7472 H   0  0  0  0  0  0
  -21.0860   -8.8773   19.8947 H   0  0  0  0  0  0
  -22.3709  -10.9681   19.6168 H   0  0  0  0  0  0
  -21.1998   -7.6147   23.9722 H   0  0  0  0  0  0
  -21.1486   -6.0526   25.9079 H   0  0  0  0  0  0
  -22.0592   -2.7619   23.2842 H   0  0  0  0  0  0
  -22.4100  -11.9862   22.4785 H   0  0  0  0  0  0
  -21.1103  -13.1233   22.2645 H   0  0  0  0  0  0
  -24.6528  -15.8436   20.5153 H   0  0  0  0  0  0
  -26.2668  -15.6297   20.0652 H   0  0  0  0  0  0
  -26.7214  -32.5423   23.1106 H   0  0  0  0  0  0
  -25.0158  -33.9732   25.0468 H   0  0  0  0  0  0
  -22.7238  -31.3119   21.4056 H   0  0  0  0  0  0
  -23.3750  -35.9603   23.3296 H   0  0  0  0  0  0
  -24.3567  -36.8913   22.2057 H   0  0  0  0  0  0
  -23.7226  -37.6477   23.6675 H   0  0  0  0  0  0
  -26.1212  -31.5333   20.6193 H   0  0  0  0  0  0
  -26.8539  -30.8145   22.0213 H   0  0  0  0  0  0
  -28.1100  -28.9054   21.2315 H   0  0  0  0  0  0
  -25.8870  -25.9763   18.9231 H   0  0  0  0  0  0
  -23.9590  -27.3630   18.9706 H   0  0  0  0  0  0
  -23.7632  -30.6131   19.4080 H   0  0  0  0  0  0
  -22.7612  -29.2659   19.8543 H   0  0  0  0  0  0
  -25.1283  -36.1922   25.0823 H   0  0  0  0  0  0
  -20.9998  -28.3269   24.1373 H   0  0  0  0  0  0
  -20.5696  -26.2316   23.3595 H   0  0  0  0  0  0
  -21.6643  -26.7439   22.1167 H   0  0  0  0  0  0
  -19.6904  -25.6275   21.1260 H   0  0  0  0  0  0
  -19.6679  -27.3170   20.6730 H   0  0  0  0  0  0
  -17.4193  -26.6702   21.4023 H   0  0  0  0  0  0
  -18.0310  -26.0064   22.9007 H   0  0  0  0  0  0
  -19.7954  -30.7294   24.2218 H   0  0  0  0  0  0
  -17.5038  -31.6282   24.5152 H   0  0  0  0  0  0
  -15.5372  -30.2999   23.7680 H   0  0  0  0  0  0
  -15.8672  -28.0826   22.7104 H   0  0  0  0  0  0
  -24.5898  -30.7118   25.7782 H   0  0  0  0  0  0
  -24.8946  -32.2927   26.4896 H   0  0  0  0  0  0
  -25.8040  -30.8910   27.0245 H   0  0  0  0  0  0
  -26.3025  -29.6757   24.1251 H   0  0  0  0  0  0
  -27.4078  -29.7311   25.4786 H   0  0  0  0  0  0
  -27.8883  -30.4333   23.9532 H   0  0  0  0  0  0
  -27.2630  -33.3700   26.2044 H   0  0  0  0  0  0
  -28.3885  -32.6913   25.0392 H   0  0  0  0  0  0
  -28.0674  -31.8564   26.5519 H   0  0  0  0  0  0
  -28.2571  -38.0102   24.7527 H   0  0  0  0  0  0
  -28.1085  -36.2638   24.6290 H   0  0  0  0  0  0
  -27.2289  -37.1425   25.8874 H   0  0  0  0  0  0
  -20.9392  -29.8853   21.6915 H   0  0  0  0  0  0
  -26.0160  -38.2844   24.1419 H   0  0  0  0  0  0
  -30.2753  -20.9776   18.5651 H   0  0  0  0  0  0
  -28.0408  -23.3438   22.2488 H   0  0  0  0  0  0
  -30.2894  -18.4343   22.6552 H   0  0  0  0  0  0
  -28.6942  -18.1758   21.8317 H   0  0  0  0  0  0
  -28.9150  -18.1366   19.3359 H   0  0  0  0  0  0
  -30.6264  -18.3781   18.7938 H   0  0  0  0  0  0
  -31.5312  -17.3089   20.8415 H   0  0  0  0  0  0
  -30.4627  -22.9772   17.3227 H   0  0  0  0  0  0
  -29.8890  -24.5196   17.9327 H   0  0  0  0  0  0
  -28.7470  -23.3764   17.2082 H   0  0  0  0  0  0
  -26.9525  -24.7163   20.4626 H   0  0  0  0  0  0
  -27.6328  -24.8371   18.8672 H   0  0  0  0  0  0
  -28.9531  -15.7050   20.9606 H   0  0  0  0  0  0
  1 25  1  0  0  0
  1 30  2  0  0  0
  1 83  1  0  0  0
  2  3  1  0  0  0
  2 25  1  0  0  0
  2 85  1  0  0  0
  2 86  1  0  0  0
  3  4  1  0  0  0
  3 87  1  0  0  0
  3 88  1  0  0  0
  4  5  1  0  0  0
  4 89  1  0  0  0
  4 90  1  0  0  0
  5  6  1  0  0  0
  5 26  1  0  0  0
  5 91  1  0  0  0
  6 25  1  0  0  0
  6 92  1  0  0  0
  6 93  1  0  0  0
  7  8  2  0  0  0
  7 26  1  0  0  0
  7 29  1  0  0  0
  8  9  1  0  0  0
  8 22  1  0  0  0
  9 10  1  0  0  0
  9 27  2  0  0  0
 10 11  2  0  0  0
 10 15  1  0  0  0
 11 12  1  0  0  0
 11 94  1  0  0  0
 12 13  2  0  0  0
 12 95  1  0  0  0
 13 14  1  0  0  0
 13 31  1  0  0  0
 14 15  2  0  0  0
 14 96  1  0  0  0
 15 97  1  0  0  0
 16 17  2  0  0  0
 16 21  1  0  0  0
 16 31  1  0  0  0
 17 18  1  0  0  0
 17 98  1  0  0  0
 18 19  2  0  0  0
 18 99  1  0  0  0
 19 20  1  0  0  0
 19 24  1  0  0  0
 20 21  2  0  0  0
 20100  1  0  0  0
 21 23  1  0  0  0
 22 28  1  0  0  0
 22 32  2  0  0  0
 26 27  1  0  0  0
 28101  1  0  0  0
 28102  1  0  0  0
 29103  1  0  0  0
 29104  1  0  0  0
 33 34  1  0  0  0
 33 66  1  0  0  0
 33 70  2  0  0  0
 34 36  1  0  0  0
 34 59  1  0  0  0
 34105  1  0  0  0
 35 44  2  0  0  0
 35 45  1  0  0  0
 35 68  1  0  0  0
 36 56  1  0  0  0
 36106  1  0  0  0
 37 39  1  0  0  0
 37 47  1  0  0  0
 37 66  1  0  0  0
 37107  1  0  0  0
 38 43  2  0  0  0
 38 46  1  0  0  0
 38 47  1  0  0  0
 39 64  1  0  0  0
 39 67  2  0  0  0
 40 52  1  0  0  0
 40 53  2  0  0  0
 40 58  1  0  0  0
 41108  1  0  0  0
 41109  1  0  0  0
 41110  1  0  0  0
 41 48  1  0  0  0
 42 43  1  0  0  0
 42 66  1  0  0  0
 42111  1  0  0  0
 42112  1  0  0  0
 43 44  1  0  0  0
 44113  1  0  0  0
 45 46  2  0  0  0
 45114  1  0  0  0
 46115  1  0  0  0
 47116  1  0  0  0
 47117  1  0  0  0
 48 56  1  0  0  0
 48 65  1  0  0  0
 48118  1  0  0  0
 49 50  1  0  0  0
 49 53  1  0  0  0
 49 64  1  0  0  0
 49119  1  0  0  0
 50 51  1  0  0  0
 50120  1  0  0  0
 50121  1  0  0  0
 51 52  1  0  0  0
 51122  1  0  0  0
 51123  1  0  0  0
 52124  1  0  0  0
 52125  1  0  0  0
 53 54  1  0  0  0
 54 55  2  0  0  0
 54126  1  0  0  0
 55 57  1  0  0  0
 55127  1  0  0  0
 56 69  2  0  0  0
 57 58  2  0  0  0
 57128  1  0  0  0
 58129  1  0  0  0
 59 60  1  0  0  0
 59 61  1  0  0  0
 59 62  1  0  0  0
 60130  1  0  0  0
 60131  1  0  0  0
 60132  1  0  0  0
 61133  1  0  0  0
 61134  1  0  0  0
 61135  1  0  0  0
 62136  1  0  0  0
 62137  1  0  0  0
 62138  1  0  0  0
 63 65  1  0  0  0
 63139  1  0  0  0
 63140  1  0  0  0
 63141  1  0  0  0
 64142  1  0  0  0
 65143  1  0  0  0
 68 81  1  0  0  0
 71 73  2  0  0  0
 71 75  1  0  0  0
 71144  1  0  0  0
 72 74  2  0  0  0
 72 76  1  0  0  0
 72145  1  0  0  0
 73 74  1  0  0  0
 73 80  1  0  0  0
 74 81  1  0  0  0
 75 76  2  0  0  0
 75 82  1  0  0  0
 76 84  1  0  0  0
 77 79  1  0  0  0
 77 82  1  0  0  0
 77146  1  0  0  0
 77147  1  0  0  0
 78 79  1  0  0  0
 78 82  1  0  0  0
 78148  1  0  0  0
 78149  1  0  0  0
 79 83  1  0  0  0
 79150  1  0  0  0
 80151  1  0  0  0
 80152  1  0  0  0
 80153  1  0  0  0
 81154  1  0  0  0
 81155  1  0  0  0
 83156  1  0  0  0
M  ISO  4   1 100  68 101  81 101  83 100
M  END
> <chiral flag>
0

> <version>
0

> <s_m_source_file>
/data/baiqing/PycharmProjects/Reinvent-master-3.2/result/LINK_invent/BTK/process_docking_weight1_custom_sum_contain_oxygen_bond_distance_aromatic_linkinvent_7_9_3/rearranged_h_0160.sdf

> <i_m_source_file_index>
1

> <r_mmod_Potential_Energy-OPLS-2005>
230.548141479492

> <r_mmod_Stretch_Energy-OPLS-2005>
103.105735778809

> <r_mmod_Bend_Energy-OPLS-2005>
230.609283447266

> <r_mmod_Torsional_Energy-OPLS-2005>
244.774780273438

> <r_mmod_Improper_Torsional_Energy-OPLS-2005>
14.0379829406738

> <r_mmod_Van_der_Waal_Energy-OPLS-2005>
157.365295410156

> <r_mmod_Electrostatic_Energy-OPLS-2005>
-369.795562744141

> <r_mmod_Solvation_Energy-OPLS-2005>
-228.369216918945

> <b_mmod_Minimization_Converged-OPLS-2005>
0

> <r_mmod_RMS_Derivative-OPLS-2005>
1.39499974250793

$$$$
1
                    3D
 Structure written by MMmdl.
163172  0  0  1  0            999 V2000
  -30.6093  -14.7777   20.4422 C   0  0  0  0  0  0
  -30.4416  -12.4806   19.4510 C   0  0  0  0  0  0
  -29.5066  -12.5067   18.2207 C   0  0  0  0  0  0
  -28.0366  -12.3329   18.6516 C   0  0  0  0  0  0
  -27.6472  -13.2334   19.8548 C   0  0  2  0  0  0
  -28.7048  -13.1736   20.9803 C   0  0  0  0  0  0
  -25.2534  -13.8196   20.5702 C   0  0  0  0  0  0
  -24.1842  -13.0447   20.9245 C   0  0  0  0  0  0
  -24.6437  -11.6916   20.8789 C   0  0  0  0  0  0
  -23.9108  -10.4294   21.0435 C   0  0  0  0  0  0
  -24.3641   -9.4203   21.9211 C   0  0  0  0  0  0
  -23.6298   -8.2249   22.0771 C   0  0  0  0  0  0
  -22.4285   -8.0308   21.3548 C   0  0  0  0  0  0
  -21.9935   -9.0295   20.4653 C   0  0  0  0  0  0
  -22.7284  -10.2162   20.3070 C   0  0  0  0  0  0
  -21.6869   -6.0732   22.5279 C   0  0  0  0  0  0
  -21.4023   -6.5630   23.8215 C   0  0  0  0  0  0
  -21.3657   -5.6789   24.9180 C   0  0  0  0  0  0
  -21.6041   -4.3049   24.7239 C   0  0  0  0  0  0
  -21.8820   -3.8135   23.4362 C   0  0  0  0  0  0
  -21.9187   -4.6947   22.3413 C   0  0  0  0  0  0
  -22.7856  -13.5246   21.1884 C   0  0  0  0  0  0
  -22.1655   -4.2136   21.0989 F   0  0  0  0  0  0
  -21.5625   -3.4533   25.7750 F   0  0  0  0  0  0
  -29.9912  -13.5450   20.3794 N   0  0  0  0  0  0
  -26.2995  -12.9417   20.3340 N   0  0  0  0  0  0
  -25.9381  -11.6550   20.5814 N   0  0  0  0  0  0
  -22.0479  -12.8239   22.0407 N   0  0  0  0  0  0
  -25.4139  -15.1930   20.4039 N   0  0  0  0  0  0
  -31.8000  -14.8782   20.1417 O   0  0  0  0  0  0
  -21.6648   -6.8899   21.4252 O   0  0  0  0  0  0
  -22.3550  -14.5564   20.6749 O   0  0  0  0  0  0
  -24.6342  -31.8492   23.1936 C   0  0  0  0  0  0
  -25.9160  -32.4716   23.8280 C   0  0  1  0  0  0
  -27.2320  -27.2375   20.1378 C   0  0  0  0  0  0
  -25.5955  -33.8520   24.2200 N   0  0  0  0  0  0
  -23.4338  -30.4732   21.5363 C   0  0  2  0  0  0
  -24.8837  -28.9107   20.1051 C   0  0  0  0  0  0
  -22.7517  -29.4609   22.4893 C   0  0  0  0  0  0
  -18.0352  -28.1469   22.8484 C   0  0  0  0  0  0
  -24.1514  -36.7273   23.2639 C   0  0  0  0  0  0
  -25.9797  -30.7550   21.3753 C   0  0  0  0  0  0
  -26.0540  -29.3769   20.7166 C   0  0  0  0  0  0
  -27.2264  -28.5516   20.7235 C   0  0  0  0  0  0
  -26.0430  -26.8461   19.4812 C   0  0  0  0  0  0
  -24.8856  -27.6549   19.4743 C   0  0  0  0  0  0
  -23.6496  -29.7923   20.1568 C   0  0  0  0  0  0
  -25.4136  -36.3032   24.0303 C   0  0  1  0  0  0
  -20.5895  -28.3868   23.1258 C   0  0  2  0  0  0
  -20.6974  -26.9595   22.5361 C   0  0  0  0  0  0
  -19.5848  -26.6133   21.5400 C   0  0  0  0  0  0
  -18.1949  -26.7973   22.1655 C   0  0  0  0  0  0
  -19.1567  -28.9000   23.2810 C   0  0  0  0  0  0
  -18.9477  -30.1618   23.8821 C   0  0  0  0  0  0
  -17.6478  -30.6685   24.0553 C   0  0  0  0  0  0
  -25.9058  -34.9414   23.5051 C   0  0  0  0  0  0
  -16.5392  -29.9140   23.6351 C   0  0  0  0  0  0
  -16.7336  -28.6568   23.0374 C   0  0  0  0  0  0
  -26.4510  -31.6555   25.0704 C   0  0  0  0  0  0
  -25.3717  -31.3750   26.1416 C   0  0  0  0  0  0
  -27.0367  -30.2957   24.6241 C   0  0  0  0  0  0
  -27.6028  -32.4296   25.7524 C   0  0  0  0  0  0
  -27.5570  -37.1786   24.8450 C   0  0  0  0  0  0
  -21.4200  -29.3321   22.3811 N   0  0  0  0  0  0
  -26.4296  -37.3733   23.9384 N   0  0  0  0  0  0
  -24.7017  -31.0451   22.0912 N   0  0  0  0  0  0
  -23.4221  -28.7968   23.2850 O   0  0  0  0  0  0
  -28.3305  -26.3455   20.2532 O   0  0  0  0  0  0
  -26.5611  -34.8911   22.4611 O   0  0  0  0  0  0
  -23.5487  -32.1304   23.7228 O   0  0  0  0  0  0
  -27.2091  -19.4112   22.1147 C   0  0  0  0  0  0
  -28.3655  -21.1152   20.7494 C   0  0  0  0  0  0
  -27.2811  -20.7131   21.5875 C   0  0  0  0  0  0
  -28.1298  -18.3949   21.8169 C   0  0  0  0  0  0
  -29.3169  -20.0285   20.4342 C   0  0  0  0  0  0
  -29.1974  -18.6294   20.9135 C   0  0  0  0  0  0
  -27.3404  -23.8219   20.3584 C   0  0  0  0  0  0
  -29.3766  -23.8489   20.3317 C   0  0  0  0  0  0
  -28.3830  -22.6333   20.1307 C   0  0  1  0  0  0
  -28.3126  -24.9005   19.7916 C   0  0  2  0  0  0
  -26.1178  -21.6128   21.9707 C   0  0  0  0  0  0
  -27.9256  -17.0726   22.5415 C   0  0  0  0  0  0
  -30.5084  -20.4075   19.5622 C   0  0  0  0  0  0
  -30.2073  -17.4053   20.5721 C   0  0  0  0  0  0
  -29.8266  -15.9123   20.6295 N   0  0  0  0  0  0
  -31.4772  -12.6170   19.1334 H   0  0  0  0  0  0
  -30.4073  -11.5080   19.9435 H   0  0  0  0  0  0
  -29.7887  -11.7169   17.5221 H   0  0  0  0  0  0
  -29.6233  -13.4428   17.6729 H   0  0  0  0  0  0
  -27.9025  -11.2854   18.9225 H   0  0  0  0  0  0
  -27.3698  -12.5184   17.8095 H   0  0  0  0  0  0
  -27.6395  -14.2540   19.4744 H   0  0  0  0  0  0
  -28.7643  -12.1724   21.4139 H   0  0  0  0  0  0
  -28.4488  -13.8501   21.7977 H   0  0  0  0  0  0
  -25.2786   -9.5678   22.4785 H   0  0  0  0  0  0
  -23.9987   -7.4648   22.7509 H   0  0  0  0  0  0
  -21.0851   -8.8845   19.8975 H   0  0  0  0  0  0
  -22.3761  -10.9712   19.6177 H   0  0  0  0  0  0
  -21.2028   -7.6139   23.9727 H   0  0  0  0  0  0
  -21.1475   -6.0510   25.9087 H   0  0  0  0  0  0
  -22.0597   -2.7594   23.2876 H   0  0  0  0  0  0
  -22.4071  -11.9884   22.4771 H   0  0  0  0  0  0
  -21.1120  -13.1300   22.2637 H   0  0  0  0  0  0
  -24.6357  -15.8329   20.5244 H   0  0  0  0  0  0
  -26.2270  -15.6375   19.9982 H   0  0  0  0  0  0
  -26.7249  -32.5361   23.1030 H   0  0  0  0  0  0
  -25.0169  -33.9632   25.0392 H   0  0  0  0  0  0
  -22.7297  -31.2948   21.3829 H   0  0  0  0  0  0
  -23.3751  -35.9626   23.3288 H   0  0  0  0  0  0
  -24.3617  -36.8913   22.2057 H   0  0  0  0  0  0
  -23.7297  -37.6480   23.6688 H   0  0  0  0  0  0
  -26.1210  -31.5152   20.6063 H   0  0  0  0  0  0
  -26.8536  -30.8011   22.0133 H   0  0  0  0  0  0
  -28.1169  -28.9026   21.2270 H   0  0  0  0  0  0
  -25.9825  -25.8849   18.9927 H   0  0  0  0  0  0
  -23.9911  -27.2929   18.9858 H   0  0  0  0  0  0
  -23.7509  -30.5560   19.3856 H   0  0  0  0  0  0
  -22.7685  -29.2130   19.8723 H   0  0  0  0  0  0
  -25.1336  -36.1847   25.0790 H   0  0  0  0  0  0
  -20.9837  -28.3465   24.1429 H   0  0  0  0  0  0
  -20.6359  -26.2528   23.3625 H   0  0  0  0  0  0
  -21.6778  -26.7881   22.0864 H   0  0  0  0  0  0
  -19.6811  -27.2414   20.6545 H   0  0  0  0  0  0
  -19.7033  -25.5859   21.1945 H   0  0  0  0  0  0
  -17.4320  -26.6782   21.3941 H   0  0  0  0  0  0
  -18.0065  -26.0179   22.9031 H   0  0  0  0  0  0
  -19.7900  -30.7550   24.2165 H   0  0  0  0  0  0
  -17.4919  -31.6345   24.5204 H   0  0  0  0  0  0
  -15.5406  -30.3019   23.7726 H   0  0  0  0  0  0
  -15.8761  -28.0877   22.7101 H   0  0  0  0  0  0
  -24.5911  -30.7062   25.7788 H   0  0  0  0  0  0
  -24.8905  -32.2946   26.4756 H   0  0  0  0  0  0
  -25.8042  -30.9012   27.0236 H   0  0  0  0  0  0
  -26.2992  -29.6678   24.1242 H   0  0  0  0  0  0
  -27.3987  -29.7250   25.4798 H   0  0  0  0  0  0
  -27.8887  -30.4193   23.9553 H   0  0  0  0  0  0
  -27.2594  -33.3587   26.2081 H   0  0  0  0  0  0
  -28.3902  -32.6833   25.0420 H   0  0  0  0  0  0
  -28.0618  -31.8415   26.5475 H   0  0  0  0  0  0
  -28.2562  -38.0103   24.7496 H   0  0  0  0  0  0
  -28.1087  -36.2619   24.6289 H   0  0  0  0  0  0
  -27.2276  -37.1463   25.8850 H   0  0  0  0  0  0
  -20.9354  -29.9452   21.7412 H   0  0  0  0  0  0
  -26.0151  -38.2798   24.1373 H   0  0  0  0  0  0
  -26.3912  -19.1656   22.7814 H   0  0  0  0  0  0
  -27.1326  -24.0440   21.4061 H   0  0  0  0  0  0
  -26.4155  -23.7295   19.7920 H   0  0  0  0  0  0
  -30.2845  -23.7797   19.7333 H   0  0  0  0  0  0
  -29.6318  -24.0069   21.3822 H   0  0  0  0  0  0
  -28.3754  -22.4311   19.0580 H   0  0  0  0  0  0
  -28.2932  -24.8880   18.7014 H   0  0  0  0  0  0
  -26.4452  -22.4075   22.6368 H   0  0  0  0  0  0
  -25.3456  -21.0641   22.5106 H   0  0  0  0  0  0
  -25.6232  -22.0238   21.0910 H   0  0  0  0  0  0
  -28.8660  -16.7133   22.9559 H   0  0  0  0  0  0
  -27.5041  -16.3214   21.8742 H   0  0  0  0  0  0
  -27.2437  -17.1744   23.3857 H   0  0  0  0  0  0
  -31.0403  -21.2536   20.0020 H   0  0  0  0  0  0
  -30.1790  -20.6952   18.5629 H   0  0  0  0  0  0
  -31.2446  -19.6164   19.4452 H   0  0  0  0  0  0
  -31.0424  -17.5104   21.2665 H   0  0  0  0  0  0
  -30.6323  -17.5600   19.5821 H   0  0  0  0  0  0
  -28.8466  -15.7330   20.7668 H   0  0  0  0  0  0
  1 25  1  0  0  0
  1 30  2  0  0  0
  1 85  1  0  0  0
  2  3  1  0  0  0
  2 25  1  0  0  0
  2 86  1  0  0  0
  2 87  1  0  0  0
  3  4  1  0  0  0
  3 88  1  0  0  0
  3 89  1  0  0  0
  4  5  1  0  0  0
  4 90  1  0  0  0
  4 91  1  0  0  0
  5  6  1  0  0  0
  5 26  1  0  0  0
  5 92  1  0  0  0
  6 25  1  0  0  0
  6 93  1  0  0  0
  6 94  1  0  0  0
  7  8  2  0  0  0
  7 26  1  0  0  0
  7 29  1  0  0  0
  8  9  1  0  0  0
  8 22  1  0  0  0
  9 10  1  0  0  0
  9 27  2  0  0  0
 10 11  2  0  0  0
 10 15  1  0  0  0
 11 12  1  0  0  0
 11 95  1  0  0  0
 12 13  2  0  0  0
 12 96  1  0  0  0
 13 14  1  0  0  0
 13 31  1  0  0  0
 14 15  2  0  0  0
 14 97  1  0  0  0
 15 98  1  0  0  0
 16 17  2  0  0  0
 16 21  1  0  0  0
 16 31  1  0  0  0
 17 18  1  0  0  0
 17 99  1  0  0  0
 18 19  2  0  0  0
 18100  1  0  0  0
 19 20  1  0  0  0
 19 24  1  0  0  0
 20 21  2  0  0  0
 20101  1  0  0  0
 21 23  1  0  0  0
 22 28  1  0  0  0
 22 32  2  0  0  0
 26 27  1  0  0  0
 28102  1  0  0  0
 28103  1  0  0  0
 29104  1  0  0  0
 29105  1  0  0  0
 33 34  1  0  0  0
 33 66  1  0  0  0
 33 70  2  0  0  0
 34 36  1  0  0  0
 34 59  1  0  0  0
 34106  1  0  0  0
 35 44  2  0  0  0
 35 45  1  0  0  0
 35 68  1  0  0  0
 36 56  1  0  0  0
 36107  1  0  0  0
 37 39  1  0  0  0
 37 47  1  0  0  0
 37 66  1  0  0  0
 37108  1  0  0  0
 38 43  2  0  0  0
 38 46  1  0  0  0
 38 47  1  0  0  0
 39 64  1  0  0  0
 39 67  2  0  0  0
 40 52  1  0  0  0
 40 53  2  0  0  0
 40 58  1  0  0  0
 41109  1  0  0  0
 41110  1  0  0  0
 41111  1  0  0  0
 41 48  1  0  0  0
 42 43  1  0  0  0
 42 66  1  0  0  0
 42112  1  0  0  0
 42113  1  0  0  0
 43 44  1  0  0  0
 44114  1  0  0  0
 45 46  2  0  0  0
 45115  1  0  0  0
 46116  1  0  0  0
 47117  1  0  0  0
 47118  1  0  0  0
 48 56  1  0  0  0
 48 65  1  0  0  0
 48119  1  0  0  0
 49 50  1  0  0  0
 49 53  1  0  0  0
 49 64  1  0  0  0
 49120  1  0  0  0
 50 51  1  0  0  0
 50121  1  0  0  0
 50122  1  0  0  0
 51 52  1  0  0  0
 51123  1  0  0  0
 51124  1  0  0  0
 52125  1  0  0  0
 52126  1  0  0  0
 53 54  1  0  0  0
 54 55  2  0  0  0
 54127  1  0  0  0
 55 57  1  0  0  0
 55128  1  0  0  0
 56 69  2  0  0  0
 57 58  2  0  0  0
 57129  1  0  0  0
 58130  1  0  0  0
 59 60  1  0  0  0
 59 61  1  0  0  0
 59 62  1  0  0  0
 60131  1  0  0  0
 60132  1  0  0  0
 60133  1  0  0  0
 61134  1  0  0  0
 61135  1  0  0  0
 61136  1  0  0  0
 62137  1  0  0  0
 62138  1  0  0  0
 62139  1  0  0  0
 63 65  1  0  0  0
 63140  1  0  0  0
 63141  1  0  0  0
 63142  1  0  0  0
 64143  1  0  0  0
 65144  1  0  0  0
 68 80  1  0  0  0
 71 73  2  0  0  0
 71 74  1  0  0  0
 71145  1  0  0  0
 72 73  1  0  0  0
 72 75  2  0  0  0
 72 79  1  0  0  0
 73 81  1  0  0  0
 74 76  2  0  0  0
 74 82  1  0  0  0
 75 76  1  0  0  0
 75 83  1  0  0  0
 76 84  1  0  0  0
 77 79  1  0  0  0
 77 80  1  0  0  0
 77146  1  0  0  0
 77147  1  0  0  0
 78 79  1  0  0  0
 78 80  1  0  0  0
 78148  1  0  0  0
 78149  1  0  0  0
 79150  1  0  0  0
 80151  1  0  0  0
 81152  1  0  0  0
 81153  1  0  0  0
 81154  1  0  0  0
 82155  1  0  0  0
 82156  1  0  0  0
 82157  1  0  0  0
 83158  1  0  0  0
 83159  1  0  0  0
 83160  1  0  0  0
 84 85  1  0  0  0
 84161  1  0  0  0
 84162  1  0  0  0
 85163  1  0  0  0
M  ISO  4   1 100  68 101  80 101  85 100
M  END
> <chiral flag>
0

> <version>
0

> <s_m_source_file>
/data/baiqing/PycharmProjects/Reinvent-master-3.2/result/LINK_invent/BTK/process_docking_weight1_custom_sum_contain_oxygen_bond_distance_aromatic_linkinvent_7_9_3/rearranged_h_0160.sdf

> <i_m_source_file_index>
2

> <r_mmod_Potential_Energy-OPLS-2005>
202.423583984375

> <r_mmod_Stretch_Energy-OPLS-2005>
161.06884765625

> <r_mmod_Bend_Energy-OPLS-2005>
227.909194946289

> <r_mmod_Torsional_Energy-OPLS-2005>
208.406677246094

> <r_mmod_Improper_Torsional_Energy-OPLS-2005>
5.5787787437439

> <r_mmod_Van_der_Waal_Energy-OPLS-2005>
146.293350219727

> <r_mmod_Electrostatic_Energy-OPLS-2005>
-443.659484863281

> <r_mmod_Solvation_Energy-OPLS-2005>
-204.984634399414

> <b_mmod_Minimization_Converged-OPLS-2005>
0

> <r_mmod_RMS_Derivative-OPLS-2005>
5.16054582595825

$$$$
2
                    3D
 Structure written by MMmdl.
168177  0  0  1  0            999 V2000
  -30.6885  -14.4927   20.5425 C   0  0  0  0  0  0
  -30.4226  -12.3099   19.4281 C   0  0  0  0  0  0
  -29.4963  -12.4971   18.2083 C   0  0  0  0  0  0
  -28.0165  -12.3590   18.6200 C   0  0  0  0  0  0
  -27.6582  -13.2058   19.8713 C   0  0  2  0  0  0
  -28.7008  -13.0076   20.9938 C   0  0  0  0  0  0
  -25.2584  -13.8157   20.5685 C   0  0  0  0  0  0
  -24.1834  -13.0434   20.9177 C   0  0  0  0  0  0
  -24.6390  -11.6901   20.8739 C   0  0  0  0  0  0
  -23.9055  -10.4289   21.0406 C   0  0  0  0  0  0
  -24.3607   -9.4205   21.9188 C   0  0  0  0  0  0
  -23.6292   -8.2236   22.0753 C   0  0  0  0  0  0
  -22.4273   -8.0276   21.3544 C   0  0  0  0  0  0
  -21.9905   -9.0251   20.4648 C   0  0  0  0  0  0
  -22.7228  -10.2134   20.3059 C   0  0  0  0  0  0
  -21.6850   -6.0734   22.5281 C   0  0  0  0  0  0
  -21.4011   -6.5637   23.8216 C   0  0  0  0  0  0
  -21.3660   -5.6791   24.9179 C   0  0  0  0  0  0
  -21.6047   -4.3054   24.7226 C   0  0  0  0  0  0
  -21.8821   -3.8146   23.4346 C   0  0  0  0  0  0
  -21.9191   -4.6963   22.3403 C   0  0  0  0  0  0
  -22.7862  -13.5241   21.1844 C   0  0  0  0  0  0
  -22.1661   -4.2150   21.0980 F   0  0  0  0  0  0
  -21.5630   -3.4537   25.7738 F   0  0  0  0  0  0
  -30.0264  -13.3080   20.4335 N   0  0  0  0  0  0
  -26.3014  -12.9322   20.3362 N   0  0  0  0  0  0
  -25.9318  -11.6482   20.5771 N   0  0  0  0  0  0
  -22.0497  -12.8243   22.0405 N   0  0  0  0  0  0
  -25.4317  -15.1875   20.4106 N   0  0  0  0  0  0
  -31.8486  -14.6434   20.1448 O   0  0  0  0  0  0
  -21.6634   -6.8876   21.4243 O   0  0  0  0  0  0
  -22.3550  -14.5549   20.6696 O   0  0  0  0  0  0
  -24.6134  -31.8685   23.2109 C   0  0  0  0  0  0
  -25.9030  -32.4826   23.8404 C   0  0  1  0  0  0
  -27.2350  -27.4325   20.1089 C   0  0  0  0  0  0
  -25.5891  -33.8625   24.2335 N   0  0  0  0  0  0
  -23.4027  -30.4906   21.5502 C   0  0  2  0  0  0
  -24.8532  -28.9553   20.1168 C   0  0  0  0  0  0
  -22.7407  -29.4657   22.4990 C   0  0  0  0  0  0
  -18.0271  -28.1376   22.8494 C   0  0  0  0  0  0
  -24.1486  -36.7320   23.2638 C   0  0  0  0  0  0
  -25.9308  -30.8320   21.3672 C   0  0  0  0  0  0
  -26.0098  -29.4630   20.7231 C   0  0  0  0  0  0
  -27.2044  -28.7057   20.7270 C   0  0  0  0  0  0
  -26.0700  -26.9454   19.4859 C   0  0  0  0  0  0
  -24.8769  -27.6932   19.4969 C   0  0  0  0  0  0
  -23.6138  -29.8213   20.1650 C   0  0  0  0  0  0
  -25.4105  -36.3118   24.0341 C   0  0  1  0  0  0
  -20.5860  -28.3664   23.1319 C   0  0  2  0  0  0
  -20.6763  -26.9400   22.5419 C   0  0  0  0  0  0
  -19.5744  -26.6385   21.5214 C   0  0  0  0  0  0
  -18.1921  -26.7924   22.1625 C   0  0  0  0  0  0
  -19.1519  -28.8837   23.2904 C   0  0  0  0  0  0
  -18.9449  -30.1443   23.8913 C   0  0  0  0  0  0
  -17.6452  -30.6584   24.0565 C   0  0  0  0  0  0
  -25.9031  -34.9478   23.5135 C   0  0  0  0  0  0
  -16.5343  -29.9088   23.6323 C   0  0  0  0  0  0
  -16.7260  -28.6503   23.0347 C   0  0  0  0  0  0
  -26.4466  -31.6598   25.0723 C   0  0  0  0  0  0
  -25.3740  -31.3698   26.1478 C   0  0  0  0  0  0
  -27.0296  -30.3042   24.6090 C   0  0  0  0  0  0
  -27.6046  -32.4316   25.7481 C   0  0  0  0  0  0
  -27.5580  -37.1815   24.8464 C   0  0  0  0  0  0
  -21.4137  -29.3032   22.3726 N   0  0  0  0  0  0
  -26.4295  -37.3797   23.9406 N   0  0  0  0  0  0
  -24.6667  -31.0784   22.1012 N   0  0  0  0  0  0
  -23.4178  -28.8204   23.3036 O   0  0  0  0  0  0
  -28.3594  -26.6395   20.0638 O   0  0  0  0  0  0
  -26.5592  -34.8928   22.4697 O   0  0  0  0  0  0
  -23.5326  -32.1438   23.7500 O   0  0  0  0  0  0
  -29.4195  -21.4600   22.0911 C   0  0  0  0  0  0
  -29.1322  -23.1821   19.8978 C   0  0  0  0  0  0
  -29.6918  -22.8401   22.2411 C   0  0  0  0  0  0
  -29.5742  -23.7154   21.1281 C   0  0  0  0  0  0
  -29.0142  -20.9240   20.8492 C   0  0  0  0  0  0
  -28.8447  -21.7967   19.7484 C   0  0  0  0  0  0
  -29.0707  -17.5799   22.0593 C   0  0  0  0  0  0
  -30.2630  -17.9130   19.8435 C   0  0  0  0  0  0
  -29.8229  -16.2199   22.0725 C   0  0  0  0  0  0
  -29.6700  -16.5038   19.6054 C   0  0  0  0  0  0
  -29.7032  -18.6138   21.1003 C   0  0  0  0  0  0
  -30.1209  -23.3485   23.6075 C   0  0  0  0  0  0
  -28.2807  -22.0681   17.4264 C   0  0  0  0  0  0
  -30.0066  -25.1918   21.2031 C   0  0  0  0  0  0
  -28.8897  -26.2574   21.3348 C   0  0  0  0  0  0
  -29.8982  -15.5822   20.7411 N   0  0  0  0  0  0
  -28.7206  -19.5796   20.6926 O   0  0  0  0  0  0
  -28.4250  -21.2272   18.5640 O   0  0  0  0  0  0
  -31.4674  -12.4092   19.1285 H   0  0  0  0  0  0
  -30.3227  -11.3030   19.8371 H   0  0  0  0  0  0
  -29.7391  -11.7658   17.4360 H   0  0  0  0  0  0
  -29.6642  -13.4788   17.7625 H   0  0  0  0  0  0
  -27.8277  -11.3041   18.8216 H   0  0  0  0  0  0
  -27.3672  -12.6281   17.7861 H   0  0  0  0  0  0
  -27.6931  -14.2498   19.5624 H   0  0  0  0  0  0
  -28.6794  -11.9810   21.3623 H   0  0  0  0  0  0
  -28.4675  -13.6363   21.8529 H   0  0  0  0  0  0
  -25.2754   -9.5679   22.4758 H   0  0  0  0  0  0
  -24.0003   -7.4624   22.7470 H   0  0  0  0  0  0
  -21.0834   -8.8767   19.8958 H   0  0  0  0  0  0
  -22.3687  -10.9668   19.6160 H   0  0  0  0  0  0
  -21.2001   -7.6145   23.9720 H   0  0  0  0  0  0
  -21.1483   -6.0519   25.9082 H   0  0  0  0  0  0
  -22.0600   -2.7609   23.2844 H   0  0  0  0  0  0
  -22.4107  -11.9903   22.4793 H   0  0  0  0  0  0
  -21.1119  -13.1282   22.2605 H   0  0  0  0  0  0
  -24.6709  -15.8469   20.5319 H   0  0  0  0  0  0
  -26.2981  -15.6277   20.1281 H   0  0  0  0  0  0
  -26.7102  -32.5550   23.1172 H   0  0  0  0  0  0
  -25.0047  -33.9791   25.0483 H   0  0  0  0  0  0
  -22.6914  -31.3072   21.4101 H   0  0  0  0  0  0
  -23.3743  -35.9659   23.3316 H   0  0  0  0  0  0
  -24.3582  -36.8917   22.2049 H   0  0  0  0  0  0
  -23.7244  -37.6534   23.6641 H   0  0  0  0  0  0
  -26.0409  -31.5934   20.5939 H   0  0  0  0  0  0
  -26.8194  -30.8907   21.9834 H   0  0  0  0  0  0
  -28.0959  -29.1001   21.1941 H   0  0  0  0  0  0
  -26.0853  -25.9775   19.0045 H   0  0  0  0  0  0
  -23.9894  -27.2970   19.0232 H   0  0  0  0  0  0
  -23.7216  -30.5955   19.4047 H   0  0  0  0  0  0
  -22.7388  -29.2398   19.8696 H   0  0  0  0  0  0
  -25.1283  -36.1987   25.0835 H   0  0  0  0  0  0
  -20.9952  -28.3229   24.1440 H   0  0  0  0  0  0
  -20.5671  -26.2270   23.3605 H   0  0  0  0  0  0
  -21.6633  -26.7450   22.1209 H   0  0  0  0  0  0
  -19.6906  -25.6301   21.1233 H   0  0  0  0  0  0
  -19.6684  -27.3204   20.6752 H   0  0  0  0  0  0
  -17.4193  -26.6674   21.4024 H   0  0  0  0  0  0
  -18.0321  -26.0061   22.9016 H   0  0  0  0  0  0
  -19.7926  -30.7252   24.2291 H   0  0  0  0  0  0
  -17.5009  -31.6267   24.5163 H   0  0  0  0  0  0
  -15.5344  -30.2997   23.7640 H   0  0  0  0  0  0
  -15.8659  -28.0830   22.7053 H   0  0  0  0  0  0
  -24.5903  -30.7058   25.7814 H   0  0  0  0  0  0
  -24.8945  -32.2853   26.4954 H   0  0  0  0  0  0
  -25.8100  -30.8844   27.0219 H   0  0  0  0  0  0
  -26.2836  -29.6808   24.1145 H   0  0  0  0  0  0
  -27.4072  -29.7270   25.4541 H   0  0  0  0  0  0
  -27.8670  -30.4364   23.9234 H   0  0  0  0  0  0
  -27.2667  -33.3602   26.2094 H   0  0  0  0  0  0
  -28.3835  -32.6899   25.0296 H   0  0  0  0  0  0
  -28.0738  -31.8421   26.5368 H   0  0  0  0  0  0
  -28.2608  -38.0102   24.7508 H   0  0  0  0  0  0
  -28.1069  -36.2638   24.6297 H   0  0  0  0  0  0
  -27.2303  -37.1470   25.8868 H   0  0  0  0  0  0
  -20.9295  -29.8749   21.6945 H   0  0  0  0  0  0
  -26.0190  -38.2880   24.1401 H   0  0  0  0  0  0
  -29.5134  -20.8022   22.9439 H   0  0  0  0  0  0
  -29.0405  -23.8639   19.0654 H   0  0  0  0  0  0
  -29.0179  -17.9973   23.0653 H   0  0  0  0  0  0
  -28.0372  -17.3964   21.7617 H   0  0  0  0  0  0
  -30.1124  -18.5410   18.9640 H   0  0  0  0  0  0
  -31.3441  -17.8135   19.9486 H   0  0  0  0  0  0
  -29.3351  -15.5425   22.7738 H   0  0  0  0  0  0
  -30.8358  -16.3730   22.4507 H   0  0  0  0  0  0
  -30.0788  -16.0953   18.6782 H   0  0  0  0  0  0
  -28.5956  -16.5821   19.4372 H   0  0  0  0  0  0
  -30.5416  -19.0956   21.6063 H   0  0  0  0  0  0
  -29.9520  -22.6004   24.3829 H   0  0  0  0  0  0
  -29.5554  -24.2382   23.8860 H   0  0  0  0  0  0
  -31.1828  -23.5955   23.6095 H   0  0  0  0  0  0
  -27.9718  -21.4682   16.5705 H   0  0  0  0  0  0
  -29.2219  -22.5524   17.1618 H   0  0  0  0  0  0
  -27.5163  -22.8295   17.5872 H   0  0  0  0  0  0
  -30.6088  -25.4200   20.3232 H   0  0  0  0  0  0
  -30.6980  -25.3198   22.0347 H   0  0  0  0  0  0
  -29.3219  -27.1476   21.7933 H   0  0  0  0  0  0
  -28.1055  -25.9054   22.0074 H   0  0  0  0  0  0
  1 25  1  0  0  0
  1 30  2  0  0  0
  1 86  1  0  0  0
  2  3  1  0  0  0
  2 25  1  0  0  0
  2 89  1  0  0  0
  2 90  1  0  0  0
  3  4  1  0  0  0
  3 91  1  0  0  0
  3 92  1  0  0  0
  4  5  1  0  0  0
  4 93  1  0  0  0
  4 94  1  0  0  0
  5  6  1  0  0  0
  5 26  1  0  0  0
  5 95  1  0  0  0
  6 25  1  0  0  0
  6 96  1  0  0  0
  6 97  1  0  0  0
  7  8  2  0  0  0
  7 26  1  0  0  0
  7 29  1  0  0  0
  8  9  1  0  0  0
  8 22  1  0  0  0
  9 10  1  0  0  0
  9 27  2  0  0  0
 10 11  2  0  0  0
 10 15  1  0  0  0
 11 12  1  0  0  0
 11 98  1  0  0  0
 12 13  2  0  0  0
 12 99  1  0  0  0
 13 14  1  0  0  0
 13 31  1  0  0  0
 14 15  2  0  0  0
 14100  1  0  0  0
 15101  1  0  0  0
 16 17  2  0  0  0
 16 21  1  0  0  0
 16 31  1  0  0  0
 17 18  1  0  0  0
 17102  1  0  0  0
 18 19  2  0  0  0
 18103  1  0  0  0
 19 20  1  0  0  0
 19 24  1  0  0  0
 20 21  2  0  0  0
 20104  1  0  0  0
 21 23  1  0  0  0
 22 28  1  0  0  0
 22 32  2  0  0  0
 26 27  1  0  0  0
 28105  1  0  0  0
 28106  1  0  0  0
 29107  1  0  0  0
 29108  1  0  0  0
 33 34  1  0  0  0
 33 66  1  0  0  0
 33 70  2  0  0  0
 34 36  1  0  0  0
 34 59  1  0  0  0
 34109  1  0  0  0
 35 44  2  0  0  0
 35 45  1  0  0  0
 35 68  1  0  0  0
 36 56  1  0  0  0
 36110  1  0  0  0
 37 39  1  0  0  0
 37 47  1  0  0  0
 37 66  1  0  0  0
 37111  1  0  0  0
 38 43  2  0  0  0
 38 46  1  0  0  0
 38 47  1  0  0  0
 39 64  1  0  0  0
 39 67  2  0  0  0
 40 52  1  0  0  0
 40 53  2  0  0  0
 40 58  1  0  0  0
 41112  1  0  0  0
 41113  1  0  0  0
 41114  1  0  0  0
 41 48  1  0  0  0
 42 43  1  0  0  0
 42 66  1  0  0  0
 42115  1  0  0  0
 42116  1  0  0  0
 43 44  1  0  0  0
 44117  1  0  0  0
 45 46  2  0  0  0
 45118  1  0  0  0
 46119  1  0  0  0
 47120  1  0  0  0
 47121  1  0  0  0
 48 56  1  0  0  0
 48 65  1  0  0  0
 48122  1  0  0  0
 49 50  1  0  0  0
 49 53  1  0  0  0
 49 64  1  0  0  0
 49123  1  0  0  0
 50 51  1  0  0  0
 50124  1  0  0  0
 50125  1  0  0  0
 51 52  1  0  0  0
 51126  1  0  0  0
 51127  1  0  0  0
 52128  1  0  0  0
 52129  1  0  0  0
 53 54  1  0  0  0
 54 55  2  0  0  0
 54130  1  0  0  0
 55 57  1  0  0  0
 55131  1  0  0  0
 56 69  2  0  0  0
 57 58  2  0  0  0
 57132  1  0  0  0
 58133  1  0  0  0
 59 60  1  0  0  0
 59 61  1  0  0  0
 59 62  1  0  0  0
 60134  1  0  0  0
 60135  1  0  0  0
 60136  1  0  0  0
 61137  1  0  0  0
 61138  1  0  0  0
 61139  1  0  0  0
 62140  1  0  0  0
 62141  1  0  0  0
 62142  1  0  0  0
 63 65  1  0  0  0
 63143  1  0  0  0
 63144  1  0  0  0
 63145  1  0  0  0
 64146  1  0  0  0
 65147  1  0  0  0
 68 85  1  0  0  0
 71 73  2  0  0  0
 71 75  1  0  0  0
 71148  1  0  0  0
 72 74  2  0  0  0
 72 76  1  0  0  0
 72149  1  0  0  0
 73 74  1  0  0  0
 73 82  1  0  0  0
 74 84  1  0  0  0
 75 76  2  0  0  0
 75 87  1  0  0  0
 76 88  1  0  0  0
 77 79  1  0  0  0
 77 81  1  0  0  0
 77150  1  0  0  0
 77151  1  0  0  0
 78 80  1  0  0  0
 78 81  1  0  0  0
 78152  1  0  0  0
 78153  1  0  0  0
 79 86  1  0  0  0
 79154  1  0  0  0
 79155  1  0  0  0
 80 86  1  0  0  0
 80156  1  0  0  0
 80157  1  0  0  0
 81 87  1  0  0  0
 81158  1  0  0  0
 82159  1  0  0  0
 82160  1  0  0  0
 82161  1  0  0  0
 83 88  1  0  0  0
 83162  1  0  0  0
 83163  1  0  0  0
 83164  1  0  0  0
 84 85  1  0  0  0
 84165  1  0  0  0
 84166  1  0  0  0
 85167  1  0  0  0
 85168  1  0  0  0
M  ISO  4   1 100  68 101  85 101  86 100
M  END
> <chiral flag>
0

> <version>
0

> <s_m_source_file>
/data/baiqing/PycharmProjects/Reinvent-master-3.2/result/LINK_invent/BTK/process_docking_weight1_custom_sum_contain_oxygen_bond_distance_aromatic_linkinvent_7_9_3/rearranged_h_0160.sdf

> <i_m_source_file_index>
3

> <r_mmod_Potential_Energy-OPLS-2005>
229.566024780273

> <r_mmod_Stretch_Energy-OPLS-2005>
42.891487121582

> <r_mmod_Bend_Energy-OPLS-2005>
106.192855834961

> <r_mmod_Torsional_Energy-OPLS-2005>
384.361785888672

> <r_mmod_Improper_Torsional_Energy-OPLS-2005>
12.6196041107178

> <r_mmod_Van_der_Waal_Energy-OPLS-2005>
155.342636108398

> <r_mmod_Electrostatic_Energy-OPLS-2005>
-283.819244384766

> <r_mmod_Solvation_Energy-OPLS-2005>
-203.565368652344

> <b_mmod_Minimization_Converged-OPLS-2005>
0

> <r_mmod_RMS_Derivative-OPLS-2005>
0.720521569252014

$$$$
3
                    3D
 Structure written by MMmdl.
182192  0  0  1  0            999 V2000
  -30.7736  -14.3487   20.7019 C   0  0  0  0  0  0
  -30.4155  -12.2933   19.3818 C   0  0  0  0  0  0
  -29.4775  -12.5303   18.1846 C   0  0  0  0  0  0
  -28.0033  -12.3770   18.6043 C   0  0  0  0  0  0
  -27.6633  -13.1963   19.8754 C   0  0  2  0  0  0
  -28.7018  -12.9305   20.9864 C   0  0  0  0  0  0
  -25.2604  -13.8152   20.5670 C   0  0  0  0  0  0
  -24.1838  -13.0436   20.9160 C   0  0  0  0  0  0
  -24.6382  -11.6900   20.8727 C   0  0  0  0  0  0
  -23.9042  -10.4291   21.0405 C   0  0  0  0  0  0
  -24.3597   -9.4212   21.9187 C   0  0  0  0  0  0
  -23.6282   -8.2244   22.0756 C   0  0  0  0  0  0
  -22.4271   -8.0278   21.3541 C   0  0  0  0  0  0
  -21.9899   -9.0242   20.4637 C   0  0  0  0  0  0
  -22.7219  -10.2129   20.3047 C   0  0  0  0  0  0
  -21.6848   -6.0735   22.5279 C   0  0  0  0  0  0
  -21.4004   -6.5633   23.8211 C   0  0  0  0  0  0
  -21.3656   -5.6791   24.9174 C   0  0  0  0  0  0
  -21.6042   -4.3056   24.7226 C   0  0  0  0  0  0
  -21.8820   -3.8151   23.4346 C   0  0  0  0  0  0
  -21.9191   -4.6965   22.3401 C   0  0  0  0  0  0
  -22.7865  -13.5251   21.1827 C   0  0  0  0  0  0
  -22.1663   -4.2152   21.0980 F   0  0  0  0  0  0
  -21.5631   -3.4542   25.7739 F   0  0  0  0  0  0
  -30.0448  -13.2289   20.4526 N   0  0  0  0  0  0
  -26.3025  -12.9296   20.3360 N   0  0  0  0  0  0
  -25.9300  -11.6463   20.5743 N   0  0  0  0  0  0
  -22.0490  -12.8242   22.0383 N   0  0  0  0  0  0
  -25.4342  -15.1864   20.4084 N   0  0  0  0  0  0
  -31.7991  -14.6443   20.0778 O   0  0  0  0  0  0
  -21.6634   -6.8880   21.4244 O   0  0  0  0  0  0
  -22.3563  -14.5569   20.6699 O   0  0  0  0  0  0
  -24.6097  -31.8714   23.2141 C   0  0  0  0  0  0
  -25.9016  -32.4837   23.8416 C   0  0  1  0  0  0
  -27.2489  -27.4863   20.0900 C   0  0  0  0  0  0
  -25.5899  -33.8635   24.2359 N   0  0  0  0  0  0
  -23.3948  -30.4942   21.5532 C   0  0  2  0  0  0
  -24.8431  -28.9644   20.1182 C   0  0  0  0  0  0
  -22.7371  -29.4681   22.5020 C   0  0  0  0  0  0
  -18.0270  -28.1376   22.8494 C   0  0  0  0  0  0
  -24.1482  -36.7296   23.2649 C   0  0  0  0  0  0
  -25.9155  -30.8549   21.3580 C   0  0  0  0  0  0
  -25.9965  -29.4902   20.7118 C   0  0  0  0  0  0
  -27.2021  -28.7622   20.6974 C   0  0  0  0  0  0
  -26.0818  -26.9702   19.4925 C   0  0  0  0  0  0
  -24.8769  -27.6977   19.5086 C   0  0  0  0  0  0
  -23.6002  -29.8227   20.1680 C   0  0  0  0  0  0
  -25.4105  -36.3119   24.0353 C   0  0  1  0  0  0
  -20.5851  -28.3652   23.1334 C   0  0  2  0  0  0
  -20.6767  -26.9394   22.5428 C   0  0  0  0  0  0
  -19.5752  -26.6391   21.5217 C   0  0  0  0  0  0
  -18.1922  -26.7937   22.1603 C   0  0  0  0  0  0
  -19.1518  -28.8830   23.2919 C   0  0  0  0  0  0
  -18.9458  -30.1441   23.8927 C   0  0  0  0  0  0
  -17.6465  -30.6591   24.0571 C   0  0  0  0  0  0
  -25.9032  -34.9485   23.5150 C   0  0  0  0  0  0
  -16.5348  -29.9101   23.6333 C   0  0  0  0  0  0
  -16.7262  -28.6510   23.0359 C   0  0  0  0  0  0
  -26.4475  -31.6582   25.0711 C   0  0  0  0  0  0
  -25.3757  -31.3614   26.1441 C   0  0  0  0  0  0
  -27.0337  -30.3060   24.6018 C   0  0  0  0  0  0
  -27.6044  -32.4289   25.7495 C   0  0  0  0  0  0
  -27.5578  -37.1808   24.8481 C   0  0  0  0  0  0
  -21.4109  -29.3024   22.3750 N   0  0  0  0  0  0
  -26.4293  -37.3800   23.9421 N   0  0  0  0  0  0
  -24.6579  -31.0859   22.1015 N   0  0  0  0  0  0
  -23.4163  -28.8232   23.3054 O   0  0  0  0  0  0
  -28.3818  -26.7118   20.0165 O   0  0  0  0  0  0
  -26.5586  -34.8930   22.4708 O   0  0  0  0  0  0
  -23.5312  -32.1448   23.7582 O   0  0  0  0  0  0
  -30.3373  -22.8449   22.6546 C   0  0  0  0  0  0
  -29.3100  -23.6244   23.2526 C   0  0  0  0  0  0
  -31.0575  -23.3748   21.5498 C   0  0  0  0  0  0
  -28.9570  -24.8867   22.7097 C   0  0  0  0  0  0
  -30.6976  -24.6318   20.9959 C   0  0  0  0  0  0
  -29.6744  -25.4067   21.6009 C   0  0  0  0  0  0
  -32.0211  -16.5669   22.9204 C   0  0  0  0  0  0
  -30.0504  -17.4825   21.6559 C   0  0  0  0  0  0
  -29.5934  -20.4181   23.2722 C   0  0  0  0  0  0
  -31.3221  -15.1938   22.9400 C   0  0  0  0  0  0
  -29.3923  -16.0904   21.7324 C   0  0  0  0  0  0
  -30.6746  -21.4794   23.2167 C   0  0  1  0  0  0
  -31.0076  -17.7401   22.8527 C   0  0  0  0  0  0
  -30.7811  -20.2085   22.3619 C   0  0  1  0  0  0
  -28.5873  -23.1211   24.5033 C   0  0  0  0  0  0
  -32.2439  -22.6066   20.9691 C   0  0  0  0  0  0
  -27.7997  -25.6856   23.3152 C   0  0  0  0  0  0
  -31.4041  -25.1493   19.7410 C   0  0  0  0  0  0
  -32.5369  -19.3811   23.9726 C   0  0  0  0  0  0
  -29.3435  -26.8007   21.0638 C   0  0  0  0  0  0
  -30.4081  -15.0352   21.8053 N   0  0  0  0  0  0
  -31.6771  -19.0831   22.7957 N   0  3  1  0  0  0
  -31.4569  -12.4024   19.0738 H   0  0  0  0  0  0
  -30.3220  -11.2675   19.7411 H   0  0  0  0  0  0
  -29.7106  -11.8322   17.3797 H   0  0  0  0  0  0
  -29.6405  -13.5307   17.7795 H   0  0  0  0  0  0
  -27.8120  -11.3180   18.7821 H   0  0  0  0  0  0
  -27.3473  -12.6697   17.7830 H   0  0  0  0  0  0
  -27.7203  -14.2488   19.6004 H   0  0  0  0  0  0
  -28.6642  -11.8837   21.2910 H   0  0  0  0  0  0
  -28.4484  -13.4954   21.8831 H   0  0  0  0  0  0
  -25.2744   -9.5692   22.4757 H   0  0  0  0  0  0
  -23.9991   -7.4640   22.7476 H   0  0  0  0  0  0
  -21.0838   -8.8747   19.8936 H   0  0  0  0  0  0
  -22.3679  -10.9659   19.6145 H   0  0  0  0  0  0
  -21.1988   -7.6136   23.9712 H   0  0  0  0  0  0
  -21.1473   -6.0522   25.9075 H   0  0  0  0  0  0
  -22.0601   -2.7615   23.2847 H   0  0  0  0  0  0
  -22.4071  -11.9879   22.4750 H   0  0  0  0  0  0
  -21.1118  -13.1291   22.2603 H   0  0  0  0  0  0
  -24.6690  -15.8433   20.5156 H   0  0  0  0  0  0
  -26.2917  -15.6244   20.0972 H   0  0  0  0  0  0
  -26.7088  -32.5589   23.1198 H   0  0  0  0  0  0
  -25.0096  -33.9813   25.0534 H   0  0  0  0  0  0
  -22.6827  -31.3102   21.4145 H   0  0  0  0  0  0
  -23.3762  -35.9615   23.3330 H   0  0  0  0  0  0
  -24.3575  -36.8885   22.2061 H   0  0  0  0  0  0
  -23.7203  -37.6495   23.6640 H   0  0  0  0  0  0
  -26.0152  -31.6208   20.5876 H   0  0  0  0  0  0
  -26.8075  -30.9153   21.9693 H   0  0  0  0  0  0
  -28.0866  -29.2025   21.1340 H   0  0  0  0  0  0
  -26.1089  -25.9999   19.0184 H   0  0  0  0  0  0
  -23.9908  -27.2832   19.0471 H   0  0  0  0  0  0
  -23.7021  -30.5972   19.4073 H   0  0  0  0  0  0
  -22.7264  -29.2378   19.8746 H   0  0  0  0  0  0
  -25.1286  -36.1997   25.0849 H   0  0  0  0  0  0
  -20.9943  -28.3213   24.1450 H   0  0  0  0  0  0
  -20.5678  -26.2256   23.3610 H   0  0  0  0  0  0
  -21.6642  -26.7449   22.1212 H   0  0  0  0  0  0
  -19.6922  -25.6303   21.1250 H   0  0  0  0  0  0
  -19.6726  -27.3216   20.6762 H   0  0  0  0  0  0
  -17.4207  -26.6715   21.3986 H   0  0  0  0  0  0
  -18.0300  -26.0060   22.8973 H   0  0  0  0  0  0
  -19.7937  -30.7253   24.2298 H   0  0  0  0  0  0
  -17.5024  -31.6279   24.5150 H   0  0  0  0  0  0
  -15.5351  -30.3020   23.7642 H   0  0  0  0  0  0
  -15.8657  -28.0848   22.7061 H   0  0  0  0  0  0
  -24.6020  -30.6859   25.7758 H   0  0  0  0  0  0
  -24.8841  -32.2731   26.4853 H   0  0  0  0  0  0
  -25.8150  -30.8835   27.0213 H   0  0  0  0  0  0
  -26.2874  -29.6782   24.1133 H   0  0  0  0  0  0
  -27.4232  -29.7299   25.4425 H   0  0  0  0  0  0
  -27.8636  -30.4431   23.9081 H   0  0  0  0  0  0
  -27.2662  -33.3569   26.2119 H   0  0  0  0  0  0
  -28.3860  -32.6869   25.0335 H   0  0  0  0  0  0
  -28.0710  -31.8377   26.5393 H   0  0  0  0  0  0
  -28.2600  -38.0101   24.7529 H   0  0  0  0  0  0
  -28.1070  -36.2631   24.6319 H   0  0  0  0  0  0
  -27.2294  -37.1461   25.8884 H   0  0  0  0  0  0
  -20.9269  -29.8713   21.6950 H   0  0  0  0  0  0
  -26.0191  -38.2880   24.1439 H   0  0  0  0  0  0
  -32.7039  -16.6122   22.0706 H   0  0  0  0  0  0
  -32.6394  -16.6220   23.8155 H   0  0  0  0  0  0
  -29.2521  -18.2232   21.6179 H   0  0  0  0  0  0
  -30.5979  -17.5727   20.7162 H   0  0  0  0  0  0
  -28.6442  -20.6293   22.7842 H   0  0  0  0  0  0
  -29.5182  -19.8421   24.1918 H   0  0  0  0  0  0
  -30.7522  -15.0750   23.8626 H   0  0  0  0  0  0
  -32.0695  -14.3973   22.9477 H   0  0  0  0  0  0
  -28.7421  -15.9509   20.8666 H   0  0  0  0  0  0
  -28.7448  -16.0241   22.6083 H   0  0  0  0  0  0
  -31.2664  -21.6102   24.1192 H   0  0  0  0  0  0
  -30.4090  -17.7108   23.7650 H   0  0  0  0  0  0
  -30.6075  -20.2509   21.2883 H   0  0  0  0  0  0
  -29.1480  -22.3714   25.0585 H   0  0  0  0  0  0
  -27.6212  -22.6930   24.2317 H   0  0  0  0  0  0
  -28.4201  -23.9297   25.2146 H   0  0  0  0  0  0
  -32.7325  -21.9754   21.7090 H   0  0  0  0  0  0
  -33.0258  -23.2756   20.6123 H   0  0  0  0  0  0
  -31.9245  -21.9815   20.1345 H   0  0  0  0  0  0
  -27.0638  -25.0614   23.8185 H   0  0  0  0  0  0
  -27.2329  -26.2163   22.5521 H   0  0  0  0  0  0
  -28.1754  -26.4164   24.0320 H   0  0  0  0  0  0
  -31.7607  -24.3422   19.1015 H   0  0  0  0  0  0
  -32.2536  -25.7777   20.0108 H   0  0  0  0  0  0
  -30.7374  -25.7332   19.1073 H   0  0  0  0  0  0
  -33.3150  -18.6356   24.1175 H   0  0  0  0  0  0
  -31.9544  -19.4348   24.8924 H   0  0  0  0  0  0
  -33.0690  -20.3229   23.8405 H   0  0  0  0  0  0
  -30.2364  -27.2950   20.6794 H   0  0  0  0  0  0
  -29.0416  -27.4291   21.8996 H   0  0  0  0  0  0
  -32.3390  -19.0048   22.0375 H   0  0  0  0  0  0
  1 25  1  0  0  0
  1 30  2  0  0  0
  1 91  1  0  0  0
  2  3  1  0  0  0
  2 25  1  0  0  0
  2 93  1  0  0  0
  2 94  1  0  0  0
  3  4  1  0  0  0
  3 95  1  0  0  0
  3 96  1  0  0  0
  4  5  1  0  0  0
  4 97  1  0  0  0
  4 98  1  0  0  0
  5  6  1  0  0  0
  5 26  1  0  0  0
  5 99  1  0  0  0
  6 25  1  0  0  0
  6100  1  0  0  0
  6101  1  0  0  0
  7  8  2  0  0  0
  7 26  1  0  0  0
  7 29  1  0  0  0
  8  9  1  0  0  0
  8 22  1  0  0  0
  9 10  1  0  0  0
  9 27  2  0  0  0
 10 11  2  0  0  0
 10 15  1  0  0  0
 11 12  1  0  0  0
 11102  1  0  0  0
 12 13  2  0  0  0
 12103  1  0  0  0
 13 14  1  0  0  0
 13 31  1  0  0  0
 14 15  2  0  0  0
 14104  1  0  0  0
 15105  1  0  0  0
 16 17  2  0  0  0
 16 21  1  0  0  0
 16 31  1  0  0  0
 17 18  1  0  0  0
 17106  1  0  0  0
 18 19  2  0  0  0
 18107  1  0  0  0
 19 20  1  0  0  0
 19 24  1  0  0  0
 20 21  2  0  0  0
 20108  1  0  0  0
 21 23  1  0  0  0
 22 28  1  0  0  0
 22 32  2  0  0  0
 26 27  1  0  0  0
 28109  1  0  0  0
 28110  1  0  0  0
 29111  1  0  0  0
 29112  1  0  0  0
 33 34  1  0  0  0
 33 66  1  0  0  0
 33 70  2  0  0  0
 34 36  1  0  0  0
 34 59  1  0  0  0
 34113  1  0  0  0
 35 44  2  0  0  0
 35 45  1  0  0  0
 35 68  1  0  0  0
 36 56  1  0  0  0
 36114  1  0  0  0
 37 39  1  0  0  0
 37 47  1  0  0  0
 37 66  1  0  0  0
 37115  1  0  0  0
 38 43  2  0  0  0
 38 46  1  0  0  0
 38 47  1  0  0  0
 39 64  1  0  0  0
 39 67  2  0  0  0
 40 52  1  0  0  0
 40 53  2  0  0  0
 40 58  1  0  0  0
 41116  1  0  0  0
 41117  1  0  0  0
 41118  1  0  0  0
 41 48  1  0  0  0
 42 43  1  0  0  0
 42 66  1  0  0  0
 42119  1  0  0  0
 42120  1  0  0  0
 43 44  1  0  0  0
 44121  1  0  0  0
 45 46  2  0  0  0
 45122  1  0  0  0
 46123  1  0  0  0
 47124  1  0  0  0
 47125  1  0  0  0
 48 56  1  0  0  0
 48 65  1  0  0  0
 48126  1  0  0  0
 49 50  1  0  0  0
 49 53  1  0  0  0
 49 64  1  0  0  0
 49127  1  0  0  0
 50 51  1  0  0  0
 50128  1  0  0  0
 50129  1  0  0  0
 51 52  1  0  0  0
 51130  1  0  0  0
 51131  1  0  0  0
 52132  1  0  0  0
 52133  1  0  0  0
 53 54  1  0  0  0
 54 55  2  0  0  0
 54134  1  0  0  0
 55 57  1  0  0  0
 55135  1  0  0  0
 56 69  2  0  0  0
 57 58  2  0  0  0
 57136  1  0  0  0
 58137  1  0  0  0
 59 60  1  0  0  0
 59 61  1  0  0  0
 59 62  1  0  0  0
 60138  1  0  0  0
 60139  1  0  0  0
 60140  1  0  0  0
 61141  1  0  0  0
 61142  1  0  0  0
 61143  1  0  0  0
 62144  1  0  0  0
 62145  1  0  0  0
 62146  1  0  0  0
 63 65  1  0  0  0
 63147  1  0  0  0
 63148  1  0  0  0
 63149  1  0  0  0
 64150  1  0  0  0
 65151  1  0  0  0
 68 90  1  0  0  0
 71 72  2  0  0  0
 71 73  1  0  0  0
 71 82  1  0  0  0
 72 74  1  0  0  0
 72 85  1  0  0  0
 73 75  2  0  0  0
 73 86  1  0  0  0
 74 76  2  0  0  0
 74 87  1  0  0  0
 75 76  1  0  0  0
 75 88  1  0  0  0
 76 90  1  0  0  0
 77 80  1  0  0  0
 77152  1  0  0  0
 77153  1  0  0  0
 77 83  1  0  0  0
 78 81  1  0  0  0
 78 83  1  0  0  0
 78154  1  0  0  0
 78155  1  0  0  0
 79 82  1  0  0  0
 79156  1  0  0  0
 79157  1  0  0  0
 79 84  1  0  0  0
 80 91  1  0  0  0
 80158  1  0  0  0
 80159  1  0  0  0
 81 91  1  0  0  0
 81160  1  0  0  0
 81161  1  0  0  0
 82 84  1  0  0  0
 82162  1  0  0  0
 83 92  1  0  0  0
 83163  1  0  0  0
 84 92  1  0  0  0
 84164  1  0  0  0
 85165  1  0  0  0
 85166  1  0  0  0
 85167  1  0  0  0
 86168  1  0  0  0
 86169  1  0  0  0
 86170  1  0  0  0
 87171  1  0  0  0
 87172  1  0  0  0
 87173  1  0  0  0
 88174  1  0  0  0
 88175  1  0  0  0
 88176  1  0  0  0
 89177  1  0  0  0
 89178  1  0  0  0
 89179  1  0  0  0
 89 92  1  0  0  0
 90180  1  0  0  0
 90181  1  0  0  0
 92182  1  0  0  0
M  CHG  1  92   1
M  ISO  4   1 100  68 101  90 101  91 100
M  END
> <chiral flag>
0

> <version>
0

> <s_m_source_file>
/data/baiqing/PycharmProjects/Reinvent-master-3.2/result/LINK_invent/BTK/process_docking_weight1_custom_sum_contain_oxygen_bond_distance_aromatic_linkinvent_7_9_3/rearranged_h_0160.sdf

> <i_m_source_file_index>
4

> <r_mmod_Potential_Energy-OPLS-2005>
138.749603271484

> <r_mmod_Stretch_Energy-OPLS-2005>
43.3946838378906

> <r_mmod_Bend_Energy-OPLS-2005>
117.548461914062

> <r_mmod_Torsional_Energy-OPLS-2005>
393.955322265625

> <r_mmod_Improper_Torsional_Energy-OPLS-2005>
5.18415641784668

> <r_mmod_Van_der_Waal_Energy-OPLS-2005>
190.653900146484

> <r_mmod_Electrostatic_Energy-OPLS-2005>
-191.608505249023

> <r_mmod_Solvation_Energy-OPLS-2005>
-426.294647216797

> <b_mmod_Minimization_Converged-OPLS-2005>
0

> <r_mmod_RMS_Derivative-OPLS-2005>
1.46723473072052

$$$$
4
                    3D
 Structure written by MMmdl.
171180  0  0  1  0            999 V2000
  -30.6438  -14.7665   20.4456 C   0  0  0  0  0  0
  -30.4304  -12.4740   19.4532 C   0  0  0  0  0  0
  -29.5049  -12.5188   18.2172 C   0  0  0  0  0  0
  -28.0350  -12.3374   18.6391 C   0  0  0  0  0  0
  -27.6421  -13.2417   19.8393 C   0  0  2  0  0  0
  -28.6987  -13.2111   20.9691 C   0  0  0  0  0  0
  -25.2513  -13.8210   20.5717 C   0  0  0  0  0  0
  -24.1804  -13.0436   20.9221 C   0  0  0  0  0  0
  -24.6399  -11.6919   20.8714 C   0  0  0  0  0  0
  -23.9058  -10.4298   21.0365 C   0  0  0  0  0  0
  -24.3599   -9.4212   21.9167 C   0  0  0  0  0  0
  -23.6297   -8.2239   22.0736 C   0  0  0  0  0  0
  -22.4283   -8.0256   21.3527 C   0  0  0  0  0  0
  -21.9915   -9.0227   20.4650 C   0  0  0  0  0  0
  -22.7224  -10.2125   20.3040 C   0  0  0  0  0  0
  -21.6870   -6.0734   22.5283 C   0  0  0  0  0  0
  -21.4035   -6.5637   23.8236 C   0  0  0  0  0  0
  -21.3663   -5.6757   24.9179 C   0  0  0  0  0  0
  -21.6038   -4.3029   24.7203 C   0  0  0  0  0  0
  -21.8825   -3.8139   23.4319 C   0  0  0  0  0  0
  -21.9206   -4.6973   22.3394 C   0  0  0  0  0  0
  -22.7835  -13.5246   21.1870 C   0  0  0  0  0  0
  -22.1681   -4.2154   21.0973 F   0  0  0  0  0  0
  -21.5611   -3.4511   25.7723 F   0  0  0  0  0  0
  -29.9961  -13.5522   20.3722 N   0  0  0  0  0  0
  -26.2960  -12.9442   20.3265 N   0  0  0  0  0  0
  -25.9358  -11.6561   20.5707 N   0  0  0  0  0  0
  -22.0436  -12.8264   22.0416 N   0  0  0  0  0  0
  -25.4134  -15.1938   20.4178 N   0  0  0  0  0  0
  -31.8416  -14.8356   20.1625 O   0  0  0  0  0  0
  -21.6629   -6.8874   21.4251 O   0  0  0  0  0  0
  -22.3544  -14.5552   20.6704 O   0  0  0  0  0  0
  -24.6268  -31.8559   23.1923 C   0  0  0  0  0  0
  -25.9108  -32.4757   23.8283 C   0  0  1  0  0  0
  -27.2276  -27.2460   20.1515 C   0  0  0  0  0  0
  -25.5924  -33.8557   24.2211 N   0  0  0  0  0  0
  -23.4258  -30.4731   21.5373 C   0  0  2  0  0  0
  -24.8785  -28.9092   20.1173 C   0  0  0  0  0  0
  -22.7480  -29.4623   22.4917 C   0  0  0  0  0  0
  -18.0283  -28.1374   22.8454 C   0  0  0  0  0  0
  -24.1502  -36.7268   23.2637 C   0  0  0  0  0  0
  -25.9733  -30.7645   21.3768 C   0  0  0  0  0  0
  -26.0486  -29.3824   20.7240 C   0  0  0  0  0  0
  -27.2247  -28.5645   20.7240 C   0  0  0  0  0  0
  -26.0358  -26.8415   19.5107 C   0  0  0  0  0  0
  -24.8771  -27.6471   19.4998 C   0  0  0  0  0  0
  -23.6452  -29.7908   20.1607 C   0  0  0  0  0  0
  -25.4144  -36.3069   24.0305 C   0  0  1  0  0  0
  -20.5878  -28.3701   23.1248 C   0  0  2  0  0  0
  -20.6784  -26.9426   22.5387 C   0  0  0  0  0  0
  -19.5776  -26.6368   21.5179 C   0  0  0  0  0  0
  -18.1946  -26.7924   22.1573 C   0  0  0  0  0  0
  -19.1536  -28.8859   23.2838 C   0  0  0  0  0  0
  -18.9459  -30.1470   23.8831 C   0  0  0  0  0  0
  -17.6466  -30.6591   24.0522 C   0  0  0  0  0  0
  -25.9077  -34.9445   23.5064 C   0  0  0  0  0  0
  -16.5355  -29.9073   23.6337 C   0  0  0  0  0  0
  -16.7269  -28.6492   23.0350 C   0  0  0  0  0  0
  -26.4465  -31.6600   25.0681 C   0  0  0  0  0  0
  -25.3648  -31.3778   26.1369 C   0  0  0  0  0  0
  -27.0340  -30.3018   24.6206 C   0  0  0  0  0  0
  -27.6038  -32.4334   25.7439 C   0  0  0  0  0  0
  -27.5598  -37.1779   24.8451 C   0  0  0  0  0  0
  -21.4193  -29.3038   22.3640 N   0  0  0  0  0  0
  -26.4322  -37.3764   23.9379 N   0  0  0  0  0  0
  -24.6951  -31.0515   22.0901 N   0  0  0  0  0  0
  -23.4170  -28.8187   23.3046 O   0  0  0  0  0  0
  -28.3531  -26.3844   20.1736 O   0  0  0  0  0  0
  -26.5656  -34.8919   22.4636 O   0  0  0  0  0  0
  -23.5430  -32.1394   23.7206 O   0  0  0  0  0  0
  -28.8783  -20.9841   18.4415 C   0  0  0  0  0  0
  -29.4710  -21.1735   19.6895 C   0  0  0  0  0  0
  -28.6692  -19.6676   17.9735 C   0  0  0  0  0  0
  -29.1303  -18.5209   18.7054 C   0  0  0  0  0  0
  -29.7044  -18.6587   20.0153 C   0  0  0  0  0  0
  -29.7830  -20.0439   20.4946 C   0  0  0  0  0  0
  -30.1137  -22.0201   21.6973 C   0  0  0  0  0  0
  -30.0837  -22.5003   20.2172 C   0  0  2  0  0  0
  -27.9858  -19.5409   16.6209 C   0  0  0  0  0  0
  -29.0685  -17.1471   18.0373 C   0  0  0  0  0  0
  -32.6218  -23.3284   20.5126 C   0  0  0  0  0  0
  -32.2740  -21.2481   19.1947 C   0  0  0  0  0  0
  -30.3347  -17.3919   20.7955 C   0  0  0  0  0  0
  -29.4659  -24.0001   19.8362 C   0  0  0  0  0  0
  -28.2492  -24.8923   20.4299 C   0  0  0  0  0  0
  -31.5827  -22.5677   19.6460 C   0  0  0  0  0  0
  -30.2565  -20.5324   21.7251 N   0  0  0  0  0  0
  -29.8987  -15.9212   20.6429 N   0  0  0  0  0  0
  -31.4711  -12.5866   19.1450 H   0  0  0  0  0  0
  -30.3704  -11.5035   19.9448 H   0  0  0  0  0  0
  -29.7927  -11.7436   17.5045 H   0  0  0  0  0  0
  -29.6287  -13.4714   17.6991 H   0  0  0  0  0  0
  -27.8977  -11.2897   18.9069 H   0  0  0  0  0  0
  -27.3742  -12.5264   17.7923 H   0  0  0  0  0  0
  -27.6228  -14.2579   19.4464 H   0  0  0  0  0  0
  -28.7450  -12.2322   21.4468 H   0  0  0  0  0  0
  -28.4370  -13.9277   21.7476 H   0  0  0  0  0  0
  -25.2725   -9.5745   22.4728 H   0  0  0  0  0  0
  -24.0039   -7.4646   22.7454 H   0  0  0  0  0  0
  -21.0835   -8.8733   19.8958 H   0  0  0  0  0  0
  -22.3646  -10.9646   19.6134 H   0  0  0  0  0  0
  -21.2037   -7.6140   23.9770 H   0  0  0  0  0  0
  -21.1480   -6.0461   25.9094 H   0  0  0  0  0  0
  -22.0602   -2.7603   23.2802 H   0  0  0  0  0  0
  -22.4004  -11.9934   22.4837 H   0  0  0  0  0  0
  -21.1067  -13.1353   22.2574 H   0  0  0  0  0  0
  -24.6292  -15.8284   20.5302 H   0  0  0  0  0  0
  -26.2459  -15.6518   20.0703 H   0  0  0  0  0  0
  -26.7168  -32.5407   23.1023 H   0  0  0  0  0  0
  -25.0066  -33.9715   25.0349 H   0  0  0  0  0  0
  -22.7213  -31.2931   21.3797 H   0  0  0  0  0  0
  -23.3799  -35.9565   23.3276 H   0  0  0  0  0  0
  -24.3580  -36.8924   22.2056 H   0  0  0  0  0  0
  -23.7226  -37.6436   23.6695 H   0  0  0  0  0  0
  -26.1212  -31.5266   20.6098 H   0  0  0  0  0  0
  -26.8450  -30.8093   22.0187 H   0  0  0  0  0  0
  -28.1239  -28.9269   21.2025 H   0  0  0  0  0  0
  -25.9862  -25.8864   19.0102 H   0  0  0  0  0  0
  -23.9798  -27.2804   19.0208 H   0  0  0  0  0  0
  -23.7545  -30.5505   19.3866 H   0  0  0  0  0  0
  -22.7686  -29.2078   19.8720 H   0  0  0  0  0  0
  -25.1346  -36.1906   25.0802 H   0  0  0  0  0  0
  -20.9960  -28.3280   24.1367 H   0  0  0  0  0  0
  -20.5676  -26.2317   23.3583 H   0  0  0  0  0  0
  -21.6663  -26.7465   22.1189 H   0  0  0  0  0  0
  -19.6960  -25.6263   21.1249 H   0  0  0  0  0  0
  -19.6737  -27.3129   20.6666 H   0  0  0  0  0  0
  -17.4234  -26.6652   21.3958 H   0  0  0  0  0  0
  -18.0363  -26.0062   22.8965 H   0  0  0  0  0  0
  -19.7951  -30.7298   24.2150 H   0  0  0  0  0  0
  -17.5031  -31.6272   24.5121 H   0  0  0  0  0  0
  -15.5354  -30.2952   23.7716 H   0  0  0  0  0  0
  -15.8665  -28.0798   22.7090 H   0  0  0  0  0  0
  -24.5787  -30.7202   25.7627 H   0  0  0  0  0  0
  -24.8871  -32.2971   26.4771 H   0  0  0  0  0  0
  -25.7876  -30.8900   27.0157 H   0  0  0  0  0  0
  -26.2948  -29.6733   24.1219 H   0  0  0  0  0  0
  -27.4016  -29.7319   25.4750 H   0  0  0  0  0  0
  -27.8820  -30.4301   23.9471 H   0  0  0  0  0  0
  -27.2679  -33.3659   26.1983 H   0  0  0  0  0  0
  -28.3840  -32.6848   25.0242 H   0  0  0  0  0  0
  -28.0705  -31.8466   26.5358 H   0  0  0  0  0  0
  -28.2610  -38.0085   24.7550 H   0  0  0  0  0  0
  -28.1109  -36.2622   24.6246 H   0  0  0  0  0  0
  -27.2300  -37.1372   25.8846 H   0  0  0  0  0  0
  -20.9398  -29.8705   21.6782 H   0  0  0  0  0  0
  -26.0208  -38.2846   24.1343 H   0  0  0  0  0  0
  -28.6488  -21.8418   17.8269 H   0  0  0  0  0  0
  -29.1560  -22.2583   22.1619 H   0  0  0  0  0  0
  -30.8710  -22.5219   22.2975 H   0  0  0  0  0  0
  -27.6832  -20.5158   16.2366 H   0  0  0  0  0  0
  -27.0807  -18.9359   16.7026 H   0  0  0  0  0  0
  -28.6545  -19.1029   15.8803 H   0  0  0  0  0  0
  -30.0663  -16.7096   17.9951 H   0  0  0  0  0  0
  -28.7028  -17.1645   17.0132 H   0  0  0  0  0  0
  -28.4152  -16.4668   18.5799 H   0  0  0  0  0  0
  -32.3150  -24.3267   20.8188 H   0  0  0  0  0  0
  -33.5484  -23.4541   19.9495 H   0  0  0  0  0  0
  -32.8882  -22.7703   21.4111 H   0  0  0  0  0  0
  -31.6867  -20.6674   18.4832 H   0  0  0  0  0  0
  -32.5046  -20.6032   20.0429 H   0  0  0  0  0  0
  -33.2227  -21.4474   18.6949 H   0  0  0  0  0  0
  -30.2404  -17.6127   21.8585 H   0  0  0  0  0  0
  -31.4081  -17.4355   20.6048 H   0  0  0  0  0  0
  -29.3710  -24.0395   18.7507 H   0  0  0  0  0  0
  -30.2936  -24.6822   20.0272 H   0  0  0  0  0  0
  -28.2080  -24.7654   21.5141 H   0  0  0  0  0  0
  -27.3002  -24.4807   20.0751 H   0  0  0  0  0  0
  -31.5121  -23.1215   18.7075 H   0  0  0  0  0  0
  -31.1566  -20.1717   22.0279 H   0  0  0  0  0  0
  -28.9129  -15.7590   20.7787 H   0  0  0  0  0  0
  1 25  1  0  0  0
  1 30  2  0  0  0
  1 88  1  0  0  0
  2  3  1  0  0  0
  2 25  1  0  0  0
  2 89  1  0  0  0
  2 90  1  0  0  0
  3  4  1  0  0  0
  3 91  1  0  0  0
  3 92  1  0  0  0
  4  5  1  0  0  0
  4 93  1  0  0  0
  4 94  1  0  0  0
  5  6  1  0  0  0
  5 26  1  0  0  0
  5 95  1  0  0  0
  6 25  1  0  0  0
  6 96  1  0  0  0
  6 97  1  0  0  0
  7  8  2  0  0  0
  7 26  1  0  0  0
  7 29  1  0  0  0
  8  9  1  0  0  0
  8 22  1  0  0  0
  9 10  1  0  0  0
  9 27  2  0  0  0
 10 11  2  0  0  0
 10 15  1  0  0  0
 11 12  1  0  0  0
 11 98  1  0  0  0
 12 13  2  0  0  0
 12 99  1  0  0  0
 13 14  1  0  0  0
 13 31  1  0  0  0
 14 15  2  0  0  0
 14100  1  0  0  0
 15101  1  0  0  0
 16 17  2  0  0  0
 16 21  1  0  0  0
 16 31  1  0  0  0
 17 18  1  0  0  0
 17102  1  0  0  0
 18 19  2  0  0  0
 18103  1  0  0  0
 19 20  1  0  0  0
 19 24  1  0  0  0
 20 21  2  0  0  0
 20104  1  0  0  0
 21 23  1  0  0  0
 22 28  1  0  0  0
 22 32  2  0  0  0
 26 27  1  0  0  0
 28105  1  0  0  0
 28106  1  0  0  0
 29107  1  0  0  0
 29108  1  0  0  0
 33 34  1  0  0  0
 33 66  1  0  0  0
 33 70  2  0  0  0
 34 36  1  0  0  0
 34 59  1  0  0  0
 34109  1  0  0  0
 35 44  2  0  0  0
 35 45  1  0  0  0
 35 68  1  0  0  0
 36 56  1  0  0  0
 36110  1  0  0  0
 37 39  1  0  0  0
 37 47  1  0  0  0
 37 66  1  0  0  0
 37111  1  0  0  0
 38 43  2  0  0  0
 38 46  1  0  0  0
 38 47  1  0  0  0
 39 64  1  0  0  0
 39 67  2  0  0  0
 40 52  1  0  0  0
 40 53  2  0  0  0
 40 58  1  0  0  0
 41112  1  0  0  0
 41113  1  0  0  0
 41114  1  0  0  0
 41 48  1  0  0  0
 42 43  1  0  0  0
 42 66  1  0  0  0
 42115  1  0  0  0
 42116  1  0  0  0
 43 44  1  0  0  0
 44117  1  0  0  0
 45 46  2  0  0  0
 45118  1  0  0  0
 46119  1  0  0  0
 47120  1  0  0  0
 47121  1  0  0  0
 48 56  1  0  0  0
 48 65  1  0  0  0
 48122  1  0  0  0
 49 50  1  0  0  0
 49 53  1  0  0  0
 49 64  1  0  0  0
 49123  1  0  0  0
 50 51  1  0  0  0
 50124  1  0  0  0
 50125  1  0  0  0
 51 52  1  0  0  0
 51126  1  0  0  0
 51127  1  0  0  0
 52128  1  0  0  0
 52129  1  0  0  0
 53 54  1  0  0  0
 54 55  2  0  0  0
 54130  1  0  0  0
 55 57  1  0  0  0
 55131  1  0  0  0
 56 69  2  0  0  0
 57 58  2  0  0  0
 57132  1  0  0  0
 58133  1  0  0  0
 59 60  1  0  0  0
 59 61  1  0  0  0
 59 62  1  0  0  0
 60134  1  0  0  0
 60135  1  0  0  0
 60136  1  0  0  0
 61137  1  0  0  0
 61138  1  0  0  0
 61139  1  0  0  0
 62140  1  0  0  0
 62141  1  0  0  0
 62142  1  0  0  0
 63 65  1  0  0  0
 63143  1  0  0  0
 63144  1  0  0  0
 63145  1  0  0  0
 64146  1  0  0  0
 65147  1  0  0  0
 68 85  1  0  0  0
 71 72  2  0  0  0
 71 73  1  0  0  0
 71148  1  0  0  0
 72 76  1  0  0  0
 72 78  1  0  0  0
 73 74  2  0  0  0
 73 79  1  0  0  0
 74 75  1  0  0  0
 74 80  1  0  0  0
 75 76  2  0  0  0
 75 83  1  0  0  0
 76 87  1  0  0  0
 77 78  1  0  0  0
 77 87  1  0  0  0
 77149  1  0  0  0
 77150  1  0  0  0
 78 84  1  0  0  0
 78 86  1  0  0  0
 79151  1  0  0  0
 79152  1  0  0  0
 79153  1  0  0  0
 80154  1  0  0  0
 80155  1  0  0  0
 80156  1  0  0  0
 81157  1  0  0  0
 81158  1  0  0  0
 81159  1  0  0  0
 81 86  1  0  0  0
 82 86  1  0  0  0
 82160  1  0  0  0
 82161  1  0  0  0
 82162  1  0  0  0
 83 88  1  0  0  0
 83163  1  0  0  0
 83164  1  0  0  0
 84 85  1  0  0  0
 84165  1  0  0  0
 84166  1  0  0  0
 85167  1  0  0  0
 85168  1  0  0  0
 86169  1  0  0  0
 87170  1  0  0  0
 88171  1  0  0  0
M  ISO  4   1 100  68 101  85 101  88 100
M  END
> <chiral flag>
0

> <version>
0

> <s_m_source_file>
/data/baiqing/PycharmProjects/Reinvent-master-3.2/result/LINK_invent/BTK/process_docking_weight1_custom_sum_contain_oxygen_bond_distance_aromatic_linkinvent_7_9_3/rearranged_h_0160.sdf

> <i_m_source_file_index>
5

> <r_mmod_Potential_Energy-OPLS-2005>
326.219390869141

> <r_mmod_Stretch_Energy-OPLS-2005>
154.902557373047

> <r_mmod_Bend_Energy-OPLS-2005>
290.683349609375

> <r_mmod_Torsional_Energy-OPLS-2005>
259.824981689453

> <r_mmod_Improper_Torsional_Energy-OPLS-2005>
11.0535831451416

> <r_mmod_Van_der_Waal_Energy-OPLS-2005>
147.320007324219

> <r_mmod_Electrostatic_Energy-OPLS-2005>
-412.969299316406

> <r_mmod_Solvation_Energy-OPLS-2005>
-217.073684692383

> <b_mmod_Minimization_Converged-OPLS-2005>
0

> <r_mmod_RMS_Derivative-OPLS-2005>
5.05235481262207

$$$$
5
                    3D
 Structure written by MMmdl.
165174  0  0  1  0            999 V2000
  -30.6479  -14.7067   20.4639 C   0  0  0  0  0  0
  -30.4212  -12.4326   19.4695 C   0  0  0  0  0  0
  -29.5045  -12.5004   18.2306 C   0  0  0  0  0  0
  -28.0305  -12.3350   18.6460 C   0  0  0  0  0  0
  -27.6403  -13.2360   19.8491 C   0  0  2  0  0  0
  -28.6847  -13.1767   20.9838 C   0  0  0  0  0  0
  -25.2513  -13.8215   20.5711 C   0  0  0  0  0  0
  -24.1799  -13.0453   20.9199 C   0  0  0  0  0  0
  -24.6392  -11.6929   20.8740 C   0  0  0  0  0  0
  -23.9071  -10.4301   21.0401 C   0  0  0  0  0  0
  -24.3622   -9.4215   21.9181 C   0  0  0  0  0  0
  -23.6299   -8.2247   22.0751 C   0  0  0  0  0  0
  -22.4280   -8.0283   21.3542 C   0  0  0  0  0  0
  -21.9915   -9.0257   20.4647 C   0  0  0  0  0  0
  -22.7242  -10.2137   20.3055 C   0  0  0  0  0  0
  -21.6854   -6.0735   22.5276 C   0  0  0  0  0  0
  -21.4014   -6.5639   23.8210 C   0  0  0  0  0  0
  -21.3661   -5.6793   24.9174 C   0  0  0  0  0  0
  -21.6047   -4.3056   24.7225 C   0  0  0  0  0  0
  -21.8818   -3.8145   23.4346 C   0  0  0  0  0  0
  -21.9193   -4.6961   22.3402 C   0  0  0  0  0  0
  -22.7821  -13.5230   21.1862 C   0  0  0  0  0  0
  -22.1662   -4.2147   21.0979 F   0  0  0  0  0  0
  -21.5631   -3.4539   25.7737 F   0  0  0  0  0  0
  -29.9847  -13.5045   20.3921 N   0  0  0  0  0  0
  -26.2937  -12.9428   20.3292 N   0  0  0  0  0  0
  -25.9326  -11.6563   20.5750 N   0  0  0  0  0  0
  -22.0470  -12.8216   22.0420 N   0  0  0  0  0  0
  -25.4245  -15.1936   20.4165 N   0  0  0  0  0  0
  -31.8471  -14.7549   20.1699 O   0  0  0  0  0  0
  -21.6643   -6.8881   21.4240 O   0  0  0  0  0  0
  -22.3503  -14.5534   20.6713 O   0  0  0  0  0  0
  -24.6291  -31.8572   23.2004 C   0  0  0  0  0  0
  -25.9123  -32.4768   23.8341 C   0  0  1  0  0  0
  -27.2143  -27.2850   20.1348 C   0  0  0  0  0  0
  -25.5929  -33.8568   24.2268 N   0  0  0  0  0  0
  -23.4251  -30.4799   21.5430 C   0  0  2  0  0  0
  -24.8731  -28.9312   20.1097 C   0  0  0  0  0  0
  -22.7494  -29.4608   22.4919 C   0  0  0  0  0  0
  -18.0290  -28.1386   22.8485 C   0  0  0  0  0  0
  -24.1489  -36.7290   23.2640 C   0  0  0  0  0  0
  -25.9688  -30.7786   21.3764 C   0  0  0  0  0  0
  -26.0436  -29.4025   20.7198 C   0  0  0  0  0  0
  -27.2221  -28.5922   20.7205 C   0  0  0  0  0  0
  -26.0291  -26.8790   19.4874 C   0  0  0  0  0  0
  -24.8695  -27.6767   19.4806 C   0  0  0  0  0  0
  -23.6425  -29.8149   20.1583 C   0  0  0  0  0  0
  -25.4115  -36.3079   24.0329 C   0  0  1  0  0  0
  -20.5893  -28.3694   23.1278 C   0  0  2  0  0  0
  -20.6780  -26.9416   22.5410 C   0  0  0  0  0  0
  -19.5755  -26.6383   21.5216 C   0  0  0  0  0  0
  -18.1935  -26.7929   22.1626 C   0  0  0  0  0  0
  -19.1543  -28.8858   23.2877 C   0  0  0  0  0  0
  -18.9463  -30.1459   23.8893 C   0  0  0  0  0  0
  -17.6463  -30.6589   24.0561 C   0  0  0  0  0  0
  -25.9053  -34.9448   23.5100 C   0  0  0  0  0  0
  -16.5355  -29.9083   23.6332 C   0  0  0  0  0  0
  -16.7277  -28.6501   23.0353 C   0  0  0  0  0  0
  -26.4497  -31.6586   25.0722 C   0  0  0  0  0  0
  -25.3725  -31.3733   26.1447 C   0  0  0  0  0  0
  -27.0340  -30.3004   24.6195 C   0  0  0  0  0  0
  -27.6055  -32.4321   25.7493 C   0  0  0  0  0  0
  -27.5580  -37.1801   24.8464 C   0  0  0  0  0  0
  -21.4204  -29.3042   22.3666 N   0  0  0  0  0  0
  -26.4292  -37.3776   23.9410 N   0  0  0  0  0  0
  -24.6931  -31.0557   22.0966 N   0  0  0  0  0  0
  -23.4208  -28.8149   23.3010 O   0  0  0  0  0  0
  -28.2850  -26.3731   20.1708 O   0  0  0  0  0  0
  -26.5623  -34.8919   22.4669 O   0  0  0  0  0  0
  -23.5446  -32.1379   23.7316 O   0  0  0  0  0  0
  -28.6262  -23.6801   20.3318 C   0  0  0  0  0  0
  -28.6893  -22.4221   21.0777 C   0  0  0  0  0  0
  -29.1823  -23.3745   19.1100 C   0  0  0  0  0  0
  -29.2952  -21.4354   20.3101 C   0  0  0  0  0  0
  -29.1060  -18.0473   19.2684 C   0  0  0  0  0  0
  -28.9389  -17.9741   21.7438 C   0  0  0  0  0  0
  -30.1378  -16.8648   19.3879 C   0  0  0  0  0  0
  -29.9375  -16.7448   21.7216 C   0  0  0  0  0  0
  -28.8984  -18.9550   20.5193 C   0  0  0  0  0  0
  -28.2036  -22.2267   22.4904 C   0  0  0  0  0  0
  -29.3686  -24.2546   17.9111 C   0  0  0  0  0  0
  -30.3277  -21.3882   18.0126 C   0  0  0  0  0  0
  -27.9953  -25.0570   20.8200 C   0  0  0  0  0  0
  -29.6204  -22.0393   19.1045 N   0  0  0  0  0  0
  -29.9138  -15.8942   20.5005 N   0  0  0  0  0  0
  -29.7551  -20.1523   20.6287 O   0  0  0  0  0  0
  -31.4652  -12.5369   19.1690 H   0  0  0  0  0  0
  -30.3458  -11.4586   19.9556 H   0  0  0  0  0  0
  -29.7811  -11.7270   17.5125 H   0  0  0  0  0  0
  -29.6393  -13.4560   17.7207 H   0  0  0  0  0  0
  -27.8810  -11.2867   18.9073 H   0  0  0  0  0  0
  -27.3737  -12.5332   17.7983 H   0  0  0  0  0  0
  -27.6350  -14.2580   19.4686 H   0  0  0  0  0  0
  -28.7107  -12.1885   21.4448 H   0  0  0  0  0  0
  -28.4305  -13.8847   21.7742 H   0  0  0  0  0  0
  -25.2763   -9.5695   22.4759 H   0  0  0  0  0  0
  -24.0009   -7.4638   22.7471 H   0  0  0  0  0  0
  -21.0843   -8.8775   19.8956 H   0  0  0  0  0  0
  -22.3695  -10.9675   19.6167 H   0  0  0  0  0  0
  -21.2006   -7.6148   23.9712 H   0  0  0  0  0  0
  -21.1487   -6.0524   25.9079 H   0  0  0  0  0  0
  -22.0597   -2.7607   23.2842 H   0  0  0  0  0  0
  -22.4091  -11.9880   22.4807 H   0  0  0  0  0  0
  -21.1090  -13.1246   22.2627 H   0  0  0  0  0  0
  -24.6659  -15.8555   20.5382 H   0  0  0  0  0  0
  -26.2909  -15.6308   20.1287 H   0  0  0  0  0  0
  -26.7190  -32.5430   23.1085 H   0  0  0  0  0  0
  -25.0070  -33.9706   25.0409 H   0  0  0  0  0  0
  -22.7202  -31.3014   21.3985 H   0  0  0  0  0  0
  -23.3751  -35.9623   23.3302 H   0  0  0  0  0  0
  -24.3579  -36.8909   22.2053 H   0  0  0  0  0  0
  -23.7242  -37.6493   23.6658 H   0  0  0  0  0  0
  -26.1031  -31.5396   20.6065 H   0  0  0  0  0  0
  -26.8482  -30.8285   22.0067 H   0  0  0  0  0  0
  -28.1180  -28.9455   21.2118 H   0  0  0  0  0  0
  -25.9903  -25.9140   19.0016 H   0  0  0  0  0  0
  -23.9751  -27.3122   18.9940 H   0  0  0  0  0  0
  -23.7647  -30.5915   19.4022 H   0  0  0  0  0  0
  -22.7618  -29.2461   19.8549 H   0  0  0  0  0  0
  -25.1296  -36.1926   25.0822 H   0  0  0  0  0  0
  -20.9988  -28.3267   24.1399 H   0  0  0  0  0  0
  -20.5685  -26.2303   23.3611 H   0  0  0  0  0  0
  -21.6646  -26.7441   22.1200 H   0  0  0  0  0  0
  -19.6914  -25.6294   21.1247 H   0  0  0  0  0  0
  -19.6692  -27.3193   20.6744 H   0  0  0  0  0  0
  -17.4206  -26.6676   21.4028 H   0  0  0  0  0  0
  -18.0333  -26.0072   22.9025 H   0  0  0  0  0  0
  -19.7940  -30.7277   24.2261 H   0  0  0  0  0  0
  -17.5017  -31.6269   24.5162 H   0  0  0  0  0  0
  -15.5354  -30.2985   23.7659 H   0  0  0  0  0  0
  -15.8677  -28.0821   22.7069 H   0  0  0  0  0  0
  -24.5899  -30.7083   25.7775 H   0  0  0  0  0  0
  -24.8917  -32.2903   26.4865 H   0  0  0  0  0  0
  -25.8044  -30.8913   27.0227 H   0  0  0  0  0  0
  -26.2918  -29.6755   24.1215 H   0  0  0  0  0  0
  -27.4021  -29.7264   25.4709 H   0  0  0  0  0  0
  -27.8797  -30.4282   23.9435 H   0  0  0  0  0  0
  -27.2667  -33.3624   26.2065 H   0  0  0  0  0  0
  -28.3869  -32.6876   25.0324 H   0  0  0  0  0  0
  -28.0720  -31.8449   26.5414 H   0  0  0  0  0  0
  -28.2599  -38.0097   24.7513 H   0  0  0  0  0  0
  -28.1075  -36.2629   24.6287 H   0  0  0  0  0  0
  -27.2298  -37.1446   25.8868 H   0  0  0  0  0  0
  -20.9386  -29.8765   21.6872 H   0  0  0  0  0  0
  -26.0171  -38.2851   24.1409 H   0  0  0  0  0  0
  -28.1412  -17.5962   19.0319 H   0  0  0  0  0  0
  -29.3452  -18.6653   18.4042 H   0  0  0  0  0  0
  -29.0862  -18.5503   22.6577 H   0  0  0  0  0  0
  -27.9379  -17.5510   21.8413 H   0  0  0  0  0  0
  -31.1428  -17.2832   19.4736 H   0  0  0  0  0  0
  -30.1300  -16.3141   18.4448 H   0  0  0  0  0  0
  -29.7286  -16.1129   22.5867 H   0  0  0  0  0  0
  -30.9544  -17.1139   21.8693 H   0  0  0  0  0  0
  -27.8820  -19.3508   20.4650 H   0  0  0  0  0  0
  -28.5688  -23.0242   23.1373 H   0  0  0  0  0  0
  -28.5563  -21.2770   22.8937 H   0  0  0  0  0  0
  -27.1140  -22.2267   22.5210 H   0  0  0  0  0  0
  -28.6913  -25.1079   17.9358 H   0  0  0  0  0  0
  -29.1692  -23.7171   16.9839 H   0  0  0  0  0  0
  -30.3871  -24.6411   17.8673 H   0  0  0  0  0  0
  -31.0306  -22.0808   17.5503 H   0  0  0  0  0  0
  -29.6143  -21.0468   17.2625 H   0  0  0  0  0  0
  -30.8954  -20.5333   18.3791 H   0  0  0  0  0  0
  -28.3038  -25.1780   21.8587 H   0  0  0  0  0  0
  -26.9212  -24.8812   20.8805 H   0  0  0  0  0  0
  1 25  1  0  0  0
  1 30  2  0  0  0
  1 85  1  0  0  0
  2  3  1  0  0  0
  2 25  1  0  0  0
  2 87  1  0  0  0
  2 88  1  0  0  0
  3  4  1  0  0  0
  3 89  1  0  0  0
  3 90  1  0  0  0
  4  5  1  0  0  0
  4 91  1  0  0  0
  4 92  1  0  0  0
  5  6  1  0  0  0
  5 26  1  0  0  0
  5 93  1  0  0  0
  6 25  1  0  0  0
  6 94  1  0  0  0
  6 95  1  0  0  0
  7  8  2  0  0  0
  7 26  1  0  0  0
  7 29  1  0  0  0
  8  9  1  0  0  0
  8 22  1  0  0  0
  9 10  1  0  0  0
  9 27  2  0  0  0
 10 11  2  0  0  0
 10 15  1  0  0  0
 11 12  1  0  0  0
 11 96  1  0  0  0
 12 13  2  0  0  0
 12 97  1  0  0  0
 13 14  1  0  0  0
 13 31  1  0  0  0
 14 15  2  0  0  0
 14 98  1  0  0  0
 15 99  1  0  0  0
 16 17  2  0  0  0
 16 21  1  0  0  0
 16 31  1  0  0  0
 17 18  1  0  0  0
 17100  1  0  0  0
 18 19  2  0  0  0
 18101  1  0  0  0
 19 20  1  0  0  0
 19 24  1  0  0  0
 20 21  2  0  0  0
 20102  1  0  0  0
 21 23  1  0  0  0
 22 28  1  0  0  0
 22 32  2  0  0  0
 26 27  1  0  0  0
 28103  1  0  0  0
 28104  1  0  0  0
 29105  1  0  0  0
 29106  1  0  0  0
 33 34  1  0  0  0
 33 66  1  0  0  0
 33 70  2  0  0  0
 34 36  1  0  0  0
 34 59  1  0  0  0
 34107  1  0  0  0
 35 44  2  0  0  0
 35 45  1  0  0  0
 35 68  1  0  0  0
 36 56  1  0  0  0
 36108  1  0  0  0
 37 39  1  0  0  0
 37 47  1  0  0  0
 37 66  1  0  0  0
 37109  1  0  0  0
 38 43  2  0  0  0
 38 46  1  0  0  0
 38 47  1  0  0  0
 39 64  1  0  0  0
 39 67  2  0  0  0
 40 52  1  0  0  0
 40 53  2  0  0  0
 40 58  1  0  0  0
 41110  1  0  0  0
 41111  1  0  0  0
 41112  1  0  0  0
 41 48  1  0  0  0
 42 43  1  0  0  0
 42 66  1  0  0  0
 42113  1  0  0  0
 42114  1  0  0  0
 43 44  1  0  0  0
 44115  1  0  0  0
 45 46  2  0  0  0
 45116  1  0  0  0
 46117  1  0  0  0
 47118  1  0  0  0
 47119  1  0  0  0
 48 56  1  0  0  0
 48 65  1  0  0  0
 48120  1  0  0  0
 49 50  1  0  0  0
 49 53  1  0  0  0
 49 64  1  0  0  0
 49121  1  0  0  0
 50 51  1  0  0  0
 50122  1  0  0  0
 50123  1  0  0  0
 51 52  1  0  0  0
 51124  1  0  0  0
 51125  1  0  0  0
 52126  1  0  0  0
 52127  1  0  0  0
 53 54  1  0  0  0
 54 55  2  0  0  0
 54128  1  0  0  0
 55 57  1  0  0  0
 55129  1  0  0  0
 56 69  2  0  0  0
 57 58  2  0  0  0
 57130  1  0  0  0
 58131  1  0  0  0
 59 60  1  0  0  0
 59 61  1  0  0  0
 59 62  1  0  0  0
 60132  1  0  0  0
 60133  1  0  0  0
 60134  1  0  0  0
 61135  1  0  0  0
 61136  1  0  0  0
 61137  1  0  0  0
 62138  1  0  0  0
 62139  1  0  0  0
 62140  1  0  0  0
 63 65  1  0  0  0
 63141  1  0  0  0
 63142  1  0  0  0
 63143  1  0  0  0
 64144  1  0  0  0
 65145  1  0  0  0
 68 83  1  0  0  0
 71 72  1  0  0  0
 71 73  2  0  0  0
 71 83  1  0  0  0
 72 74  2  0  0  0
 72 80  1  0  0  0
 73 81  1  0  0  0
 73 84  1  0  0  0
 74 84  1  0  0  0
 74 86  1  0  0  0
 75 77  1  0  0  0
 75 79  1  0  0  0
 75146  1  0  0  0
 75147  1  0  0  0
 76 78  1  0  0  0
 76 79  1  0  0  0
 76148  1  0  0  0
 76149  1  0  0  0
 77 85  1  0  0  0
 77150  1  0  0  0
 77151  1  0  0  0
 78 85  1  0  0  0
 78152  1  0  0  0
 78153  1  0  0  0
 79 86  1  0  0  0
 79154  1  0  0  0
 80155  1  0  0  0
 80156  1  0  0  0
 80157  1  0  0  0
 81158  1  0  0  0
 81159  1  0  0  0
 81160  1  0  0  0
 82 84  1  0  0  0
 82161  1  0  0  0
 82162  1  0  0  0
 82163  1  0  0  0
 83164  1  0  0  0
 83165  1  0  0  0
M  ISO  4   1 100  68 101  83 101  85 100
M  END
> <chiral flag>
0

> <version>
0

> <s_m_source_file>
/data/baiqing/PycharmProjects/Reinvent-master-3.2/result/LINK_invent/BTK/process_docking_weight1_custom_sum_contain_oxygen_bond_distance_aromatic_linkinvent_7_9_3/rearranged_h_0160.sdf

> <i_m_source_file_index>
6

> <r_mmod_Potential_Energy-OPLS-2005>
342.664093017578

> <r_mmod_Stretch_Energy-OPLS-2005>
97.8952560424805

> <r_mmod_Bend_Energy-OPLS-2005>
181.762741088867

> <r_mmod_Torsional_Energy-OPLS-2005>
376.776885986328

> <r_mmod_Improper_Torsional_Energy-OPLS-2005>
16.3914585113525

> <r_mmod_Van_der_Waal_Energy-OPLS-2005>
112.79663848877

> <r_mmod_Electrostatic_Energy-OPLS-2005>
-319.817504882812

> <r_mmod_Solvation_Energy-OPLS-2005>
-198.756149291992

> <b_mmod_Minimization_Converged-OPLS-2005>
0

> <r_mmod_RMS_Derivative-OPLS-2005>
0.634863257408142

$$$$
6
                    3D
 Structure written by MMmdl.
168177  0  0  1  0            999 V2000
  -30.6296  -14.8645   20.4367 C   0  0  0  0  0  0
  -30.4185  -12.5411   19.4821 C   0  0  0  0  0  0
  -29.5043  -12.5138   18.2404 C   0  0  0  0  0  0
  -28.0372  -12.3204   18.6639 C   0  0  0  0  0  0
  -27.6267  -13.2522   19.8357 C   0  0  2  0  0  0
  -28.6742  -13.2751   20.9673 C   0  0  0  0  0  0
  -25.2462  -13.8245   20.5737 C   0  0  0  0  0  0
  -24.1774  -13.0458   20.9224 C   0  0  0  0  0  0
  -24.6395  -11.6941   20.8756 C   0  0  0  0  0  0
  -23.9082  -10.4303   21.0407 C   0  0  0  0  0  0
  -24.3632   -9.4216   21.9184 C   0  0  0  0  0  0
  -23.6304   -8.2250   22.0753 C   0  0  0  0  0  0
  -22.4285   -8.0287   21.3545 C   0  0  0  0  0  0
  -21.9924   -9.0262   20.4646 C   0  0  0  0  0  0
  -22.7253  -10.2140   20.3057 C   0  0  0  0  0  0
  -21.6857   -6.0741   22.5278 C   0  0  0  0  0  0
  -21.4014   -6.5643   23.8212 C   0  0  0  0  0  0
  -21.3660   -5.6795   24.9171 C   0  0  0  0  0  0
  -21.6044   -4.3057   24.7220 C   0  0  0  0  0  0
  -21.8818   -3.8150   23.4342 C   0  0  0  0  0  0
  -21.9193   -4.6968   22.3400 C   0  0  0  0  0  0
  -22.7791  -13.5221   21.1881 C   0  0  0  0  0  0
  -22.1663   -4.2154   21.0978 F   0  0  0  0  0  0
  -21.5631   -3.4540   25.7734 F   0  0  0  0  0  0
  -29.9485  -13.6570   20.3506 N   0  0  0  0  0  0
  -26.2881  -12.9482   20.3276 N   0  0  0  0  0  0
  -25.9329  -11.6604   20.5757 N   0  0  0  0  0  0
  -22.0454  -12.8195   22.0433 N   0  0  0  0  0  0
  -25.4161  -15.1972   20.4206 N   0  0  0  0  0  0
  -31.8436  -14.8213   20.2043 O   0  0  0  0  0  0
  -21.6647   -6.8884   21.4240 O   0  0  0  0  0  0
  -22.3464  -14.5522   20.6729 O   0  0  0  0  0  0
  -24.6394  -31.8486   23.1942 C   0  0  0  0  0  0
  -25.9190  -32.4717   23.8304 C   0  0  1  0  0  0
  -27.1998  -27.1687   20.1465 C   0  0  0  0  0  0
  -25.5958  -33.8521   24.2218 N   0  0  0  0  0  0
  -23.4402  -30.4716   21.5395 C   0  0  2  0  0  0
  -24.8868  -28.9108   20.1112 C   0  0  0  0  0  0
  -22.7550  -29.4566   22.4884 C   0  0  0  0  0  0
  -18.0297  -28.1391   22.8470 C   0  0  0  0  0  0
  -24.1494  -36.7258   23.2638 C   0  0  0  0  0  0
  -25.9958  -30.7324   21.3903 C   0  0  0  0  0  0
  -26.0646  -29.3478   20.7319 C   0  0  0  0  0  0
  -27.2263  -28.4917   20.7357 C   0  0  0  0  0  0
  -26.0061  -26.8413   19.4722 C   0  0  0  0  0  0
  -24.8692  -27.6694   19.4637 C   0  0  0  0  0  0
  -23.6634  -29.8085   20.1561 C   0  0  0  0  0  0
  -25.4119  -36.3037   24.0315 C   0  0  1  0  0  0
  -20.5910  -28.3706   23.1248 C   0  0  2  0  0  0
  -20.6785  -26.9412   22.5407 C   0  0  0  0  0  0
  -19.5764  -26.6375   21.5212 C   0  0  0  0  0  0
  -18.1941  -26.7930   22.1614 C   0  0  0  0  0  0
  -19.1554  -28.8863   23.2855 C   0  0  0  0  0  0
  -18.9475  -30.1460   23.8881 C   0  0  0  0  0  0
  -17.6473  -30.6587   24.0557 C   0  0  0  0  0  0
  -25.9073  -34.9414   23.5067 C   0  0  0  0  0  0
  -16.5362  -29.9079   23.6339 C   0  0  0  0  0  0
  -16.7281  -28.6499   23.0353 C   0  0  0  0  0  0
  -26.4523  -31.6566   25.0729 C   0  0  0  0  0  0
  -25.3717  -31.3753   26.1427 C   0  0  0  0  0  0
  -27.0374  -30.2960   24.6286 C   0  0  0  0  0  0
  -27.6067  -32.4322   25.7502 C   0  0  0  0  0  0
  -27.5584  -37.1770   24.8453 C   0  0  0  0  0  0
  -21.4246  -29.3043   22.3633 N   0  0  0  0  0  0
  -26.4277  -37.3756   23.9423 N   0  0  0  0  0  0
  -24.7114  -31.0379   22.0961 N   0  0  0  0  0  0
  -23.4215  -28.8106   23.3010 O   0  0  0  0  0  0
  -28.2385  -26.1804   20.1783 O   0  0  0  0  0  0
  -26.5656  -34.8904   22.4646 O   0  0  0  0  0  0
  -23.5520  -32.1342   23.7179 O   0  0  0  0  0  0
  -26.4414  -20.9647   18.2696 C   0  0  0  0  0  0
  -27.0447  -22.1920   18.6008 C   0  0  0  0  0  0
  -28.0184  -21.9830   19.5635 C   0  0  0  0  0  0
  -27.1250  -19.9738   18.8880 C   0  0  0  0  0  0
  -29.8926  -18.5448   19.1549 C   0  0  0  0  0  0
  -28.5660  -18.2709   21.1944 C   0  0  0  0  0  0
  -30.6853  -17.2269   19.5773 C   0  0  0  0  0  0
  -29.3745  -16.8981   21.4846 C   0  0  0  0  0  0
  -29.1724  -19.4229   20.2573 C   0  0  0  0  0  0
  -26.6027  -23.4651   17.9242 C   0  0  0  0  0  0
  -30.0095  -23.6138   19.4019 C   0  0  0  0  0  0
  -25.8846  -18.2094   17.9023 C   0  0  0  0  0  0
  -27.8921  -24.7052   20.5012 C   0  0  0  0  0  0
  -28.7423  -23.2797   20.1971 C   0  0  1  0  0  0
  -28.1833  -20.4894   19.6527 N   0  0  0  0  0  0
  -29.9810  -16.1339   20.3405 N   0  0  0  0  0  0
  -26.9141  -18.6380   18.7843 O   0  0  0  0  0  0
  -31.4573  -12.6552   19.1697 H   0  0  0  0  0  0
  -30.3745  -11.5905   20.0166 H   0  0  0  0  0  0
  -29.8069  -11.7159   17.5611 H   0  0  0  0  0  0
  -29.6083  -13.4472   17.6844 H   0  0  0  0  0  0
  -27.9200  -11.2786   18.9640 H   0  0  0  0  0  0
  -27.3720  -12.4665   17.8120 H   0  0  0  0  0  0
  -27.5922  -14.2577   19.4140 H   0  0  0  0  0  0
  -28.7490  -12.3026   21.4560 H   0  0  0  0  0  0
  -28.3890  -13.9886   21.7406 H   0  0  0  0  0  0
  -25.2775   -9.5692   22.4762 H   0  0  0  0  0  0
  -24.0014   -7.4639   22.7468 H   0  0  0  0  0  0
  -21.0856   -8.8779   19.8948 H   0  0  0  0  0  0
  -22.3710  -10.9682   19.6166 H   0  0  0  0  0  0
  -21.2004   -7.6151   23.9716 H   0  0  0  0  0  0
  -21.1483   -6.0524   25.9075 H   0  0  0  0  0  0
  -22.0597   -2.7611   23.2839 H   0  0  0  0  0  0
  -22.4087  -11.9857   22.4810 H   0  0  0  0  0  0
  -21.1066  -13.1197   22.2648 H   0  0  0  0  0  0
  -24.6559  -15.8543   20.5519 H   0  0  0  0  0  0
  -26.2804  -15.6411   20.1366 H   0  0  0  0  0  0
  -26.7248  -32.5334   23.1027 H   0  0  0  0  0  0
  -25.0101  -33.9656   25.0361 H   0  0  0  0  0  0
  -22.7405  -31.2966   21.3900 H   0  0  0  0  0  0
  -23.3773  -35.9573   23.3256 H   0  0  0  0  0  0
  -24.3596  -36.8937   22.2065 H   0  0  0  0  0  0
  -23.7224  -37.6432   23.6699 H   0  0  0  0  0  0
  -26.1509  -31.4887   20.6196 H   0  0  0  0  0  0
  -26.8671  -30.7794   22.0313 H   0  0  0  0  0  0
  -28.1237  -28.8185   21.2418 H   0  0  0  0  0  0
  -25.9268  -25.9091   18.9422 H   0  0  0  0  0  0
  -23.9765  -27.3372   18.9522 H   0  0  0  0  0  0
  -23.7959  -30.5854   19.4023 H   0  0  0  0  0  0
  -22.7790  -29.2487   19.8462 H   0  0  0  0  0  0
  -25.1301  -36.1860   25.0803 H   0  0  0  0  0  0
  -20.9993  -28.3282   24.1372 H   0  0  0  0  0  0
  -20.5682  -26.2317   23.3622 H   0  0  0  0  0  0
  -21.6652  -26.7427   22.1206 H   0  0  0  0  0  0
  -19.6939  -25.6285   21.1247 H   0  0  0  0  0  0
  -19.6708  -27.3177   20.6738 H   0  0  0  0  0  0
  -17.4213  -26.6672   21.4009 H   0  0  0  0  0  0
  -18.0337  -26.0075   22.9012 H   0  0  0  0  0  0
  -19.7953  -30.7277   24.2246 H   0  0  0  0  0  0
  -17.5026  -31.6270   24.5154 H   0  0  0  0  0  0
  -15.5361  -30.2976   23.7679 H   0  0  0  0  0  0
  -15.8679  -28.0812   22.7083 H   0  0  0  0  0  0
  -24.5922  -30.7063   25.7755 H   0  0  0  0  0  0
  -24.8875  -32.2934   26.4765 H   0  0  0  0  0  0
  -25.8007  -30.8995   27.0256 H   0  0  0  0  0  0
  -26.2975  -29.6697   24.1286 H   0  0  0  0  0  0
  -27.3988  -29.7238   25.4844 H   0  0  0  0  0  0
  -27.8889  -30.4197   23.9593 H   0  0  0  0  0  0
  -27.2676  -33.3653   26.2007 H   0  0  0  0  0  0
  -28.3911  -32.6824   25.0347 H   0  0  0  0  0  0
  -28.0693  -31.8491   26.5477 H   0  0  0  0  0  0
  -28.2540  -38.0125   24.7563 H   0  0  0  0  0  0
  -28.1137  -36.2656   24.6180 H   0  0  0  0  0  0
  -27.2319  -37.1294   25.8857 H   0  0  0  0  0  0
  -20.9444  -29.8773   21.6834 H   0  0  0  0  0  0
  -26.0140  -38.2810   24.1476 H   0  0  0  0  0  0
  -25.6159  -20.8297   17.5840 H   0  0  0  0  0  0
  -29.1841  -18.2309   18.3930 H   0  0  0  0  0  0
  -30.5819  -19.1983   18.6193 H   0  0  0  0  0  0
  -28.3386  -18.7300   22.1567 H   0  0  0  0  0  0
  -27.5911  -17.9541   20.8394 H   0  0  0  0  0  0
  -31.5636  -17.5281   20.1513 H   0  0  0  0  0  0
  -31.0820  -16.7903   18.6580 H   0  0  0  0  0  0
  -28.7149  -16.2262   22.0334 H   0  0  0  0  0  0
  -30.1851  -17.1247   22.1796 H   0  0  0  0  0  0
  -29.9328  -19.9631   20.8215 H   0  0  0  0  0  0
  -26.3795  -23.2687   16.8752 H   0  0  0  0  0  0
  -27.3680  -24.2397   17.9417 H   0  0  0  0  0  0
  -25.6854  -23.8308   18.3837 H   0  0  0  0  0  0
  -30.6663  -22.7470   19.3280 H   0  0  0  0  0  0
  -30.5709  -24.4159   19.8814 H   0  0  0  0  0  0
  -29.7672  -23.9374   18.3897 H   0  0  0  0  0  0
  -25.8464  -17.1200   17.8976 H   0  0  0  0  0  0
  -26.0731  -18.5358   16.8785 H   0  0  0  0  0  0
  -24.9069  -18.5732   18.2215 H   0  0  0  0  0  0
  -27.8449  -24.7376   21.5902 H   0  0  0  0  0  0
  -26.8481  -24.5118   20.2782 H   0  0  0  0  0  0
  -29.0976  -22.9557   21.1763 H   0  0  0  0  0  0
  1 25  1  0  0  0
  1 30  2  0  0  0
  1 86  1  0  0  0
  2  3  1  0  0  0
  2 25  1  0  0  0
  2 88  1  0  0  0
  2 89  1  0  0  0
  3  4  1  0  0  0
  3 90  1  0  0  0
  3 91  1  0  0  0
  4  5  1  0  0  0
  4 92  1  0  0  0
  4 93  1  0  0  0
  5  6  1  0  0  0
  5 26  1  0  0  0
  5 94  1  0  0  0
  6 25  1  0  0  0
  6 95  1  0  0  0
  6 96  1  0  0  0
  7  8  2  0  0  0
  7 26  1  0  0  0
  7 29  1  0  0  0
  8  9  1  0  0  0
  8 22  1  0  0  0
  9 10  1  0  0  0
  9 27  2  0  0  0
 10 11  2  0  0  0
 10 15  1  0  0  0
 11 12  1  0  0  0
 11 97  1  0  0  0
 12 13  2  0  0  0
 12 98  1  0  0  0
 13 14  1  0  0  0
 13 31  1  0  0  0
 14 15  2  0  0  0
 14 99  1  0  0  0
 15100  1  0  0  0
 16 17  2  0  0  0
 16 21  1  0  0  0
 16 31  1  0  0  0
 17 18  1  0  0  0
 17101  1  0  0  0
 18 19  2  0  0  0
 18102  1  0  0  0
 19 20  1  0  0  0
 19 24  1  0  0  0
 20 21  2  0  0  0
 20103  1  0  0  0
 21 23  1  0  0  0
 22 28  1  0  0  0
 22 32  2  0  0  0
 26 27  1  0  0  0
 28104  1  0  0  0
 28105  1  0  0  0
 29106  1  0  0  0
 29107  1  0  0  0
 33 34  1  0  0  0
 33 66  1  0  0  0
 33 70  2  0  0  0
 34 36  1  0  0  0
 34 59  1  0  0  0
 34108  1  0  0  0
 35 44  2  0  0  0
 35 45  1  0  0  0
 35 68  1  0  0  0
 36 56  1  0  0  0
 36109  1  0  0  0
 37 39  1  0  0  0
 37 47  1  0  0  0
 37 66  1  0  0  0
 37110  1  0  0  0
 38 43  2  0  0  0
 38 46  1  0  0  0
 38 47  1  0  0  0
 39 64  1  0  0  0
 39 67  2  0  0  0
 40 52  1  0  0  0
 40 53  2  0  0  0
 40 58  1  0  0  0
 41111  1  0  0  0
 41112  1  0  0  0
 41113  1  0  0  0
 41 48  1  0  0  0
 42 43  1  0  0  0
 42 66  1  0  0  0
 42114  1  0  0  0
 42115  1  0  0  0
 43 44  1  0  0  0
 44116  1  0  0  0
 45 46  2  0  0  0
 45117  1  0  0  0
 46118  1  0  0  0
 47119  1  0  0  0
 47120  1  0  0  0
 48 56  1  0  0  0
 48 65  1  0  0  0
 48121  1  0  0  0
 49 50  1  0  0  0
 49 53  1  0  0  0
 49 64  1  0  0  0
 49122  1  0  0  0
 50 51  1  0  0  0
 50123  1  0  0  0
 50124  1  0  0  0
 51 52  1  0  0  0
 51125  1  0  0  0
 51126  1  0  0  0
 52127  1  0  0  0
 52128  1  0  0  0
 53 54  1  0  0  0
 54 55  2  0  0  0
 54129  1  0  0  0
 55 57  1  0  0  0
 55130  1  0  0  0
 56 69  2  0  0  0
 57 58  2  0  0  0
 57131  1  0  0  0
 58132  1  0  0  0
 59 60  1  0  0  0
 59 61  1  0  0  0
 59 62  1  0  0  0
 60133  1  0  0  0
 60134  1  0  0  0
 60135  1  0  0  0
 61136  1  0  0  0
 61137  1  0  0  0
 61138  1  0  0  0
 62139  1  0  0  0
 62140  1  0  0  0
 62141  1  0  0  0
 63 65  1  0  0  0
 63142  1  0  0  0
 63143  1  0  0  0
 63144  1  0  0  0
 64145  1  0  0  0
 65146  1  0  0  0
 68 83  1  0  0  0
 71 72  1  0  0  0
 71 74  2  0  0  0
 71147  1  0  0  0
 72 73  2  0  0  0
 72 80  1  0  0  0
 73 84  1  0  0  0
 73 85  1  0  0  0
 74 85  1  0  0  0
 74 87  1  0  0  0
 75 77  1  0  0  0
 75 79  1  0  0  0
 75148  1  0  0  0
 75149  1  0  0  0
 76 78  1  0  0  0
 76 79  1  0  0  0
 76150  1  0  0  0
 76151  1  0  0  0
 77 86  1  0  0  0
 77152  1  0  0  0
 77153  1  0  0  0
 78 86  1  0  0  0
 78154  1  0  0  0
 78155  1  0  0  0
 79 85  1  0  0  0
 79156  1  0  0  0
 80157  1  0  0  0
 80158  1  0  0  0
 80159  1  0  0  0
 81160  1  0  0  0
 81161  1  0  0  0
 81162  1  0  0  0
 81 84  1  0  0  0
 82 87  1  0  0  0
 82163  1  0  0  0
 82164  1  0  0  0
 82165  1  0  0  0
 83 84  1  0  0  0
 83166  1  0  0  0
 83167  1  0  0  0
 84168  1  0  0  0
M  ISO  4   1 100  68 101  83 101  86 100
M  END
> <chiral flag>
0

> <version>
0

> <s_m_source_file>
/data/baiqing/PycharmProjects/Reinvent-master-3.2/result/LINK_invent/BTK/process_docking_weight1_custom_sum_contain_oxygen_bond_distance_aromatic_linkinvent_7_9_3/rearranged_h_0160.sdf

> <i_m_source_file_index>
7

> <r_mmod_Potential_Energy-OPLS-2005>
746.765991210938

> <r_mmod_Stretch_Energy-OPLS-2005>
233.501998901367

> <r_mmod_Bend_Energy-OPLS-2005>
314.490600585938

> <r_mmod_Torsional_Energy-OPLS-2005>
386.660400390625

> <r_mmod_Improper_Torsional_Energy-OPLS-2005>
17.9103775024414

> <r_mmod_Van_der_Waal_Energy-OPLS-2005>
134.197448730469

> <r_mmod_Electrostatic_Energy-OPLS-2005>
-304.522430419922

> <r_mmod_Solvation_Energy-OPLS-2005>
-189.805297851562

> <b_mmod_Minimization_Converged-OPLS-2005>
0

> <r_mmod_RMS_Derivative-OPLS-2005>
0.887485921382904

$$$$
7
                    3D
 Structure written by MMmdl.
163172  0  0  1  0            999 V2000
  -30.5168  -14.9987   20.3911 C   0  0  0  0  0  0
  -30.4398  -12.6204   19.4934 C   0  0  0  0  0  0
  -29.5182  -12.5254   18.2538 C   0  0  0  0  0  0
  -28.0520  -12.3114   18.6761 C   0  0  0  0  0  0
  -27.6249  -13.2512   19.8339 C   0  0  2  0  0  0
  -28.6699  -13.2973   20.9681 C   0  0  0  0  0  0
  -25.2442  -13.8216   20.5693 C   0  0  0  0  0  0
  -24.1767  -13.0433   20.9221 C   0  0  0  0  0  0
  -24.6394  -11.6920   20.8763 C   0  0  0  0  0  0
  -23.9088  -10.4287   21.0410 C   0  0  0  0  0  0
  -24.3632   -9.4206   21.9197 C   0  0  0  0  0  0
  -23.6297   -8.2244   22.0763 C   0  0  0  0  0  0
  -22.4284   -8.0282   21.3550 C   0  0  0  0  0  0
  -21.9929   -9.0257   20.4649 C   0  0  0  0  0  0
  -22.7261  -10.2130   20.3059 C   0  0  0  0  0  0
  -21.6854   -6.0736   22.5277 C   0  0  0  0  0  0
  -21.4014   -6.5644   23.8211 C   0  0  0  0  0  0
  -21.3654   -5.6795   24.9170 C   0  0  0  0  0  0
  -21.6043   -4.3053   24.7225 C   0  0  0  0  0  0
  -21.8818   -3.8149   23.4343 C   0  0  0  0  0  0
  -21.9194   -4.6967   22.3398 C   0  0  0  0  0  0
  -22.7788  -13.5203   21.1877 C   0  0  0  0  0  0
  -22.1663   -4.2149   21.0974 F   0  0  0  0  0  0
  -21.5626   -3.4538   25.7736 F   0  0  0  0  0  0
  -29.9345  -13.7279   20.3583 N   0  0  0  0  0  0
  -26.2873  -12.9456   20.3246 N   0  0  0  0  0  0
  -25.9334  -11.6588   20.5772 N   0  0  0  0  0  0
  -22.0442  -12.8183   22.0430 N   0  0  0  0  0  0
  -25.4089  -15.1945   20.4049 N   0  0  0  0  0  0
  -31.7282  -15.0424   20.1505 O   0  0  0  0  0  0
  -21.6643   -6.8887   21.4243 O   0  0  0  0  0  0
  -22.3474  -14.5515   20.6729 O   0  0  0  0  0  0
  -24.6483  -31.8388   23.1853 C   0  0  0  0  0  0
  -25.9238  -32.4671   23.8257 C   0  0  1  0  0  0
  -27.2112  -27.0877   20.1547 C   0  0  0  0  0  0
  -25.5979  -33.8476   24.2172 N   0  0  0  0  0  0
  -23.4545  -30.4585   21.5302 C   0  0  2  0  0  0
  -24.9031  -28.8792   20.1067 C   0  0  0  0  0  0
  -22.7605  -29.4527   22.4837 C   0  0  0  0  0  0
  -18.0307  -28.1411   22.8473 C   0  0  0  0  0  0
  -24.1467  -36.7200   23.2653 C   0  0  0  0  0  0
  -26.0155  -30.6961   21.3937 C   0  0  0  0  0  0
  -26.0826  -29.3042   20.7309 C   0  0  0  0  0  0
  -27.2342  -28.4247   20.7381 C   0  0  0  0  0  0
  -26.0064  -26.7761   19.4870 C   0  0  0  0  0  0
  -24.8821  -27.6304   19.4679 C   0  0  0  0  0  0
  -23.6838  -29.7880   20.1491 C   0  0  0  0  0  0
  -25.4109  -36.3001   24.0323 C   0  0  1  0  0  0
  -20.5935  -28.3735   23.1216 C   0  0  2  0  0  0
  -20.6797  -26.9435   22.5397 C   0  0  0  0  0  0
  -19.5763  -26.6380   21.5221 C   0  0  0  0  0  0
  -18.1936  -26.7955   22.1613 C   0  0  0  0  0  0
  -19.1574  -28.8884   23.2839 C   0  0  0  0  0  0
  -18.9497  -30.1487   23.8862 C   0  0  0  0  0  0
  -17.6494  -30.6603   24.0561 C   0  0  0  0  0  0
  -25.9073  -34.9389   23.5046 C   0  0  0  0  0  0
  -16.5375  -29.9096   23.6352 C   0  0  0  0  0  0
  -16.7288  -28.6521   23.0365 C   0  0  0  0  0  0
  -26.4561  -31.6565   25.0723 C   0  0  0  0  0  0
  -25.3727  -31.3754   26.1393 C   0  0  0  0  0  0
  -27.0482  -30.2971   24.6341 C   0  0  0  0  0  0
  -27.6062  -32.4368   25.7520 C   0  0  0  0  0  0
  -27.5548  -37.1761   24.8480 C   0  0  0  0  0  0
  -21.4289  -29.3056   22.3580 N   0  0  0  0  0  0
  -26.4255  -37.3739   23.9428 N   0  0  0  0  0  0
  -24.7266  -31.0196   22.0915 N   0  0  0  0  0  0
  -23.4219  -28.8078   23.3014 O   0  0  0  0  0  0
  -28.2467  -26.0704   20.2338 O   0  0  0  0  0  0
  -26.5658  -34.8903   22.4628 O   0  0  0  0  0  0
  -23.5589  -32.1278   23.7028 O   0  0  0  0  0  0
  -28.9877  -18.8449   20.4166 C   0  0  0  0  0  0
  -31.2894  -18.2002   20.1959 C   0  0  0  0  0  0
  -29.2926  -20.3062   20.3098 C   0  0  0  0  0  0
  -31.6273  -19.5842   20.0904 C   0  0  0  0  0  0
  -29.9691  -17.7215   20.3665 C   0  0  0  0  0  0
  -30.6554  -20.6289   20.1284 C   0  0  0  0  0  0
  -28.3234  -21.5848   20.3711 C   0  0  0  0  0  0
  -30.1772  -22.9721   19.5449 C   0  0  0  0  0  0
  -28.8971  -23.1291   20.3876 C   0  0  1  0  0  0
  -34.4143  -19.3071   23.4992 C   0  0  0  0  0  0
  -27.9643  -24.5274   20.0293 C   0  0  0  0  0  0
  -33.7751  -20.2696   21.2943 C   0  0  0  0  0  0
  -33.1002  -19.9596   19.9459 C   0  0  1  0  0  0
  -29.7169  -16.1916   20.4870 N   0  0  0  0  0  0
  -33.7819  -19.0887   22.1846 N   0  3  0  0  0  0
  -27.0998  -21.4305   20.4283 O   0  0  0  0  0  0
  -31.0846  -21.9501   20.0272 O   0  0  0  0  0  0
  -33.7845  -18.9897   19.3338 F   0  0  0  0  0  0
  -31.4683  -12.7897   19.1720 H   0  0  0  0  0  0
  -30.4527  -11.6774   20.0417 H   0  0  0  0  0  0
  -29.8404  -11.7101   17.6045 H   0  0  0  0  0  0
  -29.5988  -13.4384   17.6619 H   0  0  0  0  0  0
  -27.9500  -11.2720   18.9907 H   0  0  0  0  0  0
  -27.3857  -12.4365   17.8211 H   0  0  0  0  0  0
  -27.5821  -14.2498   19.3976 H   0  0  0  0  0  0
  -28.7737  -12.3227   21.4487 H   0  0  0  0  0  0
  -28.3644  -13.9984   21.7467 H   0  0  0  0  0  0
  -25.2777   -9.5673   22.4773 H   0  0  0  0  0  0
  -23.9992   -7.4639   22.7488 H   0  0  0  0  0  0
  -21.0862   -8.8790   19.8945 H   0  0  0  0  0  0
  -22.3744  -10.9673   19.6160 H   0  0  0  0  0  0
  -21.2011   -7.6155   23.9718 H   0  0  0  0  0  0
  -21.1469   -6.0521   25.9073 H   0  0  0  0  0  0
  -22.0600   -2.7611   23.2842 H   0  0  0  0  0  0
  -22.4056  -11.9835   22.4796 H   0  0  0  0  0  0
  -21.1067  -13.1204   22.2651 H   0  0  0  0  0  0
  -24.6279  -15.8378   20.4790 H   0  0  0  0  0  0
  -26.2444  -15.6326   20.0412 H   0  0  0  0  0  0
  -26.7292  -32.5241   23.0971 H   0  0  0  0  0  0
  -25.0168  -33.9600   25.0346 H   0  0  0  0  0  0
  -22.7615  -31.2876   21.3712 H   0  0  0  0  0  0
  -23.3769  -35.9492   23.3304 H   0  0  0  0  0  0
  -24.3537  -36.8837   22.2068 H   0  0  0  0  0  0
  -23.7164  -37.6368   23.6692 H   0  0  0  0  0  0
  -26.1834  -31.4531   20.6260 H   0  0  0  0  0  0
  -26.8820  -30.7382   22.0422 H   0  0  0  0  0  0
  -28.1267  -28.7416   21.2575 H   0  0  0  0  0  0
  -25.8989  -25.8222   18.9923 H   0  0  0  0  0  0
  -23.9828  -27.3014   18.9649 H   0  0  0  0  0  0
  -23.8276  -30.5631   19.3954 H   0  0  0  0  0  0
  -22.7967  -29.2371   19.8301 H   0  0  0  0  0  0
  -25.1294  -36.1813   25.0816 H   0  0  0  0  0  0
  -21.0009  -28.3308   24.1344 H   0  0  0  0  0  0
  -20.5699  -26.2355   23.3622 H   0  0  0  0  0  0
  -21.6654  -26.7432   22.1176 H   0  0  0  0  0  0
  -19.6936  -25.6292   21.1241 H   0  0  0  0  0  0
  -19.6695  -27.3192   20.6757 H   0  0  0  0  0  0
  -17.4212  -26.6715   21.4007 H   0  0  0  0  0  0
  -18.0312  -26.0115   22.9019 H   0  0  0  0  0  0
  -19.7991  -30.7311   24.2197 H   0  0  0  0  0  0
  -17.5065  -31.6286   24.5171 H   0  0  0  0  0  0
  -15.5384  -30.2991   23.7739 H   0  0  0  0  0  0
  -15.8686  -28.0830   22.7112 H   0  0  0  0  0  0
  -24.5908  -30.7116   25.7690 H   0  0  0  0  0  0
  -24.8937  -32.2953   26.4755 H   0  0  0  0  0  0
  -25.7996  -30.8942   27.0202 H   0  0  0  0  0  0
  -26.3151  -29.6645   24.1324 H   0  0  0  0  0  0
  -27.4109  -29.7295   25.4926 H   0  0  0  0  0  0
  -27.9035  -30.4257   23.9701 H   0  0  0  0  0  0
  -27.2628  -33.3720   26.1955 H   0  0  0  0  0  0
  -28.3950  -32.6829   25.0397 H   0  0  0  0  0  0
  -28.0641  -31.8579   26.5553 H   0  0  0  0  0  0
  -28.2548  -38.0070   24.7524 H   0  0  0  0  0  0
  -28.1048  -36.2593   24.6300 H   0  0  0  0  0  0
  -27.2272  -37.1397   25.8885 H   0  0  0  0  0  0
  -20.9516  -29.8763   21.6739 H   0  0  0  0  0  0
  -26.0100  -38.2790   24.1475 H   0  0  0  0  0  0
  -27.9465  -18.5840   20.5450 H   0  0  0  0  0  0
  -32.0935  -17.4824   20.1443 H   0  0  0  0  0  0
  -30.7189  -23.9179   19.5453 H   0  0  0  0  0  0
  -29.9267  -22.7737   18.5013 H   0  0  0  0  0  0
  -29.2167  -23.2734   21.4184 H   0  0  0  0  0  0
  -34.3990  -18.3836   24.0790 H   0  0  0  0  0  0
  -33.8817  -20.0679   24.0703 H   0  0  0  0  0  0
  -35.4533  -19.6187   23.3910 H   0  0  0  0  0  0
  -27.0165  -24.3572   20.5399 H   0  0  0  0  0  0
  -27.7234  -24.4366   18.9707 H   0  0  0  0  0  0
  -33.2668  -21.1021   21.7834 H   0  0  0  0  0  0
  -34.8030  -20.5896   21.1167 H   0  0  0  0  0  0
  -33.1829  -20.8277   19.2896 H   0  0  0  0  0  0
  -28.7462  -15.9614   20.6332 H   0  0  0  0  0  0
  -32.8326  -18.7912   22.3384 H   0  0  0  0  0  0
  -34.2660  -18.3449   21.7064 H   0  0  0  0  0  0
  1 25  1  0  0  0
  1 30  2  0  0  0
  1 84  1  0  0  0
  2  3  1  0  0  0
  2 25  1  0  0  0
  2 89  1  0  0  0
  2 90  1  0  0  0
  3  4  1  0  0  0
  3 91  1  0  0  0
  3 92  1  0  0  0
  4  5  1  0  0  0
  4 93  1  0  0  0
  4 94  1  0  0  0
  5  6  1  0  0  0
  5 26  1  0  0  0
  5 95  1  0  0  0
  6 25  1  0  0  0
  6 96  1  0  0  0
  6 97  1  0  0  0
  7  8  2  0  0  0
  7 26  1  0  0  0
  7 29  1  0  0  0
  8  9  1  0  0  0
  8 22  1  0  0  0
  9 10  1  0  0  0
  9 27  2  0  0  0
 10 11  2  0  0  0
 10 15  1  0  0  0
 11 12  1  0  0  0
 11 98  1  0  0  0
 12 13  2  0  0  0
 12 99  1  0  0  0
 13 14  1  0  0  0
 13 31  1  0  0  0
 14 15  2  0  0  0
 14100  1  0  0  0
 15101  1  0  0  0
 16 17  2  0  0  0
 16 21  1  0  0  0
 16 31  1  0  0  0
 17 18  1  0  0  0
 17102  1  0  0  0
 18 19  2  0  0  0
 18103  1  0  0  0
 19 20  1  0  0  0
 19 24  1  0  0  0
 20 21  2  0  0  0
 20104  1  0  0  0
 21 23  1  0  0  0
 22 28  1  0  0  0
 22 32  2  0  0  0
 26 27  1  0  0  0
 28105  1  0  0  0
 28106  1  0  0  0
 29107  1  0  0  0
 29108  1  0  0  0
 33 34  1  0  0  0
 33 66  1  0  0  0
 33 70  2  0  0  0
 34 36  1  0  0  0
 34 59  1  0  0  0
 34109  1  0  0  0
 35 44  2  0  0  0
 35 45  1  0  0  0
 35 68  1  0  0  0
 36 56  1  0  0  0
 36110  1  0  0  0
 37 39  1  0  0  0
 37 47  1  0  0  0
 37 66  1  0  0  0
 37111  1  0  0  0
 38 43  2  0  0  0
 38 46  1  0  0  0
 38 47  1  0  0  0
 39 64  1  0  0  0
 39 67  2  0  0  0
 40 52  1  0  0  0
 40 53  2  0  0  0
 40 58  1  0  0  0
 41112  1  0  0  0
 41113  1  0  0  0
 41114  1  0  0  0
 41 48  1  0  0  0
 42 43  1  0  0  0
 42 66  1  0  0  0
 42115  1  0  0  0
 42116  1  0  0  0
 43 44  1  0  0  0
 44117  1  0  0  0
 45 46  2  0  0  0
 45118  1  0  0  0
 46119  1  0  0  0
 47120  1  0  0  0
 47121  1  0  0  0
 48 56  1  0  0  0
 48 65  1  0  0  0
 48122  1  0  0  0
 49 50  1  0  0  0
 49 53  1  0  0  0
 49 64  1  0  0  0
 49123  1  0  0  0
 50 51  1  0  0  0
 50124  1  0  0  0
 50125  1  0  0  0
 51 52  1  0  0  0
 51126  1  0  0  0
 51127  1  0  0  0
 52128  1  0  0  0
 52129  1  0  0  0
 53 54  1  0  0  0
 54 55  2  0  0  0
 54130  1  0  0  0
 55 57  1  0  0  0
 55131  1  0  0  0
 56 69  2  0  0  0
 57 58  2  0  0  0
 57132  1  0  0  0
 58133  1  0  0  0
 59 60  1  0  0  0
 59 61  1  0  0  0
 59 62  1  0  0  0
 60134  1  0  0  0
 60135  1  0  0  0
 60136  1  0  0  0
 61137  1  0  0  0
 61138  1  0  0  0
 61139  1  0  0  0
 62140  1  0  0  0
 62141  1  0  0  0
 62142  1  0  0  0
 63 65  1  0  0  0
 63143  1  0  0  0
 63144  1  0  0  0
 63145  1  0  0  0
 64146  1  0  0  0
 65147  1  0  0  0
 68 81  1  0  0  0
 71 73  2  0  0  0
 71 75  1  0  0  0
 71148  1  0  0  0
 72 74  1  0  0  0
 72 75  2  0  0  0
 72149  1  0  0  0
 73 76  1  0  0  0
 73 77  1  0  0  0
 74 76  2  0  0  0
 74 83  1  0  0  0
 75 84  1  0  0  0
 76 87  1  0  0  0
 77 79  1  0  0  0
 77 86  2  0  0  0
 78 79  1  0  0  0
 78 87  1  0  0  0
 78150  1  0  0  0
 78151  1  0  0  0
 79 81  1  0  0  0
 79152  1  0  0  0
 80 85  1  0  0  0
 80153  1  0  0  0
 80154  1  0  0  0
 80155  1  0  0  0
 81156  1  0  0  0
 81157  1  0  0  0
 82 83  1  0  0  0
 82 85  1  0  0  0
 82158  1  0  0  0
 82159  1  0  0  0
 83 88  1  0  0  0
 83160  1  0  0  0
 84161  1  0  0  0
 85162  1  0  0  0
 85163  1  0  0  0
M  CHG  1  85   1
M  ISO  4   1 100  68 101  81 101  84 100
M  END
> <chiral flag>
0

> <version>
0

> <s_m_source_file>
/data/baiqing/PycharmProjects/Reinvent-master-3.2/result/LINK_invent/BTK/process_docking_weight1_custom_sum_contain_oxygen_bond_distance_aromatic_linkinvent_7_9_3/rearranged_h_0160.sdf

> <i_m_source_file_index>
8

> <r_mmod_Potential_Energy-OPLS-2005>
334.644073486328

> <r_mmod_Stretch_Energy-OPLS-2005>
294.177215576172

> <r_mmod_Bend_Energy-OPLS-2005>
265.695861816406

> <r_mmod_Torsional_Energy-OPLS-2005>
243.80973815918

> <r_mmod_Improper_Torsional_Energy-OPLS-2005>
4.60314702987671

> <r_mmod_Van_der_Waal_Energy-OPLS-2005>
136.449279785156

> <r_mmod_Electrostatic_Energy-OPLS-2005>
-385.708923339844

> <r_mmod_Solvation_Energy-OPLS-2005>
-459.147705078125

> <b_mmod_Minimization_Converged-OPLS-2005>
0

> <r_mmod_RMS_Derivative-OPLS-2005>
2.20623517036438

$$$$
8
                    3D
 Structure written by MMmdl.
167176  0  0  1  0            999 V2000
  -30.6452  -14.6477   20.5050 C   0  0  0  0  0  0
  -30.4253  -12.4027   19.4554 C   0  0  0  0  0  0
  -29.5052  -12.5027   18.2214 C   0  0  0  0  0  0
  -28.0284  -12.3390   18.6322 C   0  0  0  0  0  0
  -27.6456  -13.2220   19.8514 C   0  0  2  0  0  0
  -28.6885  -13.1100   20.9840 C   0  0  0  0  0  0
  -25.2537  -13.8183   20.5678 C   0  0  0  0  0  0
  -24.1814  -13.0447   20.9200 C   0  0  0  0  0  0
  -24.6387  -11.6918   20.8748 C   0  0  0  0  0  0
  -23.9059  -10.4306   21.0406 C   0  0  0  0  0  0
  -24.3620   -9.4224   21.9171 C   0  0  0  0  0  0
  -23.6312   -8.2252   22.0744 C   0  0  0  0  0  0
  -22.4289   -8.0275   21.3537 C   0  0  0  0  0  0
  -21.9918   -9.0242   20.4641 C   0  0  0  0  0  0
  -22.7232  -10.2134   20.3053 C   0  0  0  0  0  0
  -21.6864   -6.0742   22.5278 C   0  0  0  0  0  0
  -21.4017   -6.5640   23.8213 C   0  0  0  0  0  0
  -21.3673   -5.6790   24.9174 C   0  0  0  0  0  0
  -21.6052   -4.3052   24.7217 C   0  0  0  0  0  0
  -21.8817   -3.8150   23.4336 C   0  0  0  0  0  0
  -21.9195   -4.6968   22.3400 C   0  0  0  0  0  0
  -22.7835  -13.5240   21.1827 C   0  0  0  0  0  0
  -22.1655   -4.2153   21.0971 F   0  0  0  0  0  0
  -21.5632   -3.4538   25.7724 F   0  0  0  0  0  0
  -29.9959  -13.4451   20.4081 N   0  0  0  0  0  0
  -26.2955  -12.9366   20.3266 N   0  0  0  0  0  0
  -25.9313  -11.6523   20.5752 N   0  0  0  0  0  0
  -22.0459  -12.8268   22.0398 N   0  0  0  0  0  0
  -25.4234  -15.1906   20.4109 N   0  0  0  0  0  0
  -31.8273  -14.7570   20.1691 O   0  0  0  0  0  0
  -21.6649   -6.8880   21.4230 O   0  0  0  0  0  0
  -22.3524  -14.5527   20.6637 O   0  0  0  0  0  0
  -24.6298  -31.8594   23.2026 C   0  0  0  0  0  0
  -25.9147  -32.4757   23.8358 C   0  0  1  0  0  0
  -27.2074  -27.2947   20.1038 C   0  0  0  0  0  0
  -25.5948  -33.8561   24.2277 N   0  0  0  0  0  0
  -23.4223  -30.4896   21.5458 C   0  0  2  0  0  0
  -24.8639  -28.9473   20.1057 C   0  0  0  0  0  0
  -22.7486  -29.4639   22.4905 C   0  0  0  0  0  0
  -18.0290  -28.1374   22.8485 C   0  0  0  0  0  0
  -24.1479  -36.7292   23.2636 C   0  0  0  0  0  0
  -25.9692  -30.7797   21.3804 C   0  0  0  0  0  0
  -26.0375  -29.4096   20.7148 C   0  0  0  0  0  0
  -27.2114  -28.5945   20.7057 C   0  0  0  0  0  0
  -26.0100  -26.9034   19.4559 C   0  0  0  0  0  0
  -24.8533  -27.7010   19.4677 C   0  0  0  0  0  0
  -23.6368  -29.8334   20.1587 C   0  0  0  0  0  0
  -25.4103  -36.3067   24.0324 C   0  0  1  0  0  0
  -20.5895  -28.3692   23.1253 C   0  0  2  0  0  0
  -20.6776  -26.9408   22.5402 C   0  0  0  0  0  0
  -19.5749  -26.6370   21.5208 C   0  0  0  0  0  0
  -18.1927  -26.7917   22.1617 C   0  0  0  0  0  0
  -19.1546  -28.8850   23.2862 C   0  0  0  0  0  0
  -18.9473  -30.1451   23.8874 C   0  0  0  0  0  0
  -17.6473  -30.6572   24.0567 C   0  0  0  0  0  0
  -25.9056  -34.9442   23.5098 C   0  0  0  0  0  0
  -16.5364  -29.9078   23.6333 C   0  0  0  0  0  0
  -16.7273  -28.6502   23.0344 C   0  0  0  0  0  0
  -26.4512  -31.6567   25.0741 C   0  0  0  0  0  0
  -25.3752  -31.3730   26.1469 C   0  0  0  0  0  0
  -27.0361  -30.2969   24.6244 C   0  0  0  0  0  0
  -27.6057  -32.4321   25.7533 C   0  0  0  0  0  0
  -27.5566  -37.1801   24.8462 C   0  0  0  0  0  0
  -21.4198  -29.3053   22.3645 N   0  0  0  0  0  0
  -26.4275  -37.3774   23.9412 N   0  0  0  0  0  0
  -24.6932  -31.0599   22.0983 N   0  0  0  0  0  0
  -23.4210  -28.8166   23.2973 O   0  0  0  0  0  0
  -28.3030  -26.4085   20.1701 O   0  0  0  0  0  0
  -26.5633  -34.8922   22.4666 O   0  0  0  0  0  0
  -23.5449  -32.1422   23.7330 O   0  0  0  0  0  0
  -29.4726  -18.7455   19.4565 C   0  0  0  0  0  0
  -29.1891  -20.0717   19.0020 C   0  0  0  0  0  0
  -29.8632  -18.4994   20.7901 C   0  0  0  0  0  0
  -29.8656  -19.6629   21.6229 C   0  0  0  0  0  0
  -29.2384  -21.1732   19.9132 C   0  0  0  0  0  0
  -29.5331  -22.6773   18.1029 C   0  0  0  0  0  0
  -28.8333  -20.2829   17.5222 C   0  0  1  0  0  0
  -28.7852  -21.7782   17.1118 C   0  0  1  0  0  0
  -30.2738  -19.5893   23.0814 C   0  0  0  0  0  0
  -29.7679  -19.5085   16.5650 C   0  0  0  0  0  0
  -27.3501  -22.2627   16.8536 C   0  0  0  0  0  0
  -30.4268  -17.0990   21.2779 C   0  0  0  0  0  0
  -29.0545  -23.7902   20.2923 C   0  0  0  0  0  0
  -28.0857  -24.9760   19.8098 C   0  0  0  0  0  0
  -29.5500  -20.9292   21.2052 N   0  0  0  0  0  0
  -29.0299  -22.5302   19.4659 N   0  0  0  0  0  0
  -29.9022  -15.7578   20.8288 N   0  0  0  0  0  0
  -31.4683  -12.5201   19.1578 H   0  0  0  0  0  0
  -30.3509  -11.4143   19.9145 H   0  0  0  0  0  0
  -29.7767  -11.7465   17.4837 H   0  0  0  0  0  0
  -29.6461  -13.4695   17.7357 H   0  0  0  0  0  0
  -27.8716  -11.2873   18.8742 H   0  0  0  0  0  0
  -27.3755  -12.5573   17.7856 H   0  0  0  0  0  0
  -27.6559  -14.2534   19.4963 H   0  0  0  0  0  0
  -28.7051  -12.0987   21.3958 H   0  0  0  0  0  0
  -28.4349  -13.7721   21.8128 H   0  0  0  0  0  0
  -25.2755   -9.5724   22.4748 H   0  0  0  0  0  0
  -24.0023   -7.4665   22.7485 H   0  0  0  0  0  0
  -21.0833   -8.8762   19.8974 H   0  0  0  0  0  0
  -22.3659  -10.9669   19.6174 H   0  0  0  0  0  0
  -21.1995   -7.6146   23.9719 H   0  0  0  0  0  0
  -21.1497   -6.0514   25.9080 H   0  0  0  0  0  0
  -22.0583   -2.7605   23.2826 H   0  0  0  0  0  0
  -22.4068  -11.9968   22.4861 H   0  0  0  0  0  0
  -21.1060  -13.1301   22.2551 H   0  0  0  0  0  0
  -24.6510  -15.8396   20.5222 H   0  0  0  0  0  0
  -26.2693  -15.6346   20.0782 H   0  0  0  0  0  0
  -26.7210  -32.5406   23.1099 H   0  0  0  0  0  0
  -25.0065  -33.9692   25.0395 H   0  0  0  0  0  0
  -22.7164  -31.3113   21.4061 H   0  0  0  0  0  0
  -23.3738  -35.9628   23.3283 H   0  0  0  0  0  0
  -24.3577  -36.8932   22.2056 H   0  0  0  0  0  0
  -23.7234  -37.6488   23.6671 H   0  0  0  0  0  0
  -26.1175  -31.5465   20.6186 H   0  0  0  0  0  0
  -26.8438  -30.8140   22.0195 H   0  0  0  0  0  0
  -28.1107  -28.9462   21.1939 H   0  0  0  0  0  0
  -25.9253  -25.9625   18.9332 H   0  0  0  0  0  0
  -23.9553  -27.3433   18.9825 H   0  0  0  0  0  0
  -23.7653  -30.6164   19.4104 H   0  0  0  0  0  0
  -22.7524  -29.2742   19.8485 H   0  0  0  0  0  0
  -25.1283  -36.1906   25.0817 H   0  0  0  0  0  0
  -21.0000  -28.3272   24.1368 H   0  0  0  0  0  0
  -20.5662  -26.2320   23.3619 H   0  0  0  0  0  0
  -21.6644  -26.7423   22.1203 H   0  0  0  0  0  0
  -19.6919  -25.6282   21.1232 H   0  0  0  0  0  0
  -19.6671  -27.3182   20.6741 H   0  0  0  0  0  0
  -17.4209  -26.6674   21.4001 H   0  0  0  0  0  0
  -18.0315  -26.0044   22.8996 H   0  0  0  0  0  0
  -19.7955  -30.7272   24.2215 H   0  0  0  0  0  0
  -17.5033  -31.6247   24.5182 H   0  0  0  0  0  0
  -15.5358  -30.2976   23.7662 H   0  0  0  0  0  0
  -15.8677  -28.0817   22.7044 H   0  0  0  0  0  0
  -24.5915  -30.7081   25.7805 H   0  0  0  0  0  0
  -24.8969  -32.2915   26.4884 H   0  0  0  0  0  0
  -25.8087  -30.8916   27.0246 H   0  0  0  0  0  0
  -26.2946  -29.6705   24.1263 H   0  0  0  0  0  0
  -27.4004  -29.7232   25.4775 H   0  0  0  0  0  0
  -27.8845  -30.4198   23.9512 H   0  0  0  0  0  0
  -27.2617  -33.3594   26.2127 H   0  0  0  0  0  0
  -28.3870  -32.6928   25.0385 H   0  0  0  0  0  0
  -28.0727  -31.8456   26.5453 H   0  0  0  0  0  0
  -28.2583  -38.0096   24.7496 H   0  0  0  0  0  0
  -28.1058  -36.2630   24.6285 H   0  0  0  0  0  0
  -27.2303  -37.1451   25.8872 H   0  0  0  0  0  0
  -20.9364  -29.8800   21.6882 H   0  0  0  0  0  0
  -26.0144  -38.2843   24.1418 H   0  0  0  0  0  0
  -29.4454  -17.9118   18.7717 H   0  0  0  0  0  0
  -29.5002  -23.7135   17.7691 H   0  0  0  0  0  0
  -30.5917  -22.4089   18.1006 H   0  0  0  0  0  0
  -27.8365  -19.8578   17.3951 H   0  0  0  0  0  0
  -29.2987  -21.8983   16.1562 H   0  0  0  0  0  0
  -29.6586  -18.8671   23.6161 H   0  0  0  0  0  0
  -30.1548  -20.5538   23.5789 H   0  0  0  0  0  0
  -31.3187  -19.2929   23.1728 H   0  0  0  0  0  0
  -30.8114  -19.7990   16.6981 H   0  0  0  0  0  0
  -29.5039  -19.6983   15.5247 H   0  0  0  0  0  0
  -29.7018  -18.4293   16.6925 H   0  0  0  0  0  0
  -26.7180  -22.1259   17.7309 H   0  0  0  0  0  0
  -26.9036  -21.7136   16.0224 H   0  0  0  0  0  0
  -27.3341  -23.3208   16.5902 H   0  0  0  0  0  0
  -30.3575  -17.0627   22.3644 H   0  0  0  0  0  0
  -31.4989  -17.1341   21.0782 H   0  0  0  0  0  0
  -28.8218  -23.5421   21.3286 H   0  0  0  0  0  0
  -30.0817  -24.1562   20.2996 H   0  0  0  0  0  0
  -27.1044  -24.6674   20.1725 H   0  0  0  0  0  0
  -28.0201  -24.9633   18.7226 H   0  0  0  0  0  0
  -28.9229  -15.5850   20.9922 H   0  0  0  0  0  0
  1 25  1  0  0  0
  1 30  2  0  0  0
  1 87  1  0  0  0
  2  3  1  0  0  0
  2 25  1  0  0  0
  2 88  1  0  0  0
  2 89  1  0  0  0
  3  4  1  0  0  0
  3 90  1  0  0  0
  3 91  1  0  0  0
  4  5  1  0  0  0
  4 92  1  0  0  0
  4 93  1  0  0  0
  5  6  1  0  0  0
  5 26  1  0  0  0
  5 94  1  0  0  0
  6 25  1  0  0  0
  6 95  1  0  0  0
  6 96  1  0  0  0
  7  8  2  0  0  0
  7 26  1  0  0  0
  7 29  1  0  0  0
  8  9  1  0  0  0
  8 22  1  0  0  0
  9 10  1  0  0  0
  9 27  2  0  0  0
 10 11  2  0  0  0
 10 15  1  0  0  0
 11 12  1  0  0  0
 11 97  1  0  0  0
 12 13  2  0  0  0
 12 98  1  0  0  0
 13 14  1  0  0  0
 13 31  1  0  0  0
 14 15  2  0  0  0
 14 99  1  0  0  0
 15100  1  0  0  0
 16 17  2  0  0  0
 16 21  1  0  0  0
 16 31  1  0  0  0
 17 18  1  0  0  0
 17101  1  0  0  0
 18 19  2  0  0  0
 18102  1  0  0  0
 19 20  1  0  0  0
 19 24  1  0  0  0
 20 21  2  0  0  0
 20103  1  0  0  0
 21 23  1  0  0  0
 22 28  1  0  0  0
 22 32  2  0  0  0
 26 27  1  0  0  0
 28104  1  0  0  0
 28105  1  0  0  0
 29106  1  0  0  0
 29107  1  0  0  0
 33 34  1  0  0  0
 33 66  1  0  0  0
 33 70  2  0  0  0
 34 36  1  0  0  0
 34 59  1  0  0  0
 34108  1  0  0  0
 35 44  2  0  0  0
 35 45  1  0  0  0
 35 68  1  0  0  0
 36 56  1  0  0  0
 36109  1  0  0  0
 37 39  1  0  0  0
 37 47  1  0  0  0
 37 66  1  0  0  0
 37110  1  0  0  0
 38 43  2  0  0  0
 38 46  1  0  0  0
 38 47  1  0  0  0
 39 64  1  0  0  0
 39 67  2  0  0  0
 40 52  1  0  0  0
 40 53  2  0  0  0
 40 58  1  0  0  0
 41111  1  0  0  0
 41112  1  0  0  0
 41113  1  0  0  0
 41 48  1  0  0  0
 42 43  1  0  0  0
 42 66  1  0  0  0
 42114  1  0  0  0
 42115  1  0  0  0
 43 44  1  0  0  0
 44116  1  0  0  0
 45 46  2  0  0  0
 45117  1  0  0  0
 46118  1  0  0  0
 47119  1  0  0  0
 47120  1  0  0  0
 48 56  1  0  0  0
 48 65  1  0  0  0
 48121  1  0  0  0
 49 50  1  0  0  0
 49 53  1  0  0  0
 49 64  1  0  0  0
 49122  1  0  0  0
 50 51  1  0  0  0
 50123  1  0  0  0
 50124  1  0  0  0
 51 52  1  0  0  0
 51125  1  0  0  0
 51126  1  0  0  0
 52127  1  0  0  0
 52128  1  0  0  0
 53 54  1  0  0  0
 54 55  2  0  0  0
 54129  1  0  0  0
 55 57  1  0  0  0
 55130  1  0  0  0
 56 69  2  0  0  0
 57 58  2  0  0  0
 57131  1  0  0  0
 58132  1  0  0  0
 59 60  1  0  0  0
 59 61  1  0  0  0
 59 62  1  0  0  0
 60133  1  0  0  0
 60134  1  0  0  0
 60135  1  0  0  0
 61136  1  0  0  0
 61137  1  0  0  0
 61138  1  0  0  0
 62139  1  0  0  0
 62140  1  0  0  0
 62141  1  0  0  0
 63 65  1  0  0  0
 63142  1  0  0  0
 63143  1  0  0  0
 63144  1  0  0  0
 64145  1  0  0  0
 65146  1  0  0  0
 68 84  1  0  0  0
 71 72  2  0  0  0
 71 73  1  0  0  0
 71147  1  0  0  0
 72 75  1  0  0  0
 72 77  1  0  0  0
 73 74  2  0  0  0
 73 82  1  0  0  0
 74 79  1  0  0  0
 74 85  1  0  0  0
 75 85  2  0  0  0
 75 86  1  0  0  0
 76 78  1  0  0  0
 76 86  1  0  0  0
 76148  1  0  0  0
 76149  1  0  0  0
 77 78  1  0  0  0
 77 80  1  0  0  0
 77150  1  0  0  0
 78 81  1  0  0  0
 78151  1  0  0  0
 79152  1  0  0  0
 79153  1  0  0  0
 79154  1  0  0  0
 80155  1  0  0  0
 80156  1  0  0  0
 80157  1  0  0  0
 81158  1  0  0  0
 81159  1  0  0  0
 81160  1  0  0  0
 82 87  1  0  0  0
 82161  1  0  0  0
 82162  1  0  0  0
 83 84  1  0  0  0
 83 86  1  0  0  0
 83163  1  0  0  0
 83164  1  0  0  0
 84165  1  0  0  0
 84166  1  0  0  0
 87167  1  0  0  0
M  ISO  4   1 100  68 101  84 101  87 100
M  END
> <chiral flag>
0

> <version>
0

> <s_m_source_file>
/data/baiqing/PycharmProjects/Reinvent-master-3.2/result/LINK_invent/BTK/process_docking_weight1_custom_sum_contain_oxygen_bond_distance_aromatic_linkinvent_7_9_3/rearranged_h_0160.sdf

> <i_m_source_file_index>
9

> <r_mmod_Potential_Energy-OPLS-2005>
-120.756683349609

> <r_mmod_Stretch_Energy-OPLS-2005>
91.6825180053711

> <r_mmod_Bend_Energy-OPLS-2005>
167.007598876953

> <r_mmod_Torsional_Energy-OPLS-2005>
220.70930480957

> <r_mmod_Improper_Torsional_Energy-OPLS-2005>
7.2311315536499

> <r_mmod_Van_der_Waal_Energy-OPLS-2005>
165.111877441406

> <r_mmod_Electrostatic_Energy-OPLS-2005>
-596.25732421875

> <r_mmod_Solvation_Energy-OPLS-2005>
-235.795639038086

> <b_mmod_Minimization_Converged-OPLS-2005>
0

> <r_mmod_RMS_Derivative-OPLS-2005>
2.65422081947327

$$$$
9
                    3D
 Structure written by MMmdl.
178188  0  0  1  0            999 V2000
  -28.7423  -16.4165   20.4761 C   0  0  0  0  0  0
  -30.0196  -13.9030   19.6160 C   0  0  0  0  0  0
  -29.4781  -12.9374   18.4770 C   0  0  0  0  0  0
  -28.1632  -12.2692   18.8873 C   0  0  0  0  0  0
  -27.4227  -13.2617   19.7875 C   0  0  2  0  0  0
  -28.2207  -13.7887   20.9719 C   0  0  0  0  0  0
  -25.1513  -13.8015   20.5563 C   0  0  0  0  0  0
  -24.1111  -13.0223   20.9425 C   0  0  0  0  0  0
  -24.5832  -11.6734   20.8907 C   0  0  0  0  0  0
  -23.8721  -10.4150   21.0563 C   0  0  0  0  0  0
  -24.3432   -9.4102   21.9272 C   0  0  0  0  0  0
  -23.6195   -8.2102   22.0766 C   0  0  0  0  0  0
  -22.4182   -8.0157   21.3545 C   0  0  0  0  0  0
  -21.9756   -9.0093   20.4646 C   0  0  0  0  0  0
  -22.6990  -10.1996   20.3115 C   0  0  0  0  0  0
  -21.6804   -6.0674   22.5281 C   0  0  0  0  0  0
  -21.3972   -6.5605   23.8207 C   0  0  0  0  0  0
  -21.3639   -5.6774   24.9185 C   0  0  0  0  0  0
  -21.6044   -4.3036   24.7243 C   0  0  0  0  0  0
  -21.8831   -3.8111   23.4371 C   0  0  0  0  0  0
  -21.9183   -4.6917   22.3419 C   0  0  0  0  0  0
  -22.7252  -13.5073   21.2101 C   0  0  0  0  0  0
  -22.1663   -4.2116   21.0994 F   0  0  0  0  0  0
  -21.5637   -3.4523   25.7757 F   0  0  0  0  0  0
  -28.9359  -14.8729   20.3203 N   0  0  0  0  0  0
  -26.1524  -12.9037   20.2666 N   0  0  0  0  0  0
  -25.8593  -11.6244   20.5497 N   0  0  0  0  0  0
  -21.9934  -12.8096   22.0659 N   0  0  0  0  0  0
  -25.3213  -15.1773   20.3760 N   0  0  0  0  0  0
  -30.0289  -16.5713   20.3900 O   0  0  0  0  0  0
  -21.6570   -6.8762   21.4227 O   0  0  0  0  0  0
  -22.3084  -14.5434   20.6925 O   0  0  0  0  0  0
  -24.6584  -31.9440   23.1656 C   0  0  0  0  0  0
  -25.9366  -32.5129   23.8423 C   0  0  1  0  0  0
  -27.0433  -27.4143   20.4141 C   0  0  0  0  0  0
  -25.6175  -33.8832   24.2486 N   0  0  0  0  0  0
  -23.4934  -30.6444   21.4270 C   0  0  2  0  0  0
  -24.9064  -29.1028   19.9863 C   0  0  0  0  0  0
  -23.0225  -29.5343   22.3239 C   0  0  0  0  0  0
  -18.4969  -27.3718   22.5144 C   0  0  0  0  0  0
  -24.1493  -36.7407   23.2623 C   0  0  0  0  0  0
  -26.0017  -30.9482   21.2952 C   0  0  0  0  0  0
  -26.0565  -29.5911   20.6176 C   0  0  0  0  0  0
  -27.1992  -28.7797   20.7170 C   0  0  0  0  0  0
  -25.9982  -26.9714   19.5854 C   0  0  0  0  0  0
  -24.9001  -27.8270   19.3918 C   0  0  0  0  0  0
  -23.7088  -30.0200   20.0152 C   0  0  0  0  0  0
  -25.4107  -36.3241   24.0350 C   0  0  1  0  0  0
  -21.4669  -27.8264   22.6668 C   0  0  2  0  0  0
  -22.3415  -25.7341   22.9580 C   0  0  0  0  0  0
  -20.2841  -24.1911   22.9099 C   0  0  0  0  0  0
  -18.6217  -25.5122   22.3151 C   0  0  0  0  0  0
  -19.6950  -28.3311   22.7393 C   0  0  0  0  0  0
  -19.3574  -29.6289   23.3689 C   0  0  0  0  0  0
  -18.0528  -30.1341   23.6750 C   0  0  0  0  0  0
  -25.9087  -34.9648   23.5162 C   0  0  0  0  0  0
  -16.9551  -29.3273   23.3497 C   0  0  0  0  0  0
  -17.1941  -28.0120   22.8121 C   0  0  0  0  0  0
  -26.4456  -31.6626   25.0690 C   0  0  0  0  0  0
  -25.3560  -31.3651   26.1253 C   0  0  0  0  0  0
  -27.0206  -30.3104   24.5877 C   0  0  0  0  0  0
  -27.6010  -32.4151   25.7690 C   0  0  0  0  0  0
  -27.5601  -37.1878   24.8462 C   0  0  0  0  0  0
  -21.9675  -28.8964   21.9225 N   0  0  0  0  0  0
  -26.4294  -37.3912   23.9441 N   0  0  0  0  0  0
  -24.7349  -31.2145   22.0122 N   0  0  0  0  0  0
  -23.6550  -29.1725   23.3058 O   0  0  0  0  0  0
  -27.3309  -26.5594   21.4429 O   0  0  0  0  0  0
  -26.5522  -34.9074   22.4644 O   0  0  0  0  0  0
  -23.5688  -32.1855   23.7084 O   0  0  0  0  0  0
  -23.8786  -23.0646   19.0355 C   0  0  0  0  0  0
  -23.4591  -22.3126   21.4121 C   0  0  0  0  0  0
  -22.9026  -23.9428   19.7144 C   0  0  0  0  0  0
  -22.4167  -23.7732   21.0132 C   0  0  0  0  0  0
  -24.6544  -21.8528   19.4426 C   0  0  0  0  0  0
  -24.6965  -21.1417   20.7218 C   0  0  0  0  0  0
  -22.2664  -25.2247   19.1049 C   0  0  0  0  0  0
  -21.6528  -26.2819   20.1535 C   0  0  0  0  0  0
  -20.1385  -26.8012   25.8343 C   0  0  0  0  0  0
  -19.2871  -25.9566   24.8589 C   0  0  0  0  0  0
  -20.9552  -25.5077   21.3258 C   0  0  2  0  0  0
  -21.3516  -26.2486   25.1051 C   0  0  1  0  0  0
  -25.5953  -21.3361   18.3682 C   0  0  0  0  0  0
  -22.9815  -27.8749   26.4433 C   0  0  0  0  0  0
  -26.2350  -19.4532   20.9890 C   0  0  0  0  0  0
  -25.3486  -26.1461   23.6747 C   0  0  0  0  0  0
  -26.4828  -26.9319   22.7232 C   0  0  0  0  0  0
  -23.0072  -26.7315   25.4149 C   0  0  2  0  0  0
  -20.3453  -26.2104   23.7678 N   0  0  0  0  0  0
  -27.3525  -17.6131   20.6034 N   0  0  0  0  0  0
  -24.2502  -27.0297   24.4312 N   0  3  0  0  0  0
  -30.7686  -14.5370   19.1404 H   0  0  0  0  0  0
  -30.5968  -13.3476   20.3581 H   0  0  0  0  0  0
  -30.2289  -12.1979   18.1972 H   0  0  0  0  0  0
  -29.2931  -13.5395   17.5867 H   0  0  0  0  0  0
  -28.3776  -11.3610   19.4524 H   0  0  0  0  0  0
  -27.5705  -11.9823   18.0186 H   0  0  0  0  0  0
  -27.1963  -14.0705   19.0858 H   0  0  0  0  0  0
  -28.8116  -13.0261   21.4817 H   0  0  0  0  0  0
  -27.5903  -14.2405   21.7406 H   0  0  0  0  0  0
  -25.2571   -9.5657   22.4842 H   0  0  0  0  0  0
  -23.9949   -7.4486   22.7455 H   0  0  0  0  0  0
  -21.0705   -8.8579   19.8934 H   0  0  0  0  0  0
  -22.3446  -10.9567   19.6251 H   0  0  0  0  0  0
  -21.1937   -7.6110   23.9705 H   0  0  0  0  0  0
  -21.1455   -6.0502   25.9087 H   0  0  0  0  0  0
  -22.0633   -2.7579   23.2874 H   0  0  0  0  0  0
  -22.3556  -11.9746   22.5030 H   0  0  0  0  0  0
  -21.0573  -13.1148   22.2926 H   0  0  0  0  0  0
  -24.4395  -15.6775   20.4362 H   0  0  0  0  0  0
  -25.7817  -15.3878   19.4994 H   0  0  0  0  0  0
  -26.7648  -32.5902   23.1439 H   0  0  0  0  0  0
  -25.0423  -33.9937   25.0713 H   0  0  0  0  0  0
  -22.7169  -31.4099   21.3702 H   0  0  0  0  0  0
  -23.3768  -35.9725   23.3267 H   0  0  0  0  0  0
  -24.3609  -36.9030   22.2041 H   0  0  0  0  0  0
  -23.7220  -37.6604   23.6629 H   0  0  0  0  0  0
  -26.1409  -31.7227   20.5395 H   0  0  0  0  0  0
  -26.8793  -30.9834   21.9294 H   0  0  0  0  0  0
  -28.0155  -29.1016   21.3498 H   0  0  0  0  0  0
  -25.8853  -25.9241   19.3421 H   0  0  0  0  0  0
  -24.0264  -27.4869   18.8631 H   0  0  0  0  0  0
  -23.9000  -30.8248   19.3041 H   0  0  0  0  0  0
  -22.8246  -29.5142   19.6254 H   0  0  0  0  0  0
  -25.1261  -36.2109   25.0836 H   0  0  0  0  0  0
  -21.6109  -28.2212   23.6767 H   0  0  0  0  0  0
  -22.9228  -25.2358   23.7187 H   0  0  0  0  0  0
  -23.1174  -25.6696   22.1973 H   0  0  0  0  0  0
  -20.1395  -23.7174   23.8812 H   0  0  0  0  0  0
  -20.3400  -23.3015   22.2792 H   0  0  0  0  0  0
  -18.2682  -25.2942   21.3059 H   0  0  0  0  0  0
  -17.7642  -25.1288   22.8682 H   0  0  0  0  0  0
  -20.1895  -30.2638   23.6404 H   0  0  0  0  0  0
  -17.9227  -31.1080   24.1286 H   0  0  0  0  0  0
  -15.9467  -29.6637   23.5506 H   0  0  0  0  0  0
  -16.3204  -27.3882   22.6834 H   0  0  0  0  0  0
  -24.5601  -30.7325   25.7299 H   0  0  0  0  0  0
  -24.8936  -32.2804   26.4955 H   0  0  0  0  0  0
  -25.7700  -30.8427   26.9887 H   0  0  0  0  0  0
  -26.2782  -29.7213   24.0516 H   0  0  0  0  0  0
  -27.3641  -29.7022   25.4256 H   0  0  0  0  0  0
  -27.8781  -30.4475   23.9272 H   0  0  0  0  0  0
  -27.2663  -33.3439   26.2328 H   0  0  0  0  0  0
  -28.3963  -32.6698   25.0668 H   0  0  0  0  0  0
  -28.0491  -31.8135   26.5609 H   0  0  0  0  0  0
  -28.2587  -38.0207   24.7577 H   0  0  0  0  0  0
  -28.1130  -36.2751   24.6192 H   0  0  0  0  0  0
  -27.2339  -37.1421   25.8865 H   0  0  0  0  0  0
  -21.4513  -29.2098   21.1128 H   0  0  0  0  0  0
  -26.0195  -38.2986   24.1490 H   0  0  0  0  0  0
  -24.0797  -23.3907   18.0240 H   0  0  0  0  0  0
  -23.3123  -22.0685   22.4553 H   0  0  0  0  0  0
  -21.4602  -24.8889   18.4514 H   0  0  0  0  0  0
  -22.9879  -25.6988   18.4448 H   0  0  0  0  0  0
  -20.9824  -27.0023   19.6825 H   0  0  0  0  0  0
  -22.5082  -26.8463   20.5064 H   0  0  0  0  0  0
  -20.0594  -26.4957   26.8788 H   0  0  0  0  0  0
  -20.0103  -27.8783   25.7219 H   0  0  0  0  0  0
  -18.3044  -26.3928   24.6976 H   0  0  0  0  0  0
  -19.2048  -24.9197   25.1836 H   0  0  0  0  0  0
  -20.1277  -25.1614   20.7135 H   0  0  0  0  0  0
  -21.3882  -25.1950   25.4024 H   0  0  0  0  0  0
  -26.4939  -21.9526   18.3416 H   0  0  0  0  0  0
  -25.1313  -21.3832   17.3832 H   0  0  0  0  0  0
  -25.8880  -20.3009   18.5323 H   0  0  0  0  0  0
  -22.4054  -27.5923   27.3244 H   0  0  0  0  0  0
  -22.5301  -28.7767   26.0294 H   0  0  0  0  0  0
  -23.9824  -28.1302   26.7893 H   0  0  0  0  0  0
  -26.0124  -19.2402   22.0351 H   0  0  0  0  0  0
  -27.1042  -20.1074   21.0427 H   0  0  0  0  0  0
  -25.8916  -25.5957   24.4428 H   0  0  0  0  0  0
  -24.9352  -25.3557   23.0612 H   0  0  0  0  0  0
  -27.2158  -27.3440   23.4181 H   0  0  0  0  0  0
  -25.8691  -27.7930   22.4795 H   0  0  0  0  0  0
  -23.4158  -25.8977   25.9875 H   0  0  0  0  0  0
  -26.5933  -16.9406   20.5572 H   0  0  0  0  0  0
  -23.9125  -27.7445   23.7803 H   0  0  0  0  0  0
  -24.8322  -27.5752   25.0464 H   0  0  0  0  0  0
  1 25  1  0  0  0
  1 30  2  0  0  0
  1 90  1  0  0  0
  2  3  1  0  0  0
  2 25  1  0  0  0
  2 92  1  0  0  0
  2 93  1  0  0  0
  3  4  1  0  0  0
  3 94  1  0  0  0
  3 95  1  0  0  0
  4  5  1  0  0  0
  4 96  1  0  0  0
  4 97  1  0  0  0
  5  6  1  0  0  0
  5 26  1  0  0  0
  5 98  1  0  0  0
  6 25  1  0  0  0
  6 99  1  0  0  0
  6100  1  0  0  0
  7  8  2  0  0  0
  7 26  1  0  0  0
  7 29  1  0  0  0
  8  9  1  0  0  0
  8 22  1  0  0  0
  9 10  1  0  0  0
  9 27  2  0  0  0
 10 11  2  0  0  0
 10 15  1  0  0  0
 11 12  1  0  0  0
 11101  1  0  0  0
 12 13  2  0  0  0
 12102  1  0  0  0
 13 14  1  0  0  0
 13 31  1  0  0  0
 14 15  2  0  0  0
 14103  1  0  0  0
 15104  1  0  0  0
 16 17  2  0  0  0
 16 21  1  0  0  0
 16 31  1  0  0  0
 17 18  1  0  0  0
 17105  1  0  0  0
 18 19  2  0  0  0
 18106  1  0  0  0
 19 20  1  0  0  0
 19 24  1  0  0  0
 20 21  2  0  0  0
 20107  1  0  0  0
 21 23  1  0  0  0
 22 28  1  0  0  0
 22 32  2  0  0  0
 26 27  1  0  0  0
 28108  1  0  0  0
 28109  1  0  0  0
 29110  1  0  0  0
 29111  1  0  0  0
 33 34  1  0  0  0
 33 66  1  0  0  0
 33 70  2  0  0  0
 34 36  1  0  0  0
 34 59  1  0  0  0
 34112  1  0  0  0
 35 44  2  0  0  0
 35 45  1  0  0  0
 35 68  1  0  0  0
 36 56  1  0  0  0
 36113  1  0  0  0
 37 39  1  0  0  0
 37 47  1  0  0  0
 37 66  1  0  0  0
 37114  1  0  0  0
 38 43  2  0  0  0
 38 46  1  0  0  0
 38 47  1  0  0  0
 39 64  1  0  0  0
 39 67  2  0  0  0
 40 52  1  0  0  0
 40 53  2  0  0  0
 40 58  1  0  0  0
 41115  1  0  0  0
 41116  1  0  0  0
 41117  1  0  0  0
 41 48  1  0  0  0
 42 43  1  0  0  0
 42 66  1  0  0  0
 42118  1  0  0  0
 42119  1  0  0  0
 43 44  1  0  0  0
 44120  1  0  0  0
 45 46  2  0  0  0
 45121  1  0  0  0
 46122  1  0  0  0
 47123  1  0  0  0
 47124  1  0  0  0
 48 56  1  0  0  0
 48 65  1  0  0  0
 48125  1  0  0  0
 49 50  1  0  0  0
 49 53  1  0  0  0
 49 64  1  0  0  0
 49126  1  0  0  0
 50 51  1  0  0  0
 50127  1  0  0  0
 50128  1  0  0  0
 51 52  1  0  0  0
 51129  1  0  0  0
 51130  1  0  0  0
 52131  1  0  0  0
 52132  1  0  0  0
 53 54  1  0  0  0
 54 55  2  0  0  0
 54133  1  0  0  0
 55 57  1  0  0  0
 55134  1  0  0  0
 56 69  2  0  0  0
 57 58  2  0  0  0
 57135  1  0  0  0
 58136  1  0  0  0
 59 60  1  0  0  0
 59 61  1  0  0  0
 59 62  1  0  0  0
 60137  1  0  0  0
 60138  1  0  0  0
 60139  1  0  0  0
 61140  1  0  0  0
 61141  1  0  0  0
 61142  1  0  0  0
 62143  1  0  0  0
 62144  1  0  0  0
 62145  1  0  0  0
 63 65  1  0  0  0
 63146  1  0  0  0
 63147  1  0  0  0
 63148  1  0  0  0
 64149  1  0  0  0
 65150  1  0  0  0
 68 87  1  0  0  0
 71 73  2  0  0  0
 71 75  1  0  0  0
 71151  1  0  0  0
 72 74  2  0  0  0
 72 76  1  0  0  0
 72152  1  0  0  0
 73 74  1  0  0  0
 73 77  1  0  0  0
 74 81  1  0  0  0
 75 76  2  0  0  0
 75 83  1  0  0  0
 76 85  1  0  0  0
 77 78  1  0  0  0
 77153  1  0  0  0
 77154  1  0  0  0
 78 81  1  0  0  0
 78155  1  0  0  0
 78156  1  0  0  0
 79 80  1  0  0  0
 79157  1  0  0  0
 79158  1  0  0  0
 79 82  1  0  0  0
 80159  1  0  0  0
 80160  1  0  0  0
 80 89  1  0  0  0
 81 89  1  0  0  0
 81161  1  0  0  0
 82 88  1  0  0  0
 82 89  1  0  0  0
 82162  1  0  0  0
 83163  1  0  0  0
 83164  1  0  0  0
 83165  1  0  0  0
 84166  1  0  0  0
 84167  1  0  0  0
 84168  1  0  0  0
 84 88  1  0  0  0
 85 90  1  0  0  0
 85169  1  0  0  0
 85170  1  0  0  0
 86 87  1  0  0  0
 86 91  1  0  0  0
 86171  1  0  0  0
 86172  1  0  0  0
 87173  1  0  0  0
 87174  1  0  0  0
 88 91  1  0  0  0
 88175  1  0  0  0
 90176  1  0  0  0
 91177  1  0  0  0
 91178  1  0  0  0
M  CHG  1  91   1
M  ISO  4   1 100  68 101  87 101  90 100
M  END
> <chiral flag>
0

> <version>
0

> <s_m_source_file>
/data/baiqing/PycharmProjects/Reinvent-master-3.2/result/LINK_invent/BTK/process_docking_weight1_custom_sum_contain_oxygen_bond_distance_aromatic_linkinvent_7_9_3/rearranged_h_0160.sdf

> <i_m_source_file_index>
10

> <r_mmod_Potential_Energy-OPLS-2005>
17959.578125

> <r_mmod_Stretch_Energy-OPLS-2005>
9118.90234375

> <r_mmod_Bend_Energy-OPLS-2005>
1930.58984375

> <r_mmod_Torsional_Energy-OPLS-2005>
432.640472412109

> <r_mmod_Improper_Torsional_Energy-OPLS-2005>
30.1098155975342

> <r_mmod_Van_der_Waal_Energy-OPLS-2005>
2380.22436523438

> <r_mmod_Electrostatic_Energy-OPLS-2005>
-422.571075439453

> <r_mmod_Solvation_Energy-OPLS-2005>
-386.909362792969

> <b_mmod_Minimization_Converged-OPLS-2005>
0

> <r_mmod_RMS_Derivative-OPLS-2005>
4.97982549667358

$$$$
10
                    3D
 Structure written by MMmdl.
170180  0  0  1  0            999 V2000
  -30.7049  -14.4121   20.5799 C   0  0  0  0  0  0
  -30.4043  -12.2766   19.4029 C   0  0  0  0  0  0
  -29.4805  -12.5242   18.1940 C   0  0  0  0  0  0
  -27.9998  -12.3918   18.6018 C   0  0  0  0  0  0
  -27.6602  -13.2057   19.8817 C   0  0  2  0  0  0
  -28.6981  -12.9457   20.9943 C   0  0  0  0  0  0
  -25.2575  -13.8172   20.5708 C   0  0  0  0  0  0
  -24.1825  -13.0420   20.9149 C   0  0  0  0  0  0
  -24.6387  -11.6892   20.8687 C   0  0  0  0  0  0
  -23.9055  -10.4272   21.0365 C   0  0  0  0  0  0
  -24.3611   -9.4201   21.9147 C   0  0  0  0  0  0
  -23.6291   -8.2238   22.0741 C   0  0  0  0  0  0
  -22.4265   -8.0286   21.3541 C   0  0  0  0  0  0
  -21.9893   -9.0239   20.4619 C   0  0  0  0  0  0
  -22.7228  -10.2111   20.3018 C   0  0  0  0  0  0
  -21.6855   -6.0741   22.5272 C   0  0  0  0  0  0
  -21.4028   -6.5642   23.8210 C   0  0  0  0  0  0
  -21.3655   -5.6792   24.9166 C   0  0  0  0  0  0
  -21.6028   -4.3050   24.7210 C   0  0  0  0  0  0
  -21.8825   -3.8145   23.4330 C   0  0  0  0  0  0
  -21.9200   -4.6969   22.3395 C   0  0  0  0  0  0
  -22.7843  -13.5214   21.1818 C   0  0  0  0  0  0
  -22.1659   -4.2165   21.0968 F   0  0  0  0  0  0
  -21.5613   -3.4528   25.7715 F   0  0  0  0  0  0
  -30.0342  -13.2405   20.4468 N   0  0  0  0  0  0
  -26.3011  -12.9340   20.3390 N   0  0  0  0  0  0
  -25.9313  -11.6495   20.5717 N   0  0  0  0  0  0
  -22.0500  -12.8185   22.0378 N   0  0  0  0  0  0
  -25.4298  -15.1899   20.4241 N   0  0  0  0  0  0
  -31.8128  -14.6254   20.0795 O   0  0  0  0  0  0
  -21.6633   -6.8881   21.4242 O   0  0  0  0  0  0
  -22.3496  -14.5506   20.6670 O   0  0  0  0  0  0
  -24.6121  -31.8699   23.2121 C   0  0  0  0  0  0
  -25.9011  -32.4820   23.8415 C   0  0  1  0  0  0
  -27.2444  -27.4487   20.0729 C   0  0  0  0  0  0
  -25.5879  -33.8630   24.2342 N   0  0  0  0  0  0
  -23.4006  -30.4969   21.5486 C   0  0  2  0  0  0
  -24.8477  -28.9600   20.1136 C   0  0  0  0  0  0
  -22.7389  -29.4701   22.4963 C   0  0  0  0  0  0
  -18.0255  -28.1361   22.8527 C   0  0  0  0  0  0
  -24.1488  -36.7320   23.2639 C   0  0  0  0  0  0
  -25.9268  -30.8361   21.3647 C   0  0  0  0  0  0
  -26.0038  -29.4679   20.7158 C   0  0  0  0  0  0
  -27.1975  -28.7111   20.7080 C   0  0  0  0  0  0
  -26.0631  -26.9498   19.4767 C   0  0  0  0  0  0
  -24.8700  -27.6965   19.5001 C   0  0  0  0  0  0
  -23.6111  -29.8280   20.1632 C   0  0  0  0  0  0
  -25.4100  -36.3113   24.0347 C   0  0  1  0  0  0
  -20.5867  -28.3673   23.1309 C   0  0  2  0  0  0
  -20.6755  -26.9431   22.5391 C   0  0  0  0  0  0
  -19.5676  -26.6359   21.5247 C   0  0  0  0  0  0
  -18.1859  -26.7884   22.1693 C   0  0  0  0  0  0
  -19.1516  -28.8813   23.2922 C   0  0  0  0  0  0
  -18.9452  -30.1449   23.8887 C   0  0  0  0  0  0
  -17.6464  -30.6580   24.0562 C   0  0  0  0  0  0
  -25.9033  -34.9470   23.5142 C   0  0  0  0  0  0
  -16.5347  -29.9089   23.6350 C   0  0  0  0  0  0
  -16.7265  -28.6510   23.0372 C   0  0  0  0  0  0
  -26.4465  -31.6586   25.0721 C   0  0  0  0  0  0
  -25.3759  -31.3630   26.1478 C   0  0  0  0  0  0
  -27.0291  -30.3043   24.6041 C   0  0  0  0  0  0
  -27.6047  -32.4302   25.7477 C   0  0  0  0  0  0
  -27.5579  -37.1806   24.8471 C   0  0  0  0  0  0
  -21.4109  -29.3066   22.3688 N   0  0  0  0  0  0
  -26.4291  -37.3786   23.9420 N   0  0  0  0  0  0
  -24.6632  -31.0825   22.1004 N   0  0  0  0  0  0
  -23.4158  -28.8254   23.3009 O   0  0  0  0  0  0
  -28.4350  -26.7487   20.0883 O   0  0  0  0  0  0
  -26.5592  -34.8915   22.4702 O   0  0  0  0  0  0
  -23.5320  -32.1441   23.7528 O   0  0  0  0  0  0
  -28.6860  -18.4953   20.1799 C   0  0  0  0  0  0
  -28.3700  -17.6044   22.4972 C   0  0  0  0  0  0
  -27.4953  -19.1983   20.4032 C   0  0  0  0  0  0
  -26.7434  -19.0758   21.6096 C   0  0  0  0  0  0
  -29.1145  -17.6799   21.2735 C   0  0  0  0  0  0
  -27.1464  -18.2972   22.6918 C   0  0  0  0  0  0
  -25.5672  -19.8543   21.0817 C   0  0  0  0  0  0
  -29.5543  -23.4235   18.5270 C   0  0  0  0  0  0
  -28.9067  -22.0278   18.6284 C   0  0  0  0  0  0
  -27.4747  -23.6494   19.7149 C   0  0  0  0  0  0
  -26.3843  -19.9626   19.7010 C   0  0  1  0  0  0
  -28.8254  -24.3481   19.5212 C   0  0  2  0  0  0
  -27.7668  -22.1382   19.6617 C   0  0  1  0  0  0
  -26.3265  -18.1677   23.9558 C   0  0  0  0  0  0
  -30.3540  -16.8056   21.1362 C   0  0  0  0  0  0
  -28.7403  -25.8208   19.0384 C   0  0  0  0  0  0
  -30.0118  -15.3872   21.1760 N   0  0  0  0  0  0
  -26.5572  -21.3745   19.2686 N   0  3  0  0  0  0
  -31.4539  -12.3564   19.1132 H   0  0  0  0  0  0
  -30.2769  -11.2594   19.7733 H   0  0  0  0  0  0
  -29.7106  -11.8258   17.3881 H   0  0  0  0  0  0
  -29.6566  -13.5245   17.7949 H   0  0  0  0  0  0
  -27.7831  -11.3332   18.7560 H   0  0  0  0  0  0
  -27.3566  -12.7124   17.7811 H   0  0  0  0  0  0
  -27.7123  -14.2613   19.6148 H   0  0  0  0  0  0
  -28.6596  -11.8999   21.3063 H   0  0  0  0  0  0
  -28.4632  -13.5203   21.8916 H   0  0  0  0  0  0
  -25.2756   -9.5671   22.4712 H   0  0  0  0  0  0
  -23.9998   -7.4632   22.7473 H   0  0  0  0  0  0
  -21.0818   -8.8734   19.8927 H   0  0  0  0  0  0
  -22.3680  -10.9636   19.6113 H   0  0  0  0  0  0
  -21.2038   -7.6149   23.9726 H   0  0  0  0  0  0
  -21.1464   -6.0502   25.9067 H   0  0  0  0  0  0
  -22.0616   -2.7613   23.2806 H   0  0  0  0  0  0
  -22.4154  -11.9869   22.4754 H   0  0  0  0  0  0
  -21.1102  -13.1153   22.2632 H   0  0  0  0  0  0
  -24.6687  -15.8423   20.5699 H   0  0  0  0  0  0
  -26.3048  -15.6464   20.1957 H   0  0  0  0  0  0
  -26.7079  -32.5553   23.1191 H   0  0  0  0  0  0
  -25.0040  -33.9811   25.0488 H   0  0  0  0  0  0
  -22.6903  -31.3138   21.4053 H   0  0  0  0  0  0
  -23.3747  -35.9663   23.3317 H   0  0  0  0  0  0
  -24.3574  -36.8915   22.2052 H   0  0  0  0  0  0
  -23.7264  -37.6536   23.6645 H   0  0  0  0  0  0
  -26.0360  -31.5998   20.5926 H   0  0  0  0  0  0
  -26.8170  -30.8964   21.9791 H   0  0  0  0  0  0
  -28.0887  -29.0982   21.1827 H   0  0  0  0  0  0
  -26.0407  -25.9859   18.9947 H   0  0  0  0  0  0
  -23.9759  -27.2952   19.0451 H   0  0  0  0  0  0
  -23.7217  -30.5997   19.3997 H   0  0  0  0  0  0
  -22.7360  -29.2485   19.8661 H   0  0  0  0  0  0
  -25.1281  -36.1979   25.0844 H   0  0  0  0  0  0
  -21.0022  -28.3242   24.1412 H   0  0  0  0  0  0
  -20.5786  -26.2305   23.3595 H   0  0  0  0  0  0
  -21.6614  -26.7525   22.1119 H   0  0  0  0  0  0
  -19.6818  -25.6265   21.1306 H   0  0  0  0  0  0
  -19.6531  -27.3137   20.6736 H   0  0  0  0  0  0
  -17.4109  -26.6649   21.4107 H   0  0  0  0  0  0
  -18.0255  -25.9994   22.9073 H   0  0  0  0  0  0
  -19.7939  -30.7292   24.2228 H   0  0  0  0  0  0
  -17.5018  -31.6268   24.5152 H   0  0  0  0  0  0
  -15.5334  -30.3003   23.7686 H   0  0  0  0  0  0
  -15.8645  -28.0856   22.7071 H   0  0  0  0  0  0
  -24.5939  -30.6980   25.7802 H   0  0  0  0  0  0
  -24.8948  -32.2753   26.5007 H   0  0  0  0  0  0
  -25.8144  -30.8736   27.0185 H   0  0  0  0  0  0
  -26.2806  -29.6801   24.1143 H   0  0  0  0  0  0
  -27.4149  -29.7267   25.4453 H   0  0  0  0  0  0
  -27.8607  -30.4396   23.9121 H   0  0  0  0  0  0
  -27.2667  -33.3585   26.2097 H   0  0  0  0  0  0
  -28.3821  -32.6886   25.0278 H   0  0  0  0  0  0
  -28.0753  -31.8402   26.5348 H   0  0  0  0  0  0
  -28.2595  -38.0097   24.7499 H   0  0  0  0  0  0
  -28.1069  -36.2629   24.6322 H   0  0  0  0  0  0
  -27.2290  -37.1487   25.8869 H   0  0  0  0  0  0
  -20.9297  -29.8739   21.6864 H   0  0  0  0  0  0
  -26.0182  -38.2868   24.1415 H   0  0  0  0  0  0
  -29.2032  -18.5215   19.2319 H   0  0  0  0  0  0
  -28.7357  -16.9608   23.2851 H   0  0  0  0  0  0
  -25.4175  -20.7930   21.6141 H   0  0  0  0  0  0
  -24.6605  -19.2526   21.0254 H   0  0  0  0  0  0
  -29.4414  -23.7974   17.5081 H   0  0  0  0  0  0
  -30.6258  -23.3861   18.7263 H   0  0  0  0  0  0
  -29.6303  -21.2636   18.9164 H   0  0  0  0  0  0
  -28.5266  -21.7488   17.6436 H   0  0  0  0  0  0
  -26.8156  -23.9199   18.8893 H   0  0  0  0  0  0
  -26.9832  -23.9463   20.6420 H   0  0  0  0  0  0
  -25.9302  -19.3531   18.9197 H   0  0  0  0  0  0
  -29.3763  -24.3180   20.4642 H   0  0  0  0  0  0
  -28.1229  -21.8249   20.6450 H   0  0  0  0  0  0
  -25.8635  -17.1825   24.0066 H   0  0  0  0  0  0
  -25.5408  -18.9243   23.9848 H   0  0  0  0  0  0
  -26.9588  -18.3017   24.8365 H   0  0  0  0  0  0
  -31.0454  -17.0277   21.9510 H   0  0  0  0  0  0
  -30.8753  -17.0451   20.2072 H   0  0  0  0  0  0
  -28.0973  -25.9223   18.1629 H   0  0  0  0  0  0
  -29.7290  -26.1104   18.6812 H   0  0  0  0  0  0
  -29.1044  -15.1460   21.5429 H   0  0  0  0  0  0
  -25.7578  -21.8673   19.6303 H   0  0  0  0  0  0
  -26.4713  -21.4049   18.2669 H   0  0  0  0  0  0
  1 25  1  0  0  0
  1 30  2  0  0  0
  1 87  1  0  0  0
  2  3  1  0  0  0
  2 25  1  0  0  0
  2 89  1  0  0  0
  2 90  1  0  0  0
  3  4  1  0  0  0
  3 91  1  0  0  0
  3 92  1  0  0  0
  4  5  1  0  0  0
  4 93  1  0  0  0
  4 94  1  0  0  0
  5  6  1  0  0  0
  5 26  1  0  0  0
  5 95  1  0  0  0
  6 25  1  0  0  0
  6 96  1  0  0  0
  6 97  1  0  0  0
  7  8  2  0  0  0
  7 26  1  0  0  0
  7 29  1  0  0  0
  8  9  1  0  0  0
  8 22  1  0  0  0
  9 10  1  0  0  0
  9 27  2  0  0  0
 10 11  2  0  0  0
 10 15  1  0  0  0
 11 12  1  0  0  0
 11 98  1  0  0  0
 12 13  2  0  0  0
 12 99  1  0  0  0
 13 14  1  0  0  0
 13 31  1  0  0  0
 14 15  2  0  0  0
 14100  1  0  0  0
 15101  1  0  0  0
 16 17  2  0  0  0
 16 21  1  0  0  0
 16 31  1  0  0  0
 17 18  1  0  0  0
 17102  1  0  0  0
 18 19  2  0  0  0
 18103  1  0  0  0
 19 20  1  0  0  0
 19 24  1  0  0  0
 20 21  2  0  0  0
 20104  1  0  0  0
 21 23  1  0  0  0
 22 28  1  0  0  0
 22 32  2  0  0  0
 26 27  1  0  0  0
 28105  1  0  0  0
 28106  1  0  0  0
 29107  1  0  0  0
 29108  1  0  0  0
 33 34  1  0  0  0
 33 66  1  0  0  0
 33 70  2  0  0  0
 34 36  1  0  0  0
 34 59  1  0  0  0
 34109  1  0  0  0
 35 44  2  0  0  0
 35 45  1  0  0  0
 35 68  1  0  0  0
 36 56  1  0  0  0
 36110  1  0  0  0
 37 39  1  0  0  0
 37 47  1  0  0  0
 37 66  1  0  0  0
 37111  1  0  0  0
 38 43  2  0  0  0
 38 46  1  0  0  0
 38 47  1  0  0  0
 39 64  1  0  0  0
 39 67  2  0  0  0
 40 52  1  0  0  0
 40 53  2  0  0  0
 40 58  1  0  0  0
 41112  1  0  0  0
 41113  1  0  0  0
 41114  1  0  0  0
 41 48  1  0  0  0
 42 43  1  0  0  0
 42 66  1  0  0  0
 42115  1  0  0  0
 42116  1  0  0  0
 43 44  1  0  0  0
 44117  1  0  0  0
 45 46  2  0  0  0
 45118  1  0  0  0
 46119  1  0  0  0
 47120  1  0  0  0
 47121  1  0  0  0
 48 56  1  0  0  0
 48 65  1  0  0  0
 48122  1  0  0  0
 49 50  1  0  0  0
 49 53  1  0  0  0
 49 64  1  0  0  0
 49123  1  0  0  0
 50 51  1  0  0  0
 50124  1  0  0  0
 50125  1  0  0  0
 51 52  1  0  0  0
 51126  1  0  0  0
 51127  1  0  0  0
 52128  1  0  0  0
 52129  1  0  0  0
 53 54  1  0  0  0
 54 55  2  0  0  0
 54130  1  0  0  0
 55 57  1  0  0  0
 55131  1  0  0  0
 56 69  2  0  0  0
 57 58  2  0  0  0
 57132  1  0  0  0
 58133  1  0  0  0
 59 60  1  0  0  0
 59 61  1  0  0  0
 59 62  1  0  0  0
 60134  1  0  0  0
 60135  1  0  0  0
 60136  1  0  0  0
 61137  1  0  0  0
 61138  1  0  0  0
 61139  1  0  0  0
 62140  1  0  0  0
 62141  1  0  0  0
 62142  1  0  0  0
 63 65  1  0  0  0
 63143  1  0  0  0
 63144  1  0  0  0
 63145  1  0  0  0
 64146  1  0  0  0
 65147  1  0  0  0
 68 86  1  0  0  0
 71 73  2  0  0  0
 71 75  1  0  0  0
 71148  1  0  0  0
 72 75  2  0  0  0
 72 76  1  0  0  0
 72149  1  0  0  0
 73 74  1  0  0  0
 73 81  1  0  0  0
 74 76  2  0  0  0
 74 77  1  0  0  0
 75 85  1  0  0  0
 76 84  1  0  0  0
 77 81  1  0  0  0
 77150  1  0  0  0
 77151  1  0  0  0
 78 79  1  0  0  0
 78 82  1  0  0  0
 78152  1  0  0  0
 78153  1  0  0  0
 79 83  1  0  0  0
 79154  1  0  0  0
 79155  1  0  0  0
 80 82  1  0  0  0
 80 83  1  0  0  0
 80156  1  0  0  0
 80157  1  0  0  0
 81 88  1  0  0  0
 81158  1  0  0  0
 82 86  1  0  0  0
 82159  1  0  0  0
 83 88  1  0  0  0
 83160  1  0  0  0
 84161  1  0  0  0
 84162  1  0  0  0
 84163  1  0  0  0
 85 87  1  0  0  0
 85164  1  0  0  0
 85165  1  0  0  0
 86166  1  0  0  0
 86167  1  0  0  0
 87168  1  0  0  0
 88169  1  0  0  0
 88170  1  0  0  0
M  CHG  1  88   1
M  ISO  4   1 100  68 101  86 101  87 100
M  END
> <chiral flag>
0

> <version>
0

> <s_m_source_file>
/data/baiqing/PycharmProjects/Reinvent-master-3.2/result/LINK_invent/BTK/process_docking_weight1_custom_sum_contain_oxygen_bond_distance_aromatic_linkinvent_7_9_3/rearranged_h_0160.sdf

> <i_m_source_file_index>
11

> <r_mmod_Potential_Energy-OPLS-2005>
149.160705566406

> <r_mmod_Stretch_Energy-OPLS-2005>
51.7953910827637

> <r_mmod_Bend_Energy-OPLS-2005>
495.511444091797

> <r_mmod_Torsional_Energy-OPLS-2005>
296.320007324219

> <r_mmod_Improper_Torsional_Energy-OPLS-2005>
6.67570304870605

> <r_mmod_Van_der_Waal_Energy-OPLS-2005>
136.66145324707

> <r_mmod_Electrostatic_Energy-OPLS-2005>
-376.686737060547

> <r_mmod_Solvation_Energy-OPLS-2005>
-470.416809082031

> <b_mmod_Minimization_Converged-OPLS-2005>
0

> <r_mmod_RMS_Derivative-OPLS-2005>
3.8364372253418

$$$$
11
                    3D
 Structure written by MMmdl.
171181  0  0  1  0            999 V2000
  -30.7045  -14.8176   20.4754 C   0  0  0  0  0  0
  -30.4059  -12.5171   19.4923 C   0  0  0  0  0  0
  -29.4985  -12.5231   18.2471 C   0  0  0  0  0  0
  -28.0301  -12.3367   18.6632 C   0  0  0  0  0  0
  -27.6300  -13.2513   19.8514 C   0  0  2  0  0  0
  -28.6825  -13.2686   20.9862 C   0  0  0  0  0  0
  -25.2420  -13.8224   20.5757 C   0  0  0  0  0  0
  -24.1750  -13.0432   20.9258 C   0  0  0  0  0  0
  -24.6370  -11.6918   20.8776 C   0  0  0  0  0  0
  -23.9050  -10.4281   21.0395 C   0  0  0  0  0  0
  -24.3606   -9.4207   21.9174 C   0  0  0  0  0  0
  -23.6293   -8.2229   22.0744 C   0  0  0  0  0  0
  -22.4273   -8.0266   21.3538 C   0  0  0  0  0  0
  -21.9897   -9.0233   20.4632 C   0  0  0  0  0  0
  -22.7210  -10.2115   20.3046 C   0  0  0  0  0  0
  -21.6863   -6.0715   22.5278 C   0  0  0  0  0  0
  -21.4015   -6.5620   23.8208 C   0  0  0  0  0  0
  -21.3650   -5.6777   24.9171 C   0  0  0  0  0  0
  -21.6047   -4.3051   24.7223 C   0  0  0  0  0  0
  -21.8822   -3.8129   23.4351 C   0  0  0  0  0  0
  -21.9206   -4.6936   22.3400 C   0  0  0  0  0  0
  -22.7767  -13.5190   21.1906 C   0  0  0  0  0  0
  -22.1655   -4.2105   21.0981 F   0  0  0  0  0  0
  -21.5641   -3.4543   25.7742 F   0  0  0  0  0  0
  -29.9653  -13.6408   20.3733 N   0  0  0  0  0  0
  -26.2882  -12.9481   20.3365 N   0  0  0  0  0  0
  -25.9323  -11.6602   20.5816 N   0  0  0  0  0  0
  -22.0419  -12.8184   22.0477 N   0  0  0  0  0  0
  -25.3998  -15.1943   20.4154 N   0  0  0  0  0  0
  -31.8987  -14.7238   20.1755 O   0  0  0  0  0  0
  -21.6647   -6.8856   21.4242 O   0  0  0  0  0  0
  -22.3441  -14.5483   20.6736 O   0  0  0  0  0  0
  -24.6415  -31.8498   23.2022 C   0  0  0  0  0  0
  -25.9200  -32.4726   23.8381 C   0  0  1  0  0  0
  -27.1893  -27.1695   20.1465 C   0  0  0  0  0  0
  -25.5978  -33.8552   24.2292 N   0  0  0  0  0  0
  -23.4412  -30.4782   21.5453 C   0  0  2  0  0  0
  -24.8903  -28.9305   20.1072 C   0  0  0  0  0  0
  -22.7571  -29.4576   22.4894 C   0  0  0  0  0  0
  -18.0291  -28.1392   22.8479 C   0  0  0  0  0  0
  -24.1475  -36.7254   23.2627 C   0  0  0  0  0  0
  -25.9977  -30.7269   21.4080 C   0  0  0  0  0  0
  -26.0611  -29.3428   20.7558 C   0  0  0  0  0  0
  -27.2098  -28.4689   20.7842 C   0  0  0  0  0  0
  -26.0533  -26.9411   19.3455 C   0  0  0  0  0  0
  -24.8961  -27.7351   19.3848 C   0  0  0  0  0  0
  -23.6652  -29.8244   20.1578 C   0  0  0  0  0  0
  -25.4094  -36.3070   24.0340 C   0  0  1  0  0  0
  -20.5913  -28.3706   23.1234 C   0  0  2  0  0  0
  -20.6778  -26.9410   22.5385 C   0  0  0  0  0  0
  -19.5745  -26.6373   21.5197 C   0  0  0  0  0  0
  -18.1931  -26.7932   22.1606 C   0  0  0  0  0  0
  -19.1560  -28.8860   23.2837 C   0  0  0  0  0  0
  -18.9466  -30.1464   23.8866 C   0  0  0  0  0  0
  -17.6454  -30.6581   24.0562 C   0  0  0  0  0  0
  -25.9062  -34.9442   23.5112 C   0  0  0  0  0  0
  -16.5351  -29.9077   23.6342 C   0  0  0  0  0  0
  -16.7274  -28.6503   23.0364 C   0  0  0  0  0  0
  -26.4572  -31.6565   25.0780 C   0  0  0  0  0  0
  -25.3808  -31.3686   26.1490 C   0  0  0  0  0  0
  -27.0430  -30.2966   24.6333 C   0  0  0  0  0  0
  -27.6145  -32.4329   25.7510 C   0  0  0  0  0  0
  -27.5559  -37.1768   24.8490 C   0  0  0  0  0  0
  -21.4269  -29.3040   22.3637 N   0  0  0  0  0  0
  -26.4271  -37.3771   23.9442 N   0  0  0  0  0  0
  -24.7127  -31.0393   22.1058 N   0  0  0  0  0  0
  -23.4240  -28.8070   23.2991 O   0  0  0  0  0  0
  -28.1901  -26.1383   20.2162 O   0  0  0  0  0  0
  -26.5615  -34.8929   22.4681 O   0  0  0  0  0  0
  -23.5533  -32.1371   23.7242 O   0  0  0  0  0  0
  -28.9428  -20.6267   19.6601 C   0  0  0  0  0  0
  -28.6900  -20.3383   18.2608 C   0  0  0  0  0  0
  -28.6638  -22.0472   19.7813 C   0  0  0  0  0  0
  -28.0422  -21.3948   17.6973 C   0  0  0  0  0  0
  -26.6320  -24.0313   19.8930 C   0  0  0  0  0  0
  -28.4120  -18.1564   20.6896 C   0  0  0  0  0  0
  -30.7856  -18.6834   20.2047 C   0  0  0  0  0  0
  -27.0790  -23.5584   18.5099 C   0  0  0  0  0  0
  -28.8522  -16.6523   21.0950 C   0  0  0  0  0  0
  -31.1263  -17.2973   20.8983 C   0  0  0  0  0  0
  -29.4342  -19.3818   20.5990 C   0  0  0  0  0  0
  -28.8853  -23.3651   20.6948 C   0  0  1  0  0  0
  -27.8313  -24.6666   20.6103 C   0  0  1  0  0  0
  -29.0098  -19.0894   17.4514 C   0  0  0  0  0  0
  -27.4965  -21.5714   16.3071 C   0  0  0  0  0  0
  -29.0705  -22.9498   22.1617 C   0  0  0  0  0  0
  -27.8985  -22.3598   18.6584 N   0  0  0  0  0  0
  -30.1933  -16.1327   20.6870 N   0  0  0  0  0  0
  -31.4499  -12.5916   19.1830 H   0  0  0  0  0  0
  -30.3315  -11.5635   20.0177 H   0  0  0  0  0  0
  -29.7939  -11.7355   17.5533 H   0  0  0  0  0  0
  -29.6181  -13.4699   17.7152 H   0  0  0  0  0  0
  -27.9002  -11.2906   18.9399 H   0  0  0  0  0  0
  -27.3662  -12.5092   17.8142 H   0  0  0  0  0  0
  -27.5947  -14.2542   19.4311 H   0  0  0  0  0  0
  -28.7501  -12.2974   21.4783 H   0  0  0  0  0  0
  -28.4125  -13.9774   21.7693 H   0  0  0  0  0  0
  -25.2724   -9.5698   22.4778 H   0  0  0  0  0  0
  -23.9999   -7.4628   22.7475 H   0  0  0  0  0  0
  -21.0804   -8.8730   19.8956 H   0  0  0  0  0  0
  -22.3625  -10.9662   19.6181 H   0  0  0  0  0  0
  -21.2000   -7.6129   23.9692 H   0  0  0  0  0  0
  -21.1474   -6.0517   25.9072 H   0  0  0  0  0  0
  -22.0612   -2.7590   23.2880 H   0  0  0  0  0  0
  -22.4037  -11.9837   22.4843 H   0  0  0  0  0  0
  -21.1052  -13.1218   22.2709 H   0  0  0  0  0  0
  -24.6275  -15.8385   20.5435 H   0  0  0  0  0  0
  -26.2422  -15.6464   20.0869 H   0  0  0  0  0  0
  -26.7280  -32.5374   23.1127 H   0  0  0  0  0  0
  -25.0240  -33.9727   25.0509 H   0  0  0  0  0  0
  -22.7393  -31.3029   21.4002 H   0  0  0  0  0  0
  -23.3768  -35.9553   23.3286 H   0  0  0  0  0  0
  -24.3573  -36.8875   22.2042 H   0  0  0  0  0  0
  -23.7193  -37.6440   23.6647 H   0  0  0  0  0  0
  -26.1514  -31.4743   20.6279 H   0  0  0  0  0  0
  -26.8744  -30.7804   22.0422 H   0  0  0  0  0  0
  -28.0885  -28.7622   21.3378 H   0  0  0  0  0  0
  -26.0400  -26.1231   18.6447 H   0  0  0  0  0  0
  -24.0354  -27.4472   18.7971 H   0  0  0  0  0  0
  -23.7973  -30.6059   19.4074 H   0  0  0  0  0  0
  -22.7872  -29.2577   19.8436 H   0  0  0  0  0  0
  -25.1255  -36.1925   25.0826 H   0  0  0  0  0  0
  -20.9987  -28.3273   24.1363 H   0  0  0  0  0  0
  -20.5621  -26.2330   23.3601 H   0  0  0  0  0  0
  -21.6648  -26.7378   22.1206 H   0  0  0  0  0  0
  -19.6881  -25.6277   21.1234 H   0  0  0  0  0  0
  -19.6696  -27.3204   20.6753 H   0  0  0  0  0  0
  -17.4198  -26.6710   21.3999 H   0  0  0  0  0  0
  -18.0298  -26.0051   22.8977 H   0  0  0  0  0  0
  -19.7933  -30.7285   24.2227 H   0  0  0  0  0  0
  -17.5002  -31.6257   24.5185 H   0  0  0  0  0  0
  -15.5349  -30.2969   23.7660 H   0  0  0  0  0  0
  -15.8674  -28.0792   22.7111 H   0  0  0  0  0  0
  -24.6109  -30.6882   25.7813 H   0  0  0  0  0  0
  -24.8851  -32.2813   26.4808 H   0  0  0  0  0  0
  -25.8155  -30.8987   27.0322 H   0  0  0  0  0  0
  -26.3043  -29.6690   24.1325 H   0  0  0  0  0  0
  -27.4034  -29.7253   25.4892 H   0  0  0  0  0  0
  -27.8963  -30.4185   23.9665 H   0  0  0  0  0  0
  -27.2801  -33.3688   26.1994 H   0  0  0  0  0  0
  -28.3959  -32.6786   25.0307 H   0  0  0  0  0  0
  -28.0807  -31.8514   26.5471 H   0  0  0  0  0  0
  -28.2595  -38.0042   24.7527 H   0  0  0  0  0  0
  -28.1037  -36.2584   24.6327 H   0  0  0  0  0  0
  -27.2293  -37.1434   25.8899 H   0  0  0  0  0  0
  -20.9473  -29.8805   21.6860 H   0  0  0  0  0  0
  -26.0150  -38.2833   24.1486 H   0  0  0  0  0  0
  -26.3120  -23.1575   20.4663 H   0  0  0  0  0  0
  -25.7140  -24.6028   19.9036 H   0  0  0  0  0  0
  -27.6039  -18.4533   21.3609 H   0  0  0  0  0  0
  -27.8895  -18.0591   19.7434 H   0  0  0  0  0  0
  -30.8449  -18.5149   19.1351 H   0  0  0  0  0  0
  -31.5977  -19.3841   20.4128 H   0  0  0  0  0  0
  -27.6495  -24.3241   17.9813 H   0  0  0  0  0  0
  -26.1998  -23.3198   17.9106 H   0  0  0  0  0  0
  -28.0856  -15.9804   20.7260 H   0  0  0  0  0  0
  -28.8081  -16.5681   22.1814 H   0  0  0  0  0  0
  -31.1902  -17.4624   21.9748 H   0  0  0  0  0  0
  -32.1478  -17.0477   20.6055 H   0  0  0  0  0  0
  -29.5563  -19.7734   21.6108 H   0  0  0  0  0  0
  -29.8467  -23.7798   20.3888 H   0  0  0  0  0  0
  -27.4803  -24.8127   21.6332 H   0  0  0  0  0  0
  -28.9971  -18.1625   18.0148 H   0  0  0  0  0  0
  -29.9989  -19.1827   17.0031 H   0  0  0  0  0  0
  -28.2959  -18.9565   16.6396 H   0  0  0  0  0  0
  -28.1125  -21.0578   15.5702 H   0  0  0  0  0  0
  -27.4672  -22.6191   16.0079 H   0  0  0  0  0  0
  -26.4852  -21.1725   16.2322 H   0  0  0  0  0  0
  -28.1598  -22.4962   22.5531 H   0  0  0  0  0  0
  -29.3064  -23.8081   22.7923 H   0  0  0  0  0  0
  -29.8825  -22.2295   22.2727 H   0  0  0  0  0  0
  1 25  1  0  0  0
  1 30  2  0  0  0
  1 88  1  0  0  0
  2  3  1  0  0  0
  2 25  1  0  0  0
  2 89  1  0  0  0
  2 90  1  0  0  0
  3  4  1  0  0  0
  3 91  1  0  0  0
  3 92  1  0  0  0
  4  5  1  0  0  0
  4 93  1  0  0  0
  4 94  1  0  0  0
  5  6  1  0  0  0
  5 26  1  0  0  0
  5 95  1  0  0  0
  6 25  1  0  0  0
  6 96  1  0  0  0
  6 97  1  0  0  0
  7  8  2  0  0  0
  7 26  1  0  0  0
  7 29  1  0  0  0
  8  9  1  0  0  0
  8 22  1  0  0  0
  9 10  1  0  0  0
  9 27  2  0  0  0
 10 11  2  0  0  0
 10 15  1  0  0  0
 11 12  1  0  0  0
 11 98  1  0  0  0
 12 13  2  0  0  0
 12 99  1  0  0  0
 13 14  1  0  0  0
 13 31  1  0  0  0
 14 15  2  0  0  0
 14100  1  0  0  0
 15101  1  0  0  0
 16 17  2  0  0  0
 16 21  1  0  0  0
 16 31  1  0  0  0
 17 18  1  0  0  0
 17102  1  0  0  0
 18 19  2  0  0  0
 18103  1  0  0  0
 19 20  1  0  0  0
 19 24  1  0  0  0
 20 21  2  0  0  0
 20104  1  0  0  0
 21 23  1  0  0  0
 22 28  1  0  0  0
 22 32  2  0  0  0
 26 27  1  0  0  0
 28105  1  0  0  0
 28106  1  0  0  0
 29107  1  0  0  0
 29108  1  0  0  0
 33 34  1  0  0  0
 33 66  1  0  0  0
 33 70  2  0  0  0
 34 36  1  0  0  0
 34 59  1  0  0  0
 34109  1  0  0  0
 35 44  2  0  0  0
 35 45  1  0  0  0
 35 68  1  0  0  0
 36 56  1  0  0  0
 36110  1  0  0  0
 37 39  1  0  0  0
 37 47  1  0  0  0
 37 66  1  0  0  0
 37111  1  0  0  0
 38 43  2  0  0  0
 38 46  1  0  0  0
 38 47  1  0  0  0
 39 64  1  0  0  0
 39 67  2  0  0  0
 40 52  1  0  0  0
 40 53  2  0  0  0
 40 58  1  0  0  0
 41112  1  0  0  0
 41113  1  0  0  0
 41114  1  0  0  0
 41 48  1  0  0  0
 42 43  1  0  0  0
 42 66  1  0  0  0
 42115  1  0  0  0
 42116  1  0  0  0
 43 44  1  0  0  0
 44117  1  0  0  0
 45 46  2  0  0  0
 45118  1  0  0  0
 46119  1  0  0  0
 47120  1  0  0  0
 47121  1  0  0  0
 48 56  1  0  0  0
 48 65  1  0  0  0
 48122  1  0  0  0
 49 50  1  0  0  0
 49 53  1  0  0  0
 49 64  1  0  0  0
 49123  1  0  0  0
 50 51  1  0  0  0
 50124  1  0  0  0
 50125  1  0  0  0
 51 52  1  0  0  0
 51126  1  0  0  0
 51127  1  0  0  0
 52128  1  0  0  0
 52129  1  0  0  0
 53 54  1  0  0  0
 54 55  2  0  0  0
 54130  1  0  0  0
 55 57  1  0  0  0
 55131  1  0  0  0
 56 69  2  0  0  0
 57 58  2  0  0  0
 57132  1  0  0  0
 58133  1  0  0  0
 59 60  1  0  0  0
 59 61  1  0  0  0
 59 62  1  0  0  0
 60134  1  0  0  0
 60135  1  0  0  0
 60136  1  0  0  0
 61137  1  0  0  0
 61138  1  0  0  0
 61139  1  0  0  0
 62140  1  0  0  0
 62141  1  0  0  0
 62142  1  0  0  0
 63 65  1  0  0  0
 63143  1  0  0  0
 63144  1  0  0  0
 63145  1  0  0  0
 64146  1  0  0  0
 65147  1  0  0  0
 68 83  1  0  0  0
 71 72  1  0  0  0
 71 73  2  0  0  0
 71 81  1  0  0  0
 72 74  2  0  0  0
 72 84  1  0  0  0
 73 82  1  0  0  0
 73 87  1  0  0  0
 74 85  1  0  0  0
 74 87  1  0  0  0
 75 78  1  0  0  0
 75 83  1  0  0  0
 75148  1  0  0  0
 75149  1  0  0  0
 76 79  1  0  0  0
 76 81  1  0  0  0
 76150  1  0  0  0
 76151  1  0  0  0
 77 80  1  0  0  0
 77 81  1  0  0  0
 77152  1  0  0  0
 77153  1  0  0  0
 78 87  1  0  0  0
 78154  1  0  0  0
 78155  1  0  0  0
 79 88  1  0  0  0
 79156  1  0  0  0
 79157  1  0  0  0
 80 88  1  0  0  0
 80158  1  0  0  0
 80159  1  0  0  0
 81160  1  0  0  0
 82 83  1  0  0  0
 82 86  1  0  0  0
 82161  1  0  0  0
 83162  1  0  0  0
 84163  1  0  0  0
 84164  1  0  0  0
 84165  1  0  0  0
 85166  1  0  0  0
 85167  1  0  0  0
 85168  1  0  0  0
 86169  1  0  0  0
 86170  1  0  0  0
 86171  1  0  0  0
M  ISO  4   1 100  68 101  83 101  88 100
M  END
> <chiral flag>
0

> <version>
0

> <s_m_source_file>
/data/baiqing/PycharmProjects/Reinvent-master-3.2/result/LINK_invent/BTK/process_docking_weight1_custom_sum_contain_oxygen_bond_distance_aromatic_linkinvent_7_9_3/rearranged_h_0160.sdf

> <i_m_source_file_index>
12

> <r_mmod_Potential_Energy-OPLS-2005>
697.843933105469

> <r_mmod_Stretch_Energy-OPLS-2005>
221.311981201172

> <r_mmod_Bend_Energy-OPLS-2005>
316.769989013672

> <r_mmod_Torsional_Energy-OPLS-2005>
392.184875488281

> <r_mmod_Improper_Torsional_Energy-OPLS-2005>
5.10847616195679

> <r_mmod_Van_der_Waal_Energy-OPLS-2005>
153.935958862305

> <r_mmod_Electrostatic_Energy-OPLS-2005>
-344.305541992188

> <r_mmod_Solvation_Energy-OPLS-2005>
-199.867446899414

> <b_mmod_Minimization_Converged-OPLS-2005>
0

> <r_mmod_RMS_Derivative-OPLS-2005>
3.44268178939819

$$$$
12
                    3D
 Structure written by MMmdl.
165174  0  0  1  0            999 V2000
  -30.6444  -14.8613   20.4297 C   0  0  0  0  0  0
  -30.4143  -12.5390   19.4802 C   0  0  0  0  0  0
  -29.4986  -12.5048   18.2400 C   0  0  0  0  0  0
  -28.0374  -12.2894   18.6711 C   0  0  0  0  0  0
  -27.6195  -13.2308   19.8294 C   0  0  2  0  0  0
  -28.6695  -13.2938   20.9607 C   0  0  0  0  0  0
  -25.2446  -13.8169   20.5729 C   0  0  0  0  0  0
  -24.1754  -13.0417   20.9245 C   0  0  0  0  0  0
  -24.6353  -11.6894   20.8784 C   0  0  0  0  0  0
  -23.9041  -10.4276   21.0431 C   0  0  0  0  0  0
  -24.3602   -9.4192   21.9199 C   0  0  0  0  0  0
  -23.6279   -8.2224   22.0760 C   0  0  0  0  0  0
  -22.4261   -8.0269   21.3549 C   0  0  0  0  0  0
  -21.9898   -9.0239   20.4648 C   0  0  0  0  0  0
  -22.7222  -10.2118   20.3066 C   0  0  0  0  0  0
  -21.6847   -6.0727   22.5279 C   0  0  0  0  0  0
  -21.4008   -6.5635   23.8211 C   0  0  0  0  0  0
  -21.3659   -5.6791   24.9176 C   0  0  0  0  0  0
  -21.6047   -4.3053   24.7227 C   0  0  0  0  0  0
  -21.8822   -3.8143   23.4349 C   0  0  0  0  0  0
  -21.9187   -4.6957   22.3403 C   0  0  0  0  0  0
  -22.7781  -13.5203   21.1893 C   0  0  0  0  0  0
  -22.1661   -4.2143   21.0982 F   0  0  0  0  0  0
  -21.5630   -3.4539   25.7742 F   0  0  0  0  0  0
  -29.9503  -13.6603   20.3441 N   0  0  0  0  0  0
  -26.2841  -12.9363   20.3268 N   0  0  0  0  0  0
  -25.9276  -11.6515   20.5786 N   0  0  0  0  0  0
  -22.0433  -12.8198   22.0450 N   0  0  0  0  0  0
  -25.4127  -15.1897   20.4152 N   0  0  0  0  0  0
  -31.8576  -14.8186   20.2016 O   0  0  0  0  0  0
  -21.6630   -6.8864   21.4238 O   0  0  0  0  0  0
  -22.3478  -14.5512   20.6730 O   0  0  0  0  0  0
  -24.6383  -31.8496   23.1940 C   0  0  0  0  0  0
  -25.9186  -32.4722   23.8307 C   0  0  1  0  0  0
  -27.2185  -27.1979   20.1406 C   0  0  0  0  0  0
  -25.5952  -33.8527   24.2226 N   0  0  0  0  0  0
  -23.4388  -30.4694   21.5384 C   0  0  2  0  0  0
  -24.8873  -28.9039   20.1141 C   0  0  0  0  0  0
  -22.7537  -29.4568   22.4892 C   0  0  0  0  0  0
  -18.0301  -28.1379   22.8473 C   0  0  0  0  0  0
  -24.1483  -36.7248   23.2646 C   0  0  0  0  0  0
  -25.9909  -30.7400   21.3859 C   0  0  0  0  0  0
  -26.0626  -29.3568   20.7275 C   0  0  0  0  0  0
  -27.2333  -28.5197   20.7238 C   0  0  0  0  0  0
  -26.0219  -26.8327   19.4888 C   0  0  0  0  0  0
  -24.8748  -27.6515   19.4816 C   0  0  0  0  0  0
  -23.6625  -29.8004   20.1568 C   0  0  0  0  0  0
  -25.4116  -36.3040   24.0320 C   0  0  1  0  0  0
  -20.5910  -28.3700   23.1242 C   0  0  2  0  0  0
  -20.6782  -26.9410   22.5398 C   0  0  0  0  0  0
  -19.5758  -26.6369   21.5201 C   0  0  0  0  0  0
  -18.1938  -26.7920   22.1612 C   0  0  0  0  0  0
  -19.1557  -28.8856   23.2849 C   0  0  0  0  0  0
  -18.9483  -30.1451   23.8874 C   0  0  0  0  0  0
  -17.6481  -30.6578   24.0551 C   0  0  0  0  0  0
  -25.9070  -34.9420   23.5077 C   0  0  0  0  0  0
  -16.5368  -29.9069   23.6335 C   0  0  0  0  0  0
  -16.7289  -28.6483   23.0363 C   0  0  0  0  0  0
  -26.4530  -31.6578   25.0730 C   0  0  0  0  0  0
  -25.3729  -31.3722   26.1430 C   0  0  0  0  0  0
  -27.0424  -30.2998   24.6275 C   0  0  0  0  0  0
  -27.6056  -32.4356   25.7505 C   0  0  0  0  0  0
  -27.5569  -37.1776   24.8476 C   0  0  0  0  0  0
  -21.4243  -29.3036   22.3632 N   0  0  0  0  0  0
  -26.4283  -37.3750   23.9417 N   0  0  0  0  0  0
  -24.7085  -31.0398   22.0946 N   0  0  0  0  0  0
  -23.4202  -28.8117   23.3026 O   0  0  0  0  0  0
  -28.2898  -26.2550   20.1513 O   0  0  0  0  0  0
  -26.5645  -34.8907   22.4650 O   0  0  0  0  0  0
  -23.5515  -32.1365   23.7187 O   0  0  0  0  0  0
  -29.4629  -20.9469   19.9638 C   0  0  0  0  0  0
  -28.7426  -22.1110   20.5273 C   0  0  0  0  0  0
  -28.8337  -23.4897   19.9907 C   0  0  0  0  0  0
  -30.2633  -21.3044   18.8404 C   0  0  0  0  0  0
  -29.6693  -23.5986   18.8602 C   0  0  0  0  0  0
  -28.7270  -18.2567   19.6783 C   0  0  0  0  0  0
  -30.7972  -18.6916   20.8755 C   0  0  0  0  0  0
  -28.7702  -16.7192   20.1737 C   0  0  0  0  0  0
  -30.7521  -17.2091   21.4610 C   0  0  0  0  0  0
  -29.4322  -19.3931   20.5270 C   0  0  0  0  0  0
  -27.8598  -21.8594   21.7371 C   0  0  0  0  0  0
  -31.1698  -20.3440   18.0885 C   0  0  0  0  0  0
  -29.8797  -24.9089   18.1229 C   0  0  0  0  0  0
  -28.0199  -24.7952   20.5379 C   0  0  0  0  0  0
  -30.3427  -22.5554   18.3320 N   0  0  0  0  0  0
  -30.0490  -16.1265   20.6910 N   0  0  0  0  0  0
  -31.4534  -12.6492   19.1661 H   0  0  0  0  0  0
  -30.3683  -11.5930   20.0226 H   0  0  0  0  0  0
  -29.8089  -11.7124   17.5571 H   0  0  0  0  0  0
  -29.5871  -13.4422   17.6881 H   0  0  0  0  0  0
  -27.9389  -11.2505   18.9889 H   0  0  0  0  0  0
  -27.3667  -12.4115   17.8200 H   0  0  0  0  0  0
  -27.5589  -14.2117   19.3710 H   0  0  0  0  0  0
  -28.7464  -12.3390   21.4824 H   0  0  0  0  0  0
  -28.3820  -14.0360   21.7072 H   0  0  0  0  0  0
  -25.2739   -9.5677   22.4783 H   0  0  0  0  0  0
  -23.9992   -7.4621   22.7480 H   0  0  0  0  0  0
  -21.0831   -8.8757   19.8947 H   0  0  0  0  0  0
  -22.3679  -10.9665   19.6182 H   0  0  0  0  0  0
  -21.1999   -7.6144   23.9712 H   0  0  0  0  0  0
  -21.1483   -6.0522   25.9081 H   0  0  0  0  0  0
  -22.0598   -2.7605   23.2852 H   0  0  0  0  0  0
  -22.4044  -11.9852   22.4826 H   0  0  0  0  0  0
  -21.1056  -13.1231   22.2667 H   0  0  0  0  0  0
  -24.6454  -15.8427   20.5311 H   0  0  0  0  0  0
  -26.2649  -15.6314   20.0976 H   0  0  0  0  0  0
  -26.7247  -32.5355   23.1034 H   0  0  0  0  0  0
  -25.0094  -33.9650   25.0369 H   0  0  0  0  0  0
  -22.7378  -31.2929   21.3865 H   0  0  0  0  0  0
  -23.3753  -35.9575   23.3307 H   0  0  0  0  0  0
  -24.3564  -36.8895   22.2066 H   0  0  0  0  0  0
  -23.7241  -37.6436   23.6693 H   0  0  0  0  0  0
  -26.1458  -31.4973   20.6167 H   0  0  0  0  0  0
  -26.8623  -30.7854   22.0273 H   0  0  0  0  0  0
  -28.1341  -28.8631   21.2133 H   0  0  0  0  0  0
  -25.9592  -25.8822   18.9790 H   0  0  0  0  0  0
  -23.9778  -27.3021   18.9883 H   0  0  0  0  0  0
  -23.7967  -30.5749   19.4009 H   0  0  0  0  0  0
  -22.7790  -29.2411   19.8467 H   0  0  0  0  0  0
  -25.1307  -36.1860   25.0812 H   0  0  0  0  0  0
  -21.0002  -28.3277   24.1363 H   0  0  0  0  0  0
  -20.5666  -26.2312   23.3610 H   0  0  0  0  0  0
  -21.6651  -26.7408   22.1207 H   0  0  0  0  0  0
  -19.6916  -25.6272   21.1250 H   0  0  0  0  0  0
  -19.6694  -27.3156   20.6712 H   0  0  0  0  0  0
  -17.4211  -26.6664   21.4011 H   0  0  0  0  0  0
  -18.0334  -26.0062   22.9008 H   0  0  0  0  0  0
  -19.7964  -30.7265   24.2235 H   0  0  0  0  0  0
  -17.5044  -31.6262   24.5145 H   0  0  0  0  0  0
  -15.5370  -30.2967   23.7670 H   0  0  0  0  0  0
  -15.8686  -28.0793   22.7104 H   0  0  0  0  0  0
  -24.5924  -30.7051   25.7744 H   0  0  0  0  0  0
  -24.8887  -32.2887   26.4814 H   0  0  0  0  0  0
  -25.8042  -30.8925   27.0229 H   0  0  0  0  0  0
  -26.3044  -29.6692   24.1307 H   0  0  0  0  0  0
  -27.4109  -29.7317   25.4827 H   0  0  0  0  0  0
  -27.8917  -30.4278   23.9559 H   0  0  0  0  0  0
  -27.2656  -33.3698   26.1988 H   0  0  0  0  0  0
  -28.3900  -32.6860   25.0349 H   0  0  0  0  0  0
  -28.0685  -31.8552   26.5499 H   0  0  0  0  0  0
  -28.2577  -38.0077   24.7525 H   0  0  0  0  0  0
  -28.1071  -36.2608   24.6304 H   0  0  0  0  0  0
  -27.2282  -37.1426   25.8876 H   0  0  0  0  0  0
  -20.9448  -29.8765   21.6833 H   0  0  0  0  0  0
  -26.0145  -38.2812   24.1437 H   0  0  0  0  0  0
  -27.6803  -18.5360   19.5509 H   0  0  0  0  0  0
  -29.1215  -18.2583   18.6665 H   0  0  0  0  0  0
  -31.4425  -18.6464   20.0039 H   0  0  0  0  0  0
  -31.3267  -19.3228   21.5896 H   0  0  0  0  0  0
  -28.4363  -16.1184   19.3320 H   0  0  0  0  0  0
  -28.0283  -16.5880   20.9617 H   0  0  0  0  0  0
  -30.2763  -17.2473   22.4412 H   0  0  0  0  0  0
  -31.7794  -16.9020   21.6650 H   0  0  0  0  0  0
  -28.8853  -19.4335   21.4683 H   0  0  0  0  0  0
  -27.1287  -21.0826   21.5149 H   0  0  0  0  0  0
  -27.3051  -22.7386   22.0582 H   0  0  0  0  0  0
  -28.4688  -21.5292   22.5785 H   0  0  0  0  0  0
  -30.7576  -19.3478   17.9837 H   0  0  0  0  0  0
  -32.1345  -20.2759   18.5904 H   0  0  0  0  0  0
  -31.3611  -20.6979   17.0742 H   0  0  0  0  0  0
  -28.9301  -25.3076   17.7660 H   0  0  0  0  0  0
  -30.5303  -24.7868   17.2559 H   0  0  0  0  0  0
  -30.3458  -25.6456   18.7767 H   0  0  0  0  0  0
  -28.1587  -24.7902   21.6186 H   0  0  0  0  0  0
  -26.9660  -24.5609   20.3994 H   0  0  0  0  0  0
  1 25  1  0  0  0
  1 30  2  0  0  0
  1 86  1  0  0  0
  2  3  1  0  0  0
  2 25  1  0  0  0
  2 87  1  0  0  0
  2 88  1  0  0  0
  3  4  1  0  0  0
  3 89  1  0  0  0
  3 90  1  0  0  0
  4  5  1  0  0  0
  4 91  1  0  0  0
  4 92  1  0  0  0
  5  6  1  0  0  0
  5 26  1  0  0  0
  5 93  1  0  0  0
  6 25  1  0  0  0
  6 94  1  0  0  0
  6 95  1  0  0  0
  7  8  2  0  0  0
  7 26  1  0  0  0
  7 29  1  0  0  0
  8  9  1  0  0  0
  8 22  1  0  0  0
  9 10  1  0  0  0
  9 27  2  0  0  0
 10 11  2  0  0  0
 10 15  1  0  0  0
 11 12  1  0  0  0
 11 96  1  0  0  0
 12 13  2  0  0  0
 12 97  1  0  0  0
 13 14  1  0  0  0
 13 31  1  0  0  0
 14 15  2  0  0  0
 14 98  1  0  0  0
 15 99  1  0  0  0
 16 17  2  0  0  0
 16 21  1  0  0  0
 16 31  1  0  0  0
 17 18  1  0  0  0
 17100  1  0  0  0
 18 19  2  0  0  0
 18101  1  0  0  0
 19 20  1  0  0  0
 19 24  1  0  0  0
 20 21  2  0  0  0
 20102  1  0  0  0
 21 23  1  0  0  0
 22 28  1  0  0  0
 22 32  2  0  0  0
 26 27  1  0  0  0
 28103  1  0  0  0
 28104  1  0  0  0
 29105  1  0  0  0
 29106  1  0  0  0
 33 34  1  0  0  0
 33 66  1  0  0  0
 33 70  2  0  0  0
 34 36  1  0  0  0
 34 59  1  0  0  0
 34107  1  0  0  0
 35 44  2  0  0  0
 35 45  1  0  0  0
 35 68  1  0  0  0
 36 56  1  0  0  0
 36108  1  0  0  0
 37 39  1  0  0  0
 37 47  1  0  0  0
 37 66  1  0  0  0
 37109  1  0  0  0
 38 43  2  0  0  0
 38 46  1  0  0  0
 38 47  1  0  0  0
 39 64  1  0  0  0
 39 67  2  0  0  0
 40 52  1  0  0  0
 40 53  2  0  0  0
 40 58  1  0  0  0
 41110  1  0  0  0
 41111  1  0  0  0
 41112  1  0  0  0
 41 48  1  0  0  0
 42 43  1  0  0  0
 42 66  1  0  0  0
 42113  1  0  0  0
 42114  1  0  0  0
 43 44  1  0  0  0
 44115  1  0  0  0
 45 46  2  0  0  0
 45116  1  0  0  0
 46117  1  0  0  0
 47118  1  0  0  0
 47119  1  0  0  0
 48 56  1  0  0  0
 48 65  1  0  0  0
 48120  1  0  0  0
 49 50  1  0  0  0
 49 53  1  0  0  0
 49 64  1  0  0  0
 49121  1  0  0  0
 50 51  1  0  0  0
 50122  1  0  0  0
 50123  1  0  0  0
 51 52  1  0  0  0
 51124  1  0  0  0
 51125  1  0  0  0
 52126  1  0  0  0
 52127  1  0  0  0
 53 54  1  0  0  0
 54 55  2  0  0  0
 54128  1  0  0  0
 55 57  1  0  0  0
 55129  1  0  0  0
 56 69  2  0  0  0
 57 58  2  0  0  0
 57130  1  0  0  0
 58131  1  0  0  0
 59 60  1  0  0  0
 59 61  1  0  0  0
 59 62  1  0  0  0
 60132  1  0  0  0
 60133  1  0  0  0
 60134  1  0  0  0
 61135  1  0  0  0
 61136  1  0  0  0
 61137  1  0  0  0
 62138  1  0  0  0
 62139  1  0  0  0
 62140  1  0  0  0
 63 65  1  0  0  0
 63141  1  0  0  0
 63142  1  0  0  0
 63143  1  0  0  0
 64144  1  0  0  0
 65145  1  0  0  0
 68 84  1  0  0  0
 71 72  2  0  0  0
 71 74  1  0  0  0
 71 80  1  0  0  0
 72 73  1  0  0  0
 72 81  1  0  0  0
 73 75  2  0  0  0
 73 84  1  0  0  0
 74 82  1  0  0  0
 74 85  2  0  0  0
 75 83  1  0  0  0
 75 85  1  0  0  0
 76 78  1  0  0  0
 76 80  1  0  0  0
 76146  1  0  0  0
 76147  1  0  0  0
 77 79  1  0  0  0
 77 80  1  0  0  0
 77148  1  0  0  0
 77149  1  0  0  0
 78 86  1  0  0  0
 78150  1  0  0  0
 78151  1  0  0  0
 79 86  1  0  0  0
 79152  1  0  0  0
 79153  1  0  0  0
 80154  1  0  0  0
 81155  1  0  0  0
 81156  1  0  0  0
 81157  1  0  0  0
 82158  1  0  0  0
 82159  1  0  0  0
 82160  1  0  0  0
 83161  1  0  0  0
 83162  1  0  0  0
 83163  1  0  0  0
 84164  1  0  0  0
 84165  1  0  0  0
M  ISO  4   1 100  68 101  84 101  86 100
M  END
> <chiral flag>
0

> <version>
0

> <s_m_source_file>
/data/baiqing/PycharmProjects/Reinvent-master-3.2/result/LINK_invent/BTK/process_docking_weight1_custom_sum_contain_oxygen_bond_distance_aromatic_linkinvent_7_9_3/rearranged_h_0160.sdf

> <i_m_source_file_index>
13

> <r_mmod_Potential_Energy-OPLS-2005>
426.871246337891

> <r_mmod_Stretch_Energy-OPLS-2005>
190.380416870117

> <r_mmod_Bend_Energy-OPLS-2005>
239.780776977539

> <r_mmod_Torsional_Energy-OPLS-2005>
337.630340576172

> <r_mmod_Improper_Torsional_Energy-OPLS-2005>
1.93758893013

> <r_mmod_Van_der_Waal_Energy-OPLS-2005>
145.806106567383

> <r_mmod_Electrostatic_Energy-OPLS-2005>
-418.221099853516

> <r_mmod_Solvation_Energy-OPLS-2005>
-212.324951171875

> <b_mmod_Minimization_Converged-OPLS-2005>
0

> <r_mmod_RMS_Derivative-OPLS-2005>
1.26584625244141

$$$$
13
                    3D
 Structure written by MMmdl.
178187  0  0  1  0            999 V2000
  -30.6636  -14.5902   20.4728 C   0  0  0  0  0  0
  -30.4230  -12.3514   19.4555 C   0  0  0  0  0  0
  -29.5062  -12.4950   18.2254 C   0  0  0  0  0  0
  -28.0277  -12.3394   18.6350 C   0  0  0  0  0  0
  -27.6506  -13.2097   19.8643 C   0  0  2  0  0  0
  -28.6963  -13.0899   20.9955 C   0  0  0  0  0  0
  -25.2561  -13.8145   20.5719 C   0  0  0  0  0  0
  -24.1823  -13.0406   20.9201 C   0  0  0  0  0  0
  -24.6397  -11.6887   20.8754 C   0  0  0  0  0  0
  -23.9077  -10.4279   21.0416 C   0  0  0  0  0  0
  -24.3630   -9.4202   21.9193 C   0  0  0  0  0  0
  -23.6297   -8.2239   22.0761 C   0  0  0  0  0  0
  -22.4278   -8.0286   21.3540 C   0  0  0  0  0  0
  -21.9925   -9.0258   20.4638 C   0  0  0  0  0  0
  -22.7258  -10.2131   20.3058 C   0  0  0  0  0  0
  -21.6860   -6.0751   22.5285 C   0  0  0  0  0  0
  -21.4021   -6.5662   23.8218 C   0  0  0  0  0  0
  -21.3657   -5.6811   24.9174 C   0  0  0  0  0  0
  -21.6043   -4.3073   24.7222 C   0  0  0  0  0  0
  -21.8826   -3.8165   23.4347 C   0  0  0  0  0  0
  -21.9194   -4.6978   22.3403 C   0  0  0  0  0  0
  -22.7857  -13.5205   21.1853 C   0  0  0  0  0  0
  -22.1661   -4.2172   21.0969 F   0  0  0  0  0  0
  -21.5620   -3.4552   25.7728 F   0  0  0  0  0  0
  -30.0115  -13.3912   20.4152 N   0  0  0  0  0  0
  -26.2981  -12.9316   20.3336 N   0  0  0  0  0  0
  -25.9318  -11.6484   20.5776 N   0  0  0  0  0  0
  -22.0515  -12.8153   22.0387 N   0  0  0  0  0  0
  -25.4249  -15.1860   20.4175 N   0  0  0  0  0  0
  -31.8540  -14.6895   20.1628 O   0  0  0  0  0  0
  -21.6634   -6.8889   21.4239 O   0  0  0  0  0  0
  -22.3548  -14.5523   20.6728 O   0  0  0  0  0  0
  -24.6189  -31.8661   23.2105 C   0  0  0  0  0  0
  -25.9058  -32.4816   23.8413 C   0  0  1  0  0  0
  -27.2218  -27.3973   20.1122 C   0  0  0  0  0  0
  -25.5902  -33.8617   24.2330 N   0  0  0  0  0  0
  -23.4102  -30.4922   21.5504 C   0  0  2  0  0  0
  -24.8586  -28.9664   20.1054 C   0  0  0  0  0  0
  -22.7444  -29.4647   22.4961 C   0  0  0  0  0  0
  -18.0281  -28.1382   22.8494 C   0  0  0  0  0  0
  -24.1486  -36.7311   23.2639 C   0  0  0  0  0  0
  -25.9442  -30.8233   21.3711 C   0  0  0  0  0  0
  -26.0225  -29.4582   20.7122 C   0  0  0  0  0  0
  -27.2113  -28.6820   20.7129 C   0  0  0  0  0  0
  -26.0497  -26.9517   19.4617 C   0  0  0  0  0  0
  -24.8700  -27.7145   19.4706 C   0  0  0  0  0  0
  -23.6216  -29.8345   20.1617 C   0  0  0  0  0  0
  -25.4107  -36.3111   24.0344 C   0  0  1  0  0  0
  -20.5882  -28.3679   23.1304 C   0  0  2  0  0  0
  -20.6770  -26.9407   22.5420 C   0  0  0  0  0  0
  -19.5750  -26.6390   21.5213 C   0  0  0  0  0  0
  -18.1922  -26.7933   22.1620 C   0  0  0  0  0  0
  -19.1532  -28.8846   23.2897 C   0  0  0  0  0  0
  -18.9452  -30.1446   23.8915 C   0  0  0  0  0  0
  -17.6457  -30.6590   24.0574 C   0  0  0  0  0  0
  -25.9039  -34.9475   23.5133 C   0  0  0  0  0  0
  -16.5349  -29.9091   23.6330 C   0  0  0  0  0  0
  -16.7272  -28.6503   23.0358 C   0  0  0  0  0  0
  -26.4479  -31.6597   25.0741 C   0  0  0  0  0  0
  -25.3730  -31.3674   26.1471 C   0  0  0  0  0  0
  -27.0337  -30.3050   24.6119 C   0  0  0  0  0  0
  -27.6048  -32.4320   25.7513 C   0  0  0  0  0  0
  -27.5584  -37.1810   24.8463 C   0  0  0  0  0  0
  -21.4166  -29.3037   22.3699 N   0  0  0  0  0  0
  -26.4289  -37.3798   23.9420 N   0  0  0  0  0  0
  -24.6762  -31.0743   22.1021 N   0  0  0  0  0  0
  -23.4195  -28.8184   23.3016 O   0  0  0  0  0  0
  -28.3081  -26.5376   20.1941 O   0  0  0  0  0  0
  -26.5618  -34.8932   22.4706 O   0  0  0  0  0  0
  -23.5364  -32.1420   23.7473 O   0  0  0  0  0  0
  -29.3399  -21.9823   19.4642 C   0  0  0  0  0  0
  -30.0461  -22.1270   21.7970 C   0  0  0  0  0  0
  -28.7756  -23.2933   19.5525 C   0  0  0  0  0  0
  -29.5060  -23.4503   21.8731 C   0  0  0  0  0  0
  -30.0007  -21.3817   20.5801 C   0  0  0  0  0  0
  -28.8291  -24.0351   20.7641 C   0  0  0  0  0  0
  -29.4698  -16.5087   21.5639 C   0  0  0  0  0  0
  -30.0747  -17.9600   21.6583 C   0  0  0  0  0  0
  -30.6884  -17.8372   19.3165 C   0  0  0  0  0  0
  -29.8864  -16.5236   19.1417 C   0  0  2  0  0  0
  -29.2306  -21.2349   18.1358 C   0  0  0  0  0  0
  -30.6934  -21.5219   23.0447 C   0  0  0  0  0  0
  -28.0865  -23.9093   18.3339 C   0  0  0  0  0  0
  -29.6553  -24.2643   23.1612 C   0  0  0  0  0  0
  -28.1809  -16.1859   17.2135 C   0  0  0  0  0  0
  -30.8238  -20.0566   20.4164 C   0  0  0  0  0  0
  -27.9763  -25.3301   20.9423 C   0  0  0  0  0  0
  -28.4577  -16.7983   18.5923 C   0  0  0  0  0  0
  -29.8696  -15.7068   20.3822 N   0  0  0  0  0  0
  -30.1159  -18.7198   20.3703 N   0  3  2  0  0  0
  -31.4699  -12.4435   19.1616 H   0  0  0  0  0  0
  -30.3189  -11.3611   19.9010 H   0  0  0  0  0  0
  -29.7664  -11.7585   17.4646 H   0  0  0  0  0  0
  -29.6663  -13.4718   17.7691 H   0  0  0  0  0  0
  -27.8591  -11.2865   18.8626 H   0  0  0  0  0  0
  -27.3743  -12.5750   17.7945 H   0  0  0  0  0  0
  -27.6597  -14.2376   19.5146 H   0  0  0  0  0  0
  -28.6957  -12.0864   21.4218 H   0  0  0  0  0  0
  -28.4601  -13.7725   21.8121 H   0  0  0  0  0  0
  -25.2786   -9.5678   22.4749 H   0  0  0  0  0  0
  -24.0023   -7.4638   22.7474 H   0  0  0  0  0  0
  -21.0880   -8.8779   19.8916 H   0  0  0  0  0  0
  -22.3745  -10.9670   19.6165 H   0  0  0  0  0  0
  -21.2030   -7.6173   23.9724 H   0  0  0  0  0  0
  -21.1462   -6.0534   25.9071 H   0  0  0  0  0  0
  -22.0603   -2.7631   23.2828 H   0  0  0  0  0  0
  -22.4160  -11.9773   22.4687 H   0  0  0  0  0  0
  -21.1122  -13.1120   22.2618 H   0  0  0  0  0  0
  -24.6532  -15.8341   20.5335 H   0  0  0  0  0  0
  -26.2704  -15.6266   20.0828 H   0  0  0  0  0  0
  -26.7132  -32.5536   23.1188 H   0  0  0  0  0  0
  -25.0053  -33.9780   25.0473 H   0  0  0  0  0  0
  -22.6989  -31.3101   21.4150 H   0  0  0  0  0  0
  -23.3766  -35.9623   23.3276 H   0  0  0  0  0  0
  -24.3571  -36.8954   22.2060 H   0  0  0  0  0  0
  -23.7223  -37.6497   23.6679 H   0  0  0  0  0  0
  -26.0604  -31.5906   20.6048 H   0  0  0  0  0  0
  -26.8307  -30.8754   21.9914 H   0  0  0  0  0  0
  -28.1002  -29.0449   21.2103 H   0  0  0  0  0  0
  -26.0333  -25.9901   18.9693 H   0  0  0  0  0  0
  -23.9812  -27.3343   18.9857 H   0  0  0  0  0  0
  -23.7324  -30.6156   19.4092 H   0  0  0  0  0  0
  -22.7446  -29.2577   19.8622 H   0  0  0  0  0  0
  -25.1277  -36.1978   25.0843 H   0  0  0  0  0  0
  -20.9975  -28.3253   24.1428 H   0  0  0  0  0  0
  -20.5660  -26.2286   23.3611 H   0  0  0  0  0  0
  -21.6639  -26.7436   22.1229 H   0  0  0  0  0  0
  -19.6910  -25.6306   21.1229 H   0  0  0  0  0  0
  -19.6691  -27.3205   20.6746 H   0  0  0  0  0  0
  -17.4201  -26.6706   21.4006 H   0  0  0  0  0  0
  -18.0300  -26.0061   22.8997 H   0  0  0  0  0  0
  -19.7925  -30.7251   24.2300 H   0  0  0  0  0  0
  -17.5014  -31.6267   24.5183 H   0  0  0  0  0  0
  -15.5345  -30.3004   23.7638 H   0  0  0  0  0  0
  -15.8671  -28.0822   22.7078 H   0  0  0  0  0  0
  -24.5962  -30.6953   25.7795 H   0  0  0  0  0  0
  -24.8845  -32.2805   26.4878 H   0  0  0  0  0  0
  -25.8091  -30.8889   27.0249 H   0  0  0  0  0  0
  -26.2892  -29.6801   24.1165 H   0  0  0  0  0  0
  -27.4112  -29.7292   25.4579 H   0  0  0  0  0  0
  -27.8723  -30.4386   23.9281 H   0  0  0  0  0  0
  -27.2663  -33.3605   26.2126 H   0  0  0  0  0  0
  -28.3844  -32.6900   25.0331 H   0  0  0  0  0  0
  -28.0740  -31.8422   26.5397 H   0  0  0  0  0  0
  -28.2591  -38.0120   24.7546 H   0  0  0  0  0  0
  -28.1099  -36.2656   24.6255 H   0  0  0  0  0  0
  -27.2307  -37.1423   25.8866 H   0  0  0  0  0  0
  -20.9325  -29.8768   21.6932 H   0  0  0  0  0  0
  -26.0181  -38.2870   24.1448 H   0  0  0  0  0  0
  -28.3813  -16.5824   21.5559 H   0  0  0  0  0  0
  -29.7050  -15.9659   22.4814 H   0  0  0  0  0  0
  -31.0912  -17.8830   22.0477 H   0  0  0  0  0  0
  -29.5105  -18.5340   22.3948 H   0  0  0  0  0  0
  -30.7298  -18.3560   18.3578 H   0  0  0  0  0  0
  -31.7244  -17.6019   19.5713 H   0  0  0  0  0  0
  -30.4159  -15.9581   18.3712 H   0  0  0  0  0  0
  -28.2496  -21.3753   17.6814 H   0  0  0  0  0  0
  -29.3390  -20.1612   18.2308 H   0  0  0  0  0  0
  -29.9856  -21.5938   17.4355 H   0  0  0  0  0  0
  -30.1327  -21.7756   23.9439 H   0  0  0  0  0  0
  -31.7132  -21.8895   23.1622 H   0  0  0  0  0  0
  -30.7190  -20.4363   23.0386 H   0  0  0  0  0  0
  -28.5496  -23.6076   17.3952 H   0  0  0  0  0  0
  -28.1445  -24.9948   18.3283 H   0  0  0  0  0  0
  -27.0346  -23.6261   18.3056 H   0  0  0  0  0  0
  -30.5000  -23.9583   23.7751 H   0  0  0  0  0  0
  -28.7515  -24.1976   23.7670 H   0  0  0  0  0  0
  -29.8472  -25.3138   22.9394 H   0  0  0  0  0  0
  -27.1894  -16.4700   16.8578 H   0  0  0  0  0  0
  -28.2145  -15.0986   17.2334 H   0  0  0  0  0  0
  -28.9010  -16.5338   16.4727 H   0  0  0  0  0  0
  -31.6463  -20.0082   21.1286 H   0  0  0  0  0  0
  -31.3652  -20.1971   19.4804 H   0  0  0  0  0  0
  -27.9042  -25.6256   21.9860 H   0  0  0  0  0  0
  -26.9634  -24.9897   20.7293 H   0  0  0  0  0  0
  -28.2891  -17.8708   18.4952 H   0  0  0  0  0  0
  -27.6965  -16.4681   19.2959 H   0  0  0  0  0  0
  -29.1638  -18.9195   20.1062 H   0  0  0  0  0  0
  1 25  1  0  0  0
  1 30  2  0  0  0
  1 89  1  0  0  0
  2  3  1  0  0  0
  2 25  1  0  0  0
  2 91  1  0  0  0
  2 92  1  0  0  0
  3  4  1  0  0  0
  3 93  1  0  0  0
  3 94  1  0  0  0
  4  5  1  0  0  0
  4 95  1  0  0  0
  4 96  1  0  0  0
  5  6  1  0  0  0
  5 26  1  0  0  0
  5 97  1  0  0  0
  6 25  1  0  0  0
  6 98  1  0  0  0
  6 99  1  0  0  0
  7  8  2  0  0  0
  7 26  1  0  0  0
  7 29  1  0  0  0
  8  9  1  0  0  0
  8 22  1  0  0  0
  9 10  1  0  0  0
  9 27  2  0  0  0
 10 11  2  0  0  0
 10 15  1  0  0  0
 11 12  1  0  0  0
 11100  1  0  0  0
 12 13  2  0  0  0
 12101  1  0  0  0
 13 14  1  0  0  0
 13 31  1  0  0  0
 14 15  2  0  0  0
 14102  1  0  0  0
 15103  1  0  0  0
 16 17  2  0  0  0
 16 21  1  0  0  0
 16 31  1  0  0  0
 17 18  1  0  0  0
 17104  1  0  0  0
 18 19  2  0  0  0
 18105  1  0  0  0
 19 20  1  0  0  0
 19 24  1  0  0  0
 20 21  2  0  0  0
 20106  1  0  0  0
 21 23  1  0  0  0
 22 28  1  0  0  0
 22 32  2  0  0  0
 26 27  1  0  0  0
 28107  1  0  0  0
 28108  1  0  0  0
 29109  1  0  0  0
 29110  1  0  0  0
 33 34  1  0  0  0
 33 66  1  0  0  0
 33 70  2  0  0  0
 34 36  1  0  0  0
 34 59  1  0  0  0
 34111  1  0  0  0
 35 44  2  0  0  0
 35 45  1  0  0  0
 35 68  1  0  0  0
 36 56  1  0  0  0
 36112  1  0  0  0
 37 39  1  0  0  0
 37 47  1  0  0  0
 37 66  1  0  0  0
 37113  1  0  0  0
 38 43  2  0  0  0
 38 46  1  0  0  0
 38 47  1  0  0  0
 39 64  1  0  0  0
 39 67  2  0  0  0
 40 52  1  0  0  0
 40 53  2  0  0  0
 40 58  1  0  0  0
 41114  1  0  0  0
 41115  1  0  0  0
 41116  1  0  0  0
 41 48  1  0  0  0
 42 43  1  0  0  0
 42 66  1  0  0  0
 42117  1  0  0  0
 42118  1  0  0  0
 43 44  1  0  0  0
 44119  1  0  0  0
 45 46  2  0  0  0
 45120  1  0  0  0
 46121  1  0  0  0
 47122  1  0  0  0
 47123  1  0  0  0
 48 56  1  0  0  0
 48 65  1  0  0  0
 48124  1  0  0  0
 49 50  1  0  0  0
 49 53  1  0  0  0
 49 64  1  0  0  0
 49125  1  0  0  0
 50 51  1  0  0  0
 50126  1  0  0  0
 50127  1  0  0  0
 51 52  1  0  0  0
 51128  1  0  0  0
 51129  1  0  0  0
 52130  1  0  0  0
 52131  1  0  0  0
 53 54  1  0  0  0
 54 55  2  0  0  0
 54132  1  0  0  0
 55 57  1  0  0  0
 55133  1  0  0  0
 56 69  2  0  0  0
 57 58  2  0  0  0
 57134  1  0  0  0
 58135  1  0  0  0
 59 60  1  0  0  0
 59 61  1  0  0  0
 59 62  1  0  0  0
 60136  1  0  0  0
 60137  1  0  0  0
 60138  1  0  0  0
 61139  1  0  0  0
 61140  1  0  0  0
 61141  1  0  0  0
 62142  1  0  0  0
 62143  1  0  0  0
 62144  1  0  0  0
 63 65  1  0  0  0
 63145  1  0  0  0
 63146  1  0  0  0
 63147  1  0  0  0
 64148  1  0  0  0
 65149  1  0  0  0
 68 87  1  0  0  0
 71 73  2  0  0  0
 71 75  1  0  0  0
 71 81  1  0  0  0
 72 74  1  0  0  0
 72 75  2  0  0  0
 72 82  1  0  0  0
 73 76  1  0  0  0
 73 83  1  0  0  0
 74 76  2  0  0  0
 74 84  1  0  0  0
 75 86  1  0  0  0
 76 87  1  0  0  0
 77 78  1  0  0  0
 77 89  1  0  0  0
 77150  1  0  0  0
 77151  1  0  0  0
 78 90  1  0  0  0
 78152  1  0  0  0
 78153  1  0  0  0
 79 80  1  0  0  0
 79 90  1  0  0  0
 79154  1  0  0  0
 79155  1  0  0  0
 80 88  1  0  0  0
 80 89  1  0  0  0
 80156  1  0  0  0
 81157  1  0  0  0
 81158  1  0  0  0
 81159  1  0  0  0
 82160  1  0  0  0
 82161  1  0  0  0
 82162  1  0  0  0
 83163  1  0  0  0
 83164  1  0  0  0
 83165  1  0  0  0
 84166  1  0  0  0
 84167  1  0  0  0
 84168  1  0  0  0
 85 88  1  0  0  0
 85169  1  0  0  0
 85170  1  0  0  0
 85171  1  0  0  0
 86172  1  0  0  0
 86173  1  0  0  0
 86 90  1  0  0  0
 87174  1  0  0  0
 87175  1  0  0  0
 88176  1  0  0  0
 88177  1  0  0  0
 90178  1  0  0  0
M  CHG  1  90   1
M  ISO  4   1 100  68 101  87 101  89 100
M  END
> <chiral flag>
0

> <version>
0

> <s_m_source_file>
/data/baiqing/PycharmProjects/Reinvent-master-3.2/result/LINK_invent/BTK/process_docking_weight1_custom_sum_contain_oxygen_bond_distance_aromatic_linkinvent_7_9_3/rearranged_h_0160.sdf

> <i_m_source_file_index>
14

> <r_mmod_Potential_Energy-OPLS-2005>
228.453262329102

> <r_mmod_Stretch_Energy-OPLS-2005>
67.9060363769531

> <r_mmod_Bend_Energy-OPLS-2005>
129.142822265625

> <r_mmod_Torsional_Energy-OPLS-2005>
458.002655029297

> <r_mmod_Improper_Torsional_Energy-OPLS-2005>
19.5616931915283

> <r_mmod_Van_der_Waal_Energy-OPLS-2005>
167.585403442383

> <r_mmod_Electrostatic_Energy-OPLS-2005>
-242.122604370117

> <r_mmod_Solvation_Energy-OPLS-2005>
-408.304443359375

> <b_mmod_Minimization_Converged-OPLS-2005>
0

> <r_mmod_RMS_Derivative-OPLS-2005>
2.01609802246094

$$$$
14
                    3D
 Structure written by MMmdl.
171180  0  0  1  0            999 V2000
  -30.7129  -14.5689   20.4801 C   0  0  0  0  0  0
  -30.4150  -12.3365   19.4636 C   0  0  0  0  0  0
  -29.5210  -12.5067   18.2204 C   0  0  0  0  0  0
  -28.0312  -12.3888   18.6107 C   0  0  0  0  0  0
  -27.6593  -13.2345   19.8632 C   0  0  2  0  0  0
  -28.7039  -13.0937   20.9917 C   0  0  0  0  0  0
  -25.2601  -13.8203   20.5686 C   0  0  0  0  0  0
  -24.1865  -13.0459   20.9166 C   0  0  0  0  0  0
  -24.6444  -11.6936   20.8697 C   0  0  0  0  0  0
  -23.9097  -10.4308   21.0380 C   0  0  0  0  0  0
  -24.3630   -9.4217   21.9167 C   0  0  0  0  0  0
  -23.6291   -8.2263   22.0745 C   0  0  0  0  0  0
  -22.4272   -8.0301   21.3547 C   0  0  0  0  0  0
  -21.9931   -9.0274   20.4630 C   0  0  0  0  0  0
  -22.7282  -10.2147   20.3033 C   0  0  0  0  0  0
  -21.6855   -6.0744   22.5268 C   0  0  0  0  0  0
  -21.4024   -6.5634   23.8218 C   0  0  0  0  0  0
  -21.3670   -5.6764   24.9162 C   0  0  0  0  0  0
  -21.6034   -4.3031   24.7198 C   0  0  0  0  0  0
  -21.8814   -3.8152   23.4317 C   0  0  0  0  0  0
  -21.9191   -4.6978   22.3379 C   0  0  0  0  0  0
  -22.7877  -13.5274   21.1775 C   0  0  0  0  0  0
  -22.1658   -4.2180   21.0955 F   0  0  0  0  0  0
  -21.5635   -3.4505   25.7708 F   0  0  0  0  0  0
  -30.0188  -13.3930   20.4107 N   0  0  0  0  0  0
  -26.3046  -12.9413   20.3304 N   0  0  0  0  0  0
  -25.9382  -11.6545   20.5700 N   0  0  0  0  0  0
  -22.0445  -12.8323   22.0309 N   0  0  0  0  0  0
  -25.4406  -15.1906   20.4132 N   0  0  0  0  0  0
  -31.9023  -14.6174   20.1485 O   0  0  0  0  0  0
  -21.6627   -6.8901   21.4248 O   0  0  0  0  0  0
  -22.3594  -14.5582   20.6590 O   0  0  0  0  0  0
  -24.6194  -31.8660   23.2101 C   0  0  0  0  0  0
  -25.9074  -32.4799   23.8397 C   0  0  1  0  0  0
  -27.2000  -27.3514   20.1254 C   0  0  0  0  0  0
  -25.5920  -33.8601   24.2301 N   0  0  0  0  0  0
  -23.4097  -30.4940   21.5544 C   0  0  2  0  0  0
  -24.8524  -28.9577   20.1091 C   0  0  0  0  0  0
  -22.7438  -29.4644   22.4997 C   0  0  0  0  0  0
  -18.0284  -28.1363   22.8473 C   0  0  0  0  0  0
  -24.1484  -36.7262   23.2635 C   0  0  0  0  0  0
  -25.9517  -30.8010   21.3857 C   0  0  0  0  0  0
  -26.0204  -29.4379   20.7171 C   0  0  0  0  0  0
  -27.2010  -28.6435   20.7194 C   0  0  0  0  0  0
  -26.0278  -26.9308   19.4601 C   0  0  0  0  0  0
  -24.8564  -27.7064   19.4740 C   0  0  0  0  0  0
  -23.6197  -29.8343   20.1674 C   0  0  0  0  0  0
  -25.4117  -36.3094   24.0339 C   0  0  1  0  0  0
  -20.5870  -28.3644   23.1293 C   0  0  2  0  0  0
  -20.6774  -26.9377   22.5414 C   0  0  0  0  0  0
  -19.5762  -26.6360   21.5197 C   0  0  0  0  0  0
  -18.1931  -26.7910   22.1592 C   0  0  0  0  0  0
  -19.1532  -28.8828   23.2858 C   0  0  0  0  0  0
  -18.9475  -30.1453   23.8837 C   0  0  0  0  0  0
  -17.6477  -30.6577   24.0538 C   0  0  0  0  0  0
  -25.9064  -34.9470   23.5115 C   0  0  0  0  0  0
  -16.5357  -29.9062   23.6348 C   0  0  0  0  0  0
  -16.7279  -28.6486   23.0344 C   0  0  0  0  0  0
  -26.4467  -31.6589   25.0753 C   0  0  0  0  0  0
  -25.3691  -31.3750   26.1465 C   0  0  0  0  0  0
  -27.0318  -30.3010   24.6233 C   0  0  0  0  0  0
  -27.6036  -32.4327   25.7495 C   0  0  0  0  0  0
  -27.5612  -37.1748   24.8433 C   0  0  0  0  0  0
  -21.4162  -29.3007   22.3691 N   0  0  0  0  0  0
  -26.4287  -37.3801   23.9436 N   0  0  0  0  0  0
  -24.6780  -31.0709   22.1036 N   0  0  0  0  0  0
  -23.4187  -28.8202   23.3055 O   0  0  0  0  0  0
  -28.2873  -26.4825   20.1939 O   0  0  0  0  0  0
  -26.5634  -34.8930   22.4681 O   0  0  0  0  0  0
  -23.5371  -32.1458   23.7445 O   0  0  0  0  0  0
  -30.2076  -24.2709   19.9149 C   0  0  0  0  0  0
  -31.1545  -23.2628   19.6639 C   0  0  0  0  0  0
  -28.9655  -23.9790   20.4882 C   0  0  0  0  0  0
  -30.8716  -21.8944   19.9621 C   0  0  0  0  0  0
  -28.6799  -22.6070   20.8194 C   0  0  0  0  0  0
  -29.6088  -21.5322   20.5405 C   0  0  0  0  0  0
  -29.4605  -18.0621   19.5027 C   0  0  0  0  0  0
  -29.4191  -17.8963   21.9226 C   0  0  0  0  0  0
  -30.1938  -16.6884   19.4203 C   0  0  0  0  0  0
  -30.0647  -16.4687   21.8624 C   0  0  0  0  0  0
  -29.8353  -18.8495   20.7758 C   0  0  0  0  0  0
  -32.4820  -23.7178   19.0713 C   0  0  0  0  0  0
  -31.9505  -20.8552   19.6651 C   0  0  0  0  0  0
  -26.2411  -21.9615   20.4645 C   0  0  0  0  0  0
  -27.3382  -22.2937   21.4863 C   0  0  0  0  0  0
  -27.9694  -25.1518   20.7449 C   0  0  0  0  0  0
  -30.0080  -15.7506   20.5669 N   0  0  0  0  0  0
  -29.1876  -20.1945   20.8694 N   0  0  0  0  0  0
  -31.4733  -12.3769   19.1960 H   0  0  0  0  0  0
  -30.2667  -11.3504   19.9080 H   0  0  0  0  0  0
  -29.7771  -11.7617   17.4672 H   0  0  0  0  0  0
  -29.7134  -13.4772   17.7617 H   0  0  0  0  0  0
  -27.8199  -11.3349   18.7895 H   0  0  0  0  0  0
  -27.4062  -12.6895   17.7679 H   0  0  0  0  0  0
  -27.6821  -14.2761   19.5396 H   0  0  0  0  0  0
  -28.6946  -12.0837   21.4064 H   0  0  0  0  0  0
  -28.4784  -13.7687   21.8196 H   0  0  0  0  0  0
  -25.2773   -9.5699   22.4723 H   0  0  0  0  0  0
  -23.9993   -7.4657   22.7483 H   0  0  0  0  0  0
  -21.0865   -8.8811   19.8936 H   0  0  0  0  0  0
  -22.3757  -10.9669   19.6120 H   0  0  0  0  0  0
  -21.2031   -7.6129   23.9746 H   0  0  0  0  0  0
  -21.1495   -6.0469   25.9074 H   0  0  0  0  0  0
  -22.0593   -2.7622   23.2770 H   0  0  0  0  0  0
  -22.4001  -12.0008   22.4774 H   0  0  0  0  0  0
  -21.1058  -13.1421   22.2375 H   0  0  0  0  0  0
  -24.6935  -15.8663   20.5269 H   0  0  0  0  0  0
  -26.3152  -15.6125   20.1258 H   0  0  0  0  0  0
  -26.7132  -32.5459   23.1138 H   0  0  0  0  0  0
  -25.0037  -33.9768   25.0424 H   0  0  0  0  0  0
  -22.6978  -31.3107   21.4189 H   0  0  0  0  0  0
  -23.3823  -35.9508   23.3215 H   0  0  0  0  0  0
  -24.3587  -36.8979   22.2070 H   0  0  0  0  0  0
  -23.7134  -37.6396   23.6702 H   0  0  0  0  0  0
  -26.1087  -31.5812   20.6387 H   0  0  0  0  0  0
  -26.8190  -30.8192   22.0347 H   0  0  0  0  0  0
  -28.0932  -29.0005   21.2143 H   0  0  0  0  0  0
  -26.0058  -25.9859   18.9350 H   0  0  0  0  0  0
  -23.9600  -27.3394   18.9938 H   0  0  0  0  0  0
  -23.7265  -30.6119   19.4103 H   0  0  0  0  0  0
  -22.7389  -29.2622   19.8736 H   0  0  0  0  0  0
  -25.1288  -36.1942   25.0828 H   0  0  0  0  0  0
  -20.9959  -28.3221   24.1414 H   0  0  0  0  0  0
  -20.5675  -26.2260   23.3610 H   0  0  0  0  0  0
  -21.6652  -26.7416   22.1209 H   0  0  0  0  0  0
  -19.6923  -25.6261   21.1258 H   0  0  0  0  0  0
  -19.6730  -27.3146   20.6711 H   0  0  0  0  0  0
  -17.4228  -26.6680   21.3965 H   0  0  0  0  0  0
  -18.0304  -26.0043   22.8967 H   0  0  0  0  0  0
  -19.7969  -30.7283   24.2137 H   0  0  0  0  0  0
  -17.5054  -31.6251   24.5148 H   0  0  0  0  0  0
  -15.5362  -30.2947   23.7714 H   0  0  0  0  0  0
  -15.8682  -28.0818   22.7049 H   0  0  0  0  0  0
  -24.5806  -30.7175   25.7780 H   0  0  0  0  0  0
  -24.8938  -32.2929   26.4933 H   0  0  0  0  0  0
  -25.7985  -30.8861   27.0217 H   0  0  0  0  0  0
  -26.2901  -29.6734   24.1275 H   0  0  0  0  0  0
  -27.4020  -29.7295   25.4759 H   0  0  0  0  0  0
  -27.8776  -30.4290   23.9473 H   0  0  0  0  0  0
  -27.2655  -33.3630   26.2071 H   0  0  0  0  0  0
  -28.3821  -32.6884   25.0293 H   0  0  0  0  0  0
  -28.0712  -31.8444   26.5403 H   0  0  0  0  0  0
  -28.2535  -38.0152   24.7684 H   0  0  0  0  0  0
  -28.1218  -36.2697   24.6000 H   0  0  0  0  0  0
  -27.2354  -37.1086   25.8836 H   0  0  0  0  0  0
  -20.9335  -29.8696   21.6881 H   0  0  0  0  0  0
  -26.0177  -38.2868   24.1515 H   0  0  0  0  0  0
  -30.4362  -25.2981   19.6662 H   0  0  0  0  0  0
  -28.3819  -17.8953   19.4618 H   0  0  0  0  0  0
  -29.6965  -18.6459   18.6129 H   0  0  0  0  0  0
  -29.6882  -18.3487   22.8778 H   0  0  0  0  0  0
  -28.3341  -17.7868   21.9433 H   0  0  0  0  0  0
  -31.2587  -16.9037   19.3004 H   0  0  0  0  0  0
  -29.8885  -16.1805   18.5034 H   0  0  0  0  0  0
  -29.6002  -15.8378   22.6208 H   0  0  0  0  0  0
  -31.1142  -16.5593   22.1517 H   0  0  0  0  0  0
  -30.9133  -18.9456   20.8467 H   0  0  0  0  0  0
  -32.4891  -24.7896   18.8626 H   0  0  0  0  0  0
  -32.6846  -23.2174   18.1257 H   0  0  0  0  0  0
  -33.3010  -23.5162   19.7615 H   0  0  0  0  0  0
  -32.7784  -21.2224   19.0645 H   0  0  0  0  0  0
  -31.5434  -20.0229   19.0968 H   0  0  0  0  0  0
  -32.3864  -20.4921   20.5959 H   0  0  0  0  0  0
  -25.3099  -21.6965   20.9664 H   0  0  0  0  0  0
  -26.5322  -21.1211   19.8351 H   0  0  0  0  0  0
  -26.0336  -22.8065   19.8086 H   0  0  0  0  0  0
  -27.0199  -23.1278   22.1090 H   0  0  0  0  0  0
  -27.4467  -21.4756   22.1981 H   0  0  0  0  0  0
  -27.8693  -25.2689   21.8250 H   0  0  0  0  0  0
  -26.9908  -24.8000   20.4235 H   0  0  0  0  0  0
  -28.2581  -20.1558   21.2701 H   0  0  0  0  0  0
  1 25  1  0  0  0
  1 30  2  0  0  0
  1 87  1  0  0  0
  2  3  1  0  0  0
  2 25  1  0  0  0
  2 89  1  0  0  0
  2 90  1  0  0  0
  3  4  1  0  0  0
  3 91  1  0  0  0
  3 92  1  0  0  0
  4  5  1  0  0  0
  4 93  1  0  0  0
  4 94  1  0  0  0
  5  6  1  0  0  0
  5 26  1  0  0  0
  5 95  1  0  0  0
  6 25  1  0  0  0
  6 96  1  0  0  0
  6 97  1  0  0  0
  7  8  2  0  0  0
  7 26  1  0  0  0
  7 29  1  0  0  0
  8  9  1  0  0  0
  8 22  1  0  0  0
  9 10  1  0  0  0
  9 27  2  0  0  0
 10 11  2  0  0  0
 10 15  1  0  0  0
 11 12  1  0  0  0
 11 98  1  0  0  0
 12 13  2  0  0  0
 12 99  1  0  0  0
 13 14  1  0  0  0
 13 31  1  0  0  0
 14 15  2  0  0  0
 14100  1  0  0  0
 15101  1  0  0  0
 16 17  2  0  0  0
 16 21  1  0  0  0
 16 31  1  0  0  0
 17 18  1  0  0  0
 17102  1  0  0  0
 18 19  2  0  0  0
 18103  1  0  0  0
 19 20  1  0  0  0
 19 24  1  0  0  0
 20 21  2  0  0  0
 20104  1  0  0  0
 21 23  1  0  0  0
 22 28  1  0  0  0
 22 32  2  0  0  0
 26 27  1  0  0  0
 28105  1  0  0  0
 28106  1  0  0  0
 29107  1  0  0  0
 29108  1  0  0  0
 33 34  1  0  0  0
 33 66  1  0  0  0
 33 70  2  0  0  0
 34 36  1  0  0  0
 34 59  1  0  0  0
 34109  1  0  0  0
 35 44  2  0  0  0
 35 45  1  0  0  0
 35 68  1  0  0  0
 36 56  1  0  0  0
 36110  1  0  0  0
 37 39  1  0  0  0
 37 47  1  0  0  0
 37 66  1  0  0  0
 37111  1  0  0  0
 38 43  2  0  0  0
 38 46  1  0  0  0
 38 47  1  0  0  0
 39 64  1  0  0  0
 39 67  2  0  0  0
 40 52  1  0  0  0
 40 53  2  0  0  0
 40 58  1  0  0  0
 41112  1  0  0  0
 41113  1  0  0  0
 41114  1  0  0  0
 41 48  1  0  0  0
 42 43  1  0  0  0
 42 66  1  0  0  0
 42115  1  0  0  0
 42116  1  0  0  0
 43 44  1  0  0  0
 44117  1  0  0  0
 45 46  2  0  0  0
 45118  1  0  0  0
 46119  1  0  0  0
 47120  1  0  0  0
 47121  1  0  0  0
 48 56  1  0  0  0
 48 65  1  0  0  0
 48122  1  0  0  0
 49 50  1  0  0  0
 49 53  1  0  0  0
 49 64  1  0  0  0
 49123  1  0  0  0
 50 51  1  0  0  0
 50124  1  0  0  0
 50125  1  0  0  0
 51 52  1  0  0  0
 51126  1  0  0  0
 51127  1  0  0  0
 52128  1  0  0  0
 52129  1  0  0  0
 53 54  1  0  0  0
 54 55  2  0  0  0
 54130  1  0  0  0
 55 57  1  0  0  0
 55131  1  0  0  0
 56 69  2  0  0  0
 57 58  2  0  0  0
 57132  1  0  0  0
 58133  1  0  0  0
 59 60  1  0  0  0
 59 61  1  0  0  0
 59 62  1  0  0  0
 60134  1  0  0  0
 60135  1  0  0  0
 60136  1  0  0  0
 61137  1  0  0  0
 61138  1  0  0  0
 61139  1  0  0  0
 62140  1  0  0  0
 62141  1  0  0  0
 62142  1  0  0  0
 63 65  1  0  0  0
 63143  1  0  0  0
 63144  1  0  0  0
 63145  1  0  0  0
 64146  1  0  0  0
 65147  1  0  0  0
 68 86  1  0  0  0
 71 72  2  0  0  0
 71 73  1  0  0  0
 71148  1  0  0  0
 72 74  1  0  0  0
 72 82  1  0  0  0
 73 75  2  0  0  0
 73 86  1  0  0  0
 74 76  2  0  0  0
 74 83  1  0  0  0
 75 76  1  0  0  0
 75 85  1  0  0  0
 76 88  1  0  0  0
 77 79  1  0  0  0
 77 81  1  0  0  0
 77149  1  0  0  0
 77150  1  0  0  0
 78 80  1  0  0  0
 78 81  1  0  0  0
 78151  1  0  0  0
 78152  1  0  0  0
 79 87  1  0  0  0
 79153  1  0  0  0
 79154  1  0  0  0
 80 87  1  0  0  0
 80155  1  0  0  0
 80156  1  0  0  0
 81 88  1  0  0  0
 81157  1  0  0  0
 82158  1  0  0  0
 82159  1  0  0  0
 82160  1  0  0  0
 83161  1  0  0  0
 83162  1  0  0  0
 83163  1  0  0  0
 84 85  1  0  0  0
 84164  1  0  0  0
 84165  1  0  0  0
 84166  1  0  0  0
 85167  1  0  0  0
 85168  1  0  0  0
 86169  1  0  0  0
 86170  1  0  0  0
 88171  1  0  0  0
M  ISO  4   1 100  68 101  86 101  87 100
M  END
> <chiral flag>
0

> <version>
0

> <s_m_source_file>
/data/baiqing/PycharmProjects/Reinvent-master-3.2/result/LINK_invent/BTK/process_docking_weight1_custom_sum_contain_oxygen_bond_distance_aromatic_linkinvent_7_9_3/rearranged_h_0160.sdf

> <i_m_source_file_index>
15

> <r_mmod_Potential_Energy-OPLS-2005>
270.728942871094

> <r_mmod_Stretch_Energy-OPLS-2005>
75.2255935668945

> <r_mmod_Bend_Energy-OPLS-2005>
170.767395019531

> <r_mmod_Torsional_Energy-OPLS-2005>
336.731689453125

> <r_mmod_Improper_Torsional_Energy-OPLS-2005>
13.6752119064331

> <r_mmod_Van_der_Waal_Energy-OPLS-2005>
166.31120300293

> <r_mmod_Electrostatic_Energy-OPLS-2005>
-345.897125244141

> <r_mmod_Solvation_Energy-OPLS-2005>
-188.098602294922

> <b_mmod_Minimization_Converged-OPLS-2005>
0

> <r_mmod_RMS_Derivative-OPLS-2005>
4.09428834915161

$$$$
15
                    3D
 Structure written by MMmdl.
167176  0  0  1  0            999 V2000
  -30.6548  -14.7432   20.4581 C   0  0  0  0  0  0
  -30.4210  -12.4567   19.4790 C   0  0  0  0  0  0
  -29.5053  -12.4960   18.2387 C   0  0  0  0  0  0
  -28.0339  -12.3198   18.6570 C   0  0  0  0  0  0
  -27.6356  -13.2345   19.8467 C   0  0  2  0  0  0
  -28.6827  -13.2064   20.9816 C   0  0  0  0  0  0
  -25.2499  -13.8207   20.5723 C   0  0  0  0  0  0
  -24.1789  -13.0442   20.9212 C   0  0  0  0  0  0
  -24.6387  -11.6922   20.8760 C   0  0  0  0  0  0
  -23.9073  -10.4297   21.0410 C   0  0  0  0  0  0
  -24.3624   -9.4205   21.9180 C   0  0  0  0  0  0
  -23.6293   -8.2241   22.0750 C   0  0  0  0  0  0
  -22.4277   -8.0282   21.3542 C   0  0  0  0  0  0
  -21.9920   -9.0259   20.4648 C   0  0  0  0  0  0
  -22.7247  -10.2138   20.3058 C   0  0  0  0  0  0
  -21.6854   -6.0746   22.5287 C   0  0  0  0  0  0
  -21.4016   -6.5646   23.8223 C   0  0  0  0  0  0
  -21.3656   -5.6794   24.9181 C   0  0  0  0  0  0
  -21.6037   -4.3058   24.7230 C   0  0  0  0  0  0
  -21.8816   -3.8157   23.4353 C   0  0  0  0  0  0
  -21.9189   -4.6974   22.3410 C   0  0  0  0  0  0
  -22.7810  -13.5223   21.1857 C   0  0  0  0  0  0
  -22.1655   -4.2160   21.0986 F   0  0  0  0  0  0
  -21.5623   -3.4535   25.7738 F   0  0  0  0  0  0
  -29.9794  -13.5420   20.3864 N   0  0  0  0  0  0
  -26.2919  -12.9417   20.3306 N   0  0  0  0  0  0
  -25.9320  -11.6557   20.5776 N   0  0  0  0  0  0
  -22.0457  -12.8229   22.0425 N   0  0  0  0  0  0
  -25.4188  -15.1937   20.4174 N   0  0  0  0  0  0
  -31.8553  -14.7674   20.1707 O   0  0  0  0  0  0
  -21.6637   -6.8884   21.4244 O   0  0  0  0  0  0
  -22.3501  -14.5526   20.6695 O   0  0  0  0  0  0
  -24.6308  -31.8549   23.1977 C   0  0  0  0  0  0
  -25.9130  -32.4752   23.8328 C   0  0  1  0  0  0
  -27.2200  -27.2695   20.1352 C   0  0  0  0  0  0
  -25.5930  -33.8555   24.2249 N   0  0  0  0  0  0
  -23.4286  -30.4771   21.5404 C   0  0  2  0  0  0
  -24.8787  -28.9233   20.1104 C   0  0  0  0  0  0
  -22.7506  -29.4599   22.4903 C   0  0  0  0  0  0
  -18.0297  -28.1382   22.8482 C   0  0  0  0  0  0
  -24.1493  -36.7286   23.2635 C   0  0  0  0  0  0
  -25.9738  -30.7709   21.3762 C   0  0  0  0  0  0
  -26.0503  -29.3932   20.7205 C   0  0  0  0  0  0
  -27.2284  -28.5788   20.7216 C   0  0  0  0  0  0
  -26.0317  -26.8643   19.4948 C   0  0  0  0  0  0
  -24.8737  -27.6660   19.4858 C   0  0  0  0  0  0
  -23.6490  -29.8105   20.1568 C   0  0  0  0  0  0
  -25.4118  -36.3067   24.0323 C   0  0  1  0  0  0
  -20.5899  -28.3697   23.1261 C   0  0  2  0  0  0
  -20.6781  -26.9411   22.5407 C   0  0  0  0  0  0
  -19.5762  -26.6382   21.5206 C   0  0  0  0  0  0
  -18.1942  -26.7923   22.1623 C   0  0  0  0  0  0
  -19.1550  -28.8858   23.2867 C   0  0  0  0  0  0
  -18.9473  -30.1456   23.8889 C   0  0  0  0  0  0
  -17.6471  -30.6582   24.0562 C   0  0  0  0  0  0
  -25.9063  -34.9438   23.5091 C   0  0  0  0  0  0
  -16.5361  -29.9083   23.6320 C   0  0  0  0  0  0
  -16.7284  -28.6500   23.0344 C   0  0  0  0  0  0
  -26.4500  -31.6569   25.0707 C   0  0  0  0  0  0
  -25.3728  -31.3728   26.1432 C   0  0  0  0  0  0
  -27.0333  -30.2982   24.6179 C   0  0  0  0  0  0
  -27.6061  -32.4302   25.7478 C   0  0  0  0  0  0
  -27.5587  -37.1786   24.8453 C   0  0  0  0  0  0
  -21.4211  -29.3043   22.3644 N   0  0  0  0  0  0
  -26.4284  -37.3773   23.9420 N   0  0  0  0  0  0
  -24.6968  -31.0520   22.0951 N   0  0  0  0  0  0
  -23.4201  -28.8142   23.3008 O   0  0  0  0  0  0
  -28.2815  -26.3414   20.1623 O   0  0  0  0  0  0
  -26.5637  -34.8914   22.4660 O   0  0  0  0  0  0
  -23.5454  -32.1370   23.7268 O   0  0  0  0  0  0
  -27.9634  -21.1255   20.5097 C   0  0  0  0  0  0
  -29.3196  -20.7135   20.4294 C   0  0  0  0  0  0
  -27.5502  -22.5012   20.5853 C   0  0  0  0  0  0
  -30.2505  -21.8088   20.3898 C   0  0  0  0  0  0
  -28.4772  -23.5993   20.5709 C   0  0  0  0  0  0
  -29.8401  -23.1965   20.4427 C   0  0  0  0  0  0
  -29.9465  -18.4051   21.7134 C   0  0  0  0  0  0
  -28.8974  -18.1476   19.5706 C   0  0  0  0  0  0
  -30.5735  -16.9494   21.5980 C   0  0  0  0  0  0
  -29.5335  -16.6972   19.4168 C   0  0  0  0  0  0
  -29.7647  -19.1629   20.3688 C   0  0  0  0  0  0
  -26.0598  -22.7634   20.7318 C   0  0  0  0  0  0
  -31.7403  -21.4991   20.3049 C   0  0  0  0  0  0
  -31.0771  -24.6683   19.1280 C   0  0  0  0  0  0
  -28.0310  -25.0985   20.9601 C   0  0  0  0  0  0
  -29.9736  -15.9550   20.6446 N   0  0  0  0  0  0
  -30.7976  -24.1771   20.4317 O   0  0  0  0  0  0
  -31.4644  -12.5570   19.1763 H   0  0  0  0  0  0
  -30.3505  -11.4903   19.9812 H   0  0  0  0  0  0
  -29.7905  -11.7132   17.5352 H   0  0  0  0  0  0
  -29.6327  -13.4438   17.7134 H   0  0  0  0  0  0
  -27.8997  -11.2741   18.9367 H   0  0  0  0  0  0
  -27.3744  -12.4903   17.8048 H   0  0  0  0  0  0
  -27.6154  -14.2478   19.4490 H   0  0  0  0  0  0
  -28.7216  -12.2256   21.4587 H   0  0  0  0  0  0
  -28.4204  -13.9230   21.7623 H   0  0  0  0  0  0
  -25.2771   -9.5671   22.4749 H   0  0  0  0  0  0
  -23.9996   -7.4637   22.7474 H   0  0  0  0  0  0
  -21.0849   -8.8791   19.8960 H   0  0  0  0  0  0
  -22.3709  -10.9681   19.6171 H   0  0  0  0  0  0
  -21.2012   -7.6153   23.9740 H   0  0  0  0  0  0
  -21.1475   -6.0518   25.9085 H   0  0  0  0  0  0
  -22.0595   -2.7620   23.2856 H   0  0  0  0  0  0
  -22.4075  -11.9910   22.4844 H   0  0  0  0  0  0
  -21.1068  -13.1255   22.2602 H   0  0  0  0  0  0
  -24.6558  -15.8484   20.5483 H   0  0  0  0  0  0
  -26.2829  -15.6414   20.1395 H   0  0  0  0  0  0
  -26.7196  -32.5411   23.1072 H   0  0  0  0  0  0
  -25.0053  -33.9692   25.0374 H   0  0  0  0  0  0
  -22.7247  -31.2987   21.3928 H   0  0  0  0  0  0
  -23.3757  -35.9615   23.3272 H   0  0  0  0  0  0
  -24.3585  -36.8931   22.2053 H   0  0  0  0  0  0
  -23.7241  -37.6478   23.6673 H   0  0  0  0  0  0
  -26.1098  -31.5313   20.6054 H   0  0  0  0  0  0
  -26.8513  -30.8221   22.0092 H   0  0  0  0  0  0
  -28.1246  -28.9320   21.2121 H   0  0  0  0  0  0
  -25.9924  -25.8948   19.0182 H   0  0  0  0  0  0
  -23.9781  -27.2999   19.0032 H   0  0  0  0  0  0
  -23.7763  -30.5872   19.4021 H   0  0  0  0  0  0
  -22.7675  -29.2454   19.8486 H   0  0  0  0  0  0
  -25.1297  -36.1906   25.0814 H   0  0  0  0  0  0
  -20.9996  -28.3280   24.1380 H   0  0  0  0  0  0
  -20.5666  -26.2313   23.3619 H   0  0  0  0  0  0
  -21.6653  -26.7425   22.1212 H   0  0  0  0  0  0
  -19.6926  -25.6294   21.1236 H   0  0  0  0  0  0
  -19.6700  -27.3194   20.6736 H   0  0  0  0  0  0
  -17.4207  -26.6659   21.4028 H   0  0  0  0  0  0
  -18.0357  -26.0066   22.9030 H   0  0  0  0  0  0
  -19.7949  -30.7273   24.2261 H   0  0  0  0  0  0
  -17.5025  -31.6255   24.5179 H   0  0  0  0  0  0
  -15.5360  -30.2990   23.7647 H   0  0  0  0  0  0
  -15.8686  -28.0828   22.7051 H   0  0  0  0  0  0
  -24.5903  -30.7072   25.7763 H   0  0  0  0  0  0
  -24.8923  -32.2905   26.4837 H   0  0  0  0  0  0
  -25.8051  -30.8921   27.0216 H   0  0  0  0  0  0
  -26.2903  -29.6733   24.1205 H   0  0  0  0  0  0
  -27.4013  -29.7237   25.4688 H   0  0  0  0  0  0
  -27.8788  -30.4244   23.9414 H   0  0  0  0  0  0
  -27.2672  -33.3604   26.2049 H   0  0  0  0  0  0
  -28.3877  -32.6850   25.0309 H   0  0  0  0  0  0
  -28.0719  -31.8423   26.5395 H   0  0  0  0  0  0
  -28.2569  -38.0117   24.7538 H   0  0  0  0  0  0
  -28.1115  -36.2646   24.6225 H   0  0  0  0  0  0
  -27.2310  -37.1364   25.8854 H   0  0  0  0  0  0
  -20.9393  -29.8775   21.6858 H   0  0  0  0  0  0
  -26.0156  -38.2837   24.1453 H   0  0  0  0  0  0
  -27.2071  -20.3527   20.5413 H   0  0  0  0  0  0
  -30.5815  -19.0010   22.3705 H   0  0  0  0  0  0
  -28.9834  -18.3424   22.2211 H   0  0  0  0  0  0
  -27.9142  -18.0618   20.0341 H   0  0  0  0  0  0
  -28.7154  -18.5511   18.5737 H   0  0  0  0  0  0
  -30.5748  -16.4977   22.5913 H   0  0  0  0  0  0
  -31.6268  -17.0747   21.3389 H   0  0  0  0  0  0
  -30.4012  -16.7844   18.7594 H   0  0  0  0  0  0
  -28.8282  -16.0707   18.8716 H   0  0  0  0  0  0
  -30.7310  -19.1529   19.8660 H   0  0  0  0  0  0
  -25.4728  -21.8586   20.5728 H   0  0  0  0  0  0
  -25.7216  -23.5012   20.0042 H   0  0  0  0  0  0
  -25.8292  -23.1297   21.7325 H   0  0  0  0  0  0
  -32.0136  -20.6933   20.9860 H   0  0  0  0  0  0
  -32.3645  -22.3516   20.5710 H   0  0  0  0  0  0
  -32.0023  -21.1992   19.2900 H   0  0  0  0  0  0
  -31.8818  -25.4024   19.1752 H   0  0  0  0  0  0
  -30.2050  -25.1536   18.6873 H   0  0  0  0  0  0
  -31.3985  -23.8660   18.4616 H   0  0  0  0  0  0
  -28.5447  -25.2878   21.9030 H   0  0  0  0  0  0
  -26.9844  -25.0847   21.2601 H   0  0  0  0  0  0
  1 25  1  0  0  0
  1 30  2  0  0  0
  1 86  1  0  0  0
  2  3  1  0  0  0
  2 25  1  0  0  0
  2 88  1  0  0  0
  2 89  1  0  0  0
  3  4  1  0  0  0
  3 90  1  0  0  0
  3 91  1  0  0  0
  4  5  1  0  0  0
  4 92  1  0  0  0
  4 93  1  0  0  0
  5  6  1  0  0  0
  5 26  1  0  0  0
  5 94  1  0  0  0
  6 25  1  0  0  0
  6 95  1  0  0  0
  6 96  1  0  0  0
  7  8  2  0  0  0
  7 26  1  0  0  0
  7 29  1  0  0  0
  8  9  1  0  0  0
  8 22  1  0  0  0
  9 10  1  0  0  0
  9 27  2  0  0  0
 10 11  2  0  0  0
 10 15  1  0  0  0
 11 12  1  0  0  0
 11 97  1  0  0  0
 12 13  2  0  0  0
 12 98  1  0  0  0
 13 14  1  0  0  0
 13 31  1  0  0  0
 14 15  2  0  0  0
 14 99  1  0  0  0
 15100  1  0  0  0
 16 17  2  0  0  0
 16 21  1  0  0  0
 16 31  1  0  0  0
 17 18  1  0  0  0
 17101  1  0  0  0
 18 19  2  0  0  0
 18102  1  0  0  0
 19 20  1  0  0  0
 19 24  1  0  0  0
 20 21  2  0  0  0
 20103  1  0  0  0
 21 23  1  0  0  0
 22 28  1  0  0  0
 22 32  2  0  0  0
 26 27  1  0  0  0
 28104  1  0  0  0
 28105  1  0  0  0
 29106  1  0  0  0
 29107  1  0  0  0
 33 34  1  0  0  0
 33 66  1  0  0  0
 33 70  2  0  0  0
 34 36  1  0  0  0
 34 59  1  0  0  0
 34108  1  0  0  0
 35 44  2  0  0  0
 35 45  1  0  0  0
 35 68  1  0  0  0
 36 56  1  0  0  0
 36109  1  0  0  0
 37 39  1  0  0  0
 37 47  1  0  0  0
 37 66  1  0  0  0
 37110  1  0  0  0
 38 43  2  0  0  0
 38 46  1  0  0  0
 38 47  1  0  0  0
 39 64  1  0  0  0
 39 67  2  0  0  0
 40 52  1  0  0  0
 40 53  2  0  0  0
 40 58  1  0  0  0
 41111  1  0  0  0
 41112  1  0  0  0
 41113  1  0  0  0
 41 48  1  0  0  0
 42 43  1  0  0  0
 42 66  1  0  0  0
 42114  1  0  0  0
 42115  1  0  0  0
 43 44  1  0  0  0
 44116  1  0  0  0
 45 46  2  0  0  0
 45117  1  0  0  0
 46118  1  0  0  0
 47119  1  0  0  0
 47120  1  0  0  0
 48 56  1  0  0  0
 48 65  1  0  0  0
 48121  1  0  0  0
 49 50  1  0  0  0
 49 53  1  0  0  0
 49 64  1  0  0  0
 49122  1  0  0  0
 50 51  1  0  0  0
 50123  1  0  0  0
 50124  1  0  0  0
 51 52  1  0  0  0
 51125  1  0  0  0
 51126  1  0  0  0
 52127  1  0  0  0
 52128  1  0  0  0
 53 54  1  0  0  0
 54 55  2  0  0  0
 54129  1  0  0  0
 55 57  1  0  0  0
 55130  1  0  0  0
 56 69  2  0  0  0
 57 58  2  0  0  0
 57131  1  0  0  0
 58132  1  0  0  0
 59 60  1  0  0  0
 59 61  1  0  0  0
 59 62  1  0  0  0
 60133  1  0  0  0
 60134  1  0  0  0
 60135  1  0  0  0
 61136  1  0  0  0
 61137  1  0  0  0
 61138  1  0  0  0
 62139  1  0  0  0
 62140  1  0  0  0
 62141  1  0  0  0
 63 65  1  0  0  0
 63142  1  0  0  0
 63143  1  0  0  0
 63144  1  0  0  0
 64145  1  0  0  0
 65146  1  0  0  0
 68 85  1  0  0  0
 71 72  2  0  0  0
 71 73  1  0  0  0
 71147  1  0  0  0
 72 74  1  0  0  0
 72 81  1  0  0  0
 73 75  2  0  0  0
 73 82  1  0  0  0
 74 76  2  0  0  0
 74 83  1  0  0  0
 75 76  1  0  0  0
 75 85  1  0  0  0
 76 87  1  0  0  0
 77 79  1  0  0  0
 77 81  1  0  0  0
 77148  1  0  0  0
 77149  1  0  0  0
 78 80  1  0  0  0
 78 81  1  0  0  0
 78150  1  0  0  0
 78151  1  0  0  0
 79 86  1  0  0  0
 79152  1  0  0  0
 79153  1  0  0  0
 80 86  1  0  0  0
 80154  1  0  0  0
 80155  1  0  0  0
 81156  1  0  0  0
 82157  1  0  0  0
 82158  1  0  0  0
 82159  1  0  0  0
 83160  1  0  0  0
 83161  1  0  0  0
 83162  1  0  0  0
 84 87  1  0  0  0
 84163  1  0  0  0
 84164  1  0  0  0
 84165  1  0  0  0
 85166  1  0  0  0
 85167  1  0  0  0
M  ISO  4   1 100  68 101  85 101  86 100
M  END
> <chiral flag>
0

> <version>
0

> <s_m_source_file>
/data/baiqing/PycharmProjects/Reinvent-master-3.2/result/LINK_invent/BTK/process_docking_weight1_custom_sum_contain_oxygen_bond_distance_aromatic_linkinvent_7_9_3/rearranged_h_0160.sdf

> <i_m_source_file_index>
16

> <r_mmod_Potential_Energy-OPLS-2005>
471.010894775391

> <r_mmod_Stretch_Energy-OPLS-2005>
123.124252319336

> <r_mmod_Bend_Energy-OPLS-2005>
192.388381958008

> <r_mmod_Torsional_Energy-OPLS-2005>
393.74365234375

> <r_mmod_Improper_Torsional_Energy-OPLS-2005>
10.5074586868286

> <r_mmod_Van_der_Waal_Energy-OPLS-2005>
141.00666809082

> <r_mmod_Electrostatic_Energy-OPLS-2005>
-284.39794921875

> <r_mmod_Solvation_Energy-OPLS-2005>
-194.062545776367

> <b_mmod_Minimization_Converged-OPLS-2005>
0

> <r_mmod_RMS_Derivative-OPLS-2005>
1.50345528125763

$$$$
16
                    3D
 Structure written by MMmdl.
164173  0  0  1  0            999 V2000
  -30.6457  -14.6682   20.4409 C   0  0  0  0  0  0
  -30.4260  -12.3941   19.4742 C   0  0  0  0  0  0
  -29.5107  -12.4583   18.2335 C   0  0  0  0  0  0
  -28.0286  -12.3303   18.6407 C   0  0  0  0  0  0
  -27.6434  -13.2257   19.8504 C   0  0  2  0  0  0
  -28.6879  -13.1463   20.9847 C   0  0  0  0  0  0
  -25.2519  -13.8190   20.5690 C   0  0  0  0  0  0
  -24.1805  -13.0441   20.9206 C   0  0  0  0  0  0
  -24.6389  -11.6917   20.8753 C   0  0  0  0  0  0
  -23.9065  -10.4295   21.0411 C   0  0  0  0  0  0
  -24.3618   -9.4209   21.9186 C   0  0  0  0  0  0
  -23.6294   -8.2243   22.0754 C   0  0  0  0  0  0
  -22.4276   -8.0281   21.3544 C   0  0  0  0  0  0
  -21.9911   -9.0255   20.4647 C   0  0  0  0  0  0
  -22.7238  -10.2135   20.3058 C   0  0  0  0  0  0
  -21.6853   -6.0736   22.5278 C   0  0  0  0  0  0
  -21.4014   -6.5639   23.8212 C   0  0  0  0  0  0
  -21.3660   -5.6792   24.9174 C   0  0  0  0  0  0
  -21.6044   -4.3055   24.7225 C   0  0  0  0  0  0
  -21.8819   -3.8147   23.4346 C   0  0  0  0  0  0
  -21.9193   -4.6963   22.3402 C   0  0  0  0  0  0
  -22.7827  -13.5226   21.1863 C   0  0  0  0  0  0
  -22.1662   -4.2149   21.0980 F   0  0  0  0  0  0
  -21.5629   -3.4539   25.7737 F   0  0  0  0  0  0
  -29.9954  -13.4623   20.4005 N   0  0  0  0  0  0
  -26.2945  -12.9387   20.3285 N   0  0  0  0  0  0
  -25.9318  -11.6537   20.5767 N   0  0  0  0  0  0
  -22.0472  -12.8218   22.0420 N   0  0  0  0  0  0
  -25.4203  -15.1915   20.4106 N   0  0  0  0  0  0
  -31.8454  -14.7343   20.1662 O   0  0  0  0  0  0
  -21.6640   -6.8878   21.4241 O   0  0  0  0  0  0
  -22.3511  -14.5530   20.6708 O   0  0  0  0  0  0
  -24.6254  -31.8597   23.2020 C   0  0  0  0  0  0
  -25.9103  -32.4778   23.8351 C   0  0  1  0  0  0
  -27.2216  -27.3238   20.1291 C   0  0  0  0  0  0
  -25.5920  -33.8579   24.2280 N   0  0  0  0  0  0
  -23.4194  -30.4821   21.5441 C   0  0  2  0  0  0
  -24.8672  -28.9350   20.1121 C   0  0  0  0  0  0
  -22.7471  -29.4621   22.4937 C   0  0  0  0  0  0
  -18.0286  -28.1384   22.8488 C   0  0  0  0  0  0
  -24.1488  -36.7294   23.2639 C   0  0  0  0  0  0
  -25.9590  -30.7934   21.3711 C   0  0  0  0  0  0
  -26.0352  -29.4200   20.7158 C   0  0  0  0  0  0
  -27.2199  -28.6269   20.7115 C   0  0  0  0  0  0
  -26.0377  -26.8871   19.4998 C   0  0  0  0  0  0
  -24.8698  -27.6739   19.4932 C   0  0  0  0  0  0
  -23.6345  -29.8145   20.1599 C   0  0  0  0  0  0
  -25.4113  -36.3083   24.0330 C   0  0  1  0  0  0
  -20.5885  -28.3686   23.1286 C   0  0  2  0  0  0
  -20.6775  -26.9410   22.5411 C   0  0  0  0  0  0
  -19.5751  -26.6385   21.5213 C   0  0  0  0  0  0
  -18.1931  -26.7928   22.1625 C   0  0  0  0  0  0
  -19.1538  -28.8853   23.2882 C   0  0  0  0  0  0
  -18.9459  -30.1456   23.8897 C   0  0  0  0  0  0
  -17.6459  -30.6586   24.0564 C   0  0  0  0  0  0
  -25.9049  -34.9452   23.5106 C   0  0  0  0  0  0
  -16.5351  -29.9084   23.6330 C   0  0  0  0  0  0
  -16.7273  -28.6503   23.0349 C   0  0  0  0  0  0
  -26.4492  -31.6585   25.0718 C   0  0  0  0  0  0
  -25.3732  -31.3717   26.1448 C   0  0  0  0  0  0
  -27.0336  -30.3012   24.6163 C   0  0  0  0  0  0
  -27.6055  -32.4318   25.7488 C   0  0  0  0  0  0
  -27.5578  -37.1802   24.8466 C   0  0  0  0  0  0
  -21.4185  -29.3040   22.3680 N   0  0  0  0  0  0
  -26.4292  -37.3776   23.9406 N   0  0  0  0  0  0
  -24.6867  -31.0616   22.0964 N   0  0  0  0  0  0
  -23.4195  -28.8165   23.3019 O   0  0  0  0  0  0
  -28.3240  -26.4632   20.1520 O   0  0  0  0  0  0
  -26.5618  -34.8919   22.4672 O   0  0  0  0  0  0
  -23.5419  -32.1390   23.7354 O   0  0  0  0  0  0
  -29.4682  -19.0198   21.7106 C   0  0  0  0  0  0
  -29.2797  -20.8211   19.5255 C   0  0  0  0  0  0
  -29.7464  -18.5364   20.4138 C   0  0  0  0  0  0
  -29.6294  -19.4484   19.3577 C   0  0  0  0  0  0
  -29.1026  -20.3943   21.9018 C   0  0  0  0  0  0
  -29.0133  -21.3348   20.8235 C   0  0  0  0  0  0
  -29.9369  -18.7825   18.0468 C   0  0  0  0  0  0
  -30.3055  -17.1572   19.9344 C   0  0  2  0  0  0
  -30.1425  -17.2669   18.3694 C   0  0  0  0  0  0
  -28.8178  -20.8775   23.3115 C   0  0  0  0  0  0
  -31.3785  -16.7358   17.6181 C   0  0  0  0  0  0
  -28.8944  -16.5070   17.8702 C   0  0  0  0  0  0
  -28.1183  -25.1415   20.7911 C   0  0  0  0  0  0
  -28.6991  -23.7888   20.1689 C   0  0  0  0  0  0
  -29.8881  -15.8166   20.5050 N   0  0  0  0  0  0
  -28.6592  -22.6702   21.1199 O   0  0  0  0  0  0
  -31.4704  -12.4964   19.1742 H   0  0  0  0  0  0
  -30.3496  -11.4202   19.9600 H   0  0  0  0  0  0
  -29.7710  -11.6596   17.5375 H   0  0  0  0  0  0
  -29.6804  -13.3874   17.6922 H   0  0  0  0  0  0
  -27.8547  -11.2833   18.8912 H   0  0  0  0  0  0
  -27.3826  -12.5473   17.7892 H   0  0  0  0  0  0
  -27.6393  -14.2494   19.4802 H   0  0  0  0  0  0
  -28.7024  -12.1517   21.4327 H   0  0  0  0  0  0
  -28.4408  -13.8423   21.7879 H   0  0  0  0  0  0
  -25.2762   -9.5686   22.4760 H   0  0  0  0  0  0
  -24.0004   -7.4634   22.7472 H   0  0  0  0  0  0
  -21.0842   -8.8775   19.8952 H   0  0  0  0  0  0
  -22.3696  -10.9675   19.6169 H   0  0  0  0  0  0
  -21.2007   -7.6148   23.9715 H   0  0  0  0  0  0
  -21.1481   -6.0522   25.9077 H   0  0  0  0  0  0
  -22.0598   -2.7609   23.2845 H   0  0  0  0  0  0
  -22.4091  -11.9883   22.4813 H   0  0  0  0  0  0
  -21.1089  -13.1242   22.2623 H   0  0  0  0  0  0
  -24.6504  -15.8423   20.5225 H   0  0  0  0  0  0
  -26.2645  -15.6348   20.0736 H   0  0  0  0  0  0
  -26.7173  -32.5452   23.1104 H   0  0  0  0  0  0
  -25.0070  -33.9725   25.0426 H   0  0  0  0  0  0
  -22.7130  -31.3022   21.4001 H   0  0  0  0  0  0
  -23.3749  -35.9629   23.3306 H   0  0  0  0  0  0
  -24.3580  -36.8908   22.2052 H   0  0  0  0  0  0
  -23.7244  -37.6499   23.6658 H   0  0  0  0  0  0
  -26.0877  -31.5561   20.6018 H   0  0  0  0  0  0
  -26.8404  -30.8445   21.9988 H   0  0  0  0  0  0
  -28.1180  -28.9936   21.1888 H   0  0  0  0  0  0
  -26.0106  -25.9170   19.0237 H   0  0  0  0  0  0
  -23.9755  -27.2975   19.0160 H   0  0  0  0  0  0
  -23.7531  -30.5899   19.4021 H   0  0  0  0  0  0
  -22.7549  -29.2426   19.8586 H   0  0  0  0  0  0
  -25.1294  -36.1936   25.0823 H   0  0  0  0  0  0
  -20.9978  -28.3259   24.1406 H   0  0  0  0  0  0
  -20.5677  -26.2295   23.3609 H   0  0  0  0  0  0
  -21.6644  -26.7442   22.1204 H   0  0  0  0  0  0
  -19.6911  -25.6296   21.1241 H   0  0  0  0  0  0
  -19.6687  -27.3198   20.6745 H   0  0  0  0  0  0
  -17.4201  -26.6676   21.4028 H   0  0  0  0  0  0
  -18.0332  -26.0070   22.9022 H   0  0  0  0  0  0
  -19.7935  -30.7274   24.2264 H   0  0  0  0  0  0
  -17.5013  -31.6265   24.5167 H   0  0  0  0  0  0
  -15.5351  -30.2985   23.7653 H   0  0  0  0  0  0
  -15.8674  -28.0823   22.7059 H   0  0  0  0  0  0
  -24.5906  -30.7067   25.7777 H   0  0  0  0  0  0
  -24.8925  -32.2882   26.4880 H   0  0  0  0  0  0
  -25.8062  -30.8890   27.0218 H   0  0  0  0  0  0
  -26.2906  -29.6761   24.1197 H   0  0  0  0  0  0
  -27.4050  -29.7266   25.4658 H   0  0  0  0  0  0
  -27.8767  -30.4304   23.9372 H   0  0  0  0  0  0
  -27.2667  -33.3618   26.2068 H   0  0  0  0  0  0
  -28.3864  -32.6878   25.0316 H   0  0  0  0  0  0
  -28.0725  -31.8442   26.5402 H   0  0  0  0  0  0
  -28.2600  -38.0095   24.7506 H   0  0  0  0  0  0
  -28.1069  -36.2625   24.6301 H   0  0  0  0  0  0
  -27.2296  -37.1463   25.8869 H   0  0  0  0  0  0
  -20.9362  -29.8759   21.6889 H   0  0  0  0  0  0
  -26.0174  -38.2852   24.1402 H   0  0  0  0  0  0
  -29.5617  -18.3523   22.5561 H   0  0  0  0  0  0
  -29.2209  -21.4649   18.6596 H   0  0  0  0  0  0
  -30.8448  -19.2341   17.6443 H   0  0  0  0  0  0
  -29.1386  -18.9638   17.3257 H   0  0  0  0  0  0
  -31.3677  -17.2556   20.1669 H   0  0  0  0  0  0
  -28.9568  -20.0849   24.0471 H   0  0  0  0  0  0
  -27.7903  -21.2338   23.3882 H   0  0  0  0  0  0
  -29.4840  -21.7002   23.5729 H   0  0  0  0  0  0
  -32.2945  -17.2166   17.9633 H   0  0  0  0  0  0
  -31.2969  -16.9209   16.5466 H   0  0  0  0  0  0
  -31.5003  -15.6610   17.7469 H   0  0  0  0  0  0
  -27.9955  -16.8361   18.3930 H   0  0  0  0  0  0
  -28.9850  -15.4351   18.0135 H   0  0  0  0  0  0
  -28.7302  -16.6678   16.8042 H   0  0  0  0  0  0
  -28.5690  -25.2467   21.7783 H   0  0  0  0  0  0
  -27.0610  -24.9750   21.0005 H   0  0  0  0  0  0
  -29.7357  -23.9429   19.8682 H   0  0  0  0  0  0
  -28.1405  -23.5321   19.2684 H   0  0  0  0  0  0
  -28.9106  -15.7064   20.7209 H   0  0  0  0  0  0
  1 25  1  0  0  0
  1 30  2  0  0  0
  1 85  1  0  0  0
  2  3  1  0  0  0
  2 25  1  0  0  0
  2 87  1  0  0  0
  2 88  1  0  0  0
  3  4  1  0  0  0
  3 89  1  0  0  0
  3 90  1  0  0  0
  4  5  1  0  0  0
  4 91  1  0  0  0
  4 92  1  0  0  0
  5  6  1  0  0  0
  5 26  1  0  0  0
  5 93  1  0  0  0
  6 25  1  0  0  0
  6 94  1  0  0  0
  6 95  1  0  0  0
  7  8  2  0  0  0
  7 26  1  0  0  0
  7 29  1  0  0  0
  8  9  1  0  0  0
  8 22  1  0  0  0
  9 10  1  0  0  0
  9 27  2  0  0  0
 10 11  2  0  0  0
 10 15  1  0  0  0
 11 12  1  0  0  0
 11 96  1  0  0  0
 12 13  2  0  0  0
 12 97  1  0  0  0
 13 14  1  0  0  0
 13 31  1  0  0  0
 14 15  2  0  0  0
 14 98  1  0  0  0
 15 99  1  0  0  0
 16 17  2  0  0  0
 16 21  1  0  0  0
 16 31  1  0  0  0
 17 18  1  0  0  0
 17100  1  0  0  0
 18 19  2  0  0  0
 18101  1  0  0  0
 19 20  1  0  0  0
 19 24  1  0  0  0
 20 21  2  0  0  0
 20102  1  0  0  0
 21 23  1  0  0  0
 22 28  1  0  0  0
 22 32  2  0  0  0
 26 27  1  0  0  0
 28103  1  0  0  0
 28104  1  0  0  0
 29105  1  0  0  0
 29106  1  0  0  0
 33 34  1  0  0  0
 33 66  1  0  0  0
 33 70  2  0  0  0
 34 36  1  0  0  0
 34 59  1  0  0  0
 34107  1  0  0  0
 35 44  2  0  0  0
 35 45  1  0  0  0
 35 68  1  0  0  0
 36 56  1  0  0  0
 36108  1  0  0  0
 37 39  1  0  0  0
 37 47  1  0  0  0
 37 66  1  0  0  0
 37109  1  0  0  0
 38 43  2  0  0  0
 38 46  1  0  0  0
 38 47  1  0  0  0
 39 64  1  0  0  0
 39 67  2  0  0  0
 40 52  1  0  0  0
 40 53  2  0  0  0
 40 58  1  0  0  0
 41110  1  0  0  0
 41111  1  0  0  0
 41112  1  0  0  0
 41 48  1  0  0  0
 42 43  1  0  0  0
 42 66  1  0  0  0
 42113  1  0  0  0
 42114  1  0  0  0
 43 44  1  0  0  0
 44115  1  0  0  0
 45 46  2  0  0  0
 45116  1  0  0  0
 46117  1  0  0  0
 47118  1  0  0  0
 47119  1  0  0  0
 48 56  1  0  0  0
 48 65  1  0  0  0
 48120  1  0  0  0
 49 50  1  0  0  0
 49 53  1  0  0  0
 49 64  1  0  0  0
 49121  1  0  0  0
 50 51  1  0  0  0
 50122  1  0  0  0
 50123  1  0  0  0
 51 52  1  0  0  0
 51124  1  0  0  0
 51125  1  0  0  0
 52126  1  0  0  0
 52127  1  0  0  0
 53 54  1  0  0  0
 54 55  2  0  0  0
 54128  1  0  0  0
 55 57  1  0  0  0
 55129  1  0  0  0
 56 69  2  0  0  0
 57 58  2  0  0  0
 57130  1  0  0  0
 58131  1  0  0  0
 59 60  1  0  0  0
 59 61  1  0  0  0
 59 62  1  0  0  0
 60132  1  0  0  0
 60133  1  0  0  0
 60134  1  0  0  0
 61135  1  0  0  0
 61136  1  0  0  0
 61137  1  0  0  0
 62138  1  0  0  0
 62139  1  0  0  0
 62140  1  0  0  0
 63 65  1  0  0  0
 63141  1  0  0  0
 63142  1  0  0  0
 63143  1  0  0  0
 64144  1  0  0  0
 65145  1  0  0  0
 68 83  1  0  0  0
 71 73  2  0  0  0
 71 75  1  0  0  0
 71146  1  0  0  0
 72 74  2  0  0  0
 72 76  1  0  0  0
 72147  1  0  0  0
 73 74  1  0  0  0
 73 78  1  0  0  0
 74 77  1  0  0  0
 75 76  2  0  0  0
 75 80  1  0  0  0
 76 86  1  0  0  0
 77 79  1  0  0  0
 77148  1  0  0  0
 77149  1  0  0  0
 78 79  1  0  0  0
 78 85  1  0  0  0
 78150  1  0  0  0
 79 81  1  0  0  0
 79 82  1  0  0  0
 80151  1  0  0  0
 80152  1  0  0  0
 80153  1  0  0  0
 81154  1  0  0  0
 81155  1  0  0  0
 81156  1  0  0  0
 82157  1  0  0  0
 82158  1  0  0  0
 82159  1  0  0  0
 83 84  1  0  0  0
 83160  1  0  0  0
 83161  1  0  0  0
 84 86  1  0  0  0
 84162  1  0  0  0
 84163  1  0  0  0
 85164  1  0  0  0
M  ISO  4   1 100  68 101  83 101  85 100
M  END
> <chiral flag>
0

> <version>
0

> <s_m_source_file>
/data/baiqing/PycharmProjects/Reinvent-master-3.2/result/LINK_invent/BTK/process_docking_weight1_custom_sum_contain_oxygen_bond_distance_aromatic_linkinvent_7_9_3/rearranged_h_0160.sdf

> <i_m_source_file_index>
17

> <r_mmod_Potential_Energy-OPLS-2005>
57.8949241638184

> <r_mmod_Stretch_Energy-OPLS-2005>
82.8189697265625

> <r_mmod_Bend_Energy-OPLS-2005>
196.462982177734

> <r_mmod_Torsional_Energy-OPLS-2005>
234.187881469727

> <r_mmod_Improper_Torsional_Energy-OPLS-2005>
7.90937566757202

> <r_mmod_Van_der_Waal_Energy-OPLS-2005>
133.684860229492

> <r_mmod_Electrostatic_Energy-OPLS-2005>
-452.919708251953

> <r_mmod_Solvation_Energy-OPLS-2005>
-202.056030273438

> <b_mmod_Minimization_Converged-OPLS-2005>
0

> <r_mmod_RMS_Derivative-OPLS-2005>
0.224158257246017

$$$$
17
                    3D
 Structure written by MMmdl.
177187  0  0  1  0            999 V2000
  -30.6602  -14.8469   20.4167 C   0  0  0  0  0  0
  -30.4033  -12.5346   19.4767 C   0  0  0  0  0  0
  -29.4868  -12.5063   18.2383 C   0  0  0  0  0  0
  -28.0245  -12.3046   18.6668 C   0  0  0  0  0  0
  -27.6171  -13.2422   19.8315 C   0  0  2  0  0  0
  -28.6687  -13.3023   20.9628 C   0  0  0  0  0  0
  -25.2402  -13.8217   20.5761 C   0  0  0  0  0  0
  -24.1707  -13.0430   20.9250 C   0  0  0  0  0  0
  -24.6328  -11.6931   20.8761 C   0  0  0  0  0  0
  -23.9048  -10.4284   21.0415 C   0  0  0  0  0  0
  -24.3620   -9.4196   21.9190 C   0  0  0  0  0  0
  -23.6298   -8.2227   22.0760 C   0  0  0  0  0  0
  -22.4273   -8.0267   21.3552 C   0  0  0  0  0  0
  -21.9896   -9.0234   20.4664 C   0  0  0  0  0  0
  -22.7213  -10.2115   20.3085 C   0  0  0  0  0  0
  -21.6837   -6.0721   22.5277 C   0  0  0  0  0  0
  -21.4001   -6.5640   23.8196 C   0  0  0  0  0  0
  -21.3679   -5.6816   24.9182 C   0  0  0  0  0  0
  -21.6052   -4.3071   24.7234 C   0  0  0  0  0  0
  -21.8830   -3.8145   23.4362 C   0  0  0  0  0  0
  -21.9203   -4.6953   22.3411 C   0  0  0  0  0  0
  -22.7737  -13.5193   21.1933 C   0  0  0  0  0  0
  -22.1678   -4.2131   21.0986 F   0  0  0  0  0  0
  -21.5632   -3.4567   25.7754 F   0  0  0  0  0  0
  -29.9470  -13.6587   20.3402 N   0  0  0  0  0  0
  -26.2819  -12.9446   20.3317 N   0  0  0  0  0  0
  -25.9260  -11.6578   20.5792 N   0  0  0  0  0  0
  -22.0430  -12.8150   22.0514 N   0  0  0  0  0  0
  -25.4001  -15.1925   20.4164 N   0  0  0  0  0  0
  -31.8725  -14.7674   20.1917 O   0  0  0  0  0  0
  -21.6644   -6.8855   21.4232 O   0  0  0  0  0  0
  -22.3363  -14.5448   20.6744 O   0  0  0  0  0  0
  -24.6371  -31.8500   23.1941 C   0  0  0  0  0  0
  -25.9172  -32.4731   23.8307 C   0  0  1  0  0  0
  -27.2132  -27.2057   20.1471 C   0  0  0  0  0  0
  -25.5947  -33.8531   24.2232 N   0  0  0  0  0  0
  -23.4356  -30.4704   21.5393 C   0  0  2  0  0  0
  -24.8817  -28.9003   20.1207 C   0  0  0  0  0  0
  -22.7526  -29.4576   22.4905 C   0  0  0  0  0  0
  -18.0287  -28.1392   22.8468 C   0  0  0  0  0  0
  -24.1486  -36.7269   23.2641 C   0  0  0  0  0  0
  -25.9859  -30.7462   21.3810 C   0  0  0  0  0  0
  -26.0578  -29.3609   20.7288 C   0  0  0  0  0  0
  -27.2295  -28.5284   20.7227 C   0  0  0  0  0  0
  -26.0159  -26.8192   19.5173 C   0  0  0  0  0  0
  -24.8685  -27.6390   19.5028 C   0  0  0  0  0  0
  -23.6581  -29.7975   20.1593 C   0  0  0  0  0  0
  -25.4119  -36.3062   24.0319 C   0  0  1  0  0  0
  -20.5890  -28.3703   23.1253 C   0  0  2  0  0  0
  -20.6773  -26.9420   22.5402 C   0  0  0  0  0  0
  -19.5757  -26.6385   21.5206 C   0  0  0  0  0  0
  -18.1934  -26.7928   22.1613 C   0  0  0  0  0  0
  -19.1541  -28.8866   23.2851 C   0  0  0  0  0  0
  -18.9463  -30.1454   23.8895 C   0  0  0  0  0  0
  -17.6464  -30.6594   24.0552 C   0  0  0  0  0  0
  -25.9062  -34.9433   23.5084 C   0  0  0  0  0  0
  -16.5351  -29.9092   23.6327 C   0  0  0  0  0  0
  -16.7273  -28.6505   23.0356 C   0  0  0  0  0  0
  -26.4524  -31.6565   25.0711 C   0  0  0  0  0  0
  -25.3717  -31.3739   26.1408 C   0  0  0  0  0  0
  -27.0369  -30.2972   24.6228 C   0  0  0  0  0  0
  -27.6073  -32.4309   25.7483 C   0  0  0  0  0  0
  -27.5575  -37.1789   24.8467 C   0  0  0  0  0  0
  -21.4225  -29.3041   22.3642 N   0  0  0  0  0  0
  -26.4296  -37.3761   23.9405 N   0  0  0  0  0  0
  -24.7061  -31.0412   22.0950 N   0  0  0  0  0  0
  -23.4196  -28.8132   23.3041 O   0  0  0  0  0  0
  -28.3120  -26.3086   20.0825 O   0  0  0  0  0  0
  -26.5641  -34.8924   22.4654 O   0  0  0  0  0  0
  -23.5500  -32.1327   23.7201 O   0  0  0  0  0  0
  -29.1921  -22.1699   20.6479 C   0  0  0  0  0  0
  -30.1519  -22.4512   21.6627 C   0  0  0  0  0  0
  -29.7698  -20.9877   20.0822 C   0  0  0  0  0  0
  -31.3421  -22.2087   21.0298 C   0  0  0  0  0  0
  -32.8688  -19.8609   17.3669 C   0  0  0  0  0  0
  -32.9870  -20.0004   18.8885 C   0  0  0  0  0  0
  -31.5816  -20.6930   17.4237 C   0  0  0  0  0  0
  -30.5971  -18.7023   21.3094 C   0  0  0  0  0  0
  -28.5919  -18.3651   20.0815 C   0  0  0  0  0  0
  -31.0724  -17.2088   21.0789 C   0  0  0  0  0  0
  -28.9500  -16.7857   19.9083 C   0  0  0  0  0  0
  -29.8035  -19.3553   20.1397 C   0  0  0  0  0  0
  -31.9999  -21.1758   18.8235 C   0  0  0  0  0  0
  -29.9568  -23.1763   22.9717 C   0  0  0  0  0  0
  -32.7411  -22.5913   21.4018 C   0  0  0  0  0  0
  -26.8983  -22.9299   19.7969 C   0  0  0  0  0  0
  -28.3173  -24.9273   20.7283 C   0  0  0  0  0  0
  -28.3365  -23.4156   20.0228 C   0  0  1  0  0  0
  -31.0462  -21.5011   19.8688 N   0  0  0  0  0  0
  -30.1029  -16.1392   20.6502 N   0  0  0  0  0  0
  -31.4420  -12.6346   19.1544 H   0  0  0  0  0  0
  -30.3563  -11.5926   20.0241 H   0  0  0  0  0  0
  -29.7905  -11.7109   17.5545 H   0  0  0  0  0  0
  -29.5798  -13.4409   17.6837 H   0  0  0  0  0  0
  -27.9141  -11.2618   18.9702 H   0  0  0  0  0  0
  -27.3541  -12.4437   17.8199 H   0  0  0  0  0  0
  -27.5664  -14.2289   19.3762 H   0  0  0  0  0  0
  -28.7430  -12.3514   21.4918 H   0  0  0  0  0  0
  -28.3892  -14.0525   21.7038 H   0  0  0  0  0  0
  -25.2765   -9.5668   22.4748 H   0  0  0  0  0  0
  -24.0015   -7.4614   22.7483 H   0  0  0  0  0  0
  -21.0837   -8.8774   19.8941 H   0  0  0  0  0  0
  -22.3675  -10.9673   19.6214 H   0  0  0  0  0  0
  -21.1954   -7.6144   23.9681 H   0  0  0  0  0  0
  -21.1500   -6.0563   25.9085 H   0  0  0  0  0  0
  -22.0573   -2.7599   23.2874 H   0  0  0  0  0  0
  -22.4084  -11.9813   22.4861 H   0  0  0  0  0  0
  -21.1044  -13.1108   22.2766 H   0  0  0  0  0  0
  -24.6230  -15.8352   20.5177 H   0  0  0  0  0  0
  -26.2538  -15.6367   20.1062 H   0  0  0  0  0  0
  -26.7233  -32.5363   23.1039 H   0  0  0  0  0  0
  -25.0096  -33.9663   25.0380 H   0  0  0  0  0  0
  -22.7366  -31.2960   21.3889 H   0  0  0  0  0  0
  -23.3765  -35.9583   23.3304 H   0  0  0  0  0  0
  -24.3568  -36.8885   22.2054 H   0  0  0  0  0  0
  -23.7226  -37.6461   23.6667 H   0  0  0  0  0  0
  -26.1267  -31.5042   20.6079 H   0  0  0  0  0  0
  -26.8640  -30.7999   22.0136 H   0  0  0  0  0  0
  -28.1402  -28.8851   21.1845 H   0  0  0  0  0  0
  -25.9676  -25.8611   19.0229 H   0  0  0  0  0  0
  -23.9710  -27.2846   19.0155 H   0  0  0  0  0  0
  -23.7929  -30.5718   19.4029 H   0  0  0  0  0  0
  -22.7744  -29.2365   19.8513 H   0  0  0  0  0  0
  -25.1302  -36.1901   25.0811 H   0  0  0  0  0  0
  -20.9967  -28.3300   24.1373 H   0  0  0  0  0  0
  -20.5658  -26.2331   23.3612 H   0  0  0  0  0  0
  -21.6647  -26.7438   22.1211 H   0  0  0  0  0  0
  -19.6932  -25.6296   21.1245 H   0  0  0  0  0  0
  -19.6701  -27.3191   20.6738 H   0  0  0  0  0  0
  -17.4193  -26.6648   21.4021 H   0  0  0  0  0  0
  -18.0351  -26.0080   22.9027 H   0  0  0  0  0  0
  -19.7941  -30.7254   24.2288 H   0  0  0  0  0  0
  -17.5023  -31.6279   24.5147 H   0  0  0  0  0  0
  -15.5353  -30.2997   23.7658 H   0  0  0  0  0  0
  -15.8664  -28.0820   22.7095 H   0  0  0  0  0  0
  -24.5908  -30.7081   25.7724 H   0  0  0  0  0  0
  -24.8898  -32.2918   26.4786 H   0  0  0  0  0  0
  -25.8001  -30.8941   27.0212 H   0  0  0  0  0  0
  -26.2965  -29.6712   24.1239 H   0  0  0  0  0  0
  -27.4021  -29.7248   25.4761 H   0  0  0  0  0  0
  -27.8857  -30.4235   23.9503 H   0  0  0  0  0  0
  -27.2695  -33.3622   26.2041 H   0  0  0  0  0  0
  -28.3900  -32.6834   25.0318 H   0  0  0  0  0  0
  -28.0730  -31.8441   26.5406 H   0  0  0  0  0  0
  -28.2598  -38.0082   24.7508 H   0  0  0  0  0  0
  -28.1066  -36.2609   24.6307 H   0  0  0  0  0  0
  -27.2287  -37.1450   25.8869 H   0  0  0  0  0  0
  -20.9439  -29.8746   21.6806 H   0  0  0  0  0  0
  -26.0172  -38.2826   24.1420 H   0  0  0  0  0  0
  -32.7280  -18.8335   17.0275 H   0  0  0  0  0  0
  -33.6811  -20.3601   16.8358 H   0  0  0  0  0  0
  -32.6111  -19.1310   19.4166 H   0  0  0  0  0  0
  -33.9847  -20.2669   19.2374 H   0  0  0  0  0  0
  -30.6814  -20.0809   17.3997 H   0  0  0  0  0  0
  -31.5279  -21.4879   16.6812 H   0  0  0  0  0  0
  -31.4941  -19.2939   21.4975 H   0  0  0  0  0  0
  -30.0204  -18.7739   22.2341 H   0  0  0  0  0  0
  -27.9966  -18.5052   20.9850 H   0  0  0  0  0  0
  -27.9328  -18.6589   19.2612 H   0  0  0  0  0  0
  -31.8541  -17.2514   20.3206 H   0  0  0  0  0  0
  -31.5751  -16.8653   21.9864 H   0  0  0  0  0  0
  -29.1464  -16.6136   18.8488 H   0  0  0  0  0  0
  -28.0496  -16.2212   20.1367 H   0  0  0  0  0  0
  -30.3494  -19.0696   19.2472 H   0  0  0  0  0  0
  -32.5702  -22.0953   18.6780 H   0  0  0  0  0  0
  -28.9025  -23.3797   23.1527 H   0  0  0  0  0  0
  -30.5028  -24.1187   22.9924 H   0  0  0  0  0  0
  -30.3227  -22.5634   23.7946 H   0  0  0  0  0  0
  -32.7953  -22.9275   22.4379 H   0  0  0  0  0  0
  -33.1054  -23.4003   20.7660 H   0  0  0  0  0  0
  -33.4215  -21.7460   21.2977 H   0  0  0  0  0  0
  -26.8812  -22.0325   19.1793 H   0  0  0  0  0  0
  -26.2845  -23.6821   19.3031 H   0  0  0  0  0  0
  -26.4234  -22.6808   20.7462 H   0  0  0  0  0  0
  -29.2766  -24.9979   21.2321 H   0  0  0  0  0  0
  -27.5916  -24.9253   21.5423 H   0  0  0  0  0  0
  -28.7836  -23.5693   19.0418 H   0  0  0  0  0  0
  1 25  1  0  0  0
  1 30  2  0  0  0
  1 90  1  0  0  0
  2  3  1  0  0  0
  2 25  1  0  0  0
  2 91  1  0  0  0
  2 92  1  0  0  0
  3  4  1  0  0  0
  3 93  1  0  0  0
  3 94  1  0  0  0
  4  5  1  0  0  0
  4 95  1  0  0  0
  4 96  1  0  0  0
  5  6  1  0  0  0
  5 26  1  0  0  0
  5 97  1  0  0  0
  6 25  1  0  0  0
  6 98  1  0  0  0
  6 99  1  0  0  0
  7  8  2  0  0  0
  7 26  1  0  0  0
  7 29  1  0  0  0
  8  9  1  0  0  0
  8 22  1  0  0  0
  9 10  1  0  0  0
  9 27  2  0  0  0
 10 11  2  0  0  0
 10 15  1  0  0  0
 11 12  1  0  0  0
 11100  1  0  0  0
 12 13  2  0  0  0
 12101  1  0  0  0
 13 14  1  0  0  0
 13 31  1  0  0  0
 14 15  2  0  0  0
 14102  1  0  0  0
 15103  1  0  0  0
 16 17  2  0  0  0
 16 21  1  0  0  0
 16 31  1  0  0  0
 17 18  1  0  0  0
 17104  1  0  0  0
 18 19  2  0  0  0
 18105  1  0  0  0
 19 20  1  0  0  0
 19 24  1  0  0  0
 20 21  2  0  0  0
 20106  1  0  0  0
 21 23  1  0  0  0
 22 28  1  0  0  0
 22 32  2  0  0  0
 26 27  1  0  0  0
 28107  1  0  0  0
 28108  1  0  0  0
 29109  1  0  0  0
 29110  1  0  0  0
 33 34  1  0  0  0
 33 66  1  0  0  0
 33 70  2  0  0  0
 34 36  1  0  0  0
 34 59  1  0  0  0
 34111  1  0  0  0
 35 44  2  0  0  0
 35 45  1  0  0  0
 35 68  1  0  0  0
 36 56  1  0  0  0
 36112  1  0  0  0
 37 39  1  0  0  0
 37 47  1  0  0  0
 37 66  1  0  0  0
 37113  1  0  0  0
 38 43  2  0  0  0
 38 46  1  0  0  0
 38 47  1  0  0  0
 39 64  1  0  0  0
 39 67  2  0  0  0
 40 52  1  0  0  0
 40 53  2  0  0  0
 40 58  1  0  0  0
 41114  1  0  0  0
 41115  1  0  0  0
 41116  1  0  0  0
 41 48  1  0  0  0
 42 43  1  0  0  0
 42 66  1  0  0  0
 42117  1  0  0  0
 42118  1  0  0  0
 43 44  1  0  0  0
 44119  1  0  0  0
 45 46  2  0  0  0
 45120  1  0  0  0
 46121  1  0  0  0
 47122  1  0  0  0
 47123  1  0  0  0
 48 56  1  0  0  0
 48 65  1  0  0  0
 48124  1  0  0  0
 49 50  1  0  0  0
 49 53  1  0  0  0
 49 64  1  0  0  0
 49125  1  0  0  0
 50 51  1  0  0  0
 50126  1  0  0  0
 50127  1  0  0  0
 51 52  1  0  0  0
 51128  1  0  0  0
 51129  1  0  0  0
 52130  1  0  0  0
 52131  1  0  0  0
 53 54  1  0  0  0
 54 55  2  0  0  0
 54132  1  0  0  0
 55 57  1  0  0  0
 55133  1  0  0  0
 56 69  2  0  0  0
 57 58  2  0  0  0
 57134  1  0  0  0
 58135  1  0  0  0
 59 60  1  0  0  0
 59 61  1  0  0  0
 59 62  1  0  0  0
 60136  1  0  0  0
 60137  1  0  0  0
 60138  1  0  0  0
 61139  1  0  0  0
 61140  1  0  0  0
 61141  1  0  0  0
 62142  1  0  0  0
 62143  1  0  0  0
 62144  1  0  0  0
 63 65  1  0  0  0
 63145  1  0  0  0
 63146  1  0  0  0
 63147  1  0  0  0
 64148  1  0  0  0
 65149  1  0  0  0
 68 87  1  0  0  0
 71 72  1  0  0  0
 71 73  2  0  0  0
 71 88  1  0  0  0
 72 74  2  0  0  0
 72 84  1  0  0  0
 73 89  1  0  0  0
 73 82  1  0  0  0
 74 85  1  0  0  0
 74 89  1  0  0  0
 75 76  1  0  0  0
 75 77  1  0  0  0
 75150  1  0  0  0
 75151  1  0  0  0
 76 83  1  0  0  0
 76152  1  0  0  0
 76153  1  0  0  0
 77 83  1  0  0  0
 77154  1  0  0  0
 77155  1  0  0  0
 78 80  1  0  0  0
 78 82  1  0  0  0
 78156  1  0  0  0
 78157  1  0  0  0
 79 81  1  0  0  0
 79 82  1  0  0  0
 79158  1  0  0  0
 79159  1  0  0  0
 80 90  1  0  0  0
 80160  1  0  0  0
 80161  1  0  0  0
 81 90  1  0  0  0
 81162  1  0  0  0
 81163  1  0  0  0
 82164  1  0  0  0
 83 89  1  0  0  0
 83165  1  0  0  0
 84166  1  0  0  0
 84167  1  0  0  0
 84168  1  0  0  0
 85169  1  0  0  0
 85170  1  0  0  0
 85171  1  0  0  0
 86172  1  0  0  0
 86173  1  0  0  0
 86174  1  0  0  0
 86 88  1  0  0  0
 87 88  1  0  0  0
 87175  1  0  0  0
 87176  1  0  0  0
 88177  1  0  0  0
M  ISO  4   1 100  68 101  87 101  90 100
M  END
> <chiral flag>
0

> <version>
0

> <s_m_source_file>
/data/baiqing/PycharmProjects/Reinvent-master-3.2/result/LINK_invent/BTK/process_docking_weight1_custom_sum_contain_oxygen_bond_distance_aromatic_linkinvent_7_9_3/rearranged_h_0160.sdf

> <i_m_source_file_index>
18

> <r_mmod_Potential_Energy-OPLS-2005>
928.200927734375

> <r_mmod_Stretch_Energy-OPLS-2005>
191.62776184082

> <r_mmod_Bend_Energy-OPLS-2005>
331.865447998047

> <r_mmod_Torsional_Energy-OPLS-2005>
639.7255859375

> <r_mmod_Improper_Torsional_Energy-OPLS-2005>
35.7776718139648

> <r_mmod_Van_der_Waal_Energy-OPLS-2005>
110.251663208008

> <r_mmod_Electrostatic_Energy-OPLS-2005>
-320.730010986328

> <r_mmod_Solvation_Energy-OPLS-2005>
-191.94206237793

> <b_mmod_Minimization_Converged-OPLS-2005>
0

> <r_mmod_RMS_Derivative-OPLS-2005>
3.48438096046448

$$$$
18
                    3D
 Structure written by MMmdl.
169178  0  0  1  0            999 V2000
  -30.7425  -14.3503   20.6241 C   0  0  0  0  0  0
  -30.4180  -12.2512   19.3884 C   0  0  0  0  0  0
  -29.4871  -12.5173   18.1904 C   0  0  0  0  0  0
  -28.0080  -12.3902   18.6059 C   0  0  0  0  0  0
  -27.6709  -13.1954   19.8891 C   0  0  2  0  0  0
  -28.7105  -12.9078   20.9951 C   0  0  0  0  0  0
  -25.2610  -13.8166   20.5688 C   0  0  0  0  0  0
  -24.1850  -13.0468   20.9183 C   0  0  0  0  0  0
  -24.6377  -11.6925   20.8739 C   0  0  0  0  0  0
  -23.9061  -10.4321   21.0414 C   0  0  0  0  0  0
  -24.3623   -9.4226   21.9178 C   0  0  0  0  0  0
  -23.6300   -8.2261   22.0754 C   0  0  0  0  0  0
  -22.4277   -8.0291   21.3559 C   0  0  0  0  0  0
  -21.9920   -9.0269   20.4659 C   0  0  0  0  0  0
  -22.7239  -10.2148   20.3066 C   0  0  0  0  0  0
  -21.6853   -6.0732   22.5277 C   0  0  0  0  0  0
  -21.4000   -6.5639   23.8205 C   0  0  0  0  0  0
  -21.3667   -5.6797   24.9174 C   0  0  0  0  0  0
  -21.6054   -4.3059   24.7228 C   0  0  0  0  0  0
  -21.8818   -3.8149   23.4345 C   0  0  0  0  0  0
  -21.9188   -4.6962   22.3398 C   0  0  0  0  0  0
  -22.7862  -13.5260   21.1870 C   0  0  0  0  0  0
  -22.1655   -4.2146   21.0975 F   0  0  0  0  0  0
  -21.5656   -3.4544   25.7744 F   0  0  0  0  0  0
  -30.0531  -13.1949   20.4503 N   0  0  0  0  0  0
  -26.3066  -12.9314   20.3440 N   0  0  0  0  0  0
  -25.9309  -11.6487   20.5802 N   0  0  0  0  0  0
  -22.0509  -12.8256   22.0417 N   0  0  0  0  0  0
  -25.4372  -15.1889   20.4080 N   0  0  0  0  0  0
  -31.8134  -14.6070   20.0613 O   0  0  0  0  0  0
  -21.6649   -6.8877   21.4238 O   0  0  0  0  0  0
  -22.3549  -14.5571   20.6705 O   0  0  0  0  0  0
  -24.6096  -31.8723   23.2189 C   0  0  0  0  0  0
  -25.9030  -32.4837   23.8469 C   0  0  1  0  0  0
  -27.2372  -27.4716   20.0713 C   0  0  0  0  0  0
  -25.5920  -33.8645   24.2376 N   0  0  0  0  0  0
  -23.3993  -30.4961   21.5552 C   0  0  2  0  0  0
  -24.8486  -28.9800   20.1109 C   0  0  0  0  0  0
  -22.7364  -29.4663   22.4959 C   0  0  0  0  0  0
  -18.0319  -28.1373   22.8495 C   0  0  0  0  0  0
  -24.1514  -36.7317   23.2628 C   0  0  0  0  0  0
  -25.9309  -30.8477   21.3754 C   0  0  0  0  0  0
  -26.0066  -29.4919   20.7066 C   0  0  0  0  0  0
  -27.2015  -28.7431   20.6861 C   0  0  0  0  0  0
  -26.0548  -26.9768   19.4730 C   0  0  0  0  0  0
  -24.8624  -27.7172   19.4991 C   0  0  0  0  0  0
  -23.6121  -29.8406   20.1659 C   0  0  0  0  0  0
  -25.4123  -36.3090   24.0321 C   0  0  1  0  0  0
  -20.5888  -28.3632   23.1325 C   0  0  2  0  0  0
  -20.6797  -26.9471   22.5236 C   0  0  0  0  0  0
  -19.5801  -26.6734   21.4927 C   0  0  0  0  0  0
  -18.1983  -26.8028   22.1418 C   0  0  0  0  0  0
  -19.1551  -28.8787   23.2980 C   0  0  0  0  0  0
  -18.9500  -30.1337   23.9103 C   0  0  0  0  0  0
  -17.6512  -30.6526   24.0716 C   0  0  0  0  0  0
  -25.9033  -34.9465   23.5122 C   0  0  0  0  0  0
  -16.5403  -29.9082   23.6356 C   0  0  0  0  0  0
  -16.7311  -28.6507   23.0350 C   0  0  0  0  0  0
  -26.4481  -31.6601   25.0775 C   0  0  0  0  0  0
  -25.3781  -31.3745   26.1539 C   0  0  0  0  0  0
  -27.0301  -30.3032   24.6166 C   0  0  0  0  0  0
  -27.6065  -32.4307   25.7545 C   0  0  0  0  0  0
  -27.5589  -37.1806   24.8457 C   0  0  0  0  0  0
  -21.4076  -29.3052   22.3724 N   0  0  0  0  0  0
  -26.4315  -37.3762   23.9381 N   0  0  0  0  0  0
  -24.6636  -31.0807   22.1112 N   0  0  0  0  0  0
  -23.4118  -28.8153   23.2961 O   0  0  0  0  0  0
  -28.4113  -26.7440   20.1112 O   0  0  0  0  0  0
  -26.5568  -34.8892   22.4661 O   0  0  0  0  0  0
  -23.5261  -32.1537   23.7521 O   0  0  0  0  0  0
  -27.6320  -21.6256   21.9011 C   0  0  0  0  0  0
  -28.3211  -20.4890   22.3493 C   0  0  0  0  0  0
  -27.7424  -22.0095   20.5504 C   0  0  0  0  0  0
  -28.4783  -21.1737   19.6767 C   0  0  0  0  0  0
  -29.0960  -19.7754   21.4218 C   0  0  0  0  0  0
  -29.3268  -16.6242   23.0811 C   0  0  0  0  0  0
  -30.2918  -15.5024   22.7183 C   0  0  0  0  0  0
  -29.6906  -16.5444   20.6643 C   0  0  0  0  0  0
  -29.1570  -17.4343   21.7897 C   0  0  2  0  0  0
  -28.2014  -20.0649   23.8006 C   0  0  0  0  0  0
  -28.5996  -21.4541   18.1862 C   0  0  0  0  0  0
  -26.8825  -24.9690   21.8440 C   0  0  0  0  0  0
  -28.3868  -25.3701   19.7067 C   0  0  0  0  0  0
  -27.8218  -24.3781   20.7662 C   0  0  2  0  0  0
  -29.1374  -20.0749   20.1109 N   0  0  0  0  0  0
  -30.0717  -15.2891   21.2976 N   0  0  0  0  0  0
  -27.1903  -23.2228   20.1220 N   0  0  0  0  0  0
  -29.8740  -18.6992   21.8389 N   0  0  0  0  0  0
  -31.4615  -12.3466   19.0835 H   0  0  0  0  0  0
  -30.3075  -11.2233   19.7403 H   0  0  0  0  0  0
  -29.7097  -11.8234   17.3795 H   0  0  0  0  0  0
  -29.6724  -13.5173   17.7955 H   0  0  0  0  0  0
  -27.7953  -11.3323   18.7621 H   0  0  0  0  0  0
  -27.3620  -12.7146   17.7906 H   0  0  0  0  0  0
  -27.7372  -14.2530   19.6363 H   0  0  0  0  0  0
  -28.6640  -11.8613   21.2986 H   0  0  0  0  0  0
  -28.4733  -13.4732   21.8965 H   0  0  0  0  0  0
  -25.2773   -9.5696   22.4748 H   0  0  0  0  0  0
  -24.0004   -7.4654   22.7477 H   0  0  0  0  0  0
  -21.0855   -8.8796   19.8962 H   0  0  0  0  0  0
  -22.3706  -10.9691   19.6183 H   0  0  0  0  0  0
  -21.1968   -7.6144   23.9701 H   0  0  0  0  0  0
  -21.1501   -6.0531   25.9076 H   0  0  0  0  0  0
  -22.0586   -2.7610   23.2846 H   0  0  0  0  0  0
  -22.4084  -11.9880   22.4790 H   0  0  0  0  0  0
  -21.1124  -13.1276   22.2641 H   0  0  0  0  0  0
  -24.6901  -15.8590   20.5522 H   0  0  0  0  0  0
  -26.3083  -15.6204   20.1294 H   0  0  0  0  0  0
  -26.7157  -32.5568   23.1279 H   0  0  0  0  0  0
  -25.0133  -33.9906   25.0559 H   0  0  0  0  0  0
  -22.6927  -31.3166   21.4118 H   0  0  0  0  0  0
  -23.3723  -35.9699   23.3282 H   0  0  0  0  0  0
  -24.3657  -36.8931   22.2054 H   0  0  0  0  0  0
  -23.7335  -37.6542   23.6654 H   0  0  0  0  0  0
  -26.0566  -31.6313   20.6249 H   0  0  0  0  0  0
  -26.8183  -30.8898   21.9979 H   0  0  0  0  0  0
  -28.0902  -29.1280   21.1648 H   0  0  0  0  0  0
  -26.0170  -26.0041   19.0097 H   0  0  0  0  0  0
  -23.9667  -27.3027   19.0553 H   0  0  0  0  0  0
  -23.7366  -30.6306   19.4240 H   0  0  0  0  0  0
  -22.7445  -29.2614   19.8442 H   0  0  0  0  0  0
  -25.1296  -36.1930   25.0814 H   0  0  0  0  0  0
  -21.0068  -28.3150   24.1402 H   0  0  0  0  0  0
  -20.5571  -26.2250   23.3297 H   0  0  0  0  0  0
  -21.6703  -26.7544   22.1030 H   0  0  0  0  0  0
  -19.7005  -25.6830   21.0535 H   0  0  0  0  0  0
  -19.6690  -27.3905   20.6753 H   0  0  0  0  0  0
  -17.4204  -26.6930   21.3842 H   0  0  0  0  0  0
  -18.0433  -25.9993   22.8639 H   0  0  0  0  0  0
  -19.7998  -30.7048   24.2578 H   0  0  0  0  0  0
  -17.5099  -31.6136   24.5465 H   0  0  0  0  0  0
  -15.5432  -30.3032   23.7710 H   0  0  0  0  0  0
  -15.8703  -28.0865   22.6998 H   0  0  0  0  0  0
  -24.5932  -30.7110   25.7904 H   0  0  0  0  0  0
  -24.9010  -32.2928   26.4975 H   0  0  0  0  0  0
  -25.8153  -30.8931   27.0301 H   0  0  0  0  0  0
  -26.2866  -29.6801   24.1184 H   0  0  0  0  0  0
  -27.4022  -29.7248   25.4634 H   0  0  0  0  0  0
  -27.8720  -30.4312   23.9360 H   0  0  0  0  0  0
  -27.2687  -33.3565   26.2209 H   0  0  0  0  0  0
  -28.3847  -32.6937   25.0380 H   0  0  0  0  0  0
  -28.0778  -31.8397   26.5409 H   0  0  0  0  0  0
  -28.2557  -38.0134   24.7455 H   0  0  0  0  0  0
  -28.1112  -36.2647   24.6287 H   0  0  0  0  0  0
  -27.2321  -37.1477   25.8867 H   0  0  0  0  0  0
  -20.9098  -29.8825   21.7084 H   0  0  0  0  0  0
  -26.0147  -38.2826   24.1332 H   0  0  0  0  0  0
  -27.0382  -22.1955   22.5994 H   0  0  0  0  0  0
  -29.6635  -17.2052   23.9402 H   0  0  0  0  0  0
  -28.3661  -16.1826   23.3568 H   0  0  0  0  0  0
  -30.1164  -14.5986   23.3054 H   0  0  0  0  0  0
  -31.3263  -15.8137   22.8739 H   0  0  0  0  0  0
  -30.5540  -16.9897   20.1634 H   0  0  0  0  0  0
  -28.9320  -16.3663   19.8984 H   0  0  0  0  0  0
  -28.0900  -17.6164   21.6302 H   0  0  0  0  0  0
  -27.6789  -20.8206   24.3862 H   0  0  0  0  0  0
  -29.1867  -19.9104   24.2385 H   0  0  0  0  0  0
  -27.6396  -19.1330   23.8697 H   0  0  0  0  0  0
  -28.1299  -22.3854   17.8703 H   0  0  0  0  0  0
  -28.1301  -20.6476   17.6251 H   0  0  0  0  0  0
  -29.6464  -21.5063   17.8921 H   0  0  0  0  0  0
  -27.3105  -25.8563   22.3055 H   0  0  0  0  0  0
  -26.7044  -24.2755   22.6590 H   0  0  0  0  0  0
  -25.8999  -25.2440   21.4634 H   0  0  0  0  0  0
  -29.4224  -25.0778   19.5294 H   0  0  0  0  0  0
  -27.9405  -25.2570   18.7170 H   0  0  0  0  0  0
  -28.7121  -24.0368   21.3042 H   0  0  0  0  0  0
  -27.1100  -23.3007   19.1122 H   0  0  0  0  0  0
  -30.2555  -18.8662   22.7616 H   0  0  0  0  0  0
  1 25  1  0  0  0
  1 30  2  0  0  0
  1 86  1  0  0  0
  2  3  1  0  0  0
  2 25  1  0  0  0
  2 89  1  0  0  0
  2 90  1  0  0  0
  3  4  1  0  0  0
  3 91  1  0  0  0
  3 92  1  0  0  0
  4  5  1  0  0  0
  4 93  1  0  0  0
  4 94  1  0  0  0
  5  6  1  0  0  0
  5 26  1  0  0  0
  5 95  1  0  0  0
  6 25  1  0  0  0
  6 96  1  0  0  0
  6 97  1  0  0  0
  7  8  2  0  0  0
  7 26  1  0  0  0
  7 29  1  0  0  0
  8  9  1  0  0  0
  8 22  1  0  0  0
  9 10  1  0  0  0
  9 27  2  0  0  0
 10 11  2  0  0  0
 10 15  1  0  0  0
 11 12  1  0  0  0
 11 98  1  0  0  0
 12 13  2  0  0  0
 12 99  1  0  0  0
 13 14  1  0  0  0
 13 31  1  0  0  0
 14 15  2  0  0  0
 14100  1  0  0  0
 15101  1  0  0  0
 16 17  2  0  0  0
 16 21  1  0  0  0
 16 31  1  0  0  0
 17 18  1  0  0  0
 17102  1  0  0  0
 18 19  2  0  0  0
 18103  1  0  0  0
 19 20  1  0  0  0
 19 24  1  0  0  0
 20 21  2  0  0  0
 20104  1  0  0  0
 21 23  1  0  0  0
 22 28  1  0  0  0
 22 32  2  0  0  0
 26 27  1  0  0  0
 28105  1  0  0  0
 28106  1  0  0  0
 29107  1  0  0  0
 29108  1  0  0  0
 33 34  1  0  0  0
 33 66  1  0  0  0
 33 70  2  0  0  0
 34 36  1  0  0  0
 34 59  1  0  0  0
 34109  1  0  0  0
 35 44  2  0  0  0
 35 45  1  0  0  0
 35 68  1  0  0  0
 36 56  1  0  0  0
 36110  1  0  0  0
 37 39  1  0  0  0
 37 47  1  0  0  0
 37 66  1  0  0  0
 37111  1  0  0  0
 38 43  2  0  0  0
 38 46  1  0  0  0
 38 47  1  0  0  0
 39 64  1  0  0  0
 39 67  2  0  0  0
 40 52  1  0  0  0
 40 53  2  0  0  0
 40 58  1  0  0  0
 41112  1  0  0  0
 41113  1  0  0  0
 41114  1  0  0  0
 41 48  1  0  0  0
 42 43  1  0  0  0
 42 66  1  0  0  0
 42115  1  0  0  0
 42116  1  0  0  0
 43 44  1  0  0  0
 44117  1  0  0  0
 45 46  2  0  0  0
 45118  1  0  0  0
 46119  1  0  0  0
 47120  1  0  0  0
 47121  1  0  0  0
 48 56  1  0  0  0
 48 65  1  0  0  0
 48122  1  0  0  0
 49 50  1  0  0  0
 49 53  1  0  0  0
 49 64  1  0  0  0
 49123  1  0  0  0
 50 51  1  0  0  0
 50124  1  0  0  0
 50125  1  0  0  0
 51 52  1  0  0  0
 51126  1  0  0  0
 51127  1  0  0  0
 52128  1  0  0  0
 52129  1  0  0  0
 53 54  1  0  0  0
 54 55  2  0  0  0
 54130  1  0  0  0
 55 57  1  0  0  0
 55131  1  0  0  0
 56 69  2  0  0  0
 57 58  2  0  0  0
 57132  1  0  0  0
 58133  1  0  0  0
 59 60  1  0  0  0
 59 61  1  0  0  0
 59 62  1  0  0  0
 60134  1  0  0  0
 60135  1  0  0  0
 60136  1  0  0  0
 61137  1  0  0  0
 61138  1  0  0  0
 61139  1  0  0  0
 62140  1  0  0  0
 62141  1  0  0  0
 62142  1  0  0  0
 63 65  1  0  0  0
 63143  1  0  0  0
 63144  1  0  0  0
 63145  1  0  0  0
 64146  1  0  0  0
 65147  1  0  0  0
 68 83  1  0  0  0
 71 72  2  0  0  0
 71 73  1  0  0  0
 71148  1  0  0  0
 72 75  1  0  0  0
 72 80  1  0  0  0
 73 74  2  0  0  0
 73 87  1  0  0  0
 74 81  1  0  0  0
 74 85  1  0  0  0
 75 85  2  0  0  0
 75 88  1  0  0  0
 76 77  1  0  0  0
 76 79  1  0  0  0
 76149  1  0  0  0
 76150  1  0  0  0
 77 86  1  0  0  0
 77151  1  0  0  0
 77152  1  0  0  0
 78 79  1  0  0  0
 78 86  1  0  0  0
 78153  1  0  0  0
 78154  1  0  0  0
 79 88  1  0  0  0
 79155  1  0  0  0
 80156  1  0  0  0
 80157  1  0  0  0
 80158  1  0  0  0
 81159  1  0  0  0
 81160  1  0  0  0
 81161  1  0  0  0
 82162  1  0  0  0
 82163  1  0  0  0
 82164  1  0  0  0
 82 84  1  0  0  0
 83 84  1  0  0  0
 83165  1  0  0  0
 83166  1  0  0  0
 84 87  1  0  0  0
 84167  1  0  0  0
 87168  1  0  0  0
 88169  1  0  0  0
M  ISO  4   1 100  68 101  83 101  86 100
M  END
> <chiral flag>
0

> <version>
0

> <s_m_source_file>
/data/baiqing/PycharmProjects/Reinvent-master-3.2/result/LINK_invent/BTK/process_docking_weight1_custom_sum_contain_oxygen_bond_distance_aromatic_linkinvent_7_9_3/rearranged_h_0160.sdf

> <i_m_source_file_index>
19

> <r_mmod_Potential_Energy-OPLS-2005>
-46.388240814209

> <r_mmod_Stretch_Energy-OPLS-2005>
33.3686790466309

> <r_mmod_Bend_Energy-OPLS-2005>
118.888008117676

> <r_mmod_Torsional_Energy-OPLS-2005>
386.226013183594

> <r_mmod_Improper_Torsional_Energy-OPLS-2005>
17.2871513366699

> <r_mmod_Van_der_Waal_Energy-OPLS-2005>
165.729522705078

> <r_mmod_Electrostatic_Energy-OPLS-2005>
-547.161315917969

> <r_mmod_Solvation_Energy-OPLS-2005>
-230.095565795898

> <b_mmod_Minimization_Converged-OPLS-2005>
0

> <r_mmod_RMS_Derivative-OPLS-2005>
5.97660064697266

$$$$
19
                    3D
 Structure written by MMmdl.
162171  0  0  1  0            999 V2000
  -30.6685  -14.7187   20.4268 C   0  0  0  0  0  0
  -30.4063  -12.4353   19.4605 C   0  0  0  0  0  0
  -29.4883  -12.4922   18.2229 C   0  0  0  0  0  0
  -28.0208  -12.3008   18.6482 C   0  0  0  0  0  0
  -27.6259  -13.2120   19.8409 C   0  0  2  0  0  0
  -28.6817  -13.2087   20.9693 C   0  0  0  0  0  0
  -25.2499  -13.8138   20.5726 C   0  0  0  0  0  0
  -24.1772  -13.0425   20.9213 C   0  0  0  0  0  0
  -24.6338  -11.6886   20.8769 C   0  0  0  0  0  0
  -23.9025  -10.4280   21.0405 C   0  0  0  0  0  0
  -24.3580   -9.4201   21.9186 C   0  0  0  0  0  0
  -23.6272   -8.2231   22.0755 C   0  0  0  0  0  0
  -22.4254   -8.0262   21.3541 C   0  0  0  0  0  0
  -21.9886   -9.0223   20.4636 C   0  0  0  0  0  0
  -22.7200  -10.2110   20.3045 C   0  0  0  0  0  0
  -21.6863   -6.0717   22.5277 C   0  0  0  0  0  0
  -21.4018   -6.5622   23.8208 C   0  0  0  0  0  0
  -21.3656   -5.6777   24.9177 C   0  0  0  0  0  0
  -21.6047   -4.3043   24.7237 C   0  0  0  0  0  0
  -21.8825   -3.8140   23.4359 C   0  0  0  0  0  0
  -21.9197   -4.6947   22.3408 C   0  0  0  0  0  0
  -22.7800  -13.5216   21.1858 C   0  0  0  0  0  0
  -22.1661   -4.2128   21.0987 F   0  0  0  0  0  0
  -21.5629   -3.4533   25.7754 F   0  0  0  0  0  0
  -29.9781  -13.5291   20.3643 N   0  0  0  0  0  0
  -26.2874  -12.9280   20.3327 N   0  0  0  0  0  0
  -25.9258  -11.6453   20.5813 N   0  0  0  0  0  0
  -22.0446  -12.8206   22.0395 N   0  0  0  0  0  0
  -25.4290  -15.1864   20.4115 N   0  0  0  0  0  0
  -31.8715  -14.7201   20.1532 O   0  0  0  0  0  0
  -21.6644   -6.8844   21.4228 O   0  0  0  0  0  0
  -22.3496  -14.5528   20.6693 O   0  0  0  0  0  0
  -24.6285  -31.8601   23.1983 C   0  0  0  0  0  0
  -25.9108  -32.4790   23.8335 C   0  0  1  0  0  0
  -27.2116  -27.2757   20.1199 C   0  0  0  0  0  0
  -25.5913  -33.8589   24.2273 N   0  0  0  0  0  0
  -23.4250  -30.4840   21.5436 C   0  0  2  0  0  0
  -24.8691  -28.9338   20.1151 C   0  0  0  0  0  0
  -22.7501  -29.4626   22.4921 C   0  0  0  0  0  0
  -18.0301  -28.1378   22.8504 C   0  0  0  0  0  0
  -24.1484  -36.7274   23.2642 C   0  0  0  0  0  0
  -25.9703  -30.7779   21.3758 C   0  0  0  0  0  0
  -26.0429  -29.3995   20.7212 C   0  0  0  0  0  0
  -27.2181  -28.5813   20.7161 C   0  0  0  0  0  0
  -26.0081  -26.8769   19.4928 C   0  0  0  0  0  0
  -24.8544  -27.6777   19.4977 C   0  0  0  0  0  0
  -23.6420  -29.8206   20.1599 C   0  0  0  0  0  0
  -25.4119  -36.3087   24.0331 C   0  0  1  0  0  0
  -20.5905  -28.3703   23.1284 C   0  0  2  0  0  0
  -20.6799  -26.9422   22.5421 C   0  0  0  0  0  0
  -19.5761  -26.6381   21.5241 C   0  0  0  0  0  0
  -18.1942  -26.7916   22.1644 C   0  0  0  0  0  0
  -19.1553  -28.8856   23.2883 C   0  0  0  0  0  0
  -18.9469  -30.1462   23.8894 C   0  0  0  0  0  0
  -17.6467  -30.6581   24.0562 C   0  0  0  0  0  0
  -25.9060  -34.9459   23.5115 C   0  0  0  0  0  0
  -16.5363  -29.9081   23.6322 C   0  0  0  0  0  0
  -16.7291  -28.6492   23.0362 C   0  0  0  0  0  0
  -26.4469  -31.6578   25.0697 C   0  0  0  0  0  0
  -25.3687  -31.3699   26.1407 C   0  0  0  0  0  0
  -27.0315  -30.3012   24.6122 C   0  0  0  0  0  0
  -27.6008  -32.4316   25.7485 C   0  0  0  0  0  0
  -27.5580  -37.1805   24.8470 C   0  0  0  0  0  0
  -21.4209  -29.3053   22.3669 N   0  0  0  0  0  0
  -26.4290  -37.3789   23.9416 N   0  0  0  0  0  0
  -24.6942  -31.0575   22.0962 N   0  0  0  0  0  0
  -23.4213  -28.8184   23.3010 O   0  0  0  0  0  0
  -28.3012  -26.3787   20.1707 O   0  0  0  0  0  0
  -26.5648  -34.8931   22.4692 O   0  0  0  0  0  0
  -23.5437  -32.1417   23.7291 O   0  0  0  0  0  0
  -30.4007  -24.0693   20.7514 C   0  0  0  0  0  0
  -29.0907  -23.7789   20.2871 C   0  0  0  0  0  0
  -30.9908  -21.8176   20.6823 C   0  0  0  0  0  0
  -29.6853  -21.4383   20.2745 C   0  0  0  0  0  0
  -28.3333  -17.8178   20.0386 C   0  0  0  0  0  0
  -30.0616  -18.3308   21.7260 C   0  0  0  0  0  0
  -29.2469  -16.6167   19.5733 C   0  0  0  0  0  0
  -30.8416  -17.0575   21.2164 C   0  0  0  0  0  0
  -29.0329  -19.0147   20.7648 C   0  0  0  0  0  0
  -30.8940  -25.4755   21.0321 C   0  0  0  0  0  0
  -32.1537  -20.8508   20.7532 C   0  0  0  0  0  0
  -28.0128  -24.9126   20.0152 C   0  0  0  0  0  0
  -31.3276  -23.1017   20.9478 N   0  0  0  0  0  0
  -28.7500  -22.4425   20.0564 N   0  0  0  0  0  0
  -30.0213  -15.9402   20.6541 N   0  0  0  0  0  0
  -29.4186  -20.1122   19.8488 O   0  0  0  0  0  0
  -31.4507  -12.5152   19.1542 H   0  0  0  0  0  0
  -30.3174  -11.4698   19.9597 H   0  0  0  0  0  0
  -29.7707  -11.7269   17.4979 H   0  0  0  0  0  0
  -29.6099  -13.4525   17.7196 H   0  0  0  0  0  0
  -27.8877  -11.2517   18.9212 H   0  0  0  0  0  0
  -27.3563  -12.4787   17.8012 H   0  0  0  0  0  0
  -27.5776  -14.2087   19.4235 H   0  0  0  0  0  0
  -28.7250  -12.2369   21.4616 H   0  0  0  0  0  0
  -28.4267  -13.9408   21.7376 H   0  0  0  0  0  0
  -25.2703   -9.5698   22.4781 H   0  0  0  0  0  0
  -23.9993   -7.4621   22.7454 H   0  0  0  0  0  0
  -21.0840   -8.8709   19.8921 H   0  0  0  0  0  0
  -22.3639  -10.9638   19.6162 H   0  0  0  0  0  0
  -21.2006   -7.6125   23.9706 H   0  0  0  0  0  0
  -21.1473   -6.0513   25.9075 H   0  0  0  0  0  0
  -22.0612   -2.7603   23.2879 H   0  0  0  0  0  0
  -22.4057  -11.9851   22.4757 H   0  0  0  0  0  0
  -21.1050  -13.1211   22.2583 H   0  0  0  0  0  0
  -24.6772  -15.8565   20.5245 H   0  0  0  0  0  0
  -26.2998  -15.6116   20.1223 H   0  0  0  0  0  0
  -26.7177  -32.5454   23.1084 H   0  0  0  0  0  0
  -25.0022  -33.9744   25.0394 H   0  0  0  0  0  0
  -22.7202  -31.3055   21.3980 H   0  0  0  0  0  0
  -23.3770  -35.9578   23.3297 H   0  0  0  0  0  0
  -24.3572  -36.8906   22.2054 H   0  0  0  0  0  0
  -23.7208  -37.6464   23.6670 H   0  0  0  0  0  0
  -26.1016  -31.5359   20.6015 H   0  0  0  0  0  0
  -26.8519  -30.8348   22.0023 H   0  0  0  0  0  0
  -28.1148  -28.9253   21.2134 H   0  0  0  0  0  0
  -25.9114  -25.9199   19.0054 H   0  0  0  0  0  0
  -23.9519  -27.3090   19.0301 H   0  0  0  0  0  0
  -23.7690  -30.5956   19.4028 H   0  0  0  0  0  0
  -22.7600  -29.2546   19.8546 H   0  0  0  0  0  0
  -25.1300  -36.1937   25.0823 H   0  0  0  0  0  0
  -21.0006  -28.3276   24.1403 H   0  0  0  0  0  0
  -20.5737  -26.2309   23.3632 H   0  0  0  0  0  0
  -21.6659  -26.7470   22.1193 H   0  0  0  0  0  0
  -19.6928  -25.6294   21.1269 H   0  0  0  0  0  0
  -19.6682  -27.3197   20.6775 H   0  0  0  0  0  0
  -17.4224  -26.6701   21.4028 H   0  0  0  0  0  0
  -18.0301  -26.0043   22.9019 H   0  0  0  0  0  0
  -19.7947  -30.7288   24.2239 H   0  0  0  0  0  0
  -17.5022  -31.6264   24.5160 H   0  0  0  0  0  0
  -15.5362  -30.2994   23.7623 H   0  0  0  0  0  0
  -15.8691  -28.0813   22.7080 H   0  0  0  0  0  0
  -24.5868  -30.7052   25.7716 H   0  0  0  0  0  0
  -24.8862  -32.2854   26.4833 H   0  0  0  0  0  0
  -25.7991  -30.8864   27.0183 H   0  0  0  0  0  0
  -26.2887  -29.6781   24.1123 H   0  0  0  0  0  0
  -27.4024  -29.7233   25.4595 H   0  0  0  0  0  0
  -27.8743  -30.4335   23.9336 H   0  0  0  0  0  0
  -27.2604  -33.3629   26.2025 H   0  0  0  0  0  0
  -28.3830  -32.6859   25.0318 H   0  0  0  0  0  0
  -28.0642  -31.8454   26.5432 H   0  0  0  0  0  0
  -28.2586  -38.0116   24.7544 H   0  0  0  0  0  0
  -28.1095  -36.2648   24.6269 H   0  0  0  0  0  0
  -27.2300  -37.1414   25.8875 H   0  0  0  0  0  0
  -20.9385  -29.8768   21.6873 H   0  0  0  0  0  0
  -26.0167  -38.2864   24.1421 H   0  0  0  0  0  0
  -27.5877  -17.4109   20.7235 H   0  0  0  0  0  0
  -27.7554  -18.1961   19.1940 H   0  0  0  0  0  0
  -30.7533  -19.0631   22.1368 H   0  0  0  0  0  0
  -29.4959  -17.9975   22.5977 H   0  0  0  0  0  0
  -29.9460  -16.9858   18.8218 H   0  0  0  0  0  0
  -28.6425  -15.9030   19.0262 H   0  0  0  0  0  0
  -31.4306  -16.6710   22.0497 H   0  0  0  0  0  0
  -31.5743  -17.3667   20.4666 H   0  0  0  0  0  0
  -28.2822  -19.4848   21.4018 H   0  0  0  0  0  0
  -30.8234  -26.0866   20.1341 H   0  0  0  0  0  0
  -31.9400  -25.4761   21.3430 H   0  0  0  0  0  0
  -30.3107  -25.9452   21.8238 H   0  0  0  0  0  0
  -32.4891  -20.7568   21.7861 H   0  0  0  0  0  0
  -32.9893  -21.2235   20.1599 H   0  0  0  0  0  0
  -31.9016  -19.8642   20.3692 H   0  0  0  0  0  0
  -27.1603  -24.6676   20.6512 H   0  0  0  0  0  0
  -27.6911  -24.7418   18.9878 H   0  0  0  0  0  0
  1 25  1  0  0  0
  1 30  2  0  0  0
  1 85  1  0  0  0
  2  3  1  0  0  0
  2 25  1  0  0  0
  2 87  1  0  0  0
  2 88  1  0  0  0
  3  4  1  0  0  0
  3 89  1  0  0  0
  3 90  1  0  0  0
  4  5  1  0  0  0
  4 91  1  0  0  0
  4 92  1  0  0  0
  5  6  1  0  0  0
  5 26  1  0  0  0
  5 93  1  0  0  0
  6 25  1  0  0  0
  6 94  1  0  0  0
  6 95  1  0  0  0
  7  8  2  0  0  0
  7 26  1  0  0  0
  7 29  1  0  0  0
  8  9  1  0  0  0
  8 22  1  0  0  0
  9 10  1  0  0  0
  9 27  2  0  0  0
 10 11  2  0  0  0
 10 15  1  0  0  0
 11 12  1  0  0  0
 11 96  1  0  0  0
 12 13  2  0  0  0
 12 97  1  0  0  0
 13 14  1  0  0  0
 13 31  1  0  0  0
 14 15  2  0  0  0
 14 98  1  0  0  0
 15 99  1  0  0  0
 16 17  2  0  0  0
 16 21  1  0  0  0
 16 31  1  0  0  0
 17 18  1  0  0  0
 17100  1  0  0  0
 18 19  2  0  0  0
 18101  1  0  0  0
 19 20  1  0  0  0
 19 24  1  0  0  0
 20 21  2  0  0  0
 20102  1  0  0  0
 21 23  1  0  0  0
 22 28  1  0  0  0
 22 32  2  0  0  0
 26 27  1  0  0  0
 28103  1  0  0  0
 28104  1  0  0  0
 29105  1  0  0  0
 29106  1  0  0  0
 33 34  1  0  0  0
 33 66  1  0  0  0
 33 70  2  0  0  0
 34 36  1  0  0  0
 34 59  1  0  0  0
 34107  1  0  0  0
 35 44  2  0  0  0
 35 45  1  0  0  0
 35 68  1  0  0  0
 36 56  1  0  0  0
 36108  1  0  0  0
 37 39  1  0  0  0
 37 47  1  0  0  0
 37 66  1  0  0  0
 37109  1  0  0  0
 38 43  2  0  0  0
 38 46  1  0  0  0
 38 47  1  0  0  0
 39 64  1  0  0  0
 39 67  2  0  0  0
 40 52  1  0  0  0
 40 53  2  0  0  0
 40 58  1  0  0  0
 41110  1  0  0  0
 41111  1  0  0  0
 41112  1  0  0  0
 41 48  1  0  0  0
 42 43  1  0  0  0
 42 66  1  0  0  0
 42113  1  0  0  0
 42114  1  0  0  0
 43 44  1  0  0  0
 44115  1  0  0  0
 45 46  2  0  0  0
 45116  1  0  0  0
 46117  1  0  0  0
 47118  1  0  0  0
 47119  1  0  0  0
 48 56  1  0  0  0
 48 65  1  0  0  0
 48120  1  0  0  0
 49 50  1  0  0  0
 49 53  1  0  0  0
 49 64  1  0  0  0
 49121  1  0  0  0
 50 51  1  0  0  0
 50122  1  0  0  0
 50123  1  0  0  0
 51 52  1  0  0  0
 51124  1  0  0  0
 51125  1  0  0  0
 52126  1  0  0  0
 52127  1  0  0  0
 53 54  1  0  0  0
 54 55  2  0  0  0
 54128  1  0  0  0
 55 57  1  0  0  0
 55129  1  0  0  0
 56 69  2  0  0  0
 57 58  2  0  0  0
 57130  1  0  0  0
 58131  1  0  0  0
 59 60  1  0  0  0
 59 61  1  0  0  0
 59 62  1  0  0  0
 60132  1  0  0  0
 60133  1  0  0  0
 60134  1  0  0  0
 61135  1  0  0  0
 61136  1  0  0  0
 61137  1  0  0  0
 62138  1  0  0  0
 62139  1  0  0  0
 62140  1  0  0  0
 63 65  1  0  0  0
 63141  1  0  0  0
 63142  1  0  0  0
 63143  1  0  0  0
 64144  1  0  0  0
 65145  1  0  0  0
 68 82  1  0  0  0
 71 72  2  0  0  0
 71 80  1  0  0  0
 71 83  1  0  0  0
 72 82  1  0  0  0
 72 84  1  0  0  0
 73 74  1  0  0  0
 73 81  1  0  0  0
 73 83  2  0  0  0
 74 84  2  0  0  0
 74 86  1  0  0  0
 75 77  1  0  0  0
 75 79  1  0  0  0
 75146  1  0  0  0
 75147  1  0  0  0
 76 78  1  0  0  0
 76 79  1  0  0  0
 76148  1  0  0  0
 76149  1  0  0  0
 77 85  1  0  0  0
 77150  1  0  0  0
 77151  1  0  0  0
 78 85  1  0  0  0
 78152  1  0  0  0
 78153  1  0  0  0
 79 86  1  0  0  0
 79154  1  0  0  0
 80155  1  0  0  0
 80156  1  0  0  0
 80157  1  0  0  0
 81158  1  0  0  0
 81159  1  0  0  0
 81160  1  0  0  0
 82161  1  0  0  0
 82162  1  0  0  0
M  ISO  4   1 100  68 101  82 101  85 100
M  END
> <chiral flag>
0

> <version>
0

> <s_m_source_file>
/data/baiqing/PycharmProjects/Reinvent-master-3.2/result/LINK_invent/BTK/process_docking_weight1_custom_sum_contain_oxygen_bond_distance_aromatic_linkinvent_7_9_3/rearranged_h_0160.sdf

> <i_m_source_file_index>
20

> <r_mmod_Potential_Energy-OPLS-2005>
458.743225097656

> <r_mmod_Stretch_Energy-OPLS-2005>
110.520454406738

> <r_mmod_Bend_Energy-OPLS-2005>
202.317398071289

> <r_mmod_Torsional_Energy-OPLS-2005>
354.639801025391

> <r_mmod_Improper_Torsional_Energy-OPLS-2005>
9.83086395263672

> <r_mmod_Van_der_Waal_Energy-OPLS-2005>
156.234817504883

> <r_mmod_Electrostatic_Energy-OPLS-2005>
-247.499496459961

> <r_mmod_Solvation_Energy-OPLS-2005>
-209.239532470703

> <b_mmod_Minimization_Converged-OPLS-2005>
0

> <r_mmod_RMS_Derivative-OPLS-2005>
2.83024549484253

$$$$
20
                    3D
 Structure written by MMmdl.
175184  0  0  1  0            999 V2000
  -30.6970  -14.4371   20.6427 C   0  0  0  0  0  0
  -30.4317  -12.3094   19.4117 C   0  0  0  0  0  0
  -29.4956  -12.5261   18.2037 C   0  0  0  0  0  0
  -28.0174  -12.3760   18.6144 C   0  0  0  0  0  0
  -27.6665  -13.1976   19.8825 C   0  0  2  0  0  0
  -28.7028  -12.9302   20.9960 C   0  0  0  0  0  0
  -25.2624  -13.8154   20.5692 C   0  0  0  0  0  0
  -24.1855  -13.0458   20.9183 C   0  0  0  0  0  0
  -24.6377  -11.6912   20.8726 C   0  0  0  0  0  0
  -23.9034  -10.4302   21.0401 C   0  0  0  0  0  0
  -24.3592   -9.4221   21.9179 C   0  0  0  0  0  0
  -23.6267   -8.2255   22.0755 C   0  0  0  0  0  0
  -22.4255   -8.0285   21.3545 C   0  0  0  0  0  0
  -21.9881   -9.0264   20.4656 C   0  0  0  0  0  0
  -22.7207  -10.2142   20.3056 C   0  0  0  0  0  0
  -21.6847   -6.0734   22.5285 C   0  0  0  0  0  0
  -21.4011   -6.5643   23.8217 C   0  0  0  0  0  0
  -21.3654   -5.6797   24.9175 C   0  0  0  0  0  0
  -21.6042   -4.3059   24.7232 C   0  0  0  0  0  0
  -21.8814   -3.8149   23.4350 C   0  0  0  0  0  0
  -21.9190   -4.6961   22.3404 C   0  0  0  0  0  0
  -22.7886  -13.5284   21.1858 C   0  0  0  0  0  0
  -22.1668   -4.2151   21.0978 F   0  0  0  0  0  0
  -21.5621   -3.4540   25.7739 F   0  0  0  0  0  0
  -30.0426  -13.2557   20.4689 N   0  0  0  0  0  0
  -26.3039  -12.9298   20.3370 N   0  0  0  0  0  0
  -25.9302  -11.6474   20.5749 N   0  0  0  0  0  0
  -22.0496  -12.8295   22.0404 N   0  0  0  0  0  0
  -25.4423  -15.1860   20.4131 N   0  0  0  0  0  0
  -31.7742  -14.6834   20.0861 O   0  0  0  0  0  0
  -21.6629   -6.8876   21.4249 O   0  0  0  0  0  0
  -22.3590  -14.5604   20.6710 O   0  0  0  0  0  0
  -24.6119  -31.8681   23.2120 C   0  0  0  0  0  0
  -25.9017  -32.4820   23.8415 C   0  0  1  0  0  0
  -27.2334  -27.4467   20.1106 C   0  0  0  0  0  0
  -25.5892  -33.8617   24.2351 N   0  0  0  0  0  0
  -23.4022  -30.4897   21.5514 C   0  0  2  0  0  0
  -24.8521  -28.9604   20.1126 C   0  0  0  0  0  0
  -22.7401  -29.4634   22.4992 C   0  0  0  0  0  0
  -18.0267  -28.1368   22.8496 C   0  0  0  0  0  0
  -24.1486  -36.7311   23.2639 C   0  0  0  0  0  0
  -25.9300  -30.8374   21.3675 C   0  0  0  0  0  0
  -26.0090  -29.4754   20.7112 C   0  0  0  0  0  0
  -27.2065  -28.7261   20.7061 C   0  0  0  0  0  0
  -26.0670  -26.9422   19.4983 C   0  0  0  0  0  0
  -24.8772  -27.6940   19.4994 C   0  0  0  0  0  0
  -23.6103  -29.8229   20.1647 C   0  0  0  0  0  0
  -25.4112  -36.3115   24.0335 C   0  0  1  0  0  0
  -20.5854  -28.3632   23.1336 C   0  0  2  0  0  0
  -20.6756  -26.9365   22.5432 C   0  0  0  0  0  0
  -19.5732  -26.6375   21.5224 C   0  0  0  0  0  0
  -18.1907  -26.7915   22.1627 C   0  0  0  0  0  0
  -19.1520  -28.8820   23.2908 C   0  0  0  0  0  0
  -18.9455  -30.1432   23.8901 C   0  0  0  0  0  0
  -17.6459  -30.6571   24.0566 C   0  0  0  0  0  0
  -25.9035  -34.9474   23.5147 C   0  0  0  0  0  0
  -16.5347  -29.9076   23.6327 C   0  0  0  0  0  0
  -16.7263  -28.6501   23.0338 C   0  0  0  0  0  0
  -26.4446  -31.6598   25.0737 C   0  0  0  0  0  0
  -25.3728  -31.3733   26.1510 C   0  0  0  0  0  0
  -27.0260  -30.3027   24.6129 C   0  0  0  0  0  0
  -27.6041  -32.4311   25.7476 C   0  0  0  0  0  0
  -27.5591  -37.1812   24.8462 C   0  0  0  0  0  0
  -21.4123  -29.3010   22.3748 N   0  0  0  0  0  0
  -26.4309  -37.3791   23.9398 N   0  0  0  0  0  0
  -24.6658  -31.0788   22.1019 N   0  0  0  0  0  0
  -23.4184  -28.8167   23.3013 O   0  0  0  0  0  0
  -28.3705  -26.6767   20.1418 O   0  0  0  0  0  0
  -26.5587  -34.8910   22.4702 O   0  0  0  0  0  0
  -23.5312  -32.1427   23.7508 O   0  0  0  0  0  0
  -29.0085  -18.7676   22.3103 C   0  0  0  0  0  0
  -29.9371  -19.5207   21.5676 C   0  0  0  0  0  0
  -29.0442  -17.3539   22.2736 C   0  0  0  0  0  0
  -30.0473  -16.7209   21.4837 C   0  0  0  0  0  0
  -30.8941  -18.8113   20.8210 C   0  0  0  0  0  0
  -28.8202  -21.7663   20.8335 C   0  0  0  0  0  0
  -29.5449  -23.1515   22.6545 C   0  0  0  0  0  0
  -29.9410  -21.0557   21.6096 C   0  0  1  0  0  0
  -29.8686  -21.6895   22.9969 C   0  0  1  0  0  0
  -31.1543  -21.4921   23.8133 C   0  0  0  0  0  0
  -26.6628  -17.2336   23.2897 C   0  0  0  0  0  0
  -28.6201  -16.1197   24.4424 C   0  0  0  0  0  0
  -32.8860  -18.7788   19.4679 C   0  0  0  0  0  0
  -28.8415  -24.2711   20.5119 C   0  0  0  0  0  0
  -28.3001  -25.5988   21.0920 C   0  0  0  0  0  0
  -28.0251  -16.5422   23.0915 C   0  0  0  0  0  0
  -30.9363  -17.4626   20.7845 N   0  0  0  0  0  0
  -30.0605  -15.2960   21.4649 N   0  0  0  0  0  0
  -28.6773  -23.1167   21.4472 N   0  3  1  0  0  0
  -31.8396  -19.5085   20.0999 O   0  0  0  0  0  0
  -31.4739  -12.4276   19.1081 H   0  0  0  0  0  0
  -30.3476  -11.2867   19.7822 H   0  0  0  0  0  0
  -29.7364  -11.8178   17.4102 H   0  0  0  0  0  0
  -29.6576  -13.5198   17.7839 H   0  0  0  0  0  0
  -27.8273  -11.3174   18.7950 H   0  0  0  0  0  0
  -27.3680  -12.6624   17.7861 H   0  0  0  0  0  0
  -27.7237  -14.2517   19.6112 H   0  0  0  0  0  0
  -28.6759  -11.8784   21.2825 H   0  0  0  0  0  0
  -28.4443  -13.4691   21.9066 H   0  0  0  0  0  0
  -25.2743   -9.5702   22.4752 H   0  0  0  0  0  0
  -23.9984   -7.4645   22.7474 H   0  0  0  0  0  0
  -21.0807   -8.8792   19.8965 H   0  0  0  0  0  0
  -22.3672  -10.9683   19.6164 H   0  0  0  0  0  0
  -21.2017   -7.6155   23.9718 H   0  0  0  0  0  0
  -21.1473   -6.0528   25.9072 H   0  0  0  0  0  0
  -22.0593   -2.7611   23.2854 H   0  0  0  0  0  0
  -22.4056  -11.9936   22.4815 H   0  0  0  0  0  0
  -21.1104  -13.1350   22.2563 H   0  0  0  0  0  0
  -24.6920  -15.8543   20.5490 H   0  0  0  0  0  0
  -26.3019  -15.6167   20.0998 H   0  0  0  0  0  0
  -26.7093  -32.5536   23.1186 H   0  0  0  0  0  0
  -25.0043  -33.9780   25.0501 H   0  0  0  0  0  0
  -22.6916  -31.3072   21.4143 H   0  0  0  0  0  0
  -23.3743  -35.9655   23.3323 H   0  0  0  0  0  0
  -24.3586  -36.8898   22.2055 H   0  0  0  0  0  0
  -23.7245  -37.6523   23.6633 H   0  0  0  0  0  0
  -26.0514  -31.6082   20.6051 H   0  0  0  0  0  0
  -26.8137  -30.8818   21.9931 H   0  0  0  0  0  0
  -28.0986  -29.1170   21.1755 H   0  0  0  0  0  0
  -26.0779  -25.9664   19.0319 H   0  0  0  0  0  0
  -23.9878  -27.2947   19.0321 H   0  0  0  0  0  0
  -23.7158  -30.6000   19.4063 H   0  0  0  0  0  0
  -22.7363  -29.2394   19.8690 H   0  0  0  0  0  0
  -25.1288  -36.2001   25.0828 H   0  0  0  0  0  0
  -20.9944  -28.3193   24.1458 H   0  0  0  0  0  0
  -20.5651  -26.2226   23.3603 H   0  0  0  0  0  0
  -21.6630  -26.7404   22.1233 H   0  0  0  0  0  0
  -19.6876  -25.6300   21.1211 H   0  0  0  0  0  0
  -19.6681  -27.3223   20.6780 H   0  0  0  0  0  0
  -17.4185  -26.6674   21.4013 H   0  0  0  0  0  0
  -18.0287  -26.0054   22.9016 H   0  0  0  0  0  0
  -19.7934  -30.7246   24.2256 H   0  0  0  0  0  0
  -17.5018  -31.6245   24.5176 H   0  0  0  0  0  0
  -15.5343  -30.2981   23.7651 H   0  0  0  0  0  0
  -15.8660  -28.0828   22.7033 H   0  0  0  0  0  0
  -24.5899  -30.7058   25.7893 H   0  0  0  0  0  0
  -24.8908  -32.2894   26.4936 H   0  0  0  0  0  0
  -25.8101  -30.8948   27.0283 H   0  0  0  0  0  0
  -26.2811  -29.6818   24.1139 H   0  0  0  0  0  0
  -27.3959  -29.7240   25.4604 H   0  0  0  0  0  0
  -27.8683  -30.4322   23.9327 H   0  0  0  0  0  0
  -27.2678  -33.3596   26.2103 H   0  0  0  0  0  0
  -28.3815  -32.6902   25.0275 H   0  0  0  0  0  0
  -28.0750  -31.8408   26.5343 H   0  0  0  0  0  0
  -28.2626  -38.0092   24.7500 H   0  0  0  0  0  0
  -28.1062  -36.2622   24.6304 H   0  0  0  0  0  0
  -27.2291  -37.1502   25.8859 H   0  0  0  0  0  0
  -20.9262  -29.8776   21.7027 H   0  0  0  0  0  0
  -26.0196  -38.2868   24.1397 H   0  0  0  0  0  0
  -28.2760  -19.2810   22.9119 H   0  0  0  0  0  0
  -27.8716  -21.2412   20.9539 H   0  0  0  0  0  0
  -29.0391  -21.7971   19.7643 H   0  0  0  0  0  0
  -30.4716  -23.6850   22.4381 H   0  0  0  0  0  0
  -29.0568  -23.6678   23.4820 H   0  0  0  0  0  0
  -30.8744  -21.4014   21.1647 H   0  0  0  0  0  0
  -29.0229  -21.2897   23.5565 H   0  0  0  0  0  0
  -32.0256  -21.8783   23.2830 H   0  0  0  0  0  0
  -31.3338  -20.4335   24.0073 H   0  0  0  0  0  0
  -31.0938  -22.0008   24.7753 H   0  0  0  0  0  0
  -26.2304  -17.5459   22.3385 H   0  0  0  0  0  0
  -26.7231  -18.1047   23.9416 H   0  0  0  0  0  0
  -25.9507  -16.5489   23.7514 H   0  0  0  0  0  0
  -29.5408  -15.5487   24.3148 H   0  0  0  0  0  0
  -27.9227  -15.4906   24.9971 H   0  0  0  0  0  0
  -28.8522  -16.9854   25.0642 H   0  0  0  0  0  0
  -33.5794  -19.4743   18.9958 H   0  0  0  0  0  0
  -32.4985  -18.1171   18.6935 H   0  0  0  0  0  0
  -33.4530  -18.1892   20.1890 H   0  0  0  0  0  0
  -29.8905  -24.3794   20.2348 H   0  0  0  0  0  0
  -28.2948  -24.0568   19.5929 H   0  0  0  0  0  0
  -28.8738  -25.8854   21.9746 H   0  0  0  0  0  0
  -27.2775  -25.4336   21.4399 H   0  0  0  0  0  0
  -27.7900  -15.6370   22.5330 H   0  0  0  0  0  0
  -29.3062  -14.8698   21.9740 H   0  0  0  0  0  0
  -27.7247  -23.1424   21.7816 H   0  0  0  0  0  0
  1 25  1  0  0  0
  1 30  2  0  0  0
  1 88  1  0  0  0
  2  3  1  0  0  0
  2 25  1  0  0  0
  2 91  1  0  0  0
  2 92  1  0  0  0
  3  4  1  0  0  0
  3 93  1  0  0  0
  3 94  1  0  0  0
  4  5  1  0  0  0
  4 95  1  0  0  0
  4 96  1  0  0  0
  5  6  1  0  0  0
  5 26  1  0  0  0
  5 97  1  0  0  0
  6 25  1  0  0  0
  6 98  1  0  0  0
  6 99  1  0  0  0
  7  8  2  0  0  0
  7 26  1  0  0  0
  7 29  1  0  0  0
  8  9  1  0  0  0
  8 22  1  0  0  0
  9 10  1  0  0  0
  9 27  2  0  0  0
 10 11  2  0  0  0
 10 15  1  0  0  0
 11 12  1  0  0  0
 11100  1  0  0  0
 12 13  2  0  0  0
 12101  1  0  0  0
 13 14  1  0  0  0
 13 31  1  0  0  0
 14 15  2  0  0  0
 14102  1  0  0  0
 15103  1  0  0  0
 16 17  2  0  0  0
 16 21  1  0  0  0
 16 31  1  0  0  0
 17 18  1  0  0  0
 17104  1  0  0  0
 18 19  2  0  0  0
 18105  1  0  0  0
 19 20  1  0  0  0
 19 24  1  0  0  0
 20 21  2  0  0  0
 20106  1  0  0  0
 21 23  1  0  0  0
 22 28  1  0  0  0
 22 32  2  0  0  0
 26 27  1  0  0  0
 28107  1  0  0  0
 28108  1  0  0  0
 29109  1  0  0  0
 29110  1  0  0  0
 33 34  1  0  0  0
 33 66  1  0  0  0
 33 70  2  0  0  0
 34 36  1  0  0  0
 34 59  1  0  0  0
 34111  1  0  0  0
 35 44  2  0  0  0
 35 45  1  0  0  0
 35 68  1  0  0  0
 36 56  1  0  0  0
 36112  1  0  0  0
 37 39  1  0  0  0
 37 47  1  0  0  0
 37 66  1  0  0  0
 37113  1  0  0  0
 38 43  2  0  0  0
 38 46  1  0  0  0
 38 47  1  0  0  0
 39 64  1  0  0  0
 39 67  2  0  0  0
 40 52  1  0  0  0
 40 53  2  0  0  0
 40 58  1  0  0  0
 41114  1  0  0  0
 41115  1  0  0  0
 41116  1  0  0  0
 41 48  1  0  0  0
 42 43  1  0  0  0
 42 66  1  0  0  0
 42117  1  0  0  0
 42118  1  0  0  0
 43 44  1  0  0  0
 44119  1  0  0  0
 45 46  2  0  0  0
 45120  1  0  0  0
 46121  1  0  0  0
 47122  1  0  0  0
 47123  1  0  0  0
 48 56  1  0  0  0
 48 65  1  0  0  0
 48124  1  0  0  0
 49 50  1  0  0  0
 49 53  1  0  0  0
 49 64  1  0  0  0
 49125  1  0  0  0
 50 51  1  0  0  0
 50126  1  0  0  0
 50127  1  0  0  0
 51 52  1  0  0  0
 51128  1  0  0  0
 51129  1  0  0  0
 52130  1  0  0  0
 52131  1  0  0  0
 53 54  1  0  0  0
 54 55  2  0  0  0
 54132  1  0  0  0
 55 57  1  0  0  0
 55133  1  0  0  0
 56 69  2  0  0  0
 57 58  2  0  0  0
 57134  1  0  0  0
 58135  1  0  0  0
 59 60  1  0  0  0
 59 61  1  0  0  0
 59 62  1  0  0  0
 60136  1  0  0  0
 60137  1  0  0  0
 60138  1  0  0  0
 61139  1  0  0  0
 61140  1  0  0  0
 61141  1  0  0  0
 62142  1  0  0  0
 62143  1  0  0  0
 62144  1  0  0  0
 63 65  1  0  0  0
 63145  1  0  0  0
 63146  1  0  0  0
 63147  1  0  0  0
 64148  1  0  0  0
 65149  1  0  0  0
 68 85  1  0  0  0
 71 72  2  0  0  0
 71 73  1  0  0  0
 71150  1  0  0  0
 72 75  1  0  0  0
 72 78  1  0  0  0
 73 74  2  0  0  0
 73 86  1  0  0  0
 74 87  1  0  0  0
 74 88  1  0  0  0
 75 87  2  0  0  0
 75 90  1  0  0  0
 76 78  1  0  0  0
 76 89  1  0  0  0
 76151  1  0  0  0
 76152  1  0  0  0
 77 79  1  0  0  0
 77 89  1  0  0  0
 77153  1  0  0  0
 77154  1  0  0  0
 78 79  1  0  0  0
 78155  1  0  0  0
 79 80  1  0  0  0
 79156  1  0  0  0
 80157  1  0  0  0
 80158  1  0  0  0
 80159  1  0  0  0
 81160  1  0  0  0
 81161  1  0  0  0
 81162  1  0  0  0
 81 86  1  0  0  0
 82 86  1  0  0  0
 82163  1  0  0  0
 82164  1  0  0  0
 82165  1  0  0  0
 83 90  1  0  0  0
 83166  1  0  0  0
 83167  1  0  0  0
 83168  1  0  0  0
 84 85  1  0  0  0
 84169  1  0  0  0
 84170  1  0  0  0
 84 89  1  0  0  0
 85171  1  0  0  0
 85172  1  0  0  0
 86173  1  0  0  0
 88174  1  0  0  0
 89175  1  0  0  0
M  CHG  1  89   1
M  ISO  4   1 100  68 101  85 101  88 100
M  END
> <chiral flag>
0

> <version>
0

> <s_m_source_file>
/data/baiqing/PycharmProjects/Reinvent-master-3.2/result/LINK_invent/BTK/process_docking_weight1_custom_sum_contain_oxygen_bond_distance_aromatic_linkinvent_7_9_3/rearranged_h_0160.sdf

> <i_m_source_file_index>
21

> <r_mmod_Potential_Energy-OPLS-2005>
-218.287582397461

> <r_mmod_Stretch_Energy-OPLS-2005>
38.9983024597168

> <r_mmod_Bend_Energy-OPLS-2005>
135.131851196289

> <r_mmod_Torsional_Energy-OPLS-2005>
280.993713378906

> <r_mmod_Improper_Torsional_Energy-OPLS-2005>
2.77554631233215

> <r_mmod_Van_der_Waal_Energy-OPLS-2005>
155.542663574219

> <r_mmod_Electrostatic_Energy-OPLS-2005>
-405.170989990234

> <r_mmod_Solvation_Energy-OPLS-2005>
-437.268402099609

> <b_mmod_Minimization_Converged-OPLS-2005>
0

> <r_mmod_RMS_Derivative-OPLS-2005>
2.15726232528687

$$$$
21
                    3D
 Structure written by MMmdl.
160168  0  0  1  0            999 V2000
  -30.4265  -15.2833   20.3678 C   0  0  0  0  0  0
  -30.4393  -12.8241   19.5179 C   0  0  0  0  0  0
  -29.5348  -12.5782   18.2839 C   0  0  0  0  0  0
  -28.0845  -12.2980   18.7151 C   0  0  0  0  0  0
  -27.6096  -13.2753   19.8187 C   0  0  2  0  0  0
  -28.6442  -13.4581   20.9488 C   0  0  0  0  0  0
  -25.2385  -13.8246   20.5742 C   0  0  0  0  0  0
  -24.1742  -13.0435   20.9265 C   0  0  0  0  0  0
  -24.6398  -11.6933   20.8766 C   0  0  0  0  0  0
  -23.9093  -10.4293   21.0408 C   0  0  0  0  0  0
  -24.3637   -9.4205   21.9185 C   0  0  0  0  0  0
  -23.6305   -8.2243   22.0754 C   0  0  0  0  0  0
  -22.4286   -8.0284   21.3544 C   0  0  0  0  0  0
  -21.9929   -9.0258   20.4645 C   0  0  0  0  0  0
  -22.7264  -10.2134   20.3056 C   0  0  0  0  0  0
  -21.6856   -6.0739   22.5279 C   0  0  0  0  0  0
  -21.4017   -6.5642   23.8213 C   0  0  0  0  0  0
  -21.3660   -5.6793   24.9174 C   0  0  0  0  0  0
  -21.6044   -4.3056   24.7225 C   0  0  0  0  0  0
  -21.8819   -3.8149   23.4346 C   0  0  0  0  0  0
  -21.9194   -4.6966   22.3402 C   0  0  0  0  0  0
  -22.7759  -13.5187   21.1909 C   0  0  0  0  0  0
  -22.1662   -4.2152   21.0980 F   0  0  0  0  0  0
  -21.5628   -3.4539   25.7737 F   0  0  0  0  0  0
  -29.8692  -13.9725   20.3146 N   0  0  0  0  0  0
  -26.2809  -12.9520   20.3203 N   0  0  0  0  0  0
  -25.9333  -11.6626   20.5715 N   0  0  0  0  0  0
  -22.0418  -12.8167   22.0461 N   0  0  0  0  0  0
  -25.4004  -15.1981   20.4159 N   0  0  0  0  0  0
  -31.6548  -15.2829   20.1991 O   0  0  0  0  0  0
  -21.6645   -6.8884   21.4242 O   0  0  0  0  0  0
  -22.3438  -14.5488   20.6747 O   0  0  0  0  0  0
  -24.6641  -31.8226   23.1692 C   0  0  0  0  0  0
  -25.9317  -32.4584   23.8161 C   0  0  1  0  0  0
  -27.2179  -26.9140   20.1912 C   0  0  0  0  0  0
  -25.5977  -33.8397   24.2067 N   0  0  0  0  0  0
  -23.4793  -30.4335   21.5191 C   0  0  2  0  0  0
  -24.9319  -28.8150   20.1173 C   0  0  0  0  0  0
  -22.7670  -29.4439   22.4782 C   0  0  0  0  0  0
  -18.0324  -28.1412   22.8467 C   0  0  0  0  0  0
  -24.1492  -36.7204   23.2647 C   0  0  0  0  0  0
  -26.0492  -30.6255   21.4004 C   0  0  0  0  0  0
  -26.1173  -29.2125   20.7480 C   0  0  0  0  0  0
  -27.2565  -28.2856   20.7550 C   0  0  0  0  0  0
  -26.0013  -26.6707   19.5148 C   0  0  0  0  0  0
  -24.8997  -27.5646   19.4798 C   0  0  0  0  0  0
  -23.7202  -29.7463   20.1470 C   0  0  0  0  0  0
  -25.4135  -36.2965   24.0298 C   0  0  1  0  0  0
  -20.5949  -28.3758   23.1186 C   0  0  2  0  0  0
  -20.6801  -26.9439   22.5403 C   0  0  0  0  0  0
  -19.5774  -26.6380   21.5215 C   0  0  0  0  0  0
  -18.1956  -26.7945   22.1624 C   0  0  0  0  0  0
  -19.1585  -28.8905   23.2814 C   0  0  0  0  0  0
  -18.9496  -30.1495   23.8851 C   0  0  0  0  0  0
  -17.6489  -30.6601   24.0556 C   0  0  0  0  0  0
  -25.9102  -34.9348   23.5006 C   0  0  0  0  0  0
  -16.5379  -29.9089   23.6345 C   0  0  0  0  0  0
  -16.7306  -28.6509   23.0364 C   0  0  0  0  0  0
  -26.4562  -31.6533   25.0694 C   0  0  0  0  0  0
  -25.3684  -31.3789   26.1347 C   0  0  0  0  0  0
  -27.0464  -30.2899   24.6437 C   0  0  0  0  0  0
  -27.6049  -32.4345   25.7500 C   0  0  0  0  0  0
  -27.5570  -37.1761   24.8465 C   0  0  0  0  0  0
  -21.4339  -29.3046   22.3531 N   0  0  0  0  0  0
  -26.4279  -37.3703   23.9408 N   0  0  0  0  0  0
  -24.7524  -30.9879   22.0832 N   0  0  0  0  0  0
  -23.4211  -28.8012   23.3031 O   0  0  0  0  0  0
  -28.2319  -25.8141   20.2254 O   0  0  0  0  0  0
  -26.5713  -34.8886   22.4604 O   0  0  0  0  0  0
  -23.5708  -32.1199   23.6779 O   0  0  0  0  0  0
  -29.5816  -18.9596   21.7989 C   0  0  0  0  0  0
  -29.9051  -18.2081   20.4661 C   0  0  2  0  0  0
  -28.7348  -20.8925   20.4308 C   0  0  2  0  0  0
  -29.1700  -19.4659   19.5713 C   0  0  0  0  0  0
  -27.8873  -18.8858   18.9439 C   0  0  0  0  0  0
  -30.1192  -19.8653   18.4297 C   0  0  0  0  0  0
  -30.3814  -23.0200   20.6241 C   0  0  0  0  0  0
  -28.8387  -21.0350   22.9453 C   0  0  0  0  0  0
  -27.9860  -24.1768   20.3603 C   0  0  0  0  0  0
  -28.9776  -22.6750   20.1090 C   0  0  2  0  0  0
  -29.1588  -20.2868   21.7304 N   0  0  0  0  0  0
  -29.6495  -16.5498   20.3946 N   0  0  0  0  0  0
  -29.7397  -18.3610   22.8674 O   0  0  0  0  0  0
  -31.4545  -13.0388   19.1818 H   0  0  0  0  0  0
  -30.5173  -11.9238   20.1298 H   0  0  0  0  0  0
  -29.9180  -11.7484   17.6884 H   0  0  0  0  0  0
  -29.5588  -13.4569   17.6377 H   0  0  0  0  0  0
  -28.0450  -11.2753   19.0919 H   0  0  0  0  0  0
  -27.4150  -12.3336   17.8548 H   0  0  0  0  0  0
  -27.5208  -14.2392   19.3162 H   0  0  0  0  0  0
  -28.8198  -12.5261   21.4880 H   0  0  0  0  0  0
  -28.2813  -14.1795   21.6827 H   0  0  0  0  0  0
  -25.2779   -9.5681   22.4766 H   0  0  0  0  0  0
  -24.0010   -7.4634   22.7475 H   0  0  0  0  0  0
  -21.0859   -8.8782   19.8950 H   0  0  0  0  0  0
  -22.3723  -10.9676   19.6168 H   0  0  0  0  0  0
  -21.2010   -7.6150   23.9718 H   0  0  0  0  0  0
  -21.1482   -6.0523   25.9078 H   0  0  0  0  0  0
  -22.0597   -2.7611   23.2845 H   0  0  0  0  0  0
  -22.4053  -11.9839   22.4854 H   0  0  0  0  0  0
  -21.1028  -13.1171   22.2663 H   0  0  0  0  0  0
  -24.6241  -15.8422   20.5212 H   0  0  0  0  0  0
  -26.2292  -15.6375   20.0397 H   0  0  0  0  0  0
  -26.7388  -32.5121   23.0876 H   0  0  0  0  0  0
  -25.0070  -33.9471   25.0182 H   0  0  0  0  0  0
  -22.7937  -31.2657   21.3464 H   0  0  0  0  0  0
  -23.3767  -35.9522   23.3278 H   0  0  0  0  0  0
  -24.3568  -36.8882   22.2068 H   0  0  0  0  0  0
  -23.7237  -37.6377   23.6724 H   0  0  0  0  0  0
  -26.2296  -31.3645   20.6186 H   0  0  0  0  0  0
  -26.9092  -30.6848   22.0555 H   0  0  0  0  0  0
  -28.1579  -28.5936   21.2660 H   0  0  0  0  0  0
  -25.8725  -25.7207   19.0176 H   0  0  0  0  0  0
  -24.0001  -27.2548   18.9659 H   0  0  0  0  0  0
  -23.8796  -30.5129   19.3879 H   0  0  0  0  0  0
  -22.8292  -29.2025   19.8284 H   0  0  0  0  0  0
  -25.1335  -36.1758   25.0788 H   0  0  0  0  0  0
  -21.0040  -28.3367   24.1308 H   0  0  0  0  0  0
  -20.5681  -26.2377   23.3645 H   0  0  0  0  0  0
  -21.6665  -26.7415   22.1210 H   0  0  0  0  0  0
  -19.6932  -25.6277   21.1278 H   0  0  0  0  0  0
  -19.6712  -27.3163   20.6722 H   0  0  0  0  0  0
  -17.4226  -26.6688   21.4027 H   0  0  0  0  0  0
  -18.0351  -26.0100   22.9033 H   0  0  0  0  0  0
  -19.7971  -30.7324   24.2200 H   0  0  0  0  0  0
  -17.5040  -31.6276   24.5169 H   0  0  0  0  0  0
  -15.5378  -30.2977   23.7694 H   0  0  0  0  0  0
  -15.8707  -28.0811   22.7107 H   0  0  0  0  0  0
  -24.5882  -30.7121   25.7657 H   0  0  0  0  0  0
  -24.8855  -32.2991   26.4643 H   0  0  0  0  0  0
  -25.7911  -30.9043   27.0212 H   0  0  0  0  0  0
  -26.3135  -29.6568   24.1424 H   0  0  0  0  0  0
  -27.3970  -29.7272   25.5099 H   0  0  0  0  0  0
  -27.9085  -30.4078   23.9869 H   0  0  0  0  0  0
  -27.2615  -33.3690   26.1951 H   0  0  0  0  0  0
  -28.3929  -32.6838   25.0380 H   0  0  0  0  0  0
  -28.0642  -31.8557   26.5524 H   0  0  0  0  0  0
  -28.2570  -38.0074   24.7517 H   0  0  0  0  0  0
  -28.1085  -36.2601   24.6290 H   0  0  0  0  0  0
  -27.2286  -37.1399   25.8867 H   0  0  0  0  0  0
  -20.9595  -29.8729   21.6652 H   0  0  0  0  0  0
  -26.0124  -38.2759   24.1419 H   0  0  0  0  0  0
  -30.9849  -18.3135   20.3547 H   0  0  0  0  0  0
  -27.6459  -20.8476   20.4838 H   0  0  0  0  0  0
  -27.1777  -18.5722   19.7103 H   0  0  0  0  0  0
  -28.1054  -18.0145   18.3250 H   0  0  0  0  0  0
  -27.3852  -19.6192   18.3118 H   0  0  0  0  0  0
  -31.0432  -20.2935   18.8189 H   0  0  0  0  0  0
  -29.6655  -20.6083   17.7733 H   0  0  0  0  0  0
  -30.3897  -19.0042   17.8173 H   0  0  0  0  0  0
  -31.1094  -22.2623   20.3342 H   0  0  0  0  0  0
  -30.3966  -23.0999   21.7106 H   0  0  0  0  0  0
  -30.7220  -23.9742   20.2208 H   0  0  0  0  0  0
  -28.1734  -20.4611   23.5919 H   0  0  0  0  0  0
  -28.3422  -21.9798   22.7256 H   0  0  0  0  0  0
  -29.7488  -21.2545   23.5045 H   0  0  0  0  0  0
  -27.6386  -24.0882   21.3897 H   0  0  0  0  0  0
  -27.0865  -23.9934   19.7744 H   0  0  0  0  0  0
  -29.0699  -22.6795   19.0227 H   0  0  0  0  0  0
  -28.6647  -16.3464   20.4624 H   0  0  0  0  0  0
  1 25  1  0  0  0
  1 30  2  0  0  0
  1 82  1  0  0  0
  2  3  1  0  0  0
  2 25  1  0  0  0
  2 84  1  0  0  0
  2 85  1  0  0  0
  3  4  1  0  0  0
  3 86  1  0  0  0
  3 87  1  0  0  0
  4  5  1  0  0  0
  4 88  1  0  0  0
  4 89  1  0  0  0
  5  6  1  0  0  0
  5 26  1  0  0  0
  5 90  1  0  0  0
  6 25  1  0  0  0
  6 91  1  0  0  0
  6 92  1  0  0  0
  7  8  2  0  0  0
  7 26  1  0  0  0
  7 29  1  0  0  0
  8  9  1  0  0  0
  8 22  1  0  0  0
  9 10  1  0  0  0
  9 27  2  0  0  0
 10 11  2  0  0  0
 10 15  1  0  0  0
 11 12  1  0  0  0
 11 93  1  0  0  0
 12 13  2  0  0  0
 12 94  1  0  0  0
 13 14  1  0  0  0
 13 31  1  0  0  0
 14 15  2  0  0  0
 14 95  1  0  0  0
 15 96  1  0  0  0
 16 17  2  0  0  0
 16 21  1  0  0  0
 16 31  1  0  0  0
 17 18  1  0  0  0
 17 97  1  0  0  0
 18 19  2  0  0  0
 18 98  1  0  0  0
 19 20  1  0  0  0
 19 24  1  0  0  0
 20 21  2  0  0  0
 20 99  1  0  0  0
 21 23  1  0  0  0
 22 28  1  0  0  0
 22 32  2  0  0  0
 26 27  1  0  0  0
 28100  1  0  0  0
 28101  1  0  0  0
 29102  1  0  0  0
 29103  1  0  0  0
 33 34  1  0  0  0
 33 66  1  0  0  0
 33 70  2  0  0  0
 34 36  1  0  0  0
 34 59  1  0  0  0
 34104  1  0  0  0
 35 44  2  0  0  0
 35 45  1  0  0  0
 35 68  1  0  0  0
 36 56  1  0  0  0
 36105  1  0  0  0
 37 39  1  0  0  0
 37 47  1  0  0  0
 37 66  1  0  0  0
 37106  1  0  0  0
 38 43  2  0  0  0
 38 46  1  0  0  0
 38 47  1  0  0  0
 39 64  1  0  0  0
 39 67  2  0  0  0
 40 52  1  0  0  0
 40 53  2  0  0  0
 40 58  1  0  0  0
 41107  1  0  0  0
 41108  1  0  0  0
 41109  1  0  0  0
 41 48  1  0  0  0
 42 43  1  0  0  0
 42 66  1  0  0  0
 42110  1  0  0  0
 42111  1  0  0  0
 43 44  1  0  0  0
 44112  1  0  0  0
 45 46  2  0  0  0
 45113  1  0  0  0
 46114  1  0  0  0
 47115  1  0  0  0
 47116  1  0  0  0
 48 56  1  0  0  0
 48 65  1  0  0  0
 48117  1  0  0  0
 49 50  1  0  0  0
 49 53  1  0  0  0
 49 64  1  0  0  0
 49118  1  0  0  0
 50 51  1  0  0  0
 50119  1  0  0  0
 50120  1  0  0  0
 51 52  1  0  0  0
 51121  1  0  0  0
 51122  1  0  0  0
 52123  1  0  0  0
 52124  1  0  0  0
 53 54  1  0  0  0
 54 55  2  0  0  0
 54125  1  0  0  0
 55 57  1  0  0  0
 55126  1  0  0  0
 56 69  2  0  0  0
 57 58  2  0  0  0
 57127  1  0  0  0
 58128  1  0  0  0
 59 60  1  0  0  0
 59 61  1  0  0  0
 59 62  1  0  0  0
 60129  1  0  0  0
 60130  1  0  0  0
 60131  1  0  0  0
 61132  1  0  0  0
 61133  1  0  0  0
 61134  1  0  0  0
 62135  1  0  0  0
 62136  1  0  0  0
 62137  1  0  0  0
 63 65  1  0  0  0
 63138  1  0  0  0
 63139  1  0  0  0
 63140  1  0  0  0
 64141  1  0  0  0
 65142  1  0  0  0
 68 79  1  0  0  0
 71 72  1  0  0  0
 71 81  1  0  0  0
 71 83  2  0  0  0
 72 74  1  0  0  0
 72 82  1  0  0  0
 72143  1  0  0  0
 73 74  1  0  0  0
 73 80  1  0  0  0
 73 81  1  0  0  0
 73144  1  0  0  0
 74 75  1  0  0  0
 74 76  1  0  0  0
 75145  1  0  0  0
 75146  1  0  0  0
 75147  1  0  0  0
 76148  1  0  0  0
 76149  1  0  0  0
 76150  1  0  0  0
 77151  1  0  0  0
 77152  1  0  0  0
 77153  1  0  0  0
 77 80  1  0  0  0
 78 81  1  0  0  0
 78154  1  0  0  0
 78155  1  0  0  0
 78156  1  0  0  0
 79 80  1  0  0  0
 79157  1  0  0  0
 79158  1  0  0  0
 80159  1  0  0  0
 82160  1  0  0  0
M  ISO  4   1 100  68 101  79 101  82 100
M  END
> <chiral flag>
0

> <version>
0

> <s_m_source_file>
/data/baiqing/PycharmProjects/Reinvent-master-3.2/result/LINK_invent/BTK/process_docking_weight1_custom_sum_contain_oxygen_bond_distance_aromatic_linkinvent_7_9_3/rearranged_h_0160.sdf

> <i_m_source_file_index>
22

> <r_mmod_Potential_Energy-OPLS-2005>
1333.14477539062

> <r_mmod_Stretch_Energy-OPLS-2005>
604.919189453125

> <r_mmod_Bend_Energy-OPLS-2005>
493.67431640625

> <r_mmod_Torsional_Energy-OPLS-2005>
305.317047119141

> <r_mmod_Improper_Torsional_Energy-OPLS-2005>
5.01733541488647

> <r_mmod_Van_der_Waal_Energy-OPLS-2005>
99.4771499633789

> <r_mmod_Electrostatic_Energy-OPLS-2005>
-422.217407226562

> <r_mmod_Solvation_Energy-OPLS-2005>
-228.448318481445

> <b_mmod_Minimization_Converged-OPLS-2005>
0

> <r_mmod_RMS_Derivative-OPLS-2005>
0.220530569553375

$$$$
22
                    3D
 Structure written by MMmdl.
170179  0  0  1  0            999 V2000
  -30.7285  -14.4830   20.5308 C   0  0  0  0  0  0
  -30.4180  -12.3052   19.4496 C   0  0  0  0  0  0
  -29.5155  -12.4950   18.2179 C   0  0  0  0  0  0
  -28.0325  -12.3690   18.6194 C   0  0  0  0  0  0
  -27.6563  -13.2312   19.8570 C   0  0  2  0  0  0
  -28.6950  -13.0672   20.9933 C   0  0  0  0  0  0
  -25.2536  -13.8243   20.5675 C   0  0  0  0  0  0
  -24.1827  -13.0442   20.9222 C   0  0  0  0  0  0
  -24.6408  -11.6922   20.8716 C   0  0  0  0  0  0
  -23.9074  -10.4291   21.0345 C   0  0  0  0  0  0
  -24.3633   -9.4221   21.9125 C   0  0  0  0  0  0
  -23.6310   -8.2248   22.0712 C   0  0  0  0  0  0
  -22.4291   -8.0260   21.3510 C   0  0  0  0  0  0
  -21.9923   -9.0210   20.4600 C   0  0  0  0  0  0
  -22.7235  -10.2097   20.2989 C   0  0  0  0  0  0
  -21.6870   -6.0723   22.5272 C   0  0  0  0  0  0
  -21.4007   -6.5619   23.8217 C   0  0  0  0  0  0
  -21.3678   -5.6771   24.9181 C   0  0  0  0  0  0
  -21.6063   -4.3035   24.7238 C   0  0  0  0  0  0
  -21.8838   -3.8126   23.4365 C   0  0  0  0  0  0
  -21.9200   -4.6941   22.3414 C   0  0  0  0  0  0
  -22.7845  -13.5177   21.1893 C   0  0  0  0  0  0
  -22.1651   -4.2138   21.0987 F   0  0  0  0  0  0
  -21.5643   -3.4514   25.7752 F   0  0  0  0  0  0
  -30.0287  -13.3253   20.4352 N   0  0  0  0  0  0
  -26.2986  -12.9444   20.3250 N   0  0  0  0  0  0
  -25.9337  -11.6587   20.5727 N   0  0  0  0  0  0
  -22.0484  -12.8153   22.0451 N   0  0  0  0  0  0
  -25.4223  -15.1960   20.4097 N   0  0  0  0  0  0
  -31.8961  -14.5846   20.1463 O   0  0  0  0  0  0
  -21.6646   -6.8835   21.4227 O   0  0  0  0  0  0
  -22.3498  -14.5470   20.6739 O   0  0  0  0  0  0
  -24.6135  -31.8685   23.2156 C   0  0  0  0  0  0
  -25.9041  -32.4826   23.8437 C   0  0  1  0  0  0
  -27.1990  -27.4124   20.1042 C   0  0  0  0  0  0
  -25.5895  -33.8624   24.2343 N   0  0  0  0  0  0
  -23.3996  -30.4996   21.5584 C   0  0  2  0  0  0
  -24.8350  -28.9670   20.1173 C   0  0  0  0  0  0
  -22.7420  -29.4663   22.5021 C   0  0  0  0  0  0
  -18.0269  -28.1359   22.8515 C   0  0  0  0  0  0
  -24.1463  -36.7307   23.2630 C   0  0  0  0  0  0
  -25.9334  -30.8308   21.3673 C   0  0  0  0  0  0
  -26.0036  -29.4682   20.7053 C   0  0  0  0  0  0
  -27.1932  -28.7034   20.6866 C   0  0  0  0  0  0
  -26.0152  -26.9400   19.4935 C   0  0  0  0  0  0
  -24.8359  -27.7033   19.5099 C   0  0  0  0  0  0
  -23.6024  -29.8389   20.1705 C   0  0  0  0  0  0
  -25.4078  -36.3108   24.0354 C   0  0  1  0  0  0
  -20.5865  -28.3620   23.1327 C   0  0  2  0  0  0
  -20.6733  -26.9350   22.5419 C   0  0  0  0  0  0
  -19.5702  -26.6355   21.5218 C   0  0  0  0  0  0
  -18.1893  -26.7914   22.1640 C   0  0  0  0  0  0
  -19.1524  -28.8815   23.2913 C   0  0  0  0  0  0
  -18.9461  -30.1441   23.8895 C   0  0  0  0  0  0
  -17.6454  -30.6569   24.0580 C   0  0  0  0  0  0
  -25.9036  -34.9483   23.5148 C   0  0  0  0  0  0
  -16.5342  -29.9080   23.6332 C   0  0  0  0  0  0
  -16.7256  -28.6498   23.0352 C   0  0  0  0  0  0
  -26.4458  -31.6634   25.0789 C   0  0  0  0  0  0
  -25.3739  -31.3791   26.1568 C   0  0  0  0  0  0
  -27.0267  -30.3062   24.6201 C   0  0  0  0  0  0
  -27.5999  -32.4397   25.7548 C   0  0  0  0  0  0
  -27.5610  -37.1756   24.8438 C   0  0  0  0  0  0
  -21.4149  -29.3013   22.3770 N   0  0  0  0  0  0
  -26.4240  -37.3829   23.9497 N   0  0  0  0  0  0
  -24.6685  -31.0813   22.1047 N   0  0  0  0  0  0
  -23.4207  -28.8159   23.3013 O   0  0  0  0  0  0
  -28.3454  -26.6469   20.1445 O   0  0  0  0  0  0
  -26.5619  -34.8944   22.4717 O   0  0  0  0  0  0
  -23.5335  -32.1435   23.7570 O   0  0  0  0  0  0
  -29.3081  -21.8586   19.8709 C   0  0  0  0  0  0
  -27.1791  -21.3722   18.1417 C   0  0  0  0  0  0
  -28.6038  -22.9583   19.3137 C   0  0  0  0  0  0
  -29.0676  -20.5149   19.4572 C   0  0  0  0  0  0
  -27.9627  -20.2905   18.5890 C   0  0  0  0  0  0
  -27.5105  -22.7073   18.4558 C   0  0  0  0  0  0
  -29.7848  -25.0103   18.2910 C   0  0  0  0  0  0
  -30.5747  -24.7010   19.5285 C   0  0  0  0  0  0
  -29.0889  -24.3865   19.4953 C   0  0  0  0  0  0
  -27.5743  -18.9262   18.0478 C   0  0  0  0  0  0
  -25.6571  -23.5436   17.1739 C   0  0  0  0  0  0
  -28.1896  -25.2304   20.4022 C   0  0  0  0  0  0
  -29.5977  -18.1611   20.6105 C   0  0  0  0  0  0
  -30.5585  -16.9357   20.4660 C   0  0  0  0  0  0
  -30.0892  -19.3829   19.7666 C   0  0  2  0  0  0
  -30.0268  -15.6012   20.8175 N   0  0  0  0  0  0
  -31.3684  -19.9088   20.2811 N   0  3  0  0  0  0
  -26.8382  -23.7903   17.9292 O   0  0  0  0  0  0
  -31.4695  -12.3748   19.1600 H   0  0  0  0  0  0
  -30.2854  -11.3082   19.8731 H   0  0  0  0  0  0
  -29.7642  -11.7562   17.4559 H   0  0  0  0  0  0
  -29.7103  -13.4732   17.7690 H   0  0  0  0  0  0
  -27.8439  -11.3163   18.8366 H   0  0  0  0  0  0
  -27.3956  -12.6172   17.7702 H   0  0  0  0  0  0
  -27.6755  -14.2715   19.5290 H   0  0  0  0  0  0
  -28.6679  -12.0613   21.4088 H   0  0  0  0  0  0
  -28.4711  -13.7447   21.8209 H   0  0  0  0  0  0
  -25.2775   -9.5747   22.4693 H   0  0  0  0  0  0
  -24.0042   -7.4678   22.7443 H   0  0  0  0  0  0
  -21.0860   -8.8702   19.8940 H   0  0  0  0  0  0
  -22.3639  -10.9611   19.6117 H   0  0  0  0  0  0
  -21.1957   -7.6112   23.9730 H   0  0  0  0  0  0
  -21.1480   -6.0475   25.9088 H   0  0  0  0  0  0
  -22.0597   -2.7583   23.2877 H   0  0  0  0  0  0
  -22.4067  -11.9824   22.4877 H   0  0  0  0  0  0
  -21.1064  -13.1131   22.2550 H   0  0  0  0  0  0
  -24.6593  -15.8550   20.5300 H   0  0  0  0  0  0
  -26.2665  -15.6359   20.0644 H   0  0  0  0  0  0
  -26.7098  -32.5495   23.1181 H   0  0  0  0  0  0
  -25.0000  -33.9799   25.0461 H   0  0  0  0  0  0
  -22.6880  -31.3173   21.4265 H   0  0  0  0  0  0
  -23.3786  -35.9567   23.3160 H   0  0  0  0  0  0
  -24.3595  -36.9067   22.2074 H   0  0  0  0  0  0
  -23.7114  -37.6433   23.6722 H   0  0  0  0  0  0
  -26.0572  -31.6019   20.6056 H   0  0  0  0  0  0
  -26.8187  -30.8715   21.9907 H   0  0  0  0  0  0
  -28.0938  -29.0893   21.1428 H   0  0  0  0  0  0
  -25.9797  -25.9823   18.9974 H   0  0  0  0  0  0
  -23.9324  -27.3134   19.0604 H   0  0  0  0  0  0
  -23.7159  -30.6189   19.4159 H   0  0  0  0  0  0
  -22.7232  -29.2671   19.8683 H   0  0  0  0  0  0
  -25.1217  -36.1957   25.0839 H   0  0  0  0  0  0
  -20.9950  -28.3133   24.1446 H   0  0  0  0  0  0
  -20.5579  -26.2221   23.3607 H   0  0  0  0  0  0
  -21.6600  -26.7353   22.1220 H   0  0  0  0  0  0
  -19.6837  -25.6268   21.1238 H   0  0  0  0  0  0
  -19.6639  -27.3185   20.6768 H   0  0  0  0  0  0
  -17.4155  -26.6680   21.4049 H   0  0  0  0  0  0
  -18.0289  -26.0043   22.9016 H   0  0  0  0  0  0
  -19.7935  -30.7285   24.2224 H   0  0  0  0  0  0
  -17.5010  -31.6250   24.5173 H   0  0  0  0  0  0
  -15.5349  -30.2984   23.7663 H   0  0  0  0  0  0
  -15.8651  -28.0839   22.7039 H   0  0  0  0  0  0
  -24.5846  -30.7192   25.7970 H   0  0  0  0  0  0
  -24.9006  -32.2966   26.5064 H   0  0  0  0  0  0
  -25.8098  -30.8946   27.0306 H   0  0  0  0  0  0
  -26.2816  -29.6879   24.1175 H   0  0  0  0  0  0
  -27.3917  -29.7272   25.4690 H   0  0  0  0  0  0
  -27.8708  -30.4380   23.9432 H   0  0  0  0  0  0
  -27.2562  -33.3669   26.2152 H   0  0  0  0  0  0
  -28.3780  -32.7031   25.0375 H   0  0  0  0  0  0
  -28.0695  -31.8536   26.5461 H   0  0  0  0  0  0
  -28.2461  -38.0219   24.7750 H   0  0  0  0  0  0
  -28.1270  -36.2780   24.5883 H   0  0  0  0  0  0
  -27.2401  -37.0954   25.8843 H   0  0  0  0  0  0
  -20.9293  -29.8828   21.7086 H   0  0  0  0  0  0
  -26.0121  -38.2862   24.1682 H   0  0  0  0  0  0
  -30.1151  -22.0854   20.5505 H   0  0  0  0  0  0
  -26.3548  -21.1399   17.4860 H   0  0  0  0  0  0
  -29.9686  -24.3833   17.4195 H   0  0  0  0  0  0
  -29.5714  -26.0541   18.0659 H   0  0  0  0  0  0
  -30.8947  -25.5610   20.1120 H   0  0  0  0  0  0
  -31.2775  -23.8713   19.4969 H   0  0  0  0  0  0
  -27.2704  -19.0046   17.0016 H   0  0  0  0  0  0
  -26.7357  -18.5350   18.6261 H   0  0  0  0  0  0
  -28.3800  -18.2001   18.0748 H   0  0  0  0  0  0
  -25.2214  -24.4861   16.8482 H   0  0  0  0  0  0
  -24.9106  -23.0292   17.7802 H   0  0  0  0  0  0
  -25.8613  -22.9565   16.2765 H   0  0  0  0  0  0
  -28.4738  -25.0392   21.4392 H   0  0  0  0  0  0
  -27.1662  -24.8652   20.3334 H   0  0  0  0  0  0
  -29.4962  -18.4699   21.6536 H   0  0  0  0  0  0
  -28.6007  -17.8684   20.2891 H   0  0  0  0  0  0
  -31.4747  -17.1140   21.0365 H   0  0  0  0  0  0
  -30.8779  -16.8681   19.4220 H   0  0  0  0  0  0
  -30.3338  -18.9898   18.7779 H   0  0  0  0  0  0
  -29.0553  -15.5085   21.0708 H   0  0  0  0  0  0
  -31.2779  -20.1951   21.2387 H   0  0  0  0  0  0
  -31.6535  -20.7002   19.7322 H   0  0  0  0  0  0
  -32.0939  -19.2179   20.2218 H   0  0  0  0  0  0
  1 25  1  0  0  0
  1 30  2  0  0  0
  1 86  1  0  0  0
  2  3  1  0  0  0
  2 25  1  0  0  0
  2 89  1  0  0  0
  2 90  1  0  0  0
  3  4  1  0  0  0
  3 91  1  0  0  0
  3 92  1  0  0  0
  4  5  1  0  0  0
  4 93  1  0  0  0
  4 94  1  0  0  0
  5  6  1  0  0  0
  5 26  1  0  0  0
  5 95  1  0  0  0
  6 25  1  0  0  0
  6 96  1  0  0  0
  6 97  1  0  0  0
  7  8  2  0  0  0
  7 26  1  0  0  0
  7 29  1  0  0  0
  8  9  1  0  0  0
  8 22  1  0  0  0
  9 10  1  0  0  0
  9 27  2  0  0  0
 10 11  2  0  0  0
 10 15  1  0  0  0
 11 12  1  0  0  0
 11 98  1  0  0  0
 12 13  2  0  0  0
 12 99  1  0  0  0
 13 14  1  0  0  0
 13 31  1  0  0  0
 14 15  2  0  0  0
 14100  1  0  0  0
 15101  1  0  0  0
 16 17  2  0  0  0
 16 21  1  0  0  0
 16 31  1  0  0  0
 17 18  1  0  0  0
 17102  1  0  0  0
 18 19  2  0  0  0
 18103  1  0  0  0
 19 20  1  0  0  0
 19 24  1  0  0  0
 20 21  2  0  0  0
 20104  1  0  0  0
 21 23  1  0  0  0
 22 28  1  0  0  0
 22 32  2  0  0  0
 26 27  1  0  0  0
 28105  1  0  0  0
 28106  1  0  0  0
 29107  1  0  0  0
 29108  1  0  0  0
 33 34  1  0  0  0
 33 66  1  0  0  0
 33 70  2  0  0  0
 34 36  1  0  0  0
 34 59  1  0  0  0
 34109  1  0  0  0
 35 44  2  0  0  0
 35 45  1  0  0  0
 35 68  1  0  0  0
 36 56  1  0  0  0
 36110  1  0  0  0
 37 39  1  0  0  0
 37 47  1  0  0  0
 37 66  1  0  0  0
 37111  1  0  0  0
 38 43  2  0  0  0
 38 46  1  0  0  0
 38 47  1  0  0  0
 39 64  1  0  0  0
 39 67  2  0  0  0
 40 52  1  0  0  0
 40 53  2  0  0  0
 40 58  1  0  0  0
 41112  1  0  0  0
 41113  1  0  0  0
 41114  1  0  0  0
 41 48  1  0  0  0
 42 43  1  0  0  0
 42 66  1  0  0  0
 42115  1  0  0  0
 42116  1  0  0  0
 43 44  1  0  0  0
 44117  1  0  0  0
 45 46  2  0  0  0
 45118  1  0  0  0
 46119  1  0  0  0
 47120  1  0  0  0
 47121  1  0  0  0
 48 56  1  0  0  0
 48 65  1  0  0  0
 48122  1  0  0  0
 49 50  1  0  0  0
 49 53  1  0  0  0
 49 64  1  0  0  0
 49123  1  0  0  0
 50 51  1  0  0  0
 50124  1  0  0  0
 50125  1  0  0  0
 51 52  1  0  0  0
 51126  1  0  0  0
 51127  1  0  0  0
 52128  1  0  0  0
 52129  1  0  0  0
 53 54  1  0  0  0
 54 55  2  0  0  0
 54130  1  0  0  0
 55 57  1  0  0  0
 55131  1  0  0  0
 56 69  2  0  0  0
 57 58  2  0  0  0
 57132  1  0  0  0
 58133  1  0  0  0
 59 60  1  0  0  0
 59 61  1  0  0  0
 59 62  1  0  0  0
 60134  1  0  0  0
 60135  1  0  0  0
 60136  1  0  0  0
 61137  1  0  0  0
 61138  1  0  0  0
 61139  1  0  0  0
 62140  1  0  0  0
 62141  1  0  0  0
 62142  1  0  0  0
 63 65  1  0  0  0
 63143  1  0  0  0
 63144  1  0  0  0
 63145  1  0  0  0
 64146  1  0  0  0
 65147  1  0  0  0
 68 82  1  0  0  0
 71 73  2  0  0  0
 71 74  1  0  0  0
 71148  1  0  0  0
 72 75  1  0  0  0
 72 76  2  0  0  0
 72149  1  0  0  0
 73 76  1  0  0  0
 73 79  1  0  0  0
 74 75  2  0  0  0
 74 85  1  0  0  0
 75 80  1  0  0  0
 76 88  1  0  0  0
 77 78  1  0  0  0
 77 79  1  0  0  0
 77150  1  0  0  0
 77151  1  0  0  0
 78 79  1  0  0  0
 78152  1  0  0  0
 78153  1  0  0  0
 79 82  1  0  0  0
 80154  1  0  0  0
 80155  1  0  0  0
 80156  1  0  0  0
 81 88  1  0  0  0
 81157  1  0  0  0
 81158  1  0  0  0
 81159  1  0  0  0
 82160  1  0  0  0
 82161  1  0  0  0
 83 84  1  0  0  0
 83 85  1  0  0  0
 83162  1  0  0  0
 83163  1  0  0  0
 84 86  1  0  0  0
 84164  1  0  0  0
 84165  1  0  0  0
 85 87  1  0  0  0
 85166  1  0  0  0
 86167  1  0  0  0
 87168  1  0  0  0
 87169  1  0  0  0
 87170  1  0  0  0
M  CHG  1  87   1
M  ISO  4   1 100  68 101  82 101  86 100
M  END
> <chiral flag>
0

> <version>
0

> <s_m_source_file>
/data/baiqing/PycharmProjects/Reinvent-master-3.2/result/LINK_invent/BTK/process_docking_weight1_custom_sum_contain_oxygen_bond_distance_aromatic_linkinvent_7_9_3/rearranged_h_0160.sdf

> <i_m_source_file_index>
23

> <r_mmod_Potential_Energy-OPLS-2005>
-204.086044311523

> <r_mmod_Stretch_Energy-OPLS-2005>
45.9948997497559

> <r_mmod_Bend_Energy-OPLS-2005>
115.85481262207

> <r_mmod_Torsional_Energy-OPLS-2005>
272.816986083984

> <r_mmod_Improper_Torsional_Energy-OPLS-2005>
8.09481716156006

> <r_mmod_Van_der_Waal_Energy-OPLS-2005>
166.968734741211

> <r_mmod_Electrostatic_Energy-OPLS-2005>
-335.896301269531

> <r_mmod_Solvation_Energy-OPLS-2005>
-500.313415527344

> <b_mmod_Minimization_Converged-OPLS-2005>
0

> <r_mmod_RMS_Derivative-OPLS-2005>
5.74547910690308

$$$$
23
                    3D
 Structure written by MMmdl.
169177  0  0  1  0            999 V2000
  -30.5849  -14.6208   20.4862 C   0  0  0  0  0  0
  -30.4351  -12.3821   19.4398 C   0  0  0  0  0  0
  -29.4963  -12.4995   18.2184 C   0  0  0  0  0  0
  -28.0208  -12.3333   18.6339 C   0  0  0  0  0  0
  -27.6460  -13.2012   19.8644 C   0  0  2  0  0  0
  -28.6901  -13.0425   20.9937 C   0  0  0  0  0  0
  -25.2520  -13.8068   20.5693 C   0  0  0  0  0  0
  -24.1781  -13.0388   20.9173 C   0  0  0  0  0  0
  -24.6346  -11.6853   20.8786 C   0  0  0  0  0  0
  -23.9020  -10.4268   21.0447 C   0  0  0  0  0  0
  -24.3612   -9.4184   21.9205 C   0  0  0  0  0  0
  -23.6297   -8.2222   22.0747 C   0  0  0  0  0  0
  -22.4274   -8.0276   21.3527 C   0  0  0  0  0  0
  -21.9902   -9.0250   20.4631 C   0  0  0  0  0  0
  -22.7217  -10.2129   20.3061 C   0  0  0  0  0  0
  -21.6847   -6.0746   22.5277 C   0  0  0  0  0  0
  -21.4018   -6.5649   23.8211 C   0  0  0  0  0  0
  -21.3647   -5.6804   24.9174 C   0  0  0  0  0  0
  -21.6033   -4.3063   24.7222 C   0  0  0  0  0  0
  -21.8826   -3.8152   23.4353 C   0  0  0  0  0  0
  -21.9204   -4.6974   22.3408 C   0  0  0  0  0  0
  -22.7810  -13.5183   21.1874 C   0  0  0  0  0  0
  -22.1667   -4.2166   21.0990 F   0  0  0  0  0  0
  -21.5629   -3.4540   25.7734 F   0  0  0  0  0  0
  -30.0028  -13.3873   20.4254 N   0  0  0  0  0  0
  -26.2928  -12.9246   20.3319 N   0  0  0  0  0  0
  -25.9264  -11.6416   20.5794 N   0  0  0  0  0  0
  -22.0512  -12.8154   22.0449 N   0  0  0  0  0  0
  -25.4297  -15.1755   20.4141 N   0  0  0  0  0  0
  -31.7580  -14.8112   20.1506 O   0  0  0  0  0  0
  -21.6627   -6.8887   21.4227 O   0  0  0  0  0  0
  -22.3491  -14.5506   20.6739 O   0  0  0  0  0  0
  -24.6182  -31.8633   23.2076 C   0  0  0  0  0  0
  -25.9059  -32.4768   23.8373 C   0  0  1  0  0  0
  -27.2317  -27.3683   20.1026 C   0  0  0  0  0  0
  -25.5910  -33.8576   24.2289 N   0  0  0  0  0  0
  -23.4079  -30.4899   21.5470 C   0  0  2  0  0  0
  -24.8551  -28.9480   20.1108 C   0  0  0  0  0  0
  -22.7390  -29.4684   22.4964 C   0  0  0  0  0  0
  -18.0288  -28.1385   22.8505 C   0  0  0  0  0  0
  -24.1492  -36.7316   23.2641 C   0  0  0  0  0  0
  -25.9425  -30.8070   21.3715 C   0  0  0  0  0  0
  -26.0169  -29.4372   20.7177 C   0  0  0  0  0  0
  -27.1994  -28.6524   20.7160 C   0  0  0  0  0  0
  -26.0492  -26.9250   19.4623 C   0  0  0  0  0  0
  -24.8690  -27.6927   19.4781 C   0  0  0  0  0  0
  -23.6197  -29.8231   20.1608 C   0  0  0  0  0  0
  -25.4108  -36.3091   24.0332 C   0  0  1  0  0  0
  -20.5870  -28.3706   23.1306 C   0  0  2  0  0  0
  -20.6773  -26.9412   22.5447 C   0  0  0  0  0  0
  -19.5736  -26.6351   21.5276 C   0  0  0  0  0  0
  -18.1931  -26.7910   22.1723 C   0  0  0  0  0  0
  -19.1531  -28.8859   23.2897 C   0  0  0  0  0  0
  -18.9431  -30.1480   23.8883 C   0  0  0  0  0  0
  -17.6428  -30.6603   24.0549 C   0  0  0  0  0  0
  -25.9038  -34.9452   23.5118 C   0  0  0  0  0  0
  -16.5341  -29.9076   23.6321 C   0  0  0  0  0  0
  -16.7272  -28.6494   23.0334 C   0  0  0  0  0  0
  -26.4484  -31.6572   25.0728 C   0  0  0  0  0  0
  -25.3749  -31.3676   26.1474 C   0  0  0  0  0  0
  -27.0318  -30.3008   24.6137 C   0  0  0  0  0  0
  -27.6063  -32.4294   25.7487 C   0  0  0  0  0  0
  -27.5579  -37.1803   24.8467 C   0  0  0  0  0  0
  -21.4109  -29.3070   22.3661 N   0  0  0  0  0  0
  -26.4292  -37.3770   23.9417 N   0  0  0  0  0  0
  -24.6748  -31.0685   22.1007 N   0  0  0  0  0  0
  -23.4118  -28.8250   23.3060 O   0  0  0  0  0  0
  -28.4027  -26.6067   20.1434 O   0  0  0  0  0  0
  -26.5607  -34.8911   22.4678 O   0  0  0  0  0  0
  -23.5366  -32.1438   23.7425 O   0  0  0  0  0  0
  -29.2747  -20.5527   20.2839 C   0  0  0  0  0  0
  -28.5838  -19.3511   19.9720 C   0  0  0  0  0  0
  -27.1739  -19.4660   19.7821 C   0  0  0  0  0  0
  -26.4645  -20.6402   20.2095 C   0  0  0  0  0  0
  -27.2016  -21.7730   20.6870 C   0  0  0  0  0  0
  -28.6229  -21.7940   20.5454 C   0  0  0  0  0  0
  -26.4658  -18.3317   19.0464 C   0  0  0  0  0  0
  -26.4338  -22.9259   21.3398 C   0  0  0  0  0  0
  -24.0908  -19.6615   20.8001 C   0  0  0  0  0  0
  -24.4556  -21.0699   18.6512 C   0  0  0  0  0  0
  -29.3672  -18.0145   19.6715 C   0  0  0  0  0  0
  -29.8842  -17.1284   20.8751 C   0  0  0  0  0  0
  -28.4058  -25.1776   19.8186 C   0  0  0  0  0  0
  -29.1720  -24.2987   20.8703 C   0  0  0  0  0  0
  -24.9164  -20.7491   20.0832 C   0  0  0  0  0  0
  -29.7192  -15.6432   20.7513 N   0  0  0  0  0  0
  -29.4851  -22.8986   20.6041 O   0  0  0  0  0  0
  -31.4722  -12.5291   19.1336 H   0  0  0  0  0  0
  -30.3897  -11.3847   19.8766 H   0  0  0  0  0  0
  -29.7588  -11.7579   17.4611 H   0  0  0  0  0  0
  -29.6292  -13.4752   17.7497 H   0  0  0  0  0  0
  -27.8572  -11.2792   18.8610 H   0  0  0  0  0  0
  -27.3638  -12.5631   17.7952 H   0  0  0  0  0  0
  -27.6672  -14.2362   19.5236 H   0  0  0  0  0  0
  -28.6962  -12.0165   21.3707 H   0  0  0  0  0  0
  -28.4318  -13.6724   21.8489 H   0  0  0  0  0  0
  -25.2787   -9.5652   22.4732 H   0  0  0  0  0  0
  -24.0026   -7.4595   22.7437 H   0  0  0  0  0  0
  -21.0851   -8.8767   19.8919 H   0  0  0  0  0  0
  -22.3716  -10.9676   19.6151 H   0  0  0  0  0  0
  -21.2008   -7.6162   23.9713 H   0  0  0  0  0  0
  -21.1447   -6.0540   25.9077 H   0  0  0  0  0  0
  -22.0617   -2.7620   23.2848 H   0  0  0  0  0  0
  -22.4200  -11.9784   22.4734 H   0  0  0  0  0  0
  -21.1140  -13.1132   22.2750 H   0  0  0  0  0  0
  -24.6742  -15.8415   20.5231 H   0  0  0  0  0  0
  -26.2827  -15.5977   20.0779 H   0  0  0  0  0  0
  -26.7124  -32.5471   23.1120 H   0  0  0  0  0  0
  -25.0055  -33.9722   25.0432 H   0  0  0  0  0  0
  -22.7024  -31.3122   21.4047 H   0  0  0  0  0  0
  -23.3733  -35.9672   23.3308 H   0  0  0  0  0  0
  -24.3597  -36.8931   22.2060 H   0  0  0  0  0  0
  -23.7268  -37.6526   23.6663 H   0  0  0  0  0  0
  -26.0598  -31.5690   20.6000 H   0  0  0  0  0  0
  -26.8277  -30.8661   21.9937 H   0  0  0  0  0  0
  -28.0876  -29.0256   21.2061 H   0  0  0  0  0  0
  -26.0048  -25.9911   18.9249 H   0  0  0  0  0  0
  -23.9806  -27.3169   18.9864 H   0  0  0  0  0  0
  -23.7290  -30.5986   19.4020 H   0  0  0  0  0  0
  -22.7439  -29.2438   19.8657 H   0  0  0  0  0  0
  -25.1274  -36.1952   25.0824 H   0  0  0  0  0  0
  -20.9973  -28.3295   24.1432 H   0  0  0  0  0  0
  -20.5735  -26.2321   23.3661 H   0  0  0  0  0  0
  -21.6631  -26.7466   22.1223 H   0  0  0  0  0  0
  -19.6872  -25.6249   21.1350 H   0  0  0  0  0  0
  -19.6647  -27.3129   20.6782 H   0  0  0  0  0  0
  -17.4160  -26.6614   21.4189 H   0  0  0  0  0  0
  -18.0398  -26.0095   22.9175 H   0  0  0  0  0  0
  -19.7894  -30.7333   24.2200 H   0  0  0  0  0  0
  -17.4956  -31.6301   24.5113 H   0  0  0  0  0  0
  -15.5330  -30.2959   23.7621 H   0  0  0  0  0  0
  -15.8694  -28.0790   22.7048 H   0  0  0  0  0  0
  -24.5938  -30.6995   25.7826 H   0  0  0  0  0  0
  -24.8913  -32.2813   26.4936 H   0  0  0  0  0  0
  -25.8115  -30.8850   27.0229 H   0  0  0  0  0  0
  -26.2870  -29.6756   24.1187 H   0  0  0  0  0  0
  -27.4072  -29.7260   25.4619 H   0  0  0  0  0  0
  -27.8724  -30.4317   23.9315 H   0  0  0  0  0  0
  -27.2685  -33.3590   26.2080 H   0  0  0  0  0  0
  -28.3856  -32.6835   25.0296 H   0  0  0  0  0  0
  -28.0738  -31.8394   26.5377 H   0  0  0  0  0  0
  -28.2577  -38.0107   24.7476 H   0  0  0  0  0  0
  -28.1076  -36.2629   24.6312 H   0  0  0  0  0  0
  -27.2299  -37.1478   25.8866 H   0  0  0  0  0  0
  -20.9272  -29.8730   21.6831 H   0  0  0  0  0  0
  -26.0177  -38.2859   24.1377 H   0  0  0  0  0  0
  -30.3550  -20.5362   20.2658 H   0  0  0  0  0  0
  -26.4491  -17.4376   19.6593 H   0  0  0  0  0  0
  -26.9876  -18.1173   18.1132 H   0  0  0  0  0  0
  -25.4505  -18.5394   18.7313 H   0  0  0  0  0  0
  -25.8858  -23.5012   20.5924 H   0  0  0  0  0  0
  -27.0162  -23.5877   21.9620 H   0  0  0  0  0  0
  -25.7171  -22.5382   22.0638 H   0  0  0  0  0  0
  -24.3551  -19.6129   21.8552 H   0  0  0  0  0  0
  -24.1855  -18.6585   20.3932 H   0  0  0  0  0  0
  -23.0283  -19.9152   20.7564 H   0  0  0  0  0  0
  -24.8065  -22.0600   18.3554 H   0  0  0  0  0  0
  -23.3679  -21.0892   18.5897 H   0  0  0  0  0  0
  -24.8166  -20.3663   17.9043 H   0  0  0  0  0  0
  -30.2354  -18.2939   19.0750 H   0  0  0  0  0  0
  -28.7963  -17.3733   19.0072 H   0  0  0  0  0  0
  -30.9269  -17.3616   21.0902 H   0  0  0  0  0  0
  -29.3299  -17.4162   21.7712 H   0  0  0  0  0  0
  -27.4212  -24.7574   19.6746 H   0  0  0  0  0  0
  -28.8991  -25.0730   18.8529 H   0  0  0  0  0  0
  -30.1647  -24.7411   20.9251 H   0  0  0  0  0  0
  -28.8142  -24.4517   21.8842 H   0  0  0  0  0  0
  -24.5509  -21.6211   20.6093 H   0  0  0  0  0  0
  -28.7878  -15.3259   20.9731 H   0  0  0  0  0  0
  1 25  1  0  0  0
  1 30  2  0  0  0
  1 86  1  0  0  0
  2  3  1  0  0  0
  2 25  1  0  0  0
  2 88  1  0  0  0
  2 89  1  0  0  0
  3  4  1  0  0  0
  3 90  1  0  0  0
  3 91  1  0  0  0
  4  5  1  0  0  0
  4 92  1  0  0  0
  4 93  1  0  0  0
  5  6  1  0  0  0
  5 26  1  0  0  0
  5 94  1  0  0  0
  6 25  1  0  0  0
  6 95  1  0  0  0
  6 96  1  0  0  0
  7  8  2  0  0  0
  7 26  1  0  0  0
  7 29  1  0  0  0
  8  9  1  0  0  0
  8 22  1  0  0  0
  9 10  1  0  0  0
  9 27  2  0  0  0
 10 11  2  0  0  0
 10 15  1  0  0  0
 11 12  1  0  0  0
 11 97  1  0  0  0
 12 13  2  0  0  0
 12 98  1  0  0  0
 13 14  1  0  0  0
 13 31  1  0  0  0
 14 15  2  0  0  0
 14 99  1  0  0  0
 15100  1  0  0  0
 16 17  2  0  0  0
 16 21  1  0  0  0
 16 31  1  0  0  0
 17 18  1  0  0  0
 17101  1  0  0  0
 18 19  2  0  0  0
 18102  1  0  0  0
 19 20  1  0  0  0
 19 24  1  0  0  0
 20 21  2  0  0  0
 20103  1  0  0  0
 21 23  1  0  0  0
 22 28  1  0  0  0
 22 32  2  0  0  0
 26 27  1  0  0  0
 28104  1  0  0  0
 28105  1  0  0  0
 29106  1  0  0  0
 29107  1  0  0  0
 33 34  1  0  0  0
 33 66  1  0  0  0
 33 70  2  0  0  0
 34 36  1  0  0  0
 34 59  1  0  0  0
 34108  1  0  0  0
 35 44  2  0  0  0
 35 45  1  0  0  0
 35 68  1  0  0  0
 36 56  1  0  0  0
 36109  1  0  0  0
 37 39  1  0  0  0
 37 47  1  0  0  0
 37 66  1  0  0  0
 37110  1  0  0  0
 38 43  2  0  0  0
 38 46  1  0  0  0
 38 47  1  0  0  0
 39 64  1  0  0  0
 39 67  2  0  0  0
 40 52  1  0  0  0
 40 53  2  0  0  0
 40 58  1  0  0  0
 41111  1  0  0  0
 41112  1  0  0  0
 41113  1  0  0  0
 41 48  1  0  0  0
 42 43  1  0  0  0
 42 66  1  0  0  0
 42114  1  0  0  0
 42115  1  0  0  0
 43 44  1  0  0  0
 44116  1  0  0  0
 45 46  2  0  0  0
 45117  1  0  0  0
 46118  1  0  0  0
 47119  1  0  0  0
 47120  1  0  0  0
 48 56  1  0  0  0
 48 65  1  0  0  0
 48121  1  0  0  0
 49 50  1  0  0  0
 49 53  1  0  0  0
 49 64  1  0  0  0
 49122  1  0  0  0
 50 51  1  0  0  0
 50123  1  0  0  0
 50124  1  0  0  0
 51 52  1  0  0  0
 51125  1  0  0  0
 51126  1  0  0  0
 52127  1  0  0  0
 52128  1  0  0  0
 53 54  1  0  0  0
 54 55  2  0  0  0
 54129  1  0  0  0
 55 57  1  0  0  0
 55130  1  0  0  0
 56 69  2  0  0  0
 57 58  2  0  0  0
 57131  1  0  0  0
 58132  1  0  0  0
 59 60  1  0  0  0
 59 61  1  0  0  0
 59 62  1  0  0  0
 60133  1  0  0  0
 60134  1  0  0  0
 60135  1  0  0  0
 61136  1  0  0  0
 61137  1  0  0  0
 61138  1  0  0  0
 62139  1  0  0  0
 62140  1  0  0  0
 62141  1  0  0  0
 63 65  1  0  0  0
 63142  1  0  0  0
 63143  1  0  0  0
 63144  1  0  0  0
 64145  1  0  0  0
 65146  1  0  0  0
 68 83  1  0  0  0
 71 72  2  0  0  0
 71 76  1  0  0  0
 71147  1  0  0  0
 72 73  1  0  0  0
 72 81  1  0  0  0
 73 74  2  0  0  0
 73 77  1  0  0  0
 74 75  1  0  0  0
 74 85  1  0  0  0
 75 76  2  0  0  0
 75 78  1  0  0  0
 76 87  1  0  0  0
 77148  1  0  0  0
 77149  1  0  0  0
 77150  1  0  0  0
 78151  1  0  0  0
 78152  1  0  0  0
 78153  1  0  0  0
 79154  1  0  0  0
 79155  1  0  0  0
 79156  1  0  0  0
 79 85  1  0  0  0
 80 85  1  0  0  0
 80157  1  0  0  0
 80158  1  0  0  0
 80159  1  0  0  0
 81 82  1  0  0  0
 81160  1  0  0  0
 81161  1  0  0  0
 82 86  1  0  0  0
 82162  1  0  0  0
 82163  1  0  0  0
 83 84  1  0  0  0
 83164  1  0  0  0
 83165  1  0  0  0
 84 87  1  0  0  0
 84166  1  0  0  0
 84167  1  0  0  0
 85168  1  0  0  0
 86169  1  0  0  0
M  ISO  4   1 100  68 101  83 101  86 100
M  END
> <chiral flag>
0

> <version>
0

> <s_m_source_file>
/data/baiqing/PycharmProjects/Reinvent-master-3.2/result/LINK_invent/BTK/process_docking_weight1_custom_sum_contain_oxygen_bond_distance_aromatic_linkinvent_7_9_3/rearranged_h_0160.sdf

> <i_m_source_file_index>
24

> <r_mmod_Potential_Energy-OPLS-2005>
96.1600952148438

> <r_mmod_Stretch_Energy-OPLS-2005>
74.9530792236328

> <r_mmod_Bend_Energy-OPLS-2005>
197.235549926758

> <r_mmod_Torsional_Energy-OPLS-2005>
236.647384643555

> <r_mmod_Improper_Torsional_Energy-OPLS-2005>
5.44569635391235

> <r_mmod_Van_der_Waal_Energy-OPLS-2005>
172.818252563477

> <r_mmod_Electrostatic_Energy-OPLS-2005>
-420.075927734375

> <r_mmod_Solvation_Energy-OPLS-2005>
-208.59782409668

> <b_mmod_Minimization_Converged-OPLS-2005>
0

> <r_mmod_RMS_Derivative-OPLS-2005>
4.44218587875366

$$$$
24
                    3D
 Structure written by MMmdl.
180190  0  0  1  0            999 V2000
  -30.7029  -14.4325   20.5865 C   0  0  0  0  0  0
  -30.4196  -12.2834   19.4152 C   0  0  0  0  0  0
  -29.4923  -12.5053   18.2032 C   0  0  0  0  0  0
  -28.0134  -12.3644   18.6157 C   0  0  0  0  0  0
  -27.6626  -13.1969   19.8784 C   0  0  2  0  0  0
  -28.7029  -12.9592   20.9971 C   0  0  0  0  0  0
  -25.2608  -13.8141   20.5677 C   0  0  0  0  0  0
  -24.1846  -13.0435   20.9159 C   0  0  0  0  0  0
  -24.6378  -11.6893   20.8725 C   0  0  0  0  0  0
  -23.9043  -10.4295   21.0409 C   0  0  0  0  0  0
  -24.3596   -9.4216   21.9198 C   0  0  0  0  0  0
  -23.6274   -8.2250   22.0767 C   0  0  0  0  0  0
  -22.4270   -8.0278   21.3546 C   0  0  0  0  0  0
  -21.9903   -9.0251   20.4651 C   0  0  0  0  0  0
  -22.7219  -10.2133   20.3059 C   0  0  0  0  0  0
  -21.6851   -6.0728   22.5274 C   0  0  0  0  0  0
  -21.4008   -6.5633   23.8206 C   0  0  0  0  0  0
  -21.3655   -5.6788   24.9169 C   0  0  0  0  0  0
  -21.6047   -4.3055   24.7225 C   0  0  0  0  0  0
  -21.8819   -3.8143   23.4348 C   0  0  0  0  0  0
  -21.9194   -4.6957   22.3400 C   0  0  0  0  0  0
  -22.7881  -13.5254   21.1822 C   0  0  0  0  0  0
  -22.1666   -4.2143   21.0978 F   0  0  0  0  0  0
  -21.5631   -3.4539   25.7741 F   0  0  0  0  0  0
  -30.0353  -13.2560   20.4466 N   0  0  0  0  0  0
  -26.3027  -12.9283   20.3380 N   0  0  0  0  0  0
  -25.9304  -11.6459   20.5770 N   0  0  0  0  0  0
  -22.0506  -12.8247   22.0373 N   0  0  0  0  0  0
  -25.4377  -15.1854   20.4101 N   0  0  0  0  0  0
  -31.8296  -14.6297   20.1206 O   0  0  0  0  0  0
  -21.6633   -6.8873   21.4241 O   0  0  0  0  0  0
  -22.3578  -14.5576   20.6692 O   0  0  0  0  0  0
  -24.6088  -31.8689   23.2109 C   0  0  0  0  0  0
  -25.8986  -32.4835   23.8406 C   0  0  1  0  0  0
  -27.2410  -27.4612   20.1099 C   0  0  0  0  0  0
  -25.5857  -33.8633   24.2330 N   0  0  0  0  0  0
  -23.3990  -30.4879   21.5498 C   0  0  2  0  0  0
  -24.8515  -28.9597   20.1127 C   0  0  0  0  0  0
  -22.7393  -29.4636   22.4997 C   0  0  0  0  0  0
  -18.0261  -28.1358   22.8511 C   0  0  0  0  0  0
  -24.1477  -36.7325   23.2645 C   0  0  0  0  0  0
  -25.9214  -30.8458   21.3607 C   0  0  0  0  0  0
  -26.0052  -29.4799   20.7138 C   0  0  0  0  0  0
  -27.2034  -28.7355   20.7159 C   0  0  0  0  0  0
  -26.0806  -26.9497   19.4969 C   0  0  0  0  0  0
  -24.8824  -27.6921   19.5012 C   0  0  0  0  0  0
  -23.6082  -29.8176   20.1647 C   0  0  0  0  0  0
  -25.4099  -36.3120   24.0339 C   0  0  1  0  0  0
  -20.5848  -28.3639   23.1327 C   0  0  2  0  0  0
  -20.6740  -26.9382   22.5416 C   0  0  0  0  0  0
  -19.5715  -26.6370   21.5217 C   0  0  0  0  0  0
  -18.1897  -26.7905   22.1638 C   0  0  0  0  0  0
  -19.1515  -28.8821   23.2906 C   0  0  0  0  0  0
  -18.9453  -30.1429   23.8915 C   0  0  0  0  0  0
  -17.6464  -30.6579   24.0567 C   0  0  0  0  0  0
  -25.9027  -34.9486   23.5138 C   0  0  0  0  0  0
  -16.5351  -29.9086   23.6335 C   0  0  0  0  0  0
  -16.7256  -28.6495   23.0370 C   0  0  0  0  0  0
  -26.4428  -31.6610   25.0726 C   0  0  0  0  0  0
  -25.3694  -31.3683   26.1466 C   0  0  0  0  0  0
  -27.0275  -30.3067   24.6073 C   0  0  0  0  0  0
  -27.5994  -32.4336   25.7506 C   0  0  0  0  0  0
  -27.5573  -37.1810   24.8468 C   0  0  0  0  0  0
  -21.4124  -29.3014   22.3741 N   0  0  0  0  0  0
  -26.4290  -37.3796   23.9411 N   0  0  0  0  0  0
  -24.6607  -31.0814   22.0996 N   0  0  0  0  0  0
  -23.4164  -28.8182   23.3035 O   0  0  0  0  0  0
  -28.3839  -26.7016   20.1229 O   0  0  0  0  0  0
  -26.5619  -34.8930   22.4713 O   0  0  0  0  0  0
  -23.5286  -32.1446   23.7509 O   0  0  0  0  0  0
  -30.7123  -20.4848   21.7255 C   0  0  0  0  0  0
  -33.4157  -21.1201   21.3239 C   0  0  0  0  0  0
  -31.6344  -19.4439   21.4539 C   0  0  0  0  0  0
  -31.1340  -21.8365   21.8072 C   0  0  0  0  0  0
  -32.9976  -19.7777   21.2410 C   0  0  0  0  0  0
  -32.4974  -22.1567   21.6054 C   0  0  0  0  0  0
  -30.2484  -17.4973   22.5010 C   0  0  0  0  0  0
  -30.5108  -17.6751   19.9881 C   0  0  0  0  0  0
  -28.8617  -22.6606   22.8496 C   0  0  0  0  0  0
  -29.7135  -23.8119   20.9154 C   0  0  0  0  0  0
  -30.0471  -15.9579   22.4093 C   0  0  0  0  0  0
  -29.5230  -16.4896   20.0528 C   0  0  0  0  0  0
  -31.1567  -17.9866   21.3542 C   0  0  0  0  0  0
  -30.1684  -22.9851   22.1278 C   0  0  2  0  0  0
  -28.1209  -24.0036   22.7787 C   0  0  1  0  0  0
  -28.4633  -24.5919   21.3852 C   0  0  1  0  0  0
  -34.0443  -18.7247   20.9079 C   0  0  0  0  0  0
  -26.6151  -23.8888   23.0555 C   0  0  0  0  0  0
  -34.2187  -23.8454   21.4786 C   0  0  0  0  0  0
  -28.6681  -26.1272   21.4033 C   0  0  0  0  0  0
  -29.9434  -15.4653   21.0204 N   0  0  0  0  0  0
  -32.8615  -23.4852   21.6982 O   0  0  0  0  0  0
  -31.4660  -12.3755   19.1180 H   0  0  0  0  0  0
  -30.3082  -11.2675   19.7998 H   0  0  0  0  0  0
  -29.7280  -11.7941   17.4105 H   0  0  0  0  0  0
  -29.6629  -13.4979   17.7855 H   0  0  0  0  0  0
  -27.8207  -11.3075   18.8041 H   0  0  0  0  0  0
  -27.3639  -12.6464   17.7867 H   0  0  0  0  0  0
  -27.7111  -14.2450   19.5876 H   0  0  0  0  0  0
  -28.6712  -11.9235   21.3367 H   0  0  0  0  0  0
  -28.4708  -13.5620   21.8761 H   0  0  0  0  0  0
  -25.2732   -9.5698   22.4773 H   0  0  0  0  0  0
  -23.9978   -7.4658   22.7506 H   0  0  0  0  0  0
  -21.0833   -8.8769   19.8963 H   0  0  0  0  0  0
  -22.3679  -10.9672   19.6166 H   0  0  0  0  0  0
  -21.1989   -7.6135   23.9707 H   0  0  0  0  0  0
  -21.1479   -6.0516   25.9071 H   0  0  0  0  0  0
  -22.0600   -2.7604   23.2850 H   0  0  0  0  0  0
  -22.4094  -11.9863   22.4703 H   0  0  0  0  0  0
  -21.1150  -13.1320   22.2621 H   0  0  0  0  0  0
  -24.6788  -15.8481   20.5251 H   0  0  0  0  0  0
  -26.3045  -15.6223   20.1239 H   0  0  0  0  0  0
  -26.7077  -32.5577   23.1198 H   0  0  0  0  0  0
  -24.9933  -33.9811   25.0420 H   0  0  0  0  0  0
  -22.6855  -31.3025   21.4067 H   0  0  0  0  0  0
  -23.3738  -35.9657   23.3310 H   0  0  0  0  0  0
  -24.3568  -36.8950   22.2061 H   0  0  0  0  0  0
  -23.7228  -37.6524   23.6668 H   0  0  0  0  0  0
  -26.0232  -31.6113   20.5897 H   0  0  0  0  0  0
  -26.8113  -30.9071   21.9749 H   0  0  0  0  0  0
  -28.0932  -29.1300   21.1872 H   0  0  0  0  0  0
  -26.1044  -25.9731   19.0334 H   0  0  0  0  0  0
  -23.9961  -27.2842   19.0350 H   0  0  0  0  0  0
  -23.7055  -30.5908   19.4009 H   0  0  0  0  0  0
  -22.7371  -29.2261   19.8781 H   0  0  0  0  0  0
  -25.1262  -36.2000   25.0832 H   0  0  0  0  0  0
  -20.9936  -28.3212   24.1447 H   0  0  0  0  0  0
  -20.5646  -26.2257   23.3596 H   0  0  0  0  0  0
  -21.6605  -26.7418   22.1204 H   0  0  0  0  0  0
  -19.6871  -25.6283   21.1240 H   0  0  0  0  0  0
  -19.6651  -27.3187   20.6750 H   0  0  0  0  0  0
  -17.4155  -26.6680   21.4046 H   0  0  0  0  0  0
  -18.0284  -26.0029   22.9019 H   0  0  0  0  0  0
  -19.7938  -30.7222   24.2305 H   0  0  0  0  0  0
  -17.5031  -31.6273   24.5141 H   0  0  0  0  0  0
  -15.5355  -30.3000   23.7637 H   0  0  0  0  0  0
  -15.8651  -28.0819   22.7091 H   0  0  0  0  0  0
  -24.5871  -30.7041   25.7769 H   0  0  0  0  0  0
  -24.8874  -32.2828   26.4938 H   0  0  0  0  0  0
  -25.8030  -30.8820   27.0216 H   0  0  0  0  0  0
  -26.2833  -29.6838   24.1096 H   0  0  0  0  0  0
  -27.4039  -29.7273   25.4516 H   0  0  0  0  0  0
  -27.8652  -30.4403   23.9222 H   0  0  0  0  0  0
  -27.2602  -33.3627   26.2097 H   0  0  0  0  0  0
  -28.3797  -32.6920   25.0337 H   0  0  0  0  0  0
  -28.0664  -31.8460   26.5421 H   0  0  0  0  0  0
  -28.2567  -38.0127   24.7539 H   0  0  0  0  0  0
  -28.1091  -36.2657   24.6263 H   0  0  0  0  0  0
  -27.2297  -37.1430   25.8872 H   0  0  0  0  0  0
  -20.9270  -29.8772   21.7008 H   0  0  0  0  0  0
  -26.0186  -38.2873   24.1419 H   0  0  0  0  0  0
  -29.6715  -20.2340   21.8653 H   0  0  0  0  0  0
  -34.4614  -21.3391   21.1674 H   0  0  0  0  0  0
  -30.6845  -17.7475   23.4698 H   0  0  0  0  0  0
  -29.2829  -18.0028   22.4609 H   0  0  0  0  0  0
  -29.9667  -18.5465   19.6186 H   0  0  0  0  0  0
  -31.2962  -17.4786   19.2564 H   0  0  0  0  0  0
  -29.0257  -22.3196   23.8727 H   0  0  0  0  0  0
  -28.2919  -21.8965   22.3212 H   0  0  0  0  0  0
  -29.4344  -23.1485   20.0964 H   0  0  0  0  0  0
  -30.5090  -24.4595   20.5432 H   0  0  0  0  0  0
  -29.1529  -15.6637   22.9595 H   0  0  0  0  0  0
  -30.8831  -15.4639   22.9107 H   0  0  0  0  0  0
  -29.3823  -16.0621   19.0579 H   0  0  0  0  0  0
  -28.5393  -16.8507   20.3581 H   0  0  0  0  0  0
  -32.0292  -17.3399   21.4342 H   0  0  0  0  0  0
  -30.7051  -23.6564   22.8020 H   0  0  0  0  0  0
  -28.5558  -24.6495   23.5445 H   0  0  0  0  0  0
  -27.6429  -24.3624   20.7028 H   0  0  0  0  0  0
  -35.0030  -19.1781   20.6566 H   0  0  0  0  0  0
  -33.7357  -18.1261   20.0501 H   0  0  0  0  0  0
  -34.2066  -18.0597   21.7569 H   0  0  0  0  0  0
  -26.1179  -23.2523   22.3228 H   0  0  0  0  0  0
  -26.1370  -24.8691   23.0252 H   0  0  0  0  0  0
  -26.4332  -23.4623   24.0422 H   0  0  0  0  0  0
  -34.3201  -24.9245   21.5956 H   0  0  0  0  0  0
  -34.5391  -23.5917   20.4679 H   0  0  0  0  0  0
  -34.8864  -23.3739   22.2002 H   0  0  0  0  0  0
  -29.6924  -26.3742   21.6825 H   0  0  0  0  0  0
  -28.0420  -26.5669   22.1836 H   0  0  0  0  0  0
  1 25  1  0  0  0
  1 30  2  0  0  0
  1 91  1  0  0  0
  2  3  1  0  0  0
  2 25  1  0  0  0
  2 93  1  0  0  0
  2 94  1  0  0  0
  3  4  1  0  0  0
  3 95  1  0  0  0
  3 96  1  0  0  0
  4  5  1  0  0  0
  4 97  1  0  0  0
  4 98  1  0  0  0
  5  6  1  0  0  0
  5 26  1  0  0  0
  5 99  1  0  0  0
  6 25  1  0  0  0
  6100  1  0  0  0
  6101  1  0  0  0
  7  8  2  0  0  0
  7 26  1  0  0  0
  7 29  1  0  0  0
  8  9  1  0  0  0
  8 22  1  0  0  0
  9 10  1  0  0  0
  9 27  2  0  0  0
 10 11  2  0  0  0
 10 15  1  0  0  0
 11 12  1  0  0  0
 11102  1  0  0  0
 12 13  2  0  0  0
 12103  1  0  0  0
 13 14  1  0  0  0
 13 31  1  0  0  0
 14 15  2  0  0  0
 14104  1  0  0  0
 15105  1  0  0  0
 16 17  2  0  0  0
 16 21  1  0  0  0
 16 31  1  0  0  0
 17 18  1  0  0  0
 17106  1  0  0  0
 18 19  2  0  0  0
 18107  1  0  0  0
 19 20  1  0  0  0
 19 24  1  0  0  0
 20 21  2  0  0  0
 20108  1  0  0  0
 21 23  1  0  0  0
 22 28  1  0  0  0
 22 32  2  0  0  0
 26 27  1  0  0  0
 28109  1  0  0  0
 28110  1  0  0  0
 29111  1  0  0  0
 29112  1  0  0  0
 33 34  1  0  0  0
 33 66  1  0  0  0
 33 70  2  0  0  0
 34 36  1  0  0  0
 34 59  1  0  0  0
 34113  1  0  0  0
 35 44  2  0  0  0
 35 45  1  0  0  0
 35 68  1  0  0  0
 36 56  1  0  0  0
 36114  1  0  0  0
 37 39  1  0  0  0
 37 47  1  0  0  0
 37 66  1  0  0  0
 37115  1  0  0  0
 38 43  2  0  0  0
 38 46  1  0  0  0
 38 47  1  0  0  0
 39 64  1  0  0  0
 39 67  2  0  0  0
 40 52  1  0  0  0
 40 53  2  0  0  0
 40 58  1  0  0  0
 41116  1  0  0  0
 41117  1  0  0  0
 41118  1  0  0  0
 41 48  1  0  0  0
 42 43  1  0  0  0
 42 66  1  0  0  0
 42119  1  0  0  0
 42120  1  0  0  0
 43 44  1  0  0  0
 44121  1  0  0  0
 45 46  2  0  0  0
 45122  1  0  0  0
 46123  1  0  0  0
 47124  1  0  0  0
 47125  1  0  0  0
 48 56  1  0  0  0
 48 65  1  0  0  0
 48126  1  0  0  0
 49 50  1  0  0  0
 49 53  1  0  0  0
 49 64  1  0  0  0
 49127  1  0  0  0
 50 51  1  0  0  0
 50128  1  0  0  0
 50129  1  0  0  0
 51 52  1  0  0  0
 51130  1  0  0  0
 51131  1  0  0  0
 52132  1  0  0  0
 52133  1  0  0  0
 53 54  1  0  0  0
 54 55  2  0  0  0
 54134  1  0  0  0
 55 57  1  0  0  0
 55135  1  0  0  0
 56 69  2  0  0  0
 57 58  2  0  0  0
 57136  1  0  0  0
 58137  1  0  0  0
 59 60  1  0  0  0
 59 61  1  0  0  0
 59 62  1  0  0  0
 60138  1  0  0  0
 60139  1  0  0  0
 60140  1  0  0  0
 61141  1  0  0  0
 61142  1  0  0  0
 61143  1  0  0  0
 62144  1  0  0  0
 62145  1  0  0  0
 62146  1  0  0  0
 63 65  1  0  0  0
 63147  1  0  0  0
 63148  1  0  0  0
 63149  1  0  0  0
 64150  1  0  0  0
 65151  1  0  0  0
 68 90  1  0  0  0
 71 73  2  0  0  0
 71 74  1  0  0  0
 71152  1  0  0  0
 72 75  2  0  0  0
 72 76  1  0  0  0
 72153  1  0  0  0
 73 75  1  0  0  0
 73 83  1  0  0  0
 74 76  2  0  0  0
 74 84  1  0  0  0
 75 87  1  0  0  0
 76 92  1  0  0  0
 77 81  1  0  0  0
 77 83  1  0  0  0
 77154  1  0  0  0
 77155  1  0  0  0
 78 82  1  0  0  0
 78 83  1  0  0  0
 78156  1  0  0  0
 78157  1  0  0  0
 79 84  1  0  0  0
 79 85  1  0  0  0
 79158  1  0  0  0
 79159  1  0  0  0
 80 84  1  0  0  0
 80 86  1  0  0  0
 80160  1  0  0  0
 80161  1  0  0  0
 81 91  1  0  0  0
 81162  1  0  0  0
 81163  1  0  0  0
 82 91  1  0  0  0
 82164  1  0  0  0
 82165  1  0  0  0
 83166  1  0  0  0
 84167  1  0  0  0
 85 86  1  0  0  0
 85 88  1  0  0  0
 85168  1  0  0  0
 86 90  1  0  0  0
 86169  1  0  0  0
 87170  1  0  0  0
 87171  1  0  0  0
 87172  1  0  0  0
 88173  1  0  0  0
 88174  1  0  0  0
 88175  1  0  0  0
 89 92  1  0  0  0
 89176  1  0  0  0
 89177  1  0  0  0
 89178  1  0  0  0
 90179  1  0  0  0
 90180  1  0  0  0
M  ISO  4   1 100  68 101  90 101  91 100
M  END
> <chiral flag>
0

> <version>
0

> <s_m_source_file>
/data/baiqing/PycharmProjects/Reinvent-master-3.2/result/LINK_invent/BTK/process_docking_weight1_custom_sum_contain_oxygen_bond_distance_aromatic_linkinvent_7_9_3/rearranged_h_0160.sdf

> <i_m_source_file_index>
25

> <r_mmod_Potential_Energy-OPLS-2005>
292.287719726562

> <r_mmod_Stretch_Energy-OPLS-2005>
39.7187385559082

> <r_mmod_Bend_Energy-OPLS-2005>
134.85823059082

> <r_mmod_Torsional_Energy-OPLS-2005>
414.819793701172

> <r_mmod_Improper_Torsional_Energy-OPLS-2005>
8.44476127624512

> <r_mmod_Van_der_Waal_Energy-OPLS-2005>
162.795867919922

> <r_mmod_Electrostatic_Energy-OPLS-2005>
-292.030731201172

> <r_mmod_Solvation_Energy-OPLS-2005>
-186.295471191406

> <b_mmod_Minimization_Converged-OPLS-2005>
0

> <r_mmod_RMS_Derivative-OPLS-2005>
2.04773831367493

$$$$
25
                    3D
 Structure written by MMmdl.
161170  0  0  1  0            999 V2000
  -30.6608  -14.6498   20.4627 C   0  0  0  0  0  0
  -30.4187  -12.3941   19.4658 C   0  0  0  0  0  0
  -29.5027  -12.4973   18.2283 C   0  0  0  0  0  0
  -28.0268  -12.3382   18.6404 C   0  0  0  0  0  0
  -27.6439  -13.2287   19.8535 C   0  0  2  0  0  0
  -28.6877  -13.1397   20.9887 C   0  0  0  0  0  0
  -25.2517  -13.8198   20.5692 C   0  0  0  0  0  0
  -24.1803  -13.0447   20.9200 C   0  0  0  0  0  0
  -24.6390  -11.6922   20.8745 C   0  0  0  0  0  0
  -23.9068  -10.4295   21.0406 C   0  0  0  0  0  0
  -24.3619   -9.4210   21.9184 C   0  0  0  0  0  0
  -23.6293   -8.2245   22.0755 C   0  0  0  0  0  0
  -22.4275   -8.0282   21.3544 C   0  0  0  0  0  0
  -21.9912   -9.0256   20.4646 C   0  0  0  0  0  0
  -22.7241  -10.2135   20.3056 C   0  0  0  0  0  0
  -21.6854   -6.0735   22.5276 C   0  0  0  0  0  0
  -21.4016   -6.5640   23.8210 C   0  0  0  0  0  0
  -21.3659   -5.6792   24.9173 C   0  0  0  0  0  0
  -21.6044   -4.3055   24.7224 C   0  0  0  0  0  0
  -21.8819   -3.8148   23.4344 C   0  0  0  0  0  0
  -21.9193   -4.6964   22.3399 C   0  0  0  0  0  0
  -22.7823  -13.5229   21.1858 C   0  0  0  0  0  0
  -22.1661   -4.2150   21.0977 F   0  0  0  0  0  0
  -21.5629   -3.4538   25.7736 F   0  0  0  0  0  0
  -29.9978  -13.4522   20.4078 N   0  0  0  0  0  0
  -26.2944  -12.9402   20.3294 N   0  0  0  0  0  0
  -25.9320  -11.6546   20.5758 N   0  0  0  0  0  0
  -22.0472  -12.8216   22.0414 N   0  0  0  0  0  0
  -25.4207  -15.1920   20.4102 N   0  0  0  0  0  0
  -31.8533  -14.7141   20.1559 O   0  0  0  0  0  0
  -21.6640   -6.8879   21.4239 O   0  0  0  0  0  0
  -22.3506  -14.5534   20.6704 O   0  0  0  0  0  0
  -24.6255  -31.8598   23.2024 C   0  0  0  0  0  0
  -25.9106  -32.4779   23.8351 C   0  0  1  0  0  0
  -27.2197  -27.3211   20.1276 C   0  0  0  0  0  0
  -25.5925  -33.8578   24.2281 N   0  0  0  0  0  0
  -23.4196  -30.4822   21.5448 C   0  0  2  0  0  0
  -24.8668  -28.9364   20.1111 C   0  0  0  0  0  0
  -22.7474  -29.4618   22.4941 C   0  0  0  0  0  0
  -18.0282  -28.1380   22.8482 C   0  0  0  0  0  0
  -24.1490  -36.7295   23.2641 C   0  0  0  0  0  0
  -25.9594  -30.7924   21.3724 C   0  0  0  0  0  0
  -26.0349  -29.4189   20.7168 C   0  0  0  0  0  0
  -27.2189  -28.6229   20.7140 C   0  0  0  0  0  0
  -26.0365  -26.8916   19.4912 C   0  0  0  0  0  0
  -24.8689  -27.6782   19.4876 C   0  0  0  0  0  0
  -23.6344  -29.8168   20.1596 C   0  0  0  0  0  0
  -25.4113  -36.3086   24.0333 C   0  0  1  0  0  0
  -20.5883  -28.3683   23.1284 C   0  0  2  0  0  0
  -20.6773  -26.9407   22.5410 C   0  0  0  0  0  0
  -19.5753  -26.6381   21.5208 C   0  0  0  0  0  0
  -18.1928  -26.7920   22.1617 C   0  0  0  0  0  0
  -19.1536  -28.8848   23.2875 C   0  0  0  0  0  0
  -18.9462  -30.1450   23.8889 C   0  0  0  0  0  0
  -17.6464  -30.6583   24.0561 C   0  0  0  0  0  0
  -25.9049  -34.9453   23.5107 C   0  0  0  0  0  0
  -16.5353  -29.9082   23.6331 C   0  0  0  0  0  0
  -16.7271  -28.6502   23.0347 C   0  0  0  0  0  0
  -26.4493  -31.6586   25.0720 C   0  0  0  0  0  0
  -25.3728  -31.3716   26.1451 C   0  0  0  0  0  0
  -27.0341  -30.3017   24.6159 C   0  0  0  0  0  0
  -27.6051  -32.4320   25.7492 C   0  0  0  0  0  0
  -27.5577  -37.1803   24.8465 C   0  0  0  0  0  0
  -21.4188  -29.3035   22.3684 N   0  0  0  0  0  0
  -26.4292  -37.3779   23.9406 N   0  0  0  0  0  0
  -24.6869  -31.0615   22.0972 N   0  0  0  0  0  0
  -23.4199  -28.8164   23.3025 O   0  0  0  0  0  0
  -28.3164  -26.4523   20.1571 O   0  0  0  0  0  0
  -26.5619  -34.8923   22.4673 O   0  0  0  0  0  0
  -23.5420  -32.1395   23.7359 O   0  0  0  0  0  0
  -29.1290  -18.9624   21.7470 C   0  0  0  0  0  0
  -29.5066  -20.8293   19.6448 C   0  0  0  0  0  0
  -29.7480  -18.5239   20.5585 C   0  0  0  0  0  0
  -29.9030  -19.4637   19.5309 C   0  0  0  0  0  0
  -28.7146  -20.3312   21.8886 C   0  0  0  0  0  0
  -28.9061  -21.3018   20.8452 C   0  0  0  0  0  0
  -30.5805  -18.8343   18.3412 C   0  0  0  0  0  0
  -30.6768  -17.3265   18.6938 C   0  0  0  0  0  0
  -30.4583  -17.1740   20.2244 C   0  0  2  0  0  0
  -28.5038  -20.0478   24.4586 C   0  0  0  0  0  0
  -28.0431  -20.7803   23.1874 C   0  0  0  0  0  0
  -28.0827  -25.1208   20.7699 C   0  0  0  0  0  0
  -28.7341  -23.7786   20.1957 C   0  0  0  0  0  0
  -29.9311  -15.8084   20.5976 N   0  0  0  0  0  0
  -28.4807  -22.6302   21.0742 O   0  0  0  0  0  0
  -31.4645  -12.4876   19.1681 H   0  0  0  0  0  0
  -30.3286  -11.4122   19.9332 H   0  0  0  0  0  0
  -29.7702  -11.7364   17.4940 H   0  0  0  0  0  0
  -29.6472  -13.4616   17.7381 H   0  0  0  0  0  0
  -27.8681  -11.2882   18.8885 H   0  0  0  0  0  0
  -27.3724  -12.5513   17.7942 H   0  0  0  0  0  0
  -27.6470  -14.2550   19.4861 H   0  0  0  0  0  0
  -28.6976  -12.1425   21.4309 H   0  0  0  0  0  0
  -28.4421  -13.8312   21.7964 H   0  0  0  0  0  0
  -25.2764   -9.5687   22.4760 H   0  0  0  0  0  0
  -24.0002   -7.4638   22.7476 H   0  0  0  0  0  0
  -21.0844   -8.8775   19.8951 H   0  0  0  0  0  0
  -22.3698  -10.9675   19.6165 H   0  0  0  0  0  0
  -21.2009   -7.6150   23.9714 H   0  0  0  0  0  0
  -21.1482   -6.0523   25.9075 H   0  0  0  0  0  0
  -22.0599   -2.7609   23.2843 H   0  0  0  0  0  0
  -22.4090  -11.9879   22.4803 H   0  0  0  0  0  0
  -21.1091  -13.1240   22.2624 H   0  0  0  0  0  0
  -24.6523  -15.8452   20.5179 H   0  0  0  0  0  0
  -26.2685  -15.6332   20.0783 H   0  0  0  0  0  0
  -26.7177  -32.5454   23.1101 H   0  0  0  0  0  0
  -25.0077  -33.9715   25.0430 H   0  0  0  0  0  0
  -22.7133  -31.3026   21.4018 H   0  0  0  0  0  0
  -23.3752  -35.9629   23.3309 H   0  0  0  0  0  0
  -24.3582  -36.8910   22.2056 H   0  0  0  0  0  0
  -23.7242  -37.6498   23.6659 H   0  0  0  0  0  0
  -26.0877  -31.5551   20.6034 H   0  0  0  0  0  0
  -26.8403  -30.8427   22.0004 H   0  0  0  0  0  0
  -28.1155  -28.9858   21.1970 H   0  0  0  0  0  0
  -26.0084  -25.9253   19.0075 H   0  0  0  0  0  0
  -23.9753  -27.3045   19.0062 H   0  0  0  0  0  0
  -23.7536  -30.5938   19.4034 H   0  0  0  0  0  0
  -22.7544  -29.2463   19.8575 H   0  0  0  0  0  0
  -25.1290  -36.1942   25.0826 H   0  0  0  0  0  0
  -20.9965  -28.3258   24.1410 H   0  0  0  0  0  0
  -20.5676  -26.2292   23.3609 H   0  0  0  0  0  0
  -21.6643  -26.7437   22.1205 H   0  0  0  0  0  0
  -19.6920  -25.6293   21.1237 H   0  0  0  0  0  0
  -19.6694  -27.3194   20.6741 H   0  0  0  0  0  0
  -17.4200  -26.6666   21.4019 H   0  0  0  0  0  0
  -18.0328  -26.0060   22.9014 H   0  0  0  0  0  0
  -19.7945  -30.7260   24.2258 H   0  0  0  0  0  0
  -17.5025  -31.6263   24.5162 H   0  0  0  0  0  0
  -15.5356  -30.2983   23.7663 H   0  0  0  0  0  0
  -15.8670  -28.0825   22.7058 H   0  0  0  0  0  0
  -24.5910  -30.7052   25.7787 H   0  0  0  0  0  0
  -24.8908  -32.2877   26.4873 H   0  0  0  0  0  0
  -25.8060  -30.8906   27.0229 H   0  0  0  0  0  0
  -26.2912  -29.6765   24.1191 H   0  0  0  0  0  0
  -27.4064  -29.7271   25.4650 H   0  0  0  0  0  0
  -27.8767  -30.4319   23.9364 H   0  0  0  0  0  0
  -27.2658  -33.3624   26.2057 H   0  0  0  0  0  0
  -28.3865  -32.6870   25.0319 H   0  0  0  0  0  0
  -28.0711  -31.8449   26.5416 H   0  0  0  0  0  0
  -28.2597  -38.0098   24.7507 H   0  0  0  0  0  0
  -28.1069  -36.2628   24.6297 H   0  0  0  0  0  0
  -27.2294  -37.1458   25.8870 H   0  0  0  0  0  0
  -20.9371  -29.8768   21.6902 H   0  0  0  0  0  0
  -26.0179  -38.2857   24.1405 H   0  0  0  0  0  0
  -29.0087  -18.2528   22.5517 H   0  0  0  0  0  0
  -29.6755  -21.5030   18.8167 H   0  0  0  0  0  0
  -31.5727  -19.2704   18.2220 H   0  0  0  0  0  0
  -30.0194  -19.0053   17.4215 H   0  0  0  0  0  0
  -31.5998  -16.8660   18.3395 H   0  0  0  0  0  0
  -29.8576  -16.8220   18.1789 H   0  0  0  0  0  0
  -31.4327  -17.2675   20.7084 H   0  0  0  0  0  0
  -28.2215  -18.9956   24.4525 H   0  0  0  0  0  0
  -28.0427  -20.4919   25.3413 H   0  0  0  0  0  0
  -29.5847  -20.1137   24.5858 H   0  0  0  0  0  0
  -26.9646  -20.6705   23.0686 H   0  0  0  0  0  0
  -28.2227  -21.8447   23.3420 H   0  0  0  0  0  0
  -28.4355  -25.2245   21.7964 H   0  0  0  0  0  0
  -27.0152  -24.9297   20.8803 H   0  0  0  0  0  0
  -29.8115  -23.9094   20.0906 H   0  0  0  0  0  0
  -28.3367  -23.5721   19.2017 H   0  0  0  0  0  0
  -28.9495  -15.7267   20.8114 H   0  0  0  0  0  0
  1 25  1  0  0  0
  1 30  2  0  0  0
  1 84  1  0  0  0
  2  3  1  0  0  0
  2 25  1  0  0  0
  2 86  1  0  0  0
  2 87  1  0  0  0
  3  4  1  0  0  0
  3 88  1  0  0  0
  3 89  1  0  0  0
  4  5  1  0  0  0
  4 90  1  0  0  0
  4 91  1  0  0  0
  5  6  1  0  0  0
  5 26  1  0  0  0
  5 92  1  0  0  0
  6 25  1  0  0  0
  6 93  1  0  0  0
  6 94  1  0  0  0
  7  8  2  0  0  0
  7 26  1  0  0  0
  7 29  1  0  0  0
  8  9  1  0  0  0
  8 22  1  0  0  0
  9 10  1  0  0  0
  9 27  2  0  0  0
 10 11  2  0  0  0
 10 15  1  0  0  0
 11 12  1  0  0  0
 11 95  1  0  0  0
 12 13  2  0  0  0
 12 96  1  0  0  0
 13 14  1  0  0  0
 13 31  1  0  0  0
 14 15  2  0  0  0
 14 97  1  0  0  0
 15 98  1  0  0  0
 16 17  2  0  0  0
 16 21  1  0  0  0
 16 31  1  0  0  0
 17 18  1  0  0  0
 17 99  1  0  0  0
 18 19  2  0  0  0
 18100  1  0  0  0
 19 20  1  0  0  0
 19 24  1  0  0  0
 20 21  2  0  0  0
 20101  1  0  0  0
 21 23  1  0  0  0
 22 28  1  0  0  0
 22 32  2  0  0  0
 26 27  1  0  0  0
 28102  1  0  0  0
 28103  1  0  0  0
 29104  1  0  0  0
 29105  1  0  0  0
 33 34  1  0  0  0
 33 66  1  0  0  0
 33 70  2  0  0  0
 34 36  1  0  0  0
 34 59  1  0  0  0
 34106  1  0  0  0
 35 44  2  0  0  0
 35 45  1  0  0  0
 35 68  1  0  0  0
 36 56  1  0  0  0
 36107  1  0  0  0
 37 39  1  0  0  0
 37 47  1  0  0  0
 37 66  1  0  0  0
 37108  1  0  0  0
 38 43  2  0  0  0
 38 46  1  0  0  0
 38 47  1  0  0  0
 39 64  1  0  0  0
 39 67  2  0  0  0
 40 52  1  0  0  0
 40 53  2  0  0  0
 40 58  1  0  0  0
 41109  1  0  0  0
 41110  1  0  0  0
 41111  1  0  0  0
 41 48  1  0  0  0
 42 43  1  0  0  0
 42 66  1  0  0  0
 42112  1  0  0  0
 42113  1  0  0  0
 43 44  1  0  0  0
 44114  1  0  0  0
 45 46  2  0  0  0
 45115  1  0  0  0
 46116  1  0  0  0
 47117  1  0  0  0
 47118  1  0  0  0
 48 56  1  0  0  0
 48 65  1  0  0  0
 48119  1  0  0  0
 49 50  1  0  0  0
 49 53  1  0  0  0
 49 64  1  0  0  0
 49120  1  0  0  0
 50 51  1  0  0  0
 50121  1  0  0  0
 50122  1  0  0  0
 51 52  1  0  0  0
 51123  1  0  0  0
 51124  1  0  0  0
 52125  1  0  0  0
 52126  1  0  0  0
 53 54  1  0  0  0
 54 55  2  0  0  0
 54127  1  0  0  0
 55 57  1  0  0  0
 55128  1  0  0  0
 56 69  2  0  0  0
 57 58  2  0  0  0
 57129  1  0  0  0
 58130  1  0  0  0
 59 60  1  0  0  0
 59 61  1  0  0  0
 59 62  1  0  0  0
 60131  1  0  0  0
 60132  1  0  0  0
 60133  1  0  0  0
 61134  1  0  0  0
 61135  1  0  0  0
 61136  1  0  0  0
 62137  1  0  0  0
 62138  1  0  0  0
 62139  1  0  0  0
 63 65  1  0  0  0
 63140  1  0  0  0
 63141  1  0  0  0
 63142  1  0  0  0
 64143  1  0  0  0
 65144  1  0  0  0
 68 82  1  0  0  0
 71 73  2  0  0  0
 71 75  1  0  0  0
 71145  1  0  0  0
 72 74  2  0  0  0
 72 76  1  0  0  0
 72146  1  0  0  0
 73 74  1  0  0  0
 73 79  1  0  0  0
 74 77  1  0  0  0
 75 76  2  0  0  0
 75 81  1  0  0  0
 76 85  1  0  0  0
 77 78  1  0  0  0
 77147  1  0  0  0
 77148  1  0  0  0
 78 79  1  0  0  0
 78149  1  0  0  0
 78150  1  0  0  0
 79 84  1  0  0  0
 79151  1  0  0  0
 80 81  1  0  0  0
 80152  1  0  0  0
 80153  1  0  0  0
 80154  1  0  0  0
 81155  1  0  0  0
 81156  1  0  0  0
 82 83  1  0  0  0
 82157  1  0  0  0
 82158  1  0  0  0
 83 85  1  0  0  0
 83159  1  0  0  0
 83160  1  0  0  0
 84161  1  0  0  0
M  ISO  4   1 100  68 101  82 101  84 100
M  END
> <chiral flag>
0

> <version>
0

> <s_m_source_file>
/data/baiqing/PycharmProjects/Reinvent-master-3.2/result/LINK_invent/BTK/process_docking_weight1_custom_sum_contain_oxygen_bond_distance_aromatic_linkinvent_7_9_3/rearranged_h_0160.sdf

> <i_m_source_file_index>
26

> <r_mmod_Potential_Energy-OPLS-2005>
85.1358947753906

> <r_mmod_Stretch_Energy-OPLS-2005>
80.2591323852539

> <r_mmod_Bend_Energy-OPLS-2005>
197.755722045898

> <r_mmod_Torsional_Energy-OPLS-2005>
231.038925170898

> <r_mmod_Improper_Torsional_Energy-OPLS-2005>
7.03676557540894

> <r_mmod_Van_der_Waal_Energy-OPLS-2005>
139.484527587891

> <r_mmod_Electrostatic_Energy-OPLS-2005>
-419.764770507812

> <r_mmod_Solvation_Energy-OPLS-2005>
-205.24885559082

> <b_mmod_Minimization_Converged-OPLS-2005>
0

> <r_mmod_RMS_Derivative-OPLS-2005>
0.634213507175446

$$$$
26
                    3D
 Structure written by MMmdl.
165174  0  0  1  0            999 V2000
  -30.6673  -14.7471   20.4123 C   0  0  0  0  0  0
  -30.4121  -12.4538   19.4681 C   0  0  0  0  0  0
  -29.4966  -12.4946   18.2300 C   0  0  0  0  0  0
  -28.0259  -12.3018   18.6481 C   0  0  0  0  0  0
  -27.6232  -13.2190   19.8303 C   0  0  2  0  0  0
  -28.6766  -13.2401   20.9630 C   0  0  0  0  0  0
  -25.2455  -13.8149   20.5768 C   0  0  0  0  0  0
  -24.1759  -13.0394   20.9267 C   0  0  0  0  0  0
  -24.6352  -11.6871   20.8805 C   0  0  0  0  0  0
  -23.9041  -10.4259   21.0433 C   0  0  0  0  0  0
  -24.3600   -9.4177   21.9218 C   0  0  0  0  0  0
  -23.6283   -8.2214   22.0743 C   0  0  0  0  0  0
  -22.4303   -8.0237   21.3519 C   0  0  0  0  0  0
  -21.9908   -9.0208   20.4633 C   0  0  0  0  0  0
  -22.7200  -10.2106   20.3067 C   0  0  0  0  0  0
  -21.6833   -6.0718   22.5286 C   0  0  0  0  0  0
  -21.3989   -6.5643   23.8223 C   0  0  0  0  0  0
  -21.3664   -5.6803   24.9199 C   0  0  0  0  0  0
  -21.6055   -4.3061   24.7251 C   0  0  0  0  0  0
  -21.8802   -3.8139   23.4382 C   0  0  0  0  0  0
  -21.9174   -4.6950   22.3440 C   0  0  0  0  0  0
  -22.7777  -13.5177   21.1944 C   0  0  0  0  0  0
  -22.1637   -4.2149   21.1018 F   0  0  0  0  0  0
  -21.5675   -3.4546   25.7761 F   0  0  0  0  0  0
  -29.9730  -13.5555   20.3547 N   0  0  0  0  0  0
  -26.2854  -12.9319   20.3267 N   0  0  0  0  0  0
  -25.9262  -11.6490   20.5792 N   0  0  0  0  0  0
  -22.0391  -12.8187   22.0489 N   0  0  0  0  0  0
  -25.4080  -15.1868   20.4266 N   0  0  0  0  0  0
  -31.8786  -14.7348   20.1789 O   0  0  0  0  0  0
  -21.6644   -6.8842   21.4234 O   0  0  0  0  0  0
  -22.3512  -14.5494   20.6739 O   0  0  0  0  0  0
  -24.6224  -31.8578   23.1991 C   0  0  0  0  0  0
  -25.9075  -32.4760   23.8328 C   0  0  1  0  0  0
  -27.2461  -27.3335   20.1175 C   0  0  0  0  0  0
  -25.5904  -33.8561   24.2261 N   0  0  0  0  0  0
  -23.4179  -30.4751   21.5391 C   0  0  2  0  0  0
  -24.8708  -28.9272   20.1058 C   0  0  0  0  0  0
  -22.7455  -29.4603   22.4931 C   0  0  0  0  0  0
  -18.0277  -28.1375   22.8490 C   0  0  0  0  0  0
  -24.1483  -36.7298   23.2647 C   0  0  0  0  0  0
  -25.9528  -30.7881   21.3723 C   0  0  0  0  0  0
  -26.0302  -29.4153   20.7209 C   0  0  0  0  0  0
  -27.2114  -28.6220   20.7326 C   0  0  0  0  0  0
  -26.0665  -26.8878   19.4836 C   0  0  0  0  0  0
  -24.8905  -27.6671   19.4815 C   0  0  0  0  0  0
  -23.6324  -29.7993   20.1568 C   0  0  0  0  0  0
  -25.4119  -36.3086   24.0322 C   0  0  1  0  0  0
  -20.5875  -28.3678   23.1275 C   0  0  2  0  0  0
  -20.6754  -26.9403   22.5419 C   0  0  0  0  0  0
  -19.5756  -26.6369   21.5205 C   0  0  0  0  0  0
  -18.1922  -26.7915   22.1611 C   0  0  0  0  0  0
  -19.1530  -28.8843   23.2885 C   0  0  0  0  0  0
  -18.9463  -30.1446   23.8907 C   0  0  0  0  0  0
  -17.6464  -30.6586   24.0567 C   0  0  0  0  0  0
  -25.9048  -34.9449   23.5098 C   0  0  0  0  0  0
  -16.5355  -29.9084   23.6333 C   0  0  0  0  0  0
  -16.7259  -28.6496   23.0356 C   0  0  0  0  0  0
  -26.4470  -31.6573   25.0700 C   0  0  0  0  0  0
  -25.3716  -31.3739   26.1454 C   0  0  0  0  0  0
  -27.0277  -30.2968   24.6155 C   0  0  0  0  0  0
  -27.6051  -32.4292   25.7462 C   0  0  0  0  0  0
  -27.5581  -37.1820   24.8464 C   0  0  0  0  0  0
  -21.4173  -29.3034   22.3679 N   0  0  0  0  0  0
  -26.4301  -37.3772   23.9388 N   0  0  0  0  0  0
  -24.6816  -31.0585   22.0940 N   0  0  0  0  0  0
  -23.4178  -28.8170   23.3040 O   0  0  0  0  0  0
  -28.3745  -26.5141   20.2392 O   0  0  0  0  0  0
  -26.5638  -34.8910   22.4678 O   0  0  0  0  0  0
  -23.5393  -32.1377   23.7335 O   0  0  0  0  0  0
  -27.4108  -23.5152   18.4806 C   0  0  0  0  0  0
  -28.4396  -23.9707   19.3271 C   0  0  0  0  0  0
  -29.2244  -22.9287   19.9540 C   0  0  0  0  0  0
  -27.2519  -22.1468   18.2203 C   0  0  0  0  0  0
  -28.9699  -21.5303   19.6674 C   0  0  0  0  0  0
  -31.0348  -18.3470   20.3434 C   0  0  0  0  0  0
  -28.5911  -18.1018   19.9208 C   0  0  0  0  0  0
  -30.7395  -17.1121   21.2737 C   0  0  0  0  0  0
  -28.8854  -16.5315   19.8354 C   0  0  0  0  0  0
  -29.7948  -19.0828   19.7377 C   0  0  0  0  0  0
  -30.3835  -23.2984   20.8645 C   0  0  0  0  0  0
  -26.8216  -20.9518   16.1819 C   0  0  0  0  0  0
  -28.7851  -25.5142   19.2437 C   0  0  0  0  0  0
  -28.0077  -21.1816   18.7853 N   0  0  0  0  0  0
  -30.0278  -15.9752   20.6267 N   0  0  0  0  0  0
  -26.2993  -21.7579   17.2776 N   0  0  0  0  0  0
  -29.6811  -20.4655   20.2778 O   0  0  0  0  0  0
  -31.4567  -12.5419   19.1650 H   0  0  0  0  0  0
  -30.3396  -11.4933   19.9813 H   0  0  0  0  0  0
  -29.7875  -11.7318   17.5083 H   0  0  0  0  0  0
  -29.6142  -13.4567   17.7287 H   0  0  0  0  0  0
  -27.8996  -11.2546   18.9218 H   0  0  0  0  0  0
  -27.3620  -12.4693   17.7986 H   0  0  0  0  0  0
  -27.5716  -14.2026   19.3804 H   0  0  0  0  0  0
  -28.7205  -12.2870   21.4878 H   0  0  0  0  0  0
  -28.4163  -13.9906   21.7120 H   0  0  0  0  0  0
  -25.2711   -9.5698   22.4862 H   0  0  0  0  0  0
  -23.9981   -7.4626   22.7487 H   0  0  0  0  0  0
  -21.0830   -8.8694   19.8979 H   0  0  0  0  0  0
  -22.3586  -10.9672   19.6243 H   0  0  0  0  0  0
  -21.1946   -7.6132   23.9730 H   0  0  0  0  0  0
  -21.1533   -6.0545   25.9102 H   0  0  0  0  0  0
  -22.0575   -2.7605   23.2902 H   0  0  0  0  0  0
  -22.3874  -11.9773   22.4880 H   0  0  0  0  0  0
  -21.1028  -13.1249   22.2675 H   0  0  0  0  0  0
  -24.6407  -15.8343   20.5777 H   0  0  0  0  0  0
  -26.2598  -15.6431   20.1293 H   0  0  0  0  0  0
  -26.7143  -32.5401   23.1085 H   0  0  0  0  0  0
  -25.0042  -33.9709   25.0391 H   0  0  0  0  0  0
  -22.7110  -31.2941   21.3888 H   0  0  0  0  0  0
  -23.3709  -35.9679   23.3402 H   0  0  0  0  0  0
  -24.3558  -36.8823   22.2045 H   0  0  0  0  0  0
  -23.7282  -37.6545   23.6591 H   0  0  0  0  0  0
  -26.0786  -31.5449   20.5977 H   0  0  0  0  0  0
  -26.8351  -30.8419   21.9969 H   0  0  0  0  0  0
  -28.0937  -28.9830   21.2431 H   0  0  0  0  0  0
  -26.0239  -25.9097   19.0337 H   0  0  0  0  0  0
  -23.9997  -27.2782   19.0096 H   0  0  0  0  0  0
  -23.7408  -30.5685   19.3914 H   0  0  0  0  0  0
  -22.7573  -29.2164   19.8621 H   0  0  0  0  0  0
  -25.1319  -36.1961   25.0813 H   0  0  0  0  0  0
  -20.9953  -28.3244   24.1401 H   0  0  0  0  0  0
  -20.5618  -26.2294   23.3628 H   0  0  0  0  0  0
  -21.6630  -26.7411   22.1228 H   0  0  0  0  0  0
  -19.6911  -25.6280   21.1238 H   0  0  0  0  0  0
  -19.6703  -27.3193   20.6750 H   0  0  0  0  0  0
  -17.4201  -26.6705   21.3988 H   0  0  0  0  0  0
  -18.0319  -26.0020   22.8966 H   0  0  0  0  0  0
  -19.7942  -30.7266   24.2265 H   0  0  0  0  0  0
  -17.5017  -31.6258   24.5178 H   0  0  0  0  0  0
  -15.5358  -30.3010   23.7633 H   0  0  0  0  0  0
  -15.8654  -28.0817   22.7078 H   0  0  0  0  0  0
  -24.5887  -30.7078   25.7806 H   0  0  0  0  0  0
  -24.8923  -32.2918   26.4858 H   0  0  0  0  0  0
  -25.8059  -30.8940   27.0231 H   0  0  0  0  0  0
  -26.2812  -29.6742   24.1188 H   0  0  0  0  0  0
  -27.3954  -29.7220   25.4665 H   0  0  0  0  0  0
  -27.8715  -30.4236   23.9365 H   0  0  0  0  0  0
  -27.2666  -33.3607   26.2022 H   0  0  0  0  0  0
  -28.3875  -32.6826   25.0286 H   0  0  0  0  0  0
  -28.0681  -31.8402   26.5389 H   0  0  0  0  0  0
  -28.2649  -38.0063   24.7428 H   0  0  0  0  0  0
  -28.1023  -36.2590   24.6394 H   0  0  0  0  0  0
  -27.2285  -37.1610   25.8864 H   0  0  0  0  0  0
  -20.9337  -29.8780   21.6917 H   0  0  0  0  0  0
  -26.0194  -38.2861   24.1331 H   0  0  0  0  0  0
  -26.8082  -24.2336   17.9449 H   0  0  0  0  0  0
  -31.6779  -18.0046   19.5300 H   0  0  0  0  0  0
  -31.6411  -19.0656   20.8950 H   0  0  0  0  0  0
  -28.1329  -18.3077   20.8896 H   0  0  0  0  0  0
  -27.8160  -18.3616   19.1945 H   0  0  0  0  0  0
  -30.1241  -17.4486   22.1094 H   0  0  0  0  0  0
  -31.6749  -16.7725   21.7219 H   0  0  0  0  0  0
  -29.0025  -16.2356   18.7908 H   0  0  0  0  0  0
  -27.9839  -16.0606   20.2129 H   0  0  0  0  0  0
  -29.9927  -19.1965   18.6693 H   0  0  0  0  0  0
  -30.1632  -24.1877   21.4558 H   0  0  0  0  0  0
  -31.2775  -23.4981   20.2733 H   0  0  0  0  0  0
  -30.6105  -22.4832   21.5552 H   0  0  0  0  0  0
  -26.0825  -20.8880   15.3813 H   0  0  0  0  0  0
  -27.0615  -19.9384   16.5113 H   0  0  0  0  0  0
  -27.7211  -21.4051   15.7581 H   0  0  0  0  0  0
  -28.4771  -25.8838   18.2642 H   0  0  0  0  0  0
  -29.8742  -25.5827   19.2135 H   0  0  0  0  0  0
  -25.7049  -22.5205   16.9675 H   0  0  0  0  0  0
  1 25  1  0  0  0
  1 30  2  0  0  0
  1 85  1  0  0  0
  2  3  1  0  0  0
  2 25  1  0  0  0
  2 88  1  0  0  0
  2 89  1  0  0  0
  3  4  1  0  0  0
  3 90  1  0  0  0
  3 91  1  0  0  0
  4  5  1  0  0  0
  4 92  1  0  0  0
  4 93  1  0  0  0
  5  6  1  0  0  0
  5 26  1  0  0  0
  5 94  1  0  0  0
  6 25  1  0  0  0
  6 95  1  0  0  0
  6 96  1  0  0  0
  7  8  2  0  0  0
  7 26  1  0  0  0
  7 29  1  0  0  0
  8  9  1  0  0  0
  8 22  1  0  0  0
  9 10  1  0  0  0
  9 27  2  0  0  0
 10 11  2  0  0  0
 10 15  1  0  0  0
 11 12  1  0  0  0
 11 97  1  0  0  0
 12 13  2  0  0  0
 12 98  1  0  0  0
 13 14  1  0  0  0
 13 31  1  0  0  0
 14 15  2  0  0  0
 14 99  1  0  0  0
 15100  1  0  0  0
 16 17  2  0  0  0
 16 21  1  0  0  0
 16 31  1  0  0  0
 17 18  1  0  0  0
 17101  1  0  0  0
 18 19  2  0  0  0
 18102  1  0  0  0
 19 20  1  0  0  0
 19 24  1  0  0  0
 20 21  2  0  0  0
 20103  1  0  0  0
 21 23  1  0  0  0
 22 28  1  0  0  0
 22 32  2  0  0  0
 26 27  1  0  0  0
 28104  1  0  0  0
 28105  1  0  0  0
 29106  1  0  0  0
 29107  1  0  0  0
 33 34  1  0  0  0
 33 66  1  0  0  0
 33 70  2  0  0  0
 34 36  1  0  0  0
 34 59  1  0  0  0
 34108  1  0  0  0
 35 44  2  0  0  0
 35 45  1  0  0  0
 35 68  1  0  0  0
 36 56  1  0  0  0
 36109  1  0  0  0
 37 39  1  0  0  0
 37 47  1  0  0  0
 37 66  1  0  0  0
 37110  1  0  0  0
 38 43  2  0  0  0
 38 46  1  0  0  0
 38 47  1  0  0  0
 39 64  1  0  0  0
 39 67  2  0  0  0
 40 52  1  0  0  0
 40 53  2  0  0  0
 40 58  1  0  0  0
 41111  1  0  0  0
 41112  1  0  0  0
 41113  1  0  0  0
 41 48  1  0  0  0
 42 43  1  0  0  0
 42 66  1  0  0  0
 42114  1  0  0  0
 42115  1  0  0  0
 43 44  1  0  0  0
 44116  1  0  0  0
 45 46  2  0  0  0
 45117  1  0  0  0
 46118  1  0  0  0
 47119  1  0  0  0
 47120  1  0  0  0
 48 56  1  0  0  0
 48 65  1  0  0  0
 48121  1  0  0  0
 49 50  1  0  0  0
 49 53  1  0  0  0
 49 64  1  0  0  0
 49122  1  0  0  0
 50 51  1  0  0  0
 50123  1  0  0  0
 50124  1  0  0  0
 51 52  1  0  0  0
 51125  1  0  0  0
 51126  1  0  0  0
 52127  1  0  0  0
 52128  1  0  0  0
 53 54  1  0  0  0
 54 55  2  0  0  0
 54129  1  0  0  0
 55 57  1  0  0  0
 55130  1  0  0  0
 56 69  2  0  0  0
 57 58  2  0  0  0
 57131  1  0  0  0
 58132  1  0  0  0
 59 60  1  0  0  0
 59 61  1  0  0  0
 59 62  1  0  0  0
 60133  1  0  0  0
 60134  1  0  0  0
 60135  1  0  0  0
 61136  1  0  0  0
 61137  1  0  0  0
 61138  1  0  0  0
 62139  1  0  0  0
 62140  1  0  0  0
 62141  1  0  0  0
 63 65  1  0  0  0
 63142  1  0  0  0
 63143  1  0  0  0
 63144  1  0  0  0
 64145  1  0  0  0
 65146  1  0  0  0
 68 83  1  0  0  0
 71 72  2  0  0  0
 71 74  1  0  0  0
 71147  1  0  0  0
 72 73  1  0  0  0
 72 83  1  0  0  0
 73 75  2  0  0  0
 73 81  1  0  0  0
 74 84  2  0  0  0
 74 86  1  0  0  0
 75 84  1  0  0  0
 75 87  1  0  0  0
 76 78  1  0  0  0
 76 80  1  0  0  0
 76148  1  0  0  0
 76149  1  0  0  0
 77 79  1  0  0  0
 77 80  1  0  0  0
 77150  1  0  0  0
 77151  1  0  0  0
 78 85  1  0  0  0
 78152  1  0  0  0
 78153  1  0  0  0
 79 85  1  0  0  0
 79154  1  0  0  0
 79155  1  0  0  0
 80 87  1  0  0  0
 80156  1  0  0  0
 81157  1  0  0  0
 81158  1  0  0  0
 81159  1  0  0  0
 82 86  1  0  0  0
 82160  1  0  0  0
 82161  1  0  0  0
 82162  1  0  0  0
 83163  1  0  0  0
 83164  1  0  0  0
 86165  1  0  0  0
M  ISO  4   1 100  68 101  83 101  85 100
M  END
> <chiral flag>
0

> <version>
0

> <s_m_source_file>
/data/baiqing/PycharmProjects/Reinvent-master-3.2/result/LINK_invent/BTK/process_docking_weight1_custom_sum_contain_oxygen_bond_distance_aromatic_linkinvent_7_9_3/rearranged_h_0160.sdf

> <i_m_source_file_index>
27

> <r_mmod_Potential_Energy-OPLS-2005>
142.802749633789

> <r_mmod_Stretch_Energy-OPLS-2005>
98.8065643310547

> <r_mmod_Bend_Energy-OPLS-2005>
201.809783935547

> <r_mmod_Torsional_Energy-OPLS-2005>
348.123199462891

> <r_mmod_Improper_Torsional_Energy-OPLS-2005>
10.6861686706543

> <r_mmod_Van_der_Waal_Energy-OPLS-2005>
149.370498657227

> <r_mmod_Electrostatic_Energy-OPLS-2005>
-509.808868408203

> <r_mmod_Solvation_Energy-OPLS-2005>
-234.920150756836

> <b_mmod_Minimization_Converged-OPLS-2005>
0

> <r_mmod_RMS_Derivative-OPLS-2005>
5.29205322265625

$$$$
27
                    3D
 Structure written by MMmdl.
160169  0  0  1  0            999 V2000
  -30.7290  -14.4892   20.5453 C   0  0  0  0  0  0
  -30.4169  -12.3174   19.4224 C   0  0  0  0  0  0
  -29.4846  -12.4901   18.2056 C   0  0  0  0  0  0
  -28.0090  -12.3595   18.6251 C   0  0  0  0  0  0
  -27.6568  -13.2150   19.8712 C   0  0  2  0  0  0
  -28.7065  -13.0391   20.9930 C   0  0  0  0  0  0
  -25.2573  -13.8188   20.5730 C   0  0  0  0  0  0
  -24.1837  -13.0442   20.9214 C   0  0  0  0  0  0
  -24.6409  -11.6918   20.8779 C   0  0  0  0  0  0
  -23.9089  -10.4292   21.0433 C   0  0  0  0  0  0
  -24.3643   -9.4199   21.9202 C   0  0  0  0  0  0
  -23.6312   -8.2234   22.0767 C   0  0  0  0  0  0
  -22.4291   -8.0284   21.3553 C   0  0  0  0  0  0
  -21.9937   -9.0267   20.4653 C   0  0  0  0  0  0
  -22.7271  -10.2143   20.3070 C   0  0  0  0  0  0
  -21.6847   -6.0745   22.5287 C   0  0  0  0  0  0
  -21.4012   -6.5651   23.8220 C   0  0  0  0  0  0
  -21.3654   -5.6806   24.9178 C   0  0  0  0  0  0
  -21.6044   -4.3071   24.7230 C   0  0  0  0  0  0
  -21.8811   -3.8159   23.4352 C   0  0  0  0  0  0
  -21.9195   -4.6973   22.3410 C   0  0  0  0  0  0
  -22.7852  -13.5227   21.1848 C   0  0  0  0  0  0
  -22.1665   -4.2155   21.0989 F   0  0  0  0  0  0
  -21.5621   -3.4559   25.7745 F   0  0  0  0  0  0
  -30.0319  -13.3268   20.4224 N   0  0  0  0  0  0
  -26.3012  -12.9376   20.3411 N   0  0  0  0  0  0
  -25.9339  -11.6526   20.5824 N   0  0  0  0  0  0
  -22.0498  -12.8210   22.0405 N   0  0  0  0  0  0
  -25.4262  -15.1909   20.4125 N   0  0  0  0  0  0
  -31.8883  -14.6097   20.1488 O   0  0  0  0  0  0
  -21.6633   -6.8898   21.4253 O   0  0  0  0  0  0
  -22.3531  -14.5534   20.6701 O   0  0  0  0  0  0
  -24.6190  -31.8676   23.2116 C   0  0  0  0  0  0
  -25.9075  -32.4815   23.8410 C   0  0  1  0  0  0
  -27.2197  -27.3970   20.0967 C   0  0  0  0  0  0
  -25.5926  -33.8614   24.2332 N   0  0  0  0  0  0
  -23.4068  -30.4956   21.5526 C   0  0  2  0  0  0
  -24.8496  -28.9677   20.1092 C   0  0  0  0  0  0
  -22.7433  -29.4664   22.4973 C   0  0  0  0  0  0
  -18.0281  -28.1384   22.8488 C   0  0  0  0  0  0
  -24.1488  -36.7320   23.2636 C   0  0  0  0  0  0
  -25.9417  -30.8203   21.3730 C   0  0  0  0  0  0
  -26.0141  -29.4550   20.7151 C   0  0  0  0  0  0
  -27.1998  -28.6764   20.7100 C   0  0  0  0  0  0
  -26.0355  -26.9550   19.4541 C   0  0  0  0  0  0
  -24.8575  -27.7182   19.4748 C   0  0  0  0  0  0
  -23.6158  -29.8393   20.1636 C   0  0  0  0  0  0
  -25.4108  -36.3105   24.0334 C   0  0  1  0  0  0
  -20.5874  -28.3675   23.1306 C   0  0  2  0  0  0
  -20.6771  -26.9407   22.5414 C   0  0  0  0  0  0
  -19.5750  -26.6386   21.5212 C   0  0  0  0  0  0
  -18.1927  -26.7930   22.1620 C   0  0  0  0  0  0
  -19.1529  -28.8846   23.2894 C   0  0  0  0  0  0
  -18.9455  -30.1456   23.8899 C   0  0  0  0  0  0
  -17.6454  -30.6584   24.0569 C   0  0  0  0  0  0
  -25.9043  -34.9472   23.5129 C   0  0  0  0  0  0
  -16.5347  -29.9083   23.6328 C   0  0  0  0  0  0
  -16.7269  -28.6507   23.0338 C   0  0  0  0  0  0
  -26.4488  -31.6593   25.0741 C   0  0  0  0  0  0
  -25.3752  -31.3698   26.1487 C   0  0  0  0  0  0
  -27.0319  -30.3028   24.6137 C   0  0  0  0  0  0
  -27.6065  -32.4310   25.7502 C   0  0  0  0  0  0
  -27.5586  -37.1813   24.8461 C   0  0  0  0  0  0
  -21.4156  -29.3042   22.3708 N   0  0  0  0  0  0
  -26.4292  -37.3792   23.9413 N   0  0  0  0  0  0
  -24.6740  -31.0759   22.1031 N   0  0  0  0  0  0
  -23.4196  -28.8191   23.3013 O   0  0  0  0  0  0
  -28.3607  -26.6025   20.1571 O   0  0  0  0  0  0
  -26.5597  -34.8920   22.4684 O   0  0  0  0  0  0
  -23.5375  -32.1446   23.7491 O   0  0  0  0  0  0
  -29.0995  -20.1157   18.6289 C   0  0  0  0  0  0
  -29.6179  -17.8667   18.7990 C   0  0  0  0  0  0
  -30.0260  -18.0591   20.1531 C   0  0  0  0  0  0
  -29.5785  -20.3518   19.9422 C   0  0  0  0  0  0
  -31.0686  -16.1201   17.5047 C   0  0  0  0  0  0
  -30.0113  -16.5679   16.5387 C   0  0  0  0  0  0
  -29.7220  -16.5790   18.0311 C   0  0  0  0  0  0
  -30.5786  -16.9431   21.0703 C   0  0  0  0  0  0
  -29.2032  -24.1846   20.4435 C   0  0  0  0  0  0
  -28.9184  -22.7573   19.8895 C   0  0  0  0  0  0
  -28.1877  -25.1967   19.8470 C   0  0  0  0  0  0
  -29.1138  -18.8893   18.0670 N   0  0  0  0  0  0
  -30.0113  -19.3121   20.7052 N   0  0  0  0  0  0
  -29.6584  -21.6438   20.5085 N   0  0  0  0  0  0
  -30.0327  -15.5713   20.9486 N   0  0  0  0  0  0
  -31.4597  -12.4062   19.1114 H   0  0  0  0  0  0
  -30.3174  -11.3156   19.8438 H   0  0  0  0  0  0
  -29.7215  -11.7506   17.4401 H   0  0  0  0  0  0
  -29.6439  -13.4648   17.7472 H   0  0  0  0  0  0
  -27.8173  -11.3067   18.8330 H   0  0  0  0  0  0
  -27.3582  -12.6270   17.7923 H   0  0  0  0  0  0
  -27.6855  -14.2561   19.5529 H   0  0  0  0  0  0
  -28.6861  -12.0194   21.3786 H   0  0  0  0  0  0
  -28.4782  -13.6821   21.8445 H   0  0  0  0  0  0
  -25.2794   -9.5661   22.4773 H   0  0  0  0  0  0
  -24.0010   -7.4627   22.7492 H   0  0  0  0  0  0
  -21.0861   -8.8809   19.8967 H   0  0  0  0  0  0
  -22.3748  -10.9697   19.6182 H   0  0  0  0  0  0
  -21.2003   -7.6161   23.9730 H   0  0  0  0  0  0
  -21.1484   -6.0536   25.9087 H   0  0  0  0  0  0
  -22.0596   -2.7620   23.2855 H   0  0  0  0  0  0
  -22.4119  -11.9856   22.4763 H   0  0  0  0  0  0
  -21.1132  -13.1251   22.2650 H   0  0  0  0  0  0
  -24.6541  -15.8409   20.5083 H   0  0  0  0  0  0
  -26.2706  -15.6338   20.0752 H   0  0  0  0  0  0
  -26.7142  -32.5507   23.1167 H   0  0  0  0  0  0
  -25.0083  -33.9774   25.0480 H   0  0  0  0  0  0
  -22.6967  -31.3143   21.4185 H   0  0  0  0  0  0
  -23.3744  -35.9659   23.3290 H   0  0  0  0  0  0
  -24.3587  -36.8944   22.2053 H   0  0  0  0  0  0
  -23.7243  -37.6523   23.6657 H   0  0  0  0  0  0
  -26.0643  -31.5879   20.6077 H   0  0  0  0  0  0
  -26.8267  -30.8674   21.9959 H   0  0  0  0  0  0
  -28.0912  -29.0423   21.1994 H   0  0  0  0  0  0
  -25.9825  -26.0139   18.9264 H   0  0  0  0  0  0
  -23.9657  -27.3442   18.9903 H   0  0  0  0  0  0
  -23.7293  -30.6210   19.4115 H   0  0  0  0  0  0
  -22.7365  -29.2679   19.8613 H   0  0  0  0  0  0
  -25.1280  -36.1969   25.0825 H   0  0  0  0  0  0
  -20.9966  -28.3240   24.1429 H   0  0  0  0  0  0
  -20.5678  -26.2279   23.3601 H   0  0  0  0  0  0
  -21.6639  -26.7449   22.1205 H   0  0  0  0  0  0
  -19.6910  -25.6299   21.1237 H   0  0  0  0  0  0
  -19.6691  -27.3199   20.6745 H   0  0  0  0  0  0
  -17.4198  -26.6685   21.4020 H   0  0  0  0  0  0
  -18.0327  -26.0069   22.9015 H   0  0  0  0  0  0
  -19.7929  -30.7280   24.2256 H   0  0  0  0  0  0
  -17.5006  -31.6261   24.5178 H   0  0  0  0  0  0
  -15.5346  -30.2986   23.7650 H   0  0  0  0  0  0
  -15.8673  -28.0837   22.7030 H   0  0  0  0  0  0
  -24.5915  -30.7057   25.7824 H   0  0  0  0  0  0
  -24.8959  -32.2851   26.4968 H   0  0  0  0  0  0
  -25.8109  -30.8843   27.0228 H   0  0  0  0  0  0
  -26.2868  -29.6785   24.1188 H   0  0  0  0  0  0
  -27.4071  -29.7270   25.4610 H   0  0  0  0  0  0
  -27.8720  -30.4335   23.9309 H   0  0  0  0  0  0
  -27.2682  -33.3590   26.2124 H   0  0  0  0  0  0
  -28.3852  -32.6897   25.0315 H   0  0  0  0  0  0
  -28.0759  -31.8405   26.5381 H   0  0  0  0  0  0
  -28.2593  -38.0121   24.7517 H   0  0  0  0  0  0
  -28.1091  -36.2652   24.6267 H   0  0  0  0  0  0
  -27.2313  -37.1441   25.8866 H   0  0  0  0  0  0
  -20.9312  -29.8782   21.6947 H   0  0  0  0  0  0
  -26.0180  -38.2870   24.1410 H   0  0  0  0  0  0
  -28.7268  -20.9035   17.9919 H   0  0  0  0  0  0
  -31.9222  -16.7780   17.6613 H   0  0  0  0  0  0
  -31.2996  -15.0579   17.5061 H   0  0  0  0  0  0
  -29.5349  -15.7943   15.9398 H   0  0  0  0  0  0
  -30.1784  -17.5141   16.0286 H   0  0  0  0  0  0
  -29.0140  -15.8390   18.3949 H   0  0  0  0  0  0
  -30.4039  -17.2464   22.1035 H   0  0  0  0  0  0
  -31.6648  -16.9448   20.9625 H   0  0  0  0  0  0
  -30.2228  -24.4853   20.2015 H   0  0  0  0  0  0
  -29.1190  -24.1955   21.5309 H   0  0  0  0  0  0
  -29.1341  -22.7876   18.8214 H   0  0  0  0  0  0
  -27.8521  -22.5401   19.9844 H   0  0  0  0  0  0
  -27.2231  -24.8489   20.2196 H   0  0  0  0  0  0
  -28.1703  -25.0918   18.7608 H   0  0  0  0  0  0
  -29.9277  -21.7133   21.4852 H   0  0  0  0  0  0
  -29.0761  -15.4299   21.2342 H   0  0  0  0  0  0
  1 25  1  0  0  0
  1 30  2  0  0  0
  1 85  1  0  0  0
  2  3  1  0  0  0
  2 25  1  0  0  0
  2 86  1  0  0  0
  2 87  1  0  0  0
  3  4  1  0  0  0
  3 88  1  0  0  0
  3 89  1  0  0  0
  4  5  1  0  0  0
  4 90  1  0  0  0
  4 91  1  0  0  0
  5  6  1  0  0  0
  5 26  1  0  0  0
  5 92  1  0  0  0
  6 25  1  0  0  0
  6 93  1  0  0  0
  6 94  1  0  0  0
  7  8  2  0  0  0
  7 26  1  0  0  0
  7 29  1  0  0  0
  8  9  1  0  0  0
  8 22  1  0  0  0
  9 10  1  0  0  0
  9 27  2  0  0  0
 10 11  2  0  0  0
 10 15  1  0  0  0
 11 12  1  0  0  0
 11 95  1  0  0  0
 12 13  2  0  0  0
 12 96  1  0  0  0
 13 14  1  0  0  0
 13 31  1  0  0  0
 14 15  2  0  0  0
 14 97  1  0  0  0
 15 98  1  0  0  0
 16 17  2  0  0  0
 16 21  1  0  0  0
 16 31  1  0  0  0
 17 18  1  0  0  0
 17 99  1  0  0  0
 18 19  2  0  0  0
 18100  1  0  0  0
 19 20  1  0  0  0
 19 24  1  0  0  0
 20 21  2  0  0  0
 20101  1  0  0  0
 21 23  1  0  0  0
 22 28  1  0  0  0
 22 32  2  0  0  0
 26 27  1  0  0  0
 28102  1  0  0  0
 28103  1  0  0  0
 29104  1  0  0  0
 29105  1  0  0  0
 33 34  1  0  0  0
 33 66  1  0  0  0
 33 70  2  0  0  0
 34 36  1  0  0  0
 34 59  1  0  0  0
 34106  1  0  0  0
 35 44  2  0  0  0
 35 45  1  0  0  0
 35 68  1  0  0  0
 36 56  1  0  0  0
 36107  1  0  0  0
 37 39  1  0  0  0
 37 47  1  0  0  0
 37 66  1  0  0  0
 37108  1  0  0  0
 38 43  2  0  0  0
 38 46  1  0  0  0
 38 47  1  0  0  0
 39 64  1  0  0  0
 39 67  2  0  0  0
 40 52  1  0  0  0
 40 53  2  0  0  0
 40 58  1  0  0  0
 41109  1  0  0  0
 41110  1  0  0  0
 41111  1  0  0  0
 41 48  1  0  0  0
 42 43  1  0  0  0
 42 66  1  0  0  0
 42112  1  0  0  0
 42113  1  0  0  0
 43 44  1  0  0  0
 44114  1  0  0  0
 45 46  2  0  0  0
 45115  1  0  0  0
 46116  1  0  0  0
 47117  1  0  0  0
 47118  1  0  0  0
 48 56  1  0  0  0
 48 65  1  0  0  0
 48119  1  0  0  0
 49 50  1  0  0  0
 49 53  1  0  0  0
 49 64  1  0  0  0
 49120  1  0  0  0
 50 51  1  0  0  0
 50121  1  0  0  0
 50122  1  0  0  0
 51 52  1  0  0  0
 51123  1  0  0  0
 51124  1  0  0  0
 52125  1  0  0  0
 52126  1  0  0  0
 53 54  1  0  0  0
 54 55  2  0  0  0
 54127  1  0  0  0
 55 57  1  0  0  0
 55128  1  0  0  0
 56 69  2  0  0  0
 57 58  2  0  0  0
 57129  1  0  0  0
 58130  1  0  0  0
 59 60  1  0  0  0
 59 61  1  0  0  0
 59 62  1  0  0  0
 60131  1  0  0  0
 60132  1  0  0  0
 60133  1  0  0  0
 61134  1  0  0  0
 61135  1  0  0  0
 61136  1  0  0  0
 62137  1  0  0  0
 62138  1  0  0  0
 62139  1  0  0  0
 63 65  1  0  0  0
 63140  1  0  0  0
 63141  1  0  0  0
 63142  1  0  0  0
 64143  1  0  0  0
 65144  1  0  0  0
 68 81  1  0  0  0
 71 74  2  0  0  0
 71 82  1  0  0  0
 71145  1  0  0  0
 72 73  1  0  0  0
 72 82  2  0  0  0
 72 77  1  0  0  0
 73 78  1  0  0  0
 73 83  2  0  0  0
 74 83  1  0  0  0
 74 84  1  0  0  0
 75 76  1  0  0  0
 75 77  1  0  0  0
 75146  1  0  0  0
 75147  1  0  0  0
 76 77  1  0  0  0
 76148  1  0  0  0
 76149  1  0  0  0
 77150  1  0  0  0
 78 85  1  0  0  0
 78151  1  0  0  0
 78152  1  0  0  0
 79 80  1  0  0  0
 79 81  1  0  0  0
 79153  1  0  0  0
 79154  1  0  0  0
 80 84  1  0  0  0
 80155  1  0  0  0
 80156  1  0  0  0
 81157  1  0  0  0
 81158  1  0  0  0
 84159  1  0  0  0
 85160  1  0  0  0
M  ISO  4   1 100  68 101  81 101  85 100
M  END
> <chiral flag>
0

> <version>
0

> <s_m_source_file>
/data/baiqing/PycharmProjects/Reinvent-master-3.2/result/LINK_invent/BTK/process_docking_weight1_custom_sum_contain_oxygen_bond_distance_aromatic_linkinvent_7_9_3/rearranged_h_0160.sdf

> <i_m_source_file_index>
28

> <r_mmod_Potential_Energy-OPLS-2005>
-43.5966796875

> <r_mmod_Stretch_Energy-OPLS-2005>
46.5650062561035

> <r_mmod_Bend_Energy-OPLS-2005>
119.377098083496

> <r_mmod_Torsional_Energy-OPLS-2005>
212.045974731445

> <r_mmod_Improper_Torsional_Energy-OPLS-2005>
5.35769891738892

> <r_mmod_Van_der_Waal_Energy-OPLS-2005>
159.657211303711

> <r_mmod_Electrostatic_Energy-OPLS-2005>
-377.66552734375

> <r_mmod_Solvation_Energy-OPLS-2005>
-231.332183837891

> <b_mmod_Minimization_Converged-OPLS-2005>
0

> <r_mmod_RMS_Derivative-OPLS-2005>
1.52173292636871

$$$$
28
                    3D
 Structure written by MMmdl.
170179  0  0  1  0            999 V2000
  -30.7175  -14.4459   20.5647 C   0  0  0  0  0  0
  -30.4069  -12.2889   19.4168 C   0  0  0  0  0  0
  -29.4849  -12.5057   18.2006 C   0  0  0  0  0  0
  -28.0052  -12.3755   18.6097 C   0  0  0  0  0  0
  -27.6566  -13.2102   19.8721 C   0  0  2  0  0  0
  -28.6966  -12.9918   20.9929 C   0  0  0  0  0  0
  -25.2555  -13.8171   20.5682 C   0  0  0  0  0  0
  -24.1811  -13.0450   20.9170 C   0  0  0  0  0  0
  -24.6367  -11.6916   20.8720 C   0  0  0  0  0  0
  -23.9041  -10.4302   21.0393 C   0  0  0  0  0  0
  -24.3606   -9.4218   21.9165 C   0  0  0  0  0  0
  -23.6294   -8.2247   22.0744 C   0  0  0  0  0  0
  -22.4274   -8.0272   21.3543 C   0  0  0  0  0  0
  -21.9904   -9.0235   20.4637 C   0  0  0  0  0  0
  -22.7217  -10.2121   20.3041 C   0  0  0  0  0  0
  -21.6853   -6.0728   22.5279 C   0  0  0  0  0  0
  -21.4015   -6.5635   23.8213 C   0  0  0  0  0  0
  -21.3660   -5.6789   24.9177 C   0  0  0  0  0  0
  -21.6049   -4.3054   24.7231 C   0  0  0  0  0  0
  -21.8821   -3.8143   23.4353 C   0  0  0  0  0  0
  -21.9193   -4.6956   22.3405 C   0  0  0  0  0  0
  -22.7833  -13.5231   21.1852 C   0  0  0  0  0  0
  -22.1657   -4.2144   21.0986 F   0  0  0  0  0  0
  -21.5633   -3.4540   25.7742 F   0  0  0  0  0  0
  -30.0274  -13.2796   20.4361 N   0  0  0  0  0  0
  -26.2995  -12.9352   20.3355 N   0  0  0  0  0  0
  -25.9294  -11.6508   20.5747 N   0  0  0  0  0  0
  -22.0496  -12.8214   22.0409 N   0  0  0  0  0  0
  -25.4309  -15.1892   20.4104 N   0  0  0  0  0  0
  -31.8538  -14.5955   20.0988 O   0  0  0  0  0  0
  -21.6642   -6.8868   21.4240 O   0  0  0  0  0  0
  -22.3511  -14.5543   20.6706 O   0  0  0  0  0  0
  -24.6142  -31.8713   23.2096 C   0  0  0  0  0  0
  -25.9036  -32.4843   23.8394 C   0  0  1  0  0  0
  -27.2180  -27.4306   20.1143 C   0  0  0  0  0  0
  -25.5898  -33.8624   24.2352 N   0  0  0  0  0  0
  -23.4024  -30.4950   21.5526 C   0  0  2  0  0  0
  -24.8447  -28.9738   20.1041 C   0  0  0  0  0  0
  -22.7443  -29.4655   22.5002 C   0  0  0  0  0  0
  -18.0275  -28.1375   22.8498 C   0  0  0  0  0  0
  -24.1509  -36.7326   23.2643 C   0  0  0  0  0  0
  -25.9285  -30.8469   21.3525 C   0  0  0  0  0  0
  -26.0059  -29.4825   20.6982 C   0  0  0  0  0  0
  -27.1959  -28.7220   20.6905 C   0  0  0  0  0  0
  -26.0363  -26.9382   19.5104 C   0  0  0  0  0  0
  -24.8572  -27.7065   19.5011 C   0  0  0  0  0  0
  -23.6049  -29.8365   20.1625 C   0  0  0  0  0  0
  -25.4122  -36.3119   24.0353 C   0  0  1  0  0  0
  -20.5873  -28.3643   23.1358 C   0  0  2  0  0  0
  -20.6795  -26.9389   22.5444 C   0  0  0  0  0  0
  -19.5765  -26.6380   21.5249 C   0  0  0  0  0  0
  -18.1924  -26.7925   22.1622 C   0  0  0  0  0  0
  -19.1528  -28.8826   23.2909 C   0  0  0  0  0  0
  -18.9449  -30.1439   23.8910 C   0  0  0  0  0  0
  -17.6449  -30.6579   24.0567 C   0  0  0  0  0  0
  -25.9039  -34.9481   23.5152 C   0  0  0  0  0  0
  -16.5340  -29.9084   23.6320 C   0  0  0  0  0  0
  -16.7261  -28.6502   23.0339 C   0  0  0  0  0  0
  -26.4472  -31.6573   25.0676 C   0  0  0  0  0  0
  -25.3713  -31.3615   26.1386 C   0  0  0  0  0  0
  -27.0300  -30.3044   24.5951 C   0  0  0  0  0  0
  -27.6066  -32.4266   25.7425 C   0  0  0  0  0  0
  -27.5608  -37.1811   24.8471 C   0  0  0  0  0  0
  -21.4171  -29.3003   22.3759 N   0  0  0  0  0  0
  -26.4330  -37.3772   23.9402 N   0  0  0  0  0  0
  -24.6678  -31.0840   22.0985 N   0  0  0  0  0  0
  -23.4224  -28.8189   23.3028 O   0  0  0  0  0  0
  -28.3881  -26.7010   20.2175 O   0  0  0  0  0  0
  -26.5603  -34.8945   22.4713 O   0  0  0  0  0  0
  -23.5345  -32.1432   23.7528 O   0  0  0  0  0  0
  -27.2571  -23.6240   23.3408 C   0  0  0  0  0  0
  -27.5694  -24.6298   22.4071 C   0  0  0  0  0  0
  -27.4814  -22.2586   23.0924 C   0  0  0  0  0  0
  -28.0806  -24.2743   21.1243 C   0  0  0  0  0  0
  -28.3221  -22.8821   20.8740 C   0  0  0  0  0  0
  -28.0802  -21.8703   21.8533 C   0  0  0  0  0  0
  -29.0133  -17.7880   20.4466 C   0  0  0  0  0  0
  -29.2635  -17.0954   22.8169 C   0  0  0  0  0  0
  -30.0184  -16.6864   20.0543 C   0  0  0  0  0  0
  -30.1669  -15.9171   22.3855 C   0  0  0  0  0  0
  -29.3350  -18.2991   21.8572 C   0  0  0  0  0  0
  -27.3102  -26.0528   22.8717 C   0  0  0  0  0  0
  -27.0395  -21.3142   24.2078 C   0  0  0  0  0  0
  -28.8754  -22.4281   19.5202 C   0  0  0  0  0  0
  -28.4042  -25.2823   19.9795 C   0  0  0  0  0  0
  -28.4364  -19.4583   22.3469 C   0  0  0  0  0  0
  -30.0054  -15.5273   20.9732 N   0  0  0  0  0  0
  -28.4710  -20.5867   21.4727 O   0  0  0  0  0  0
  -31.4534  -12.3710   19.1175 H   0  0  0  0  0  0
  -30.2899  -11.2786   19.8122 H   0  0  0  0  0  0
  -29.7205  -11.7890   17.4133 H   0  0  0  0  0  0
  -29.6615  -13.4957   17.7760 H   0  0  0  0  0  0
  -27.8006  -11.3191   18.7906 H   0  0  0  0  0  0
  -27.3610  -12.6686   17.7798 H   0  0  0  0  0  0
  -27.7022  -14.2591   19.5788 H   0  0  0  0  0  0
  -28.6629  -11.9601   21.3468 H   0  0  0  0  0  0
  -28.4646  -13.6134   21.8580 H   0  0  0  0  0  0
  -25.2756   -9.5699   22.4729 H   0  0  0  0  0  0
  -24.0010   -7.4645   22.7469 H   0  0  0  0  0  0
  -21.0841   -8.8747   19.8943 H   0  0  0  0  0  0
  -22.3675  -10.9652   19.6149 H   0  0  0  0  0  0
  -21.2005   -7.6140   23.9718 H   0  0  0  0  0  0
  -21.1481   -6.0517   25.9080 H   0  0  0  0  0  0
  -22.0598   -2.7605   23.2857 H   0  0  0  0  0  0
  -22.4127  -11.9865   22.4773 H   0  0  0  0  0  0
  -21.1108  -13.1213   22.2637 H   0  0  0  0  0  0
  -24.6729  -15.8528   20.5265 H   0  0  0  0  0  0
  -26.3001  -15.6231   20.1267 H   0  0  0  0  0  0
  -26.7085  -32.5599   23.1151 H   0  0  0  0  0  0
  -25.0050  -33.9777   25.0497 H   0  0  0  0  0  0
  -22.6903  -31.3107   21.4175 H   0  0  0  0  0  0
  -23.3782  -35.9649   23.3317 H   0  0  0  0  0  0
  -24.3599  -36.8943   22.2053 H   0  0  0  0  0  0
  -23.7262  -37.6538   23.6647 H   0  0  0  0  0  0
  -26.0264  -31.6166   20.5851 H   0  0  0  0  0  0
  -26.8267  -30.9121   21.9552 H   0  0  0  0  0  0
  -28.0935  -29.1007   21.1613 H   0  0  0  0  0  0
  -25.9789  -25.9611   19.0594 H   0  0  0  0  0  0
  -23.9628  -27.3123   19.0370 H   0  0  0  0  0  0
  -23.7031  -30.6169   19.4062 H   0  0  0  0  0  0
  -22.7300  -29.2522   19.8717 H   0  0  0  0  0  0
  -25.1285  -36.2000   25.0849 H   0  0  0  0  0  0
  -20.9934  -28.3206   24.1489 H   0  0  0  0  0  0
  -20.5792  -26.2216   23.3603 H   0  0  0  0  0  0
  -21.6653  -26.7506   22.1172 H   0  0  0  0  0  0
  -19.6965  -25.6306   21.1246 H   0  0  0  0  0  0
  -19.6751  -27.3228   20.6815 H   0  0  0  0  0  0
  -17.4228  -26.6711   21.3987 H   0  0  0  0  0  0
  -18.0278  -26.0069   22.9006 H   0  0  0  0  0  0
  -19.7927  -30.7247   24.2303 H   0  0  0  0  0  0
  -17.4997  -31.6259   24.5165 H   0  0  0  0  0  0
  -15.5334  -30.2974   23.7650 H   0  0  0  0  0  0
  -15.8669  -28.0827   22.7043 H   0  0  0  0  0  0
  -24.5949  -30.6916   25.7673 H   0  0  0  0  0  0
  -24.8800  -32.2719   26.4822 H   0  0  0  0  0  0
  -25.8035  -30.8776   27.0148 H   0  0  0  0  0  0
  -26.2809  -29.6763   24.1107 H   0  0  0  0  0  0
  -27.4263  -29.7287   25.4328 H   0  0  0  0  0  0
  -27.8544  -30.4443   23.8954 H   0  0  0  0  0  0
  -27.2755  -33.3613   26.1958 H   0  0  0  0  0  0
  -28.3871  -32.6732   25.0218 H   0  0  0  0  0  0
  -28.0702  -31.8376   26.5346 H   0  0  0  0  0  0
  -28.2601  -38.0131   24.7534 H   0  0  0  0  0  0
  -28.1136  -36.2653   24.6285 H   0  0  0  0  0  0
  -27.2319  -37.1460   25.8876 H   0  0  0  0  0  0
  -20.9339  -29.8694   21.6967 H   0  0  0  0  0  0
  -26.0251  -38.2874   24.1374 H   0  0  0  0  0  0
  -26.8323  -23.9188   24.2921 H   0  0  0  0  0  0
  -27.9924  -17.4073   20.3977 H   0  0  0  0  0  0
  -29.0714  -18.6085   19.7292 H   0  0  0  0  0  0
  -29.5523  -17.4127   23.8201 H   0  0  0  0  0  0
  -28.2300  -16.7528   22.8919 H   0  0  0  0  0  0
  -31.0234  -17.1139   20.0330 H   0  0  0  0  0  0
  -29.8105  -16.3575   19.0337 H   0  0  0  0  0  0
  -29.9615  -15.0614   23.0324 H   0  0  0  0  0  0
  -31.2108  -16.1850   22.5543 H   0  0  0  0  0  0
  -30.3613  -18.6674   21.8520 H   0  0  0  0  0  0
  -27.1789  -26.0952   23.9539 H   0  0  0  0  0  0
  -26.3907  -26.4364   22.4314 H   0  0  0  0  0  0
  -28.1433  -26.7162   22.6441 H   0  0  0  0  0  0
  -26.3723  -21.8157   24.9088 H   0  0  0  0  0  0
  -27.8894  -20.9663   24.7942 H   0  0  0  0  0  0
  -26.4715  -20.4657   23.8321 H   0  0  0  0  0  0
  -29.9655  -22.4174   19.5394 H   0  0  0  0  0  0
  -28.5510  -23.0471   18.6861 H   0  0  0  0  0  0
  -28.5361  -21.4257   19.2601 H   0  0  0  0  0  0
  -27.8188  -25.0372   19.0972 H   0  0  0  0  0  0
  -29.4334  -25.0829   19.6812 H   0  0  0  0  0  0
  -28.8208  -19.7294   23.3271 H   0  0  0  0  0  0
  -27.4101  -19.1054   22.4418 H   0  0  0  0  0  0
  1 25  1  0  0  0
  1 30  2  0  0  0
  1 87  1  0  0  0
  2  3  1  0  0  0
  2 25  1  0  0  0
  2 89  1  0  0  0
  2 90  1  0  0  0
  3  4  1  0  0  0
  3 91  1  0  0  0
  3 92  1  0  0  0
  4  5  1  0  0  0
  4 93  1  0  0  0
  4 94  1  0  0  0
  5  6  1  0  0  0
  5 26  1  0  0  0
  5 95  1  0  0  0
  6 25  1  0  0  0
  6 96  1  0  0  0
  6 97  1  0  0  0
  7  8  2  0  0  0
  7 26  1  0  0  0
  7 29  1  0  0  0
  8  9  1  0  0  0
  8 22  1  0  0  0
  9 10  1  0  0  0
  9 27  2  0  0  0
 10 11  2  0  0  0
 10 15  1  0  0  0
 11 12  1  0  0  0
 11 98  1  0  0  0
 12 13  2  0  0  0
 12 99  1  0  0  0
 13 14  1  0  0  0
 13 31  1  0  0  0
 14 15  2  0  0  0
 14100  1  0  0  0
 15101  1  0  0  0
 16 17  2  0  0  0
 16 21  1  0  0  0
 16 31  1  0  0  0
 17 18  1  0  0  0
 17102  1  0  0  0
 18 19  2  0  0  0
 18103  1  0  0  0
 19 20  1  0  0  0
 19 24  1  0  0  0
 20 21  2  0  0  0
 20104  1  0  0  0
 21 23  1  0  0  0
 22 28  1  0  0  0
 22 32  2  0  0  0
 26 27  1  0  0  0
 28105  1  0  0  0
 28106  1  0  0  0
 29107  1  0  0  0
 29108  1  0  0  0
 33 34  1  0  0  0
 33 66  1  0  0  0
 33 70  2  0  0  0
 34 36  1  0  0  0
 34 59  1  0  0  0
 34109  1  0  0  0
 35 44  2  0  0  0
 35 45  1  0  0  0
 35 68  1  0  0  0
 36 56  1  0  0  0
 36110  1  0  0  0
 37 39  1  0  0  0
 37 47  1  0  0  0
 37 66  1  0  0  0
 37111  1  0  0  0
 38 43  2  0  0  0
 38 46  1  0  0  0
 38 47  1  0  0  0
 39 64  1  0  0  0
 39 67  2  0  0  0
 40 52  1  0  0  0
 40 53  2  0  0  0
 40 58  1  0  0  0
 41112  1  0  0  0
 41113  1  0  0  0
 41114  1  0  0  0
 41 48  1  0  0  0
 42 43  1  0  0  0
 42 66  1  0  0  0
 42115  1  0  0  0
 42116  1  0  0  0
 43 44  1  0  0  0
 44117  1  0  0  0
 45 46  2  0  0  0
 45118  1  0  0  0
 46119  1  0  0  0
 47120  1  0  0  0
 47121  1  0  0  0
 48 56  1  0  0  0
 48 65  1  0  0  0
 48122  1  0  0  0
 49 50  1  0  0  0
 49 53  1  0  0  0
 49 64  1  0  0  0
 49123  1  0  0  0
 50 51  1  0  0  0
 50124  1  0  0  0
 50125  1  0  0  0
 51 52  1  0  0  0
 51126  1  0  0  0
 51127  1  0  0  0
 52128  1  0  0  0
 52129  1  0  0  0
 53 54  1  0  0  0
 54 55  2  0  0  0
 54130  1  0  0  0
 55 57  1  0  0  0
 55131  1  0  0  0
 56 69  2  0  0  0
 57 58  2  0  0  0
 57132  1  0  0  0
 58133  1  0  0  0
 59 60  1  0  0  0
 59 61  1  0  0  0
 59 62  1  0  0  0
 60134  1  0  0  0
 60135  1  0  0  0
 60136  1  0  0  0
 61137  1  0  0  0
 61138  1  0  0  0
 61139  1  0  0  0
 62140  1  0  0  0
 62141  1  0  0  0
 62142  1  0  0  0
 63 65  1  0  0  0
 63143  1  0  0  0
 63144  1  0  0  0
 63145  1  0  0  0
 64146  1  0  0  0
 65147  1  0  0  0
 68 85  1  0  0  0
 71 72  2  0  0  0
 71 73  1  0  0  0
 71148  1  0  0  0
 72 74  1  0  0  0
 72 82  1  0  0  0
 73 76  2  0  0  0
 73 83  1  0  0  0
 74 75  2  0  0  0
 74 85  1  0  0  0
 75 76  1  0  0  0
 75 84  1  0  0  0
 76 88  1  0  0  0
 77 79  1  0  0  0
 77 81  1  0  0  0
 77149  1  0  0  0
 77150  1  0  0  0
 78 80  1  0  0  0
 78 81  1  0  0  0
 78151  1  0  0  0
 78152  1  0  0  0
 79 87  1  0  0  0
 79153  1  0  0  0
 79154  1  0  0  0
 80 87  1  0  0  0
 80155  1  0  0  0
 80156  1  0  0  0
 81 86  1  0  0  0
 81157  1  0  0  0
 82158  1  0  0  0
 82159  1  0  0  0
 82160  1  0  0  0
 83161  1  0  0  0
 83162  1  0  0  0
 83163  1  0  0  0
 84164  1  0  0  0
 84165  1  0  0  0
 84166  1  0  0  0
 85167  1  0  0  0
 85168  1  0  0  0
 86 88  1  0  0  0
 86169  1  0  0  0
 86170  1  0  0  0
M  ISO  4   1 100  68 101  85 101  87 100
M  END
> <chiral flag>
0

> <version>
0

> <s_m_source_file>
/data/baiqing/PycharmProjects/Reinvent-master-3.2/result/LINK_invent/BTK/process_docking_weight1_custom_sum_contain_oxygen_bond_distance_aromatic_linkinvent_7_9_3/rearranged_h_0160.sdf

> <i_m_source_file_index>
29

> <r_mmod_Potential_Energy-OPLS-2005>
237.338653564453

> <r_mmod_Stretch_Energy-OPLS-2005>
48.9105033874512

> <r_mmod_Bend_Energy-OPLS-2005>
158.351791381836

> <r_mmod_Torsional_Energy-OPLS-2005>
319.175659179688

> <r_mmod_Improper_Torsional_Energy-OPLS-2005>
10.5513935089111

> <r_mmod_Van_der_Waal_Energy-OPLS-2005>
176.116622924805

> <r_mmod_Electrostatic_Energy-OPLS-2005>
-301.63232421875

> <r_mmod_Solvation_Energy-OPLS-2005>
-189.977966308594

> <b_mmod_Minimization_Converged-OPLS-2005>
0

> <r_mmod_RMS_Derivative-OPLS-2005>
2.89400720596313

$$$$
29
                    3D
 Structure written by MMmdl.
159168  0  0  1  0            999 V2000
  -30.6408  -14.6028   20.5204 C   0  0  0  0  0  0
  -30.4292  -12.3814   19.4312 C   0  0  0  0  0  0
  -29.4953  -12.4985   18.2088 C   0  0  0  0  0  0
  -28.0199  -12.3405   18.6281 C   0  0  0  0  0  0
  -27.6473  -13.2136   19.8555 C   0  0  2  0  0  0
  -28.6931  -13.0666   20.9812 C   0  0  0  0  0  0
  -25.2537  -13.8166   20.5668 C   0  0  0  0  0  0
  -24.1810  -13.0434   20.9186 C   0  0  0  0  0  0
  -24.6375  -11.6906   20.8748 C   0  0  0  0  0  0
  -23.9046  -10.4289   21.0403 C   0  0  0  0  0  0
  -24.3604   -9.4205   21.9182 C   0  0  0  0  0  0
  -23.6280   -8.2246   22.0758 C   0  0  0  0  0  0
  -22.4270   -8.0281   21.3535 C   0  0  0  0  0  0
  -21.9896   -9.0250   20.4639 C   0  0  0  0  0  0
  -22.7221  -10.2128   20.3045 C   0  0  0  0  0  0
  -21.6855   -6.0727   22.5268 C   0  0  0  0  0  0
  -21.4006   -6.5625   23.8196 C   0  0  0  0  0  0
  -21.3662   -5.6788   24.9162 C   0  0  0  0  0  0
  -21.6052   -4.3051   24.7213 C   0  0  0  0  0  0
  -21.8824   -3.8140   23.4340 C   0  0  0  0  0  0
  -21.9180   -4.6957   22.3395 C   0  0  0  0  0  0
  -22.7833  -13.5226   21.1855 C   0  0  0  0  0  0
  -22.1660   -4.2143   21.0975 F   0  0  0  0  0  0
  -21.5635   -3.4540   25.7721 F   0  0  0  0  0  0
  -30.0024  -13.4014   20.4040 N   0  0  0  0  0  0
  -26.2950  -12.9339   20.3292 N   0  0  0  0  0  0
  -25.9290  -11.6500   20.5749 N   0  0  0  0  0  0
  -22.0472  -12.8217   22.0409 N   0  0  0  0  0  0
  -25.4256  -15.1888   20.4095 N   0  0  0  0  0  0
  -31.8221  -14.7447   20.1925 O   0  0  0  0  0  0
  -21.6639   -6.8875   21.4236 O   0  0  0  0  0  0
  -22.3515  -14.5538   20.6712 O   0  0  0  0  0  0
  -24.6230  -31.8634   23.2039 C   0  0  0  0  0  0
  -25.9109  -32.4784   23.8351 C   0  0  1  0  0  0
  -27.2225  -27.3502   20.1205 C   0  0  0  0  0  0
  -25.5968  -33.8575   24.2303 N   0  0  0  0  0  0
  -23.4149  -30.4829   21.5479 C   0  0  2  0  0  0
  -24.8591  -28.9319   20.1250 C   0  0  0  0  0  0
  -22.7448  -29.4635   22.4980 C   0  0  0  0  0  0
  -18.0283  -28.1363   22.8474 C   0  0  0  0  0  0
  -24.1481  -36.7278   23.2644 C   0  0  0  0  0  0
  -25.9480  -30.7994   21.3718 C   0  0  0  0  0  0
  -26.0243  -29.4228   20.7296 C   0  0  0  0  0  0
  -27.2136  -28.6414   20.7222 C   0  0  0  0  0  0
  -26.0427  -26.8949   19.5027 C   0  0  0  0  0  0
  -24.8650  -27.6678   19.5084 C   0  0  0  0  0  0
  -23.6289  -29.8142   20.1642 C   0  0  0  0  0  0
  -25.4110  -36.3078   24.0332 C   0  0  1  0  0  0
  -20.5860  -28.3667   23.1281 C   0  0  2  0  0  0
  -20.6775  -26.9400   22.5403 C   0  0  0  0  0  0
  -19.5764  -26.6377   21.5197 C   0  0  0  0  0  0
  -18.1930  -26.7904   22.1594 C   0  0  0  0  0  0
  -19.1524  -28.8835   23.2865 C   0  0  0  0  0  0
  -18.9468  -30.1441   23.8884 C   0  0  0  0  0  0
  -17.6472  -30.6589   24.0541 C   0  0  0  0  0  0
  -25.9060  -34.9451   23.5108 C   0  0  0  0  0  0
  -16.5364  -29.9071   23.6316 C   0  0  0  0  0  0
  -16.7270  -28.6478   23.0346 C   0  0  0  0  0  0
  -26.4519  -31.6576   25.0698 C   0  0  0  0  0  0
  -25.3763  -31.3678   26.1437 C   0  0  0  0  0  0
  -27.0376  -30.3018   24.6094 C   0  0  0  0  0  0
  -27.6089  -32.4302   25.7474 C   0  0  0  0  0  0
  -27.5579  -37.1791   24.8475 C   0  0  0  0  0  0
  -21.4173  -29.3027   22.3703 N   0  0  0  0  0  0
  -26.4291  -37.3775   23.9421 N   0  0  0  0  0  0
  -24.6805  -31.0646   22.0990 N   0  0  0  0  0  0
  -23.4193  -28.8199   23.3072 O   0  0  0  0  0  0
  -28.3678  -26.5736   19.9965 O   0  0  0  0  0  0
  -26.5597  -34.8937   22.4651 O   0  0  0  0  0  0
  -23.5413  -32.1429   23.7384 O   0  0  0  0  0  0
  -31.2259  -19.1283   20.4776 C   0  0  0  0  0  0
  -28.8533  -20.4961   20.6147 C   0  0  0  0  0  0
  -30.0853  -18.3792   20.8704 C   0  0  0  0  0  0
  -28.8463  -19.0974   20.9119 C   0  0  0  0  0  0
  -30.0522  -21.1175   20.3393 C   0  0  0  0  0  0
  -29.8963  -22.6333   20.2887 C   0  0  0  0  0  0
  -27.7487  -21.5648   20.6549 C   0  0  2  0  0  0
  -26.5445  -21.2589   19.7472 C   0  0  0  0  0  0
  -30.3237  -16.9543   21.4879 C   0  0  0  0  0  0
  -27.8346  -24.1189   20.9057 C   0  0  0  0  0  0
  -28.6321  -25.4901   20.9358 C   0  0  0  0  0  0
  -31.2303  -20.4669   20.2351 N   0  0  0  0  0  0
  -29.8663  -15.6723   20.8691 N   0  0  0  0  0  0
  -28.4176  -22.8673   20.2534 N   0  3  1  0  0  0
  -27.3976  -18.3004   21.4143 Cl  0  0  0  0  0  0
  -31.4700  -12.5104   19.1253 H   0  0  0  0  0  0
  -30.3668  -11.3876   19.8738 H   0  0  0  0  0  0
  -29.7547  -11.7438   17.4633 H   0  0  0  0  0  0
  -29.6402  -13.4668   17.7257 H   0  0  0  0  0  0
  -27.8539  -11.2871   18.8587 H   0  0  0  0  0  0
  -27.3636  -12.5745   17.7879 H   0  0  0  0  0  0
  -27.6650  -14.2492   19.5150 H   0  0  0  0  0  0
  -28.7024  -12.0460   21.3674 H   0  0  0  0  0  0
  -28.4446  -13.7065   21.8298 H   0  0  0  0  0  0
  -25.2743   -9.5688   22.4766 H   0  0  0  0  0  0
  -23.9977   -7.4641   22.7479 H   0  0  0  0  0  0
  -21.0833   -8.8771   19.8941 H   0  0  0  0  0  0
  -22.3682  -10.9673   19.6163 H   0  0  0  0  0  0
  -21.2008   -7.6130   23.9693 H   0  0  0  0  0  0
  -21.1486   -6.0517   25.9064 H   0  0  0  0  0  0
  -22.0604   -2.7599   23.2834 H   0  0  0  0  0  0
  -22.4077  -11.9859   22.4770 H   0  0  0  0  0  0
  -21.1097  -13.1256   22.2633 H   0  0  0  0  0  0
  -24.6638  -15.8461   20.5376 H   0  0  0  0  0  0
  -26.2754  -15.6325   20.0870 H   0  0  0  0  0  0
  -26.7161  -32.5472   23.1100 H   0  0  0  0  0  0
  -25.0170  -33.9692   25.0480 H   0  0  0  0  0  0
  -22.7088  -31.3013   21.4039 H   0  0  0  0  0  0
  -23.3753  -35.9602   23.3322 H   0  0  0  0  0  0
  -24.3591  -36.8873   22.2059 H   0  0  0  0  0  0
  -23.7224  -37.6477   23.6653 H   0  0  0  0  0  0
  -26.0667  -31.5578   20.5963 H   0  0  0  0  0  0
  -26.8326  -30.8552   21.9922 H   0  0  0  0  0  0
  -28.1206  -29.0233   21.1709 H   0  0  0  0  0  0
  -26.0366  -25.9404   18.9953 H   0  0  0  0  0  0
  -23.9749  -27.2872   19.0271 H   0  0  0  0  0  0
  -23.7481  -30.5894   19.4050 H   0  0  0  0  0  0
  -22.7471  -29.2443   19.8635 H   0  0  0  0  0  0
  -25.1277  -36.1943   25.0816 H   0  0  0  0  0  0
  -20.9937  -28.3269   24.1406 H   0  0  0  0  0  0
  -20.5712  -26.2286   23.3607 H   0  0  0  0  0  0
  -21.6644  -26.7452   22.1173 H   0  0  0  0  0  0
  -19.6940  -25.6285   21.1220 H   0  0  0  0  0  0
  -19.6695  -27.3203   20.6729 H   0  0  0  0  0  0
  -17.4200  -26.6653   21.4006 H   0  0  0  0  0  0
  -18.0311  -26.0059   22.8990 H   0  0  0  0  0  0
  -19.7971  -30.7209   24.2287 H   0  0  0  0  0  0
  -17.5052  -31.6282   24.5136 H   0  0  0  0  0  0
  -15.5366  -30.2972   23.7683 H   0  0  0  0  0  0
  -15.8657  -28.0812   22.7067 H   0  0  0  0  0  0
  -24.5960  -30.6999   25.7775 H   0  0  0  0  0  0
  -24.8925  -32.2814   26.4882 H   0  0  0  0  0  0
  -25.8111  -30.8864   27.0201 H   0  0  0  0  0  0
  -26.2917  -29.6731   24.1219 H   0  0  0  0  0  0
  -27.4224  -29.7308   25.4552 H   0  0  0  0  0  0
  -27.8718  -30.4326   23.9204 H   0  0  0  0  0  0
  -27.2708  -33.3622   26.2020 H   0  0  0  0  0  0
  -28.3923  -32.6818   25.0307 H   0  0  0  0  0  0
  -28.0722  -31.8426   26.5411 H   0  0  0  0  0  0
  -28.2582  -38.0102   24.7531 H   0  0  0  0  0  0
  -28.1075  -36.2622   24.6279 H   0  0  0  0  0  0
  -27.2284  -37.1409   25.8875 H   0  0  0  0  0  0
  -20.9403  -29.8753   21.6875 H   0  0  0  0  0  0
  -26.0178  -38.2843   24.1456 H   0  0  0  0  0  0
  -32.1974  -18.6554   20.4506 H   0  0  0  0  0  0
  -30.3885  -23.0572   19.4135 H   0  0  0  0  0  0
  -30.3486  -23.0495   21.1880 H   0  0  0  0  0  0
  -27.4159  -21.6281   21.6927 H   0  0  0  0  0  0
  -26.8444  -21.1456   18.7054 H   0  0  0  0  0  0
  -25.7964  -22.0517   19.7972 H   0  0  0  0  0  0
  -26.0408  -20.3416   20.0493 H   0  0  0  0  0  0
  -29.8618  -16.9796   22.4764 H   0  0  0  0  0  0
  -31.3890  -16.8642   21.7022 H   0  0  0  0  0  0
  -26.8266  -24.2827   20.5265 H   0  0  0  0  0  0
  -27.6911  -23.8574   21.9547 H   0  0  0  0  0  0
  -29.7010  -25.2933   20.8873 H   0  0  0  0  0  0
  -28.4879  -25.9284   21.9252 H   0  0  0  0  0  0
  -28.8871  -15.4590   20.9857 H   0  0  0  0  0  0
  -28.2365  -22.9614   19.2651 H   0  0  0  0  0  0
  1 25  1  0  0  0
  1 30  2  0  0  0
  1 83  1  0  0  0
  2  3  1  0  0  0
  2 25  1  0  0  0
  2 86  1  0  0  0
  2 87  1  0  0  0
  3  4  1  0  0  0
  3 88  1  0  0  0
  3 89  1  0  0  0
  4  5  1  0  0  0
  4 90  1  0  0  0
  4 91  1  0  0  0
  5  6  1  0  0  0
  5 26  1  0  0  0
  5 92  1  0  0  0
  6 25  1  0  0  0
  6 93  1  0  0  0
  6 94  1  0  0  0
  7  8  2  0  0  0
  7 26  1  0  0  0
  7 29  1  0  0  0
  8  9  1  0  0  0
  8 22  1  0  0  0
  9 10  1  0  0  0
  9 27  2  0  0  0
 10 11  2  0  0  0
 10 15  1  0  0  0
 11 12  1  0  0  0
 11 95  1  0  0  0
 12 13  2  0  0  0
 12 96  1  0  0  0
 13 14  1  0  0  0
 13 31  1  0  0  0
 14 15  2  0  0  0
 14 97  1  0  0  0
 15 98  1  0  0  0
 16 17  2  0  0  0
 16 21  1  0  0  0
 16 31  1  0  0  0
 17 18  1  0  0  0
 17 99  1  0  0  0
 18 19  2  0  0  0
 18100  1  0  0  0
 19 20  1  0  0  0
 19 24  1  0  0  0
 20 21  2  0  0  0
 20101  1  0  0  0
 21 23  1  0  0  0
 22 28  1  0  0  0
 22 32  2  0  0  0
 26 27  1  0  0  0
 28102  1  0  0  0
 28103  1  0  0  0
 29104  1  0  0  0
 29105  1  0  0  0
 33 34  1  0  0  0
 33 66  1  0  0  0
 33 70  2  0  0  0
 34 36  1  0  0  0
 34 59  1  0  0  0
 34106  1  0  0  0
 35 44  2  0  0  0
 35 45  1  0  0  0
 35 68  1  0  0  0
 36 56  1  0  0  0
 36107  1  0  0  0
 37 39  1  0  0  0
 37 47  1  0  0  0
 37 66  1  0  0  0
 37108  1  0  0  0
 38 43  2  0  0  0
 38 46  1  0  0  0
 38 47  1  0  0  0
 39 64  1  0  0  0
 39 67  2  0  0  0
 40 52  1  0  0  0
 40 53  2  0  0  0
 40 58  1  0  0  0
 41109  1  0  0  0
 41110  1  0  0  0
 41111  1  0  0  0
 41 48  1  0  0  0
 42 43  1  0  0  0
 42 66  1  0  0  0
 42112  1  0  0  0
 42113  1  0  0  0
 43 44  1  0  0  0
 44114  1  0  0  0
 45 46  2  0  0  0
 45115  1  0  0  0
 46116  1  0  0  0
 47117  1  0  0  0
 47118  1  0  0  0
 48 56  1  0  0  0
 48 65  1  0  0  0
 48119  1  0  0  0
 49 50  1  0  0  0
 49 53  1  0  0  0
 49 64  1  0  0  0
 49120  1  0  0  0
 50 51  1  0  0  0
 50121  1  0  0  0
 50122  1  0  0  0
 51 52  1  0  0  0
 51123  1  0  0  0
 51124  1  0  0  0
 52125  1  0  0  0
 52126  1  0  0  0
 53 54  1  0  0  0
 54 55  2  0  0  0
 54127  1  0  0  0
 55 57  1  0  0  0
 55128  1  0  0  0
 56 69  2  0  0  0
 57 58  2  0  0  0
 57129  1  0  0  0
 58130  1  0  0  0
 59 60  1  0  0  0
 59 61  1  0  0  0
 59 62  1  0  0  0
 60131  1  0  0  0
 60132  1  0  0  0
 60133  1  0  0  0
 61134  1  0  0  0
 61135  1  0  0  0
 61136  1  0  0  0
 62137  1  0  0  0
 62138  1  0  0  0
 62139  1  0  0  0
 63 65  1  0  0  0
 63140  1  0  0  0
 63141  1  0  0  0
 63142  1  0  0  0
 64143  1  0  0  0
 65144  1  0  0  0
 68 81  1  0  0  0
 71 73  2  0  0  0
 71 82  1  0  0  0
 71145  1  0  0  0
 72 74  2  0  0  0
 72 75  1  0  0  0
 72 77  1  0  0  0
 73 74  1  0  0  0
 73 79  1  0  0  0
 74 85  1  0  0  0
 75 76  1  0  0  0
 75 82  2  0  0  0
 76 84  1  0  0  0
 76146  1  0  0  0
 76147  1  0  0  0
 77 78  1  0  0  0
 77 84  1  0  0  0
 77148  1  0  0  0
 78149  1  0  0  0
 78150  1  0  0  0
 78151  1  0  0  0
 79 83  1  0  0  0
 79152  1  0  0  0
 79153  1  0  0  0
 80 81  1  0  0  0
 80154  1  0  0  0
 80155  1  0  0  0
 80 84  1  0  0  0
 81156  1  0  0  0
 81157  1  0  0  0
 83158  1  0  0  0
 84159  1  0  0  0
M  CHG  1  84   1
M  ISO  4   1 100  68 101  81 101  83 100
M  END
> <chiral flag>
0

> <version>
0

> <s_m_source_file>
/data/baiqing/PycharmProjects/Reinvent-master-3.2/result/LINK_invent/BTK/process_docking_weight1_custom_sum_contain_oxygen_bond_distance_aromatic_linkinvent_7_9_3/rearranged_h_0160.sdf

> <i_m_source_file_index>
30

> <r_mmod_Potential_Energy-OPLS-2005>
-172.438262939453

> <r_mmod_Stretch_Energy-OPLS-2005>
66.5568084716797

> <r_mmod_Bend_Energy-OPLS-2005>
198.804229736328

> <r_mmod_Torsional_Energy-OPLS-2005>
267.198181152344

> <r_mmod_Improper_Torsional_Energy-OPLS-2005>
7.18540954589844

> <r_mmod_Van_der_Waal_Energy-OPLS-2005>
130.941513061523

> <r_mmod_Electrostatic_Energy-OPLS-2005>
-427.712738037109

> <r_mmod_Solvation_Energy-OPLS-2005>
-450.802825927734

> <b_mmod_Minimization_Converged-OPLS-2005>
0

> <r_mmod_RMS_Derivative-OPLS-2005>
3.09532427787781

$$$$
30
                    3D
 Structure written by MMmdl.
162171  0  0  1  0            999 V2000
  -29.8627  -16.9088   20.1166 C   0  0  0  0  0  0
  -30.3389  -13.9783   19.4409 C   0  0  0  0  0  0
  -29.6069  -13.0147   18.4035 C   0  0  0  0  0  0
  -28.2999  -12.4146   18.9400 C   0  0  0  0  0  0
  -27.6105  -13.4685   19.8113 C   0  0  2  0  0  0
  -28.5700  -14.3086   20.7653 C   0  0  0  0  0  0
  -25.2383  -13.8546   20.6035 C   0  0  0  0  0  0
  -24.1843  -13.0522   20.9367 C   0  0  0  0  0  0
  -24.6743  -11.7059   20.8743 C   0  0  0  0  0  0
  -23.9378  -10.4340   21.0281 C   0  0  0  0  0  0
  -24.3776   -9.4234   21.9142 C   0  0  0  0  0  0
  -23.6381   -8.2304   22.0749 C   0  0  0  0  0  0
  -22.4368   -8.0326   21.3529 C   0  0  0  0  0  0
  -22.0053   -9.0315   20.4619 C   0  0  0  0  0  0
  -22.7476  -10.2179   20.3003 C   0  0  0  0  0  0
  -21.6856   -6.0774   22.5288 C   0  0  0  0  0  0
  -21.3999   -6.5648   23.8235 C   0  0  0  0  0  0
  -21.3672   -5.6798   24.9184 C   0  0  0  0  0  0
  -21.6050   -4.3064   24.7236 C   0  0  0  0  0  0
  -21.8816   -3.8161   23.4350 C   0  0  0  0  0  0
  -21.9194   -4.6992   22.3406 C   0  0  0  0  0  0
  -22.7792  -13.5097   21.1880 C   0  0  0  0  0  0
  -22.1659   -4.2164   21.0996 F   0  0  0  0  0  0
  -21.5658   -3.4551   25.7753 F   0  0  0  0  0  0
  -29.5249  -15.2775   19.9771 N   0  0  0  0  0  0
  -26.3154  -13.0281   20.3682 N   0  0  0  0  0  0
  -25.9824  -11.7133   20.5718 N   0  0  0  0  0  0
  -22.0421  -12.8078   22.0425 N   0  0  0  0  0  0
  -25.3665  -15.2298   20.4405 N   0  0  0  0  0  0
  -30.8555  -16.3299   20.7502 O   0  0  0  0  0  0
  -21.6659   -6.8955   21.4262 O   0  0  0  0  0  0
  -22.3396  -14.5368   20.6682 O   0  0  0  0  0  0
  -24.7702  -31.6879   23.0754 C   0  0  0  0  0  0
  -25.9836  -32.3943   23.7655 C   0  0  1  0  0  0
  -27.3303  -25.8490   20.2335 C   0  0  0  0  0  0
  -25.6003  -33.7819   24.1452 N   0  0  0  0  0  0
  -23.6376  -30.2433   21.4535 C   0  0  2  0  0  0
  -25.1106  -28.3954   20.1409 C   0  0  0  0  0  0
  -22.8166  -29.3711   22.4503 C   0  0  0  0  0  0
  -18.0386  -28.1464   22.8411 C   0  0  0  0  0  0
  -24.1490  -36.6915   23.2671 C   0  0  0  0  0  0
  -26.2449  -30.1382   21.4656 C   0  0  0  0  0  0
  -26.3141  -28.6045   20.8225 C   0  0  0  0  0  0
  -27.3555  -27.3922   20.8119 C   0  0  0  0  0  0
  -26.0743  -26.0654   19.5059 C   0  0  0  0  0  0
  -25.0774  -27.1540   19.4578 C   0  0  0  0  0  0
  -23.9352  -29.4455   20.1331 C   0  0  0  0  0  0
  -25.4169  -36.2594   24.0233 C   0  0  1  0  0  0
  -20.6066  -28.3842   23.0987 C   0  0  2  0  0  0
  -20.6798  -26.9421   22.5424 C   0  0  0  0  0  0
  -19.5785  -26.6334   21.5228 C   0  0  0  0  0  0
  -18.1969  -26.7977   22.1613 C   0  0  0  0  0  0
  -19.1681  -28.8997   23.2656 C   0  0  0  0  0  0
  -18.9567  -30.1566   23.8725 C   0  0  0  0  0  0
  -17.6549  -30.6620   24.0524 C   0  0  0  0  0  0
  -25.9201  -34.9007   23.4767 C   0  0  0  0  0  0
  -16.5433  -29.9087   23.6383 C   0  0  0  0  0  0
  -16.7361  -28.6523   23.0384 C   0  0  0  0  0  0
  -26.4738  -31.6364   25.0635 C   0  0  0  0  0  0
  -25.3577  -31.3853   26.1075 C   0  0  0  0  0  0
  -27.0811  -30.2632   24.7131 C   0  0  0  0  0  0
  -27.6024  -32.4426   25.7475 C   0  0  0  0  0  0
  -27.5566  -37.1555   24.8450 C   0  0  0  0  0  0
  -21.4738  -29.2898   22.3220 N   0  0  0  0  0  0
  -26.4202  -37.3478   23.9462 N   0  0  0  0  0  0
  -24.9218  -30.7438   22.0506 N   0  0  0  0  0  0
  -23.4187  -28.7488   23.3272 O   0  0  0  0  0  0
  -28.2361  -24.2679   20.2503 O   0  0  0  0  0  0
  -26.6004  -34.8769   22.4492 O   0  0  0  0  0  0
  -23.6549  -32.0333   23.5143 O   0  0  0  0  0  0
  -31.8412  -17.8033   19.1162 C   0  0  0  0  0  0
  -30.9557  -19.2321   20.1842 C   0  0  0  0  0  0
  -30.6052  -16.6769   17.9224 C   0  0  0  0  0  0
  -29.1230  -19.8560   20.0496 C   0  0  0  0  0  0
  -28.5743  -17.0149   18.1373 C   0  0  0  0  0  0
  -29.7295  -19.1433   16.1413 C   0  0  0  0  0  0
  -29.4756  -19.8577   17.4537 C   0  0  0  0  0  0
  -30.7989  -18.4299   16.8952 C   0  0  2  0  0  0
  -33.3382  -17.5773   19.1466 C   0  0  0  0  0  0
  -31.9307  -20.1244   20.9342 C   0  0  0  0  0  0
  -27.5514  -16.4619   17.1698 C   0  0  0  0  0  0
  -31.0384  -16.9566   16.5849 C   0  0  0  0  0  0
  -28.2950  -22.0532   20.0578 C   0  0  0  0  0  0
  -28.0672  -18.4699   19.3071 N   0  0  0  0  0  0
  -30.0139  -18.6407   18.2526 N   0  0  0  0  0  0
  -31.2278  -14.3611   18.9425 H   0  0  0  0  0  0
  -30.7684  -13.4036   20.2638 H   0  0  0  0  0  0
  -30.2868  -12.2189   18.0986 H   0  0  0  0  0  0
  -29.3857  -13.5872   17.5023 H   0  0  0  0  0  0
  -28.5423  -11.5518   19.5620 H   0  0  0  0  0  0
  -27.6525  -12.0571   18.1384 H   0  0  0  0  0  0
  -27.3053  -14.1999   19.0695 H   0  0  0  0  0  0
  -29.0743  -13.6654   21.4888 H   0  0  0  0  0  0
  -27.9630  -14.9566   21.3962 H   0  0  0  0  0  0
  -25.2895   -9.5670   22.4783 H   0  0  0  0  0  0
  -24.0021   -7.4689   22.7508 H   0  0  0  0  0  0
  -21.0985   -8.8845   19.8938 H   0  0  0  0  0  0
  -22.3891  -10.9691   19.6102 H   0  0  0  0  0  0
  -21.1927   -7.6148   23.9732 H   0  0  0  0  0  0
  -21.1518   -6.0533   25.9102 H   0  0  0  0  0  0
  -22.0574   -2.7624   23.2855 H   0  0  0  0  0  0
  -22.4034  -11.9801   22.4928 H   0  0  0  0  0  0
  -21.1019  -13.1067   22.2505 H   0  0  0  0  0  0
  -24.5924  -15.8734   20.5642 H   0  0  0  0  0  0
  -26.2298  -15.6933   20.1854 H   0  0  0  0  0  0
  -26.8046  -32.4321   23.0484 H   0  0  0  0  0  0
  -24.9884  -33.8683   24.9422 H   0  0  0  0  0  0
  -23.0182  -31.1007   21.1818 H   0  0  0  0  0  0
  -23.3867  -35.9114   23.3047 H   0  0  0  0  0  0
  -24.3571  -36.8925   22.2154 H   0  0  0  0  0  0
  -23.7102  -37.5900   23.7008 H   0  0  0  0  0  0
  -26.5371  -30.8116   20.6575 H   0  0  0  0  0  0
  -27.0673  -30.2307   22.1623 H   0  0  0  0  0  0
  -28.2506  -27.6005   21.3855 H   0  0  0  0  0  0
  -25.7752  -25.2027   18.9274 H   0  0  0  0  0  0
  -24.2028  -26.9548   18.8586 H   0  0  0  0  0  0
  -24.1579  -30.1622   19.3428 H   0  0  0  0  0  0
  -23.0284  -28.9366   19.8039 H   0  0  0  0  0  0
  -25.1400  -36.1214   25.0708 H   0  0  0  0  0  0
  -21.0113  -28.3526   24.1132 H   0  0  0  0  0  0
  -20.5561  -26.2492   23.3760 H   0  0  0  0  0  0
  -21.6652  -26.7215   22.1305 H   0  0  0  0  0  0
  -19.6923  -25.6202   21.1352 H   0  0  0  0  0  0
  -19.6756  -27.3060   20.6690 H   0  0  0  0  0  0
  -17.4249  -26.6719   21.4012 H   0  0  0  0  0  0
  -18.0330  -26.0159   22.9037 H   0  0  0  0  0  0
  -19.8039  -30.7419   24.2029 H   0  0  0  0  0  0
  -17.5090  -31.6284   24.5157 H   0  0  0  0  0  0
  -15.5424  -30.2940   23.7782 H   0  0  0  0  0  0
  -15.8762  -28.0777   22.7202 H   0  0  0  0  0  0
  -24.5836  -30.7176   25.7283 H   0  0  0  0  0  0
  -24.8701  -32.3111   26.4131 H   0  0  0  0  0  0
  -25.7550  -30.9199   27.0108 H   0  0  0  0  0  0
  -26.3654  -29.5947   24.2356 H   0  0  0  0  0  0
  -27.4140  -29.7470   25.6153 H   0  0  0  0  0  0
  -27.9666  -30.3598   24.0852 H   0  0  0  0  0  0
  -27.2490  -33.3912   26.1530 H   0  0  0  0  0  0
  -28.4074  -32.6695   25.0469 H   0  0  0  0  0  0
  -28.0442  -31.8922   26.5794 H   0  0  0  0  0  0
  -28.2373  -38.0045   24.7720 H   0  0  0  0  0  0
  -28.1260  -36.2585   24.5992 H   0  0  0  0  0  0
  -27.2312  -37.0821   25.8836 H   0  0  0  0  0  0
  -21.0260  -29.8386   21.5997 H   0  0  0  0  0  0
  -25.9957  -38.2441   24.1632 H   0  0  0  0  0  0
  -30.1377  -19.7215   15.3119 H   0  0  0  0  0  0
  -28.9356  -18.4819   15.7991 H   0  0  0  0  0  0
  -28.4256  -20.1326   17.5449 H   0  0  0  0  0  0
  -30.1044  -20.7465   17.5702 H   0  0  0  0  0  0
  -31.7278  -19.0124   16.8477 H   0  0  0  0  0  0
  -33.5874  -16.9000   19.9644 H   0  0  0  0  0  0
  -33.8752  -18.5120   19.3007 H   0  0  0  0  0  0
  -33.6796  -17.1204   18.2192 H   0  0  0  0  0  0
  -32.4667  -20.7756   20.2454 H   0  0  0  0  0  0
  -32.6714  -19.5089   21.4452 H   0  0  0  0  0  0
  -31.4309  -20.7429   21.6774 H   0  0  0  0  0  0
  -27.8521  -16.6578   16.1416 H   0  0  0  0  0  0
  -26.5761  -16.9150   17.3404 H   0  0  0  0  0  0
  -27.4656  -15.3843   17.2654 H   0  0  0  0  0  0
  -30.3817  -16.5180   15.8334 H   0  0  0  0  0  0
  -32.0801  -16.6751   16.4247 H   0  0  0  0  0  0
  -27.3599  -21.8430   20.5757 H   0  0  0  0  0  0
  -28.0193  -22.0468   19.0020 H   0  0  0  0  0  0
  1 25  1  0  0  0
  1 30  2  0  0  0
  1 85  1  0  0  0
  2  3  1  0  0  0
  2 25  1  0  0  0
  2 86  1  0  0  0
  2 87  1  0  0  0
  3  4  1  0  0  0
  3 88  1  0  0  0
  3 89  1  0  0  0
  4  5  1  0  0  0
  4 90  1  0  0  0
  4 91  1  0  0  0
  5  6  1  0  0  0
  5 26  1  0  0  0
  5 92  1  0  0  0
  6 25  1  0  0  0
  6 93  1  0  0  0
  6 94  1  0  0  0
  7  8  2  0  0  0
  7 26  1  0  0  0
  7 29  1  0  0  0
  8  9  1  0  0  0
  8 22  1  0  0  0
  9 10  1  0  0  0
  9 27  2  0  0  0
 10 11  2  0  0  0
 10 15  1  0  0  0
 11 12  1  0  0  0
 11 95  1  0  0  0
 12 13  2  0  0  0
 12 96  1  0  0  0
 13 14  1  0  0  0
 13 31  1  0  0  0
 14 15  2  0  0  0
 14 97  1  0  0  0
 15 98  1  0  0  0
 16 17  2  0  0  0
 16 21  1  0  0  0
 16 31  1  0  0  0
 17 18  1  0  0  0
 17 99  1  0  0  0
 18 19  2  0  0  0
 18100  1  0  0  0
 19 20  1  0  0  0
 19 24  1  0  0  0
 20 21  2  0  0  0
 20101  1  0  0  0
 21 23  1  0  0  0
 22 28  1  0  0  0
 22 32  2  0  0  0
 26 27  1  0  0  0
 28102  1  0  0  0
 28103  1  0  0  0
 29104  1  0  0  0
 29105  1  0  0  0
 33 34  1  0  0  0
 33 66  1  0  0  0
 33 70  2  0  0  0
 34 36  1  0  0  0
 34 59  1  0  0  0
 34106  1  0  0  0
 35 44  2  0  0  0
 35 45  1  0  0  0
 35 68  1  0  0  0
 36 56  1  0  0  0
 36107  1  0  0  0
 37 39  1  0  0  0
 37 47  1  0  0  0
 37 66  1  0  0  0
 37108  1  0  0  0
 38 43  2  0  0  0
 38 46  1  0  0  0
 38 47  1  0  0  0
 39 64  1  0  0  0
 39 67  2  0  0  0
 40 52  1  0  0  0
 40 53  2  0  0  0
 40 58  1  0  0  0
 41109  1  0  0  0
 41110  1  0  0  0
 41111  1  0  0  0
 41 48  1  0  0  0
 42 43  1  0  0  0
 42 66  1  0  0  0
 42112  1  0  0  0
 42113  1  0  0  0
 43 44  1  0  0  0
 44114  1  0  0  0
 45 46  2  0  0  0
 45115  1  0  0  0
 46116  1  0  0  0
 47117  1  0  0  0
 47118  1  0  0  0
 48 56  1  0  0  0
 48 65  1  0  0  0
 48119  1  0  0  0
 49 50  1  0  0  0
 49 53  1  0  0  0
 49 64  1  0  0  0
 49120  1  0  0  0
 50 51  1  0  0  0
 50121  1  0  0  0
 50122  1  0  0  0
 51 52  1  0  0  0
 51123  1  0  0  0
 51124  1  0  0  0
 52125  1  0  0  0
 52126  1  0  0  0
 53 54  1  0  0  0
 54 55  2  0  0  0
 54127  1  0  0  0
 55 57  1  0  0  0
 55128  1  0  0  0
 56 69  2  0  0  0
 57 58  2  0  0  0
 57129  1  0  0  0
 58130  1  0  0  0
 59 60  1  0  0  0
 59 61  1  0  0  0
 59 62  1  0  0  0
 60131  1  0  0  0
 60132  1  0  0  0
 60133  1  0  0  0
 61134  1  0  0  0
 61135  1  0  0  0
 61136  1  0  0  0
 62137  1  0  0  0
 62138  1  0  0  0
 62139  1  0  0  0
 63 65  1  0  0  0
 63140  1  0  0  0
 63141  1  0  0  0
 63142  1  0  0  0
 64143  1  0  0  0
 65144  1  0  0  0
 68 83  1  0  0  0
 71 72  2  0  0  0
 71 73  1  0  0  0
 71 79  1  0  0  0
 72 74  1  0  0  0
 72 80  1  0  0  0
 73 75  2  0  0  0
 73 82  1  0  0  0
 74 83  1  0  0  0
 74 84  2  0  0  0
 75 81  1  0  0  0
 75 84  1  0  0  0
 76 77  1  0  0  0
 76 78  1  0  0  0
 76145  1  0  0  0
 76146  1  0  0  0
 77 85  1  0  0  0
 77147  1  0  0  0
 77148  1  0  0  0
 78 82  1  0  0  0
 78 85  1  0  0  0
 78149  1  0  0  0
 79150  1  0  0  0
 79151  1  0  0  0
 79152  1  0  0  0
 80153  1  0  0  0
 80154  1  0  0  0
 80155  1  0  0  0
 81156  1  0  0  0
 81157  1  0  0  0
 81158  1  0  0  0
 82159  1  0  0  0
 82160  1  0  0  0
 83161  1  0  0  0
 83162  1  0  0  0
M  ISO  4   1 100  68 101  83 101  85 100
M  END
> <chiral flag>
0

> <version>
0

> <s_m_source_file>
/data/baiqing/PycharmProjects/Reinvent-master-3.2/result/LINK_invent/BTK/process_docking_weight1_custom_sum_contain_oxygen_bond_distance_aromatic_linkinvent_7_9_3/rearranged_h_0160.sdf

> <i_m_source_file_index>
31

> <r_mmod_Potential_Energy-OPLS-2005>
18069.1953125

> <r_mmod_Stretch_Energy-OPLS-2005>
10247.1025390625

> <r_mmod_Bend_Energy-OPLS-2005>
1331.154296875

> <r_mmod_Torsional_Energy-OPLS-2005>
488.58544921875

> <r_mmod_Improper_Torsional_Energy-OPLS-2005>
118.413108825684

> <r_mmod_Van_der_Waal_Energy-OPLS-2005>
2892.935546875

> <r_mmod_Electrostatic_Energy-OPLS-2005>
-478.953399658203

> <r_mmod_Solvation_Energy-OPLS-2005>
-221.059829711914

> <b_mmod_Minimization_Converged-OPLS-2005>
0

> <r_mmod_RMS_Derivative-OPLS-2005>
11.0312232971191

$$$$
31
                    3D
 Structure written by MMmdl.
166175  0  0  1  0            999 V2000
  -30.6655  -14.5266   20.4398 C   0  0  0  0  0  0
  -30.4240  -12.2831   19.4638 C   0  0  0  0  0  0
  -29.4988  -12.3649   18.2301 C   0  0  0  0  0  0
  -28.0102  -12.3177   18.6295 C   0  0  0  0  0  0
  -27.6514  -13.2039   19.8546 C   0  0  2  0  0  0
  -28.6935  -13.0530   20.9849 C   0  0  0  0  0  0
  -25.2559  -13.8165   20.5683 C   0  0  0  0  0  0
  -24.1823  -13.0443   20.9202 C   0  0  0  0  0  0
  -24.6374  -11.6908   20.8769 C   0  0  0  0  0  0
  -23.9045  -10.4292   21.0428 C   0  0  0  0  0  0
  -24.3606   -9.4205   21.9199 C   0  0  0  0  0  0
  -23.6293   -8.2234   22.0763 C   0  0  0  0  0  0
  -22.4276   -8.0271   21.3551 C   0  0  0  0  0  0
  -21.9908   -9.0243   20.4652 C   0  0  0  0  0  0
  -22.7221  -10.2132   20.3071 C   0  0  0  0  0  0
  -21.6848   -6.0733   22.5280 C   0  0  0  0  0  0
  -21.4008   -6.5643   23.8210 C   0  0  0  0  0  0
  -21.3665   -5.6804   24.9180 C   0  0  0  0  0  0
  -21.6042   -4.3063   24.7233 C   0  0  0  0  0  0
  -21.8817   -3.8145   23.4356 C   0  0  0  0  0  0
  -21.9192   -4.6961   22.3409 C   0  0  0  0  0  0
  -22.7843  -13.5233   21.1863 C   0  0  0  0  0  0
  -22.1658   -4.2142   21.0991 F   0  0  0  0  0  0
  -21.5630   -3.4551   25.7749 F   0  0  0  0  0  0
  -30.0171  -13.3302   20.4130 N   0  0  0  0  0  0
  -26.2974  -12.9329   20.3309 N   0  0  0  0  0  0
  -25.9297  -11.6501   20.5805 N   0  0  0  0  0  0
  -22.0491  -12.8220   22.0413 N   0  0  0  0  0  0
  -25.4279  -15.1888   20.4070 N   0  0  0  0  0  0
  -31.8645  -14.6318   20.1671 O   0  0  0  0  0  0
  -21.6639   -6.8871   21.4240 O   0  0  0  0  0  0
  -22.3532  -14.5544   20.6710 O   0  0  0  0  0  0
  -24.6140  -31.8667   23.2074 C   0  0  0  0  0  0
  -25.9037  -32.4807   23.8370 C   0  0  1  0  0  0
  -27.2372  -27.4306   20.1066 C   0  0  0  0  0  0
  -25.5897  -33.8604   24.2316 N   0  0  0  0  0  0
  -23.4007  -30.4883   21.5492 C   0  0  2  0  0  0
  -24.8457  -28.9479   20.1176 C   0  0  0  0  0  0
  -22.7393  -29.4657   22.5007 C   0  0  0  0  0  0
  -18.0264  -28.1375   22.8491 C   0  0  0  0  0  0
  -24.1492  -36.7320   23.2634 C   0  0  0  0  0  0
  -25.9270  -30.8346   21.3553 C   0  0  0  0  0  0
  -26.0043  -29.4670   20.7068 C   0  0  0  0  0  0
  -27.2011  -28.7183   20.6895 C   0  0  0  0  0  0
  -26.0602  -26.9231   19.5138 C   0  0  0  0  0  0
  -24.8689  -27.6760   19.5180 C   0  0  0  0  0  0
  -23.6063  -29.8128   20.1658 C   0  0  0  0  0  0
  -25.4109  -36.3104   24.0334 C   0  0  1  0  0  0
  -20.5849  -28.3661   23.1324 C   0  0  2  0  0  0
  -20.6761  -26.9402   22.5415 C   0  0  0  0  0  0
  -19.5745  -26.6385   21.5208 C   0  0  0  0  0  0
  -18.1920  -26.7923   22.1615 C   0  0  0  0  0  0
  -19.1510  -28.8837   23.2904 C   0  0  0  0  0  0
  -18.9441  -30.1448   23.8908 C   0  0  0  0  0  0
  -17.6443  -30.6586   24.0562 C   0  0  0  0  0  0
  -25.9036  -34.9466   23.5128 C   0  0  0  0  0  0
  -16.5336  -29.9088   23.6319 C   0  0  0  0  0  0
  -16.7253  -28.6501   23.0349 C   0  0  0  0  0  0
  -26.4469  -31.6568   25.0689 C   0  0  0  0  0  0
  -25.3737  -31.3653   26.1429 C   0  0  0  0  0  0
  -27.0284  -30.3011   24.6036 C   0  0  0  0  0  0
  -27.6047  -32.4261   25.7471 C   0  0  0  0  0  0
  -27.5588  -37.1811   24.8458 C   0  0  0  0  0  0
  -21.4121  -29.3032   22.3735 N   0  0  0  0  0  0
  -26.4297  -37.3788   23.9407 N   0  0  0  0  0  0
  -24.6662  -31.0770   22.0970 N   0  0  0  0  0  0
  -23.4164  -28.8205   23.3057 O   0  0  0  0  0  0
  -28.4383  -26.7501   20.1175 O   0  0  0  0  0  0
  -26.5603  -34.8920   22.4693 O   0  0  0  0  0  0
  -23.5338  -32.1411   23.7486 O   0  0  0  0  0  0
  -30.7300  -18.2071   17.9387 C   0  0  0  0  0  0
  -30.3630  -16.9787   18.5081 C   0  0  0  0  0  0
  -30.7169  -19.3555   18.7315 C   0  0  0  0  0  0
  -30.0912  -16.8962   19.9051 C   0  0  0  0  0  0
  -30.2504  -19.2438   20.0501 C   0  0  0  0  0  0
  -29.0135  -23.0384   19.3095 C   0  0  0  0  0  0
  -27.5880  -23.1702   21.4043 C   0  0  0  0  0  0
  -28.4550  -24.4621   19.0494 C   0  0  0  0  0  0
  -27.6850  -24.7205   21.4689 C   0  0  0  0  0  0
  -28.8242  -22.5025   20.7584 C   0  0  1  0  0  0
  -28.5280  -25.3254   20.3180 C   0  0  2  0  0  0
  -30.2367  -15.8027   17.5600 C   0  0  0  0  0  0
  -31.1829  -20.6698   18.1377 C   0  0  0  0  0  0
  -28.7870  -20.9444   20.8350 C   0  0  0  0  0  0
  -29.9686  -18.0461   20.6293 N   0  0  0  0  0  0
  -29.8635  -15.6169   20.5185 N   0  0  0  0  0  0
  -30.1016  -20.3732   20.8230 O   0  0  0  0  0  0
  -31.4678  -12.3755   19.1587 H   0  0  0  0  0  0
  -30.3379  -11.3043   19.9386 H   0  0  0  0  0  0
  -29.7155  -11.5310   17.5612 H   0  0  0  0  0  0
  -29.7089  -13.2477   17.6410 H   0  0  0  0  0  0
  -27.7811  -11.2752   18.8542 H   0  0  0  0  0  0
  -27.3826  -12.5816   17.7777 H   0  0  0  0  0  0
  -27.6736  -14.2360   19.5069 H   0  0  0  0  0  0
  -28.6691  -12.0425   21.3960 H   0  0  0  0  0  0
  -28.4692  -13.7209   21.8176 H   0  0  0  0  0  0
  -25.2752   -9.5682   22.4775 H   0  0  0  0  0  0
  -24.0006   -7.4624   22.7484 H   0  0  0  0  0  0
  -21.0842   -8.8755   19.8955 H   0  0  0  0  0  0
  -22.3675  -10.9677   19.6185 H   0  0  0  0  0  0
  -21.1992   -7.6151   23.9706 H   0  0  0  0  0  0
  -21.1492   -6.0543   25.9085 H   0  0  0  0  0  0
  -22.0588   -2.7603   23.2866 H   0  0  0  0  0  0
  -22.4115  -11.9879   22.4793 H   0  0  0  0  0  0
  -21.1108  -13.1238   22.2622 H   0  0  0  0  0  0
  -24.6567  -15.8401   20.5056 H   0  0  0  0  0  0
  -26.2690  -15.6275   20.0554 H   0  0  0  0  0  0
  -26.7107  -32.5521   23.1133 H   0  0  0  0  0  0
  -25.0034  -33.9754   25.0454 H   0  0  0  0  0  0
  -22.6897  -31.3050   21.4074 H   0  0  0  0  0  0
  -23.3745  -35.9663   23.3288 H   0  0  0  0  0  0
  -24.3594  -36.8943   22.2051 H   0  0  0  0  0  0
  -23.7248  -37.6526   23.6654 H   0  0  0  0  0  0
  -26.0304  -31.5985   20.5829 H   0  0  0  0  0  0
  -26.8190  -30.8945   21.9677 H   0  0  0  0  0  0
  -28.1003  -29.1207   21.1350 H   0  0  0  0  0  0
  -26.0474  -25.9542   19.0436 H   0  0  0  0  0  0
  -23.9765  -27.2703   19.0614 H   0  0  0  0  0  0
  -23.7103  -30.5830   19.4009 H   0  0  0  0  0  0
  -22.7314  -29.2280   19.8754 H   0  0  0  0  0  0
  -25.1283  -36.1972   25.0827 H   0  0  0  0  0  0
  -20.9935  -28.3234   24.1448 H   0  0  0  0  0  0
  -20.5673  -26.2270   23.3600 H   0  0  0  0  0  0
  -21.6637  -26.7459   22.1211 H   0  0  0  0  0  0
  -19.6917  -25.6300   21.1236 H   0  0  0  0  0  0
  -19.6692  -27.3200   20.6745 H   0  0  0  0  0  0
  -17.4192  -26.6667   21.4015 H   0  0  0  0  0  0
  -18.0327  -26.0060   22.9006 H   0  0  0  0  0  0
  -19.7918  -30.7261   24.2281 H   0  0  0  0  0  0
  -17.4999  -31.6268   24.5164 H   0  0  0  0  0  0
  -15.5340  -30.2999   23.7636 H   0  0  0  0  0  0
  -15.8649  -28.0827   22.7061 H   0  0  0  0  0  0
  -24.5933  -30.6978   25.7755 H   0  0  0  0  0  0
  -24.8904  -32.2798   26.4875 H   0  0  0  0  0  0
  -25.8096  -30.8822   27.0181 H   0  0  0  0  0  0
  -26.2814  -29.6790   24.1088 H   0  0  0  0  0  0
  -27.4058  -29.7215   25.4472 H   0  0  0  0  0  0
  -27.8649  -30.4323   23.9164 H   0  0  0  0  0  0
  -27.2673  -33.3546   26.2083 H   0  0  0  0  0  0
  -28.3862  -32.6824   25.0308 H   0  0  0  0  0  0
  -28.0704  -31.8344   26.5361 H   0  0  0  0  0  0
  -28.2586  -38.0125   24.7526 H   0  0  0  0  0  0
  -28.1103  -36.2657   24.6260 H   0  0  0  0  0  0
  -27.2307  -37.1434   25.8859 H   0  0  0  0  0  0
  -20.9281  -29.8740   21.6940 H   0  0  0  0  0  0
  -26.0186  -38.2868   24.1404 H   0  0  0  0  0  0
  -31.0046  -18.2740   16.8953 H   0  0  0  0  0  0
  -30.0791  -23.0468   19.0878 H   0  0  0  0  0  0
  -28.5562  -22.3590   18.5896 H   0  0  0  0  0  0
  -26.7033  -22.8900   20.8314 H   0  0  0  0  0  0
  -27.4287  -22.7777   22.4094 H   0  0  0  0  0  0
  -27.4271  -24.3801   18.7030 H   0  0  0  0  0  0
  -29.0131  -24.9303   18.2375 H   0  0  0  0  0  0
  -28.1258  -25.0251   22.4189 H   0  0  0  0  0  0
  -26.6728  -25.1226   21.4735 H   0  0  0  0  0  0
  -29.6806  -22.8238   21.3539 H   0  0  0  0  0  0
  -29.5643  -25.2276   20.6458 H   0  0  0  0  0  0
  -31.0457  -15.0858   17.6932 H   0  0  0  0  0  0
  -30.2595  -16.1223   16.5179 H   0  0  0  0  0  0
  -29.2707  -15.3255   17.7202 H   0  0  0  0  0  0
  -31.9932  -20.5023   17.4275 H   0  0  0  0  0  0
  -31.5650  -21.3373   18.9097 H   0  0  0  0  0  0
  -30.3695  -21.1592   17.6048 H   0  0  0  0  0  0
  -28.1579  -20.5439   20.0370 H   0  0  0  0  0  0
  -28.3234  -20.6287   21.7699 H   0  0  0  0  0  0
  -28.9427  -15.4664   20.8953 H   0  0  0  0  0  0
  1 25  1  0  0  0
  1 30  2  0  0  0
  1 86  1  0  0  0
  2  3  1  0  0  0
  2 25  1  0  0  0
  2 88  1  0  0  0
  2 89  1  0  0  0
  3  4  1  0  0  0
  3 90  1  0  0  0
  3 91  1  0  0  0
  4  5  1  0  0  0
  4 92  1  0  0  0
  4 93  1  0  0  0
  5  6  1  0  0  0
  5 26  1  0  0  0
  5 94  1  0  0  0
  6 25  1  0  0  0
  6 95  1  0  0  0
  6 96  1  0  0  0
  7  8  2  0  0  0
  7 26  1  0  0  0
  7 29  1  0  0  0
  8  9  1  0  0  0
  8 22  1  0  0  0
  9 10  1  0  0  0
  9 27  2  0  0  0
 10 11  2  0  0  0
 10 15  1  0  0  0
 11 12  1  0  0  0
 11 97  1  0  0  0
 12 13  2  0  0  0
 12 98  1  0  0  0
 13 14  1  0  0  0
 13 31  1  0  0  0
 14 15  2  0  0  0
 14 99  1  0  0  0
 15100  1  0  0  0
 16 17  2  0  0  0
 16 21  1  0  0  0
 16 31  1  0  0  0
 17 18  1  0  0  0
 17101  1  0  0  0
 18 19  2  0  0  0
 18102  1  0  0  0
 19 20  1  0  0  0
 19 24  1  0  0  0
 20 21  2  0  0  0
 20103  1  0  0  0
 21 23  1  0  0  0
 22 28  1  0  0  0
 22 32  2  0  0  0
 26 27  1  0  0  0
 28104  1  0  0  0
 28105  1  0  0  0
 29106  1  0  0  0
 29107  1  0  0  0
 33 34  1  0  0  0
 33 66  1  0  0  0
 33 70  2  0  0  0
 34 36  1  0  0  0
 34 59  1  0  0  0
 34108  1  0  0  0
 35 44  2  0  0  0
 35 45  1  0  0  0
 35 68  1  0  0  0
 36 56  1  0  0  0
 36109  1  0  0  0
 37 39  1  0  0  0
 37 47  1  0  0  0
 37 66  1  0  0  0
 37110  1  0  0  0
 38 43  2  0  0  0
 38 46  1  0  0  0
 38 47  1  0  0  0
 39 64  1  0  0  0
 39 67  2  0  0  0
 40 52  1  0  0  0
 40 53  2  0  0  0
 40 58  1  0  0  0
 41111  1  0  0  0
 41112  1  0  0  0
 41113  1  0  0  0
 41 48  1  0  0  0
 42 43  1  0  0  0
 42 66  1  0  0  0
 42114  1  0  0  0
 42115  1  0  0  0
 43 44  1  0  0  0
 44116  1  0  0  0
 45 46  2  0  0  0
 45117  1  0  0  0
 46118  1  0  0  0
 47119  1  0  0  0
 47120  1  0  0  0
 48 56  1  0  0  0
 48 65  1  0  0  0
 48121  1  0  0  0
 49 50  1  0  0  0
 49 53  1  0  0  0
 49 64  1  0  0  0
 49122  1  0  0  0
 50 51  1  0  0  0
 50123  1  0  0  0
 50124  1  0  0  0
 51 52  1  0  0  0
 51125  1  0  0  0
 51126  1  0  0  0
 52127  1  0  0  0
 52128  1  0  0  0
 53 54  1  0  0  0
 54 55  2  0  0  0
 54129  1  0  0  0
 55 57  1  0  0  0
 55130  1  0  0  0
 56 69  2  0  0  0
 57 58  2  0  0  0
 57131  1  0  0  0
 58132  1  0  0  0
 59 60  1  0  0  0
 59 61  1  0  0  0
 59 62  1  0  0  0
 60133  1  0  0  0
 60134  1  0  0  0
 60135  1  0  0  0
 61136  1  0  0  0
 61137  1  0  0  0
 61138  1  0  0  0
 62139  1  0  0  0
 62140  1  0  0  0
 62141  1  0  0  0
 63 65  1  0  0  0
 63142  1  0  0  0
 63143  1  0  0  0
 63144  1  0  0  0
 64145  1  0  0  0
 65146  1  0  0  0
 68 81  1  0  0  0
 71 72  2  0  0  0
 71 73  1  0  0  0
 71147  1  0  0  0
 72 74  1  0  0  0
 72 82  1  0  0  0
 73 75  2  0  0  0
 73 83  1  0  0  0
 74 85  2  0  0  0
 74 86  1  0  0  0
 75 85  1  0  0  0
 75 87  1  0  0  0
 76 78  1  0  0  0
 76 80  1  0  0  0
 76148  1  0  0  0
 76149  1  0  0  0
 77 79  1  0  0  0
 77 80  1  0  0  0
 77150  1  0  0  0
 77151  1  0  0  0
 78 81  1  0  0  0
 78152  1  0  0  0
 78153  1  0  0  0
 79 81  1  0  0  0
 79154  1  0  0  0
 79155  1  0  0  0
 80 84  1  0  0  0
 80156  1  0  0  0
 81157  1  0  0  0
 82158  1  0  0  0
 82159  1  0  0  0
 82160  1  0  0  0
 83161  1  0  0  0
 83162  1  0  0  0
 83163  1  0  0  0
 84 87  1  0  0  0
 84164  1  0  0  0
 84165  1  0  0  0
 86166  1  0  0  0
M  ISO  4   1 100  68 101  81 101  86 100
M  END
> <chiral flag>
0

> <version>
0

> <s_m_source_file>
/data/baiqing/PycharmProjects/Reinvent-master-3.2/result/LINK_invent/BTK/process_docking_weight1_custom_sum_contain_oxygen_bond_distance_aromatic_linkinvent_7_9_3/rearranged_h_0160.sdf

> <i_m_source_file_index>
32

> <r_mmod_Potential_Energy-OPLS-2005>
-83.0084686279297

> <r_mmod_Stretch_Energy-OPLS-2005>
42.3836784362793

> <r_mmod_Bend_Energy-OPLS-2005>
125.507347106934

> <r_mmod_Torsional_Energy-OPLS-2005>
329.003784179688

> <r_mmod_Improper_Torsional_Energy-OPLS-2005>
6.96587181091309

> <r_mmod_Van_der_Waal_Energy-OPLS-2005>
159.3291015625

> <r_mmod_Electrostatic_Energy-OPLS-2005>
-555.767700195312

> <r_mmod_Solvation_Energy-OPLS-2005>
-216.743728637695

> <b_mmod_Minimization_Converged-OPLS-2005>
0

> <r_mmod_RMS_Derivative-OPLS-2005>
1.1615297794342

$$$$
32
                    3D
 Structure written by MMmdl.
161170  0  0  1  0            999 V2000
  -30.4417  -15.1640   20.3630 C   0  0  0  0  0  0
  -30.4526  -12.7342   19.5090 C   0  0  0  0  0  0
  -29.5316  -12.5549   18.2761 C   0  0  0  0  0  0
  -28.0816  -12.2830   18.7132 C   0  0  0  0  0  0
  -27.6231  -13.2573   19.8275 C   0  0  2  0  0  0
  -28.6640  -13.3737   20.9626 C   0  0  0  0  0  0
  -25.2464  -13.8247   20.5737 C   0  0  0  0  0  0
  -24.1790  -13.0443   20.9289 C   0  0  0  0  0  0
  -24.6421  -11.6946   20.8780 C   0  0  0  0  0  0
  -23.9104  -10.4303   21.0414 C   0  0  0  0  0  0
  -24.3637   -9.4219   21.9191 C   0  0  0  0  0  0
  -23.6311   -8.2252   22.0759 C   0  0  0  0  0  0
  -22.4287   -8.0301   21.3547 C   0  0  0  0  0  0
  -21.9932   -9.0280   20.4647 C   0  0  0  0  0  0
  -22.7278  -10.2154   20.3066 C   0  0  0  0  0  0
  -21.6845   -6.0760   22.5287 C   0  0  0  0  0  0
  -21.4006   -6.5652   23.8229 C   0  0  0  0  0  0
  -21.3655   -5.6800   24.9182 C   0  0  0  0  0  0
  -21.6049   -4.3065   24.7222 C   0  0  0  0  0  0
  -21.8822   -3.8169   23.4334 C   0  0  0  0  0  0
  -21.9192   -4.6990   22.3399 C   0  0  0  0  0  0
  -22.7805  -13.5228   21.1923 C   0  0  0  0  0  0
  -22.1660   -4.2185   21.0968 F   0  0  0  0  0  0
  -21.5626   -3.4542   25.7723 F   0  0  0  0  0  0
  -29.9117  -13.8531   20.3495 N   0  0  0  0  0  0
  -26.2875  -12.9485   20.3235 N   0  0  0  0  0  0
  -25.9352  -11.6603   20.5728 N   0  0  0  0  0  0
  -22.0419  -12.8214   22.0456 N   0  0  0  0  0  0
  -25.4118  -15.1965   20.4116 N   0  0  0  0  0  0
  -31.6480  -15.2356   20.0949 O   0  0  0  0  0  0
  -21.6642   -6.8901   21.4248 O   0  0  0  0  0  0
  -22.3496  -14.5521   20.6762 O   0  0  0  0  0  0
  -24.6561  -31.8270   23.1753 C   0  0  0  0  0  0
  -25.9275  -32.4580   23.8175 C   0  0  1  0  0  0
  -27.2199  -26.9897   20.1859 C   0  0  0  0  0  0
  -25.5983  -33.8391   24.2088 N   0  0  0  0  0  0
  -23.4692  -30.4392   21.5212 C   0  0  2  0  0  0
  -24.9219  -28.8352   20.1178 C   0  0  0  0  0  0
  -22.7649  -29.4419   22.4780 C   0  0  0  0  0  0
  -18.0318  -28.1389   22.8435 C   0  0  0  0  0  0
  -24.1503  -36.7208   23.2648 C   0  0  0  0  0  0
  -26.0324  -30.6557   21.3941 C   0  0  0  0  0  0
  -26.1032  -29.2492   20.7448 C   0  0  0  0  0  0
  -27.2520  -28.3470   20.7525 C   0  0  0  0  0  0
  -26.0082  -26.7079   19.5196 C   0  0  0  0  0  0
  -24.8931  -27.5812   19.4897 C   0  0  0  0  0  0
  -23.7058  -29.7569   20.1474 C   0  0  0  0  0  0
  -25.4138  -36.2960   24.0304 C   0  0  1  0  0  0
  -20.5945  -28.3720   23.1199 C   0  0  2  0  0  0
  -20.6812  -26.9401   22.5389 C   0  0  0  0  0  0
  -19.5792  -26.6368   21.5194 C   0  0  0  0  0  0
  -18.1953  -26.7920   22.1584 C   0  0  0  0  0  0
  -19.1580  -28.8872   23.2792 C   0  0  0  0  0  0
  -18.9478  -30.1457   23.8834 C   0  0  0  0  0  0
  -17.6477  -30.6583   24.0534 C   0  0  0  0  0  0
  -25.9090  -34.9334   23.5012 C   0  0  0  0  0  0
  -16.5366  -29.9064   23.6339 C   0  0  0  0  0  0
  -16.7299  -28.6486   23.0344 C   0  0  0  0  0  0
  -26.4590  -31.6512   25.0671 C   0  0  0  0  0  0
  -25.3750  -31.3723   26.1341 C   0  0  0  0  0  0
  -27.0489  -30.2887   24.6358 C   0  0  0  0  0  0
  -27.6091  -32.4331   25.7459 C   0  0  0  0  0  0
  -27.5581  -37.1725   24.8461 C   0  0  0  0  0  0
  -21.4325  -29.3006   22.3542 N   0  0  0  0  0  0
  -26.4275  -37.3702   23.9439 N   0  0  0  0  0  0
  -24.7393  -30.9999   22.0845 N   0  0  0  0  0  0
  -23.4207  -28.7987   23.3014 O   0  0  0  0  0  0
  -28.2566  -25.9406   20.1993 O   0  0  0  0  0  0
  -26.5673  -34.8891   22.4591 O   0  0  0  0  0  0
  -23.5652  -32.1179   23.6912 O   0  0  0  0  0  0
  -29.7081  -20.2952   19.3734 C   0  0  0  0  0  0
  -29.0593  -21.1389   20.3723 C   0  0  0  0  0  0
  -28.6481  -20.2251   21.4357 C   0  0  0  0  0  0
  -28.8944  -18.7504   21.4889 C   0  0  0  0  0  0
  -29.5481  -17.9282   20.4744 C   0  0  0  0  0  0
  -29.9273  -18.8263   19.3961 C   0  0  0  0  0  0
  -29.6619  -23.4981   21.6069 C   0  0  0  0  0  0
  -28.3588  -24.2549   21.9457 C   0  0  0  0  0  0
  -29.0312  -22.8858   20.3437 C   0  0  2  0  0  0
  -28.0295  -24.3493   20.4497 C   0  0  2  0  0  0
  -27.8769  -20.8690   22.5786 C   0  0  0  0  0  0
  -28.4511  -17.9733   22.7285 C   0  0  0  0  0  0
  -29.7133  -17.6657   17.3567 C   0  0  0  0  0  0
  -29.5839  -16.3308   20.5374 N   0  0  0  0  0  0
  -30.5691  -18.2794   18.3135 O   0  0  0  0  0  0
  -31.4690  -12.9477   19.1764 H   0  0  0  0  0  0
  -30.5215  -11.8116   20.0880 H   0  0  0  0  0  0
  -29.8938  -11.7381   17.6509 H   0  0  0  0  0  0
  -29.5679  -13.4552   17.6599 H   0  0  0  0  0  0
  -28.0418  -11.2577   19.0868 H   0  0  0  0  0  0
  -27.4073  -12.3250   17.8576 H   0  0  0  0  0  0
  -27.5568  -14.2331   19.3447 H   0  0  0  0  0  0
  -28.8100  -12.4201   21.4719 H   0  0  0  0  0  0
  -28.3257  -14.0776   21.7234 H   0  0  0  0  0  0
  -25.2761   -9.5702   22.4787 H   0  0  0  0  0  0
  -24.0026   -7.4635   22.7469 H   0  0  0  0  0  0
  -21.0878   -8.8814   19.8930 H   0  0  0  0  0  0
  -22.3745  -10.9706   19.6190 H   0  0  0  0  0  0
  -21.1992   -7.6157   23.9749 H   0  0  0  0  0  0
  -21.1466   -6.0513   25.9090 H   0  0  0  0  0  0
  -22.0597   -2.7635   23.2821 H   0  0  0  0  0  0
  -22.3996  -11.9874   22.4870 H   0  0  0  0  0  0
  -21.1022  -13.1240   22.2606 H   0  0  0  0  0  0
  -24.6380  -15.8421   20.5230 H   0  0  0  0  0  0
  -26.2349  -15.6310   20.0153 H   0  0  0  0  0  0
  -26.7328  -32.5150   23.0872 H   0  0  0  0  0  0
  -25.0165  -33.9463   25.0263 H   0  0  0  0  0  0
  -22.7764  -31.2649   21.3523 H   0  0  0  0  0  0
  -23.3791  -35.9503   23.3226 H   0  0  0  0  0  0
  -24.3613  -36.8932   22.2086 H   0  0  0  0  0  0
  -23.7227  -37.6363   23.6745 H   0  0  0  0  0  0
  -26.2026  -31.4010   20.6159 H   0  0  0  0  0  0
  -26.8998  -30.7146   22.0396 H   0  0  0  0  0  0
  -28.1558  -28.6617   21.2535 H   0  0  0  0  0  0
  -25.8976  -25.7562   19.0231 H   0  0  0  0  0  0
  -23.9920  -27.2562   18.9881 H   0  0  0  0  0  0
  -23.8540  -30.5232   19.3848 H   0  0  0  0  0  0
  -22.8150  -29.2041   19.8402 H   0  0  0  0  0  0
  -25.1318  -36.1746   25.0787 H   0  0  0  0  0  0
  -20.9992  -28.3318   24.1339 H   0  0  0  0  0  0
  -20.5726  -26.2304   23.3601 H   0  0  0  0  0  0
  -21.6671  -26.7406   22.1157 H   0  0  0  0  0  0
  -19.6962  -25.6277   21.1220 H   0  0  0  0  0  0
  -19.6764  -27.3163   20.6706 H   0  0  0  0  0  0
  -17.4227  -26.6637   21.3990 H   0  0  0  0  0  0
  -18.0353  -26.0075   22.8991 H   0  0  0  0  0  0
  -19.7957  -30.7269   24.2186 H   0  0  0  0  0  0
  -17.5038  -31.6268   24.5130 H   0  0  0  0  0  0
  -15.5366  -30.2934   23.7746 H   0  0  0  0  0  0
  -15.8685  -28.0806   22.7094 H   0  0  0  0  0  0
  -24.5942  -30.7060   25.7651 H   0  0  0  0  0  0
  -24.8929  -32.2901   26.4700 H   0  0  0  0  0  0
  -25.8000  -30.8929   27.0159 H   0  0  0  0  0  0
  -26.3129  -29.6538   24.1395 H   0  0  0  0  0  0
  -27.4095  -29.7276   25.4993 H   0  0  0  0  0  0
  -27.9047  -30.4106   23.9714 H   0  0  0  0  0  0
  -27.2675  -33.3705   26.1875 H   0  0  0  0  0  0
  -28.3970  -32.6769   25.0317 H   0  0  0  0  0  0
  -28.0676  -31.8551   26.5495 H   0  0  0  0  0  0
  -28.2489  -38.0124   24.7576 H   0  0  0  0  0  0
  -28.1170  -36.2625   24.6169 H   0  0  0  0  0  0
  -27.2291  -37.1232   25.8861 H   0  0  0  0  0  0
  -20.9565  -29.8681   21.6678 H   0  0  0  0  0  0
  -26.0108  -38.2737   24.1522 H   0  0  0  0  0  0
  -30.0869  -20.8117   18.5007 H   0  0  0  0  0  0
  -29.9851  -22.7774   22.3577 H   0  0  0  0  0  0
  -30.4797  -24.1823   21.3788 H   0  0  0  0  0  0
  -27.6295  -23.6765   22.5112 H   0  0  0  0  0  0
  -28.5419  -25.2115   22.4371 H   0  0  0  0  0  0
  -29.6943  -23.0858   19.5029 H   0  0  0  0  0  0
  -26.9919  -24.0888   20.2414 H   0  0  0  0  0  0
  -27.1782  -21.6032   22.1819 H   0  0  0  0  0  0
  -28.5562  -21.3635   23.2699 H   0  0  0  0  0  0
  -27.2682  -20.1777   23.1554 H   0  0  0  0  0  0
  -28.6177  -18.5368   23.6460 H   0  0  0  0  0  0
  -29.0273  -17.0586   22.8664 H   0  0  0  0  0  0
  -27.3980  -17.6961   22.6570 H   0  0  0  0  0  0
  -30.3179  -17.2734   16.5385 H   0  0  0  0  0  0
  -29.0048  -18.3767   16.9277 H   0  0  0  0  0  0
  -29.1554  -16.8335   17.7849 H   0  0  0  0  0  0
  -28.6910  -15.9811   20.8505 H   0  0  0  0  0  0
  1 25  1  0  0  0
  1 30  2  0  0  0
  1 84  1  0  0  0
  2  3  1  0  0  0
  2 25  1  0  0  0
  2 86  1  0  0  0
  2 87  1  0  0  0
  3  4  1  0  0  0
  3 88  1  0  0  0
  3 89  1  0  0  0
  4  5  1  0  0  0
  4 90  1  0  0  0
  4 91  1  0  0  0
  5  6  1  0  0  0
  5 26  1  0  0  0
  5 92  1  0  0  0
  6 25  1  0  0  0
  6 93  1  0  0  0
  6 94  1  0  0  0
  7  8  2  0  0  0
  7 26  1  0  0  0
  7 29  1  0  0  0
  8  9  1  0  0  0
  8 22  1  0  0  0
  9 10  1  0  0  0
  9 27  2  0  0  0
 10 11  2  0  0  0
 10 15  1  0  0  0
 11 12  1  0  0  0
 11 95  1  0  0  0
 12 13  2  0  0  0
 12 96  1  0  0  0
 13 14  1  0  0  0
 13 31  1  0  0  0
 14 15  2  0  0  0
 14 97  1  0  0  0
 15 98  1  0  0  0
 16 17  2  0  0  0
 16 21  1  0  0  0
 16 31  1  0  0  0
 17 18  1  0  0  0
 17 99  1  0  0  0
 18 19  2  0  0  0
 18100  1  0  0  0
 19 20  1  0  0  0
 19 24  1  0  0  0
 20 21  2  0  0  0
 20101  1  0  0  0
 21 23  1  0  0  0
 22 28  1  0  0  0
 22 32  2  0  0  0
 26 27  1  0  0  0
 28102  1  0  0  0
 28103  1  0  0  0
 29104  1  0  0  0
 29105  1  0  0  0
 33 34  1  0  0  0
 33 66  1  0  0  0
 33 70  2  0  0  0
 34 36  1  0  0  0
 34 59  1  0  0  0
 34106  1  0  0  0
 35 44  2  0  0  0
 35 45  1  0  0  0
 35 68  1  0  0  0
 36 56  1  0  0  0
 36107  1  0  0  0
 37 39  1  0  0  0
 37 47  1  0  0  0
 37 66  1  0  0  0
 37108  1  0  0  0
 38 43  2  0  0  0
 38 46  1  0  0  0
 38 47  1  0  0  0
 39 64  1  0  0  0
 39 67  2  0  0  0
 40 52  1  0  0  0
 40 53  2  0  0  0
 40 58  1  0  0  0
 41109  1  0  0  0
 41110  1  0  0  0
 41111  1  0  0  0
 41 48  1  0  0  0
 42 43  1  0  0  0
 42 66  1  0  0  0
 42112  1  0  0  0
 42113  1  0  0  0
 43 44  1  0  0  0
 44114  1  0  0  0
 45 46  2  0  0  0
 45115  1  0  0  0
 46116  1  0  0  0
 47117  1  0  0  0
 47118  1  0  0  0
 48 56  1  0  0  0
 48 65  1  0  0  0
 48119  1  0  0  0
 49 50  1  0  0  0
 49 53  1  0  0  0
 49 64  1  0  0  0
 49120  1  0  0  0
 50 51  1  0  0  0
 50121  1  0  0  0
 50122  1  0  0  0
 51 52  1  0  0  0
 51123  1  0  0  0
 51124  1  0  0  0
 52125  1  0  0  0
 52126  1  0  0  0
 53 54  1  0  0  0
 54 55  2  0  0  0
 54127  1  0  0  0
 55 57  1  0  0  0
 55128  1  0  0  0
 56 69  2  0  0  0
 57 58  2  0  0  0
 57129  1  0  0  0
 58130  1  0  0  0
 59 60  1  0  0  0
 59 61  1  0  0  0
 59 62  1  0  0  0
 60131  1  0  0  0
 60132  1  0  0  0
 60133  1  0  0  0
 61134  1  0  0  0
 61135  1  0  0  0
 61136  1  0  0  0
 62137  1  0  0  0
 62138  1  0  0  0
 62139  1  0  0  0
 63 65  1  0  0  0
 63140  1  0  0  0
 63141  1  0  0  0
 63142  1  0  0  0
 64143  1  0  0  0
 65144  1  0  0  0
 68 80  1  0  0  0
 71 72  2  0  0  0
 71 76  1  0  0  0
 71145  1  0  0  0
 72 73  1  0  0  0
 72 79  1  0  0  0
 73 74  2  0  0  0
 73 81  1  0  0  0
 74 75  1  0  0  0
 74 82  1  0  0  0
 75 76  2  0  0  0
 75 84  1  0  0  0
 76 85  1  0  0  0
 77 78  1  0  0  0
 77 79  1  0  0  0
 77146  1  0  0  0
 77147  1  0  0  0
 78 80  1  0  0  0
 78148  1  0  0  0
 78149  1  0  0  0
 79 80  1  0  0  0
 79150  1  0  0  0
 80151  1  0  0  0
 81152  1  0  0  0
 81153  1  0  0  0
 81154  1  0  0  0
 82155  1  0  0  0
 82156  1  0  0  0
 82157  1  0  0  0
 83 85  1  0  0  0
 83158  1  0  0  0
 83159  1  0  0  0
 83160  1  0  0  0
 84161  1  0  0  0
M  ISO  4   1 100  68 101  80 101  84 100
M  END
> <chiral flag>
0

> <version>
0

> <s_m_source_file>
/data/baiqing/PycharmProjects/Reinvent-master-3.2/result/LINK_invent/BTK/process_docking_weight1_custom_sum_contain_oxygen_bond_distance_aromatic_linkinvent_7_9_3/rearranged_h_0160.sdf

> <i_m_source_file_index>
33

> <r_mmod_Potential_Energy-OPLS-2005>
1025.65417480469

> <r_mmod_Stretch_Energy-OPLS-2005>
447.120727539062

> <r_mmod_Bend_Energy-OPLS-2005>
406.337890625

> <r_mmod_Torsional_Energy-OPLS-2005>
303.601348876953

> <r_mmod_Improper_Torsional_Energy-OPLS-2005>
5.1481819152832

> <r_mmod_Van_der_Waal_Energy-OPLS-2005>
131.404724121094

> <r_mmod_Electrostatic_Energy-OPLS-2005>
-411.720733642578

> <r_mmod_Solvation_Energy-OPLS-2005>
-218.415252685547

> <b_mmod_Minimization_Converged-OPLS-2005>
0

> <r_mmod_RMS_Derivative-OPLS-2005>
4.20820713043213

$$$$
33
                    3D
 Structure written by MMmdl.
165174  0  0  1  0            999 V2000
  -30.6403  -14.7137   20.5026 C   0  0  0  0  0  0
  -30.4289  -12.4502   19.4688 C   0  0  0  0  0  0
  -29.5076  -12.5377   18.2328 C   0  0  0  0  0  0
  -28.0272  -12.3776   18.6338 C   0  0  0  0  0  0
  -27.6441  -13.2413   19.8646 C   0  0  2  0  0  0
  -28.6892  -13.1420   20.9944 C   0  0  0  0  0  0
  -25.2502  -13.8221   20.5712 C   0  0  0  0  0  0
  -24.1800  -13.0455   20.9208 C   0  0  0  0  0  0
  -24.6417  -11.6936   20.8755 C   0  0  0  0  0  0
  -23.9109  -10.4295   21.0400 C   0  0  0  0  0  0
  -24.3666   -9.4213   21.9171 C   0  0  0  0  0  0
  -23.6354   -8.2240   22.0733 C   0  0  0  0  0  0
  -22.4320   -8.0286   21.3534 C   0  0  0  0  0  0
  -21.9983   -9.0256   20.4630 C   0  0  0  0  0  0
  -22.7296  -10.2135   20.3041 C   0  0  0  0  0  0
  -21.6867   -6.0779   22.5295 C   0  0  0  0  0  0
  -21.4017   -6.5665   23.8235 C   0  0  0  0  0  0
  -21.3672   -5.6799   24.9188 C   0  0  0  0  0  0
  -21.6048   -4.3062   24.7215 C   0  0  0  0  0  0
  -21.8807   -3.8178   23.4326 C   0  0  0  0  0  0
  -21.9188   -4.7011   22.3401 C   0  0  0  0  0  0
  -22.7808  -13.5202   21.1883 C   0  0  0  0  0  0
  -22.1644   -4.2202   21.0971 F   0  0  0  0  0  0
  -21.5647   -3.4540   25.7721 F   0  0  0  0  0  0
  -29.9941  -13.4981   20.4222 N   0  0  0  0  0  0
  -26.2958  -12.9451   20.3370 N   0  0  0  0  0  0
  -25.9358  -11.6581   20.5792 N   0  0  0  0  0  0
  -22.0489  -12.8153   22.0432 N   0  0  0  0  0  0
  -25.4216  -15.1945   20.4056 N   0  0  0  0  0  0
  -31.7980  -14.8131   20.0853 O   0  0  0  0  0  0
  -21.6658   -6.8905   21.4251 O   0  0  0  0  0  0
  -22.3464  -14.5505   20.6746 O   0  0  0  0  0  0
  -24.6353  -31.8514   23.1943 C   0  0  0  0  0  0
  -25.9198  -32.4718   23.8283 C   0  0  1  0  0  0
  -27.1989  -27.2168   20.1377 C   0  0  0  0  0  0
  -25.5980  -33.8516   24.2190 N   0  0  0  0  0  0
  -23.4291  -30.4733   21.5407 C   0  0  2  0  0  0
  -24.8748  -28.9196   20.1089 C   0  0  0  0  0  0
  -22.7509  -29.4575   22.4926 C   0  0  0  0  0  0
  -18.0269  -28.1364   22.8498 C   0  0  0  0  0  0
  -24.1488  -36.7271   23.2630 C   0  0  0  0  0  0
  -25.9780  -30.7499   21.3836 C   0  0  0  0  0  0
  -26.0481  -29.3680   20.7291 C   0  0  0  0  0  0
  -27.2142  -28.5268   20.7360 C   0  0  0  0  0  0
  -26.0118  -26.8641   19.4598 C   0  0  0  0  0  0
  -24.8647  -27.6792   19.4598 C   0  0  0  0  0  0
  -23.6447  -29.8041   20.1588 C   0  0  0  0  0  0
  -25.4116  -36.3019   24.0290 C   0  0  1  0  0  0
  -20.5883  -28.3670   23.1284 C   0  0  2  0  0  0
  -20.6755  -26.9387   22.5420 C   0  0  0  0  0  0
  -19.5742  -26.6356   21.5219 C   0  0  0  0  0  0
  -18.1912  -26.7917   22.1614 C   0  0  0  0  0  0
  -19.1533  -28.8837   23.2881 C   0  0  0  0  0  0
  -18.9457  -30.1437   23.8904 C   0  0  0  0  0  0
  -17.6459  -30.6591   24.0527 C   0  0  0  0  0  0
  -25.9055  -34.9417   23.5026 C   0  0  0  0  0  0
  -16.5342  -29.9070   23.6337 C   0  0  0  0  0  0
  -16.7254  -28.6464   23.0407 C   0  0  0  0  0  0
  -26.4540  -31.6587   25.0716 C   0  0  0  0  0  0
  -25.3700  -31.3821   26.1387 C   0  0  0  0  0  0
  -27.0418  -30.2977   24.6312 C   0  0  0  0  0  0
  -27.6039  -32.4366   25.7548 C   0  0  0  0  0  0
  -27.5569  -37.1779   24.8440 C   0  0  0  0  0  0
  -21.4203  -29.3030   22.3698 N   0  0  0  0  0  0
  -26.4265  -37.3744   23.9406 N   0  0  0  0  0  0
  -24.6994  -31.0456   22.0938 N   0  0  0  0  0  0
  -23.4210  -28.8120   23.3026 O   0  0  0  0  0  0
  -28.2529  -26.2619   20.1807 O   0  0  0  0  0  0
  -26.5625  -34.8903   22.4584 O   0  0  0  0  0  0
  -23.5506  -32.1365   23.7237 O   0  0  0  0  0  0
  -30.4717  -21.3503   19.5529 C   0  0  0  0  0  0
  -28.4678  -22.1570   20.6476 C   0  0  0  0  0  0
  -29.3119  -21.0248   20.2862 C   0  0  0  0  0  0
  -30.7422  -22.6947   19.1849 C   0  0  0  0  0  0
  -28.7810  -23.5387   20.2654 C   0  0  0  0  0  0
  -29.4101  -17.8034   22.2202 C   0  0  0  0  0  0
  -29.8849  -16.3310   22.2046 C   0  0  0  0  0  0
  -29.8489  -18.4494   20.9014 C   0  0  1  0  0  0
  -29.8472  -17.1372   19.9867 C   0  0  2  0  0  0
  -27.1991  -21.8652   21.4392 C   0  0  0  0  0  0
  -31.9513  -23.0467   18.3405 C   0  0  0  0  0  0
  -28.6168  -17.0734   19.0696 C   0  0  0  0  0  0
  -27.8814  -24.8340   20.5637 C   0  0  0  0  0  0
  -29.9089  -23.7086   19.5433 N   0  3  0  0  0  0
  -29.9122  -15.8632   20.8137 N   0  0  0  0  0  0
  -28.9700  -19.6367   20.5499 N   0  0  0  0  0  0
  -31.4699  -12.5671   19.1623 H   0  0  0  0  0  0
  -30.3668  -11.4648   19.9321 H   0  0  0  0  0  0
  -29.7826  -11.7828   17.4956 H   0  0  0  0  0  0
  -29.6489  -13.5052   17.7469 H   0  0  0  0  0  0
  -27.8484  -11.3231   18.8474 H   0  0  0  0  0  0
  -27.3814  -12.6285   17.7900 H   0  0  0  0  0  0
  -27.6448  -14.2760   19.5241 H   0  0  0  0  0  0
  -28.7185  -12.1329   21.4071 H   0  0  0  0  0  0
  -28.4208  -13.8024   21.8190 H   0  0  0  0  0  0
  -25.2807   -9.5696   22.4756 H   0  0  0  0  0  0
  -24.0089   -7.4620   22.7439 H   0  0  0  0  0  0
  -21.0924   -8.8748   19.8926 H   0  0  0  0  0  0
  -22.3745  -10.9672   19.6150 H   0  0  0  0  0  0
  -21.1988   -7.6167   23.9766 H   0  0  0  0  0  0
  -21.1523   -6.0515   25.9096 H   0  0  0  0  0  0
  -22.0579   -2.7644   23.2801 H   0  0  0  0  0  0
  -22.4146  -11.9800   22.4770 H   0  0  0  0  0  0
  -21.1097  -13.1109   22.2673 H   0  0  0  0  0  0
  -24.6651  -15.8621   20.5035 H   0  0  0  0  0  0
  -26.2875  -15.6192   20.1007 H   0  0  0  0  0  0
  -26.7253  -32.5357   23.1011 H   0  0  0  0  0  0
  -25.0146  -33.9625   25.0354 H   0  0  0  0  0  0
  -22.7258  -31.2953   21.3923 H   0  0  0  0  0  0
  -23.3747  -35.9603   23.3231 H   0  0  0  0  0  0
  -24.3583  -36.8973   22.2059 H   0  0  0  0  0  0
  -23.7250  -37.6446   23.6718 H   0  0  0  0  0  0
  -26.1208  -31.5120   20.6158 H   0  0  0  0  0  0
  -26.8543  -30.8000   22.0186 H   0  0  0  0  0  0
  -28.1075  -28.8546   21.2485 H   0  0  0  0  0  0
  -25.9447  -25.9333   18.9169 H   0  0  0  0  0  0
  -23.9721  -27.3468   18.9481 H   0  0  0  0  0  0
  -23.7504  -30.5739   19.3938 H   0  0  0  0  0  0
  -22.7668  -29.2246   19.8649 H   0  0  0  0  0  0
  -25.1313  -36.1805   25.0778 H   0  0  0  0  0  0
  -20.9945  -28.3217   24.1414 H   0  0  0  0  0  0
  -20.5629  -26.2272   23.3622 H   0  0  0  0  0  0
  -21.6618  -26.7388   22.1225 H   0  0  0  0  0  0
  -19.6887  -25.6253   21.1277 H   0  0  0  0  0  0
  -19.6704  -27.3138   20.6731 H   0  0  0  0  0  0
  -17.4194  -26.6697   21.3997 H   0  0  0  0  0  0
  -18.0276  -26.0037   22.8977 H   0  0  0  0  0  0
  -19.7927  -30.7238   24.2307 H   0  0  0  0  0  0
  -17.5007  -31.6298   24.5071 H   0  0  0  0  0  0
  -15.5344  -30.2972   23.7671 H   0  0  0  0  0  0
  -15.8645  -28.0749   22.7212 H   0  0  0  0  0  0
  -24.5871  -30.7172   25.7714 H   0  0  0  0  0  0
  -24.8907  -32.3041   26.4686 H   0  0  0  0  0  0
  -25.7937  -30.9076   27.0240 H   0  0  0  0  0  0
  -26.3058  -29.6712   24.1244 H   0  0  0  0  0  0
  -27.3945  -29.7266   25.4919 H   0  0  0  0  0  0
  -27.8993  -30.4218   23.9687 H   0  0  0  0  0  0
  -27.2574  -33.3656   26.2094 H   0  0  0  0  0  0
  -28.3912  -32.6951   25.0449 H   0  0  0  0  0  0
  -28.0638  -31.8521   26.5529 H   0  0  0  0  0  0
  -28.2511  -38.0145   24.7539 H   0  0  0  0  0  0
  -28.1135  -36.2671   24.6180 H   0  0  0  0  0  0
  -27.2289  -37.1304   25.8839 H   0  0  0  0  0  0
  -20.9385  -29.8797   21.6947 H   0  0  0  0  0  0
  -26.0111  -38.2786   24.1470 H   0  0  0  0  0  0
  -31.1317  -20.5637   19.2154 H   0  0  0  0  0  0
  -29.7734  -18.3435   23.0958 H   0  0  0  0  0  0
  -28.3193  -17.8034   22.2723 H   0  0  0  0  0  0
  -29.2390  -15.7047   22.8215 H   0  0  0  0  0  0
  -30.8909  -16.2601   22.6267 H   0  0  0  0  0  0
  -30.8808  -18.7856   21.0183 H   0  0  0  0  0  0
  -30.7327  -17.1730   19.3494 H   0  0  0  0  0  0
  -27.3298  -21.0078   22.1010 H   0  0  0  0  0  0
  -26.3765  -21.6352   20.7638 H   0  0  0  0  0  0
  -26.9045  -22.7039   22.0682 H   0  0  0  0  0  0
  -32.5931  -22.1789   18.1798 H   0  0  0  0  0  0
  -32.5498  -23.8179   18.8253 H   0  0  0  0  0  0
  -31.6346  -23.4114   17.3629 H   0  0  0  0  0  0
  -27.6971  -17.0498   19.6528 H   0  0  0  0  0  0
  -28.6399  -16.1842   18.4401 H   0  0  0  0  0  0
  -28.5754  -17.9431   18.4135 H   0  0  0  0  0  0
  -27.7238  -24.8534   21.6421 H   0  0  0  0  0  0
  -26.9107  -24.5566   20.1611 H   0  0  0  0  0  0
  -30.1282  -24.6609   19.2395 H   0  0  0  0  0  0
  -28.0154  -19.5228   20.8675 H   0  0  0  0  0  0
  1 25  1  0  0  0
  1 30  2  0  0  0
  1 85  1  0  0  0
  2  3  1  0  0  0
  2 25  1  0  0  0
  2 87  1  0  0  0
  2 88  1  0  0  0
  3  4  1  0  0  0
  3 89  1  0  0  0
  3 90  1  0  0  0
  4  5  1  0  0  0
  4 91  1  0  0  0
  4 92  1  0  0  0
  5  6  1  0  0  0
  5 26  1  0  0  0
  5 93  1  0  0  0
  6 25  1  0  0  0
  6 94  1  0  0  0
  6 95  1  0  0  0
  7  8  2  0  0  0
  7 26  1  0  0  0
  7 29  1  0  0  0
  8  9  1  0  0  0
  8 22  1  0  0  0
  9 10  1  0  0  0
  9 27  2  0  0  0
 10 11  2  0  0  0
 10 15  1  0  0  0
 11 12  1  0  0  0
 11 96  1  0  0  0
 12 13  2  0  0  0
 12 97  1  0  0  0
 13 14  1  0  0  0
 13 31  1  0  0  0
 14 15  2  0  0  0
 14 98  1  0  0  0
 15 99  1  0  0  0
 16 17  2  0  0  0
 16 21  1  0  0  0
 16 31  1  0  0  0
 17 18  1  0  0  0
 17100  1  0  0  0
 18 19  2  0  0  0
 18101  1  0  0  0
 19 20  1  0  0  0
 19 24  1  0  0  0
 20 21  2  0  0  0
 20102  1  0  0  0
 21 23  1  0  0  0
 22 28  1  0  0  0
 22 32  2  0  0  0
 26 27  1  0  0  0
 28103  1  0  0  0
 28104  1  0  0  0
 29105  1  0  0  0
 29106  1  0  0  0
 33 34  1  0  0  0
 33 66  1  0  0  0
 33 70  2  0  0  0
 34 36  1  0  0  0
 34 59  1  0  0  0
 34107  1  0  0  0
 35 44  2  0  0  0
 35 45  1  0  0  0
 35 68  1  0  0  0
 36 56  1  0  0  0
 36108  1  0  0  0
 37 39  1  0  0  0
 37 47  1  0  0  0
 37 66  1  0  0  0
 37109  1  0  0  0
 38 43  2  0  0  0
 38 46  1  0  0  0
 38 47  1  0  0  0
 39 64  1  0  0  0
 39 67  2  0  0  0
 40 52  1  0  0  0
 40 53  2  0  0  0
 40 58  1  0  0  0
 41110  1  0  0  0
 41111  1  0  0  0
 41112  1  0  0  0
 41 48  1  0  0  0
 42 43  1  0  0  0
 42 66  1  0  0  0
 42113  1  0  0  0
 42114  1  0  0  0
 43 44  1  0  0  0
 44115  1  0  0  0
 45 46  2  0  0  0
 45116  1  0  0  0
 46117  1  0  0  0
 47118  1  0  0  0
 47119  1  0  0  0
 48 56  1  0  0  0
 48 65  1  0  0  0
 48120  1  0  0  0
 49 50  1  0  0  0
 49 53  1  0  0  0
 49 64  1  0  0  0
 49121  1  0  0  0
 50 51  1  0  0  0
 50122  1  0  0  0
 50123  1  0  0  0
 51 52  1  0  0  0
 51124  1  0  0  0
 51125  1  0  0  0
 52126  1  0  0  0
 52127  1  0  0  0
 53 54  1  0  0  0
 54 55  2  0  0  0
 54128  1  0  0  0
 55 57  1  0  0  0
 55129  1  0  0  0
 56 69  2  0  0  0
 57 58  2  0  0  0
 57130  1  0  0  0
 58131  1  0  0  0
 59 60  1  0  0  0
 59 61  1  0  0  0
 59 62  1  0  0  0
 60132  1  0  0  0
 60133  1  0  0  0
 60134  1  0  0  0
 61135  1  0  0  0
 61136  1  0  0  0
 61137  1  0  0  0
 62138  1  0  0  0
 62139  1  0  0  0
 62140  1  0  0  0
 63 65  1  0  0  0
 63141  1  0  0  0
 63142  1  0  0  0
 63143  1  0  0  0
 64144  1  0  0  0
 65145  1  0  0  0
 68 83  1  0  0  0
 71 73  2  0  0  0
 71 74  1  0  0  0
 71146  1  0  0  0
 72 73  1  0  0  0
 72 75  2  0  0  0
 72 80  1  0  0  0
 73 86  1  0  0  0
 74 81  1  0  0  0
 74 84  2  0  0  0
 75 83  1  0  0  0
 75 84  1  0  0  0
 76 77  1  0  0  0
 76 78  1  0  0  0
 76147  1  0  0  0
 76148  1  0  0  0
 77 85  1  0  0  0
 77149  1  0  0  0
 77150  1  0  0  0
 78 79  1  0  0  0
 78 86  1  0  0  0
 78151  1  0  0  0
 79 82  1  0  0  0
 79 85  1  0  0  0
 79152  1  0  0  0
 80153  1  0  0  0
 80154  1  0  0  0
 80155  1  0  0  0
 81156  1  0  0  0
 81157  1  0  0  0
 81158  1  0  0  0
 82159  1  0  0  0
 82160  1  0  0  0
 82161  1  0  0  0
 83162  1  0  0  0
 83163  1  0  0  0
 84164  1  0  0  0
 86165  1  0  0  0
M  CHG  1  84   1
M  ISO  4   1 100  68 101  83 101  85 100
M  END
> <chiral flag>
0

> <version>
0

> <s_m_source_file>
/data/baiqing/PycharmProjects/Reinvent-master-3.2/result/LINK_invent/BTK/process_docking_weight1_custom_sum_contain_oxygen_bond_distance_aromatic_linkinvent_7_9_3/rearranged_h_0160.sdf

> <i_m_source_file_index>
34

> <r_mmod_Potential_Energy-OPLS-2005>
268.515625

> <r_mmod_Stretch_Energy-OPLS-2005>
129.975967407227

> <r_mmod_Bend_Energy-OPLS-2005>
199.954437255859

> <r_mmod_Torsional_Energy-OPLS-2005>
361.348327636719

> <r_mmod_Improper_Torsional_Energy-OPLS-2005>
10.9064445495605

> <r_mmod_Van_der_Waal_Energy-OPLS-2005>
130.195205688477

> <r_mmod_Electrostatic_Energy-OPLS-2005>
-280.094207763672

> <r_mmod_Solvation_Energy-OPLS-2005>
-376.340118408203

> <b_mmod_Minimization_Converged-OPLS-2005>
0

> <r_mmod_RMS_Derivative-OPLS-2005>
3.59481453895569

$$$$
34
                    3D
 Structure written by MMmdl.
170180  0  0  1  0            999 V2000
  -30.7425  -14.7125   20.4794 C   0  0  0  0  0  0
  -30.4003  -12.4593   19.4629 C   0  0  0  0  0  0
  -29.4873  -12.4953   18.2243 C   0  0  0  0  0  0
  -28.0205  -12.3190   18.6510 C   0  0  0  0  0  0
  -27.6310  -13.2368   19.8405 C   0  0  2  0  0  0
  -28.6869  -13.2223   20.9705 C   0  0  0  0  0  0
  -25.2465  -13.8206   20.5721 C   0  0  0  0  0  0
  -24.1773  -13.0437   20.9230 C   0  0  0  0  0  0
  -24.6380  -11.6921   20.8774 C   0  0  0  0  0  0
  -23.9064  -10.4289   21.0419 C   0  0  0  0  0  0
  -24.3618   -9.4199   21.9191 C   0  0  0  0  0  0
  -23.6292   -8.2234   22.0754 C   0  0  0  0  0  0
  -22.4274   -8.0275   21.3543 C   0  0  0  0  0  0
  -21.9911   -9.0249   20.4648 C   0  0  0  0  0  0
  -22.7241  -10.2128   20.3061 C   0  0  0  0  0  0
  -21.6850   -6.0732   22.5278 C   0  0  0  0  0  0
  -21.4012   -6.5638   23.8213 C   0  0  0  0  0  0
  -21.3661   -5.6791   24.9175 C   0  0  0  0  0  0
  -21.6044   -4.3054   24.7227 C   0  0  0  0  0  0
  -21.8817   -3.8144   23.4348 C   0  0  0  0  0  0
  -21.9190   -4.6960   22.3403 C   0  0  0  0  0  0
  -22.7794  -13.5210   21.1876 C   0  0  0  0  0  0
  -22.1659   -4.2143   21.0981 F   0  0  0  0  0  0
  -21.5631   -3.4538   25.7741 F   0  0  0  0  0  0
  -29.9730  -13.5707   20.3546 N   0  0  0  0  0  0
  -26.2896  -12.9428   20.3309 N   0  0  0  0  0  0
  -25.9315  -11.6563   20.5794 N   0  0  0  0  0  0
  -22.0442  -12.8201   22.0435 N   0  0  0  0  0  0
  -25.4114  -15.1929   20.4114 N   0  0  0  0  0  0
  -31.9439  -14.5921   20.2270 O   0  0  0  0  0  0
  -21.6638   -6.8874   21.4239 O   0  0  0  0  0  0
  -22.3479  -14.5514   20.6721 O   0  0  0  0  0  0
  -24.6318  -31.8592   23.2057 C   0  0  0  0  0  0
  -25.9153  -32.4773   23.8382 C   0  0  1  0  0  0
  -27.1958  -27.2616   20.1074 C   0  0  0  0  0  0
  -25.5954  -33.8577   24.2291 N   0  0  0  0  0  0
  -23.4267  -30.4902   21.5505 C   0  0  2  0  0  0
  -24.8685  -28.9571   20.1059 C   0  0  0  0  0  0
  -22.7508  -29.4628   22.4919 C   0  0  0  0  0  0
  -18.0297  -28.1388   22.8481 C   0  0  0  0  0  0
  -24.1491  -36.7289   23.2636 C   0  0  0  0  0  0
  -25.9783  -30.7684   21.3930 C   0  0  0  0  0  0
  -26.0452  -29.3963   20.7267 C   0  0  0  0  0  0
  -27.2106  -28.5584   20.7281 C   0  0  0  0  0  0
  -25.9983  -26.9277   19.4216 C   0  0  0  0  0  0
  -24.8509  -27.7293   19.4435 C   0  0  0  0  0  0
  -23.6429  -29.8436   20.1612 C   0  0  0  0  0  0
  -25.4116  -36.3080   24.0330 C   0  0  1  0  0  0
  -20.5903  -28.3702   23.1260 C   0  0  2  0  0  0
  -20.6788  -26.9422   22.5396 C   0  0  0  0  0  0
  -19.5758  -26.6386   21.5207 C   0  0  0  0  0  0
  -18.1941  -26.7928   22.1627 C   0  0  0  0  0  0
  -19.1550  -28.8863   23.2865 C   0  0  0  0  0  0
  -18.9467  -30.1462   23.8887 C   0  0  0  0  0  0
  -17.6466  -30.6588   24.0559 C   0  0  0  0  0  0
  -25.9058  -34.9450   23.5107 C   0  0  0  0  0  0
  -16.5357  -29.9083   23.6332 C   0  0  0  0  0  0
  -16.7281  -28.6502   23.0351 C   0  0  0  0  0  0
  -26.4511  -31.6587   25.0766 C   0  0  0  0  0  0
  -25.3729  -31.3747   26.1482 C   0  0  0  0  0  0
  -27.0351  -30.2993   24.6267 C   0  0  0  0  0  0
  -27.6071  -32.4325   25.7531 C   0  0  0  0  0  0
  -27.5582  -37.1801   24.8462 C   0  0  0  0  0  0
  -21.4218  -29.3056   22.3654 N   0  0  0  0  0  0
  -26.4291  -37.3778   23.9412 N   0  0  0  0  0  0
  -24.6983  -31.0560   22.1050 N   0  0  0  0  0  0
  -23.4213  -28.8144   23.2993 O   0  0  0  0  0  0
  -28.2433  -26.3015   20.1934 O   0  0  0  0  0  0
  -26.5620  -34.8917   22.4669 O   0  0  0  0  0  0
  -23.5465  -32.1428   23.7337 O   0  0  0  0  0  0
  -28.8648  -21.1084   19.4158 C   0  0  0  0  0  0
  -29.3113  -20.6857   20.6875 C   0  0  0  0  0  0
  -29.4615  -21.7420   21.6559 C   0  0  0  0  0  0
  -28.5312  -22.4619   19.1100 C   0  0  0  0  0  0
  -29.0465  -23.1059   21.3740 C   0  0  0  0  0  0
  -28.5849  -23.5147   20.0846 C   0  0  0  0  0  0
  -31.1970  -22.2085   23.6001 C   0  0  0  0  0  0
  -31.4184  -20.7889   23.1636 C   0  0  0  0  0  0
  -28.5442  -18.0613   20.7577 C   0  0  0  0  0  0
  -30.7954  -18.5859   20.0911 C   0  0  0  0  0  0
  -28.9493  -16.5530   21.0993 C   0  0  0  0  0  0
  -31.2576  -17.1395   20.4730 C   0  0  0  0  0  0
  -29.6536  -19.1432   20.9557 C   0  0  0  0  0  0
  -30.0439  -21.4140   23.0124 C   0  0  0  0  0  0
  -28.0459  -22.7291   17.6923 C   0  0  0  0  0  0
  -29.0428  -24.1517   22.4857 C   0  0  0  0  0  0
  -27.8695  -24.9102   19.7638 C   0  0  0  0  0  0
  -30.2437  -16.0300   20.5641 N   0  0  0  0  0  0
  -31.4417  -12.5269   19.1436 H   0  0  0  0  0  0
  -30.3183  -11.4998   19.9764 H   0  0  0  0  0  0
  -29.7697  -11.7110   17.5206 H   0  0  0  0  0  0
  -29.6103  -13.4432   17.6979 H   0  0  0  0  0  0
  -27.8860  -11.2736   18.9311 H   0  0  0  0  0  0
  -27.3556  -12.4932   17.8042 H   0  0  0  0  0  0
  -27.6057  -14.2419   19.4224 H   0  0  0  0  0  0
  -28.7388  -12.2389   21.4395 H   0  0  0  0  0  0
  -28.4288  -13.9187   21.7681 H   0  0  0  0  0  0
  -25.2757   -9.5678   22.4773 H   0  0  0  0  0  0
  -24.0001   -7.4622   22.7468 H   0  0  0  0  0  0
  -21.0843   -8.8771   19.8953 H   0  0  0  0  0  0
  -22.3699  -10.9671   19.6176 H   0  0  0  0  0  0
  -21.2005   -7.6145   23.9717 H   0  0  0  0  0  0
  -21.1487   -6.0520   25.9079 H   0  0  0  0  0  0
  -22.0597   -2.7604   23.2849 H   0  0  0  0  0  0
  -22.4063  -11.9868   22.4827 H   0  0  0  0  0  0
  -21.1059  -13.1224   22.2636 H   0  0  0  0  0  0
  -24.6429  -15.8439   20.5288 H   0  0  0  0  0  0
  -26.2596  -15.6368   20.0861 H   0  0  0  0  0  0
  -26.7218  -32.5412   23.1121 H   0  0  0  0  0  0
  -25.0100  -33.9727   25.0434 H   0  0  0  0  0  0
  -22.7230  -31.3143   21.4143 H   0  0  0  0  0  0
  -23.3755  -35.9618   23.3293 H   0  0  0  0  0  0
  -24.3585  -36.8912   22.2052 H   0  0  0  0  0  0
  -23.7240  -37.6491   23.6657 H   0  0  0  0  0  0
  -26.1266  -31.5328   20.6289 H   0  0  0  0  0  0
  -26.8535  -30.8068   22.0300 H   0  0  0  0  0  0
  -28.1016  -28.8812   21.2485 H   0  0  0  0  0  0
  -25.8762  -26.0159   18.8594 H   0  0  0  0  0  0
  -23.9575  -27.3951   18.9336 H   0  0  0  0  0  0
  -23.7705  -30.6294   19.4157 H   0  0  0  0  0  0
  -22.7590  -29.2839   19.8491 H   0  0  0  0  0  0
  -25.1292  -36.1935   25.0821 H   0  0  0  0  0  0
  -20.9993  -28.3274   24.1381 H   0  0  0  0  0  0
  -20.5696  -26.2313   23.3600 H   0  0  0  0  0  0
  -21.6653  -26.7452   22.1183 H   0  0  0  0  0  0
  -19.6920  -25.6295   21.1244 H   0  0  0  0  0  0
  -19.6692  -27.3192   20.6733 H   0  0  0  0  0  0
  -17.4207  -26.6666   21.4033 H   0  0  0  0  0  0
  -18.0349  -26.0075   22.9031 H   0  0  0  0  0  0
  -19.7942  -30.7279   24.2254 H   0  0  0  0  0  0
  -17.5020  -31.6268   24.5159 H   0  0  0  0  0  0
  -15.5356  -30.2979   23.7667 H   0  0  0  0  0  0
  -15.8681  -28.0818   22.7068 H   0  0  0  0  0  0
  -24.5871  -30.7144   25.7793 H   0  0  0  0  0  0
  -24.8964  -32.2925   26.4937 H   0  0  0  0  0  0
  -25.8028  -30.8877   27.0243 H   0  0  0  0  0  0
  -26.2941  -29.6744   24.1264 H   0  0  0  0  0  0
  -27.3981  -29.7256   25.4805 H   0  0  0  0  0  0
  -27.8852  -30.4249   23.9560 H   0  0  0  0  0  0
  -27.2686  -33.3627   26.2107 H   0  0  0  0  0  0
  -28.3880  -32.6880   25.0356 H   0  0  0  0  0  0
  -28.0741  -31.8451   26.5445 H   0  0  0  0  0  0
  -28.2586  -38.0109   24.7517 H   0  0  0  0  0  0
  -28.1091  -36.2641   24.6272 H   0  0  0  0  0  0
  -27.2303  -37.1428   25.8864 H   0  0  0  0  0  0
  -20.9397  -29.8803   21.6884 H   0  0  0  0  0  0
  -26.0168  -38.2852   24.1411 H   0  0  0  0  0  0
  -28.7644  -20.3562   18.6452 H   0  0  0  0  0  0
  -31.6610  -22.9813   22.9901 H   0  0  0  0  0  0
  -31.1876  -22.4004   24.6711 H   0  0  0  0  0  0
  -31.5544  -20.0477   23.9486 H   0  0  0  0  0  0
  -32.0129  -20.6341   22.2656 H   0  0  0  0  0  0
  -27.6786  -18.3322   21.3637 H   0  0  0  0  0  0
  -28.1960  -18.1010   19.7247 H   0  0  0  0  0  0
  -30.5037  -18.6048   19.0403 H   0  0  0  0  0  0
  -31.6547  -19.2535   20.1681 H   0  0  0  0  0  0
  -28.1358  -15.9180   20.7654 H   0  0  0  0  0  0
  -28.9890  -16.4410   22.1838 H   0  0  0  0  0  0
  -31.7715  -17.1829   21.4345 H   0  0  0  0  0  0
  -32.0273  -16.8978   19.7383 H   0  0  0  0  0  0
  -29.9539  -19.0439   21.9955 H   0  0  0  0  0  0
  -29.2636  -21.0824   23.6954 H   0  0  0  0  0  0
  -28.1069  -21.8378   17.0672 H   0  0  0  0  0  0
  -28.6569  -23.4953   17.2142 H   0  0  0  0  0  0
  -27.0051  -23.0544   17.6918 H   0  0  0  0  0  0
  -28.8895  -23.7078   23.4684 H   0  0  0  0  0  0
  -28.2373  -24.8741   22.3634 H   0  0  0  0  0  0
  -29.9845  -24.7005   22.4961 H   0  0  0  0  0  0
  -26.8787  -24.6948   20.1658 H   0  0  0  0  0  0
  -27.7718  -24.9961   18.6848 H   0  0  0  0  0  0
  1 25  1  0  0  0
  1 30  2  0  0  0
  1 88  1  0  0  0
  2  3  1  0  0  0
  2 25  1  0  0  0
  2 89  1  0  0  0
  2 90  1  0  0  0
  3  4  1  0  0  0
  3 91  1  0  0  0
  3 92  1  0  0  0
  4  5  1  0  0  0
  4 93  1  0  0  0
  4 94  1  0  0  0
  5  6  1  0  0  0
  5 26  1  0  0  0
  5 95  1  0  0  0
  6 25  1  0  0  0
  6 96  1  0  0  0
  6 97  1  0  0  0
  7  8  2  0  0  0
  7 26  1  0  0  0
  7 29  1  0  0  0
  8  9  1  0  0  0
  8 22  1  0  0  0
  9 10  1  0  0  0
  9 27  2  0  0  0
 10 11  2  0  0  0
 10 15  1  0  0  0
 11 12  1  0  0  0
 11 98  1  0  0  0
 12 13  2  0  0  0
 12 99  1  0  0  0
 13 14  1  0  0  0
 13 31  1  0  0  0
 14 15  2  0  0  0
 14100  1  0  0  0
 15101  1  0  0  0
 16 17  2  0  0  0
 16 21  1  0  0  0
 16 31  1  0  0  0
 17 18  1  0  0  0
 17102  1  0  0  0
 18 19  2  0  0  0
 18103  1  0  0  0
 19 20  1  0  0  0
 19 24  1  0  0  0
 20 21  2  0  0  0
 20104  1  0  0  0
 21 23  1  0  0  0
 22 28  1  0  0  0
 22 32  2  0  0  0
 26 27  1  0  0  0
 28105  1  0  0  0
 28106  1  0  0  0
 29107  1  0  0  0
 29108  1  0  0  0
 33 34  1  0  0  0
 33 66  1  0  0  0
 33 70  2  0  0  0
 34 36  1  0  0  0
 34 59  1  0  0  0
 34109  1  0  0  0
 35 44  2  0  0  0
 35 45  1  0  0  0
 35 68  1  0  0  0
 36 56  1  0  0  0
 36110  1  0  0  0
 37 39  1  0  0  0
 37 47  1  0  0  0
 37 66  1  0  0  0
 37111  1  0  0  0
 38 43  2  0  0  0
 38 46  1  0  0  0
 38 47  1  0  0  0
 39 64  1  0  0  0
 39 67  2  0  0  0
 40 52  1  0  0  0
 40 53  2  0  0  0
 40 58  1  0  0  0
 41112  1  0  0  0
 41113  1  0  0  0
 41114  1  0  0  0
 41 48  1  0  0  0
 42 43  1  0  0  0
 42 66  1  0  0  0
 42115  1  0  0  0
 42116  1  0  0  0
 43 44  1  0  0  0
 44117  1  0  0  0
 45 46  2  0  0  0
 45118  1  0  0  0
 46119  1  0  0  0
 47120  1  0  0  0
 47121  1  0  0  0
 48 56  1  0  0  0
 48 65  1  0  0  0
 48122  1  0  0  0
 49 50  1  0  0  0
 49 53  1  0  0  0
 49 64  1  0  0  0
 49123  1  0  0  0
 50 51  1  0  0  0
 50124  1  0  0  0
 50125  1  0  0  0
 51 52  1  0  0  0
 51126  1  0  0  0
 51127  1  0  0  0
 52128  1  0  0  0
 52129  1  0  0  0
 53 54  1  0  0  0
 54 55  2  0  0  0
 54130  1  0  0  0
 55 57  1  0  0  0
 55131  1  0  0  0
 56 69  2  0  0  0
 57 58  2  0  0  0
 57132  1  0  0  0
 58133  1  0  0  0
 59 60  1  0  0  0
 59 61  1  0  0  0
 59 62  1  0  0  0
 60134  1  0  0  0
 60135  1  0  0  0
 60136  1  0  0  0
 61137  1  0  0  0
 61138  1  0  0  0
 61139  1  0  0  0
 62140  1  0  0  0
 62141  1  0  0  0
 62142  1  0  0  0
 63 65  1  0  0  0
 63143  1  0  0  0
 63144  1  0  0  0
 63145  1  0  0  0
 64146  1  0  0  0
 65147  1  0  0  0
 68 87  1  0  0  0
 71 72  2  0  0  0
 71 74  1  0  0  0
 71148  1  0  0  0
 72 73  1  0  0  0
 72 83  1  0  0  0
 73 75  2  0  0  0
 73 84  1  0  0  0
 74 76  2  0  0  0
 74 85  1  0  0  0
 75 76  1  0  0  0
 75 86  1  0  0  0
 76 87  1  0  0  0
 77 78  1  0  0  0
 77 84  1  0  0  0
 77149  1  0  0  0
 77150  1  0  0  0
 78 84  1  0  0  0
 78151  1  0  0  0
 78152  1  0  0  0
 79 81  1  0  0  0
 79 83  1  0  0  0
 79153  1  0  0  0
 79154  1  0  0  0
 80 82  1  0  0  0
 80 83  1  0  0  0
 80155  1  0  0  0
 80156  1  0  0  0
 81 88  1  0  0  0
 81157  1  0  0  0
 81158  1  0  0  0
 82 88  1  0  0  0
 82159  1  0  0  0
 82160  1  0  0  0
 83161  1  0  0  0
 84162  1  0  0  0
 85163  1  0  0  0
 85164  1  0  0  0
 85165  1  0  0  0
 86166  1  0  0  0
 86167  1  0  0  0
 86168  1  0  0  0
 87169  1  0  0  0
 87170  1  0  0  0
M  ISO  4   1 100  68 101  87 101  88 100
M  END
> <chiral flag>
0

> <version>
0

> <s_m_source_file>
/data/baiqing/PycharmProjects/Reinvent-master-3.2/result/LINK_invent/BTK/process_docking_weight1_custom_sum_contain_oxygen_bond_distance_aromatic_linkinvent_7_9_3/rearranged_h_0160.sdf

> <i_m_source_file_index>
35

> <r_mmod_Potential_Energy-OPLS-2005>
489.859313964844

> <r_mmod_Stretch_Energy-OPLS-2005>
124.065490722656

> <r_mmod_Bend_Energy-OPLS-2005>
225.796203613281

> <r_mmod_Torsional_Energy-OPLS-2005>
337.518432617188

> <r_mmod_Improper_Torsional_Energy-OPLS-2005>
10.5836925506592

> <r_mmod_Van_der_Waal_Energy-OPLS-2005>
177.561447143555

> <r_mmod_Electrostatic_Energy-OPLS-2005>
-288.672973632812

> <r_mmod_Solvation_Energy-OPLS-2005>
-195.940124511719

> <b_mmod_Minimization_Converged-OPLS-2005>
0

> <r_mmod_RMS_Derivative-OPLS-2005>
0.595956742763519

$$$$
35
                    3D
 Structure written by MMmdl.
183193  0  0  1  0            999 V2000
  -30.8466  -14.2509   20.6920 C   0  0  0  0  0  0
  -30.3836  -12.2372   19.3744 C   0  0  0  0  0  0
  -29.4716  -12.5321   18.1758 C   0  0  0  0  0  0
  -27.9958  -12.4013   18.5900 C   0  0  0  0  0  0
  -27.6631  -13.2102   19.8732 C   0  0  2  0  0  0
  -28.6994  -12.9489   20.9885 C   0  0  0  0  0  0
  -25.2579  -13.8182   20.5649 C   0  0  0  0  0  0
  -24.1824  -13.0444   20.9160 C   0  0  0  0  0  0
  -24.6385  -11.6921   20.8701 C   0  0  0  0  0  0
  -23.9057  -10.4298   21.0384 C   0  0  0  0  0  0
  -24.3617   -9.4222   21.9170 C   0  0  0  0  0  0
  -23.6294   -8.2250   22.0738 C   0  0  0  0  0  0
  -22.4277   -8.0282   21.3536 C   0  0  0  0  0  0
  -21.9914   -9.0249   20.4633 C   0  0  0  0  0  0
  -22.7233  -10.2134   20.3033 C   0  0  0  0  0  0
  -21.6857   -6.0740   22.5284 C   0  0  0  0  0  0
  -21.4012   -6.5645   23.8218 C   0  0  0  0  0  0
  -21.3649   -5.6786   24.9179 C   0  0  0  0  0  0
  -21.6049   -4.3049   24.7218 C   0  0  0  0  0  0
  -21.8815   -3.8147   23.4339 C   0  0  0  0  0  0
  -21.9195   -4.6970   22.3403 C   0  0  0  0  0  0
  -22.7855  -13.5251   21.1824 C   0  0  0  0  0  0
  -22.1664   -4.2157   21.0977 F   0  0  0  0  0  0
  -21.5624   -3.4531   25.7731 F   0  0  0  0  0  0
  -30.0482  -13.1863   20.4453 N   0  0  0  0  0  0
  -26.3017  -12.9357   20.3341 N   0  0  0  0  0  0
  -25.9309  -11.6509   20.5709 N   0  0  0  0  0  0
  -22.0476  -12.8247   22.0375 N   0  0  0  0  0  0
  -25.4306  -15.1892   20.4101 N   0  0  0  0  0  0
  -31.8602  -14.4828   20.0324 O   0  0  0  0  0  0
  -21.6636   -6.8887   21.4243 O   0  0  0  0  0  0
  -22.3555  -14.5566   20.6684 O   0  0  0  0  0  0
  -24.6097  -31.8666   23.2183 C   0  0  0  0  0  0
  -25.8996  -32.4819   23.8466 C   0  0  1  0  0  0
  -27.2397  -27.4858   20.0620 C   0  0  0  0  0  0
  -25.5897  -33.8621   24.2402 N   0  0  0  0  0  0
  -23.3934  -30.4916   21.5568 C   0  0  2  0  0  0
  -24.8357  -28.9591   20.1225 C   0  0  0  0  0  0
  -22.7368  -29.4632   22.5042 C   0  0  0  0  0  0
  -18.0285  -28.1322   22.8506 C   0  0  0  0  0  0
  -24.1473  -36.7357   23.2621 C   0  0  0  0  0  0
  -25.9168  -30.8473   21.3609 C   0  0  0  0  0  0
  -25.9935  -29.4825   20.7096 C   0  0  0  0  0  0
  -27.1950  -28.7514   20.6771 C   0  0  0  0  0  0
  -26.0608  -26.9543   19.4906 C   0  0  0  0  0  0
  -24.8598  -27.6890   19.5197 C   0  0  0  0  0  0
  -23.5978  -29.8204   20.1726 C   0  0  0  0  0  0
  -25.4067  -36.3121   24.0365 C   0  0  1  0  0  0
  -20.5868  -28.3588   23.1348 C   0  0  2  0  0  0
  -20.6763  -26.9324   22.5424 C   0  0  0  0  0  0
  -19.5781  -26.6350   21.5176 C   0  0  0  0  0  0
  -18.1950  -26.7900   22.1572 C   0  0  0  0  0  0
  -19.1531  -28.8772   23.2948 C   0  0  0  0  0  0
  -18.9439  -30.1383   23.8965 C   0  0  0  0  0  0
  -17.6440  -30.6555   24.0533 C   0  0  0  0  0  0
  -25.9004  -34.9476   23.5179 C   0  0  0  0  0  0
  -16.5336  -29.9038   23.6311 C   0  0  0  0  0  0
  -16.7269  -28.6434   23.0394 C   0  0  0  0  0  0
  -26.4489  -31.6560   25.0746 C   0  0  0  0  0  0
  -25.3797  -31.3563   26.1507 C   0  0  0  0  0  0
  -27.0233  -30.3017   24.5997 C   0  0  0  0  0  0
  -27.6146  -32.4158   25.7497 C   0  0  0  0  0  0
  -27.5576  -37.1822   24.8451 C   0  0  0  0  0  0
  -21.4112  -29.2970   22.3763 N   0  0  0  0  0  0
  -26.4246  -37.3823   23.9448 N   0  0  0  0  0  0
  -24.6578  -31.0829   22.1045 N   0  0  0  0  0  0
  -23.4153  -28.8135   23.3044 O   0  0  0  0  0  0
  -28.4638  -26.8651   20.0063 O   0  0  0  0  0  0
  -26.5550  -34.8917   22.4738 O   0  0  0  0  0  0
  -23.5316  -32.1382   23.7622 O   0  0  0  0  0  0
  -31.9334  -19.4049   23.1406 C   0  0  0  0  0  0
  -31.6521  -19.2197   20.7099 C   0  0  0  0  0  0
  -31.8246  -18.0084   23.2154 C   0  0  0  0  0  0
  -31.6272  -17.2252   22.0812 C   0  0  0  0  0  0
  -31.8213  -20.0065   21.8703 C   0  0  0  0  0  0
  -31.5433  -17.8140   20.7916 C   0  0  0  0  0  0
  -31.8490  -17.1861   24.4736 C   0  0  0  0  0  0
  -30.4202  -23.7134   19.8525 C   0  0  0  0  0  0
  -28.4619  -23.3947   21.4155 C   0  0  0  0  0  0
  -30.0492  -25.1889   19.6787 C   0  0  0  0  0  0
  -28.0820  -24.8670   21.2665 C   0  0  0  0  0  0
  -31.5650  -15.7609   22.4835 C   0  0  1  0  0  0
  -31.3534  -15.7875   24.0284 C   0  0  1  0  0  0
  -29.9792  -23.2059   21.2420 C   0  0  1  0  0  0
  -28.5516  -25.4547   19.9218 C   0  0  1  0  0  0
  -31.7105  -14.7348   26.3329 C   0  0  0  0  0  0
  -31.4702  -13.2402   24.3340 C   0  0  0  0  0  0
  -31.6487  -17.5746   18.3926 C   0  0  0  0  0  0
  -31.7280  -21.5021   21.7318 C   0  0  0  0  0  0
  -31.9794  -14.6088   24.8212 C   0  0  0  0  0  0
  -30.5664  -14.9405   21.7998 N   0  0  0  0  0  0
  -30.3151  -21.7926   21.4509 N   0  3  0  0  0  0
  -31.3217  -17.0437   19.6743 O   0  0  0  0  0  0
  -31.4307  -12.2839   19.0697 H   0  0  0  0  0  0
  -30.2319  -11.2135   19.7199 H   0  0  0  0  0  0
  -29.6938  -11.8522   17.3520 H   0  0  0  0  0  0
  -29.6647  -13.5393   17.8027 H   0  0  0  0  0  0
  -27.7857  -11.3431   18.7474 H   0  0  0  0  0  0
  -27.3510  -12.7181   17.7689 H   0  0  0  0  0  0
  -27.7241  -14.2661   19.6100 H   0  0  0  0  0  0
  -28.6290  -11.9144   21.3291 H   0  0  0  0  0  0
  -28.4658  -13.5619   21.8587 H   0  0  0  0  0  0
  -25.2777   -9.5696   22.4722 H   0  0  0  0  0  0
  -24.0014   -7.4645   22.7450 H   0  0  0  0  0  0
  -21.0849   -8.8762   19.8928 H   0  0  0  0  0  0
  -22.3709  -10.9657   19.6115 H   0  0  0  0  0  0
  -21.1991   -7.6148   23.9729 H   0  0  0  0  0  0
  -21.1472   -6.0511   25.9083 H   0  0  0  0  0  0
  -22.0596   -2.7609   23.2836 H   0  0  0  0  0  0
  -22.4050  -11.9927   22.4804 H   0  0  0  0  0  0
  -21.1075  -13.1277   22.2498 H   0  0  0  0  0  0
  -24.6688  -15.8498   20.5226 H   0  0  0  0  0  0
  -26.2990  -15.6305   20.1279 H   0  0  0  0  0  0
  -26.7060  -32.5575   23.1245 H   0  0  0  0  0  0
  -25.0077  -33.9789   25.0572 H   0  0  0  0  0  0
  -22.6801  -31.3083   21.4203 H   0  0  0  0  0  0
  -23.3734  -35.9690   23.3184 H   0  0  0  0  0  0
  -24.3596  -36.9051   22.2053 H   0  0  0  0  0  0
  -23.7213  -37.6541   23.6684 H   0  0  0  0  0  0
  -26.0146  -31.6129   20.5897 H   0  0  0  0  0  0
  -26.8125  -30.9093   21.9685 H   0  0  0  0  0  0
  -28.0969  -29.1589   21.1118 H   0  0  0  0  0  0
  -26.0524  -25.9962   18.9946 H   0  0  0  0  0  0
  -23.9681  -27.2793   19.0652 H   0  0  0  0  0  0
  -23.7015  -30.5904   19.4065 H   0  0  0  0  0  0
  -22.7258  -29.2325   19.8848 H   0  0  0  0  0  0
  -25.1219  -36.1990   25.0861 H   0  0  0  0  0  0
  -20.9990  -28.3108   24.1460 H   0  0  0  0  0  0
  -20.5580  -26.2172   23.3585 H   0  0  0  0  0  0
  -21.6645  -26.7342   22.1239 H   0  0  0  0  0  0
  -19.6910  -25.6266   21.1206 H   0  0  0  0  0  0
  -19.6756  -27.3157   20.6710 H   0  0  0  0  0  0
  -17.4219  -26.6683   21.3959 H   0  0  0  0  0  0
  -18.0339  -26.0010   22.8929 H   0  0  0  0  0  0
  -19.7912  -30.7178   24.2377 H   0  0  0  0  0  0
  -17.4996  -31.6272   24.5063 H   0  0  0  0  0  0
  -15.5348  -30.2953   23.7599 H   0  0  0  0  0  0
  -15.8666  -28.0729   22.7150 H   0  0  0  0  0  0
  -24.6142  -30.6707   25.7886 H   0  0  0  0  0  0
  -24.8787  -32.2624   26.4923 H   0  0  0  0  0  0
  -25.8233  -30.8852   27.0289 H   0  0  0  0  0  0
  -26.2694  -29.6863   24.1090 H   0  0  0  0  0  0
  -27.4056  -29.7186   25.4385 H   0  0  0  0  0  0
  -27.8546  -30.4358   23.9070 H   0  0  0  0  0  0
  -27.2912  -33.3470   26.2177 H   0  0  0  0  0  0
  -28.3979  -32.6626   25.0313 H   0  0  0  0  0  0
  -28.0805  -31.8151   26.5329 H   0  0  0  0  0  0
  -28.2529  -38.0179   24.7560 H   0  0  0  0  0  0
  -28.1124  -36.2717   24.6154 H   0  0  0  0  0  0
  -27.2332  -37.1341   25.8858 H   0  0  0  0  0  0
  -20.9222  -29.8691   21.7024 H   0  0  0  0  0  0
  -26.0119  -38.2880   24.1536 H   0  0  0  0  0  0
  -32.0591  -19.9965   24.0380 H   0  0  0  0  0  0
  -31.5520  -19.7236   19.7585 H   0  0  0  0  0  0
  -31.2270  -17.6191   25.2569 H   0  0  0  0  0  0
  -32.8780  -17.1459   24.8339 H   0  0  0  0  0  0
  -31.4958  -23.6055   19.7122 H   0  0  0  0  0  0
  -29.9495  -23.1277   19.0623 H   0  0  0  0  0  0
  -27.9136  -22.7988   20.6823 H   0  0  0  0  0  0
  -28.1516  -23.0503   22.4037 H   0  0  0  0  0  0
  -30.3386  -25.5260   18.6827 H   0  0  0  0  0  0
  -30.6353  -25.7826   20.3821 H   0  0  0  0  0  0
  -28.5342  -25.4256   22.0866 H   0  0  0  0  0  0
  -27.0040  -24.9808   21.3743 H   0  0  0  0  0  0
  -32.5647  -15.3613   22.2945 H   0  0  0  0  0  0
  -30.2749  -15.7902   24.1998 H   0  0  0  0  0  0
  -30.4946  -23.7833   22.0147 H   0  0  0  0  0  0
  -27.9791  -25.0417   19.0895 H   0  0  0  0  0  0
  -32.1881  -15.6181   26.7588 H   0  0  0  0  0  0
  -32.0997  -13.8740   26.8794 H   0  0  0  0  0  0
  -30.6427  -14.7994   26.5446 H   0  0  0  0  0  0
  -31.8528  -13.0032   23.3410 H   0  0  0  0  0  0
  -30.3808  -13.2125   24.2905 H   0  0  0  0  0  0
  -31.7918  -12.4334   24.9941 H   0  0  0  0  0  0
  -31.7074  -16.7608   17.6681 H   0  0  0  0  0  0
  -32.6184  -18.0732   18.3947 H   0  0  0  0  0  0
  -30.8853  -18.2701   18.0430 H   0  0  0  0  0  0
  -32.3714  -21.8362   20.9189 H   0  0  0  0  0  0
  -32.0519  -22.0025   22.6456 H   0  0  0  0  0  0
  -33.0609  -14.6272   24.6801 H   0  0  0  0  0  0
  -29.7411  -14.6770   22.3148 H   0  0  0  0  0  0
  -30.0283  -21.2519   20.6518 H   0  0  0  0  0  0
  -29.7922  -21.4549   22.2433 H   0  0  0  0  0  0
  1 25  1  0  0  0
  1 30  2  0  0  0
  1 91  1  0  0  0
  2  3  1  0  0  0
  2 25  1  0  0  0
  2 94  1  0  0  0
  2 95  1  0  0  0
  3  4  1  0  0  0
  3 96  1  0  0  0
  3 97  1  0  0  0
  4  5  1  0  0  0
  4 98  1  0  0  0
  4 99  1  0  0  0
  5  6  1  0  0  0
  5 26  1  0  0  0
  5100  1  0  0  0
  6 25  1  0  0  0
  6101  1  0  0  0
  6102  1  0  0  0
  7  8  2  0  0  0
  7 26  1  0  0  0
  7 29  1  0  0  0
  8  9  1  0  0  0
  8 22  1  0  0  0
  9 10  1  0  0  0
  9 27  2  0  0  0
 10 11  2  0  0  0
 10 15  1  0  0  0
 11 12  1  0  0  0
 11103  1  0  0  0
 12 13  2  0  0  0
 12104  1  0  0  0
 13 14  1  0  0  0
 13 31  1  0  0  0
 14 15  2  0  0  0
 14105  1  0  0  0
 15106  1  0  0  0
 16 17  2  0  0  0
 16 21  1  0  0  0
 16 31  1  0  0  0
 17 18  1  0  0  0
 17107  1  0  0  0
 18 19  2  0  0  0
 18108  1  0  0  0
 19 20  1  0  0  0
 19 24  1  0  0  0
 20 21  2  0  0  0
 20109  1  0  0  0
 21 23  1  0  0  0
 22 28  1  0  0  0
 22 32  2  0  0  0
 26 27  1  0  0  0
 28110  1  0  0  0
 28111  1  0  0  0
 29112  1  0  0  0
 29113  1  0  0  0
 33 34  1  0  0  0
 33 66  1  0  0  0
 33 70  2  0  0  0
 34 36  1  0  0  0
 34 59  1  0  0  0
 34114  1  0  0  0
 35 44  2  0  0  0
 35 45  1  0  0  0
 35 68  1  0  0  0
 36 56  1  0  0  0
 36115  1  0  0  0
 37 39  1  0  0  0
 37 47  1  0  0  0
 37 66  1  0  0  0
 37116  1  0  0  0
 38 43  2  0  0  0
 38 46  1  0  0  0
 38 47  1  0  0  0
 39 64  1  0  0  0
 39 67  2  0  0  0
 40 52  1  0  0  0
 40 53  2  0  0  0
 40 58  1  0  0  0
 41117  1  0  0  0
 41118  1  0  0  0
 41119  1  0  0  0
 41 48  1  0  0  0
 42 43  1  0  0  0
 42 66  1  0  0  0
 42120  1  0  0  0
 42121  1  0  0  0
 43 44  1  0  0  0
 44122  1  0  0  0
 45 46  2  0  0  0
 45123  1  0  0  0
 46124  1  0  0  0
 47125  1  0  0  0
 47126  1  0  0  0
 48 56  1  0  0  0
 48 65  1  0  0  0
 48127  1  0  0  0
 49 50  1  0  0  0
 49 53  1  0  0  0
 49 64  1  0  0  0
 49128  1  0  0  0
 50 51  1  0  0  0
 50129  1  0  0  0
 50130  1  0  0  0
 51 52  1  0  0  0
 51131  1  0  0  0
 51132  1  0  0  0
 52133  1  0  0  0
 52134  1  0  0  0
 53 54  1  0  0  0
 54 55  2  0  0  0
 54135  1  0  0  0
 55 57  1  0  0  0
 55136  1  0  0  0
 56 69  2  0  0  0
 57 58  2  0  0  0
 57137  1  0  0  0
 58138  1  0  0  0
 59 60  1  0  0  0
 59 61  1  0  0  0
 59 62  1  0  0  0
 60139  1  0  0  0
 60140  1  0  0  0
 60141  1  0  0  0
 61142  1  0  0  0
 61143  1  0  0  0
 61144  1  0  0  0
 62145  1  0  0  0
 62146  1  0  0  0
 62147  1  0  0  0
 63 65  1  0  0  0
 63148  1  0  0  0
 63149  1  0  0  0
 63150  1  0  0  0
 64151  1  0  0  0
 65152  1  0  0  0
 68 85  1  0  0  0
 71 73  2  0  0  0
 71 75  1  0  0  0
 71153  1  0  0  0
 72 75  2  0  0  0
 72 76  1  0  0  0
 72154  1  0  0  0
 73 74  1  0  0  0
 73 77  1  0  0  0
 74 76  2  0  0  0
 74 82  1  0  0  0
 75 89  1  0  0  0
 76 93  1  0  0  0
 77155  1  0  0  0
 77156  1  0  0  0
 77 83  1  0  0  0
 78 80  1  0  0  0
 78 84  1  0  0  0
 78157  1  0  0  0
 78158  1  0  0  0
 79 81  1  0  0  0
 79 84  1  0  0  0
 79159  1  0  0  0
 79160  1  0  0  0
 80 85  1  0  0  0
 80161  1  0  0  0
 80162  1  0  0  0
 81 85  1  0  0  0
 81163  1  0  0  0
 81164  1  0  0  0
 82 83  1  0  0  0
 82 91  1  0  0  0
 82165  1  0  0  0
 83 90  1  0  0  0
 83166  1  0  0  0
 84 92  1  0  0  0
 84167  1  0  0  0
 85168  1  0  0  0
 86169  1  0  0  0
 86170  1  0  0  0
 86171  1  0  0  0
 86 90  1  0  0  0
 87 90  1  0  0  0
 87172  1  0  0  0
 87173  1  0  0  0
 87174  1  0  0  0
 88 93  1  0  0  0
 88175  1  0  0  0
 88176  1  0  0  0
 88177  1  0  0  0
 89 92  1  0  0  0
 89178  1  0  0  0
 89179  1  0  0  0
 90180  1  0  0  0
 91181  1  0  0  0
 92182  1  0  0  0
 92183  1  0  0  0
M  CHG  1  92   1
M  ISO  4   1 100  68 101  85 101  91 100
M  END
> <chiral flag>
0

> <version>
0

> <s_m_source_file>
/data/baiqing/PycharmProjects/Reinvent-master-3.2/result/LINK_invent/BTK/process_docking_weight1_custom_sum_contain_oxygen_bond_distance_aromatic_linkinvent_7_9_3/rearranged_h_0160.sdf

> <i_m_source_file_index>
36

> <r_mmod_Potential_Energy-OPLS-2005>
-185.005584716797

> <r_mmod_Stretch_Energy-OPLS-2005>
33.8007316589355

> <r_mmod_Bend_Energy-OPLS-2005>
160.459381103516

> <r_mmod_Torsional_Energy-OPLS-2005>
225.482666015625

> <r_mmod_Improper_Torsional_Energy-OPLS-2005>
4.73376369476318

> <r_mmod_Van_der_Waal_Energy-OPLS-2005>
161.453353881836

> <r_mmod_Electrostatic_Energy-OPLS-2005>
-334.997161865234

> <r_mmod_Solvation_Energy-OPLS-2005>
-450.540832519531

> <b_mmod_Minimization_Converged-OPLS-2005>
0

> <r_mmod_RMS_Derivative-OPLS-2005>
3.20744347572327

$$$$
36
                    3D
 Structure written by MMmdl.
164173  0  0  1  0            999 V2000
  -30.5580  -15.1205   20.3855 C   0  0  0  0  0  0
  -30.4156  -12.7157   19.5082 C   0  0  0  0  0  0
  -29.5126  -12.5479   18.2670 C   0  0  0  0  0  0
  -28.0599  -12.2987   18.7012 C   0  0  0  0  0  0
  -27.6087  -13.2714   19.8207 C   0  0  2  0  0  0
  -28.6481  -13.4298   20.9505 C   0  0  0  0  0  0
  -25.2384  -13.8260   20.5767 C   0  0  0  0  0  0
  -24.1728  -13.0445   20.9251 C   0  0  0  0  0  0
  -24.6382  -11.6941   20.8767 C   0  0  0  0  0  0
  -23.9083  -10.4296   21.0411 C   0  0  0  0  0  0
  -24.3632   -9.4209   21.9188 C   0  0  0  0  0  0
  -23.6300   -8.2246   22.0757 C   0  0  0  0  0  0
  -22.4284   -8.0286   21.3546 C   0  0  0  0  0  0
  -21.9923   -9.0258   20.4645 C   0  0  0  0  0  0
  -22.7257  -10.2134   20.3055 C   0  0  0  0  0  0
  -21.6857   -6.0738   22.5278 C   0  0  0  0  0  0
  -21.4016   -6.5641   23.8211 C   0  0  0  0  0  0
  -21.3657   -5.6792   24.9172 C   0  0  0  0  0  0
  -21.6043   -4.3055   24.7222 C   0  0  0  0  0  0
  -21.8818   -3.8148   23.4343 C   0  0  0  0  0  0
  -21.9193   -4.6965   22.3400 C   0  0  0  0  0  0
  -22.7747  -13.5196   21.1898 C   0  0  0  0  0  0
  -22.1661   -4.2151   21.0977 F   0  0  0  0  0  0
  -21.5625   -3.4539   25.7732 F   0  0  0  0  0  0
  -29.8946  -13.8762   20.3139 N   0  0  0  0  0  0
  -26.2803  -12.9528   20.3246 N   0  0  0  0  0  0
  -25.9321  -11.6634   20.5752 N   0  0  0  0  0  0
  -22.0408  -12.8171   22.0448 N   0  0  0  0  0  0
  -25.4049  -15.1994   20.4237 N   0  0  0  0  0  0
  -31.7796  -15.0104   20.2151 O   0  0  0  0  0  0
  -21.6646   -6.8883   21.4240 O   0  0  0  0  0  0
  -22.3424  -14.5497   20.6742 O   0  0  0  0  0  0
  -24.6546  -31.8333   23.1789 C   0  0  0  0  0  0
  -25.9269  -32.4639   23.8216 C   0  0  1  0  0  0
  -27.2039  -27.0133   20.1680 C   0  0  0  0  0  0
  -25.5980  -33.8449   24.2132 N   0  0  0  0  0  0
  -23.4640  -30.4504   21.5266 C   0  0  2  0  0  0
  -24.9143  -28.8602   20.1062 C   0  0  0  0  0  0
  -22.7629  -29.4492   22.4806 C   0  0  0  0  0  0
  -18.0319  -28.1407   22.8476 C   0  0  0  0  0  0
  -24.1486  -36.7216   23.2649 C   0  0  0  0  0  0
  -26.0287  -30.6669   21.3976 C   0  0  0  0  0  0
  -26.0955  -29.2671   20.7394 C   0  0  0  0  0  0
  -27.2379  -28.3609   20.7531 C   0  0  0  0  0  0
  -26.0012  -26.7477   19.4756 C   0  0  0  0  0  0
  -24.8878  -27.6190   19.4550 C   0  0  0  0  0  0
  -23.6971  -29.7771   20.1475 C   0  0  0  0  0  0
  -25.4124  -36.2995   24.0312 C   0  0  1  0  0  0
  -20.5942  -28.3739   23.1208 C   0  0  2  0  0  0
  -20.6798  -26.9431   22.5400 C   0  0  0  0  0  0
  -19.5765  -26.6383   21.5218 C   0  0  0  0  0  0
  -18.1949  -26.7946   22.1625 C   0  0  0  0  0  0
  -19.1581  -28.8892   23.2835 C   0  0  0  0  0  0
  -18.9495  -30.1487   23.8863 C   0  0  0  0  0  0
  -17.6488  -30.6599   24.0561 C   0  0  0  0  0  0
  -25.9086  -34.9376   23.5034 C   0  0  0  0  0  0
  -16.5376  -29.9087   23.6348 C   0  0  0  0  0  0
  -16.7302  -28.6508   23.0368 C   0  0  0  0  0  0
  -26.4554  -31.6550   25.0704 C   0  0  0  0  0  0
  -25.3704  -31.3766   26.1375 C   0  0  0  0  0  0
  -27.0450  -30.2939   24.6362 C   0  0  0  0  0  0
  -27.6060  -32.4344   25.7496 C   0  0  0  0  0  0
  -27.5564  -37.1769   24.8473 C   0  0  0  0  0  0
  -21.4307  -29.3049   22.3567 N   0  0  0  0  0  0
  -26.4271  -37.3727   23.9419 N   0  0  0  0  0  0
  -24.7365  -31.0078   22.0885 N   0  0  0  0  0  0
  -23.4220  -28.8049   23.3005 O   0  0  0  0  0  0
  -28.1936  -25.9281   20.2719 O   0  0  0  0  0  0
  -26.5680  -34.8898   22.4618 O   0  0  0  0  0  0
  -23.5635  -32.1264   23.6936 O   0  0  0  0  0  0
  -30.2100  -21.4866   21.6773 C   0  0  0  0  0  0
  -29.7743  -20.2055   21.2033 C   0  0  0  0  0  0
  -28.7666  -20.2003   20.2317 C   0  0  0  0  0  0
  -28.1909  -21.5323   19.8310 C   0  0  0  0  0  0
  -28.5960  -22.8915   20.3337 C   0  0  0  0  0  0
  -29.6618  -22.7730   21.2775 C   0  0  0  0  0  0
  -30.1949  -18.8363   21.8780 C   0  0  0  0  0  0
  -28.2271  -18.7053   19.8712 C   0  0  0  0  0  0
  -29.0554  -17.2613   19.5918 C   0  0  0  0  0  0
  -30.8589  -17.6117   21.0732 C   0  0  2  0  0  0
  -27.0338  -21.4691   18.8467 C   0  0  0  0  0  0
  -31.8640  -18.1490   20.0255 C   0  0  0  0  0  0
  -31.0792  -23.9360   22.8445 C   0  0  0  0  0  0
  -27.8466  -24.3893   19.9587 C   0  0  0  0  0  0
  -29.9804  -16.4705   20.5549 N   0  0  0  0  0  0
  -30.1031  -23.9660   21.8109 O   0  0  0  0  0  0
  -31.4450  -12.8630   19.1792 H   0  0  0  0  0  0
  -30.4297  -11.8023   20.1048 H   0  0  0  0  0  0
  -29.8655  -11.7241   17.6449 H   0  0  0  0  0  0
  -29.5646  -13.4463   17.6498 H   0  0  0  0  0  0
  -27.9992  -11.2715   19.0628 H   0  0  0  0  0  0
  -27.3874  -12.3610   17.8449 H   0  0  0  0  0  0
  -27.5292  -14.2418   19.3308 H   0  0  0  0  0  0
  -28.7852  -12.4994   21.5033 H   0  0  0  0  0  0
  -28.3145  -14.1787   21.6710 H   0  0  0  0  0  0
  -25.2772   -9.5685   22.4772 H   0  0  0  0  0  0
  -24.0003   -7.4637   22.7482 H   0  0  0  0  0  0
  -21.0854   -8.8779   19.8950 H   0  0  0  0  0  0
  -22.3717  -10.9675   19.6167 H   0  0  0  0  0  0
  -21.2013   -7.6151   23.9713 H   0  0  0  0  0  0
  -21.1477   -6.0524   25.9073 H   0  0  0  0  0  0
  -22.0598   -2.7613   23.2841 H   0  0  0  0  0  0
  -22.4038  -11.9833   22.4825 H   0  0  0  0  0  0
  -21.1023  -13.1179   22.2663 H   0  0  0  0  0  0
  -24.6409  -15.8540   20.5504 H   0  0  0  0  0  0
  -26.2655  -15.6446   20.1341 H   0  0  0  0  0  0
  -26.7328  -32.5204   23.0928 H   0  0  0  0  0  0
  -25.0125  -33.9544   25.0281 H   0  0  0  0  0  0
  -22.7728  -31.2805   21.3652 H   0  0  0  0  0  0
  -23.3765  -35.9529   23.3290 H   0  0  0  0  0  0
  -24.3571  -36.8870   22.2068 H   0  0  0  0  0  0
  -23.7215  -37.6392   23.6702 H   0  0  0  0  0  0
  -26.2006  -31.4139   20.6213 H   0  0  0  0  0  0
  -26.8929  -30.7196   22.0475 H   0  0  0  0  0  0
  -28.1286  -28.6632   21.2856 H   0  0  0  0  0  0
  -25.8749  -25.8039   18.9670 H   0  0  0  0  0  0
  -23.9909  -27.3054   18.9389 H   0  0  0  0  0  0
  -23.8449  -30.5506   19.3931 H   0  0  0  0  0  0
  -22.8084  -29.2278   19.8311 H   0  0  0  0  0  0
  -25.1315  -36.1807   25.0802 H   0  0  0  0  0  0
  -21.0037  -28.3334   24.1329 H   0  0  0  0  0  0
  -20.5700  -26.2353   23.3630 H   0  0  0  0  0  0
  -21.6658  -26.7430   22.1189 H   0  0  0  0  0  0
  -19.6925  -25.6289   21.1260 H   0  0  0  0  0  0
  -19.6699  -27.3182   20.6739 H   0  0  0  0  0  0
  -17.4220  -26.6708   21.4025 H   0  0  0  0  0  0
  -18.0335  -26.0094   22.9023 H   0  0  0  0  0  0
  -19.7972  -30.7319   24.2208 H   0  0  0  0  0  0
  -17.5041  -31.6278   24.5168 H   0  0  0  0  0  0
  -15.5377  -30.2979   23.7695 H   0  0  0  0  0  0
  -15.8705  -28.0815   22.7103 H   0  0  0  0  0  0
  -24.5912  -30.7083   25.7691 H   0  0  0  0  0  0
  -24.8865  -32.2954   26.4695 H   0  0  0  0  0  0
  -25.7966  -30.9015   27.0219 H   0  0  0  0  0  0
  -26.3106  -29.6627   24.1344 H   0  0  0  0  0  0
  -27.4019  -29.7272   25.4972 H   0  0  0  0  0  0
  -27.9025  -30.4167   23.9741 H   0  0  0  0  0  0
  -27.2648  -33.3699   26.1938 H   0  0  0  0  0  0
  -28.3939  -32.6812   25.0368 H   0  0  0  0  0  0
  -28.0642  -31.8553   26.5521 H   0  0  0  0  0  0
  -28.2571  -38.0077   24.7524 H   0  0  0  0  0  0
  -28.1068  -36.2604   24.6290 H   0  0  0  0  0  0
  -27.2282  -37.1396   25.8876 H   0  0  0  0  0  0
  -20.9541  -29.8755   21.6723 H   0  0  0  0  0  0
  -26.0124  -38.2785   24.1439 H   0  0  0  0  0  0
  -30.9762  -21.4567   22.4366 H   0  0  0  0  0  0
  -29.3370  -18.4626   22.4389 H   0  0  0  0  0  0
  -30.9103  -19.1129   22.6535 H   0  0  0  0  0  0
  -27.6045  -18.8361   18.9866 H   0  0  0  0  0  0
  -27.5070  -18.4845   20.6601 H   0  0  0  0  0  0
  -29.6142  -17.3858   18.6639 H   0  0  0  0  0  0
  -28.2845  -16.5400   19.3223 H   0  0  0  0  0  0
  -31.4648  -17.1128   21.8325 H   0  0  0  0  0  0
  -26.2285  -20.8551   19.2506 H   0  0  0  0  0  0
  -27.3625  -21.0233   17.9076 H   0  0  0  0  0  0
  -26.6096  -22.4434   18.6155 H   0  0  0  0  0  0
  -31.3744  -18.7381   19.2503 H   0  0  0  0  0  0
  -32.4270  -17.3580   19.5326 H   0  0  0  0  0  0
  -32.5926  -18.8044   20.5040 H   0  0  0  0  0  0
  -31.2890  -24.9549   23.1696 H   0  0  0  0  0  0
  -32.0185  -23.5028   22.4980 H   0  0  0  0  0  0
  -30.7235  -23.3829   23.7150 H   0  0  0  0  0  0
  -26.8355  -24.2498   20.3420 H   0  0  0  0  0  0
  -27.7480  -24.3705   18.8737 H   0  0  0  0  0  0
  1 25  1  0  0  0
  1 30  2  0  0  0
  1 85  1  0  0  0
  2  3  1  0  0  0
  2 25  1  0  0  0
  2 87  1  0  0  0
  2 88  1  0  0  0
  3  4  1  0  0  0
  3 89  1  0  0  0
  3 90  1  0  0  0
  4  5  1  0  0  0
  4 91  1  0  0  0
  4 92  1  0  0  0
  5  6  1  0  0  0
  5 26  1  0  0  0
  5 93  1  0  0  0
  6 25  1  0  0  0
  6 94  1  0  0  0
  6 95  1  0  0  0
  7  8  2  0  0  0
  7 26  1  0  0  0
  7 29  1  0  0  0
  8  9  1  0  0  0
  8 22  1  0  0  0
  9 10  1  0  0  0
  9 27  2  0  0  0
 10 11  2  0  0  0
 10 15  1  0  0  0
 11 12  1  0  0  0
 11 96  1  0  0  0
 12 13  2  0  0  0
 12 97  1  0  0  0
 13 14  1  0  0  0
 13 31  1  0  0  0
 14 15  2  0  0  0
 14 98  1  0  0  0
 15 99  1  0  0  0
 16 17  2  0  0  0
 16 21  1  0  0  0
 16 31  1  0  0  0
 17 18  1  0  0  0
 17100  1  0  0  0
 18 19  2  0  0  0
 18101  1  0  0  0
 19 20  1  0  0  0
 19 24  1  0  0  0
 20 21  2  0  0  0
 20102  1  0  0  0
 21 23  1  0  0  0
 22 28  1  0  0  0
 22 32  2  0  0  0
 26 27  1  0  0  0
 28103  1  0  0  0
 28104  1  0  0  0
 29105  1  0  0  0
 29106  1  0  0  0
 33 34  1  0  0  0
 33 66  1  0  0  0
 33 70  2  0  0  0
 34 36  1  0  0  0
 34 59  1  0  0  0
 34107  1  0  0  0
 35 44  2  0  0  0
 35 45  1  0  0  0
 35 68  1  0  0  0
 36 56  1  0  0  0
 36108  1  0  0  0
 37 39  1  0  0  0
 37 47  1  0  0  0
 37 66  1  0  0  0
 37109  1  0  0  0
 38 43  2  0  0  0
 38 46  1  0  0  0
 38 47  1  0  0  0
 39 64  1  0  0  0
 39 67  2  0  0  0
 40 52  1  0  0  0
 40 53  2  0  0  0
 40 58  1  0  0  0
 41110  1  0  0  0
 41111  1  0  0  0
 41112  1  0  0  0
 41 48  1  0  0  0
 42 43  1  0  0  0
 42 66  1  0  0  0
 42113  1  0  0  0
 42114  1  0  0  0
 43 44  1  0  0  0
 44115  1  0  0  0
 45 46  2  0  0  0
 45116  1  0  0  0
 46117  1  0  0  0
 47118  1  0  0  0
 47119  1  0  0  0
 48 56  1  0  0  0
 48 65  1  0  0  0
 48120  1  0  0  0
 49 50  1  0  0  0
 49 53  1  0  0  0
 49 64  1  0  0  0
 49121  1  0  0  0
 50 51  1  0  0  0
 50122  1  0  0  0
 50123  1  0  0  0
 51 52  1  0  0  0
 51124  1  0  0  0
 51125  1  0  0  0
 52126  1  0  0  0
 52127  1  0  0  0
 53 54  1  0  0  0
 54 55  2  0  0  0
 54128  1  0  0  0
 55 57  1  0  0  0
 55129  1  0  0  0
 56 69  2  0  0  0
 57 58  2  0  0  0
 57130  1  0  0  0
 58131  1  0  0  0
 59 60  1  0  0  0
 59 61  1  0  0  0
 59 62  1  0  0  0
 60132  1  0  0  0
 60133  1  0  0  0
 60134  1  0  0  0
 61135  1  0  0  0
 61136  1  0  0  0
 61137  1  0  0  0
 62138  1  0  0  0
 62139  1  0  0  0
 62140  1  0  0  0
 63 65  1  0  0  0
 63141  1  0  0  0
 63142  1  0  0  0
 63143  1  0  0  0
 64144  1  0  0  0
 65145  1  0  0  0
 68 84  1  0  0  0
 71 72  2  0  0  0
 71 76  1  0  0  0
 71146  1  0  0  0
 72 73  1  0  0  0
 72 77  1  0  0  0
 73 74  2  0  0  0
 73 78  1  0  0  0
 74 75  1  0  0  0
 74 81  1  0  0  0
 75 76  2  0  0  0
 75 84  1  0  0  0
 76 86  1  0  0  0
 77 80  1  0  0  0
 77147  1  0  0  0
 77148  1  0  0  0
 78 79  1  0  0  0
 78149  1  0  0  0
 78150  1  0  0  0
 79 85  1  0  0  0
 79151  1  0  0  0
 79152  1  0  0  0
 80 82  1  0  0  0
 80 85  1  0  0  0
 80153  1  0  0  0
 81154  1  0  0  0
 81155  1  0  0  0
 81156  1  0  0  0
 82157  1  0  0  0
 82158  1  0  0  0
 82159  1  0  0  0
 83 86  1  0  0  0
 83160  1  0  0  0
 83161  1  0  0  0
 83162  1  0  0  0
 84163  1  0  0  0
 84164  1  0  0  0
M  ISO  4   1 100  68 101  84 101  85 100
M  END
> <chiral flag>
0

> <version>
0

> <s_m_source_file>
/data/baiqing/PycharmProjects/Reinvent-master-3.2/result/LINK_invent/BTK/process_docking_weight1_custom_sum_contain_oxygen_bond_distance_aromatic_linkinvent_7_9_3/rearranged_h_0160.sdf

> <i_m_source_file_index>
37

> <r_mmod_Potential_Energy-OPLS-2005>
1127.46569824219

> <r_mmod_Stretch_Energy-OPLS-2005>
378.988037109375

> <r_mmod_Bend_Energy-OPLS-2005>
399.904693603516

> <r_mmod_Torsional_Energy-OPLS-2005>
336.359588623047

> <r_mmod_Improper_Torsional_Energy-OPLS-2005>
8.42410182952881

> <r_mmod_Van_der_Waal_Energy-OPLS-2005>
145.516387939453

> <r_mmod_Electrostatic_Energy-OPLS-2005>
-265.347808837891

> <r_mmod_Solvation_Energy-OPLS-2005>
-209.944381713867

> <b_mmod_Minimization_Converged-OPLS-2005>
0

> <r_mmod_RMS_Derivative-OPLS-2005>
0.69580465555191

$$$$
37
                    3D
 Structure written by MMmdl.
164173  0  0  1  0            999 V2000
  -30.5859  -14.9861   20.3056 C   0  0  0  0  0  0
  -30.4488  -12.5786   19.5073 C   0  0  0  0  0  0
  -29.5286  -12.3174   18.2912 C   0  0  0  0  0  0
  -28.0384  -12.2608   18.6814 C   0  0  0  0  0  0
  -27.6196  -13.2551   19.7980 C   0  0  2  0  0  0
  -28.6725  -13.3722   20.9140 C   0  0  0  0  0  0
  -25.2447  -13.8278   20.5703 C   0  0  0  0  0  0
  -24.1775  -13.0480   20.9249 C   0  0  0  0  0  0
  -24.6403  -11.6966   20.8792 C   0  0  0  0  0  0
  -23.9102  -10.4315   21.0408 C   0  0  0  0  0  0
  -24.3653   -9.4232   21.9188 C   0  0  0  0  0  0
  -23.6339   -8.2250   22.0749 C   0  0  0  0  0  0
  -22.4324   -8.0280   21.3528 C   0  0  0  0  0  0
  -21.9958   -9.0254   20.4631 C   0  0  0  0  0  0
  -22.7276  -10.2145   20.3054 C   0  0  0  0  0  0
  -21.6862   -6.0741   22.5279 C   0  0  0  0  0  0
  -21.4026   -6.5652   23.8219 C   0  0  0  0  0  0
  -21.3664   -5.6798   24.9177 C   0  0  0  0  0  0
  -21.6043   -4.3061   24.7216 C   0  0  0  0  0  0
  -21.8828   -3.8151   23.4341 C   0  0  0  0  0  0
  -21.9203   -4.6965   22.3400 C   0  0  0  0  0  0
  -22.7784  -13.5220   21.1891 C   0  0  0  0  0  0
  -22.1639   -4.2160   21.0970 F   0  0  0  0  0  0
  -21.5633   -3.4536   25.7728 F   0  0  0  0  0  0
  -29.9398  -13.7447   20.2782 N   0  0  0  0  0  0
  -26.2872  -12.9526   20.3172 N   0  0  0  0  0  0
  -25.9334  -11.6666   20.5788 N   0  0  0  0  0  0
  -22.0426  -12.8203   22.0443 N   0  0  0  0  0  0
  -25.4091  -15.2014   20.4123 N   0  0  0  0  0  0
  -31.8194  -14.9483   20.2709 O   0  0  0  0  0  0
  -21.6665   -6.8887   21.4238 O   0  0  0  0  0  0
  -22.3436  -14.5494   20.6708 O   0  0  0  0  0  0
  -24.6430  -31.8432   23.1876 C   0  0  0  0  0  0
  -25.9235  -32.4659   23.8230 C   0  0  1  0  0  0
  -27.2264  -27.1707   20.1404 C   0  0  0  0  0  0
  -25.6038  -33.8478   24.2151 N   0  0  0  0  0  0
  -23.4432  -30.4644   21.5304 C   0  0  2  0  0  0
  -24.8944  -28.8980   20.1011 C   0  0  0  0  0  0
  -22.7555  -29.4571   22.4853 C   0  0  0  0  0  0
  -18.0292  -28.1403   22.8478 C   0  0  0  0  0  0
  -24.1498  -36.7227   23.2639 C   0  0  0  0  0  0
  -25.9952  -30.7265   21.3840 C   0  0  0  0  0  0
  -26.0661  -29.3429   20.7254 C   0  0  0  0  0  0
  -27.2284  -28.4915   20.7348 C   0  0  0  0  0  0
  -26.0352  -26.8276   19.4606 C   0  0  0  0  0  0
  -24.8922  -27.6542   19.4500 C   0  0  0  0  0  0
  -23.6663  -29.7909   20.1477 C   0  0  0  0  0  0
  -25.4132  -36.2996   24.0306 C   0  0  1  0  0  0
  -20.5906  -28.3726   23.1231 C   0  0  2  0  0  0
  -20.6794  -26.9433   22.5391 C   0  0  0  0  0  0
  -19.5766  -26.6383   21.5214 C   0  0  0  0  0  0
  -18.1934  -26.7944   22.1603 C   0  0  0  0  0  0
  -19.1552  -28.8889   23.2831 C   0  0  0  0  0  0
  -18.9480  -30.1492   23.8832 C   0  0  0  0  0  0
  -17.6480  -30.6597   24.0567 C   0  0  0  0  0  0
  -25.9097  -34.9396   23.5015 C   0  0  0  0  0  0
  -16.5359  -29.9095   23.6363 C   0  0  0  0  0  0
  -16.7272  -28.6523   23.0355 C   0  0  0  0  0  0
  -26.4573  -31.6542   25.0676 C   0  0  0  0  0  0
  -25.3780  -31.3740   26.1376 C   0  0  0  0  0  0
  -27.0461  -30.2937   24.6279 C   0  0  0  0  0  0
  -27.6049  -32.4362   25.7492 C   0  0  0  0  0  0
  -27.5546  -37.1764   24.8466 C   0  0  0  0  0  0
  -21.4245  -29.3051   22.3596 N   0  0  0  0  0  0
  -26.4252  -37.3733   23.9430 N   0  0  0  0  0  0
  -24.7121  -31.0345   22.0874 N   0  0  0  0  0  0
  -23.4214  -28.8106   23.2983 O   0  0  0  0  0  0
  -28.2943  -26.2134   20.2254 O   0  0  0  0  0  0
  -26.5596  -34.8931   22.4546 O   0  0  0  0  0  0
  -23.5568  -32.1257   23.7146 O   0  0  0  0  0  0
  -29.8928  -17.6947   20.6083 C   0  0  0  0  0  0
  -29.1366  -17.8302   17.9658 C   0  0  0  0  0  0
  -29.9378  -16.4031   19.8628 C   0  0  0  0  0  0
  -29.4696  -19.0204   20.0579 C   0  0  0  0  0  0
  -29.0540  -19.0168   18.7099 C   0  0  0  0  0  0
  -29.6082  -16.6025   18.4827 C   0  0  0  0  0  0
  -29.4677  -20.4880   20.7663 C   0  0  0  0  0  0
  -28.5339  -20.2732   18.0011 C   0  0  0  0  0  0
  -29.0533  -21.6290   18.5264 C   0  0  0  0  0  0
  -28.7986  -21.8329   20.0309 C   0  0  2  0  0  0
  -29.8382  -15.5527   17.4147 C   0  0  0  0  0  0
  -30.4986  -23.8270   20.1887 C   0  0  0  0  0  0
  -28.8758  -23.4627   22.0276 C   0  0  0  0  0  0
  -28.0878  -24.7065   19.9442 C   0  0  0  0  0  0
  -29.0415  -23.4406   20.5022 C   0  0  0  0  0  0
  -31.4698  -12.7302   19.1558 H   0  0  0  0  0  0
  -30.4908  -11.7002   20.1512 H   0  0  0  0  0  0
  -29.8032  -11.3591   17.8490 H   0  0  0  0  0  0
  -29.7013  -13.0196   17.4894 H   0  0  0  0  0  0
  -27.8596  -11.2417   19.0236 H   0  0  0  0  0  0
  -27.4080  -12.3858   17.8002 H   0  0  0  0  0  0
  -27.5566  -14.2298   19.3123 H   0  0  0  0  0  0
  -28.7665  -12.4392   21.4716 H   0  0  0  0  0  0
  -28.3828  -14.1400   21.6321 H   0  0  0  0  0  0
  -25.2777   -9.5719   22.4807 H   0  0  0  0  0  0
  -24.0035   -7.4656   22.7505 H   0  0  0  0  0  0
  -21.0869   -8.8783   19.8952 H   0  0  0  0  0  0
  -22.3709  -10.9697   19.6181 H   0  0  0  0  0  0
  -21.2008   -7.6156   23.9731 H   0  0  0  0  0  0
  -21.1460   -6.0506   25.9087 H   0  0  0  0  0  0
  -22.0598   -2.7611   23.2827 H   0  0  0  0  0  0
  -22.4036  -11.9863   22.4832 H   0  0  0  0  0  0
  -21.1043  -13.1208   22.2651 H   0  0  0  0  0  0
  -24.6436  -15.8547   20.5387 H   0  0  0  0  0  0
  -26.2676  -15.6515   20.1185 H   0  0  0  0  0  0
  -26.7291  -32.5250   23.0944 H   0  0  0  0  0  0
  -25.0447  -33.9593   25.0469 H   0  0  0  0  0  0
  -22.7472  -31.2915   21.3756 H   0  0  0  0  0  0
  -23.3759  -35.9552   23.3269 H   0  0  0  0  0  0
  -24.3574  -36.8872   22.2056 H   0  0  0  0  0  0
  -23.7286  -37.6426   23.6697 H   0  0  0  0  0  0
  -26.1618  -31.4856   20.6176 H   0  0  0  0  0  0
  -26.8619  -30.7619   22.0321 H   0  0  0  0  0  0
  -28.1187  -28.8258   21.2497 H   0  0  0  0  0  0
  -25.9633  -25.8885   18.9346 H   0  0  0  0  0  0
  -24.0075  -27.3203   18.9252 H   0  0  0  0  0  0
  -23.7910  -30.5600   19.3862 H   0  0  0  0  0  0
  -22.7848  -29.2229   19.8431 H   0  0  0  0  0  0
  -25.1341  -36.1746   25.0794 H   0  0  0  0  0  0
  -20.9993  -28.3290   24.1358 H   0  0  0  0  0  0
  -20.5740  -26.2334   23.3594 H   0  0  0  0  0  0
  -21.6657  -26.7487   22.1164 H   0  0  0  0  0  0
  -19.6945  -25.6292   21.1256 H   0  0  0  0  0  0
  -19.6708  -27.3182   20.6739 H   0  0  0  0  0  0
  -17.4223  -26.6695   21.3970 H   0  0  0  0  0  0
  -18.0299  -26.0069   22.8984 H   0  0  0  0  0  0
  -19.7963  -30.7332   24.2123 H   0  0  0  0  0  0
  -17.5048  -31.6272   24.5176 H   0  0  0  0  0  0
  -15.5357  -30.2988   23.7781 H   0  0  0  0  0  0
  -15.8655  -28.0869   22.7086 H   0  0  0  0  0  0
  -24.5994  -30.7033   25.7720 H   0  0  0  0  0  0
  -24.8962  -32.2932   26.4710 H   0  0  0  0  0  0
  -25.8108  -30.8997   27.0192 H   0  0  0  0  0  0
  -26.3083  -29.6622   24.1305 H   0  0  0  0  0  0
  -27.4095  -29.7273   25.4869 H   0  0  0  0  0  0
  -27.9000  -30.4151   23.9605 H   0  0  0  0  0  0
  -27.2559  -33.3695   26.1931 H   0  0  0  0  0  0
  -28.3947  -32.6854   25.0394 H   0  0  0  0  0  0
  -28.0623  -31.8591   26.5531 H   0  0  0  0  0  0
  -28.2540  -38.0076   24.7509 H   0  0  0  0  0  0
  -28.1040  -36.2598   24.6270 H   0  0  0  0  0  0
  -27.2245  -37.1387   25.8856 H   0  0  0  0  0  0
  -20.9438  -29.8743   21.6767 H   0  0  0  0  0  0
  -26.0067  -38.2774   24.1435 H   0  0  0  0  0  0
  -30.2330  -17.6715   21.6332 H   0  0  0  0  0  0
  -28.8703  -17.8776   16.9169 H   0  0  0  0  0  0
  -30.5180  -20.7108   20.9581 H   0  0  0  0  0  0
  -29.0186  -20.3724   21.7514 H   0  0  0  0  0  0
  -27.4440  -20.2574   18.0530 H   0  0  0  0  0  0
  -28.7792  -20.2091   16.9410 H   0  0  0  0  0  0
  -28.5877  -22.4288   17.9483 H   0  0  0  0  0  0
  -30.1225  -21.6967   18.3269 H   0  0  0  0  0  0
  -27.7239  -21.6911   20.1537 H   0  0  0  0  0  0
  -30.0620  -16.0198   16.4550 H   0  0  0  0  0  0
  -28.9322  -14.9669   17.2768 H   0  0  0  0  0  0
  -30.6994  -14.9245   17.6320 H   0  0  0  0  0  0
  -31.2044  -23.0935   20.5814 H   0  0  0  0  0  0
  -30.7515  -24.7919   20.6287 H   0  0  0  0  0  0
  -30.6692  -23.9144   19.1170 H   0  0  0  0  0  0
  -29.6085  -22.8248   22.5228 H   0  0  0  0  0  0
  -27.8842  -23.1147   22.3155 H   0  0  0  0  0  0
  -29.0036  -24.4709   22.4227 H   0  0  0  0  0  0
  -27.0834  -24.4655   20.2907 H   0  0  0  0  0  0
  -28.0443  -24.6208   18.8593 H   0  0  0  0  0  0
  1 25  1  0  0  0
  1 30  2  0  0  0
  1 73  1  0  0  0
  2  3  1  0  0  0
  2 25  1  0  0  0
  2 86  1  0  0  0
  2 87  1  0  0  0
  3  4  1  0  0  0
  3 88  1  0  0  0
  3 89  1  0  0  0
  4  5  1  0  0  0
  4 90  1  0  0  0
  4 91  1  0  0  0
  5  6  1  0  0  0
  5 26  1  0  0  0
  5 92  1  0  0  0
  6 25  1  0  0  0
  6 93  1  0  0  0
  6 94  1  0  0  0
  7  8  2  0  0  0
  7 26  1  0  0  0
  7 29  1  0  0  0
  8  9  1  0  0  0
  8 22  1  0  0  0
  9 10  1  0  0  0
  9 27  2  0  0  0
 10 11  2  0  0  0
 10 15  1  0  0  0
 11 12  1  0  0  0
 11 95  1  0  0  0
 12 13  2  0  0  0
 12 96  1  0  0  0
 13 14  1  0  0  0
 13 31  1  0  0  0
 14 15  2  0  0  0
 14 97  1  0  0  0
 15 98  1  0  0  0
 16 17  2  0  0  0
 16 21  1  0  0  0
 16 31  1  0  0  0
 17 18  1  0  0  0
 17 99  1  0  0  0
 18 19  2  0  0  0
 18100  1  0  0  0
 19 20  1  0  0  0
 19 24  1  0  0  0
 20 21  2  0  0  0
 20101  1  0  0  0
 21 23  1  0  0  0
 22 28  1  0  0  0
 22 32  2  0  0  0
 26 27  1  0  0  0
 28102  1  0  0  0
 28103  1  0  0  0
 29104  1  0  0  0
 29105  1  0  0  0
 33 34  1  0  0  0
 33 66  1  0  0  0
 33 70  2  0  0  0
 34 36  1  0  0  0
 34 59  1  0  0  0
 34106  1  0  0  0
 35 44  2  0  0  0
 35 45  1  0  0  0
 35 68  1  0  0  0
 36 56  1  0  0  0
 36107  1  0  0  0
 37 39  1  0  0  0
 37 47  1  0  0  0
 37 66  1  0  0  0
 37108  1  0  0  0
 38 43  2  0  0  0
 38 46  1  0  0  0
 38 47  1  0  0  0
 39 64  1  0  0  0
 39 67  2  0  0  0
 40 52  1  0  0  0
 40 53  2  0  0  0
 40 58  1  0  0  0
 41109  1  0  0  0
 41110  1  0  0  0
 41111  1  0  0  0
 41 48  1  0  0  0
 42 43  1  0  0  0
 42 66  1  0  0  0
 42112  1  0  0  0
 42113  1  0  0  0
 43 44  1  0  0  0
 44114  1  0  0  0
 45 46  2  0  0  0
 45115  1  0  0  0
 46116  1  0  0  0
 47117  1  0  0  0
 47118  1  0  0  0
 48 56  1  0  0  0
 48 65  1  0  0  0
 48119  1  0  0  0
 49 50  1  0  0  0
 49 53  1  0  0  0
 49 64  1  0  0  0
 49120  1  0  0  0
 50 51  1  0  0  0
 50121  1  0  0  0
 50122  1  0  0  0
 51 52  1  0  0  0
 51123  1  0  0  0
 51124  1  0  0  0
 52125  1  0  0  0
 52126  1  0  0  0
 53 54  1  0  0  0
 54 55  2  0  0  0
 54127  1  0  0  0
 55 57  1  0  0  0
 55128  1  0  0  0
 56 69  2  0  0  0
 57 58  2  0  0  0
 57129  1  0  0  0
 58130  1  0  0  0
 59 60  1  0  0  0
 59 61  1  0  0  0
 59 62  1  0  0  0
 60131  1  0  0  0
 60132  1  0  0  0
 60133  1  0  0  0
 61134  1  0  0  0
 61135  1  0  0  0
 61136  1  0  0  0
 62137  1  0  0  0
 62138  1  0  0  0
 62139  1  0  0  0
 63 65  1  0  0  0
 63140  1  0  0  0
 63141  1  0  0  0
 63142  1  0  0  0
 64143  1  0  0  0
 65144  1  0  0  0
 68 84  1  0  0  0
 71 73  2  0  0  0
 71 74  1  0  0  0
 71145  1  0  0  0
 72 75  1  0  0  0
 72 76  2  0  0  0
 72146  1  0  0  0
 73 76  1  0  0  0
 74 75  2  0  0  0
 74 77  1  0  0  0
 75 78  1  0  0  0
 76 81  1  0  0  0
 77147  1  0  0  0
 77148  1  0  0  0
 77 80  1  0  0  0
 78 79  1  0  0  0
 78149  1  0  0  0
 78150  1  0  0  0
 79 80  1  0  0  0
 79151  1  0  0  0
 79152  1  0  0  0
 80 85  1  0  0  0
 80153  1  0  0  0
 81154  1  0  0  0
 81155  1  0  0  0
 81156  1  0  0  0
 82157  1  0  0  0
 82158  1  0  0  0
 82159  1  0  0  0
 82 85  1  0  0  0
 83 85  1  0  0  0
 83160  1  0  0  0
 83161  1  0  0  0
 83162  1  0  0  0
 84 85  1  0  0  0
 84163  1  0  0  0
 84164  1  0  0  0
M  ISO  4   1 100  68 101  73 100  84 101
M  END
> <chiral flag>
0

> <version>
0

> <s_m_source_file>
/data/baiqing/PycharmProjects/Reinvent-master-3.2/result/LINK_invent/BTK/process_docking_weight1_custom_sum_contain_oxygen_bond_distance_aromatic_linkinvent_7_9_3/rearranged_h_0160.sdf

> <i_m_source_file_index>
38

> <r_mmod_Potential_Energy-OPLS-2005>
653.080810546875

> <r_mmod_Stretch_Energy-OPLS-2005>
248.350067138672

> <r_mmod_Bend_Energy-OPLS-2005>
249.738723754883

> <r_mmod_Torsional_Energy-OPLS-2005>
260.279754638672

> <r_mmod_Improper_Torsional_Energy-OPLS-2005>
16.2981395721436

> <r_mmod_Van_der_Waal_Energy-OPLS-2005>
136.74169921875

> <r_mmod_Electrostatic_Energy-OPLS-2005>
-289.275177001953

> <r_mmod_Solvation_Energy-OPLS-2005>
-181.191970825195

> <b_mmod_Minimization_Converged-OPLS-2005>
0

> <r_mmod_RMS_Derivative-OPLS-2005>
4.00429773330688

$$$$
38
                    3D
 Structure written by MMmdl.
179188  0  0  1  0            999 V2000
  -30.5440  -14.8022   20.6776 C   0  0  0  0  0  0
  -30.4480  -12.4822   19.5991 C   0  0  0  0  0  0
  -29.5652  -12.5002   18.3292 C   0  0  0  0  0  0
  -28.0771  -12.3056   18.6784 C   0  0  0  0  0  0
  -27.6340  -13.2390   19.8531 C   0  0  2  0  0  0
  -28.6319  -13.2242   21.0309 C   0  0  0  0  0  0
  -25.2445  -13.8077   20.5847 C   0  0  0  0  0  0
  -24.1744  -13.0378   20.9279 C   0  0  0  0  0  0
  -24.6283  -11.6830   20.8781 C   0  0  0  0  0  0
  -23.9034  -10.4176   21.0325 C   0  0  0  0  0  0
  -24.3581   -9.4133   21.9154 C   0  0  0  0  0  0
  -23.6248   -8.2205   22.0745 C   0  0  0  0  0  0
  -22.4274   -8.0241   21.3546 C   0  0  0  0  0  0
  -21.9871   -9.0179   20.4681 C   0  0  0  0  0  0
  -22.7167  -10.2050   20.3016 C   0  0  0  0  0  0
  -21.6862   -6.0732   22.5268 C   0  0  0  0  0  0
  -21.3991   -6.5629   23.8195 C   0  0  0  0  0  0
  -21.3653   -5.6780   24.9181 C   0  0  0  0  0  0
  -21.6032   -4.3038   24.7227 C   0  0  0  0  0  0
  -21.8847   -3.8135   23.4358 C   0  0  0  0  0  0
  -21.9184   -4.6960   22.3408 C   0  0  0  0  0  0
  -22.7926  -13.5450   21.2115 C   0  0  0  0  0  0
  -22.1673   -4.2151   21.0989 F   0  0  0  0  0  0
  -21.5629   -3.4533   25.7741 F   0  0  0  0  0  0
  -29.9383  -13.5840   20.4949 N   0  0  0  0  0  0
  -26.2860  -12.9394   20.3429 N   0  0  0  0  0  0
  -25.9118  -11.6545   20.5427 N   0  0  0  0  0  0
  -22.0517  -12.8280   22.0457 N   0  0  0  0  0  0
  -25.3999  -15.1743   20.4193 N   0  0  0  0  0  0
  -31.7268  -14.9167   20.3164 O   0  0  0  0  0  0
  -21.6643   -6.8864   21.4240 O   0  0  0  0  0  0
  -22.3743  -14.5913   20.7103 O   0  0  0  0  0  0
  -24.6642  -31.8785   23.2083 C   0  0  0  0  0  0
  -25.9571  -32.4785   23.8356 C   0  0  1  0  0  0
  -26.9227  -27.0357   20.0273 C   0  0  0  0  0  0
  -25.6321  -33.8568   24.2269 N   0  0  0  0  0  0
  -23.4396  -30.5232   21.5664 C   0  0  2  0  0  0
  -24.7636  -28.9103   20.1296 C   0  0  0  0  0  0
  -22.7556  -29.5403   22.5643 C   0  0  0  0  0  0
  -18.1402  -28.0935   22.8741 C   0  0  0  0  0  0
  -24.1450  -36.7193   23.2644 C   0  0  0  0  0  0
  -26.0227  -30.7016   21.3924 C   0  0  0  0  0  0
  -25.9840  -29.3139   20.7028 C   0  0  0  0  0  0
  -27.1000  -28.3690   20.6257 C   0  0  0  0  0  0
  -25.6917  -26.7712   19.4801 C   0  0  0  0  0  0
  -24.6273  -27.6740   19.5263 C   0  0  0  0  0  0
  -23.5724  -29.8455   20.1964 C   0  0  0  0  0  0
  -25.4103  -36.3061   24.0289 C   0  0  1  0  0  0
  -20.6741  -28.3966   23.1857 C   0  0  2  0  0  0
  -20.8119  -27.0266   22.4475 C   0  0  0  0  0  0
  -19.6547  -26.7699   21.4123 C   0  0  0  0  0  0
  -18.4148  -26.6891   22.2515 C   0  0  0  0  0  0
  -19.2387  -28.8953   23.3361 C   0  0  0  0  0  0
  -18.9989  -30.1577   23.9295 C   0  0  0  0  0  0
  -17.6627  -30.5799   24.0739 C   0  0  0  0  0  0
  -25.9138  -34.9453   23.5013 C   0  0  0  0  0  0
  -16.5806  -29.7884   23.5945 C   0  0  0  0  0  0
  -16.8203  -28.5583   23.0257 C   0  0  0  0  0  0
  -26.4575  -31.6659   25.0848 C   0  0  0  0  0  0
  -25.3661  -31.4015   26.1536 C   0  0  0  0  0  0
  -27.0428  -30.2971   24.6671 C   0  0  0  0  0  0
  -27.6021  -32.4543   25.7630 C   0  0  0  0  0  0
  -27.5553  -37.1775   24.8464 C   0  0  0  0  0  0
  -21.4311  -29.3460   22.3541 N   0  0  0  0  0  0
  -26.4253  -37.3787   23.9429 N   0  0  0  0  0  0
  -24.7420  -31.0564   22.1053 N   0  0  0  0  0  0
  -23.4478  -28.9274   23.3689 O   0  0  0  0  0  0
  -27.7776  -25.9397   20.0671 O   0  0  0  0  0  0
  -26.5719  -34.8919   22.4571 O   0  0  0  0  0  0
  -23.5745  -32.1841   23.7347 O   0  0  0  0  0  0
  -27.1929  -17.9058   21.5536 C   0  0  0  0  0  0
  -27.3662  -19.5215   23.7776 C   0  0  0  0  0  0
  -26.2961  -19.0895   21.6478 C   0  0  0  0  0  0
  -28.4642  -18.0026   22.2069 C   0  0  0  0  0  0
  -28.5453  -19.0767   23.1450 C   0  0  0  0  0  0
  -26.2112  -19.7085   22.8956 C   0  0  0  0  0  0
  -25.1660  -21.0519   20.0966 C   0  0  0  0  0  0
  -25.4004  -19.4763   20.3511 C   0  0  1  0  0  0
  -26.1460  -21.5806   18.9605 C   0  0  1  0  0  0
  -25.8995  -19.0251   18.8788 C   0  0  1  0  0  0
  -29.3817  -20.2658   22.6921 C   0  0  0  0  0  0
  -24.9721  -18.0607   18.0243 C   0  0  0  0  0  0
  -31.0722  -17.5914   22.2088 C   0  0  0  0  0  0
  -28.4979  -22.3880   18.2149 C   0  0  0  0  0  0
  -25.3349  -21.6300   23.9634 C   0  0  0  0  0  0
  -27.7247  -24.5101   19.3915 C   0  0  0  0  0  0
  -29.6746  -16.9276   22.1204 C   0  0  2  0  0  0
  -27.1372  -23.0143   18.7128 C   0  0  2  0  0  0
  -29.7186  -15.8904   21.0365 N   0  0  0  0  0  0
  -26.3464  -20.2744   18.1613 N   0  3  0  0  0  0
  -25.0739  -20.3893   23.2390 O   0  0  0  0  0  0
  -31.4896  -12.6442   19.2909 H   0  0  0  0  0  0
  -30.3851  -11.5187   20.1370 H   0  0  0  0  0  0
  -29.8767  -11.6758   17.6785 H   0  0  0  0  0  0
  -29.7046  -13.4242   17.7688 H   0  0  0  0  0  0
  -27.8874  -11.2560   18.9379 H   0  0  0  0  0  0
  -27.4504  -12.5184   17.8117 H   0  0  0  0  0  0
  -27.6013  -14.2481   19.4360 H   0  0  0  0  0  0
  -28.6417  -12.2714   21.5496 H   0  0  0  0  0  0
  -28.3015  -13.9636   21.7748 H   0  0  0  0  0  0
  -25.2729   -9.5684   22.4712 H   0  0  0  0  0  0
  -23.9992   -7.4663   22.7462 H   0  0  0  0  0  0
  -21.0811   -8.8728   19.9006 H   0  0  0  0  0  0
  -22.3634  -10.9631   19.6141 H   0  0  0  0  0  0
  -21.1979   -7.6143   23.9721 H   0  0  0  0  0  0
  -21.1431   -6.0513   25.9096 H   0  0  0  0  0  0
  -22.0624   -2.7604   23.2849 H   0  0  0  0  0  0
  -22.4449  -12.0183   22.5048 H   0  0  0  0  0  0
  -21.1035  -13.1199   22.2476 H   0  0  0  0  0  0
  -24.6662  -15.8520   20.6029 H   0  0  0  0  0  0
  -26.2998  -15.5876   20.2315 H   0  0  0  0  0  0
  -26.7690  -32.5243   23.1093 H   0  0  0  0  0  0
  -25.0174  -33.9635   25.0157 H   0  0  0  0  0  0
  -22.7761  -31.3866   21.4168 H   0  0  0  0  0  0
  -23.3814  -35.9442   23.3223 H   0  0  0  0  0  0
  -24.3493  -36.8920   22.2101 H   0  0  0  0  0  0
  -23.7126  -37.6233   23.6759 H   0  0  0  0  0  0
  -26.2646  -31.4736   20.6560 H   0  0  0  0  0  0
  -26.8629  -30.6551   22.0615 H   0  0  0  0  0  0
  -28.0750  -28.5803   21.0659 H   0  0  0  0  0  0
  -25.5327  -25.7856   19.0803 H   0  0  0  0  0  0
  -23.6631  -27.3182   19.1760 H   0  0  0  0  0  0
  -23.7027  -30.6312   19.4616 H   0  0  0  0  0  0
  -22.6392  -29.3066   19.9721 H   0  0  0  0  0  0
  -25.1315  -36.1774   25.0779 H   0  0  0  0  0  0
  -21.0445  -28.3655   24.2213 H   0  0  0  0  0  0
  -21.0477  -26.2536   23.1537 H   0  0  0  0  0  0
  -21.7459  -26.9942   21.8735 H   0  0  0  0  0  0
  -19.9092  -25.7940   20.9284 H   0  0  0  0  0  0
  -19.5054  -27.5838   20.6675 H   0  0  0  0  0  0
  -17.6967  -26.1940   21.5978 H   0  0  0  0  0  0
  -18.5099  -25.9322   23.0491 H   0  0  0  0  0  0
  -19.7747  -30.7787   24.4046 H   0  0  0  0  0  0
  -17.4192  -31.4918   24.6142 H   0  0  0  0  0  0
  -15.5668  -30.1345   23.7127 H   0  0  0  0  0  0
  -16.0025  -27.9044   22.7149 H   0  0  0  0  0  0
  -24.5958  -30.7129   25.8074 H   0  0  0  0  0  0
  -24.8693  -32.3191   26.4694 H   0  0  0  0  0  0
  -25.7941  -30.9563   27.0547 H   0  0  0  0  0  0
  -26.3030  -29.6523   24.1934 H   0  0  0  0  0  0
  -27.4026  -29.7604   25.5479 H   0  0  0  0  0  0
  -27.8943  -30.4036   23.9986 H   0  0  0  0  0  0
  -27.2552  -33.4040   26.1783 H   0  0  0  0  0  0
  -28.3932  -32.6854   25.0480 H   0  0  0  0  0  0
  -28.0493  -31.8996   26.5884 H   0  0  0  0  0  0
  -28.2536  -38.0104   24.7519 H   0  0  0  0  0  0
  -28.1046  -36.2611   24.6229 H   0  0  0  0  0  0
  -27.2264  -37.1377   25.8863 H   0  0  0  0  0  0
  -20.9261  -29.7330   21.5496 H   0  0  0  0  0  0
  -26.0040  -38.2778   24.1494 H   0  0  0  0  0  0
  -26.8086  -17.1561   20.8678 H   0  0  0  0  0  0
  -27.4055  -19.6713   24.8607 H   0  0  0  0  0  0
  -25.0097  -21.5967   20.9932 H   0  0  0  0  0  0
  -24.1901  -21.1712   19.5841 H   0  0  0  0  0  0
  -24.4245  -19.0140   20.4909 H   0  0  0  0  0  0
  -25.4027  -21.8931   18.2198 H   0  0  0  0  0  0
  -26.7826  -18.4374   19.0579 H   0  0  0  0  0  0
  -29.0380  -20.7140   21.7481 H   0  0  0  0  0  0
  -29.1885  -21.0479   23.4486 H   0  0  0  0  0  0
  -30.4263  -20.1256   22.4773 H   0  0  0  0  0  0
  -24.2640  -18.4428   17.3261 H   0  0  0  0  0  0
  -24.4484  -17.3135   18.6312 H   0  0  0  0  0  0
  -25.5579  -17.4179   17.3777 H   0  0  0  0  0  0
  -31.1596  -18.3482   22.9903 H   0  0  0  0  0  0
  -31.3116  -18.1295   21.2644 H   0  0  0  0  0  0
  -31.8983  -16.9077   22.5097 H   0  0  0  0  0  0
  -28.4506  -22.0698   17.1587 H   0  0  0  0  0  0
  -28.8201  -21.5504   18.8379 H   0  0  0  0  0  0
  -29.3519  -23.0870   18.1984 H   0  0  0  0  0  0
  -25.0268  -22.4209   23.2848 H   0  0  0  0  0  0
  -26.3452  -21.7554   24.4139 H   0  0  0  0  0  0
  -24.6682  -21.8735   24.7946 H   0  0  0  0  0  0
  -27.7945  -24.9581   18.4166 H   0  0  0  0  0  0
  -28.7123  -24.3171   19.8013 H   0  0  0  0  0  0
  -29.6218  -16.3074   22.9996 H   0  0  0  0  0  0
  -26.7962  -23.3971   17.7452 H   0  0  0  0  0  0
  -29.5992  -16.4056   20.1708 H   0  0  0  0  0  0
  -27.3091  -20.0614   17.9043 H   0  0  0  0  0  0
  -25.8105  -20.2797   17.3190 H   0  0  0  0  0  0
  1 25  1  0  0  0
  1 30  2  0  0  0
  1 89  1  0  0  0
  2  3  1  0  0  0
  2 25  1  0  0  0
  2 92  1  0  0  0
  2 93  1  0  0  0
  3  4  1  0  0  0
  3 94  1  0  0  0
  3 95  1  0  0  0
  4  5  1  0  0  0
  4 96  1  0  0  0
  4 97  1  0  0  0
  5  6  1  0  0  0
  5 26  1  0  0  0
  5 98  1  0  0  0
  6 25  1  0  0  0
  6 99  1  0  0  0
  6100  1  0  0  0
  7  8  2  0  0  0
  7 26  1  0  0  0
  7 29  1  0  0  0
  8  9  1  0  0  0
  8 22  1  0  0  0
  9 10  1  0  0  0
  9 27  2  0  0  0
 10 11  2  0  0  0
 10 15  1  0  0  0
 11 12  1  0  0  0
 11101  1  0  0  0
 12 13  2  0  0  0
 12102  1  0  0  0
 13 14  1  0  0  0
 13 31  1  0  0  0
 14 15  2  0  0  0
 14103  1  0  0  0
 15104  1  0  0  0
 16 17  2  0  0  0
 16 21  1  0  0  0
 16 31  1  0  0  0
 17 18  1  0  0  0
 17105  1  0  0  0
 18 19  2  0  0  0
 18106  1  0  0  0
 19 20  1  0  0  0
 19 24  1  0  0  0
 20 21  2  0  0  0
 20107  1  0  0  0
 21 23  1  0  0  0
 22 28  1  0  0  0
 22 32  2  0  0  0
 26 27  1  0  0  0
 28108  1  0  0  0
 28109  1  0  0  0
 29110  1  0  0  0
 29111  1  0  0  0
 33 34  1  0  0  0
 33 66  1  0  0  0
 33 70  2  0  0  0
 34 36  1  0  0  0
 34 59  1  0  0  0
 34112  1  0  0  0
 35 44  2  0  0  0
 35 45  1  0  0  0
 35 68  1  0  0  0
 36 56  1  0  0  0
 36113  1  0  0  0
 37 39  1  0  0  0
 37 47  1  0  0  0
 37 66  1  0  0  0
 37114  1  0  0  0
 38 43  2  0  0  0
 38 46  1  0  0  0
 38 47  1  0  0  0
 39 64  1  0  0  0
 39 67  2  0  0  0
 40 52  1  0  0  0
 40 53  2  0  0  0
 40 58  1  0  0  0
 41115  1  0  0  0
 41116  1  0  0  0
 41117  1  0  0  0
 41 48  1  0  0  0
 42 43  1  0  0  0
 42 66  1  0  0  0
 42118  1  0  0  0
 42119  1  0  0  0
 43 44  1  0  0  0
 44120  1  0  0  0
 45 46  2  0  0  0
 45121  1  0  0  0
 46122  1  0  0  0
 47123  1  0  0  0
 47124  1  0  0  0
 48 56  1  0  0  0
 48 65  1  0  0  0
 48125  1  0  0  0
 49 50  1  0  0  0
 49 53  1  0  0  0
 49 64  1  0  0  0
 49126  1  0  0  0
 50 51  1  0  0  0
 50127  1  0  0  0
 50128  1  0  0  0
 51 52  1  0  0  0
 51129  1  0  0  0
 51130  1  0  0  0
 52131  1  0  0  0
 52132  1  0  0  0
 53 54  1  0  0  0
 54 55  2  0  0  0
 54133  1  0  0  0
 55 57  1  0  0  0
 55134  1  0  0  0
 56 69  2  0  0  0
 57 58  2  0  0  0
 57135  1  0  0  0
 58136  1  0  0  0
 59 60  1  0  0  0
 59 61  1  0  0  0
 59 62  1  0  0  0
 60137  1  0  0  0
 60138  1  0  0  0
 60139  1  0  0  0
 61140  1  0  0  0
 61141  1  0  0  0
 61142  1  0  0  0
 62143  1  0  0  0
 62144  1  0  0  0
 62145  1  0  0  0
 63 65  1  0  0  0
 63146  1  0  0  0
 63147  1  0  0  0
 63148  1  0  0  0
 64149  1  0  0  0
 65150  1  0  0  0
 68 86  1  0  0  0
 71 73  2  0  0  0
 71 74  1  0  0  0
 71151  1  0  0  0
 72 75  1  0  0  0
 72 76  2  0  0  0
 72152  1  0  0  0
 73 76  1  0  0  0
 73 78  1  0  0  0
 74 75  2  0  0  0
 74 87  1  0  0  0
 75 81  1  0  0  0
 76 91  1  0  0  0
 77 78  1  0  0  0
 77153  1  0  0  0
 77154  1  0  0  0
 77 79  1  0  0  0
 78 80  1  0  0  0
 78155  1  0  0  0
 79 88  1  0  0  0
 79 90  1  0  0  0
 79156  1  0  0  0
 80 82  1  0  0  0
 80 90  1  0  0  0
 80157  1  0  0  0
 81158  1  0  0  0
 81159  1  0  0  0
 81160  1  0  0  0
 82161  1  0  0  0
 82162  1  0  0  0
 82163  1  0  0  0
 83164  1  0  0  0
 83165  1  0  0  0
 83166  1  0  0  0
 83 87  1  0  0  0
 84167  1  0  0  0
 84168  1  0  0  0
 84169  1  0  0  0
 84 88  1  0  0  0
 85 91  1  0  0  0
 85170  1  0  0  0
 85171  1  0  0  0
 85172  1  0  0  0
 86 88  1  0  0  0
 86173  1  0  0  0
 86174  1  0  0  0
 87 89  1  0  0  0
 87175  1  0  0  0
 88176  1  0  0  0
 89177  1  0  0  0
 90178  1  0  0  0
 90179  1  0  0  0
M  CHG  1  90   1
M  ISO  4   1 100  68 101  86 101  89 100
M  END
> <chiral flag>
0

> <version>
0

> <s_m_source_file>
/data/baiqing/PycharmProjects/Reinvent-master-3.2/result/LINK_invent/BTK/process_docking_weight1_custom_sum_contain_oxygen_bond_distance_aromatic_linkinvent_7_9_3/rearranged_h_0160.sdf

> <i_m_source_file_index>
39

> <r_mmod_Potential_Energy-OPLS-2005>
1535.576171875

> <r_mmod_Stretch_Energy-OPLS-2005>
362.135498046875

> <r_mmod_Bend_Energy-OPLS-2005>
821.369384765625

> <r_mmod_Torsional_Energy-OPLS-2005>
657.465087890625

> <r_mmod_Improper_Torsional_Energy-OPLS-2005>
29.188928604126

> <r_mmod_Van_der_Waal_Energy-OPLS-2005>
163.263793945312

> <r_mmod_Electrostatic_Energy-OPLS-2005>
-332.184204101562

> <r_mmod_Solvation_Energy-OPLS-2005>
-468.948303222656

> <b_mmod_Minimization_Converged-OPLS-2005>
0

> <r_mmod_RMS_Derivative-OPLS-2005>
90.2846221923828

$$$$
39
                    3D
 Structure written by MMmdl.
166175  0  0  1  0            999 V2000
  -30.5483  -14.7518   20.4658 C   0  0  0  0  0  0
  -30.4313  -12.4700   19.4611 C   0  0  0  0  0  0
  -29.5046  -12.5010   18.2255 C   0  0  0  0  0  0
  -28.0296  -12.3237   18.6372 C   0  0  0  0  0  0
  -27.6282  -13.2219   19.8378 C   0  0  2  0  0  0
  -28.6681  -13.1447   20.9727 C   0  0  0  0  0  0
  -25.2441  -13.8167   20.5703 C   0  0  0  0  0  0
  -24.1713  -13.0390   20.9218 C   0  0  0  0  0  0
  -24.6301  -11.6902   20.8728 C   0  0  0  0  0  0
  -23.8989  -10.4272   21.0405 C   0  0  0  0  0  0
  -24.3585   -9.4219   21.9181 C   0  0  0  0  0  0
  -23.6282   -8.2252   22.0774 C   0  0  0  0  0  0
  -22.4264   -8.0249   21.3551 C   0  0  0  0  0  0
  -21.9863   -9.0208   20.4659 C   0  0  0  0  0  0
  -22.7167  -10.2105   20.3060 C   0  0  0  0  0  0
  -21.6841   -6.0718   22.5280 C   0  0  0  0  0  0
  -21.4024   -6.5638   23.8209 C   0  0  0  0  0  0
  -21.3648   -5.6792   24.9162 C   0  0  0  0  0  0
  -21.6055   -4.3048   24.7239 C   0  0  0  0  0  0
  -21.8812   -3.8139   23.4346 C   0  0  0  0  0  0
  -21.9204   -4.6953   22.3396 C   0  0  0  0  0  0
  -22.7756  -13.5225   21.1838 C   0  0  0  0  0  0
  -22.1643   -4.2146   21.0973 F   0  0  0  0  0  0
  -21.5635   -3.4537   25.7749 F   0  0  0  0  0  0
  -29.9619  -13.5182   20.3914 N   0  0  0  0  0  0
  -26.2815  -12.9341   20.3226 N   0  0  0  0  0  0
  -25.9214  -11.6488   20.5697 N   0  0  0  0  0  0
  -22.0387  -12.8238   22.0412 N   0  0  0  0  0  0
  -25.4067  -15.1901   20.4176 N   0  0  0  0  0  0
  -31.7513  -14.8752   20.2004 O   0  0  0  0  0  0
  -21.6632   -6.8844   21.4229 O   0  0  0  0  0  0
  -22.3448  -14.5488   20.6621 O   0  0  0  0  0  0
  -24.6252  -31.8645   23.2058 C   0  0  0  0  0  0
  -25.9089  -32.4791   23.8381 C   0  0  1  0  0  0
  -27.1356  -27.2526   20.1030 C   0  0  0  0  0  0
  -25.5932  -33.8617   24.2323 N   0  0  0  0  0  0
  -23.4108  -30.4948   21.5530 C   0  0  2  0  0  0
  -24.8401  -28.9614   20.1008 C   0  0  0  0  0  0
  -22.7435  -29.4611   22.4933 C   0  0  0  0  0  0
  -18.0265  -28.1386   22.8473 C   0  0  0  0  0  0
  -24.1477  -36.7309   23.2643 C   0  0  0  0  0  0
  -25.9533  -30.7706   21.3883 C   0  0  0  0  0  0
  -26.0122  -29.3963   20.7237 C   0  0  0  0  0  0
  -27.1658  -28.5522   20.7206 C   0  0  0  0  0  0
  -25.9403  -26.8995   19.4304 C   0  0  0  0  0  0
  -24.8131  -27.7365   19.4298 C   0  0  0  0  0  0
  -23.6201  -29.8499   20.1604 C   0  0  0  0  0  0
  -25.4110  -36.3121   24.0342 C   0  0  1  0  0  0
  -20.5887  -28.3587   23.1265 C   0  0  2  0  0  0
  -20.6746  -26.9314   22.5370 C   0  0  0  0  0  0
  -19.5735  -26.6336   21.5175 C   0  0  0  0  0  0
  -18.1904  -26.7908   22.1595 C   0  0  0  0  0  0
  -19.1538  -28.8815   23.2893 C   0  0  0  0  0  0
  -18.9471  -30.1397   23.8952 C   0  0  0  0  0  0
  -17.6477  -30.6522   24.0678 C   0  0  0  0  0  0
  -25.9039  -34.9488   23.5133 C   0  0  0  0  0  0
  -16.5359  -29.9077   23.6371 C   0  0  0  0  0  0
  -16.7269  -28.6535   23.0329 C   0  0  0  0  0  0
  -26.4513  -31.6560   25.0733 C   0  0  0  0  0  0
  -25.3755  -31.3651   26.1451 C   0  0  0  0  0  0
  -27.0356  -30.2986   24.6156 C   0  0  0  0  0  0
  -27.6084  -32.4303   25.7466 C   0  0  0  0  0  0
  -27.5588  -37.1790   24.8470 C   0  0  0  0  0  0
  -21.4160  -29.2956   22.3655 N   0  0  0  0  0  0
  -26.4289  -37.3809   23.9425 N   0  0  0  0  0  0
  -24.6817  -31.0622   22.1041 N   0  0  0  0  0  0
  -23.4186  -28.8172   23.3005 O   0  0  0  0  0  0
  -28.2147  -26.3491   20.1672 O   0  0  0  0  0  0
  -26.5564  -34.8940   22.4675 O   0  0  0  0  0  0
  -23.5415  -32.1470   23.7378 O   0  0  0  0  0  0
  -28.9968  -19.7673   20.7936 C   0  0  0  0  0  0
  -28.5469  -20.9979   20.1617 C   0  0  0  0  0  0
  -29.4742  -18.5837   20.0998 C   0  0  0  0  0  0
  -28.5887  -21.0056   18.7416 C   0  0  0  0  0  0
  -29.5418  -18.6997   18.6860 C   0  0  0  0  0  0
  -29.1588  -19.9100   18.0317 C   0  0  0  0  0  0
  -28.8372  -23.1703   21.7491 C   0  0  0  0  0  0
  -27.9483  -22.1927   21.0187 C   0  0  1  0  0  0
  -27.7167  -23.7973   20.9199 C   0  0  1  0  0  0
  -27.9800  -22.1686   17.9621 C   0  0  0  0  0  0
  -30.0715  -17.5454   17.8342 C   0  0  0  0  0  0
  -29.4205  -20.0305   16.5289 C   0  0  0  0  0  0
  -26.4496  -24.3149   21.6045 C   0  0  0  0  0  0
  -30.1039  -17.3210   20.8657 C   0  0  0  0  0  0
  -28.0811  -24.8908   19.8215 C   0  0  0  0  0  0
  -29.7287  -15.8568   20.6452 N   0  0  0  0  0  0
  -31.4672  -12.6308   19.1564 H   0  0  0  0  0  0
  -30.4047  -11.4935   19.9461 H   0  0  0  0  0  0
  -29.7947  -11.7194   17.5216 H   0  0  0  0  0  0
  -29.6224  -13.4486   17.6988 H   0  0  0  0  0  0
  -27.8822  -11.2734   18.8901 H   0  0  0  0  0  0
  -27.3732  -12.5242   17.7900 H   0  0  0  0  0  0
  -27.6134  -14.2455   19.4617 H   0  0  0  0  0  0
  -28.7146  -12.1371   21.3875 H   0  0  0  0  0  0
  -28.3986  -13.8070   21.7959 H   0  0  0  0  0  0
  -25.2726   -9.5728   22.4739 H   0  0  0  0  0  0
  -24.0009   -7.4654   22.7494 H   0  0  0  0  0  0
  -21.0804   -8.8675   19.8974 H   0  0  0  0  0  0
  -22.3573  -10.9627   19.6181 H   0  0  0  0  0  0
  -21.2003   -7.6161   23.9702 H   0  0  0  0  0  0
  -21.1473   -6.0536   25.9075 H   0  0  0  0  0  0
  -22.0613   -2.7616   23.2841 H   0  0  0  0  0  0
  -22.4008  -11.9973   22.4900 H   0  0  0  0  0  0
  -21.0996  -13.1288   22.2573 H   0  0  0  0  0  0
  -24.6235  -15.8259   20.5316 H   0  0  0  0  0  0
  -26.2366  -15.6467   20.0625 H   0  0  0  0  0  0
  -26.7131  -32.5466   23.1110 H   0  0  0  0  0  0
  -25.0121  -33.9783   25.0511 H   0  0  0  0  0  0
  -22.7079  -31.3191   21.4213 H   0  0  0  0  0  0
  -23.3757  -35.9617   23.3294 H   0  0  0  0  0  0
  -24.3572  -36.8935   22.2051 H   0  0  0  0  0  0
  -23.7170  -37.6494   23.6652 H   0  0  0  0  0  0
  -26.0852  -31.5314   20.6193 H   0  0  0  0  0  0
  -26.8358  -30.8258   22.0072 H   0  0  0  0  0  0
  -28.0577  -28.8758   21.2382 H   0  0  0  0  0  0
  -25.8144  -25.9794   18.8836 H   0  0  0  0  0  0
  -23.9157  -27.4664   18.8868 H   0  0  0  0  0  0
  -23.7206  -30.6214   19.3957 H   0  0  0  0  0  0
  -22.7431  -29.2667   19.8800 H   0  0  0  0  0  0
  -25.1278  -36.1989   25.0820 H   0  0  0  0  0  0
  -21.0040  -28.3110   24.1363 H   0  0  0  0  0  0
  -20.5574  -26.2193   23.3536 H   0  0  0  0  0  0
  -21.6607  -26.7293   22.1191 H   0  0  0  0  0  0
  -19.6842  -25.6228   21.1237 H   0  0  0  0  0  0
  -19.6697  -27.3124   20.6670 H   0  0  0  0  0  0
  -17.4126  -26.6612   21.4036 H   0  0  0  0  0  0
  -18.0316  -26.0058   22.8995 H   0  0  0  0  0  0
  -19.7931  -30.7208   24.2354 H   0  0  0  0  0  0
  -17.5011  -31.6121   24.5433 H   0  0  0  0  0  0
  -15.5372  -30.2990   23.7703 H   0  0  0  0  0  0
  -15.8656  -28.0894   22.7009 H   0  0  0  0  0  0
  -24.5953  -30.7000   25.7739 H   0  0  0  0  0  0
  -24.8946  -32.2805   26.4869 H   0  0  0  0  0  0
  -25.8108  -30.8794   27.0189 H   0  0  0  0  0  0
  -26.2912  -29.6694   24.1260 H   0  0  0  0  0  0
  -27.4151  -29.7254   25.4613 H   0  0  0  0  0  0
  -27.8759  -30.4263   23.9343 H   0  0  0  0  0  0
  -27.2705  -33.3605   26.1997 H   0  0  0  0  0  0
  -28.3875  -32.6808   25.0284 H   0  0  0  0  0  0
  -28.0759  -31.8459   26.5371 H   0  0  0  0  0  0
  -28.2585  -38.0095   24.7574 H   0  0  0  0  0  0
  -28.1091  -36.2642   24.6240 H   0  0  0  0  0  0
  -27.2328  -37.1407   25.8872 H   0  0  0  0  0  0
  -20.9315  -29.8621   21.6851 H   0  0  0  0  0  0
  -26.0190  -38.2890   24.1424 H   0  0  0  0  0  0
  -28.9705  -19.7423   21.8747 H   0  0  0  0  0  0
  -29.8515  -23.3180   21.3781 H   0  0  0  0  0  0
  -28.7652  -23.1570   22.8367 H   0  0  0  0  0  0
  -27.1427  -21.7296   21.5828 H   0  0  0  0  0  0
  -27.1113  -22.5745   18.4789 H   0  0  0  0  0  0
  -27.6057  -21.8646   16.9821 H   0  0  0  0  0  0
  -28.7194  -22.9525   17.8082 H   0  0  0  0  0  0
  -31.1184  -17.6896   17.5731 H   0  0  0  0  0  0
  -29.5060  -17.4479   16.9095 H   0  0  0  0  0  0
  -29.9850  -16.5723   18.3023 H   0  0  0  0  0  0
  -28.7404  -19.3860   15.9726 H   0  0  0  0  0  0
  -30.4435  -19.7212   16.3156 H   0  0  0  0  0  0
  -29.3467  -21.0374   16.1202 H   0  0  0  0  0  0
  -26.0622  -23.6117   22.3430 H   0  0  0  0  0  0
  -25.6690  -24.4809   20.8594 H   0  0  0  0  0  0
  -26.6490  -25.2565   22.1202 H   0  0  0  0  0  0
  -29.9990  -17.5003   21.9355 H   0  0  0  0  0  0
  -31.1768  -17.3943   20.6825 H   0  0  0  0  0  0
  -27.3922  -24.7715   18.9873 H   0  0  0  0  0  0
  -29.0361  -24.5905   19.3992 H   0  0  0  0  0  0
  -28.7446  -15.6521   20.7345 H   0  0  0  0  0  0
  1 25  1  0  0  0
  1 30  2  0  0  0
  1 86  1  0  0  0
  2  3  1  0  0  0
  2 25  1  0  0  0
  2 87  1  0  0  0
  2 88  1  0  0  0
  3  4  1  0  0  0
  3 89  1  0  0  0
  3 90  1  0  0  0
  4  5  1  0  0  0
  4 91  1  0  0  0
  4 92  1  0  0  0
  5  6  1  0  0  0
  5 26  1  0  0  0
  5 93  1  0  0  0
  6 25  1  0  0  0
  6 94  1  0  0  0
  6 95  1  0  0  0
  7  8  2  0  0  0
  7 26  1  0  0  0
  7 29  1  0  0  0
  8  9  1  0  0  0
  8 22  1  0  0  0
  9 10  1  0  0  0
  9 27  2  0  0  0
 10 11  2  0  0  0
 10 15  1  0  0  0
 11 12  1  0  0  0
 11 96  1  0  0  0
 12 13  2  0  0  0
 12 97  1  0  0  0
 13 14  1  0  0  0
 13 31  1  0  0  0
 14 15  2  0  0  0
 14 98  1  0  0  0
 15 99  1  0  0  0
 16 17  2  0  0  0
 16 21  1  0  0  0
 16 31  1  0  0  0
 17 18  1  0  0  0
 17100  1  0  0  0
 18 19  2  0  0  0
 18101  1  0  0  0
 19 20  1  0  0  0
 19 24  1  0  0  0
 20 21  2  0  0  0
 20102  1  0  0  0
 21 23  1  0  0  0
 22 28  1  0  0  0
 22 32  2  0  0  0
 26 27  1  0  0  0
 28103  1  0  0  0
 28104  1  0  0  0
 29105  1  0  0  0
 29106  1  0  0  0
 33 34  1  0  0  0
 33 66  1  0  0  0
 33 70  2  0  0  0
 34 36  1  0  0  0
 34 59  1  0  0  0
 34107  1  0  0  0
 35 44  2  0  0  0
 35 45  1  0  0  0
 35 68  1  0  0  0
 36 56  1  0  0  0
 36108  1  0  0  0
 37 39  1  0  0  0
 37 47  1  0  0  0
 37 66  1  0  0  0
 37109  1  0  0  0
 38 43  2  0  0  0
 38 46  1  0  0  0
 38 47  1  0  0  0
 39 64  1  0  0  0
 39 67  2  0  0  0
 40 52  1  0  0  0
 40 53  2  0  0  0
 40 58  1  0  0  0
 41110  1  0  0  0
 41111  1  0  0  0
 41112  1  0  0  0
 41 48  1  0  0  0
 42 43  1  0  0  0
 42 66  1  0  0  0
 42113  1  0  0  0
 42114  1  0  0  0
 43 44  1  0  0  0
 44115  1  0  0  0
 45 46  2  0  0  0
 45116  1  0  0  0
 46117  1  0  0  0
 47118  1  0  0  0
 47119  1  0  0  0
 48 56  1  0  0  0
 48 65  1  0  0  0
 48120  1  0  0  0
 49 50  1  0  0  0
 49 53  1  0  0  0
 49 64  1  0  0  0
 49121  1  0  0  0
 50 51  1  0  0  0
 50122  1  0  0  0
 50123  1  0  0  0
 51 52  1  0  0  0
 51124  1  0  0  0
 51125  1  0  0  0
 52126  1  0  0  0
 52127  1  0  0  0
 53 54  1  0  0  0
 54 55  2  0  0  0
 54128  1  0  0  0
 55 57  1  0  0  0
 55129  1  0  0  0
 56 69  2  0  0  0
 57 58  2  0  0  0
 57130  1  0  0  0
 58131  1  0  0  0
 59 60  1  0  0  0
 59 61  1  0  0  0
 59 62  1  0  0  0
 60132  1  0  0  0
 60133  1  0  0  0
 60134  1  0  0  0
 61135  1  0  0  0
 61136  1  0  0  0
 61137  1  0  0  0
 62138  1  0  0  0
 62139  1  0  0  0
 62140  1  0  0  0
 63 65  1  0  0  0
 63141  1  0  0  0
 63142  1  0  0  0
 63143  1  0  0  0
 64144  1  0  0  0
 65145  1  0  0  0
 68 85  1  0  0  0
 71 72  2  0  0  0
 71 73  1  0  0  0
 71146  1  0  0  0
 72 74  1  0  0  0
 72 78  1  0  0  0
 73 75  2  0  0  0
 73 84  1  0  0  0
 74 76  2  0  0  0
 74 80  1  0  0  0
 75 76  1  0  0  0
 75 81  1  0  0  0
 76 82  1  0  0  0
 77 78  1  0  0  0
 77 79  1  0  0  0
 77147  1  0  0  0
 77148  1  0  0  0
 78 79  1  0  0  0
 78149  1  0  0  0
 79 83  1  0  0  0
 79 85  1  0  0  0
 80150  1  0  0  0
 80151  1  0  0  0
 80152  1  0  0  0
 81153  1  0  0  0
 81154  1  0  0  0
 81155  1  0  0  0
 82156  1  0  0  0
 82157  1  0  0  0
 82158  1  0  0  0
 83159  1  0  0  0
 83160  1  0  0  0
 83161  1  0  0  0
 84 86  1  0  0  0
 84162  1  0  0  0
 84163  1  0  0  0
 85164  1  0  0  0
 85165  1  0  0  0
 86166  1  0  0  0
M  ISO  4   1 100  68 101  85 101  86 100
M  END
> <chiral flag>
0

> <version>
0

> <s_m_source_file>
/data/baiqing/PycharmProjects/Reinvent-master-3.2/result/LINK_invent/BTK/process_docking_weight1_custom_sum_contain_oxygen_bond_distance_aromatic_linkinvent_7_9_3/rearranged_h_0160.sdf

> <i_m_source_file_index>
40

> <r_mmod_Potential_Energy-OPLS-2005>
206.336929321289

> <r_mmod_Stretch_Energy-OPLS-2005>
128.999923706055

> <r_mmod_Bend_Energy-OPLS-2005>
209.725631713867

> <r_mmod_Torsional_Energy-OPLS-2005>
249.922897338867

> <r_mmod_Improper_Torsional_Energy-OPLS-2005>
5.69102668762207

> <r_mmod_Van_der_Waal_Energy-OPLS-2005>
155.598663330078

> <r_mmod_Electrostatic_Energy-OPLS-2005>
-441.150726318359

> <r_mmod_Solvation_Energy-OPLS-2005>
-201.937774658203

> <b_mmod_Minimization_Converged-OPLS-2005>
0

> <r_mmod_RMS_Derivative-OPLS-2005>
9.7692232131958

$$$$
40
                    3D
 Structure written by MMmdl.
173182  0  0  1  0            999 V2000
  -30.7323  -14.5580   20.5114 C   0  0  0  0  0  0
  -30.4180  -12.3474   19.4573 C   0  0  0  0  0  0
  -29.4982  -12.4982   18.2259 C   0  0  0  0  0  0
  -28.0203  -12.3559   18.6356 C   0  0  0  0  0  0
  -27.6532  -13.2272   19.8691 C   0  0  2  0  0  0
  -28.7032  -13.1079   20.9984 C   0  0  0  0  0  0
  -25.2561  -13.8209   20.5792 C   0  0  0  0  0  0
  -24.1778  -13.0447   20.9250 C   0  0  0  0  0  0
  -24.6378  -11.6941   20.8764 C   0  0  0  0  0  0
  -23.9039  -10.4317   21.0385 C   0  0  0  0  0  0
  -24.3604   -9.4252   21.9170 C   0  0  0  0  0  0
  -23.6299   -8.2284   22.0765 C   0  0  0  0  0  0
  -22.4291   -8.0275   21.3531 C   0  0  0  0  0  0
  -21.9887   -9.0247   20.4657 C   0  0  0  0  0  0
  -22.7200  -10.2141   20.3058 C   0  0  0  0  0  0
  -21.6848   -6.0722   22.5272 C   0  0  0  0  0  0
  -21.3983   -6.5619   23.8213 C   0  0  0  0  0  0
  -21.3651   -5.6774   24.9164 C   0  0  0  0  0  0
  -21.6064   -4.3054   24.7225 C   0  0  0  0  0  0
  -21.8797   -3.8124   23.4337 C   0  0  0  0  0  0
  -21.9195   -4.6948   22.3394 C   0  0  0  0  0  0
  -22.7805  -13.5234   21.1870 C   0  0  0  0  0  0
  -22.1670   -4.2113   21.0975 F   0  0  0  0  0  0
  -21.5672   -3.4545   25.7751 F   0  0  0  0  0  0
  -30.0242  -13.3924   20.4181 N   0  0  0  0  0  0
  -26.2960  -12.9395   20.3403 N   0  0  0  0  0  0
  -25.9312  -11.6540   20.5813 N   0  0  0  0  0  0
  -22.0438  -12.8218   22.0445 N   0  0  0  0  0  0
  -25.4263  -15.1907   20.4241 N   0  0  0  0  0  0
  -31.9161  -14.6245   20.1686 O   0  0  0  0  0  0
  -21.6664   -6.8883   21.4254 O   0  0  0  0  0  0
  -22.3472  -14.5547   20.6805 O   0  0  0  0  0  0
  -24.6217  -31.8687   23.2036 C   0  0  0  0  0  0
  -25.9149  -32.4813   23.8330 C   0  0  1  0  0  0
  -27.1822  -27.3314   20.2320 C   0  0  0  0  0  0
  -25.6036  -33.8594   24.2322 N   0  0  0  0  0  0
  -23.4046  -30.4949   21.5382 C   0  0  2  0  0  0
  -24.8564  -28.9551   20.0993 C   0  0  0  0  0  0
  -22.7449  -29.4654   22.4878 C   0  0  0  0  0  0
  -18.0312  -28.1307   22.8476 C   0  0  0  0  0  0
  -24.1489  -36.7297   23.2628 C   0  0  0  0  0  0
  -25.9390  -30.8197   21.3628 C   0  0  0  0  0  0
  -26.0150  -29.4431   20.7238 C   0  0  0  0  0  0
  -27.1843  -28.6378   20.7831 C   0  0  0  0  0  0
  -26.0351  -26.8979   19.5376 C   0  0  0  0  0  0
  -24.8707  -27.6931   19.4809 C   0  0  0  0  0  0
  -23.6188  -29.8341   20.1474 C   0  0  0  0  0  0
  -25.4107  -36.3103   24.0336 C   0  0  1  0  0  0
  -20.5892  -28.3770   23.1363 C   0  0  2  0  0  0
  -20.6835  -26.9474   22.5575 C   0  0  0  0  0  0
  -19.5932  -26.6491   21.5247 C   0  0  0  0  0  0
  -18.2052  -26.7880   22.1564 C   0  0  0  0  0  0
  -19.1497  -28.8866   23.2891 C   0  0  0  0  0  0
  -18.9274  -30.1444   23.8860 C   0  0  0  0  0  0
  -17.6222  -30.6500   24.0427 C   0  0  0  0  0  0
  -25.9067  -34.9463   23.5112 C   0  0  0  0  0  0
  -16.5193  -29.8884   23.6142 C   0  0  0  0  0  0
  -16.7260  -28.6317   23.0213 C   0  0  0  0  0  0
  -26.4535  -31.6537   25.0630 C   0  0  0  0  0  0
  -25.3741  -31.3731   26.1343 C   0  0  0  0  0  0
  -27.0343  -30.2981   24.5994 C   0  0  0  0  0  0
  -27.6124  -32.4220   25.7388 C   0  0  0  0  0  0
  -27.5575  -37.1814   24.8454 C   0  0  0  0  0  0
  -21.4176  -29.3047   22.3657 N   0  0  0  0  0  0
  -26.4281  -37.3803   23.9403 N   0  0  0  0  0  0
  -24.6710  -31.0781   22.0921 N   0  0  0  0  0  0
  -23.4194  -28.8203   23.2955 O   0  0  0  0  0  0
  -28.1989  -26.4106   20.4605 O   0  0  0  0  0  0
  -26.5593  -34.8912   22.4648 O   0  0  0  0  0  0
  -23.5433  -32.1459   23.7463 O   0  0  0  0  0  0
  -27.7230  -23.0350   22.4490 C   0  0  0  0  0  0
  -28.7907  -21.8507   20.1682 C   0  0  0  0  0  0
  -28.1114  -23.9105   21.3914 C   0  0  0  0  0  0
  -27.8799  -21.6193   22.3927 C   0  0  0  0  0  0
  -28.6766  -23.2709   20.2463 C   0  0  0  0  0  0
  -28.3759  -21.0027   21.2199 C   0  0  0  0  0  0
  -29.6161  -17.8405   22.0591 C   0  0  0  0  0  0
  -28.8783  -17.7438   19.7087 C   0  0  0  0  0  0
  -30.5471  -16.6232   21.7808 C   0  0  0  0  0  0
  -29.8381  -16.5387   19.5062 C   0  0  0  0  0  0
  -29.3274  -18.7172   20.8126 C   0  0  0  0  0  0
  -29.1161  -24.0707   19.0411 C   0  0  0  0  0  0
  -26.0775  -20.3887   23.7727 C   0  0  0  0  0  0
  -28.2059  -21.2661   24.9000 C   0  0  0  0  0  0
  -28.6328  -25.9817   22.8643 C   0  0  0  0  0  0
  -27.5690  -20.7318   23.6065 C   0  0  0  0  0  0
  -27.9083  -25.4712   21.5800 C   0  0  1  0  0  0
  -30.0420  -15.7204   20.7251 N   0  0  0  0  0  0
  -28.2352  -19.6217   21.0869 O   0  0  0  0  0  0
  -31.4655  -12.4221   19.1564 H   0  0  0  0  0  0
  -30.3108  -11.3601   19.9083 H   0  0  0  0  0  0
  -29.7474  -11.7547   17.4669 H   0  0  0  0  0  0
  -29.6617  -13.4677   17.7549 H   0  0  0  0  0  0
  -27.8393  -11.3013   18.8623 H   0  0  0  0  0  0
  -27.3738  -12.6098   17.7943 H   0  0  0  0  0  0
  -27.6694  -14.2612   19.5270 H   0  0  0  0  0  0
  -28.6878  -12.1099   21.4341 H   0  0  0  0  0  0
  -28.4785  -13.7987   21.8115 H   0  0  0  0  0  0
  -25.2764   -9.5724   22.4717 H   0  0  0  0  0  0
  -23.9983   -7.4686   22.7474 H   0  0  0  0  0  0
  -21.0825   -8.8787   19.8972 H   0  0  0  0  0  0
  -22.3668  -10.9691   19.6185 H   0  0  0  0  0  0
  -21.1940   -7.6109   23.9691 H   0  0  0  0  0  0
  -21.1523   -6.0513   25.9083 H   0  0  0  0  0  0
  -22.0583   -2.7583   23.2859 H   0  0  0  0  0  0
  -22.4069  -11.9883   22.4802 H   0  0  0  0  0  0
  -21.1108  -13.1339   22.2650 H   0  0  0  0  0  0
  -24.6598  -15.8421   20.5403 H   0  0  0  0  0  0
  -26.2872  -15.6391   20.1336 H   0  0  0  0  0  0
  -26.7178  -32.5458   23.1064 H   0  0  0  0  0  0
  -25.0234  -33.9697   25.0489 H   0  0  0  0  0  0
  -22.6961  -31.3154   21.4121 H   0  0  0  0  0  0
  -23.3737  -35.9650   23.3314 H   0  0  0  0  0  0
  -24.3582  -36.8894   22.2045 H   0  0  0  0  0  0
  -23.7258  -37.6522   23.6589 H   0  0  0  0  0  0
  -26.0500  -31.5737   20.5830 H   0  0  0  0  0  0
  -26.8284  -30.8858   21.9728 H   0  0  0  0  0  0
  -28.0558  -28.9890   21.3148 H   0  0  0  0  0  0
  -26.0086  -25.8965   19.1249 H   0  0  0  0  0  0
  -23.9779  -27.3117   18.9982 H   0  0  0  0  0  0
  -23.7268  -30.6200   19.3982 H   0  0  0  0  0  0
  -22.7362  -29.2676   19.8415 H   0  0  0  0  0  0
  -25.1260  -36.1971   25.0832 H   0  0  0  0  0  0
  -20.9956  -28.3434   24.1528 H   0  0  0  0  0  0
  -20.5663  -26.2394   23.3769 H   0  0  0  0  0  0
  -21.6772  -26.7474   22.1528 H   0  0  0  0  0  0
  -19.7235  -25.6462   21.1197 H   0  0  0  0  0  0
  -19.6925  -27.3462   20.6922 H   0  0  0  0  0  0
  -17.4412  -26.6725   21.3829 H   0  0  0  0  0  0
  -18.0393  -25.9956   22.8871 H   0  0  0  0  0  0
  -19.7660  -30.7342   24.2257 H   0  0  0  0  0  0
  -17.4598  -31.6175   24.4962 H   0  0  0  0  0  0
  -15.5118  -30.2655   23.7315 H   0  0  0  0  0  0
  -15.8730  -28.0506   22.6863 H   0  0  0  0  0  0
  -24.5895  -30.7140   25.7634 H   0  0  0  0  0  0
  -24.8936  -32.2934   26.4681 H   0  0  0  0  0  0
  -25.8033  -30.8940   27.0139 H   0  0  0  0  0  0
  -26.2925  -29.6793   24.0977 H   0  0  0  0  0  0
  -27.4079  -29.7203   25.4435 H   0  0  0  0  0  0
  -27.8743  -30.4319   23.9186 H   0  0  0  0  0  0
  -27.2799  -33.3513   26.2025 H   0  0  0  0  0  0
  -28.3911  -32.6813   25.0189 H   0  0  0  0  0  0
  -28.0776  -31.8258   26.5250 H   0  0  0  0  0  0
  -28.2605  -38.0085   24.7453 H   0  0  0  0  0  0
  -28.1102  -36.2640   24.6349 H   0  0  0  0  0  0
  -27.2304  -37.1509   25.8861 H   0  0  0  0  0  0
  -20.9393  -29.8748   21.6848 H   0  0  0  0  0  0
  -26.0209  -38.2905   24.1373 H   0  0  0  0  0  0
  -27.2994  -23.4643   23.3451 H   0  0  0  0  0  0
  -29.1585  -21.3994   19.2608 H   0  0  0  0  0  0
  -30.0597  -18.4612   22.8396 H   0  0  0  0  0  0
  -28.6738  -17.4727   22.4699 H   0  0  0  0  0  0
  -27.8799  -17.3717   19.9342 H   0  0  0  0  0  0
  -28.7940  -18.2969   18.7765 H   0  0  0  0  0  0
  -30.7064  -16.0660   22.7062 H   0  0  0  0  0  0
  -31.5279  -16.9962   21.4857 H   0  0  0  0  0  0
  -30.8067  -16.9075   19.1557 H   0  0  0  0  0  0
  -29.4518  -15.9104   18.7002 H   0  0  0  0  0  0
  -30.2297  -19.2450   20.4991 H   0  0  0  0  0  0
  -29.7155  -23.4668   18.3615 H   0  0  0  0  0  0
  -29.7224  -24.9284   19.3326 H   0  0  0  0  0  0
  -28.2373  -24.4092   18.4924 H   0  0  0  0  0  0
  -25.6668  -19.9197   22.8770 H   0  0  0  0  0  0
  -25.4682  -21.2645   24.0029 H   0  0  0  0  0  0
  -25.9459  -19.6637   24.5806 H   0  0  0  0  0  0
  -27.7535  -22.1974   25.2410 H   0  0  0  0  0  0
  -29.2758  -21.4348   24.7737 H   0  0  0  0  0  0
  -28.0912  -20.5415   25.7057 H   0  0  0  0  0  0
  -28.5880  -27.0647   22.9553 H   0  0  0  0  0  0
  -29.6876  -25.6993   22.8929 H   0  0  0  0  0  0
  -28.1835  -25.6061   23.7860 H   0  0  0  0  0  0
  -28.0715  -19.7779   23.4433 H   0  0  0  0  0  0
  -26.8413  -25.5663   21.8150 H   0  0  0  0  0  0
  1 25  1  0  0  0
  1 30  2  0  0  0
  1 88  1  0  0  0
  2  3  1  0  0  0
  2 25  1  0  0  0
  2 90  1  0  0  0
  2 91  1  0  0  0
  3  4  1  0  0  0
  3 92  1  0  0  0
  3 93  1  0  0  0
  4  5  1  0  0  0
  4 94  1  0  0  0
  4 95  1  0  0  0
  5  6  1  0  0  0
  5 26  1  0  0  0
  5 96  1  0  0  0
  6 25  1  0  0  0
  6 97  1  0  0  0
  6 98  1  0  0  0
  7  8  2  0  0  0
  7 26  1  0  0  0
  7 29  1  0  0  0
  8  9  1  0  0  0
  8 22  1  0  0  0
  9 10  1  0  0  0
  9 27  2  0  0  0
 10 11  2  0  0  0
 10 15  1  0  0  0
 11 12  1  0  0  0
 11 99  1  0  0  0
 12 13  2  0  0  0
 12100  1  0  0  0
 13 14  1  0  0  0
 13 31  1  0  0  0
 14 15  2  0  0  0
 14101  1  0  0  0
 15102  1  0  0  0
 16 17  2  0  0  0
 16 21  1  0  0  0
 16 31  1  0  0  0
 17 18  1  0  0  0
 17103  1  0  0  0
 18 19  2  0  0  0
 18104  1  0  0  0
 19 20  1  0  0  0
 19 24  1  0  0  0
 20 21  2  0  0  0
 20105  1  0  0  0
 21 23  1  0  0  0
 22 28  1  0  0  0
 22 32  2  0  0  0
 26 27  1  0  0  0
 28106  1  0  0  0
 28107  1  0  0  0
 29108  1  0  0  0
 29109  1  0  0  0
 33 34  1  0  0  0
 33 66  1  0  0  0
 33 70  2  0  0  0
 34 36  1  0  0  0
 34 59  1  0  0  0
 34110  1  0  0  0
 35 44  2  0  0  0
 35 45  1  0  0  0
 35 68  1  0  0  0
 36 56  1  0  0  0
 36111  1  0  0  0
 37 39  1  0  0  0
 37 47  1  0  0  0
 37 66  1  0  0  0
 37112  1  0  0  0
 38 43  2  0  0  0
 38 46  1  0  0  0
 38 47  1  0  0  0
 39 64  1  0  0  0
 39 67  2  0  0  0
 40 52  1  0  0  0
 40 53  2  0  0  0
 40 58  1  0  0  0
 41113  1  0  0  0
 41114  1  0  0  0
 41115  1  0  0  0
 41 48  1  0  0  0
 42 43  1  0  0  0
 42 66  1  0  0  0
 42116  1  0  0  0
 42117  1  0  0  0
 43 44  1  0  0  0
 44118  1  0  0  0
 45 46  2  0  0  0
 45119  1  0  0  0
 46120  1  0  0  0
 47121  1  0  0  0
 47122  1  0  0  0
 48 56  1  0  0  0
 48 65  1  0  0  0
 48123  1  0  0  0
 49 50  1  0  0  0
 49 53  1  0  0  0
 49 64  1  0  0  0
 49124  1  0  0  0
 50 51  1  0  0  0
 50125  1  0  0  0
 50126  1  0  0  0
 51 52  1  0  0  0
 51127  1  0  0  0
 51128  1  0  0  0
 52129  1  0  0  0
 52130  1  0  0  0
 53 54  1  0  0  0
 54 55  2  0  0  0
 54131  1  0  0  0
 55 57  1  0  0  0
 55132  1  0  0  0
 56 69  2  0  0  0
 57 58  2  0  0  0
 57133  1  0  0  0
 58134  1  0  0  0
 59 60  1  0  0  0
 59 61  1  0  0  0
 59 62  1  0  0  0
 60135  1  0  0  0
 60136  1  0  0  0
 60137  1  0  0  0
 61138  1  0  0  0
 61139  1  0  0  0
 61140  1  0  0  0
 62141  1  0  0  0
 62142  1  0  0  0
 62143  1  0  0  0
 63 65  1  0  0  0
 63144  1  0  0  0
 63145  1  0  0  0
 63146  1  0  0  0
 64147  1  0  0  0
 65148  1  0  0  0
 68 87  1  0  0  0
 71 73  2  0  0  0
 71 74  1  0  0  0
 71149  1  0  0  0
 72 75  2  0  0  0
 72 76  1  0  0  0
 72150  1  0  0  0
 73 75  1  0  0  0
 73 87  1  0  0  0
 74 76  2  0  0  0
 74 86  1  0  0  0
 75 82  1  0  0  0
 76 89  1  0  0  0
 77 79  1  0  0  0
 77 81  1  0  0  0
 77151  1  0  0  0
 77152  1  0  0  0
 78 80  1  0  0  0
 78 81  1  0  0  0
 78153  1  0  0  0
 78154  1  0  0  0
 79 88  1  0  0  0
 79155  1  0  0  0
 79156  1  0  0  0
 80 88  1  0  0  0
 80157  1  0  0  0
 80158  1  0  0  0
 81 89  1  0  0  0
 81159  1  0  0  0
 82160  1  0  0  0
 82161  1  0  0  0
 82162  1  0  0  0
 83163  1  0  0  0
 83164  1  0  0  0
 83165  1  0  0  0
 83 86  1  0  0  0
 84 86  1  0  0  0
 84166  1  0  0  0
 84167  1  0  0  0
 84168  1  0  0  0
 85169  1  0  0  0
 85170  1  0  0  0
 85171  1  0  0  0
 85 87  1  0  0  0
 86172  1  0  0  0
 87173  1  0  0  0
M  ISO  4   1 100  68 101  87 101  88 100
M  END
> <chiral flag>
0

> <version>
0

> <s_m_source_file>
/data/baiqing/PycharmProjects/Reinvent-master-3.2/result/LINK_invent/BTK/process_docking_weight1_custom_sum_contain_oxygen_bond_distance_aromatic_linkinvent_7_9_3/rearranged_h_0160.sdf

> <i_m_source_file_index>
41

> <r_mmod_Potential_Energy-OPLS-2005>
339.599853515625

> <r_mmod_Stretch_Energy-OPLS-2005>
69.2657775878906

> <r_mmod_Bend_Energy-OPLS-2005>
149.446670532227

> <r_mmod_Torsional_Energy-OPLS-2005>
391.634124755859

> <r_mmod_Improper_Torsional_Energy-OPLS-2005>
13.5157346725464

> <r_mmod_Van_der_Waal_Energy-OPLS-2005>
137.982986450195

> <r_mmod_Electrostatic_Energy-OPLS-2005>
-308.91748046875

> <r_mmod_Solvation_Energy-OPLS-2005>
-180.720901489258

> <b_mmod_Minimization_Converged-OPLS-2005>
0

> <r_mmod_RMS_Derivative-OPLS-2005>
9.19775772094727

$$$$
41
                    3D
 Structure written by MMmdl.
176185  0  0  1  0            999 V2000
  -30.5611  -14.9664   20.4798 C   0  0  0  0  0  0
  -30.4356  -12.6128   19.5057 C   0  0  0  0  0  0
  -29.5221  -12.5500   18.2577 C   0  0  0  0  0  0
  -28.0540  -12.3262   18.6636 C   0  0  0  0  0  0
  -27.6275  -13.2476   19.8328 C   0  0  2  0  0  0
  -28.6623  -13.2566   20.9723 C   0  0  0  0  0  0
  -25.2461  -13.8217   20.5695 C   0  0  0  0  0  0
  -24.1775  -13.0437   20.9202 C   0  0  0  0  0  0
  -24.6388  -11.6923   20.8728 C   0  0  0  0  0  0
  -23.9078  -10.4292   21.0397 C   0  0  0  0  0  0
  -24.3630   -9.4211   21.9179 C   0  0  0  0  0  0
  -23.6304   -8.2247   22.0752 C   0  0  0  0  0  0
  -22.4286   -8.0281   21.3544 C   0  0  0  0  0  0
  -21.9926   -9.0249   20.4640 C   0  0  0  0  0  0
  -22.7252  -10.2129   20.3047 C   0  0  0  0  0  0
  -21.6852   -6.0738   22.5280 C   0  0  0  0  0  0
  -21.4014   -6.5638   23.8214 C   0  0  0  0  0  0
  -21.3660   -5.6790   24.9174 C   0  0  0  0  0  0
  -21.6044   -4.3054   24.7224 C   0  0  0  0  0  0
  -21.8822   -3.8148   23.4344 C   0  0  0  0  0  0
  -21.9195   -4.6966   22.3400 C   0  0  0  0  0  0
  -22.7800  -13.5205   21.1873 C   0  0  0  0  0  0
  -22.1663   -4.2151   21.0978 F   0  0  0  0  0  0
  -21.5630   -3.4539   25.7740 F   0  0  0  0  0  0
  -29.9420  -13.7085   20.3989 N   0  0  0  0  0  0
  -26.2865  -12.9438   20.3183 N   0  0  0  0  0  0
  -25.9316  -11.6570   20.5696 N   0  0  0  0  0  0
  -22.0459  -12.8180   22.0428 N   0  0  0  0  0  0
  -25.4168  -15.1949   20.4183 N   0  0  0  0  0  0
  -31.7301  -15.0187   20.0801 O   0  0  0  0  0  0
  -21.6641   -6.8885   21.4244 O   0  0  0  0  0  0
  -22.3477  -14.5514   20.6729 O   0  0  0  0  0  0
  -24.6472  -31.8424   23.1859 C   0  0  0  0  0  0
  -25.9232  -32.4684   23.8256 C   0  0  1  0  0  0
  -27.2152  -27.1074   20.1508 C   0  0  0  0  0  0
  -25.5969  -33.8486   24.2173 N   0  0  0  0  0  0
  -23.4516  -30.4621   21.5332 C   0  0  2  0  0  0
  -24.9007  -28.8857   20.1119 C   0  0  0  0  0  0
  -22.7592  -29.4543   22.4851 C   0  0  0  0  0  0
  -18.0311  -28.1398   22.8482 C   0  0  0  0  0  0
  -24.1482  -36.7230   23.2645 C   0  0  0  0  0  0
  -26.0112  -30.7052   21.3915 C   0  0  0  0  0  0
  -26.0812  -29.3143   20.7321 C   0  0  0  0  0  0
  -27.2401  -28.4434   20.7320 C   0  0  0  0  0  0
  -26.0064  -26.7920   19.4894 C   0  0  0  0  0  0
  -24.8789  -27.6388   19.4736 C   0  0  0  0  0  0
  -23.6795  -29.7915   20.1533 C   0  0  0  0  0  0
  -25.4120  -36.3017   24.0312 C   0  0  1  0  0  0
  -20.5933  -28.3726   23.1227 C   0  0  2  0  0  0
  -20.6800  -26.9428   22.5402 C   0  0  0  0  0  0
  -19.5765  -26.6385   21.5219 C   0  0  0  0  0  0
  -18.1942  -26.7940   22.1626 C   0  0  0  0  0  0
  -19.1572  -28.8880   23.2843 C   0  0  0  0  0  0
  -18.9492  -30.1481   23.8863 C   0  0  0  0  0  0
  -17.6487  -30.6594   24.0560 C   0  0  0  0  0  0
  -25.9080  -34.9395   23.5050 C   0  0  0  0  0  0
  -16.5377  -29.9087   23.6342 C   0  0  0  0  0  0
  -16.7299  -28.6509   23.0361 C   0  0  0  0  0  0
  -26.4540  -31.6565   25.0711 C   0  0  0  0  0  0
  -25.3703  -31.3735   26.1382 C   0  0  0  0  0  0
  -27.0443  -30.2968   24.6320 C   0  0  0  0  0  0
  -27.6044  -32.4365   25.7505 C   0  0  0  0  0  0
  -27.5564  -37.1772   24.8473 C   0  0  0  0  0  0
  -21.4282  -29.3046   22.3592 N   0  0  0  0  0  0
  -26.4274  -37.3742   23.9416 N   0  0  0  0  0  0
  -24.7232  -31.0256   22.0909 N   0  0  0  0  0  0
  -23.4225  -28.8089   23.3011 O   0  0  0  0  0  0
  -28.2596  -26.1009   20.1967 O   0  0  0  0  0  0
  -26.5672  -34.8903   22.4634 O   0  0  0  0  0  0
  -23.5584  -32.1325   23.7051 O   0  0  0  0  0  0
  -31.1950  -22.3673   19.6042 C   0  0  0  0  0  0
  -30.3062  -23.4563   19.7791 C   0  0  0  0  0  0
  -28.6079  -21.8052   20.3425 C   0  0  0  0  0  0
  -28.9558  -23.2544   20.1486 C   0  0  0  0  0  0
  -29.5234  -20.6289   20.1566 C   0  0  0  0  0  0
  -30.8350  -20.9984   19.7611 C   0  0  0  0  0  0
  -31.0304  -18.1138   21.8465 C   0  0  0  0  0  0
  -29.5209  -16.2676   22.2569 C   0  0  0  0  0  0
  -30.6675  -17.0617   22.8948 C   0  0  2  0  0  0
  -30.2462  -17.7163   20.5803 C   0  0  2  0  0  0
  -30.8433  -24.8562   19.5355 C   0  0  0  0  0  0
  -27.1838  -21.4982   20.7773 C   0  0  0  0  0  0
  -28.4309  -18.5949   18.9530 C   0  0  0  0  0  0
  -31.4819  -18.1730   24.9652 C   0  0  0  0  0  0
  -33.0562  -20.2830   19.1177 C   0  0  0  0  0  0
  -27.9249  -24.5640   20.2347 C   0  0  0  0  0  0
  -29.1587  -18.9917   20.2459 C   0  0  2  0  0  0
  -29.8656  -16.1796   20.8326 N   0  0  0  0  0  0
  -30.3338  -17.6030   24.2320 N   0  3  0  0  0  0
  -31.7253  -19.9759   19.5133 O   0  0  0  0  0  0
  -31.4693  -12.7669   19.1936 H   0  0  0  0  0  0
  -30.4337  -11.6572   20.0331 H   0  0  0  0  0  0
  -29.8496  -11.7565   17.5850 H   0  0  0  0  0  0
  -29.6091  -13.4824   17.6971 H   0  0  0  0  0  0
  -27.9474  -11.2824   18.9606 H   0  0  0  0  0  0
  -27.3947  -12.4694   17.8066 H   0  0  0  0  0  0
  -27.5965  -14.2566   19.4198 H   0  0  0  0  0  0
  -28.7587  -12.2663   21.4205 H   0  0  0  0  0  0
  -28.2999  -13.9051   21.7630 H   0  0  0  0  0  0
  -25.2775   -9.5688   22.4753 H   0  0  0  0  0  0
  -24.0010   -7.4644   22.7478 H   0  0  0  0  0  0
  -21.0857   -8.8765   19.8945 H   0  0  0  0  0  0
  -22.3708  -10.9665   19.6153 H   0  0  0  0  0  0
  -21.2005   -7.6144   23.9717 H   0  0  0  0  0  0
  -21.1476   -6.0518   25.9077 H   0  0  0  0  0  0
  -22.0600   -2.7611   23.2844 H   0  0  0  0  0  0
  -22.4088  -11.9839   22.4797 H   0  0  0  0  0  0
  -21.1073  -13.1189   22.2647 H   0  0  0  0  0  0
  -24.6537  -15.8518   20.5383 H   0  0  0  0  0  0
  -26.2740  -15.6355   20.1092 H   0  0  0  0  0  0
  -26.7294  -32.5289   23.0979 H   0  0  0  0  0  0
  -25.0104  -33.9591   25.0315 H   0  0  0  0  0  0
  -22.7547  -31.2879   21.3773 H   0  0  0  0  0  0
  -23.3763  -35.9540   23.3297 H   0  0  0  0  0  0
  -24.3554  -36.8885   22.2062 H   0  0  0  0  0  0
  -23.7226  -37.6411   23.6705 H   0  0  0  0  0  0
  -26.1747  -31.4585   20.6199 H   0  0  0  0  0  0
  -26.8783  -30.7532   22.0382 H   0  0  0  0  0  0
  -28.1398  -28.7675   21.2356 H   0  0  0  0  0  0
  -25.8891  -25.8510   18.9777 H   0  0  0  0  0  0
  -23.9814  -27.3080   18.9689 H   0  0  0  0  0  0
  -23.8195  -30.5661   19.3984 H   0  0  0  0  0  0
  -22.7927  -29.2375   19.8407 H   0  0  0  0  0  0
  -25.1310  -36.1823   25.0803 H   0  0  0  0  0  0
  -21.0022  -28.3326   24.1351 H   0  0  0  0  0  0
  -20.5720  -26.2336   23.3624 H   0  0  0  0  0  0
  -21.6657  -26.7436   22.1185 H   0  0  0  0  0  0
  -19.6921  -25.6293   21.1261 H   0  0  0  0  0  0
  -19.6696  -27.3183   20.6738 H   0  0  0  0  0  0
  -17.4218  -26.6703   21.4020 H   0  0  0  0  0  0
  -18.0318  -26.0081   22.9017 H   0  0  0  0  0  0
  -19.7967  -30.7311   24.2210 H   0  0  0  0  0  0
  -17.5041  -31.6268   24.5175 H   0  0  0  0  0  0
  -15.5380  -30.2977   23.7689 H   0  0  0  0  0  0
  -15.8701  -28.0823   22.7084 H   0  0  0  0  0  0
  -24.5911  -30.7060   25.7689 H   0  0  0  0  0  0
  -24.8849  -32.2899   26.4744 H   0  0  0  0  0  0
  -25.7968  -30.8954   27.0208 H   0  0  0  0  0  0
  -26.3087  -29.6660   24.1320 H   0  0  0  0  0  0
  -27.4062  -29.7296   25.4909 H   0  0  0  0  0  0
  -27.8978  -30.4227   23.9653 H   0  0  0  0  0  0
  -27.2625  -33.3714   26.1962 H   0  0  0  0  0  0
  -28.3905  -32.6865   25.0365 H   0  0  0  0  0  0
  -28.0653  -31.8579   26.5524 H   0  0  0  0  0  0
  -28.2569  -38.0081   24.7538 H   0  0  0  0  0  0
  -28.1078  -36.2613   24.6291 H   0  0  0  0  0  0
  -27.2275  -37.1400   25.8874 H   0  0  0  0  0  0
  -20.9509  -29.8755   21.6757 H   0  0  0  0  0  0
  -26.0131  -38.2796   24.1457 H   0  0  0  0  0  0
  -32.2016  -22.6191   19.3059 H   0  0  0  0  0  0
  -32.1047  -18.1021   21.6557 H   0  0  0  0  0  0
  -30.7805  -19.1234   22.1739 H   0  0  0  0  0  0
  -28.5621  -16.7780   22.3605 H   0  0  0  0  0  0
  -29.4377  -15.3120   22.7719 H   0  0  0  0  0  0
  -31.5163  -16.3837   23.0121 H   0  0  0  0  0  0
  -30.9481  -17.6821   19.7465 H   0  0  0  0  0  0
  -31.8987  -24.8481   19.2614 H   0  0  0  0  0  0
  -30.7454  -25.4636   20.4356 H   0  0  0  0  0  0
  -30.3000  -25.3410   18.7238 H   0  0  0  0  0  0
  -26.4952  -22.3097   20.5470 H   0  0  0  0  0  0
  -27.1529  -21.3262   21.8535 H   0  0  0  0  0  0
  -26.7914  -20.6099   20.2876 H   0  0  0  0  0  0
  -27.5914  -19.2522   18.7342 H   0  0  0  0  0  0
  -28.0427  -17.5785   19.0130 H   0  0  0  0  0  0
  -29.1086  -18.6417   18.1005 H   0  0  0  0  0  0
  -31.1608  -18.5515   25.9356 H   0  0  0  0  0  0
  -31.9337  -18.9999   24.4175 H   0  0  0  0  0  0
  -32.2495  -17.4186   25.1394 H   0  0  0  0  0  0
  -33.6071  -19.3550   18.9661 H   0  0  0  0  0  0
  -33.5807  -20.8530   19.8857 H   0  0  0  0  0  0
  -33.0778  -20.8315   18.1753 H   0  0  0  0  0  0
  -27.3362  -24.4220   21.1410 H   0  0  0  0  0  0
  -27.2434  -24.3617   19.4127 H   0  0  0  0  0  0
  -28.4209  -18.9430   21.0471 H   0  0  0  0  0  0
  -29.9601  -16.8586   24.7988 H   0  0  0  0  0  0
  -29.6175  -18.3066   24.1533 H   0  0  0  0  0  0
  1 25  1  0  0  0
  1 30  2  0  0  0
  1 88  1  0  0  0
  2  3  1  0  0  0
  2 25  1  0  0  0
  2 91  1  0  0  0
  2 92  1  0  0  0
  3  4  1  0  0  0
  3 93  1  0  0  0
  3 94  1  0  0  0
  4  5  1  0  0  0
  4 95  1  0  0  0
  4 96  1  0  0  0
  5  6  1  0  0  0
  5 26  1  0  0  0
  5 97  1  0  0  0
  6 25  1  0  0  0
  6 98  1  0  0  0
  6 99  1  0  0  0
  7  8  2  0  0  0
  7 26  1  0  0  0
  7 29  1  0  0  0
  8  9  1  0  0  0
  8 22  1  0  0  0
  9 10  1  0  0  0
  9 27  2  0  0  0
 10 11  2  0  0  0
 10 15  1  0  0  0
 11 12  1  0  0  0
 11100  1  0  0  0
 12 13  2  0  0  0
 12101  1  0  0  0
 13 14  1  0  0  0
 13 31  1  0  0  0
 14 15  2  0  0  0
 14102  1  0  0  0
 15103  1  0  0  0
 16 17  2  0  0  0
 16 21  1  0  0  0
 16 31  1  0  0  0
 17 18  1  0  0  0
 17104  1  0  0  0
 18 19  2  0  0  0
 18105  1  0  0  0
 19 20  1  0  0  0
 19 24  1  0  0  0
 20 21  2  0  0  0
 20106  1  0  0  0
 21 23  1  0  0  0
 22 28  1  0  0  0
 22 32  2  0  0  0
 26 27  1  0  0  0
 28107  1  0  0  0
 28108  1  0  0  0
 29109  1  0  0  0
 29110  1  0  0  0
 33 34  1  0  0  0
 33 66  1  0  0  0
 33 70  2  0  0  0
 34 36  1  0  0  0
 34 59  1  0  0  0
 34111  1  0  0  0
 35 44  2  0  0  0
 35 45  1  0  0  0
 35 68  1  0  0  0
 36 56  1  0  0  0
 36112  1  0  0  0
 37 39  1  0  0  0
 37 47  1  0  0  0
 37 66  1  0  0  0
 37113  1  0  0  0
 38 43  2  0  0  0
 38 46  1  0  0  0
 38 47  1  0  0  0
 39 64  1  0  0  0
 39 67  2  0  0  0
 40 52  1  0  0  0
 40 53  2  0  0  0
 40 58  1  0  0  0
 41114  1  0  0  0
 41115  1  0  0  0
 41116  1  0  0  0
 41 48  1  0  0  0
 42 43  1  0  0  0
 42 66  1  0  0  0
 42117  1  0  0  0
 42118  1  0  0  0
 43 44  1  0  0  0
 44119  1  0  0  0
 45 46  2  0  0  0
 45120  1  0  0  0
 46121  1  0  0  0
 47122  1  0  0  0
 47123  1  0  0  0
 48 56  1  0  0  0
 48 65  1  0  0  0
 48124  1  0  0  0
 49 50  1  0  0  0
 49 53  1  0  0  0
 49 64  1  0  0  0
 49125  1  0  0  0
 50 51  1  0  0  0
 50126  1  0  0  0
 50127  1  0  0  0
 51 52  1  0  0  0
 51128  1  0  0  0
 51129  1  0  0  0
 52130  1  0  0  0
 52131  1  0  0  0
 53 54  1  0  0  0
 54 55  2  0  0  0
 54132  1  0  0  0
 55 57  1  0  0  0
 55133  1  0  0  0
 56 69  2  0  0  0
 57 58  2  0  0  0
 57134  1  0  0  0
 58135  1  0  0  0
 59 60  1  0  0  0
 59 61  1  0  0  0
 59 62  1  0  0  0
 60136  1  0  0  0
 60137  1  0  0  0
 60138  1  0  0  0
 61139  1  0  0  0
 61140  1  0  0  0
 61141  1  0  0  0
 62142  1  0  0  0
 62143  1  0  0  0
 62144  1  0  0  0
 63 65  1  0  0  0
 63145  1  0  0  0
 63146  1  0  0  0
 63147  1  0  0  0
 64148  1  0  0  0
 65149  1  0  0  0
 68 86  1  0  0  0
 71 72  2  0  0  0
 71 76  1  0  0  0
 71150  1  0  0  0
 72 74  1  0  0  0
 72 81  1  0  0  0
 73 74  2  0  0  0
 73 75  1  0  0  0
 73 82  1  0  0  0
 74 86  1  0  0  0
 75 76  2  0  0  0
 75 87  1  0  0  0
 76 90  1  0  0  0
 77 79  1  0  0  0
 77151  1  0  0  0
 77152  1  0  0  0
 77 80  1  0  0  0
 78 79  1  0  0  0
 78 88  1  0  0  0
 78153  1  0  0  0
 78154  1  0  0  0
 79 89  1  0  0  0
 79155  1  0  0  0
 80 87  1  0  0  0
 80 88  1  0  0  0
 80156  1  0  0  0
 81157  1  0  0  0
 81158  1  0  0  0
 81159  1  0  0  0
 82160  1  0  0  0
 82161  1  0  0  0
 82162  1  0  0  0
 83163  1  0  0  0
 83164  1  0  0  0
 83165  1  0  0  0
 83 87  1  0  0  0
 84 89  1  0  0  0
 84166  1  0  0  0
 84167  1  0  0  0
 84168  1  0  0  0
 85 90  1  0  0  0
 85169  1  0  0  0
 85170  1  0  0  0
 85171  1  0  0  0
 86172  1  0  0  0
 86173  1  0  0  0
 87174  1  0  0  0
 89175  1  0  0  0
 89176  1  0  0  0
M  CHG  1  89   1
M  ISO  4   1 100  68 101  86 101  88 100
M  END
> <chiral flag>
0

> <version>
0

> <s_m_source_file>
/data/baiqing/PycharmProjects/Reinvent-master-3.2/result/LINK_invent/BTK/process_docking_weight1_custom_sum_contain_oxygen_bond_distance_aromatic_linkinvent_7_9_3/rearranged_h_0160.sdf

> <i_m_source_file_index>
42

> <r_mmod_Potential_Energy-OPLS-2005>
640.633728027344

> <r_mmod_Stretch_Energy-OPLS-2005>
316.336334228516

> <r_mmod_Bend_Energy-OPLS-2005>
315.962219238281

> <r_mmod_Torsional_Energy-OPLS-2005>
353.367553710938

> <r_mmod_Improper_Torsional_Energy-OPLS-2005>
9.07851982116699

> <r_mmod_Van_der_Waal_Energy-OPLS-2005>
139.747619628906

> <r_mmod_Electrostatic_Energy-OPLS-2005>
-247.548980712891

> <r_mmod_Solvation_Energy-OPLS-2005>
-451.533386230469

> <b_mmod_Minimization_Converged-OPLS-2005>
0

> <r_mmod_RMS_Derivative-OPLS-2005>
1.13379406929016

$$$$
42
                    3D
 Structure written by MMmdl.
174184  0  0  1  0            999 V2000
  -30.6818  -14.5877   20.4654 C   0  0  0  0  0  0
  -30.4178  -12.3535   19.4478 C   0  0  0  0  0  0
  -29.4919  -12.4676   18.2201 C   0  0  0  0  0  0
  -28.0174  -12.3266   18.6430 C   0  0  0  0  0  0
  -27.6452  -13.2169   19.8591 C   0  0  2  0  0  0
  -28.6957  -13.1135   20.9860 C   0  0  0  0  0  0
  -25.2526  -13.8177   20.5726 C   0  0  0  0  0  0
  -24.1795  -13.0434   20.9205 C   0  0  0  0  0  0
  -24.6371  -11.6912   20.8774 C   0  0  0  0  0  0
  -23.9051  -10.4290   21.0420 C   0  0  0  0  0  0
  -24.3596   -9.4205   21.9199 C   0  0  0  0  0  0
  -23.6269   -8.2240   22.0767 C   0  0  0  0  0  0
  -22.4263   -8.0277   21.3541 C   0  0  0  0  0  0
  -21.9901   -9.0249   20.4643 C   0  0  0  0  0  0
  -22.7230  -10.2132   20.3061 C   0  0  0  0  0  0
  -21.6850   -6.0728   22.5273 C   0  0  0  0  0  0
  -21.4011   -6.5629   23.8209 C   0  0  0  0  0  0
  -21.3659   -5.6789   24.9170 C   0  0  0  0  0  0
  -21.6042   -4.3050   24.7226 C   0  0  0  0  0  0
  -21.8824   -3.8141   23.4347 C   0  0  0  0  0  0
  -21.9193   -4.6952   22.3398 C   0  0  0  0  0  0
  -22.7819  -13.5226   21.1852 C   0  0  0  0  0  0
  -22.1659   -4.2138   21.0977 F   0  0  0  0  0  0
  -21.5632   -3.4540   25.7736 F   0  0  0  0  0  0
  -30.0077  -13.4023   20.3964 N   0  0  0  0  0  0
  -26.2954  -12.9361   20.3374 N   0  0  0  0  0  0
  -25.9308  -11.6516   20.5837 N   0  0  0  0  0  0
  -22.0464  -12.8207   22.0402 N   0  0  0  0  0  0
  -25.4231  -15.1897   20.4159 N   0  0  0  0  0  0
  -31.8829  -14.6624   20.1898 O   0  0  0  0  0  0
  -21.6629   -6.8871   21.4239 O   0  0  0  0  0  0
  -22.3508  -14.5538   20.6717 O   0  0  0  0  0  0
  -24.6215  -31.8659   23.2066 C   0  0  0  0  0  0
  -25.9081  -32.4806   23.8368 C   0  0  1  0  0  0
  -27.2049  -27.3601   20.1013 C   0  0  0  0  0  0
  -25.5912  -33.8599   24.2311 N   0  0  0  0  0  0
  -23.4107  -30.4930   21.5521 C   0  0  2  0  0  0
  -24.8515  -28.9623   20.1054 C   0  0  0  0  0  0
  -22.7455  -29.4655   22.4977 C   0  0  0  0  0  0
  -18.0275  -28.1392   22.8504 C   0  0  0  0  0  0
  -24.1472  -36.7285   23.2643 C   0  0  0  0  0  0
  -25.9491  -30.8086   21.3707 C   0  0  0  0  0  0
  -26.0215  -29.4414   20.7090 C   0  0  0  0  0  0
  -27.2056  -28.6508   20.7004 C   0  0  0  0  0  0
  -26.0208  -26.9396   19.4526 C   0  0  0  0  0  0
  -24.8503  -27.7144   19.4669 C   0  0  0  0  0  0
  -23.6182  -29.8364   20.1642 C   0  0  0  0  0  0
  -25.4101  -36.3092   24.0342 C   0  0  1  0  0  0
  -20.5871  -28.3688   23.1299 C   0  0  2  0  0  0
  -20.6759  -26.9413   22.5416 C   0  0  0  0  0  0
  -19.5729  -26.6370   21.5222 C   0  0  0  0  0  0
  -18.1911  -26.7927   22.1645 C   0  0  0  0  0  0
  -19.1533  -28.8858   23.2884 C   0  0  0  0  0  0
  -18.9467  -30.1458   23.8897 C   0  0  0  0  0  0
  -17.6473  -30.6599   24.0564 C   0  0  0  0  0  0
  -25.9051  -34.9466   23.5133 C   0  0  0  0  0  0
  -16.5355  -29.9101   23.6345 C   0  0  0  0  0  0
  -16.7265  -28.6511   23.0382 C   0  0  0  0  0  0
  -26.4477  -31.6578   25.0708 C   0  0  0  0  0  0
  -25.3719  -31.3677   26.1434 C   0  0  0  0  0  0
  -27.0317  -30.3019   24.6105 C   0  0  0  0  0  0
  -27.6052  -32.4296   25.7486 C   0  0  0  0  0  0
  -27.5578  -37.1791   24.8479 C   0  0  0  0  0  0
  -21.4179  -29.3029   22.3696 N   0  0  0  0  0  0
  -26.4285  -37.3789   23.9431 N   0  0  0  0  0  0
  -24.6796  -31.0707   22.1007 N   0  0  0  0  0  0
  -23.4198  -28.8203   23.3046 O   0  0  0  0  0  0
  -28.2952  -26.4904   20.1785 O   0  0  0  0  0  0
  -26.5634  -34.8934   22.4707 O   0  0  0  0  0  0
  -23.5399  -32.1439   23.7434 O   0  0  0  0  0  0
  -29.2235  -19.9627   19.7181 C   0  0  0  0  0  0
  -32.1973  -23.5067   20.4970 C   0  0  0  0  0  0
  -27.9390  -24.0885   19.2835 C   0  0  0  0  0  0
  -31.3857  -22.3135   19.9642 C   0  0  0  0  0  0
  -29.2542  -23.3178   19.0182 C   0  0  0  0  0  0
  -28.6812  -24.4478   21.6857 C   0  0  0  0  0  0
  -28.6645  -17.5592   19.3397 C   0  0  0  0  0  0
  -29.5312  -18.1350   21.5018 C   0  0  0  0  0  0
  -29.6502  -16.3739   19.2351 C   0  0  0  0  0  0
  -30.3715  -16.8019   21.4839 C   0  0  0  0  0  0
  -29.9665  -23.6249   21.4050 C   0  0  2  0  0  0
  -31.1906  -24.4974   21.0855 C   0  0  1  0  0  0
  -27.9594  -25.0848   20.4742 C   0  0  1  0  0  0
  -29.8855  -22.5753   20.2484 C   0  0  2  0  0  0
  -31.7426  -25.2894   22.2809 C   0  0  0  0  0  0
  -29.1957  -21.2020   20.6862 C   0  0  0  0  0  0
  -29.2054  -18.6577   20.1619 N   0  0  0  0  0  0
  -29.9369  -15.7396   20.5379 N   0  0  0  0  0  0
  -29.1591  -20.1937   18.5083 O   0  0  0  0  0  0
  -31.4606  -12.4501   19.1415 H   0  0  0  0  0  0
  -30.3294  -11.3706   19.9130 H   0  0  0  0  0  0
  -29.7409  -11.6987   17.4875 H   0  0  0  0  0  0
  -29.6452  -13.4252   17.7211 H   0  0  0  0  0  0
  -27.8529  -11.2773   18.8934 H   0  0  0  0  0  0
  -27.3579  -12.5418   17.8012 H   0  0  0  0  0  0
  -27.6480  -14.2432   19.4972 H   0  0  0  0  0  0
  -28.6940  -12.1193   21.4349 H   0  0  0  0  0  0
  -28.4673  -13.8164   21.7882 H   0  0  0  0  0  0
  -25.2738   -9.5683   22.4785 H   0  0  0  0  0  0
  -23.9968   -7.4643   22.7504 H   0  0  0  0  0  0
  -21.0840   -8.8773   19.8942 H   0  0  0  0  0  0
  -22.3692  -10.9672   19.6172 H   0  0  0  0  0  0
  -21.2000   -7.6141   23.9702 H   0  0  0  0  0  0
  -21.1476   -6.0520   25.9070 H   0  0  0  0  0  0
  -22.0604   -2.7602   23.2853 H   0  0  0  0  0  0
  -22.4082  -11.9844   22.4740 H   0  0  0  0  0  0
  -21.1102  -13.1267   22.2675 H   0  0  0  0  0  0
  -24.6600  -15.8468   20.5384 H   0  0  0  0  0  0
  -26.2879  -15.6318   20.1342 H   0  0  0  0  0  0
  -26.7154  -32.5491   23.1128 H   0  0  0  0  0  0
  -24.9994  -33.9723   25.0409 H   0  0  0  0  0  0
  -22.7007  -31.3111   21.4181 H   0  0  0  0  0  0
  -23.3749  -35.9600   23.3298 H   0  0  0  0  0  0
  -24.3557  -36.8915   22.2059 H   0  0  0  0  0  0
  -23.7206  -37.6476   23.6673 H   0  0  0  0  0  0
  -26.0746  -31.5739   20.6030 H   0  0  0  0  0  0
  -26.8329  -30.8559   21.9941 H   0  0  0  0  0  0
  -28.1002  -29.0039   21.1944 H   0  0  0  0  0  0
  -25.9710  -25.9844   18.9534 H   0  0  0  0  0  0
  -23.9558  -27.3452   18.9830 H   0  0  0  0  0  0
  -23.7292  -30.6162   19.4104 H   0  0  0  0  0  0
  -22.7378  -29.2635   19.8678 H   0  0  0  0  0  0
  -25.1275  -36.1958   25.0838 H   0  0  0  0  0  0
  -20.9957  -28.3263   24.1422 H   0  0  0  0  0  0
  -20.5667  -26.2303   23.3624 H   0  0  0  0  0  0
  -21.6633  -26.7442   22.1217 H   0  0  0  0  0  0
  -19.6887  -25.6273   21.1283 H   0  0  0  0  0  0
  -19.6664  -27.3156   20.6739 H   0  0  0  0  0  0
  -17.4181  -26.6677   21.4049 H   0  0  0  0  0  0
  -18.0294  -26.0064   22.9041 H   0  0  0  0  0  0
  -19.7944  -30.7260   24.2271 H   0  0  0  0  0  0
  -17.5043  -31.6291   24.5158 H   0  0  0  0  0  0
  -15.5366  -30.3025   23.7665 H   0  0  0  0  0  0
  -15.8654  -28.0829   22.7135 H   0  0  0  0  0  0
  -24.5917  -30.7016   25.7749 H   0  0  0  0  0  0
  -24.8867  -32.2815   26.4875 H   0  0  0  0  0  0
  -25.8039  -30.8849   27.0206 H   0  0  0  0  0  0
  -26.2871  -29.6773   24.1164 H   0  0  0  0  0  0
  -27.4089  -29.7271   25.4571 H   0  0  0  0  0  0
  -27.8705  -30.4328   23.9262 H   0  0  0  0  0  0
  -27.2682  -33.3604   26.2059 H   0  0  0  0  0  0
  -28.3856  -32.6836   25.0304 H   0  0  0  0  0  0
  -28.0714  -31.8413   26.5397 H   0  0  0  0  0  0
  -28.2602  -38.0084   24.7558 H   0  0  0  0  0  0
  -28.1067  -36.2625   24.6274 H   0  0  0  0  0  0
  -27.2300  -37.1412   25.8882 H   0  0  0  0  0  0
  -20.9373  -29.8710   21.6862 H   0  0  0  0  0  0
  -26.0171  -38.2869   24.1440 H   0  0  0  0  0  0
  -32.8047  -23.9681   19.7176 H   0  0  0  0  0  0
  -32.8835  -23.1571   21.2711 H   0  0  0  0  0  0
  -27.1680  -23.3436   19.4814 H   0  0  0  0  0  0
  -27.6272  -24.5961   18.3710 H   0  0  0  0  0  0
  -31.7257  -21.4159   20.4844 H   0  0  0  0  0  0
  -31.5769  -22.1402   18.9041 H   0  0  0  0  0  0
  -29.9677  -24.0404   18.6195 H   0  0  0  0  0  0
  -29.0925  -22.6291   18.1907 H   0  0  0  0  0  0
  -28.8569  -25.2033   22.4510 H   0  0  0  0  0  0
  -27.9779  -23.7501   22.1441 H   0  0  0  0  0  0
  -27.7225  -17.2249   19.7772 H   0  0  0  0  0  0
  -28.4069  -17.8864   18.3323 H   0  0  0  0  0  0
  -30.0884  -18.8669   22.0856 H   0  0  0  0  0  0
  -28.5941  -17.9741   22.0369 H   0  0  0  0  0  0
  -30.5797  -16.7105   18.7696 H   0  0  0  0  0  0
  -29.2272  -15.6354   18.5518 H   0  0  0  0  0  0
  -30.3803  -16.3827   22.4919 H   0  0  0  0  0  0
  -31.4093  -17.0585   21.2609 H   0  0  0  0  0  0
  -30.1992  -23.0833   22.3233 H   0  0  0  0  0  0
  -30.9206  -25.2146   20.3097 H   0  0  0  0  0  0
  -26.9319  -25.0913   20.8419 H   0  0  0  0  0  0
  -31.9992  -24.6348   23.1144 H   0  0  0  0  0  0
  -31.0183  -26.0204   22.6407 H   0  0  0  0  0  0
  -32.6409  -25.8428   22.0031 H   0  0  0  0  0  0
  -29.6347  -20.9057   21.6344 H   0  0  0  0  0  0
  -28.1467  -21.3931   20.9128 H   0  0  0  0  0  0
  1 25  1  0  0  0
  1 30  2  0  0  0
  1 88  1  0  0  0
  2  3  1  0  0  0
  2 25  1  0  0  0
  2 90  1  0  0  0
  2 91  1  0  0  0
  3  4  1  0  0  0
  3 92  1  0  0  0
  3 93  1  0  0  0
  4  5  1  0  0  0
  4 94  1  0  0  0
  4 95  1  0  0  0
  5  6  1  0  0  0
  5 26  1  0  0  0
  5 96  1  0  0  0
  6 25  1  0  0  0
  6 97  1  0  0  0
  6 98  1  0  0  0
  7  8  2  0  0  0
  7 26  1  0  0  0
  7 29  1  0  0  0
  8  9  1  0  0  0
  8 22  1  0  0  0
  9 10  1  0  0  0
  9 27  2  0  0  0
 10 11  2  0  0  0
 10 15  1  0  0  0
 11 12  1  0  0  0
 11 99  1  0  0  0
 12 13  2  0  0  0
 12100  1  0  0  0
 13 14  1  0  0  0
 13 31  1  0  0  0
 14 15  2  0  0  0
 14101  1  0  0  0
 15102  1  0  0  0
 16 17  2  0  0  0
 16 21  1  0  0  0
 16 31  1  0  0  0
 17 18  1  0  0  0
 17103  1  0  0  0
 18 19  2  0  0  0
 18104  1  0  0  0
 19 20  1  0  0  0
 19 24  1  0  0  0
 20 21  2  0  0  0
 20105  1  0  0  0
 21 23  1  0  0  0
 22 28  1  0  0  0
 22 32  2  0  0  0
 26 27  1  0  0  0
 28106  1  0  0  0
 28107  1  0  0  0
 29108  1  0  0  0
 29109  1  0  0  0
 33 34  1  0  0  0
 33 66  1  0  0  0
 33 70  2  0  0  0
 34 36  1  0  0  0
 34 59  1  0  0  0
 34110  1  0  0  0
 35 44  2  0  0  0
 35 45  1  0  0  0
 35 68  1  0  0  0
 36 56  1  0  0  0
 36111  1  0  0  0
 37 39  1  0  0  0
 37 47  1  0  0  0
 37 66  1  0  0  0
 37112  1  0  0  0
 38 43  2  0  0  0
 38 46  1  0  0  0
 38 47  1  0  0  0
 39 64  1  0  0  0
 39 67  2  0  0  0
 40 52  1  0  0  0
 40 53  2  0  0  0
 40 58  1  0  0  0
 41113  1  0  0  0
 41114  1  0  0  0
 41115  1  0  0  0
 41 48  1  0  0  0
 42 43  1  0  0  0
 42 66  1  0  0  0
 42116  1  0  0  0
 42117  1  0  0  0
 43 44  1  0  0  0
 44118  1  0  0  0
 45 46  2  0  0  0
 45119  1  0  0  0
 46120  1  0  0  0
 47121  1  0  0  0
 47122  1  0  0  0
 48 56  1  0  0  0
 48 65  1  0  0  0
 48123  1  0  0  0
 49 50  1  0  0  0
 49 53  1  0  0  0
 49 64  1  0  0  0
 49124  1  0  0  0
 50 51  1  0  0  0
 50125  1  0  0  0
 50126  1  0  0  0
 51 52  1  0  0  0
 51127  1  0  0  0
 51128  1  0  0  0
 52129  1  0  0  0
 52130  1  0  0  0
 53 54  1  0  0  0
 54 55  2  0  0  0
 54131  1  0  0  0
 55 57  1  0  0  0
 55132  1  0  0  0
 56 69  2  0  0  0
 57 58  2  0  0  0
 57133  1  0  0  0
 58134  1  0  0  0
 59 60  1  0  0  0
 59 61  1  0  0  0
 59 62  1  0  0  0
 60135  1  0  0  0
 60136  1  0  0  0
 60137  1  0  0  0
 61138  1  0  0  0
 61139  1  0  0  0
 61140  1  0  0  0
 62141  1  0  0  0
 62142  1  0  0  0
 62143  1  0  0  0
 63 65  1  0  0  0
 63144  1  0  0  0
 63145  1  0  0  0
 63146  1  0  0  0
 64147  1  0  0  0
 65148  1  0  0  0
 68 83  1  0  0  0
 71 86  1  0  0  0
 71 87  1  0  0  0
 71 89  2  0  0  0
 72 74  1  0  0  0
 72 82  1  0  0  0
 72149  1  0  0  0
 72150  1  0  0  0
 73 75  1  0  0  0
 73 83  1  0  0  0
 73151  1  0  0  0
 73152  1  0  0  0
 74 84  1  0  0  0
 74153  1  0  0  0
 74154  1  0  0  0
 75 84  1  0  0  0
 75155  1  0  0  0
 75156  1  0  0  0
 76 83  1  0  0  0
 76157  1  0  0  0
 76158  1  0  0  0
 76 81  1  0  0  0
 77 79  1  0  0  0
 77 87  1  0  0  0
 77159  1  0  0  0
 77160  1  0  0  0
 78 80  1  0  0  0
 78 87  1  0  0  0
 78161  1  0  0  0
 78162  1  0  0  0
 79 88  1  0  0  0
 79163  1  0  0  0
 79164  1  0  0  0
 80 88  1  0  0  0
 80165  1  0  0  0
 80166  1  0  0  0
 81 82  1  0  0  0
 81 84  1  0  0  0
 81167  1  0  0  0
 82 85  1  0  0  0
 82168  1  0  0  0
 83169  1  0  0  0
 84 86  1  0  0  0
 85170  1  0  0  0
 85171  1  0  0  0
 85172  1  0  0  0
 86173  1  0  0  0
 86174  1  0  0  0
M  ISO  4   1 100  68 101  83 101  88 100
M  END
> <chiral flag>
0

> <version>
0

> <s_m_source_file>
/data/baiqing/PycharmProjects/Reinvent-master-3.2/result/LINK_invent/BTK/process_docking_weight1_custom_sum_contain_oxygen_bond_distance_aromatic_linkinvent_7_9_3/rearranged_h_0160.sdf

> <i_m_source_file_index>
43

> <r_mmod_Potential_Energy-OPLS-2005>
433.098083496094

> <r_mmod_Stretch_Energy-OPLS-2005>
68.0873641967773

> <r_mmod_Bend_Energy-OPLS-2005>
183.080902099609

> <r_mmod_Torsional_Energy-OPLS-2005>
490.798614501953

> <r_mmod_Improper_Torsional_Energy-OPLS-2005>
13.3722591400146

> <r_mmod_Van_der_Waal_Energy-OPLS-2005>
142.629516601562

> <r_mmod_Electrostatic_Energy-OPLS-2005>
-300.443267822266

> <r_mmod_Solvation_Energy-OPLS-2005>
-208.692123413086

> <b_mmod_Minimization_Converged-OPLS-2005>
0

> <r_mmod_RMS_Derivative-OPLS-2005>
2.03414011001587

$$$$
43
                    3D
 Structure written by MMmdl.
167176  0  0  1  0            999 V2000
  -30.6350  -14.6008   20.6587 C   0  0  0  0  0  0
  -30.4471  -12.4224   19.4682 C   0  0  0  0  0  0
  -29.5165  -12.5571   18.2421 C   0  0  0  0  0  0
  -28.0360  -12.3708   18.6349 C   0  0  0  0  0  0
  -27.6493  -13.2197   19.8718 C   0  0  2  0  0  0
  -28.6789  -13.0461   21.0101 C   0  0  0  0  0  0
  -25.2490  -13.8193   20.5604 C   0  0  0  0  0  0
  -24.1761  -13.0412   20.9202 C   0  0  0  0  0  0
  -24.6346  -11.6911   20.8702 C   0  0  0  0  0  0
  -23.9011  -10.4296   21.0383 C   0  0  0  0  0  0
  -24.3597   -9.4228   21.9164 C   0  0  0  0  0  0
  -23.6304   -8.2244   22.0730 C   0  0  0  0  0  0
  -22.4277   -8.0270   21.3528 C   0  0  0  0  0  0
  -21.9891   -9.0224   20.4618 C   0  0  0  0  0  0
  -22.7187  -10.2118   20.3037 C   0  0  0  0  0  0
  -21.6848   -6.0722   22.5280 C   0  0  0  0  0  0
  -21.4019   -6.5640   23.8208 C   0  0  0  0  0  0
  -21.3671   -5.6795   24.9172 C   0  0  0  0  0  0
  -21.6039   -4.3058   24.7223 C   0  0  0  0  0  0
  -21.8821   -3.8144   23.4353 C   0  0  0  0  0  0
  -21.9195   -4.6954   22.3404 C   0  0  0  0  0  0
  -22.7802  -13.5233   21.1870 C   0  0  0  0  0  0
  -22.1666   -4.2155   21.0978 F   0  0  0  0  0  0
  -21.5632   -3.4538   25.7733 F   0  0  0  0  0  0
  -30.0073  -13.4018   20.4783 N   0  0  0  0  0  0
  -26.2919  -12.9355   20.3295 N   0  0  0  0  0  0
  -25.9269  -11.6499   20.5719 N   0  0  0  0  0  0
  -22.0463  -12.8202   22.0449 N   0  0  0  0  0  0
  -25.4128  -15.1894   20.3904 N   0  0  0  0  0  0
  -31.7698  -14.8157   20.2149 O   0  0  0  0  0  0
  -21.6637   -6.8864   21.4232 O   0  0  0  0  0  0
  -22.3472  -14.5541   20.6735 O   0  0  0  0  0  0
  -24.6282  -31.8580   23.1999 C   0  0  0  0  0  0
  -25.9141  -32.4763   23.8357 C   0  0  1  0  0  0
  -27.2125  -27.3427   20.0586 C   0  0  0  0  0  0
  -25.5952  -33.8568   24.2280 N   0  0  0  0  0  0
  -23.4229  -30.4796   21.5444 C   0  0  2  0  0  0
  -24.8584  -28.9516   20.0992 C   0  0  0  0  0  0
  -22.7548  -29.4553   22.4867 C   0  0  0  0  0  0
  -18.0408  -28.1320   22.8450 C   0  0  0  0  0  0
  -24.1511  -36.7322   23.2620 C   0  0  0  0  0  0
  -25.9645  -30.7768   21.3874 C   0  0  0  0  0  0
  -26.0238  -29.4061   20.7338 C   0  0  0  0  0  0
  -27.1963  -28.5969   20.7336 C   0  0  0  0  0  0
  -26.0672  -27.0049   19.3184 C   0  0  0  0  0  0
  -24.8794  -27.7467   19.3898 C   0  0  0  0  0  0
  -23.6342  -29.8303   20.1540 C   0  0  0  0  0  0
  -25.4123  -36.3082   24.0311 C   0  0  1  0  0  0
  -20.5960  -28.3641   23.1336 C   0  0  2  0  0  0
  -20.6917  -26.9364   22.5421 C   0  0  0  0  0  0
  -19.5927  -26.6367   21.5176 C   0  0  0  0  0  0
  -18.2103  -26.7860   22.1667 C   0  0  0  0  0  0
  -19.1618  -28.8821   23.2877 C   0  0  0  0  0  0
  -18.9532  -30.1442   23.8861 C   0  0  0  0  0  0
  -17.6538  -30.6534   24.0514 C   0  0  0  0  0  0
  -25.9044  -34.9430   23.5074 C   0  0  0  0  0  0
  -16.5434  -29.8980   23.6348 C   0  0  0  0  0  0
  -16.7388  -28.6409   23.0339 C   0  0  0  0  0  0
  -26.4491  -31.6591   25.0750 C   0  0  0  0  0  0
  -25.3737  -31.3761   26.1498 C   0  0  0  0  0  0
  -27.0344  -30.3013   24.6247 C   0  0  0  0  0  0
  -27.6056  -32.4303   25.7533 C   0  0  0  0  0  0
  -27.5589  -37.1818   24.8456 C   0  0  0  0  0  0
  -21.4261  -29.3000   22.3663 N   0  0  0  0  0  0
  -26.4313  -37.3751   23.9374 N   0  0  0  0  0  0
  -24.6878  -31.0627   22.0970 N   0  0  0  0  0  0
  -23.4256  -28.8133   23.3012 O   0  0  0  0  0  0
  -28.3052  -26.4783   20.1354 O   0  0  0  0  0  0
  -26.5607  -34.8908   22.4646 O   0  0  0  0  0  0
  -23.5440  -32.1371   23.7295 O   0  0  0  0  0  0
  -28.6670  -22.7808   20.5562 C   0  0  0  0  0  0
  -25.9172  -22.5278   21.1426 C   0  0  0  0  0  0
  -28.1802  -21.6120   21.2251 C   0  0  0  0  0  0
  -26.8407  -21.5865   21.6004 C   0  0  0  0  0  0
  -27.7726  -23.8552   20.1903 C   0  0  0  0  0  0
  -26.3729  -23.6184   20.3793 C   0  0  0  0  0  0
  -26.5431  -20.4865   22.5756 C   0  0  0  0  0  0
  -27.9611  -20.0641   22.9960 C   0  0  0  0  0  0
  -28.9168  -20.3622   21.7948 C   0  0  1  0  0  0
  -29.7003  -17.1288   23.2027 C   0  0  0  0  0  0
  -24.6709  -23.8097   18.7695 C   0  0  0  0  0  0
  -28.3224  -25.1495   19.4756 C   0  0  0  0  0  0
  -30.1249  -18.2064   20.7882 C   0  0  0  0  0  0
  -30.2405  -16.9479   21.7750 C   0  0  2  0  0  0
  -29.8951  -15.5697   21.2792 N   0  0  0  0  0  0
  -28.9618  -19.1872   20.8435 N   0  3  0  0  0  0
  -25.4001  -24.4107   19.8409 O   0  0  0  0  0  0
  -31.4833  -12.6025   19.1724 H   0  0  0  0  0  0
  -30.4230  -11.4168   19.8906 H   0  0  0  0  0  0
  -29.7976  -11.8407   17.4675 H   0  0  0  0  0  0
  -29.6442  -13.5509   17.8077 H   0  0  0  0  0  0
  -27.8633  -11.3115   18.8380 H   0  0  0  0  0  0
  -27.3925  -12.6312   17.7914 H   0  0  0  0  0  0
  -27.6776  -14.2607   19.5466 H   0  0  0  0  0  0
  -28.6877  -12.0170   21.3686 H   0  0  0  0  0  0
  -28.3879  -13.6410   21.8774 H   0  0  0  0  0  0
  -25.2727   -9.5718   22.4742 H   0  0  0  0  0  0
  -24.0005   -7.4642   22.7467 H   0  0  0  0  0  0
  -21.0812   -8.8711   19.8963 H   0  0  0  0  0  0
  -22.3610  -10.9631   19.6164 H   0  0  0  0  0  0
  -21.2009   -7.6153   23.9713 H   0  0  0  0  0  0
  -21.1495   -6.0528   25.9077 H   0  0  0  0  0  0
  -22.0588   -2.7612   23.2833 H   0  0  0  0  0  0
  -22.4042  -11.9840   22.4817 H   0  0  0  0  0  0
  -21.1103  -13.1225   22.2672 H   0  0  0  0  0  0
  -24.6134  -15.8150   20.4078 H   0  0  0  0  0  0
  -26.2336  -15.6109   19.9716 H   0  0  0  0  0  0
  -26.7218  -32.5395   23.1115 H   0  0  0  0  0  0
  -25.0186  -33.9729   25.0474 H   0  0  0  0  0  0
  -22.7081  -31.2896   21.4048 H   0  0  0  0  0  0
  -23.3724  -35.9700   23.3284 H   0  0  0  0  0  0
  -24.3607  -36.8942   22.2039 H   0  0  0  0  0  0
  -23.7318  -37.6549   23.6636 H   0  0  0  0  0  0
  -26.1147  -31.5174   20.5994 H   0  0  0  0  0  0
  -26.8448  -30.8141   22.0144 H   0  0  0  0  0  0
  -28.0903  -28.9154   21.2515 H   0  0  0  0  0  0
  -26.0750  -26.1670   18.6424 H   0  0  0  0  0  0
  -24.0106  -27.4362   18.8247 H   0  0  0  0  0  0
  -23.7582  -30.6066   19.3970 H   0  0  0  0  0  0
  -22.7578  -29.2568   19.8535 H   0  0  0  0  0  0
  -25.1289  -36.1914   25.0791 H   0  0  0  0  0  0
  -21.0032  -28.3125   24.1470 H   0  0  0  0  0  0
  -20.5835  -26.2139   23.3565 H   0  0  0  0  0  0
  -21.6884  -26.7470   22.1383 H   0  0  0  0  0  0
  -19.7042  -25.6363   21.1102 H   0  0  0  0  0  0
  -19.6847  -27.3242   20.6759 H   0  0  0  0  0  0
  -17.4332  -26.6493   21.4152 H   0  0  0  0  0  0
  -18.0626  -26.0050   22.9131 H   0  0  0  0  0  0
  -19.7952  -30.7300   24.2282 H   0  0  0  0  0  0
  -17.5129  -31.6268   24.4982 H   0  0  0  0  0  0
  -15.5449  -30.2838   23.7771 H   0  0  0  0  0  0
  -15.8894  -28.0623   22.6979 H   0  0  0  0  0  0
  -24.5911  -30.7077   25.7875 H   0  0  0  0  0  0
  -24.8934  -32.2947   26.4901 H   0  0  0  0  0  0
  -25.8103  -30.9003   27.0295 H   0  0  0  0  0  0
  -26.2939  -29.6755   24.1269 H   0  0  0  0  0  0
  -27.4017  -29.7293   25.4778 H   0  0  0  0  0  0
  -27.8810  -30.4291   23.9498 H   0  0  0  0  0  0
  -27.2682  -33.3591   26.2155 H   0  0  0  0  0  0
  -28.3887  -32.6895   25.0379 H   0  0  0  0  0  0
  -28.0721  -31.8403   26.5445 H   0  0  0  0  0  0
  -28.2591  -38.0137   24.7470 H   0  0  0  0  0  0
  -28.1124  -36.2656   24.6303 H   0  0  0  0  0  0
  -27.2326  -37.1474   25.8875 H   0  0  0  0  0  0
  -20.9382  -29.8676   21.6886 H   0  0  0  0  0  0
  -26.0201  -38.2820   24.1333 H   0  0  0  0  0  0
  -29.7206  -22.8591   20.3274 H   0  0  0  0  0  0
  -24.8604  -22.4275   21.3589 H   0  0  0  0  0  0
  -26.0144  -19.6750   22.0734 H   0  0  0  0  0  0
  -25.9235  -20.8101   23.4109 H   0  0  0  0  0  0
  -28.2590  -20.7334   23.8024 H   0  0  0  0  0  0
  -27.9875  -19.0810   23.4445 H   0  0  0  0  0  0
  -29.9166  -20.6260   22.1297 H   0  0  0  0  0  0
  -30.0190  -18.0752   23.6314 H   0  0  0  0  0  0
  -30.1033  -16.3579   23.8618 H   0  0  0  0  0  0
  -28.6135  -17.0557   23.2617 H   0  0  0  0  0  0
  -24.2526  -24.5907   18.1374 H   0  0  0  0  0  0
  -23.8261  -23.2195   19.1269 H   0  0  0  0  0  0
  -25.2909  -23.1744   18.1355 H   0  0  0  0  0  0
  -27.9335  -25.1914   18.4632 H   0  0  0  0  0  0
  -29.3820  -24.9579   19.3049 H   0  0  0  0  0  0
  -31.0405  -18.7988   20.8769 H   0  0  0  0  0  0
  -30.1610  -17.8128   19.7678 H   0  0  0  0  0  0
  -31.3150  -16.8588   21.9325 H   0  0  0  0  0  0
  -29.0181  -15.2148   21.6320 H   0  0  0  0  0  0
  -28.0821  -18.7007   20.8253 H   0  0  0  0  0  0
  -29.0299  -19.6518   19.9484 H   0  0  0  0  0  0
  1 25  1  0  0  0
  1 30  2  0  0  0
  1 85  1  0  0  0
  2  3  1  0  0  0
  2 25  1  0  0  0
  2 88  1  0  0  0
  2 89  1  0  0  0
  3  4  1  0  0  0
  3 90  1  0  0  0
  3 91  1  0  0  0
  4  5  1  0  0  0
  4 92  1  0  0  0
  4 93  1  0  0  0
  5  6  1  0  0  0
  5 26  1  0  0  0
  5 94  1  0  0  0
  6 25  1  0  0  0
  6 95  1  0  0  0
  6 96  1  0  0  0
  7  8  2  0  0  0
  7 26  1  0  0  0
  7 29  1  0  0  0
  8  9  1  0  0  0
  8 22  1  0  0  0
  9 10  1  0  0  0
  9 27  2  0  0  0
 10 11  2  0  0  0
 10 15  1  0  0  0
 11 12  1  0  0  0
 11 97  1  0  0  0
 12 13  2  0  0  0
 12 98  1  0  0  0
 13 14  1  0  0  0
 13 31  1  0  0  0
 14 15  2  0  0  0
 14 99  1  0  0  0
 15100  1  0  0  0
 16 17  2  0  0  0
 16 21  1  0  0  0
 16 31  1  0  0  0
 17 18  1  0  0  0
 17101  1  0  0  0
 18 19  2  0  0  0
 18102  1  0  0  0
 19 20  1  0  0  0
 19 24  1  0  0  0
 20 21  2  0  0  0
 20103  1  0  0  0
 21 23  1  0  0  0
 22 28  1  0  0  0
 22 32  2  0  0  0
 26 27  1  0  0  0
 28104  1  0  0  0
 28105  1  0  0  0
 29106  1  0  0  0
 29107  1  0  0  0
 33 34  1  0  0  0
 33 66  1  0  0  0
 33 70  2  0  0  0
 34 36  1  0  0  0
 34 59  1  0  0  0
 34108  1  0  0  0
 35 44  2  0  0  0
 35 45  1  0  0  0
 35 68  1  0  0  0
 36 56  1  0  0  0
 36109  1  0  0  0
 37 39  1  0  0  0
 37 47  1  0  0  0
 37 66  1  0  0  0
 37110  1  0  0  0
 38 43  2  0  0  0
 38 46  1  0  0  0
 38 47  1  0  0  0
 39 64  1  0  0  0
 39 67  2  0  0  0
 40 52  1  0  0  0
 40 53  2  0  0  0
 40 58  1  0  0  0
 41111  1  0  0  0
 41112  1  0  0  0
 41113  1  0  0  0
 41 48  1  0  0  0
 42 43  1  0  0  0
 42 66  1  0  0  0
 42114  1  0  0  0
 42115  1  0  0  0
 43 44  1  0  0  0
 44116  1  0  0  0
 45 46  2  0  0  0
 45117  1  0  0  0
 46118  1  0  0  0
 47119  1  0  0  0
 47120  1  0  0  0
 48 56  1  0  0  0
 48 65  1  0  0  0
 48121  1  0  0  0
 49 50  1  0  0  0
 49 53  1  0  0  0
 49 64  1  0  0  0
 49122  1  0  0  0
 50 51  1  0  0  0
 50123  1  0  0  0
 50124  1  0  0  0
 51 52  1  0  0  0
 51125  1  0  0  0
 51126  1  0  0  0
 52127  1  0  0  0
 52128  1  0  0  0
 53 54  1  0  0  0
 54 55  2  0  0  0
 54129  1  0  0  0
 55 57  1  0  0  0
 55130  1  0  0  0
 56 69  2  0  0  0
 57 58  2  0  0  0
 57131  1  0  0  0
 58132  1  0  0  0
 59 60  1  0  0  0
 59 61  1  0  0  0
 59 62  1  0  0  0
 60133  1  0  0  0
 60134  1  0  0  0
 60135  1  0  0  0
 61136  1  0  0  0
 61137  1  0  0  0
 61138  1  0  0  0
 62139  1  0  0  0
 62140  1  0  0  0
 62141  1  0  0  0
 63 65  1  0  0  0
 63142  1  0  0  0
 63143  1  0  0  0
 63144  1  0  0  0
 64145  1  0  0  0
 65146  1  0  0  0
 68 82  1  0  0  0
 71 73  2  0  0  0
 71 75  1  0  0  0
 71147  1  0  0  0
 72 74  2  0  0  0
 72 76  1  0  0  0
 72148  1  0  0  0
 73 74  1  0  0  0
 73 79  1  0  0  0
 74 77  1  0  0  0
 75 76  2  0  0  0
 75 82  1  0  0  0
 76 87  1  0  0  0
 77 78  1  0  0  0
 77149  1  0  0  0
 77150  1  0  0  0
 78 79  1  0  0  0
 78151  1  0  0  0
 78152  1  0  0  0
 79 86  1  0  0  0
 79153  1  0  0  0
 80154  1  0  0  0
 80155  1  0  0  0
 80156  1  0  0  0
 80 84  1  0  0  0
 81 87  1  0  0  0
 81157  1  0  0  0
 81158  1  0  0  0
 81159  1  0  0  0
 82160  1  0  0  0
 82161  1  0  0  0
 83 84  1  0  0  0
 83 86  1  0  0  0
 83162  1  0  0  0
 83163  1  0  0  0
 84 85  1  0  0  0
 84164  1  0  0  0
 85165  1  0  0  0
 86166  1  0  0  0
 86167  1  0  0  0
M  CHG  1  86   1
M  ISO  4   1 100  68 101  82 101  85 100
M  END
> <chiral flag>
0

> <version>
0

> <s_m_source_file>
/data/baiqing/PycharmProjects/Reinvent-master-3.2/result/LINK_invent/BTK/process_docking_weight1_custom_sum_contain_oxygen_bond_distance_aromatic_linkinvent_7_9_3/rearranged_h_0160.sdf

> <i_m_source_file_index>
44

> <r_mmod_Potential_Energy-OPLS-2005>
8.17023658752441

> <r_mmod_Stretch_Energy-OPLS-2005>
80.3048629760742

> <r_mmod_Bend_Energy-OPLS-2005>
239.477691650391

> <r_mmod_Torsional_Energy-OPLS-2005>
307.475158691406

> <r_mmod_Improper_Torsional_Energy-OPLS-2005>
4.87435483932495

> <r_mmod_Van_der_Waal_Energy-OPLS-2005>
147.717102050781

> <r_mmod_Electrostatic_Energy-OPLS-2005>
-338.265869140625

> <r_mmod_Solvation_Energy-OPLS-2005>
-485.280090332031

> <b_mmod_Minimization_Converged-OPLS-2005>
0

> <r_mmod_RMS_Derivative-OPLS-2005>
9.7795295715332

$$$$
44
                    3D
 Structure written by MMmdl.
166175  0  0  1  0            999 V2000
  -30.6880  -14.6405   20.4769 C   0  0  0  0  0  0
  -30.4152  -12.3942   19.4580 C   0  0  0  0  0  0
  -29.4953  -12.4932   18.2239 C   0  0  0  0  0  0
  -28.0206  -12.3385   18.6404 C   0  0  0  0  0  0
  -27.6412  -13.2286   19.8548 C   0  0  2  0  0  0
  -28.6909  -13.1489   20.9849 C   0  0  0  0  0  0
  -25.2515  -13.8201   20.5726 C   0  0  0  0  0  0
  -24.1798  -13.0444   20.9212 C   0  0  0  0  0  0
  -24.6389  -11.6924   20.8767 C   0  0  0  0  0  0
  -23.9065  -10.4299   21.0424 C   0  0  0  0  0  0
  -24.3619   -9.4208   21.9195 C   0  0  0  0  0  0
  -23.6293   -8.2244   22.0761 C   0  0  0  0  0  0
  -22.4274   -8.0289   21.3548 C   0  0  0  0  0  0
  -21.9922   -9.0262   20.4641 C   0  0  0  0  0  0
  -22.7248  -10.2144   20.3061 C   0  0  0  0  0  0
  -21.6853   -6.0743   22.5288 C   0  0  0  0  0  0
  -21.4014   -6.5648   23.8222 C   0  0  0  0  0  0
  -21.3653   -5.6804   24.9181 C   0  0  0  0  0  0
  -21.6048   -4.3067   24.7234 C   0  0  0  0  0  0
  -21.8818   -3.8153   23.4357 C   0  0  0  0  0  0
  -21.9192   -4.6968   22.3416 C   0  0  0  0  0  0
  -22.7816  -13.5226   21.1868 C   0  0  0  0  0  0
  -22.1657   -4.2152   21.0993 F   0  0  0  0  0  0
  -21.5629   -3.4550   25.7743 F   0  0  0  0  0  0
  -29.9990  -13.4572   20.3965 N   0  0  0  0  0  0
  -26.2942  -12.9397   20.3347 N   0  0  0  0  0  0
  -25.9322  -11.6542   20.5797 N   0  0  0  0  0  0
  -22.0467  -12.8198   22.0412 N   0  0  0  0  0  0
  -25.4237  -15.1919   20.4153 N   0  0  0  0  0  0
  -31.8830  -14.6835   20.1704 O   0  0  0  0  0  0
  -21.6635   -6.8884   21.4246 O   0  0  0  0  0  0
  -22.3495  -14.5531   20.6722 O   0  0  0  0  0  0
  -24.6267  -31.8607   23.2036 C   0  0  0  0  0  0
  -25.9120  -32.4786   23.8355 C   0  0  1  0  0  0
  -27.2135  -27.3228   20.1216 C   0  0  0  0  0  0
  -25.5940  -33.8589   24.2275 N   0  0  0  0  0  0
  -23.4199  -30.4857   21.5461 C   0  0  2  0  0  0
  -24.8672  -28.9448   20.1065 C   0  0  0  0  0  0
  -22.7481  -29.4635   22.4937 C   0  0  0  0  0  0
  -18.0292  -28.1391   22.8496 C   0  0  0  0  0  0
  -24.1485  -36.7289   23.2634 C   0  0  0  0  0  0
  -25.9616  -30.7926   21.3758 C   0  0  0  0  0  0
  -26.0370  -29.4217   20.7155 C   0  0  0  0  0  0
  -27.2181  -28.6205   20.7170 C   0  0  0  0  0  0
  -26.0344  -26.9087   19.4673 C   0  0  0  0  0  0
  -24.8674  -27.6933   19.4718 C   0  0  0  0  0  0
  -23.6344  -29.8235   20.1598 C   0  0  0  0  0  0
  -25.4110  -36.3081   24.0325 C   0  0  1  0  0  0
  -20.5891  -28.3700   23.1290 C   0  0  2  0  0  0
  -20.6776  -26.9422   22.5417 C   0  0  0  0  0  0
  -19.5748  -26.6388   21.5219 C   0  0  0  0  0  0
  -18.1927  -26.7939   22.1627 C   0  0  0  0  0  0
  -19.1545  -28.8861   23.2884 C   0  0  0  0  0  0
  -18.9460  -30.1463   23.8897 C   0  0  0  0  0  0
  -17.6459  -30.6597   24.0568 C   0  0  0  0  0  0
  -25.9057  -34.9457   23.5094 C   0  0  0  0  0  0
  -16.5350  -29.9096   23.6334 C   0  0  0  0  0  0
  -16.7281  -28.6511   23.0362 C   0  0  0  0  0  0
  -26.4495  -31.6601   25.0733 C   0  0  0  0  0  0
  -25.3730  -31.3731   26.1456 C   0  0  0  0  0  0
  -27.0357  -30.3032   24.6188 C   0  0  0  0  0  0
  -27.6037  -32.4354   25.7523 C   0  0  0  0  0  0
  -27.5583  -37.1788   24.8452 C   0  0  0  0  0  0
  -21.4193  -29.3050   22.3679 N   0  0  0  0  0  0
  -26.4275  -37.3788   23.9428 N   0  0  0  0  0  0
  -24.6881  -31.0623   22.0987 N   0  0  0  0  0  0
  -23.4207  -28.8168   23.3011 O   0  0  0  0  0  0
  -28.2718  -26.4088   20.1877 O   0  0  0  0  0  0
  -26.5620  -34.8927   22.4658 O   0  0  0  0  0  0
  -23.5431  -32.1410   23.7365 O   0  0  0  0  0  0
  -30.0199  -23.5892   20.3799 C   0  0  0  0  0  0
  -30.2281  -22.1581   20.3714 C   0  0  0  0  0  0
  -28.6937  -23.8650   20.6356 C   0  0  0  0  0  0
  -29.0076  -21.5658   20.5895 C   0  0  0  0  0  0
  -28.7978  -17.8813   19.6216 C   0  0  0  0  0  0
  -29.8423  -18.1816   21.7944 C   0  0  0  0  0  0
  -29.6092  -16.5528   19.4283 C   0  0  0  0  0  0
  -30.6178  -16.8287   21.5883 C   0  0  0  0  0  0
  -29.5148  -18.9498   20.4868 C   0  0  0  0  0  0
  -31.1064  -24.6210   20.1963 C   0  0  0  0  0  0
  -31.5664  -21.4829   20.1899 C   0  0  0  0  0  0
  -26.6493  -22.4010   21.0175 C   0  0  0  0  0  0
  -27.9292  -25.1902   20.9551 C   0  0  0  0  0  0
  -28.0685  -22.6001   20.7449 N   0  0  0  0  0  0
  -30.0007  -15.8278   20.6687 N   0  0  0  0  0  0
  -28.6722  -20.1702   20.7022 N   0  0  0  0  0  0
  -31.4584  -12.4846   19.1516 H   0  0  0  0  0  0
  -30.3273  -11.4144   19.9313 H   0  0  0  0  0  0
  -29.7571  -11.7266   17.4924 H   0  0  0  0  0  0
  -29.6398  -13.4552   17.7291 H   0  0  0  0  0  0
  -27.8579  -11.2891   18.8873 H   0  0  0  0  0  0
  -27.3650  -12.5552   17.7964 H   0  0  0  0  0  0
  -27.6352  -14.2531   19.4874 H   0  0  0  0  0  0
  -28.7022  -12.1567   21.4380 H   0  0  0  0  0  0
  -28.4477  -13.8512   21.7838 H   0  0  0  0  0  0
  -25.2768   -9.5689   22.4765 H   0  0  0  0  0  0
  -24.0001   -7.4645   22.7487 H   0  0  0  0  0  0
  -21.0859   -8.8789   19.8936 H   0  0  0  0  0  0
  -22.3719  -10.9685   19.6175 H   0  0  0  0  0  0
  -21.2007   -7.6155   23.9722 H   0  0  0  0  0  0
  -21.1471   -6.0535   25.9086 H   0  0  0  0  0  0
  -22.0597   -2.7615   23.2861 H   0  0  0  0  0  0
  -22.4081  -11.9843   22.4774 H   0  0  0  0  0  0
  -21.1086  -13.1204   22.2637 H   0  0  0  0  0  0
  -24.6658  -15.8541   20.5420 H   0  0  0  0  0  0
  -26.2934  -15.6294   20.1385 H   0  0  0  0  0  0
  -26.7195  -32.5467   23.1109 H   0  0  0  0  0  0
  -25.0097  -33.9731   25.0425 H   0  0  0  0  0  0
  -22.7124  -31.3056   21.4054 H   0  0  0  0  0  0
  -23.3770  -35.9594   23.3250 H   0  0  0  0  0  0
  -24.3574  -36.8968   22.2059 H   0  0  0  0  0  0
  -23.7207  -37.6458   23.6698 H   0  0  0  0  0  0
  -26.0942  -31.5567   20.6083 H   0  0  0  0  0  0
  -26.8422  -30.8393   22.0046 H   0  0  0  0  0  0
  -28.1116  -28.9711   21.2148 H   0  0  0  0  0  0
  -26.0033  -25.9446   18.9785 H   0  0  0  0  0  0
  -23.9730  -27.3249   18.9881 H   0  0  0  0  0  0
  -23.7525  -30.6021   19.4054 H   0  0  0  0  0  0
  -22.7545  -29.2525   19.8574 H   0  0  0  0  0  0
  -25.1276  -36.1912   25.0814 H   0  0  0  0  0  0
  -20.9984  -28.3286   24.1408 H   0  0  0  0  0  0
  -20.5690  -26.2307   23.3617 H   0  0  0  0  0  0
  -21.6644  -26.7460   22.1211 H   0  0  0  0  0  0
  -19.6908  -25.6302   21.1243 H   0  0  0  0  0  0
  -19.6679  -27.3196   20.6743 H   0  0  0  0  0  0
  -17.4206  -26.6723   21.4016 H   0  0  0  0  0  0
  -18.0294  -26.0072   22.9004 H   0  0  0  0  0  0
  -19.7938  -30.7277   24.2262 H   0  0  0  0  0  0
  -17.5022  -31.6273   24.5181 H   0  0  0  0  0  0
  -15.5350  -30.2997   23.7656 H   0  0  0  0  0  0
  -15.8686  -28.0822   22.7077 H   0  0  0  0  0  0
  -24.5918  -30.7056   25.7789 H   0  0  0  0  0  0
  -24.8898  -32.2897   26.4855 H   0  0  0  0  0  0
  -25.8059  -30.8939   27.0247 H   0  0  0  0  0  0
  -26.2939  -29.6781   24.1199 H   0  0  0  0  0  0
  -27.4050  -29.7278   25.4685 H   0  0  0  0  0  0
  -27.8806  -30.4324   23.9419 H   0  0  0  0  0  0
  -27.2611  -33.3650   26.2082 H   0  0  0  0  0  0
  -28.3859  -32.6935   25.0373 H   0  0  0  0  0  0
  -28.0696  -31.8508   26.5462 H   0  0  0  0  0  0
  -28.2548  -38.0140   24.7589 H   0  0  0  0  0  0
  -28.1132  -36.2677   24.6161 H   0  0  0  0  0  0
  -27.2317  -37.1297   25.8854 H   0  0  0  0  0  0
  -20.9366  -29.8775   21.6891 H   0  0  0  0  0  0
  -26.0148  -38.2845   24.1493 H   0  0  0  0  0  0
  -27.8293  -17.6382   20.0618 H   0  0  0  0  0  0
  -28.5821  -18.3046   18.6391 H   0  0  0  0  0  0
  -30.4260  -18.8267   22.4529 H   0  0  0  0  0  0
  -28.9170  -17.9683   22.3320 H   0  0  0  0  0  0
  -30.5163  -16.7839   18.8648 H   0  0  0  0  0  0
  -29.0354  -15.8845   18.7858 H   0  0  0  0  0  0
  -30.7648  -16.3588   22.5625 H   0  0  0  0  0  0
  -31.6190  -17.0699   21.2247 H   0  0  0  0  0  0
  -30.4375  -19.2135   19.9770 H   0  0  0  0  0  0
  -31.7214  -24.3744   19.3302 H   0  0  0  0  0  0
  -31.7499  -24.6572   21.0763 H   0  0  0  0  0  0
  -30.6933  -25.6160   20.0349 H   0  0  0  0  0  0
  -32.3853  -22.1958   20.2773 H   0  0  0  0  0  0
  -31.6274  -21.0156   19.2073 H   0  0  0  0  0  0
  -31.7184  -20.7244   20.9576 H   0  0  0  0  0  0
  -26.0592  -22.7986   20.1918 H   0  0  0  0  0  0
  -26.3696  -22.9120   21.9387 H   0  0  0  0  0  0
  -26.4051  -21.3460   21.1324 H   0  0  0  0  0  0
  -28.1151  -25.4345   22.0017 H   0  0  0  0  0  0
  -26.8592  -24.9972   20.9133 H   0  0  0  0  0  0
  -27.7029  -19.9569   20.9132 H   0  0  0  0  0  0
  1 25  1  0  0  0
  1 30  2  0  0  0
  1 85  1  0  0  0
  2  3  1  0  0  0
  2 25  1  0  0  0
  2 87  1  0  0  0
  2 88  1  0  0  0
  3  4  1  0  0  0
  3 89  1  0  0  0
  3 90  1  0  0  0
  4  5  1  0  0  0
  4 91  1  0  0  0
  4 92  1  0  0  0
  5  6  1  0  0  0
  5 26  1  0  0  0
  5 93  1  0  0  0
  6 25  1  0  0  0
  6 94  1  0  0  0
  6 95  1  0  0  0
  7  8  2  0  0  0
  7 26  1  0  0  0
  7 29  1  0  0  0
  8  9  1  0  0  0
  8 22  1  0  0  0
  9 10  1  0  0  0
  9 27  2  0  0  0
 10 11  2  0  0  0
 10 15  1  0  0  0
 11 12  1  0  0  0
 11 96  1  0  0  0
 12 13  2  0  0  0
 12 97  1  0  0  0
 13 14  1  0  0  0
 13 31  1  0  0  0
 14 15  2  0  0  0
 14 98  1  0  0  0
 15 99  1  0  0  0
 16 17  2  0  0  0
 16 21  1  0  0  0
 16 31  1  0  0  0
 17 18  1  0  0  0
 17100  1  0  0  0
 18 19  2  0  0  0
 18101  1  0  0  0
 19 20  1  0  0  0
 19 24  1  0  0  0
 20 21  2  0  0  0
 20102  1  0  0  0
 21 23  1  0  0  0
 22 28  1  0  0  0
 22 32  2  0  0  0
 26 27  1  0  0  0
 28103  1  0  0  0
 28104  1  0  0  0
 29105  1  0  0  0
 29106  1  0  0  0
 33 34  1  0  0  0
 33 66  1  0  0  0
 33 70  2  0  0  0
 34 36  1  0  0  0
 34 59  1  0  0  0
 34107  1  0  0  0
 35 44  2  0  0  0
 35 45  1  0  0  0
 35 68  1  0  0  0
 36 56  1  0  0  0
 36108  1  0  0  0
 37 39  1  0  0  0
 37 47  1  0  0  0
 37 66  1  0  0  0
 37109  1  0  0  0
 38 43  2  0  0  0
 38 46  1  0  0  0
 38 47  1  0  0  0
 39 64  1  0  0  0
 39 67  2  0  0  0
 40 52  1  0  0  0
 40 53  2  0  0  0
 40 58  1  0  0  0
 41110  1  0  0  0
 41111  1  0  0  0
 41112  1  0  0  0
 41 48  1  0  0  0
 42 43  1  0  0  0
 42 66  1  0  0  0
 42113  1  0  0  0
 42114  1  0  0  0
 43 44  1  0  0  0
 44115  1  0  0  0
 45 46  2  0  0  0
 45116  1  0  0  0
 46117  1  0  0  0
 47118  1  0  0  0
 47119  1  0  0  0
 48 56  1  0  0  0
 48 65  1  0  0  0
 48120  1  0  0  0
 49 50  1  0  0  0
 49 53  1  0  0  0
 49 64  1  0  0  0
 49121  1  0  0  0
 50 51  1  0  0  0
 50122  1  0  0  0
 50123  1  0  0  0
 51 52  1  0  0  0
 51124  1  0  0  0
 51125  1  0  0  0
 52126  1  0  0  0
 52127  1  0  0  0
 53 54  1  0  0  0
 54 55  2  0  0  0
 54128  1  0  0  0
 55 57  1  0  0  0
 55129  1  0  0  0
 56 69  2  0  0  0
 57 58  2  0  0  0
 57130  1  0  0  0
 58131  1  0  0  0
 59 60  1  0  0  0
 59 61  1  0  0  0
 59 62  1  0  0  0
 60132  1  0  0  0
 60133  1  0  0  0
 60134  1  0  0  0
 61135  1  0  0  0
 61136  1  0  0  0
 61137  1  0  0  0
 62138  1  0  0  0
 62139  1  0  0  0
 62140  1  0  0  0
 63 65  1  0  0  0
 63141  1  0  0  0
 63142  1  0  0  0
 63143  1  0  0  0
 64144  1  0  0  0
 65145  1  0  0  0
 68 83  1  0  0  0
 71 72  1  0  0  0
 71 73  2  0  0  0
 71 80  1  0  0  0
 72 74  2  0  0  0
 72 81  1  0  0  0
 73 83  1  0  0  0
 73 84  1  0  0  0
 74 84  1  0  0  0
 74 86  1  0  0  0
 75 77  1  0  0  0
 75 79  1  0  0  0
 75146  1  0  0  0
 75147  1  0  0  0
 76 78  1  0  0  0
 76 79  1  0  0  0
 76148  1  0  0  0
 76149  1  0  0  0
 77 85  1  0  0  0
 77150  1  0  0  0
 77151  1  0  0  0
 78 85  1  0  0  0
 78152  1  0  0  0
 78153  1  0  0  0
 79 86  1  0  0  0
 79154  1  0  0  0
 80155  1  0  0  0
 80156  1  0  0  0
 80157  1  0  0  0
 81158  1  0  0  0
 81159  1  0  0  0
 81160  1  0  0  0
 82 84  1  0  0  0
 82161  1  0  0  0
 82162  1  0  0  0
 82163  1  0  0  0
 83164  1  0  0  0
 83165  1  0  0  0
 86166  1  0  0  0
M  ISO  4   1 100  68 101  83 101  85 100
M  END
> <chiral flag>
0

> <version>
0

> <s_m_source_file>
/data/baiqing/PycharmProjects/Reinvent-master-3.2/result/LINK_invent/BTK/process_docking_weight1_custom_sum_contain_oxygen_bond_distance_aromatic_linkinvent_7_9_3/rearranged_h_0160.sdf

> <i_m_source_file_index>
45

> <r_mmod_Potential_Energy-OPLS-2005>
230.13166809082

> <r_mmod_Stretch_Energy-OPLS-2005>
78.8926544189453

> <r_mmod_Bend_Energy-OPLS-2005>
178.40380859375

> <r_mmod_Torsional_Energy-OPLS-2005>
350.721923828125

> <r_mmod_Improper_Torsional_Energy-OPLS-2005>
10.9345026016235

> <r_mmod_Van_der_Waal_Energy-OPLS-2005>
127.932907104492

> <r_mmod_Electrostatic_Energy-OPLS-2005>
-370.853485107422

> <r_mmod_Solvation_Energy-OPLS-2005>
-204.864395141602

> <b_mmod_Minimization_Converged-OPLS-2005>
0

> <r_mmod_RMS_Derivative-OPLS-2005>
1.32288420200348

$$$$
45
                    3D
 Structure written by MMmdl.
168177  0  0  1  0            999 V2000
  -30.6858  -14.5311   20.6154 C   0  0  0  0  0  0
  -30.4024  -12.3583   19.4274 C   0  0  0  0  0  0
  -29.4722  -12.5184   18.2047 C   0  0  0  0  0  0
  -28.0021  -12.3558   18.6255 C   0  0  0  0  0  0
  -27.6444  -13.2160   19.8615 C   0  0  2  0  0  0
  -28.6857  -13.0230   20.9925 C   0  0  0  0  0  0
  -25.2516  -13.8244   20.5728 C   0  0  0  0  0  0
  -24.1818  -13.0491   20.9243 C   0  0  0  0  0  0
  -24.6351  -11.6929   20.8786 C   0  0  0  0  0  0
  -23.9039  -10.4311   21.0418 C   0  0  0  0  0  0
  -24.3602   -9.4231   21.9192 C   0  0  0  0  0  0
  -23.6290   -8.2262   22.0762 C   0  0  0  0  0  0
  -22.4271   -8.0292   21.3534 C   0  0  0  0  0  0
  -21.9898   -9.0275   20.4629 C   0  0  0  0  0  0
  -22.7221  -10.2158   20.3048 C   0  0  0  0  0  0
  -21.6870   -6.0723   22.5281 C   0  0  0  0  0  0
  -21.4014   -6.5629   23.8214 C   0  0  0  0  0  0
  -21.3657   -5.6781   24.9175 C   0  0  0  0  0  0
  -21.6029   -4.3048   24.7229 C   0  0  0  0  0  0
  -21.8820   -3.8130   23.4354 C   0  0  0  0  0  0
  -21.9185   -4.6940   22.3396 C   0  0  0  0  0  0
  -22.7838  -13.5276   21.1823 C   0  0  0  0  0  0
  -22.1664   -4.2116   21.0978 F   0  0  0  0  0  0
  -21.5605   -3.4538   25.7748 F   0  0  0  0  0  0
  -30.0078  -13.3540   20.4483 N   0  0  0  0  0  0
  -26.2899  -12.9388   20.3288 N   0  0  0  0  0  0
  -25.9248  -11.6542   20.5766 N   0  0  0  0  0  0
  -22.0480  -12.8277   22.0362 N   0  0  0  0  0  0
  -25.4220  -15.1990   20.4088 N   0  0  0  0  0  0
  -31.7532  -14.7266   20.0195 O   0  0  0  0  0  0
  -21.6646   -6.8875   21.4252 O   0  0  0  0  0  0
  -22.3571  -14.5582   20.6632 O   0  0  0  0  0  0
  -24.6258  -31.8646   23.2064 C   0  0  0  0  0  0
  -25.9105  -32.4800   23.8401 C   0  0  1  0  0  0
  -27.2106  -27.3492   20.1290 C   0  0  0  0  0  0
  -25.5902  -33.8612   24.2292 N   0  0  0  0  0  0
  -23.4197  -30.4881   21.5487 C   0  0  2  0  0  0
  -24.8593  -28.9515   20.1045 C   0  0  0  0  0  0
  -22.7468  -29.4642   22.4958 C   0  0  0  0  0  0
  -18.0293  -28.1398   22.8491 C   0  0  0  0  0  0
  -24.1467  -36.7299   23.2642 C   0  0  0  0  0  0
  -25.9503  -30.8100   21.3655 C   0  0  0  0  0  0
  -26.0233  -29.4400   20.7117 C   0  0  0  0  0  0
  -27.2007  -28.6490   20.7100 C   0  0  0  0  0  0
  -26.0269  -26.9045   19.4928 C   0  0  0  0  0  0
  -24.8624  -27.6922   19.4854 C   0  0  0  0  0  0
  -23.6310  -29.8327   20.1567 C   0  0  0  0  0  0
  -25.4105  -36.3108   24.0323 C   0  0  1  0  0  0
  -20.5881  -28.3713   23.1283 C   0  0  2  0  0  0
  -20.6797  -26.9419   22.5360 C   0  0  0  0  0  0
  -19.5715  -26.6378   21.5258 C   0  0  0  0  0  0
  -18.1905  -26.7930   22.1658 C   0  0  0  0  0  0
  -19.1543  -28.8892   23.2897 C   0  0  0  0  0  0
  -18.9443  -30.1488   23.8925 C   0  0  0  0  0  0
  -17.6410  -30.6566   24.0542 C   0  0  0  0  0  0
  -25.9043  -34.9464   23.5124 C   0  0  0  0  0  0
  -16.5329  -29.9032   23.6325 C   0  0  0  0  0  0
  -16.7270  -28.6481   23.0312 C   0  0  0  0  0  0
  -26.4521  -31.6605   25.0742 C   0  0  0  0  0  0
  -25.3744  -31.3716   26.1437 C   0  0  0  0  0  0
  -27.0343  -30.3032   24.6150 C   0  0  0  0  0  0
  -27.6105  -32.4352   25.7502 C   0  0  0  0  0  0
  -27.5575  -37.1803   24.8475 C   0  0  0  0  0  0
  -21.4182  -29.3058   22.3690 N   0  0  0  0  0  0
  -26.4291  -37.3787   23.9410 N   0  0  0  0  0  0
  -24.6856  -31.0716   22.0994 N   0  0  0  0  0  0
  -23.4206  -28.8184   23.3054 O   0  0  0  0  0  0
  -28.3441  -26.5467   20.2375 O   0  0  0  0  0  0
  -26.5609  -34.8945   22.4686 O   0  0  0  0  0  0
  -23.5417  -32.1423   23.7386 O   0  0  0  0  0  0
  -26.9780  -23.4567   20.6487 C   0  0  0  0  0  0
  -29.2471  -22.9110   20.1586 C   0  0  0  0  0  0
  -28.2352  -23.8998   20.1875 C   0  0  0  0  0  0
  -26.7581  -22.0725   20.9088 C   0  0  0  0  0  0
  -27.8070  -21.1310   20.6593 C   0  0  0  0  0  0
  -28.6068  -17.0132   22.8747 C   0  0  0  0  0  0
  -28.2652  -18.4904   22.5302 C   0  0  0  0  0  0
  -29.1289  -17.5428   20.5497 C   0  0  0  0  0  0
  -29.0921  -16.3369   21.5426 C   0  0  1  0  0  0
  -25.3555  -21.6501   21.3441 C   0  0  0  0  0  0
  -27.6292  -19.4317   18.7838 C   0  0  0  0  0  0
  -31.2910  -15.7814   22.5850 C   0  0  0  0  0  0
  -28.4840  -25.2898   19.5055 C   0  0  0  0  0  0
  -27.5134  -19.6310   20.3031 C   0  0  1  0  0  0
  -29.0493  -21.5802   20.3762 N   0  0  0  0  0  0
  -30.2779  -15.4045   21.5930 N   0  0  0  0  0  0
  -28.0643  -18.4489   21.0763 N   0  3  2  0  0  0
  -31.4450  -12.4416   19.1232 H   0  0  0  0  0  0
  -30.3115  -11.3543   19.8404 H   0  0  0  0  0  0
  -29.7243  -11.7907   17.4310 H   0  0  0  0  0  0
  -29.6086  -13.5011   17.7534 H   0  0  0  0  0  0
  -27.8373  -11.3033   18.8561 H   0  0  0  0  0  0
  -27.3383  -12.5978   17.7932 H   0  0  0  0  0  0
  -27.6729  -14.2547   19.5342 H   0  0  0  0  0  0
  -28.6820  -11.9817   21.3190 H   0  0  0  0  0  0
  -28.4402  -13.6085   21.8784 H   0  0  0  0  0  0
  -25.2770   -9.5708   22.4742 H   0  0  0  0  0  0
  -24.0001   -7.4648   22.7475 H   0  0  0  0  0  0
  -21.0837   -8.8789   19.8932 H   0  0  0  0  0  0
  -22.3699  -10.9682   19.6128 H   0  0  0  0  0  0
  -21.2032   -7.6130   23.9734 H   0  0  0  0  0  0
  -21.1481   -6.0491   25.9079 H   0  0  0  0  0  0
  -22.0608   -2.7598   23.2861 H   0  0  0  0  0  0
  -22.4200  -11.9969   22.4712 H   0  0  0  0  0  0
  -21.1075  -13.1247   22.2549 H   0  0  0  0  0  0
  -24.5868  -15.7796   20.4100 H   0  0  0  0  0  0
  -26.1349  -15.5440   19.7830 H   0  0  0  0  0  0
  -26.7198  -32.5511   23.1182 H   0  0  0  0  0  0
  -25.0072  -33.9757   25.0457 H   0  0  0  0  0  0
  -22.7086  -31.3047   21.4109 H   0  0  0  0  0  0
  -23.3739  -35.9621   23.3333 H   0  0  0  0  0  0
  -24.3566  -36.8887   22.2053 H   0  0  0  0  0  0
  -23.7184  -37.6495   23.6659 H   0  0  0  0  0  0
  -26.0754  -31.5778   20.6029 H   0  0  0  0  0  0
  -26.8374  -30.8600   21.9897 H   0  0  0  0  0  0
  -28.1041  -29.0215   21.1760 H   0  0  0  0  0  0
  -25.9672  -25.9365   19.0212 H   0  0  0  0  0  0
  -23.9718  -27.3163   19.0055 H   0  0  0  0  0  0
  -23.7570  -30.6155   19.4046 H   0  0  0  0  0  0
  -22.7508  -29.2616   19.8565 H   0  0  0  0  0  0
  -25.1285  -36.2000   25.0813 H   0  0  0  0  0  0
  -20.9996  -28.3203   24.1379 H   0  0  0  0  0  0
  -20.5773  -26.2298   23.3529 H   0  0  0  0  0  0
  -21.6609  -26.7475   22.0975 H   0  0  0  0  0  0
  -19.6942  -25.6314   21.1241 H   0  0  0  0  0  0
  -19.6523  -27.3230   20.6810 H   0  0  0  0  0  0
  -17.4206  -26.6786   21.4040 H   0  0  0  0  0  0
  -18.0198  -26.0051   22.9032 H   0  0  0  0  0  0
  -19.7898  -30.7341   24.2316 H   0  0  0  0  0  0
  -17.4917  -31.6237   24.5102 H   0  0  0  0  0  0
  -15.5334  -30.2923   23.7590 H   0  0  0  0  0  0
  -15.8680  -28.0791   22.7013 H   0  0  0  0  0  0
  -24.5939  -30.7071   25.7718 H   0  0  0  0  0  0
  -24.8921  -32.2862   26.4907 H   0  0  0  0  0  0
  -25.8038  -30.8839   27.0197 H   0  0  0  0  0  0
  -26.2872  -29.6785   24.1223 H   0  0  0  0  0  0
  -27.4097  -29.7305   25.4658 H   0  0  0  0  0  0
  -27.8757  -30.4339   23.9325 H   0  0  0  0  0  0
  -27.2736  -33.3669   26.2082 H   0  0  0  0  0  0
  -28.3903  -32.6877   25.0300 H   0  0  0  0  0  0
  -28.0795  -31.8472   26.5396 H   0  0  0  0  0  0
  -28.2617  -38.0082   24.7519 H   0  0  0  0  0  0
  -28.1037  -36.2607   24.6332 H   0  0  0  0  0  0
  -27.2287  -37.1499   25.8877 H   0  0  0  0  0  0
  -20.9331  -29.8786   21.6951 H   0  0  0  0  0  0
  -26.0185  -38.2870   24.1436 H   0  0  0  0  0  0
  -26.1500  -24.1495   20.7185 H   0  0  0  0  0  0
  -30.2447  -23.1805   19.8576 H   0  0  0  0  0  0
  -27.7045  -16.4986   23.2134 H   0  0  0  0  0  0
  -29.2977  -16.9640   23.7135 H   0  0  0  0  0  0
  -29.1013  -19.1506   22.7706 H   0  0  0  0  0  0
  -27.3787  -18.8439   23.0624 H   0  0  0  0  0  0
  -28.9395  -17.2013   19.5313 H   0  0  0  0  0  0
  -30.0897  -18.0594   20.5596 H   0  0  0  0  0  0
  -28.2514  -15.7322   21.2163 H   0  0  0  0  0  0
  -24.7350  -21.3714   20.4901 H   0  0  0  0  0  0
  -24.8419  -22.4750   21.8428 H   0  0  0  0  0  0
  -25.3838  -20.8248   22.0569 H   0  0  0  0  0  0
  -28.6743  -19.3800   18.4766 H   0  0  0  0  0  0
  -27.1664  -20.2534   18.2382 H   0  0  0  0  0  0
  -27.1266  -18.5150   18.4785 H   0  0  0  0  0  0
  -31.3028  -16.8545   22.7565 H   0  0  0  0  0  0
  -31.0801  -15.2689   23.5257 H   0  0  0  0  0  0
  -32.3125  -15.5049   22.3072 H   0  0  0  0  0  0
  -27.9509  -25.3223   18.5548 H   0  0  0  0  0  0
  -29.5298  -25.2773   19.2005 H   0  0  0  0  0  0
  -26.4489  -19.5091   20.4976 H   0  0  0  0  0  0
  -27.2506  -17.8559   21.0319 H   0  0  0  0  0  0
  1 25  1  0  0  0
  1 30  2  0  0  0
  1 86  1  0  0  0
  2  3  1  0  0  0
  2 25  1  0  0  0
  2 88  1  0  0  0
  2 89  1  0  0  0
  3  4  1  0  0  0
  3 90  1  0  0  0
  3 91  1  0  0  0
  4  5  1  0  0  0
  4 92  1  0  0  0
  4 93  1  0  0  0
  5  6  1  0  0  0
  5 26  1  0  0  0
  5 94  1  0  0  0
  6 25  1  0  0  0
  6 95  1  0  0  0
  6 96  1  0  0  0
  7  8  2  0  0  0
  7 26  1  0  0  0
  7 29  1  0  0  0
  8  9  1  0  0  0
  8 22  1  0  0  0
  9 10  1  0  0  0
  9 27  2  0  0  0
 10 11  2  0  0  0
 10 15  1  0  0  0
 11 12  1  0  0  0
 11 97  1  0  0  0
 12 13  2  0  0  0
 12 98  1  0  0  0
 13 14  1  0  0  0
 13 31  1  0  0  0
 14 15  2  0  0  0
 14 99  1  0  0  0
 15100  1  0  0  0
 16 17  2  0  0  0
 16 21  1  0  0  0
 16 31  1  0  0  0
 17 18  1  0  0  0
 17101  1  0  0  0
 18 19  2  0  0  0
 18102  1  0  0  0
 19 20  1  0  0  0
 19 24  1  0  0  0
 20 21  2  0  0  0
 20103  1  0  0  0
 21 23  1  0  0  0
 22 28  1  0  0  0
 22 32  2  0  0  0
 26 27  1  0  0  0
 28104  1  0  0  0
 28105  1  0  0  0
 29106  1  0  0  0
 29107  1  0  0  0
 33 34  1  0  0  0
 33 66  1  0  0  0
 33 70  2  0  0  0
 34 36  1  0  0  0
 34 59  1  0  0  0
 34108  1  0  0  0
 35 44  2  0  0  0
 35 45  1  0  0  0
 35 68  1  0  0  0
 36 56  1  0  0  0
 36109  1  0  0  0
 37 39  1  0  0  0
 37 47  1  0  0  0
 37 66  1  0  0  0
 37110  1  0  0  0
 38 43  2  0  0  0
 38 46  1  0  0  0
 38 47  1  0  0  0
 39 64  1  0  0  0
 39 67  2  0  0  0
 40 52  1  0  0  0
 40 53  2  0  0  0
 40 58  1  0  0  0
 41111  1  0  0  0
 41112  1  0  0  0
 41113  1  0  0  0
 41 48  1  0  0  0
 42 43  1  0  0  0
 42 66  1  0  0  0
 42114  1  0  0  0
 42115  1  0  0  0
 43 44  1  0  0  0
 44116  1  0  0  0
 45 46  2  0  0  0
 45117  1  0  0  0
 46118  1  0  0  0
 47119  1  0  0  0
 47120  1  0  0  0
 48 56  1  0  0  0
 48 65  1  0  0  0
 48121  1  0  0  0
 49 50  1  0  0  0
 49 53  1  0  0  0
 49 64  1  0  0  0
 49122  1  0  0  0
 50 51  1  0  0  0
 50123  1  0  0  0
 50124  1  0  0  0
 51 52  1  0  0  0
 51125  1  0  0  0
 51126  1  0  0  0
 52127  1  0  0  0
 52128  1  0  0  0
 53 54  1  0  0  0
 54 55  2  0  0  0
 54129  1  0  0  0
 55 57  1  0  0  0
 55130  1  0  0  0
 56 69  2  0  0  0
 57 58  2  0  0  0
 57131  1  0  0  0
 58132  1  0  0  0
 59 60  1  0  0  0
 59 61  1  0  0  0
 59 62  1  0  0  0
 60133  1  0  0  0
 60134  1  0  0  0
 60135  1  0  0  0
 61136  1  0  0  0
 61137  1  0  0  0
 61138  1  0  0  0
 62139  1  0  0  0
 62140  1  0  0  0
 62141  1  0  0  0
 63 65  1  0  0  0
 63142  1  0  0  0
 63143  1  0  0  0
 63144  1  0  0  0
 64145  1  0  0  0
 65146  1  0  0  0
 68 83  1  0  0  0
 71 73  2  0  0  0
 71 74  1  0  0  0
 71147  1  0  0  0
 72 73  1  0  0  0
 72 85  2  0  0  0
 72148  1  0  0  0
 73 83  1  0  0  0
 74 75  2  0  0  0
 74 80  1  0  0  0
 75 84  1  0  0  0
 75 85  1  0  0  0
 76 77  1  0  0  0
 76 79  1  0  0  0
 76149  1  0  0  0
 76150  1  0  0  0
 77151  1  0  0  0
 77152  1  0  0  0
 77 87  1  0  0  0
 78 79  1  0  0  0
 78 87  1  0  0  0
 78153  1  0  0  0
 78154  1  0  0  0
 79 86  1  0  0  0
 79155  1  0  0  0
 80156  1  0  0  0
 80157  1  0  0  0
 80158  1  0  0  0
 81159  1  0  0  0
 81160  1  0  0  0
 81161  1  0  0  0
 81 84  1  0  0  0
 82 86  1  0  0  0
 82162  1  0  0  0
 82163  1  0  0  0
 82164  1  0  0  0
 83165  1  0  0  0
 83166  1  0  0  0
 84 87  1  0  0  0
 84167  1  0  0  0
 87168  1  0  0  0
M  CHG  1  87   1
M  ISO  4   1 100  68 101  83 101  86 100
M  END
> <chiral flag>
0

> <version>
0

> <s_m_source_file>
/data/baiqing/PycharmProjects/Reinvent-master-3.2/result/LINK_invent/BTK/process_docking_weight1_custom_sum_contain_oxygen_bond_distance_aromatic_linkinvent_7_9_3/rearranged_h_0160.sdf

> <i_m_source_file_index>
46

> <r_mmod_Potential_Energy-OPLS-2005>
52.8362007141113

> <r_mmod_Stretch_Energy-OPLS-2005>
69.1408996582031

> <r_mmod_Bend_Energy-OPLS-2005>
226.627197265625

> <r_mmod_Torsional_Energy-OPLS-2005>
381.178466796875

> <r_mmod_Improper_Torsional_Energy-OPLS-2005>
12.6196250915527

> <r_mmod_Van_der_Waal_Energy-OPLS-2005>
144.180374145508

> <r_mmod_Electrostatic_Energy-OPLS-2005>
-377.215393066406

> <r_mmod_Solvation_Energy-OPLS-2005>
-433.816986083984

> <b_mmod_Minimization_Converged-OPLS-2005>
0

> <r_mmod_RMS_Derivative-OPLS-2005>
7.6984338760376

$$$$
46
                    3D
 Structure written by MMmdl.
160168  0  0  1  0            999 V2000
  -30.6801  -14.6299   20.5089 C   0  0  0  0  0  0
  -30.4197  -12.3935   19.4592 C   0  0  0  0  0  0
  -29.4979  -12.5025   18.2266 C   0  0  0  0  0  0
  -28.0234  -12.3440   18.6420 C   0  0  0  0  0  0
  -27.6465  -13.2283   19.8604 C   0  0  2  0  0  0
  -28.6922  -13.1222   20.9925 C   0  0  0  0  0  0
  -25.2518  -13.8191   20.5717 C   0  0  0  0  0  0
  -24.1797  -13.0439   20.9201 C   0  0  0  0  0  0
  -24.6382  -11.6913   20.8739 C   0  0  0  0  0  0
  -23.9059  -10.4291   21.0400 C   0  0  0  0  0  0
  -24.3613   -9.4209   21.9176 C   0  0  0  0  0  0
  -23.6293   -8.2240   22.0743 C   0  0  0  0  0  0
  -22.4274   -8.0273   21.3536 C   0  0  0  0  0  0
  -21.9914   -9.0240   20.4633 C   0  0  0  0  0  0
  -22.7233  -10.2125   20.3047 C   0  0  0  0  0  0
  -21.6848   -6.0734   22.5271 C   0  0  0  0  0  0
  -21.4012   -6.5638   23.8204 C   0  0  0  0  0  0
  -21.3665   -5.6792   24.9167 C   0  0  0  0  0  0
  -21.6049   -4.3053   24.7216 C   0  0  0  0  0  0
  -21.8819   -3.8144   23.4335 C   0  0  0  0  0  0
  -21.9193   -4.6964   22.3394 C   0  0  0  0  0  0
  -22.7822  -13.5213   21.1871 C   0  0  0  0  0  0
  -22.1664   -4.2155   21.0969 F   0  0  0  0  0  0
  -21.5632   -3.4536   25.7726 F   0  0  0  0  0  0
  -30.0058  -13.4404   20.4162 N   0  0  0  0  0  0
  -26.2957  -12.9403   20.3342 N   0  0  0  0  0  0
  -25.9319  -11.6541   20.5775 N   0  0  0  0  0  0
  -22.0495  -12.8185   22.0436 N   0  0  0  0  0  0
  -25.4219  -15.1912   20.4134 N   0  0  0  0  0  0
  -31.8518  -14.7245   20.1411 O   0  0  0  0  0  0
  -21.6639   -6.8874   21.4232 O   0  0  0  0  0  0
  -22.3503  -14.5523   20.6731 O   0  0  0  0  0  0
  -24.6285  -31.8614   23.2083 C   0  0  0  0  0  0
  -25.9131  -32.4785   23.8397 C   0  0  1  0  0  0
  -27.2114  -27.3056   20.0990 C   0  0  0  0  0  0
  -25.5950  -33.8588   24.2306 N   0  0  0  0  0  0
  -23.4224  -30.4929   21.5513 C   0  0  2  0  0  0
  -24.8660  -28.9624   20.1078 C   0  0  0  0  0  0
  -22.7485  -29.4640   22.4927 C   0  0  0  0  0  0
  -18.0291  -28.1385   22.8486 C   0  0  0  0  0  0
  -24.1481  -36.7282   23.2645 C   0  0  0  0  0  0
  -25.9714  -30.7817   21.3921 C   0  0  0  0  0  0
  -26.0405  -29.4151   20.7230 C   0  0  0  0  0  0
  -27.2152  -28.5975   20.7168 C   0  0  0  0  0  0
  -26.0096  -26.9349   19.4394 C   0  0  0  0  0  0
  -24.8546  -27.7267   19.4581 C   0  0  0  0  0  0
  -23.6376  -29.8449   20.1621 C   0  0  0  0  0  0
  -25.4108  -36.3086   24.0341 C   0  0  1  0  0  0
  -20.5896  -28.3697   23.1259 C   0  0  2  0  0  0
  -20.6786  -26.9418   22.5396 C   0  0  0  0  0  0
  -19.5753  -26.6376   21.5210 C   0  0  0  0  0  0
  -18.1926  -26.7927   22.1618 C   0  0  0  0  0  0
  -19.1547  -28.8857   23.2865 C   0  0  0  0  0  0
  -18.9474  -30.1460   23.8883 C   0  0  0  0  0  0
  -17.6475  -30.6588   24.0564 C   0  0  0  0  0  0
  -25.9054  -34.9455   23.5116 C   0  0  0  0  0  0
  -16.5364  -29.9088   23.6340 C   0  0  0  0  0  0
  -16.7280  -28.6505   23.0361 C   0  0  0  0  0  0
  -26.4507  -31.6608   25.0776 C   0  0  0  0  0  0
  -25.3723  -31.3745   26.1488 C   0  0  0  0  0  0
  -27.0394  -30.3029   24.6284 C   0  0  0  0  0  0
  -27.6045  -32.4385   25.7538 C   0  0  0  0  0  0
  -27.5578  -37.1790   24.8467 C   0  0  0  0  0  0
  -21.4199  -29.3055   22.3656 N   0  0  0  0  0  0
  -26.4282  -37.3780   23.9423 N   0  0  0  0  0  0
  -24.6922  -31.0617   22.1051 N   0  0  0  0  0  0
  -23.4203  -28.8151   23.2985 O   0  0  0  0  0  0
  -28.2929  -26.3939   20.1635 O   0  0  0  0  0  0
  -26.5606  -34.8918   22.4677 O   0  0  0  0  0  0
  -23.5441  -32.1444   23.7380 O   0  0  0  0  0  0
  -28.8717  -22.7224   19.0691 C   0  0  0  0  0  0
  -28.7931  -23.6961   20.1003 C   0  0  0  0  0  0
  -29.3570  -21.3985   19.2664 C   0  0  0  0  0  0
  -29.2671  -23.2801   21.3771 C   0  0  0  0  0  0
  -29.7742  -21.9458   21.5823 C   0  0  0  0  0  0
  -29.7845  -20.9567   20.5479 C   0  0  0  0  0  0
  -29.4451  -20.4914   18.0536 C   0  0  0  0  0  0
  -29.2147  -24.2587   22.5438 C   0  0  0  0  0  0
  -30.3164  -21.5631   22.9551 C   0  0  0  0  0  0
  -27.9444  -24.9920   19.8100 C   0  0  0  0  0  0
  -30.5440  -17.1549   20.9645 C   0  0  0  0  0  0
  -29.6497  -18.4129   20.5719 C   0  0  0  0  0  0
  -29.9808  -15.7581   20.8442 N   0  0  0  0  0  0
  -30.3482  -19.6857   20.7944 O   0  0  0  0  0  0
  -31.4637  -12.4919   19.1582 H   0  0  0  0  0  0
  -30.3330  -11.4084   19.9199 H   0  0  0  0  0  0
  -29.7617  -11.7428   17.4898 H   0  0  0  0  0  0
  -29.6420  -13.4678   17.7380 H   0  0  0  0  0  0
  -27.8631  -11.2932   18.8861 H   0  0  0  0  0  0
  -27.3666  -12.5625   17.7996 H   0  0  0  0  0  0
  -27.6557  -14.2587   19.5044 H   0  0  0  0  0  0
  -28.7005  -12.1178   21.4177 H   0  0  0  0  0  0
  -28.4434  -13.7962   21.8139 H   0  0  0  0  0  0
  -25.2752   -9.5689   22.4752 H   0  0  0  0  0  0
  -24.0006   -7.4634   22.7460 H   0  0  0  0  0  0
  -21.0852   -8.8747   19.8934 H   0  0  0  0  0  0
  -22.3683  -10.9660   19.6161 H   0  0  0  0  0  0
  -21.2000   -7.6144   23.9709 H   0  0  0  0  0  0
  -21.1494   -6.0518   25.9071 H   0  0  0  0  0  0
  -22.0595   -2.7611   23.2824 H   0  0  0  0  0  0
  -22.4141  -11.9838   22.4787 H   0  0  0  0  0  0
  -21.1115  -13.1182   22.2677 H   0  0  0  0  0  0
  -24.6530  -15.8449   20.5124 H   0  0  0  0  0  0
  -26.2721  -15.6300   20.0830 H   0  0  0  0  0  0
  -26.7195  -32.5437   23.1135 H   0  0  0  0  0  0
  -25.0136  -33.9748   25.0482 H   0  0  0  0  0  0
  -22.7175  -31.3154   21.4144 H   0  0  0  0  0  0
  -23.3761  -35.9594   23.3302 H   0  0  0  0  0  0
  -24.3569  -36.8906   22.2058 H   0  0  0  0  0  0
  -23.7214  -37.6475   23.6673 H   0  0  0  0  0  0
  -26.1234  -31.5489   20.6324 H   0  0  0  0  0  0
  -26.8434  -30.8134   22.0332 H   0  0  0  0  0  0
  -28.1065  -28.9361   21.2266 H   0  0  0  0  0  0
  -25.8981  -26.0073   18.9013 H   0  0  0  0  0  0
  -23.9594  -27.3791   18.9605 H   0  0  0  0  0  0
  -23.7606  -30.6306   19.4151 H   0  0  0  0  0  0
  -22.7559  -29.2815   19.8522 H   0  0  0  0  0  0
  -25.1279  -36.1940   25.0832 H   0  0  0  0  0  0
  -20.9992  -28.3282   24.1379 H   0  0  0  0  0  0
  -20.5701  -26.2311   23.3604 H   0  0  0  0  0  0
  -21.6651  -26.7444   22.1178 H   0  0  0  0  0  0
  -19.6917  -25.6286   21.1246 H   0  0  0  0  0  0
  -19.6690  -27.3181   20.6739 H   0  0  0  0  0  0
  -17.4200  -26.6693   21.4009 H   0  0  0  0  0  0
  -18.0311  -26.0058   22.9002 H   0  0  0  0  0  0
  -19.7956  -30.7273   24.2240 H   0  0  0  0  0  0
  -17.5039  -31.6270   24.5170 H   0  0  0  0  0  0
  -15.5367  -30.2991   23.7683 H   0  0  0  0  0  0
  -15.8673  -28.0826   22.7089 H   0  0  0  0  0  0
  -24.5912  -30.7079   25.7818 H   0  0  0  0  0  0
  -24.8894  -32.2905   26.4902 H   0  0  0  0  0  0
  -25.8029  -30.8935   27.0277 H   0  0  0  0  0  0
  -26.3012  -29.6748   24.1284 H   0  0  0  0  0  0
  -27.4062  -29.7322   25.4827 H   0  0  0  0  0  0
  -27.8883  -30.4328   23.9566 H   0  0  0  0  0  0
  -27.2642  -33.3713   26.2057 H   0  0  0  0  0  0
  -28.3863  -32.6919   25.0366 H   0  0  0  0  0  0
  -28.0705  -31.8564   26.5500 H   0  0  0  0  0  0
  -28.2573  -38.0108   24.7554 H   0  0  0  0  0  0
  -28.1097  -36.2646   24.6246 H   0  0  0  0  0  0
  -27.2298  -37.1379   25.8866 H   0  0  0  0  0  0
  -20.9384  -29.8813   21.6891 H   0  0  0  0  0  0
  -26.0167  -38.2848   24.1453 H   0  0  0  0  0  0
  -28.5090  -22.9871   18.0851 H   0  0  0  0  0  0
  -29.5260  -21.0739   17.1354 H   0  0  0  0  0  0
  -28.5562  -19.8650   17.9763 H   0  0  0  0  0  0
  -30.3283  -19.8544   18.1057 H   0  0  0  0  0  0
  -28.5105  -25.0720   22.3784 H   0  0  0  0  0  0
  -30.1997  -24.6974   22.7037 H   0  0  0  0  0  0
  -28.9035  -23.7672   23.4648 H   0  0  0  0  0  0
  -31.0096  -22.3217   23.3201 H   0  0  0  0  0  0
  -30.8620  -20.6199   22.9477 H   0  0  0  0  0  0
  -29.5012  -21.4674   23.6730 H   0  0  0  0  0  0
  -27.0024  -24.7471   20.3040 H   0  0  0  0  0  0
  -27.7549  -24.9870   18.7360 H   0  0  0  0  0  0
  -30.8566  -17.2771   22.0021 H   0  0  0  0  0  0
  -31.4627  -17.2179   20.3801 H   0  0  0  0  0  0
  -28.7332  -18.4149   21.1627 H   0  0  0  0  0  0
  -29.3502  -18.3104   19.5317 H   0  0  0  0  0  0
  -29.0092  -15.6329   21.0871 H   0  0  0  0  0  0
  1 25  1  0  0  0
  1 30  2  0  0  0
  1 83  1  0  0  0
  2  3  1  0  0  0
  2 25  1  0  0  0
  2 85  1  0  0  0
  2 86  1  0  0  0
  3  4  1  0  0  0
  3 87  1  0  0  0
  3 88  1  0  0  0
  4  5  1  0  0  0
  4 89  1  0  0  0
  4 90  1  0  0  0
  5  6  1  0  0  0
  5 26  1  0  0  0
  5 91  1  0  0  0
  6 25  1  0  0  0
  6 92  1  0  0  0
  6 93  1  0  0  0
  7  8  2  0  0  0
  7 26  1  0  0  0
  7 29  1  0  0  0
  8  9  1  0  0  0
  8 22  1  0  0  0
  9 10  1  0  0  0
  9 27  2  0  0  0
 10 11  2  0  0  0
 10 15  1  0  0  0
 11 12  1  0  0  0
 11 94  1  0  0  0
 12 13  2  0  0  0
 12 95  1  0  0  0
 13 14  1  0  0  0
 13 31  1  0  0  0
 14 15  2  0  0  0
 14 96  1  0  0  0
 15 97  1  0  0  0
 16 17  2  0  0  0
 16 21  1  0  0  0
 16 31  1  0  0  0
 17 18  1  0  0  0
 17 98  1  0  0  0
 18 19  2  0  0  0
 18 99  1  0  0  0
 19 20  1  0  0  0
 19 24  1  0  0  0
 20 21  2  0  0  0
 20100  1  0  0  0
 21 23  1  0  0  0
 22 28  1  0  0  0
 22 32  2  0  0  0
 26 27  1  0  0  0
 28101  1  0  0  0
 28102  1  0  0  0
 29103  1  0  0  0
 29104  1  0  0  0
 33 34  1  0  0  0
 33 66  1  0  0  0
 33 70  2  0  0  0
 34 36  1  0  0  0
 34 59  1  0  0  0
 34105  1  0  0  0
 35 44  2  0  0  0
 35 45  1  0  0  0
 35 68  1  0  0  0
 36 56  1  0  0  0
 36106  1  0  0  0
 37 39  1  0  0  0
 37 47  1  0  0  0
 37 66  1  0  0  0
 37107  1  0  0  0
 38 43  2  0  0  0
 38 46  1  0  0  0
 38 47  1  0  0  0
 39 64  1  0  0  0
 39 67  2  0  0  0
 40 52  1  0  0  0
 40 53  2  0  0  0
 40 58  1  0  0  0
 41108  1  0  0  0
 41109  1  0  0  0
 41110  1  0  0  0
 41 48  1  0  0  0
 42 43  1  0  0  0
 42 66  1  0  0  0
 42111  1  0  0  0
 42112  1  0  0  0
 43 44  1  0  0  0
 44113  1  0  0  0
 45 46  2  0  0  0
 45114  1  0  0  0
 46115  1  0  0  0
 47116  1  0  0  0
 47117  1  0  0  0
 48 56  1  0  0  0
 48 65  1  0  0  0
 48118  1  0  0  0
 49 50  1  0  0  0
 49 53  1  0  0  0
 49 64  1  0  0  0
 49119  1  0  0  0
 50 51  1  0  0  0
 50120  1  0  0  0
 50121  1  0  0  0
 51 52  1  0  0  0
 51122  1  0  0  0
 51123  1  0  0  0
 52124  1  0  0  0
 52125  1  0  0  0
 53 54  1  0  0  0
 54 55  2  0  0  0
 54126  1  0  0  0
 55 57  1  0  0  0
 55127  1  0  0  0
 56 69  2  0  0  0
 57 58  2  0  0  0
 57128  1  0  0  0
 58129  1  0  0  0
 59 60  1  0  0  0
 59 61  1  0  0  0
 59 62  1  0  0  0
 60130  1  0  0  0
 60131  1  0  0  0
 60132  1  0  0  0
 61133  1  0  0  0
 61134  1  0  0  0
 61135  1  0  0  0
 62136  1  0  0  0
 62137  1  0  0  0
 62138  1  0  0  0
 63 65  1  0  0  0
 63139  1  0  0  0
 63140  1  0  0  0
 63141  1  0  0  0
 64142  1  0  0  0
 65143  1  0  0  0
 68 80  1  0  0  0
 71 72  2  0  0  0
 71 73  1  0  0  0
 71144  1  0  0  0
 72 74  1  0  0  0
 72 80  1  0  0  0
 73 76  2  0  0  0
 73 77  1  0  0  0
 74 75  2  0  0  0
 74 78  1  0  0  0
 75 76  1  0  0  0
 75 79  1  0  0  0
 76 84  1  0  0  0
 77145  1  0  0  0
 77146  1  0  0  0
 77147  1  0  0  0
 78148  1  0  0  0
 78149  1  0  0  0
 78150  1  0  0  0
 79151  1  0  0  0
 79152  1  0  0  0
 79153  1  0  0  0
 80154  1  0  0  0
 80155  1  0  0  0
 81 82  1  0  0  0
 81 83  1  0  0  0
 81156  1  0  0  0
 81157  1  0  0  0
 82 84  1  0  0  0
 82158  1  0  0  0
 82159  1  0  0  0
 83160  1  0  0  0
M  ISO  4   1 100  68 101  80 101  83 100
M  END
> <chiral flag>
0

> <version>
0

> <s_m_source_file>
/data/baiqing/PycharmProjects/Reinvent-master-3.2/result/LINK_invent/BTK/process_docking_weight1_custom_sum_contain_oxygen_bond_distance_aromatic_linkinvent_7_9_3/rearranged_h_0160.sdf

> <i_m_source_file_index>
47

> <r_mmod_Potential_Energy-OPLS-2005>
65.1766891479492

> <r_mmod_Stretch_Energy-OPLS-2005>
84.9872436523438

> <r_mmod_Bend_Energy-OPLS-2005>
160.541717529297

> <r_mmod_Torsional_Energy-OPLS-2005>
231.765670776367

> <r_mmod_Improper_Torsional_Energy-OPLS-2005>
6.34879779815674

> <r_mmod_Van_der_Waal_Energy-OPLS-2005>
164.409576416016

> <r_mmod_Electrostatic_Energy-OPLS-2005>
-428.782562255859

> <r_mmod_Solvation_Energy-OPLS-2005>
-211.26774597168

> <b_mmod_Minimization_Converged-OPLS-2005>
0

> <r_mmod_RMS_Derivative-OPLS-2005>
1.38058304786682

$$$$
47
                    3D
 Structure written by MMmdl.
169178  0  0  1  0            999 V2000
  -30.7487  -14.7022   20.4843 C   0  0  0  0  0  0
  -30.4013  -12.4565   19.4558 C   0  0  0  0  0  0
  -29.4850  -12.5042   18.2199 C   0  0  0  0  0  0
  -28.0187  -12.3252   18.6480 C   0  0  0  0  0  0
  -27.6342  -13.2349   19.8456 C   0  0  2  0  0  0
  -28.6934  -13.2039   20.9730 C   0  0  0  0  0  0
  -25.2467  -13.8189   20.5729 C   0  0  0  0  0  0
  -24.1772  -13.0421   20.9222 C   0  0  0  0  0  0
  -24.6381  -11.6905   20.8776 C   0  0  0  0  0  0
  -23.9068  -10.4276   21.0410 C   0  0  0  0  0  0
  -24.3622   -9.4188   21.9186 C   0  0  0  0  0  0
  -23.6289   -8.2219   22.0747 C   0  0  0  0  0  0
  -22.4264   -8.0270   21.3547 C   0  0  0  0  0  0
  -21.9908   -9.0243   20.4650 C   0  0  0  0  0  0
  -22.7242  -10.2118   20.3055 C   0  0  0  0  0  0
  -21.6841   -6.0729   22.5278 C   0  0  0  0  0  0
  -21.4006   -6.5635   23.8216 C   0  0  0  0  0  0
  -21.3654   -5.6793   24.9179 C   0  0  0  0  0  0
  -21.6040   -4.3054   24.7228 C   0  0  0  0  0  0
  -21.8816   -3.8146   23.4354 C   0  0  0  0  0  0
  -21.9181   -4.6959   22.3405 C   0  0  0  0  0  0
  -22.7797  -13.5201   21.1858 C   0  0  0  0  0  0
  -22.1653   -4.2141   21.0985 F   0  0  0  0  0  0
  -21.5633   -3.4540   25.7744 F   0  0  0  0  0  0
  -29.9799  -13.5593   20.3604 N   0  0  0  0  0  0
  -26.2910  -12.9424   20.3337 N   0  0  0  0  0  0
  -25.9321  -11.6555   20.5806 N   0  0  0  0  0  0
  -22.0432  -12.8204   22.0423 N   0  0  0  0  0  0
  -25.4088  -15.1915   20.4141 N   0  0  0  0  0  0
  -31.9435  -14.5885   20.2004 O   0  0  0  0  0  0
  -21.6624   -6.8870   21.4237 O   0  0  0  0  0  0
  -22.3497  -14.5512   20.6706 O   0  0  0  0  0  0
  -24.6324  -31.8616   23.2067 C   0  0  0  0  0  0
  -25.9149  -32.4788   23.8396 C   0  0  1  0  0  0
  -27.1906  -27.2652   20.1013 C   0  0  0  0  0  0
  -25.5968  -33.8592   24.2316 N   0  0  0  0  0  0
  -23.4271  -30.4921   21.5537 C   0  0  2  0  0  0
  -24.8661  -28.9619   20.1083 C   0  0  0  0  0  0
  -22.7512  -29.4629   22.4935 C   0  0  0  0  0  0
  -18.0294  -28.1393   22.8474 C   0  0  0  0  0  0
  -24.1493  -36.7278   23.2630 C   0  0  0  0  0  0
  -25.9781  -30.7730   21.3913 C   0  0  0  0  0  0
  -26.0453  -29.4008   20.7249 C   0  0  0  0  0  0
  -27.2111  -28.5632   20.7204 C   0  0  0  0  0  0
  -25.9877  -26.9314   19.4245 C   0  0  0  0  0  0
  -24.8415  -27.7326   19.4508 C   0  0  0  0  0  0
  -23.6421  -29.8484   20.1641 C   0  0  0  0  0  0
  -25.4115  -36.3088   24.0340 C   0  0  1  0  0  0
  -20.5899  -28.3705   23.1269 C   0  0  2  0  0  0
  -20.6787  -26.9431   22.5400 C   0  0  0  0  0  0
  -19.5764  -26.6396   21.5210 C   0  0  0  0  0  0
  -18.1941  -26.7936   22.1614 C   0  0  0  0  0  0
  -19.1546  -28.8868   23.2865 C   0  0  0  0  0  0
  -18.9459  -30.1463   23.8895 C   0  0  0  0  0  0
  -17.6455  -30.6586   24.0561 C   0  0  0  0  0  0
  -25.9067  -34.9460   23.5123 C   0  0  0  0  0  0
  -16.5348  -29.9077   23.6333 C   0  0  0  0  0  0
  -16.7277  -28.6501   23.0345 C   0  0  0  0  0  0
  -26.4508  -31.6583   25.0766 C   0  0  0  0  0  0
  -25.3709  -31.3748   26.1471 C   0  0  0  0  0  0
  -27.0321  -30.2988   24.6251 C   0  0  0  0  0  0
  -27.6103  -32.4282   25.7520 C   0  0  0  0  0  0
  -27.5589  -37.1796   24.8457 C   0  0  0  0  0  0
  -21.4223  -29.3059   22.3665 N   0  0  0  0  0  0
  -26.4290  -37.3784   23.9418 N   0  0  0  0  0  0
  -24.6991  -31.0578   22.1065 N   0  0  0  0  0  0
  -23.4218  -28.8151   23.3010 O   0  0  0  0  0  0
  -28.2339  -26.2993   20.1787 O   0  0  0  0  0  0
  -26.5612  -34.8920   22.4673 O   0  0  0  0  0  0
  -23.5466  -32.1453   23.7341 O   0  0  0  0  0  0
  -28.9889  -23.0581   21.3107 C   0  0  0  0  0  0
  -28.4688  -22.5162   19.0537 C   0  0  0  0  0  0
  -29.2099  -20.6490   20.5432 C   0  0  0  0  0  0
  -28.5422  -23.5238   20.0535 C   0  0  0  0  0  0
  -29.3215  -21.6789   21.5496 C   0  0  0  0  0  0
  -28.7828  -21.1326   19.2580 C   0  0  0  0  0  0
  -28.4933  -17.9863   20.7426 C   0  0  0  0  0  0
  -30.8304  -18.5487   20.1676 C   0  0  0  0  0  0
  -28.9424  -16.5115   21.1517 C   0  0  0  0  0  0
  -31.2618  -17.1351   20.6800 C   0  0  0  0  0  0
  -29.5774  -19.1130   20.8678 C   0  0  0  0  0  0
  -29.7903  -21.3404   22.9562 C   0  0  0  0  0  0
  -29.5723  -20.6303   16.8943 C   0  0  0  0  0  0
  -27.1669  -20.1233   17.5585 C   0  0  0  0  0  0
  -27.8267  -24.9111   19.7750 C   0  0  0  0  0  0
  -28.6274  -20.2174   18.0361 C   0  0  0  0  0  0
  -30.2561  -16.0131   20.6427 N   0  0  0  0  0  0
  -31.4426  -12.5216   19.1336 H   0  0  0  0  0  0
  -30.3192  -11.4931   19.9612 H   0  0  0  0  0  0
  -29.7684  -11.7298   17.5053 H   0  0  0  0  0  0
  -29.6039  -13.4584   17.7046 H   0  0  0  0  0  0
  -27.8831  -11.2785   18.9219 H   0  0  0  0  0  0
  -27.3529  -12.5077   17.8039 H   0  0  0  0  0  0
  -27.6121  -14.2436   19.4360 H   0  0  0  0  0  0
  -28.7473  -12.2106   21.4212 H   0  0  0  0  0  0
  -28.4382  -13.8781   21.7903 H   0  0  0  0  0  0
  -25.2754   -9.5665   22.4778 H   0  0  0  0  0  0
  -23.9991   -7.4602   22.7464 H   0  0  0  0  0  0
  -21.0826   -8.8779   19.8965 H   0  0  0  0  0  0
  -22.3703  -10.9667   19.6175 H   0  0  0  0  0  0
  -21.2000   -7.6145   23.9731 H   0  0  0  0  0  0
  -21.1481   -6.0517   25.9092 H   0  0  0  0  0  0
  -22.0600   -2.7603   23.2855 H   0  0  0  0  0  0
  -22.4050  -11.9887   22.4837 H   0  0  0  0  0  0
  -21.1045  -13.1241   22.2586 H   0  0  0  0  0  0
  -24.6369  -15.8381   20.5381 H   0  0  0  0  0  0
  -26.2557  -15.6435   20.0969 H   0  0  0  0  0  0
  -26.7219  -32.5436   23.1144 H   0  0  0  0  0  0
  -25.0142  -33.9765   25.0476 H   0  0  0  0  0  0
  -22.7239  -31.3162   21.4194 H   0  0  0  0  0  0
  -23.3780  -35.9583   23.3280 H   0  0  0  0  0  0
  -24.3601  -36.8897   22.2048 H   0  0  0  0  0  0
  -23.7214  -37.6471   23.6637 H   0  0  0  0  0  0
  -26.1194  -31.5372   20.6252 H   0  0  0  0  0  0
  -26.8554  -30.8157   22.0246 H   0  0  0  0  0  0
  -28.1062  -28.8868   21.2341 H   0  0  0  0  0  0
  -25.8543  -26.0190   18.8658 H   0  0  0  0  0  0
  -23.9425  -27.3985   18.9503 H   0  0  0  0  0  0
  -23.7698  -30.6347   19.4196 H   0  0  0  0  0  0
  -22.7593  -29.2882   19.8526 H   0  0  0  0  0  0
  -25.1282  -36.1954   25.0833 H   0  0  0  0  0  0
  -20.9978  -28.3270   24.1394 H   0  0  0  0  0  0
  -20.5694  -26.2324   23.3602 H   0  0  0  0  0  0
  -21.6654  -26.7465   22.1194 H   0  0  0  0  0  0
  -19.6930  -25.6306   21.1250 H   0  0  0  0  0  0
  -19.6710  -27.3202   20.6737 H   0  0  0  0  0  0
  -17.4220  -26.6687   21.4005 H   0  0  0  0  0  0
  -18.0330  -26.0076   22.9005 H   0  0  0  0  0  0
  -19.7933  -30.7273   24.2278 H   0  0  0  0  0  0
  -17.5008  -31.6273   24.5151 H   0  0  0  0  0  0
  -15.5345  -30.2971   23.7677 H   0  0  0  0  0  0
  -15.8679  -28.0822   22.7052 H   0  0  0  0  0  0
  -24.5927  -30.7056   25.7779 H   0  0  0  0  0  0
  -24.8846  -32.2914   26.4818 H   0  0  0  0  0  0
  -25.7997  -30.8982   27.0295 H   0  0  0  0  0  0
  -26.2901  -29.6758   24.1246 H   0  0  0  0  0  0
  -27.3952  -29.7230   25.4770 H   0  0  0  0  0  0
  -27.8809  -30.4241   23.9528 H   0  0  0  0  0  0
  -27.2786  -33.3614   26.2075 H   0  0  0  0  0  0
  -28.3923  -32.6768   25.0332 H   0  0  0  0  0  0
  -28.0753  -31.8396   26.5440 H   0  0  0  0  0  0
  -28.2579  -38.0119   24.7538 H   0  0  0  0  0  0
  -28.1115  -36.2657   24.6226 H   0  0  0  0  0  0
  -27.2326  -37.1362   25.8863 H   0  0  0  0  0  0
  -20.9410  -29.8811   21.6895 H   0  0  0  0  0  0
  -26.0177  -38.2858   24.1428 H   0  0  0  0  0  0
  -29.0248  -23.7679   22.1260 H   0  0  0  0  0  0
  -28.0935  -22.8086   18.0829 H   0  0  0  0  0  0
  -27.6385  -18.2623   21.3631 H   0  0  0  0  0  0
  -28.0938  -17.9399   19.7321 H   0  0  0  0  0  0
  -30.7119  -18.5070   19.0877 H   0  0  0  0  0  0
  -31.6599  -19.2401   20.3325 H   0  0  0  0  0  0
  -28.1467  -15.8452   20.8394 H   0  0  0  0  0  0
  -28.9783  -16.4427   22.2405 H   0  0  0  0  0  0
  -31.6127  -17.2246   21.7102 H   0  0  0  0  0  0
  -32.1540  -16.9062   20.0936 H   0  0  0  0  0  0
  -29.8342  -19.0774   21.9238 H   0  0  0  0  0  0
  -29.8420  -22.2271   23.5890 H   0  0  0  0  0  0
  -30.7891  -20.9042   22.9269 H   0  0  0  0  0  0
  -29.1088  -20.6366   23.4359 H   0  0  0  0  0  0
  -30.6099  -20.6341   17.2297 H   0  0  0  0  0  0
  -29.3427  -21.6228   16.5071 H   0  0  0  0  0  0
  -29.5059  -19.9308   16.0603 H   0  0  0  0  0  0
  -26.5174  -19.7357   18.3447 H   0  0  0  0  0  0
  -27.0793  -19.4462   16.7075 H   0  0  0  0  0  0
  -26.7711  -21.0892   17.2457 H   0  0  0  0  0  0
  -26.8539  -24.7124   20.2273 H   0  0  0  0  0  0
  -27.6866  -24.9458   18.6933 H   0  0  0  0  0  0
  -28.9131  -19.2058   18.2844 H   0  0  0  0  0  0
  1 25  1  0  0  0
  1 30  2  0  0  0
  1 87  1  0  0  0
  2  3  1  0  0  0
  2 25  1  0  0  0
  2 88  1  0  0  0
  2 89  1  0  0  0
  3  4  1  0  0  0
  3 90  1  0  0  0
  3 91  1  0  0  0
  4  5  1  0  0  0
  4 92  1  0  0  0
  4 93  1  0  0  0
  5  6  1  0  0  0
  5 26  1  0  0  0
  5 94  1  0  0  0
  6 25  1  0  0  0
  6 95  1  0  0  0
  6 96  1  0  0  0
  7  8  2  0  0  0
  7 26  1  0  0  0
  7 29  1  0  0  0
  8  9  1  0  0  0
  8 22  1  0  0  0
  9 10  1  0  0  0
  9 27  2  0  0  0
 10 11  2  0  0  0
 10 15  1  0  0  0
 11 12  1  0  0  0
 11 97  1  0  0  0
 12 13  2  0  0  0
 12 98  1  0  0  0
 13 14  1  0  0  0
 13 31  1  0  0  0
 14 15  2  0  0  0
 14 99  1  0  0  0
 15100  1  0  0  0
 16 17  2  0  0  0
 16 21  1  0  0  0
 16 31  1  0  0  0
 17 18  1  0  0  0
 17101  1  0  0  0
 18 19  2  0  0  0
 18102  1  0  0  0
 19 20  1  0  0  0
 19 24  1  0  0  0
 20 21  2  0  0  0
 20103  1  0  0  0
 21 23  1  0  0  0
 22 28  1  0  0  0
 22 32  2  0  0  0
 26 27  1  0  0  0
 28104  1  0  0  0
 28105  1  0  0  0
 29106  1  0  0  0
 29107  1  0  0  0
 33 34  1  0  0  0
 33 66  1  0  0  0
 33 70  2  0  0  0
 34 36  1  0  0  0
 34 59  1  0  0  0
 34108  1  0  0  0
 35 44  2  0  0  0
 35 45  1  0  0  0
 35 68  1  0  0  0
 36 56  1  0  0  0
 36109  1  0  0  0
 37 39  1  0  0  0
 37 47  1  0  0  0
 37 66  1  0  0  0
 37110  1  0  0  0
 38 43  2  0  0  0
 38 46  1  0  0  0
 38 47  1  0  0  0
 39 64  1  0  0  0
 39 67  2  0  0  0
 40 52  1  0  0  0
 40 53  2  0  0  0
 40 58  1  0  0  0
 41111  1  0  0  0
 41112  1  0  0  0
 41113  1  0  0  0
 41 48  1  0  0  0
 42 43  1  0  0  0
 42 66  1  0  0  0
 42114  1  0  0  0
 42115  1  0  0  0
 43 44  1  0  0  0
 44116  1  0  0  0
 45 46  2  0  0  0
 45117  1  0  0  0
 46118  1  0  0  0
 47119  1  0  0  0
 47120  1  0  0  0
 48 56  1  0  0  0
 48 65  1  0  0  0
 48121  1  0  0  0
 49 50  1  0  0  0
 49 53  1  0  0  0
 49 64  1  0  0  0
 49122  1  0  0  0
 50 51  1  0  0  0
 50123  1  0  0  0
 50124  1  0  0  0
 51 52  1  0  0  0
 51125  1  0  0  0
 51126  1  0  0  0
 52127  1  0  0  0
 52128  1  0  0  0
 53 54  1  0  0  0
 54 55  2  0  0  0
 54129  1  0  0  0
 55 57  1  0  0  0
 55130  1  0  0  0
 56 69  2  0  0  0
 57 58  2  0  0  0
 57131  1  0  0  0
 58132  1  0  0  0
 59 60  1  0  0  0
 59 61  1  0  0  0
 59 62  1  0  0  0
 60133  1  0  0  0
 60134  1  0  0  0
 60135  1  0  0  0
 61136  1  0  0  0
 61137  1  0  0  0
 61138  1  0  0  0
 62139  1  0  0  0
 62140  1  0  0  0
 62141  1  0  0  0
 63 65  1  0  0  0
 63142  1  0  0  0
 63143  1  0  0  0
 63144  1  0  0  0
 64145  1  0  0  0
 65146  1  0  0  0
 68 85  1  0  0  0
 71 74  2  0  0  0
 71 75  1  0  0  0
 71147  1  0  0  0
 72 74  1  0  0  0
 72 76  2  0  0  0
 72148  1  0  0  0
 73 75  2  0  0  0
 73 76  1  0  0  0
 73 81  1  0  0  0
 74 85  1  0  0  0
 75 82  1  0  0  0
 76 86  1  0  0  0
 77 79  1  0  0  0
 77 81  1  0  0  0
 77149  1  0  0  0
 77150  1  0  0  0
 78 80  1  0  0  0
 78 81  1  0  0  0
 78151  1  0  0  0
 78152  1  0  0  0
 79 87  1  0  0  0
 79153  1  0  0  0
 79154  1  0  0  0
 80 87  1  0  0  0
 80155  1  0  0  0
 80156  1  0  0  0
 81157  1  0  0  0
 82158  1  0  0  0
 82159  1  0  0  0
 82160  1  0  0  0
 83161  1  0  0  0
 83162  1  0  0  0
 83163  1  0  0  0
 83 86  1  0  0  0
 84 86  1  0  0  0
 84164  1  0  0  0
 84165  1  0  0  0
 84166  1  0  0  0
 85167  1  0  0  0
 85168  1  0  0  0
 86169  1  0  0  0
M  ISO  4   1 100  68 101  85 101  87 100
M  END
> <chiral flag>
0

> <version>
0

> <s_m_source_file>
/data/baiqing/PycharmProjects/Reinvent-master-3.2/result/LINK_invent/BTK/process_docking_weight1_custom_sum_contain_oxygen_bond_distance_aromatic_linkinvent_7_9_3/rearranged_h_0160.sdf

> <i_m_source_file_index>
48

> <r_mmod_Potential_Energy-OPLS-2005>
450.473724365234

> <r_mmod_Stretch_Energy-OPLS-2005>
120.954879760742

> <r_mmod_Bend_Energy-OPLS-2005>
234.386840820312

> <r_mmod_Torsional_Energy-OPLS-2005>
307.750213623047

> <r_mmod_Improper_Torsional_Energy-OPLS-2005>
9.4916524887085

> <r_mmod_Van_der_Waal_Energy-OPLS-2005>
177.670532226562

> <r_mmod_Electrostatic_Energy-OPLS-2005>
-300.647796630859

> <r_mmod_Solvation_Energy-OPLS-2005>
-193.515106201172

> <b_mmod_Minimization_Converged-OPLS-2005>
0

> <r_mmod_RMS_Derivative-OPLS-2005>
2.04693841934204

$$$$
48
                    3D
 Structure written by MMmdl.
168177  0  0  1  0            999 V2000
  -30.6604  -14.6488   20.5162 C   0  0  0  0  0  0
  -30.4267  -12.4043   19.4589 C   0  0  0  0  0  0
  -29.5048  -12.5159   18.2255 C   0  0  0  0  0  0
  -28.0279  -12.3547   18.6360 C   0  0  0  0  0  0
  -27.6508  -13.2259   19.8648 C   0  0  2  0  0  0
  -28.6957  -13.0938   20.9944 C   0  0  0  0  0  0
  -25.2544  -13.8193   20.5704 C   0  0  0  0  0  0
  -24.1814  -13.0439   20.9168 C   0  0  0  0  0  0
  -24.6391  -11.6916   20.8709 C   0  0  0  0  0  0
  -23.9054  -10.4299   21.0386 C   0  0  0  0  0  0
  -24.3602   -9.4219   21.9167 C   0  0  0  0  0  0
  -23.6272   -8.2254   22.0754 C   0  0  0  0  0  0
  -22.4256   -8.0287   21.3545 C   0  0  0  0  0  0
  -21.9889   -9.0259   20.4642 C   0  0  0  0  0  0
  -22.7216  -10.2139   20.3040 C   0  0  0  0  0  0
  -21.6861   -6.0716   22.5265 C   0  0  0  0  0  0
  -21.4025   -6.5624   23.8198 C   0  0  0  0  0  0
  -21.3661   -5.6780   24.9164 C   0  0  0  0  0  0
  -21.6044   -4.3044   24.7217 C   0  0  0  0  0  0
  -21.8820   -3.8130   23.4337 C   0  0  0  0  0  0
  -21.9205   -4.6942   22.3392 C   0  0  0  0  0  0
  -22.7838  -13.5233   21.1833 C   0  0  0  0  0  0
  -22.1665   -4.2129   21.0969 F   0  0  0  0  0  0
  -21.5633   -3.4528   25.7728 F   0  0  0  0  0  0
  -30.0063  -13.4424   20.4263 N   0  0  0  0  0  0
  -26.2980  -12.9393   20.3336 N   0  0  0  0  0  0
  -25.9330  -11.6534   20.5754 N   0  0  0  0  0  0
  -22.0490  -12.8222   22.0392 N   0  0  0  0  0  0
  -25.4252  -15.1917   20.4162 N   0  0  0  0  0  0
  -31.8096  -14.7622   20.0773 O   0  0  0  0  0  0
  -21.6644   -6.8864   21.4229 O   0  0  0  0  0  0
  -22.3521  -14.5538   20.6697 O   0  0  0  0  0  0
  -24.6261  -31.8608   23.2026 C   0  0  0  0  0  0
  -25.9110  -32.4786   23.8361 C   0  0  1  0  0  0
  -27.2217  -27.3302   20.1200 C   0  0  0  0  0  0
  -25.5928  -33.8584   24.2294 N   0  0  0  0  0  0
  -23.4201  -30.4838   21.5458 C   0  0  2  0  0  0
  -24.8701  -28.9447   20.1051 C   0  0  0  0  0  0
  -22.7481  -29.4620   22.4941 C   0  0  0  0  0  0
  -18.0288  -28.1384   22.8488 C   0  0  0  0  0  0
  -24.1488  -36.7294   23.2635 C   0  0  0  0  0  0
  -25.9604  -30.7955   21.3729 C   0  0  0  0  0  0
  -26.0381  -29.4244   20.7145 C   0  0  0  0  0  0
  -27.2213  -28.6272   20.7156 C   0  0  0  0  0  0
  -26.0431  -26.9093   19.4687 C   0  0  0  0  0  0
  -24.8742  -27.6923   19.4713 C   0  0  0  0  0  0
  -23.6347  -29.8201   20.1597 C   0  0  0  0  0  0
  -25.4109  -36.3089   24.0333 C   0  0  1  0  0  0
  -20.5888  -28.3689   23.1286 C   0  0  2  0  0  0
  -20.6776  -26.9414   22.5409 C   0  0  0  0  0  0
  -19.5749  -26.6384   21.5213 C   0  0  0  0  0  0
  -18.1931  -26.7928   22.1629 C   0  0  0  0  0  0
  -19.1541  -28.8855   23.2881 C   0  0  0  0  0  0
  -18.9462  -30.1460   23.8893 C   0  0  0  0  0  0
  -17.6458  -30.6588   24.0562 C   0  0  0  0  0  0
  -25.9054  -34.9456   23.5116 C   0  0  0  0  0  0
  -16.5353  -29.9083   23.6333 C   0  0  0  0  0  0
  -16.7275  -28.6500   23.0357 C   0  0  0  0  0  0
  -26.4493  -31.6588   25.0724 C   0  0  0  0  0  0
  -25.3735  -31.3706   26.1456 C   0  0  0  0  0  0
  -27.0334  -30.3019   24.6157 C   0  0  0  0  0  0
  -27.6064  -32.4312   25.7493 C   0  0  0  0  0  0
  -27.5587  -37.1787   24.8455 C   0  0  0  0  0  0
  -21.4193  -29.3040   22.3679 N   0  0  0  0  0  0
  -26.4281  -37.3792   23.9428 N   0  0  0  0  0  0
  -24.6876  -31.0624   22.0976 N   0  0  0  0  0  0
  -23.4208  -28.8168   23.3026 O   0  0  0  0  0  0
  -28.2800  -26.4167   20.1955 O   0  0  0  0  0  0
  -26.5615  -34.8920   22.4678 O   0  0  0  0  0  0
  -23.5427  -32.1407   23.7360 O   0  0  0  0  0  0
  -28.2693  -22.8169   21.9139 C   0  0  0  0  0  0
  -29.2692  -23.2832   19.7598 C   0  0  0  0  0  0
  -28.5351  -23.7726   20.8782 C   0  0  0  0  0  0
  -28.7727  -21.4692   21.8711 C   0  0  0  0  0  0
  -29.7650  -21.9263   19.7139 C   0  0  0  0  0  0
  -29.5058  -20.9685   20.7536 C   0  0  0  0  0  0
  -29.8218  -17.6708   22.3310 C   0  0  0  0  0  0
  -29.6113  -16.1491   22.1874 C   0  0  0  0  0  0
  -30.0125  -17.0912   20.0690 C   0  0  0  0  0  0
  -29.4797  -18.2808   20.9632 C   0  0  2  0  0  0
  -27.4241  -23.2337   23.1257 C   0  0  0  0  0  0
  -29.5087  -24.2431   18.5969 C   0  0  0  0  0  0
  -28.6022  -20.5735   23.0900 C   0  0  0  0  0  0
  -30.6237  -21.5157   18.5166 C   0  0  0  0  0  0
  -27.9482  -25.2435   21.0349 C   0  0  0  0  0  0
  -29.9205  -15.7819   20.8050 N   0  0  0  0  0  0
  -30.0727  -19.6357   20.6695 N   0  0  0  0  0  0
  -31.4705  -12.5077   19.1593 H   0  0  0  0  0  0
  -30.3465  -11.4143   19.9103 H   0  0  0  0  0  0
  -29.7713  -11.7628   17.4819 H   0  0  0  0  0  0
  -29.6484  -13.4859   17.7469 H   0  0  0  0  0  0
  -27.8620  -11.3015   18.8658 H   0  0  0  0  0  0
  -27.3757  -12.5862   17.7932 H   0  0  0  0  0  0
  -27.6664  -14.2609   19.5246 H   0  0  0  0  0  0
  -28.7120  -12.0769   21.3872 H   0  0  0  0  0  0
  -28.4352  -13.7288   21.8391 H   0  0  0  0  0  0
  -25.2751   -9.5708   22.4724 H   0  0  0  0  0  0
  -23.9988   -7.4659   22.7481 H   0  0  0  0  0  0
  -21.0821   -8.8773   19.8945 H   0  0  0  0  0  0
  -22.3674  -10.9671   19.6135 H   0  0  0  0  0  0
  -21.2014   -7.6132   23.9693 H   0  0  0  0  0  0
  -21.1483   -6.0512   25.9069 H   0  0  0  0  0  0
  -22.0598   -2.7586   23.2848 H   0  0  0  0  0  0
  -22.4131  -11.9886   22.4757 H   0  0  0  0  0  0
  -21.1110  -13.1254   22.2614 H   0  0  0  0  0  0
  -24.6595  -15.8467   20.5299 H   0  0  0  0  0  0
  -26.2864  -15.6349   20.1198 H   0  0  0  0  0  0
  -26.7178  -32.5474   23.1115 H   0  0  0  0  0  0
  -25.0088  -33.9735   25.0446 H   0  0  0  0  0  0
  -22.7143  -31.3046   21.4041 H   0  0  0  0  0  0
  -23.3771  -35.9605   23.3264 H   0  0  0  0  0  0
  -24.3587  -36.8949   22.2057 H   0  0  0  0  0  0
  -23.7211  -37.6473   23.6675 H   0  0  0  0  0  0
  -26.0878  -31.5579   20.6034 H   0  0  0  0  0  0
  -26.8418  -30.8471   21.9997 H   0  0  0  0  0  0
  -28.1130  -28.9805   21.2144 H   0  0  0  0  0  0
  -26.0146  -25.9407   18.9889 H   0  0  0  0  0  0
  -23.9810  -27.3214   18.9874 H   0  0  0  0  0  0
  -23.7473  -30.5982   19.4035 H   0  0  0  0  0  0
  -22.7563  -29.2441   19.8613 H   0  0  0  0  0  0
  -25.1282  -36.1937   25.0824 H   0  0  0  0  0  0
  -20.9980  -28.3261   24.1408 H   0  0  0  0  0  0
  -20.5689  -26.2299   23.3609 H   0  0  0  0  0  0
  -21.6642  -26.7449   22.1201 H   0  0  0  0  0  0
  -19.6912  -25.6293   21.1245 H   0  0  0  0  0  0
  -19.6684  -27.3198   20.6745 H   0  0  0  0  0  0
  -17.4205  -26.6686   21.4027 H   0  0  0  0  0  0
  -18.0323  -26.0066   22.9019 H   0  0  0  0  0  0
  -19.7934  -30.7274   24.2265 H   0  0  0  0  0  0
  -17.5015  -31.6267   24.5162 H   0  0  0  0  0  0
  -15.5352  -30.2983   23.7652 H   0  0  0  0  0  0
  -15.8680  -28.0814   22.7078 H   0  0  0  0  0  0
  -24.5916  -30.7050   25.7777 H   0  0  0  0  0  0
  -24.8915  -32.2862   26.4891 H   0  0  0  0  0  0
  -25.8067  -30.8876   27.0225 H   0  0  0  0  0  0
  -26.2897  -29.6772   24.1194 H   0  0  0  0  0  0
  -27.4064  -29.7267   25.4641 H   0  0  0  0  0  0
  -27.8752  -30.4322   23.9354 H   0  0  0  0  0  0
  -27.2695  -33.3624   26.2057 H   0  0  0  0  0  0
  -28.3875  -32.6846   25.0314 H   0  0  0  0  0  0
  -28.0728  -31.8440   26.5415 H   0  0  0  0  0  0
  -28.2558  -38.0131   24.7585 H   0  0  0  0  0  0
  -28.1131  -36.2668   24.6181 H   0  0  0  0  0  0
  -27.2319  -37.1316   25.8858 H   0  0  0  0  0  0
  -20.9382  -29.8759   21.6878 H   0  0  0  0  0  0
  -26.0164  -38.2860   24.1473 H   0  0  0  0  0  0
  -30.8641  -17.8717   22.5831 H   0  0  0  0  0  0
  -29.2102  -18.0295   23.1544 H   0  0  0  0  0  0
  -30.2154  -15.5976   22.9109 H   0  0  0  0  0  0
  -28.5647  -15.9131   22.3825 H   0  0  0  0  0  0
  -31.0566  -17.2650   19.8003 H   0  0  0  0  0  0
  -29.4523  -17.0293   19.1345 H   0  0  0  0  0  0
  -28.3944  -18.3386   20.8639 H   0  0  0  0  0  0
  -26.8087  -24.1177   22.9870 H   0  0  0  0  0  0
  -28.0651  -23.4193   23.9878 H   0  0  0  0  0  0
  -26.7106  -22.4518   23.3853 H   0  0  0  0  0  0
  -28.5934  -24.7842   18.3569 H   0  0  0  0  0  0
  -29.8051  -23.7607   17.6686 H   0  0  0  0  0  0
  -30.2772  -24.9718   18.8567 H   0  0  0  0  0  0
  -28.3047  -21.0821   24.0025 H   0  0  0  0  0  0
  -29.5676  -20.1347   23.3349 H   0  0  0  0  0  0
  -27.8675  -19.7956   22.8862 H   0  0  0  0  0  0
  -31.4084  -22.2553   18.3514 H   0  0  0  0  0  0
  -30.0116  -21.4529   17.6171 H   0  0  0  0  0  0
  -31.1351  -20.5622   18.6279 H   0  0  0  0  0  0
  -28.2173  -25.5750   22.0380 H   0  0  0  0  0  0
  -26.8684  -25.1017   21.0540 H   0  0  0  0  0  0
  -30.7898  -19.5782   19.9554 H   0  0  0  0  0  0
  1 25  1  0  0  0
  1 30  2  0  0  0
  1 86  1  0  0  0
  2  3  1  0  0  0
  2 25  1  0  0  0
  2 88  1  0  0  0
  2 89  1  0  0  0
  3  4  1  0  0  0
  3 90  1  0  0  0
  3 91  1  0  0  0
  4  5  1  0  0  0
  4 92  1  0  0  0
  4 93  1  0  0  0
  5  6  1  0  0  0
  5 26  1  0  0  0
  5 94  1  0  0  0
  6 25  1  0  0  0
  6 95  1  0  0  0
  6 96  1  0  0  0
  7  8  2  0  0  0
  7 26  1  0  0  0
  7 29  1  0  0  0
  8  9  1  0  0  0
  8 22  1  0  0  0
  9 10  1  0  0  0
  9 27  2  0  0  0
 10 11  2  0  0  0
 10 15  1  0  0  0
 11 12  1  0  0  0
 11 97  1  0  0  0
 12 13  2  0  0  0
 12 98  1  0  0  0
 13 14  1  0  0  0
 13 31  1  0  0  0
 14 15  2  0  0  0
 14 99  1  0  0  0
 15100  1  0  0  0
 16 17  2  0  0  0
 16 21  1  0  0  0
 16 31  1  0  0  0
 17 18  1  0  0  0
 17101  1  0  0  0
 18 19  2  0  0  0
 18102  1  0  0  0
 19 20  1  0  0  0
 19 24  1  0  0  0
 20 21  2  0  0  0
 20103  1  0  0  0
 21 23  1  0  0  0
 22 28  1  0  0  0
 22 32  2  0  0  0
 26 27  1  0  0  0
 28104  1  0  0  0
 28105  1  0  0  0
 29106  1  0  0  0
 29107  1  0  0  0
 33 34  1  0  0  0
 33 66  1  0  0  0
 33 70  2  0  0  0
 34 36  1  0  0  0
 34 59  1  0  0  0
 34108  1  0  0  0
 35 44  2  0  0  0
 35 45  1  0  0  0
 35 68  1  0  0  0
 36 56  1  0  0  0
 36109  1  0  0  0
 37 39  1  0  0  0
 37 47  1  0  0  0
 37 66  1  0  0  0
 37110  1  0  0  0
 38 43  2  0  0  0
 38 46  1  0  0  0
 38 47  1  0  0  0
 39 64  1  0  0  0
 39 67  2  0  0  0
 40 52  1  0  0  0
 40 53  2  0  0  0
 40 58  1  0  0  0
 41111  1  0  0  0
 41112  1  0  0  0
 41113  1  0  0  0
 41 48  1  0  0  0
 42 43  1  0  0  0
 42 66  1  0  0  0
 42114  1  0  0  0
 42115  1  0  0  0
 43 44  1  0  0  0
 44116  1  0  0  0
 45 46  2  0  0  0
 45117  1  0  0  0
 46118  1  0  0  0
 47119  1  0  0  0
 47120  1  0  0  0
 48 56  1  0  0  0
 48 65  1  0  0  0
 48121  1  0  0  0
 49 50  1  0  0  0
 49 53  1  0  0  0
 49 64  1  0  0  0
 49122  1  0  0  0
 50 51  1  0  0  0
 50123  1  0  0  0
 50124  1  0  0  0
 51 52  1  0  0  0
 51125  1  0  0  0
 51126  1  0  0  0
 52127  1  0  0  0
 52128  1  0  0  0
 53 54  1  0  0  0
 54 55  2  0  0  0
 54129  1  0  0  0
 55 57  1  0  0  0
 55130  1  0  0  0
 56 69  2  0  0  0
 57 58  2  0  0  0
 57131  1  0  0  0
 58132  1  0  0  0
 59 60  1  0  0  0
 59 61  1  0  0  0
 59 62  1  0  0  0
 60133  1  0  0  0
 60134  1  0  0  0
 60135  1  0  0  0
 61136  1  0  0  0
 61137  1  0  0  0
 61138  1  0  0  0
 62139  1  0  0  0
 62140  1  0  0  0
 62141  1  0  0  0
 63 65  1  0  0  0
 63142  1  0  0  0
 63143  1  0  0  0
 63144  1  0  0  0
 64145  1  0  0  0
 65146  1  0  0  0
 68 85  1  0  0  0
 71 73  2  0  0  0
 71 74  1  0  0  0
 71 81  1  0  0  0
 72 73  1  0  0  0
 72 75  2  0  0  0
 72 82  1  0  0  0
 73 85  1  0  0  0
 74 76  2  0  0  0
 74 83  1  0  0  0
 75 76  1  0  0  0
 75 84  1  0  0  0
 76 87  1  0  0  0
 77 78  1  0  0  0
 77 80  1  0  0  0
 77147  1  0  0  0
 77148  1  0  0  0
 78 86  1  0  0  0
 78149  1  0  0  0
 78150  1  0  0  0
 79 80  1  0  0  0
 79 86  1  0  0  0
 79151  1  0  0  0
 79152  1  0  0  0
 80 87  1  0  0  0
 80153  1  0  0  0
 81154  1  0  0  0
 81155  1  0  0  0
 81156  1  0  0  0
 82157  1  0  0  0
 82158  1  0  0  0
 82159  1  0  0  0
 83160  1  0  0  0
 83161  1  0  0  0
 83162  1  0  0  0
 84163  1  0  0  0
 84164  1  0  0  0
 84165  1  0  0  0
 85166  1  0  0  0
 85167  1  0  0  0
 87168  1  0  0  0
M  ISO  4   1 100  68 101  85 101  86 100
M  END
> <chiral flag>
0

> <version>
0

> <s_m_source_file>
/data/baiqing/PycharmProjects/Reinvent-master-3.2/result/LINK_invent/BTK/process_docking_weight1_custom_sum_contain_oxygen_bond_distance_aromatic_linkinvent_7_9_3/rearranged_h_0160.sdf

> <i_m_source_file_index>
49

> <r_mmod_Potential_Energy-OPLS-2005>
298.023498535156

> <r_mmod_Stretch_Energy-OPLS-2005>
94.7274322509766

> <r_mmod_Bend_Energy-OPLS-2005>
201.515029907227

> <r_mmod_Torsional_Energy-OPLS-2005>
354.059295654297

> <r_mmod_Improper_Torsional_Energy-OPLS-2005>
13.315770149231

> <r_mmod_Van_der_Waal_Energy-OPLS-2005>
170.434143066406

> <r_mmod_Electrostatic_Energy-OPLS-2005>
-394.666870117188

> <r_mmod_Solvation_Energy-OPLS-2005>
-194.45719909668

> <b_mmod_Minimization_Converged-OPLS-2005>
0

> <r_mmod_RMS_Derivative-OPLS-2005>
1.36234033107758

$$$$
49
                    3D
 Structure written by MMmdl.
172181  0  0  1  0            999 V2000
  -30.6834  -14.6502   20.5021 C   0  0  0  0  0  0
  -30.4233  -12.4114   19.4480 C   0  0  0  0  0  0
  -29.4961  -12.5074   18.2191 C   0  0  0  0  0  0
  -28.0308  -12.3029   18.6453 C   0  0  0  0  0  0
  -27.6411  -13.1939   19.8509 C   0  0  2  0  0  0
  -28.6927  -13.1401   20.9829 C   0  0  0  0  0  0
  -25.2574  -13.8102   20.5701 C   0  0  0  0  0  0
  -24.1817  -13.0404   20.9201 C   0  0  0  0  0  0
  -24.6357  -11.6867   20.8759 C   0  0  0  0  0  0
  -23.9013  -10.4276   21.0418 C   0  0  0  0  0  0
  -24.3578   -9.4206   21.9196 C   0  0  0  0  0  0
  -23.6275   -8.2236   22.0768 C   0  0  0  0  0  0
  -22.4267   -8.0266   21.3545 C   0  0  0  0  0  0
  -21.9885   -9.0227   20.4647 C   0  0  0  0  0  0
  -22.7190  -10.2116   20.3063 C   0  0  0  0  0  0
  -21.6853   -6.0724   22.5285 C   0  0  0  0  0  0
  -21.4005   -6.5630   23.8211 C   0  0  0  0  0  0
  -21.3656   -5.6786   24.9177 C   0  0  0  0  0  0
  -21.6048   -4.3055   24.7232 C   0  0  0  0  0  0
  -21.8824   -3.8147   23.4354 C   0  0  0  0  0  0
  -21.9197   -4.6953   22.3409 C   0  0  0  0  0  0
  -22.7855  -13.5235   21.1857 C   0  0  0  0  0  0
  -22.1665   -4.2145   21.0984 F   0  0  0  0  0  0
  -21.5634   -3.4533   25.7743 F   0  0  0  0  0  0
  -30.0007  -13.4637   20.3976 N   0  0  0  0  0  0
  -26.2943  -12.9202   20.3315 N   0  0  0  0  0  0
  -25.9277  -11.6400   20.5790 N   0  0  0  0  0  0
  -22.0476  -12.8237   22.0394 N   0  0  0  0  0  0
  -25.4393  -15.1807   20.4116 N   0  0  0  0  0  0
  -31.8663  -14.7231   20.1587 O   0  0  0  0  0  0
  -21.6640   -6.8861   21.4240 O   0  0  0  0  0  0
  -22.3565  -14.5561   20.6718 O   0  0  0  0  0  0
  -24.6280  -31.8630   23.2073 C   0  0  0  0  0  0
  -25.9136  -32.4788   23.8398 C   0  0  1  0  0  0
  -27.2164  -27.3270   20.1137 C   0  0  0  0  0  0
  -25.5972  -33.8592   24.2329 N   0  0  0  0  0  0
  -23.4195  -30.4940   21.5487 C   0  0  2  0  0  0
  -24.8631  -28.9580   20.1109 C   0  0  0  0  0  0
  -22.7474  -29.4673   22.4919 C   0  0  0  0  0  0
  -18.0294  -28.1402   22.8481 C   0  0  0  0  0  0
  -24.1495  -36.7300   23.2634 C   0  0  0  0  0  0
  -25.9620  -30.7976   21.3785 C   0  0  0  0  0  0
  -26.0343  -29.4274   20.7192 C   0  0  0  0  0  0
  -27.2134  -28.6237   20.7145 C   0  0  0  0  0  0
  -26.0179  -26.9208   19.4734 C   0  0  0  0  0  0
  -24.8562  -27.7084   19.4817 C   0  0  0  0  0  0
  -23.6348  -29.8402   20.1606 C   0  0  0  0  0  0
  -25.4116  -36.3089   24.0330 C   0  0  1  0  0  0
  -20.5893  -28.3725   23.1258 C   0  0  2  0  0  0
  -20.6802  -26.9448   22.5401 C   0  0  0  0  0  0
  -19.5769  -26.6396   21.5219 C   0  0  0  0  0  0
  -18.1941  -26.7951   22.1612 C   0  0  0  0  0  0
  -19.1544  -28.8877   23.2870 C   0  0  0  0  0  0
  -18.9463  -30.1478   23.8893 C   0  0  0  0  0  0
  -17.6464  -30.6599   24.0581 C   0  0  0  0  0  0
  -25.9052  -34.9454   23.5121 C   0  0  0  0  0  0
  -16.5358  -29.9095   23.6348 C   0  0  0  0  0  0
  -16.7285  -28.6520   23.0354 C   0  0  0  0  0  0
  -26.4513  -31.6572   25.0752 C   0  0  0  0  0  0
  -25.3753  -31.3690   26.1478 C   0  0  0  0  0  0
  -27.0363  -30.2998   24.6199 C   0  0  0  0  0  0
  -27.6093  -32.4285   25.7528 C   0  0  0  0  0  0
  -27.5589  -37.1792   24.8454 C   0  0  0  0  0  0
  -21.4190  -29.3072   22.3636 N   0  0  0  0  0  0
  -26.4289  -37.3785   23.9420 N   0  0  0  0  0  0
  -24.6887  -31.0664   22.1019 N   0  0  0  0  0  0
  -23.4199  -28.8202   23.2988 O   0  0  0  0  0  0
  -28.3214  -26.4572   20.1803 O   0  0  0  0  0  0
  -26.5587  -34.8909   22.4662 O   0  0  0  0  0  0
  -23.5446  -32.1425   23.7404 O   0  0  0  0  0  0
  -28.8517  -22.5814   20.7539 C   0  0  0  0  0  0
  -29.1163  -23.8974   20.1915 C   0  0  0  0  0  0
  -29.8325  -21.5203   20.6716 C   0  0  0  0  0  0
  -30.3989  -24.0769   19.6295 C   0  0  0  0  0  0
  -31.0939  -21.8975   20.1397 C   0  0  0  0  0  0
  -30.9881  -18.1432   21.4822 C   0  0  0  0  0  0
  -28.8215  -18.0351   20.2709 C   0  0  0  0  0  0
  -30.5410  -16.6961   21.9268 C   0  0  0  0  0  0
  -29.2721  -16.5972   19.8370 C   0  0  0  0  0  0
  -30.0046  -18.9702   20.5942 C   0  0  0  0  0  0
  -30.8113  -25.3692   18.9459 C   0  0  0  0  0  0
  -32.3182  -21.0028   20.1736 C   0  0  0  0  0  0
  -27.2997  -23.0840   22.7494 C   0  0  0  0  0  0
  -28.0324  -25.0201   19.9816 C   0  0  0  0  0  0
  -27.5319  -22.2518   21.4676 C   0  0  1  0  0  0
  -31.3505  -23.1228   19.6356 N   0  0  0  0  0  0
  -30.0058  -15.8022   20.8621 N   0  0  0  0  0  0
  -26.3946  -22.2401   20.5340 N   0  3  0  0  0  0
  -29.5501  -20.2343   21.1916 O   0  0  0  0  0  0
  -31.4643  -12.5185   19.1386 H   0  0  0  0  0  0
  -30.3488  -11.4272   19.9135 H   0  0  0  0  0  0
  -29.7781  -11.7712   17.4660 H   0  0  0  0  0  0
  -29.6094  -13.4855   17.7476 H   0  0  0  0  0  0
  -27.9043  -11.2512   18.9037 H   0  0  0  0  0  0
  -27.3635  -12.4931   17.8029 H   0  0  0  0  0  0
  -27.6153  -14.1945   19.4468 H   0  0  0  0  0  0
  -28.7208  -12.1498   21.4405 H   0  0  0  0  0  0
  -28.4339  -13.8400   21.7800 H   0  0  0  0  0  0
  -25.2705   -9.5700   22.4777 H   0  0  0  0  0  0
  -23.9990   -7.4635   22.7489 H   0  0  0  0  0  0
  -21.0823   -8.8728   19.8943 H   0  0  0  0  0  0
  -22.3639  -10.9656   19.6188 H   0  0  0  0  0  0
  -21.1991   -7.6138   23.9702 H   0  0  0  0  0  0
  -21.1469   -6.0525   25.9069 H   0  0  0  0  0  0
  -22.0610   -2.7612   23.2865 H   0  0  0  0  0  0
  -22.4063  -11.9873   22.4756 H   0  0  0  0  0  0
  -21.1111  -13.1311   22.2614 H   0  0  0  0  0  0
  -24.6856  -15.8496   20.5274 H   0  0  0  0  0  0
  -26.3064  -15.6080   20.1135 H   0  0  0  0  0  0
  -26.7209  -32.5466   23.1155 H   0  0  0  0  0  0
  -25.0205  -33.9754   25.0532 H   0  0  0  0  0  0
  -22.7142  -31.3166   21.4104 H   0  0  0  0  0  0
  -23.3776  -35.9607   23.3232 H   0  0  0  0  0  0
  -24.3608  -36.8995   22.2065 H   0  0  0  0  0  0
  -23.7215  -37.6467   23.6697 H   0  0  0  0  0  0
  -26.0935  -31.5624   20.6114 H   0  0  0  0  0  0
  -26.8431  -30.8447   22.0068 H   0  0  0  0  0  0
  -28.1074  -28.9771   21.2084 H   0  0  0  0  0  0
  -25.9288  -25.9758   18.9624 H   0  0  0  0  0  0
  -23.9584  -27.3449   19.0002 H   0  0  0  0  0  0
  -23.7645  -30.6244   19.4137 H   0  0  0  0  0  0
  -22.7519  -29.2808   19.8465 H   0  0  0  0  0  0
  -25.1285  -36.1945   25.0820 H   0  0  0  0  0  0
  -20.9995  -28.3333   24.1375 H   0  0  0  0  0  0
  -20.5751  -26.2345   23.3611 H   0  0  0  0  0  0
  -21.6668  -26.7511   22.1174 H   0  0  0  0  0  0
  -19.6945  -25.6304   21.1263 H   0  0  0  0  0  0
  -19.6709  -27.3196   20.6742 H   0  0  0  0  0  0
  -17.4226  -26.6717   21.3994 H   0  0  0  0  0  0
  -18.0320  -26.0090   22.8998 H   0  0  0  0  0  0
  -19.7937  -30.7299   24.2252 H   0  0  0  0  0  0
  -17.5017  -31.6263   24.5202 H   0  0  0  0  0  0
  -15.5356  -30.2989   23.7684 H   0  0  0  0  0  0
  -15.8690  -28.0845   22.7058 H   0  0  0  0  0  0
  -24.5952  -30.7007   25.7804 H   0  0  0  0  0  0
  -24.8911  -32.2841   26.4896 H   0  0  0  0  0  0
  -25.8091  -30.8883   27.0256 H   0  0  0  0  0  0
  -26.2932  -29.6721   24.1263 H   0  0  0  0  0  0
  -27.4105  -29.7276   25.4697 H   0  0  0  0  0  0
  -27.8782  -30.4280   23.9395 H   0  0  0  0  0  0
  -27.2737  -33.3602   26.2090 H   0  0  0  0  0  0
  -28.3921  -32.6799   25.0361 H   0  0  0  0  0  0
  -28.0728  -31.8401   26.5453 H   0  0  0  0  0  0
  -28.2554  -38.0140   24.7576 H   0  0  0  0  0  0
  -28.1139  -36.2674   24.6186 H   0  0  0  0  0  0
  -27.2315  -37.1340   25.8854 H   0  0  0  0  0  0
  -20.9368  -29.8786   21.6839 H   0  0  0  0  0  0
  -26.0167  -38.2851   24.1453 H   0  0  0  0  0  0
  -31.9290  -18.0428   20.9395 H   0  0  0  0  0  0
  -31.2336  -18.7202   22.3742 H   0  0  0  0  0  0
  -28.1622  -17.9620   21.1378 H   0  0  0  0  0  0
  -28.2194  -18.4840   19.4806 H   0  0  0  0  0  0
  -29.7642  -16.7898   22.6862 H   0  0  0  0  0  0
  -31.3750  -16.2135   22.4393 H   0  0  0  0  0  0
  -29.8857  -16.6728   18.9378 H   0  0  0  0  0  0
  -28.3770  -16.0724   19.5320 H   0  0  0  0  0  0
  -30.4792  -19.1780   19.6376 H   0  0  0  0  0  0
  -30.9293  -26.1668   19.6792 H   0  0  0  0  0  0
  -30.0703  -25.6804   18.2091 H   0  0  0  0  0  0
  -31.7608  -25.2608   18.4208 H   0  0  0  0  0  0
  -32.3448  -20.4244   21.0938 H   0  0  0  0  0  0
  -33.2358  -21.5902   20.1543 H   0  0  0  0  0  0
  -32.3409  -20.3339   19.3148 H   0  0  0  0  0  0
  -28.1457  -22.9673   23.4278 H   0  0  0  0  0  0
  -26.4186  -22.7355   23.2886 H   0  0  0  0  0  0
  -27.1784  -24.1507   22.5765 H   0  0  0  0  0  0
  -27.1378  -24.7750   20.5451 H   0  0  0  0  0  0
  -27.7642  -24.9017   18.9313 H   0  0  0  0  0  0
  -27.5747  -21.2247   21.8253 H   0  0  0  0  0  0
  -26.1583  -23.1590   20.2141 H   0  0  0  0  0  0
  -25.5889  -21.8310   20.9710 H   0  0  0  0  0  0
  -26.6339  -21.6736   19.7394 H   0  0  0  0  0  0
  1 25  1  0  0  0
  1 30  2  0  0  0
  1 87  1  0  0  0
  2  3  1  0  0  0
  2 25  1  0  0  0
  2 90  1  0  0  0
  2 91  1  0  0  0
  3  4  1  0  0  0
  3 92  1  0  0  0
  3 93  1  0  0  0
  4  5  1  0  0  0
  4 94  1  0  0  0
  4 95  1  0  0  0
  5  6  1  0  0  0
  5 26  1  0  0  0
  5 96  1  0  0  0
  6 25  1  0  0  0
  6 97  1  0  0  0
  6 98  1  0  0  0
  7  8  2  0  0  0
  7 26  1  0  0  0
  7 29  1  0  0  0
  8  9  1  0  0  0
  8 22  1  0  0  0
  9 10  1  0  0  0
  9 27  2  0  0  0
 10 11  2  0  0  0
 10 15  1  0  0  0
 11 12  1  0  0  0
 11 99  1  0  0  0
 12 13  2  0  0  0
 12100  1  0  0  0
 13 14  1  0  0  0
 13 31  1  0  0  0
 14 15  2  0  0  0
 14101  1  0  0  0
 15102  1  0  0  0
 16 17  2  0  0  0
 16 21  1  0  0  0
 16 31  1  0  0  0
 17 18  1  0  0  0
 17103  1  0  0  0
 18 19  2  0  0  0
 18104  1  0  0  0
 19 20  1  0  0  0
 19 24  1  0  0  0
 20 21  2  0  0  0
 20105  1  0  0  0
 21 23  1  0  0  0
 22 28  1  0  0  0
 22 32  2  0  0  0
 26 27  1  0  0  0
 28106  1  0  0  0
 28107  1  0  0  0
 29108  1  0  0  0
 29109  1  0  0  0
 33 34  1  0  0  0
 33 66  1  0  0  0
 33 70  2  0  0  0
 34 36  1  0  0  0
 34 59  1  0  0  0
 34110  1  0  0  0
 35 44  2  0  0  0
 35 45  1  0  0  0
 35 68  1  0  0  0
 36 56  1  0  0  0
 36111  1  0  0  0
 37 39  1  0  0  0
 37 47  1  0  0  0
 37 66  1  0  0  0
 37112  1  0  0  0
 38 43  2  0  0  0
 38 46  1  0  0  0
 38 47  1  0  0  0
 39 64  1  0  0  0
 39 67  2  0  0  0
 40 52  1  0  0  0
 40 53  2  0  0  0
 40 58  1  0  0  0
 41113  1  0  0  0
 41114  1  0  0  0
 41115  1  0  0  0
 41 48  1  0  0  0
 42 43  1  0  0  0
 42 66  1  0  0  0
 42116  1  0  0  0
 42117  1  0  0  0
 43 44  1  0  0  0
 44118  1  0  0  0
 45 46  2  0  0  0
 45119  1  0  0  0
 46120  1  0  0  0
 47121  1  0  0  0
 47122  1  0  0  0
 48 56  1  0  0  0
 48 65  1  0  0  0
 48123  1  0  0  0
 49 50  1  0  0  0
 49 53  1  0  0  0
 49 64  1  0  0  0
 49124  1  0  0  0
 50 51  1  0  0  0
 50125  1  0  0  0
 50126  1  0  0  0
 51 52  1  0  0  0
 51127  1  0  0  0
 51128  1  0  0  0
 52129  1  0  0  0
 52130  1  0  0  0
 53 54  1  0  0  0
 54 55  2  0  0  0
 54131  1  0  0  0
 55 57  1  0  0  0
 55132  1  0  0  0
 56 69  2  0  0  0
 57 58  2  0  0  0
 57133  1  0  0  0
 58134  1  0  0  0
 59 60  1  0  0  0
 59 61  1  0  0  0
 59 62  1  0  0  0
 60135  1  0  0  0
 60136  1  0  0  0
 60137  1  0  0  0
 61138  1  0  0  0
 61139  1  0  0  0
 61140  1  0  0  0
 62141  1  0  0  0
 62142  1  0  0  0
 62143  1  0  0  0
 63 65  1  0  0  0
 63144  1  0  0  0
 63145  1  0  0  0
 63146  1  0  0  0
 64147  1  0  0  0
 65148  1  0  0  0
 68 84  1  0  0  0
 71 72  2  0  0  0
 71 73  1  0  0  0
 71 85  1  0  0  0
 72 74  1  0  0  0
 72 84  1  0  0  0
 73 75  2  0  0  0
 73 89  1  0  0  0
 74 81  1  0  0  0
 74 86  2  0  0  0
 75 82  1  0  0  0
 75 86  1  0  0  0
 76 78  1  0  0  0
 76 80  1  0  0  0
 76149  1  0  0  0
 76150  1  0  0  0
 77 79  1  0  0  0
 77 80  1  0  0  0
 77151  1  0  0  0
 77152  1  0  0  0
 78 87  1  0  0  0
 78153  1  0  0  0
 78154  1  0  0  0
 79 87  1  0  0  0
 79155  1  0  0  0
 79156  1  0  0  0
 80 89  1  0  0  0
 80157  1  0  0  0
 81158  1  0  0  0
 81159  1  0  0  0
 81160  1  0  0  0
 82161  1  0  0  0
 82162  1  0  0  0
 82163  1  0  0  0
 83164  1  0  0  0
 83165  1  0  0  0
 83166  1  0  0  0
 83 85  1  0  0  0
 84167  1  0  0  0
 84168  1  0  0  0
 85 88  1  0  0  0
 85169  1  0  0  0
 88170  1  0  0  0
 88171  1  0  0  0
 88172  1  0  0  0
M  CHG  1  88   1
M  ISO  4   1 100  68 101  84 101  87 100
M  END
> <chiral flag>
0

> <version>
0

> <s_m_source_file>
/data/baiqing/PycharmProjects/Reinvent-master-3.2/result/LINK_invent/BTK/process_docking_weight1_custom_sum_contain_oxygen_bond_distance_aromatic_linkinvent_7_9_3/rearranged_h_0160.sdf

> <i_m_source_file_index>
50

> <r_mmod_Potential_Energy-OPLS-2005>
-129.005599975586

> <r_mmod_Stretch_Energy-OPLS-2005>
88.5171737670898

> <r_mmod_Bend_Energy-OPLS-2005>
167.030426025391

> <r_mmod_Torsional_Energy-OPLS-2005>
358.792999267578

> <r_mmod_Improper_Torsional_Energy-OPLS-2005>
6.874192237854

> <r_mmod_Van_der_Waal_Energy-OPLS-2005>
168.484786987305

> <r_mmod_Electrostatic_Energy-OPLS-2005>
-477.890380859375

> <r_mmod_Solvation_Energy-OPLS-2005>
-495.683685302734

> <b_mmod_Minimization_Converged-OPLS-2005>
0

> <r_mmod_RMS_Derivative-OPLS-2005>
1.8029180765152

$$$$
50
                    3D
 Structure written by MMmdl.
181190  0  0  1  0            999 V2000
  -30.7090  -14.4374   20.6023 C   0  0  0  0  0  0
  -30.4269  -12.2973   19.4084 C   0  0  0  0  0  0
  -29.4989  -12.5140   18.1967 C   0  0  0  0  0  0
  -28.0173  -12.3750   18.6049 C   0  0  0  0  0  0
  -27.6633  -13.2055   19.8690 C   0  0  2  0  0  0
  -28.7020  -12.9609   20.9846 C   0  0  0  0  0  0
  -25.2592  -13.8171   20.5630 C   0  0  0  0  0  0
  -24.1842  -13.0449   20.9135 C   0  0  0  0  0  0
  -24.6404  -11.6914   20.8686 C   0  0  0  0  0  0
  -23.9073  -10.4297   21.0357 C   0  0  0  0  0  0
  -24.3629   -9.4215   21.9146 C   0  0  0  0  0  0
  -23.6283   -8.2261   22.0741 C   0  0  0  0  0  0
  -22.4256   -8.0310   21.3548 C   0  0  0  0  0  0
  -21.9890   -9.0282   20.4643 C   0  0  0  0  0  0
  -22.7246  -10.2136   20.3013 C   0  0  0  0  0  0
  -21.6864   -6.0751   22.5268 C   0  0  0  0  0  0
  -21.4046   -6.5649   23.8209 C   0  0  0  0  0  0
  -21.3629   -5.6788   24.9156 C   0  0  0  0  0  0
  -21.6016   -4.3053   24.7193 C   0  0  0  0  0  0
  -21.8834   -3.8160   23.4313 C   0  0  0  0  0  0
  -21.9193   -4.6982   22.3379 C   0  0  0  0  0  0
  -22.7859  -13.5242   21.1798 C   0  0  0  0  0  0
  -22.1669   -4.2181   21.0950 F   0  0  0  0  0  0
  -21.5577   -3.4526   25.7694 F   0  0  0  0  0  0
  -30.0368  -13.2694   20.4397 N   0  0  0  0  0  0
  -26.3027  -12.9336   20.3292 N   0  0  0  0  0  0
  -25.9330  -11.6494   20.5691 N   0  0  0  0  0  0
  -22.0496  -12.8265   22.0368 N   0  0  0  0  0  0
  -25.4321  -15.1890   20.4063 N   0  0  0  0  0  0
  -31.8409  -14.6352   20.1535 O   0  0  0  0  0  0
  -21.6639   -6.8896   21.4232 O   0  0  0  0  0  0
  -22.3535  -14.5536   20.6629 O   0  0  0  0  0  0
  -24.6138  -31.8687   23.2110 C   0  0  0  0  0  0
  -25.9036  -32.4827   23.8403 C   0  0  1  0  0  0
  -27.2414  -27.4436   20.1058 C   0  0  0  0  0  0
  -25.5887  -33.8623   24.2337 N   0  0  0  0  0  0
  -23.4024  -30.4888   21.5516 C   0  0  2  0  0  0
  -24.8517  -28.9464   20.1255 C   0  0  0  0  0  0
  -22.7407  -29.4660   22.5021 C   0  0  0  0  0  0
  -18.0271  -28.1373   22.8491 C   0  0  0  0  0  0
  -24.1482  -36.7320   23.2638 C   0  0  0  0  0  0
  -25.9292  -30.8324   21.3653 C   0  0  0  0  0  0
  -26.0074  -29.4616   20.7269 C   0  0  0  0  0  0
  -27.2073  -28.7141   20.7219 C   0  0  0  0  0  0
  -26.0735  -26.9339   19.5070 C   0  0  0  0  0  0
  -24.8770  -27.6782   19.5166 C   0  0  0  0  0  0
  -23.6127  -29.8142   20.1688 C   0  0  0  0  0  0
  -25.4103  -36.3120   24.0344 C   0  0  1  0  0  0
  -20.5856  -28.3664   23.1323 C   0  0  2  0  0  0
  -20.6762  -26.9404   22.5416 C   0  0  0  0  0  0
  -19.5745  -26.6390   21.5207 C   0  0  0  0  0  0
  -18.1923  -26.7922   22.1619 C   0  0  0  0  0  0
  -19.1519  -28.8835   23.2898 C   0  0  0  0  0  0
  -18.9444  -30.1444   23.8913 C   0  0  0  0  0  0
  -17.6448  -30.6583   24.0567 C   0  0  0  0  0  0
  -25.9024  -34.9478   23.5140 C   0  0  0  0  0  0
  -16.5342  -29.9088   23.6323 C   0  0  0  0  0  0
  -16.7259  -28.6499   23.0352 C   0  0  0  0  0  0
  -26.4466  -31.6591   25.0720 C   0  0  0  0  0  0
  -25.3741  -31.3694   26.1479 C   0  0  0  0  0  0
  -27.0292  -30.3035   24.6076 C   0  0  0  0  0  0
  -27.6050  -32.4307   25.7467 C   0  0  0  0  0  0
  -27.5583  -37.1809   24.8465 C   0  0  0  0  0  0
  -21.4137  -29.3032   22.3740 N   0  0  0  0  0  0
  -26.4294  -37.3801   23.9412 N   0  0  0  0  0  0
  -24.6662  -31.0783   22.1016 N   0  0  0  0  0  0
  -23.4172  -28.8221   23.3082 O   0  0  0  0  0  0
  -28.4110  -26.7329   19.9889 O   0  0  0  0  0  0
  -26.5594  -34.8931   22.4703 O   0  0  0  0  0  0
  -23.5329  -32.1444   23.7507 O   0  0  0  0  0  0
  -28.2746  -22.0661   21.2737 C   0  0  0  0  0  0
  -29.8159  -22.5673   19.4299 C   0  0  0  0  0  0
  -28.1245  -23.4614   21.5267 C   0  0  0  0  0  0
  -29.7204  -23.9549   19.7367 C   0  0  0  0  0  0
  -29.1055  -21.6021   20.2093 C   0  0  0  0  0  0
  -28.8646  -24.4167   20.7755 C   0  0  0  0  0  0
  -30.8901  -17.6277   19.0137 C   0  0  0  0  0  0
  -31.5399  -19.5551   20.3615 C   0  0  0  0  0  0
  -31.9953  -18.6872   19.1725 C   0  0  1  0  0  0
  -29.9759  -17.7811   20.2479 C   0  0  1  0  0  0
  -27.4993  -21.0771   22.1513 C   0  0  0  0  0  0
  -30.6963  -22.1680   18.2378 C   0  0  0  0  0  0
  -27.1635  -23.9335   22.6225 C   0  0  0  0  0  0
  -30.5378  -24.9532   18.9092 C   0  0  0  0  0  0
  -33.4070  -18.0963   19.3457 C   0  0  0  0  0  0
  -29.7061  -17.2430   22.7590 C   0  0  0  0  0  0
  -29.1348  -20.0898   19.8524 C   0  0  0  0  0  0
  -28.7999  -25.9275   21.1037 C   0  0  0  0  0  0
  -30.3667  -16.8244   21.4300 C   0  0  1  0  0  0
  -29.9919  -15.4213   21.1744 N   0  0  0  0  0  0
  -30.1154  -19.2280   20.5937 N   0  3  2  0  0  0
  -31.4727  -12.3979   19.1140 H   0  0  0  0  0  0
  -30.3260  -11.2814   19.7906 H   0  0  0  0  0  0
  -29.7429  -11.8068   17.4032 H   0  0  0  0  0  0
  -29.6692  -13.5079   17.7804 H   0  0  0  0  0  0
  -27.8215  -11.3171   18.7853 H   0  0  0  0  0  0
  -27.3726  -12.6643   17.7740 H   0  0  0  0  0  0
  -27.7154  -14.2557   19.5813 H   0  0  0  0  0  0
  -28.6678  -11.9176   21.2997 H   0  0  0  0  0  0
  -28.4622  -13.5367   21.8789 H   0  0  0  0  0  0
  -25.2774   -9.5675   22.4720 H   0  0  0  0  0  0
  -23.9992   -7.4625   22.7456 H   0  0  0  0  0  0
  -21.0816   -8.8803   19.8948 H   0  0  0  0  0  0
  -22.3725  -10.9663   19.6100 H   0  0  0  0  0  0
  -21.2129   -7.6168   23.9731 H   0  0  0  0  0  0
  -21.1395   -6.0506   25.9052 H   0  0  0  0  0  0
  -22.0648   -2.7628   23.2789 H   0  0  0  0  0  0
  -22.4138  -11.9964   22.4802 H   0  0  0  0  0  0
  -21.1087  -13.1259   22.2523 H   0  0  0  0  0  0
  -24.6656  -15.8447   20.5133 H   0  0  0  0  0  0
  -26.2839  -15.6248   20.0793 H   0  0  0  0  0  0
  -26.7114  -32.5545   23.1174 H   0  0  0  0  0  0
  -25.0047  -33.9788   25.0488 H   0  0  0  0  0  0
  -22.6919  -31.3055   21.4099 H   0  0  0  0  0  0
  -23.3741  -35.9653   23.3314 H   0  0  0  0  0  0
  -24.3579  -36.8918   22.2048 H   0  0  0  0  0  0
  -23.7234  -37.6531   23.6639 H   0  0  0  0  0  0
  -26.0362  -31.5900   20.5882 H   0  0  0  0  0  0
  -26.8196  -30.8959   21.9783 H   0  0  0  0  0  0
  -28.1060  -29.1158   21.1673 H   0  0  0  0  0  0
  -26.0983  -25.9670   19.0241 H   0  0  0  0  0  0
  -23.9911  -27.2764   19.0460 H   0  0  0  0  0  0
  -23.7209  -30.5848   19.4045 H   0  0  0  0  0  0
  -22.7379  -29.2305   19.8769 H   0  0  0  0  0  0
  -25.1272  -36.1993   25.0835 H   0  0  0  0  0  0
  -20.9940  -28.3227   24.1448 H   0  0  0  0  0  0
  -20.5672  -26.2275   23.3601 H   0  0  0  0  0  0
  -21.6638  -26.7458   22.1210 H   0  0  0  0  0  0
  -19.6912  -25.6308   21.1230 H   0  0  0  0  0  0
  -19.6682  -27.3209   20.6747 H   0  0  0  0  0  0
  -17.4195  -26.6674   21.4018 H   0  0  0  0  0  0
  -18.0320  -26.0056   22.9005 H   0  0  0  0  0  0
  -19.7919  -30.7246   24.2296 H   0  0  0  0  0  0
  -17.5007  -31.6267   24.5163 H   0  0  0  0  0  0
  -15.5346  -30.2995   23.7637 H   0  0  0  0  0  0
  -15.8659  -28.0823   22.7070 H   0  0  0  0  0  0
  -24.5902  -30.7056   25.7820 H   0  0  0  0  0  0
  -24.8947  -32.2848   26.4950 H   0  0  0  0  0  0
  -25.8100  -30.8844   27.0220 H   0  0  0  0  0  0
  -26.2825  -29.6797   24.1152 H   0  0  0  0  0  0
  -27.4099  -29.7269   25.4514 H   0  0  0  0  0  0
  -27.8641  -30.4368   23.9197 H   0  0  0  0  0  0
  -27.2681  -33.3603   26.2063 H   0  0  0  0  0  0
  -28.3831  -32.6870   25.0266 H   0  0  0  0  0  0
  -28.0744  -31.8419   26.5356 H   0  0  0  0  0  0
  -28.2606  -38.0104   24.7523 H   0  0  0  0  0  0
  -28.1077  -36.2638   24.6272 H   0  0  0  0  0  0
  -27.2310  -37.1442   25.8872 H   0  0  0  0  0  0
  -20.9318  -29.8730   21.6928 H   0  0  0  0  0  0
  -26.0190  -38.2882   24.1412 H   0  0  0  0  0  0
  -31.2796  -16.6255   18.8659 H   0  0  0  0  0  0
  -30.3147  -17.8476   18.1136 H   0  0  0  0  0  0
  -31.7373  -20.6170   20.2261 H   0  0  0  0  0  0
  -32.0877  -19.2681   21.2603 H   0  0  0  0  0  0
  -32.0033  -19.3001   18.2713 H   0  0  0  0  0  0
  -28.9441  -17.5567   19.9763 H   0  0  0  0  0  0
  -27.5508  -21.3650   23.2014 H   0  0  0  0  0  0
  -27.8725  -20.0575   22.1276 H   0  0  0  0  0  0
  -26.4485  -21.0528   21.8582 H   0  0  0  0  0  0
  -31.7495  -22.2929   18.4898 H   0  0  0  0  0  0
  -30.4879  -22.8017   17.3749 H   0  0  0  0  0  0
  -30.5835  -21.1544   17.8749 H   0  0  0  0  0  0
  -26.3460  -23.2389   22.8058 H   0  0  0  0  0  0
  -26.6559  -24.8622   22.3657 H   0  0  0  0  0  0
  -27.7040  -24.0738   23.5596 H   0  0  0  0  0  0
  -30.0370  -25.1447   17.9594 H   0  0  0  0  0  0
  -31.5417  -24.5851   18.7016 H   0  0  0  0  0  0
  -30.6955  -25.9151   19.3903 H   0  0  0  0  0  0
  -33.4783  -17.4636   20.2311 H   0  0  0  0  0  0
  -34.1561  -18.8845   19.4362 H   0  0  0  0  0  0
  -33.6859  -17.4840   18.4870 H   0  0  0  0  0  0
  -30.0184  -18.2369   23.0809 H   0  0  0  0  0  0
  -29.9845  -16.5608   23.5645 H   0  0  0  0  0  0
  -28.6180  -17.2396   22.6877 H   0  0  0  0  0  0
  -29.2503  -19.9372   18.7838 H   0  0  0  0  0  0
  -28.1331  -19.6896   20.0109 H   0  0  0  0  0  0
  -29.8069  -26.2343   21.3850 H   0  0  0  0  0  0
  -28.2208  -26.1732   21.9899 H   0  0  0  0  0  0
  -31.4471  -16.8641   21.5829 H   0  0  0  0  0  0
  -29.0701  -15.1424   21.4765 H   0  0  0  0  0  0
  -29.9202  -19.3415   21.5769 H   0  0  0  0  0  0
  1 25  1  0  0  0
  1 30  2  0  0  0
  1 90  1  0  0  0
  2  3  1  0  0  0
  2 25  1  0  0  0
  2 92  1  0  0  0
  2 93  1  0  0  0
  3  4  1  0  0  0
  3 94  1  0  0  0
  3 95  1  0  0  0
  4  5  1  0  0  0
  4 96  1  0  0  0
  4 97  1  0  0  0
  5  6  1  0  0  0
  5 26  1  0  0  0
  5 98  1  0  0  0
  6 25  1  0  0  0
  6 99  1  0  0  0
  6100  1  0  0  0
  7  8  2  0  0  0
  7 26  1  0  0  0
  7 29  1  0  0  0
  8  9  1  0  0  0
  8 22  1  0  0  0
  9 10  1  0  0  0
  9 27  2  0  0  0
 10 11  2  0  0  0
 10 15  1  0  0  0
 11 12  1  0  0  0
 11101  1  0  0  0
 12 13  2  0  0  0
 12102  1  0  0  0
 13 14  1  0  0  0
 13 31  1  0  0  0
 14 15  2  0  0  0
 14103  1  0  0  0
 15104  1  0  0  0
 16 17  2  0  0  0
 16 21  1  0  0  0
 16 31  1  0  0  0
 17 18  1  0  0  0
 17105  1  0  0  0
 18 19  2  0  0  0
 18106  1  0  0  0
 19 20  1  0  0  0
 19 24  1  0  0  0
 20 21  2  0  0  0
 20107  1  0  0  0
 21 23  1  0  0  0
 22 28  1  0  0  0
 22 32  2  0  0  0
 26 27  1  0  0  0
 28108  1  0  0  0
 28109  1  0  0  0
 29110  1  0  0  0
 29111  1  0  0  0
 33 34  1  0  0  0
 33 66  1  0  0  0
 33 70  2  0  0  0
 34 36  1  0  0  0
 34 59  1  0  0  0
 34112  1  0  0  0
 35 44  2  0  0  0
 35 45  1  0  0  0
 35 68  1  0  0  0
 36 56  1  0  0  0
 36113  1  0  0  0
 37 39  1  0  0  0
 37 47  1  0  0  0
 37 66  1  0  0  0
 37114  1  0  0  0
 38 43  2  0  0  0
 38 46  1  0  0  0
 38 47  1  0  0  0
 39 64  1  0  0  0
 39 67  2  0  0  0
 40 52  1  0  0  0
 40 53  2  0  0  0
 40 58  1  0  0  0
 41115  1  0  0  0
 41116  1  0  0  0
 41117  1  0  0  0
 41 48  1  0  0  0
 42 43  1  0  0  0
 42 66  1  0  0  0
 42118  1  0  0  0
 42119  1  0  0  0
 43 44  1  0  0  0
 44120  1  0  0  0
 45 46  2  0  0  0
 45121  1  0  0  0
 46122  1  0  0  0
 47123  1  0  0  0
 47124  1  0  0  0
 48 56  1  0  0  0
 48 65  1  0  0  0
 48125  1  0  0  0
 49 50  1  0  0  0
 49 53  1  0  0  0
 49 64  1  0  0  0
 49126  1  0  0  0
 50 51  1  0  0  0
 50127  1  0  0  0
 50128  1  0  0  0
 51 52  1  0  0  0
 51129  1  0  0  0
 51130  1  0  0  0
 52131  1  0  0  0
 52132  1  0  0  0
 53 54  1  0  0  0
 54 55  2  0  0  0
 54133  1  0  0  0
 55 57  1  0  0  0
 55134  1  0  0  0
 56 69  2  0  0  0
 57 58  2  0  0  0
 57135  1  0  0  0
 58136  1  0  0  0
 59 60  1  0  0  0
 59 61  1  0  0  0
 59 62  1  0  0  0
 60137  1  0  0  0
 60138  1  0  0  0
 60139  1  0  0  0
 61140  1  0  0  0
 61141  1  0  0  0
 61142  1  0  0  0
 62143  1  0  0  0
 62144  1  0  0  0
 62145  1  0  0  0
 63 65  1  0  0  0
 63146  1  0  0  0
 63147  1  0  0  0
 63148  1  0  0  0
 64149  1  0  0  0
 65150  1  0  0  0
 68 88  1  0  0  0
 71 73  2  0  0  0
 71 75  1  0  0  0
 71 81  1  0  0  0
 72 74  1  0  0  0
 72 75  2  0  0  0
 72 82  1  0  0  0
 73 76  1  0  0  0
 73 83  1  0  0  0
 74 76  2  0  0  0
 74 84  1  0  0  0
 75 87  1  0  0  0
 76 88  1  0  0  0
 77 79  1  0  0  0
 77151  1  0  0  0
 77152  1  0  0  0
 77 80  1  0  0  0
 78 79  1  0  0  0
 78 91  1  0  0  0
 78153  1  0  0  0
 78154  1  0  0  0
 79 85  1  0  0  0
 79155  1  0  0  0
 80 89  1  0  0  0
 80 91  1  0  0  0
 80156  1  0  0  0
 81157  1  0  0  0
 81158  1  0  0  0
 81159  1  0  0  0
 82160  1  0  0  0
 82161  1  0  0  0
 82162  1  0  0  0
 83163  1  0  0  0
 83164  1  0  0  0
 83165  1  0  0  0
 84166  1  0  0  0
 84167  1  0  0  0
 84168  1  0  0  0
 85169  1  0  0  0
 85170  1  0  0  0
 85171  1  0  0  0
 86172  1  0  0  0
 86173  1  0  0  0
 86174  1  0  0  0
 86 89  1  0  0  0
 87175  1  0  0  0
 87176  1  0  0  0
 87 91  1  0  0  0
 88177  1  0  0  0
 88178  1  0  0  0
 89 90  1  0  0  0
 89179  1  0  0  0
 90180  1  0  0  0
 91181  1  0  0  0
M  CHG  1  91   1
M  ISO  4   1 100  68 101  88 101  90 100
M  END
> <chiral flag>
0

> <version>
0

> <s_m_source_file>
/data/baiqing/PycharmProjects/Reinvent-master-3.2/result/LINK_invent/BTK/process_docking_weight1_custom_sum_contain_oxygen_bond_distance_aromatic_linkinvent_7_9_3/rearranged_h_0160.sdf

> <i_m_source_file_index>
51

> <r_mmod_Potential_Energy-OPLS-2005>
-43.2868843078613

> <r_mmod_Stretch_Energy-OPLS-2005>
50.9051704406738

> <r_mmod_Bend_Energy-OPLS-2005>
135.933837890625

> <r_mmod_Torsional_Energy-OPLS-2005>
318.265747070312

> <r_mmod_Improper_Torsional_Energy-OPLS-2005>
3.55724501609802

> <r_mmod_Van_der_Waal_Energy-OPLS-2005>
167.266479492188

> <r_mmod_Electrostatic_Energy-OPLS-2005>
-317.396240234375

> <r_mmod_Solvation_Energy-OPLS-2005>
-411.967620849609

> <b_mmod_Minimization_Converged-OPLS-2005>
0

> <r_mmod_RMS_Derivative-OPLS-2005>
2.82715368270874

$$$$
51
                    3D
 Structure written by MMmdl.
166175  0  0  1  0            999 V2000
  -30.5871  -14.6704   20.4795 C   0  0  0  0  0  0
  -30.4415  -12.4072   19.4490 C   0  0  0  0  0  0
  -29.5061  -12.4961   18.2216 C   0  0  0  0  0  0
  -28.0298  -12.3285   18.6390 C   0  0  0  0  0  0
  -27.6493  -13.2096   19.8583 C   0  0  2  0  0  0
  -28.6951  -13.0776   20.9865 C   0  0  0  0  0  0
  -25.2567  -13.8152   20.5685 C   0  0  0  0  0  0
  -24.1830  -13.0436   20.9215 C   0  0  0  0  0  0
  -24.6387  -11.6903   20.8776 C   0  0  0  0  0  0
  -23.9058  -10.4291   21.0427 C   0  0  0  0  0  0
  -24.3609   -9.4202   21.9201 C   0  0  0  0  0  0
  -23.6292   -8.2237   22.0759 C   0  0  0  0  0  0
  -22.4274   -8.0280   21.3552 C   0  0  0  0  0  0
  -21.9914   -9.0245   20.4641 C   0  0  0  0  0  0
  -22.7240  -10.2129   20.3057 C   0  0  0  0  0  0
  -21.6852   -6.0742   22.5281 C   0  0  0  0  0  0
  -21.4005   -6.5640   23.8219 C   0  0  0  0  0  0
  -21.3658   -5.6786   24.9175 C   0  0  0  0  0  0
  -21.6045   -4.3050   24.7223 C   0  0  0  0  0  0
  -21.8820   -3.8149   23.4343 C   0  0  0  0  0  0
  -21.9191   -4.6969   22.3404 C   0  0  0  0  0  0
  -22.7850  -13.5240   21.1857 C   0  0  0  0  0  0
  -22.1662   -4.2157   21.0980 F   0  0  0  0  0  0
  -21.5629   -3.4531   25.7733 F   0  0  0  0  0  0
  -30.0016  -13.4330   20.4141 N   0  0  0  0  0  0
  -26.2968  -12.9313   20.3305 N   0  0  0  0  0  0
  -25.9307  -11.6481   20.5767 N   0  0  0  0  0  0
  -22.0484  -12.8210   22.0390 N   0  0  0  0  0  0
  -25.4289  -15.1860   20.4039 N   0  0  0  0  0  0
  -31.7656  -14.8428   20.1566 O   0  0  0  0  0  0
  -21.6635   -6.8883   21.4243 O   0  0  0  0  0  0
  -22.3563  -14.5569   20.6730 O   0  0  0  0  0  0
  -24.6277  -31.8576   23.1981 C   0  0  0  0  0  0
  -25.9117  -32.4775   23.8318 C   0  0  1  0  0  0
  -27.2223  -27.2978   20.1323 C   0  0  0  0  0  0
  -25.5942  -33.8577   24.2257 N   0  0  0  0  0  0
  -23.4210  -30.4788   21.5425 C   0  0  2  0  0  0
  -24.8657  -28.9190   20.1187 C   0  0  0  0  0  0
  -22.7473  -29.4621   22.4943 C   0  0  0  0  0  0
  -18.0284  -28.1390   22.8487 C   0  0  0  0  0  0
  -24.1492  -36.7274   23.2639 C   0  0  0  0  0  0
  -25.9611  -30.7833   21.3668 C   0  0  0  0  0  0
  -26.0347  -29.4041   20.7187 C   0  0  0  0  0  0
  -27.2183  -28.6080   20.7068 C   0  0  0  0  0  0
  -26.0296  -26.8541   19.5278 C   0  0  0  0  0  0
  -24.8662  -27.6496   19.5148 C   0  0  0  0  0  0
  -23.6356  -29.8035   20.1611 C   0  0  0  0  0  0
  -25.4117  -36.3071   24.0324 C   0  0  1  0  0  0
  -20.5882  -28.3691   23.1284 C   0  0  2  0  0  0
  -20.6775  -26.9419   22.5401 C   0  0  0  0  0  0
  -19.5749  -26.6392   21.5206 C   0  0  0  0  0  0
  -18.1924  -26.7942   22.1609 C   0  0  0  0  0  0
  -19.1535  -28.8857   23.2883 C   0  0  0  0  0  0
  -18.9462  -30.1463   23.8897 C   0  0  0  0  0  0
  -17.6464  -30.6593   24.0572 C   0  0  0  0  0  0
  -25.9060  -34.9453   23.5076 C   0  0  0  0  0  0
  -16.5349  -29.9089   23.6343 C   0  0  0  0  0  0
  -16.7269  -28.6512   23.0352 C   0  0  0  0  0  0
  -26.4493  -31.6592   25.0693 C   0  0  0  0  0  0
  -25.3737  -31.3731   26.1431 C   0  0  0  0  0  0
  -27.0339  -30.3028   24.6128 C   0  0  0  0  0  0
  -27.6041  -32.4346   25.7471 C   0  0  0  0  0  0
  -27.5574  -37.1800   24.8465 C   0  0  0  0  0  0
  -21.4182  -29.3052   22.3689 N   0  0  0  0  0  0
  -26.4283  -37.3775   23.9411 N   0  0  0  0  0  0
  -24.6896  -31.0582   22.0926 N   0  0  0  0  0  0
  -23.4196  -28.8168   23.3028 O   0  0  0  0  0  0
  -28.3599  -26.4824   20.0858 O   0  0  0  0  0  0
  -26.5618  -34.8929   22.4640 O   0  0  0  0  0  0
  -23.5443  -32.1357   23.7317 O   0  0  0  0  0  0
  -29.9367  -18.0714   19.5495 C   0  0  0  0  0  0
  -28.7158  -17.8452   21.6216 C   0  0  0  0  0  0
  -29.7144  -24.3979   20.4703 C   0  0  0  0  0  0
  -27.7717  -23.8241   19.9584 C   0  0  0  0  0  0
  -30.0863  -19.6378   19.7787 C   0  0  0  0  0  0
  -28.8175  -19.3871   21.8869 C   0  0  0  0  0  0
  -29.0969  -22.9897   20.1449 C   0  0  2  0  0  0
  -29.9107  -17.2190   20.8565 C   0  0  1  0  0  0
  -28.3474  -25.1058   20.6496 C   0  0  2  0  0  0
  -30.6700  -22.5474   23.2463 C   0  0  0  0  0  0
  -30.7029  -21.8619   21.8669 C   0  0  0  0  0  0
  -29.3182  -21.7459   21.1493 C   0  0  2  0  0  0
  -29.7309  -15.7185   20.7233 N   0  0  0  0  0  0
  -29.0723  -20.2836   20.6972 N   0  3  1  0  0  0
  -31.4795  -12.5502   19.1444 H   0  0  0  0  0  0
  -30.3950  -11.4151   19.9004 H   0  0  0  0  0  0
  -29.7745  -11.7332   17.4892 H   0  0  0  0  0  0
  -29.6396  -13.4566   17.7224 H   0  0  0  0  0  0
  -27.8741  -11.2771   18.8836 H   0  0  0  0  0  0
  -27.3698  -12.5425   17.7974 H   0  0  0  0  0  0
  -27.6617  -14.2404   19.5060 H   0  0  0  0  0  0
  -28.7175  -12.0575   21.3735 H   0  0  0  0  0  0
  -28.4404  -13.7136   21.8362 H   0  0  0  0  0  0
  -25.2749   -9.5684   22.4775 H   0  0  0  0  0  0
  -24.0006   -7.4621   22.7464 H   0  0  0  0  0  0
  -21.0860   -8.8751   19.8925 H   0  0  0  0  0  0
  -22.3705  -10.9666   19.6157 H   0  0  0  0  0  0
  -21.1988   -7.6147   23.9729 H   0  0  0  0  0  0
  -21.1480   -6.0510   25.9081 H   0  0  0  0  0  0
  -22.0601   -2.7608   23.2831 H   0  0  0  0  0  0
  -22.4063  -11.9826   22.4722 H   0  0  0  0  0  0
  -21.1093  -13.1227   22.2577 H   0  0  0  0  0  0
  -24.6533  -15.8336   20.4901 H   0  0  0  0  0  0
  -26.2515  -15.6104   19.9969 H   0  0  0  0  0  0
  -26.7175  -32.5413   23.1057 H   0  0  0  0  0  0
  -25.0166  -33.9732   25.0455 H   0  0  0  0  0  0
  -22.7154  -31.2991   21.3944 H   0  0  0  0  0  0
  -23.3780  -35.9581   23.3283 H   0  0  0  0  0  0
  -24.3580  -36.8912   22.2057 H   0  0  0  0  0  0
  -23.7223  -37.6458   23.6672 H   0  0  0  0  0  0
  -26.0889  -31.5396   20.5909 H   0  0  0  0  0  0
  -26.8451  -30.8391   21.9902 H   0  0  0  0  0  0
  -28.1245  -28.9874   21.1594 H   0  0  0  0  0  0
  -25.9957  -25.8833   19.0549 H   0  0  0  0  0  0
  -23.9696  -27.2716   19.0419 H   0  0  0  0  0  0
  -23.7545  -30.5738   19.3987 H   0  0  0  0  0  0
  -22.7542  -29.2341   19.8605 H   0  0  0  0  0  0
  -25.1311  -36.1897   25.0818 H   0  0  0  0  0  0
  -20.9962  -28.3242   24.1407 H   0  0  0  0  0  0
  -20.5685  -26.2297   23.3597 H   0  0  0  0  0  0
  -21.6642  -26.7458   22.1181 H   0  0  0  0  0  0
  -19.6917  -25.6307   21.1223 H   0  0  0  0  0  0
  -19.6688  -27.3220   20.6751 H   0  0  0  0  0  0
  -17.4199  -26.6709   21.4003 H   0  0  0  0  0  0
  -18.0320  -26.0077   22.8997 H   0  0  0  0  0  0
  -19.7935  -30.7277   24.2262 H   0  0  0  0  0  0
  -17.5018  -31.6278   24.5173 H   0  0  0  0  0  0
  -15.5351  -30.2995   23.7689 H   0  0  0  0  0  0
  -15.8661  -28.0836   22.7069 H   0  0  0  0  0  0
  -24.5898  -30.7095   25.7769 H   0  0  0  0  0  0
  -24.8951  -32.2902   26.4875 H   0  0  0  0  0  0
  -25.8067  -30.8891   27.0193 H   0  0  0  0  0  0
  -26.2887  -29.6792   24.1178 H   0  0  0  0  0  0
  -27.4096  -29.7272   25.4599 H   0  0  0  0  0  0
  -27.8735  -30.4356   23.9299 H   0  0  0  0  0  0
  -27.2653  -33.3709   26.1928 H   0  0  0  0  0  0
  -28.3913  -32.6805   25.0328 H   0  0  0  0  0  0
  -28.0635  -31.8542   26.5487 H   0  0  0  0  0  0
  -28.2574  -38.0119   24.7524 H   0  0  0  0  0  0
  -28.1084  -36.2639   24.6266 H   0  0  0  0  0  0
  -27.2286  -37.1411   25.8869 H   0  0  0  0  0  0
  -20.9363  -29.8770   21.6894 H   0  0  0  0  0  0
  -26.0153  -38.2839   24.1426 H   0  0  0  0  0  0
  -30.7575  -17.7275   18.9197 H   0  0  0  0  0  0
  -29.0299  -17.8786   18.9741 H   0  0  0  0  0  0
  -27.7894  -17.6420   21.0818 H   0  0  0  0  0  0
  -28.6050  -17.3431   22.5841 H   0  0  0  0  0  0
  -30.2751  -24.7994   19.6249 H   0  0  0  0  0  0
  -30.3220  -24.4547   21.3701 H   0  0  0  0  0  0
  -26.9116  -23.3997   20.4792 H   0  0  0  0  0  0
  -27.5342  -23.9924   18.9069 H   0  0  0  0  0  0
  -30.0354  -20.1441   18.8143 H   0  0  0  0  0  0
  -31.0948  -19.8134   20.1458 H   0  0  0  0  0  0
  -29.5920  -19.5311   22.6393 H   0  0  0  0  0  0
  -27.8911  -19.7104   22.3648 H   0  0  0  0  0  0
  -29.4602  -22.7075   19.1553 H   0  0  0  0  0  0
  -30.8318  -17.3929   21.4156 H   0  0  0  0  0  0
  -28.0624  -25.1271   21.7035 H   0  0  0  0  0  0
  -31.1307  -21.9081   24.0006 H   0  0  0  0  0  0
  -29.6607  -22.7717   23.5902 H   0  0  0  0  0  0
  -31.2298  -23.4823   23.2412 H   0  0  0  0  0  0
  -31.1687  -20.8910   22.0237 H   0  0  0  0  0  0
  -31.4170  -22.3731   21.2205 H   0  0  0  0  0  0
  -28.5523  -21.8815   21.9133 H   0  0  0  0  0  0
  -28.7939  -15.3980   20.9143 H   0  0  0  0  0  0
  -28.2031  -20.3004   20.1826 H   0  0  0  0  0  0
  1 25  1  0  0  0
  1 30  2  0  0  0
  1 83  1  0  0  0
  2  3  1  0  0  0
  2 25  1  0  0  0
  2 85  1  0  0  0
  2 86  1  0  0  0
  3  4  1  0  0  0
  3 87  1  0  0  0
  3 88  1  0  0  0
  4  5  1  0  0  0
  4 89  1  0  0  0
  4 90  1  0  0  0
  5  6  1  0  0  0
  5 26  1  0  0  0
  5 91  1  0  0  0
  6 25  1  0  0  0
  6 92  1  0  0  0
  6 93  1  0  0  0
  7  8  2  0  0  0
  7 26  1  0  0  0
  7 29  1  0  0  0
  8  9  1  0  0  0
  8 22  1  0  0  0
  9 10  1  0  0  0
  9 27  2  0  0  0
 10 11  2  0  0  0
 10 15  1  0  0  0
 11 12  1  0  0  0
 11 94  1  0  0  0
 12 13  2  0  0  0
 12 95  1  0  0  0
 13 14  1  0  0  0
 13 31  1  0  0  0
 14 15  2  0  0  0
 14 96  1  0  0  0
 15 97  1  0  0  0
 16 17  2  0  0  0
 16 21  1  0  0  0
 16 31  1  0  0  0
 17 18  1  0  0  0
 17 98  1  0  0  0
 18 19  2  0  0  0
 18 99  1  0  0  0
 19 20  1  0  0  0
 19 24  1  0  0  0
 20 21  2  0  0  0
 20100  1  0  0  0
 21 23  1  0  0  0
 22 28  1  0  0  0
 22 32  2  0  0  0
 26 27  1  0  0  0
 28101  1  0  0  0
 28102  1  0  0  0
 29103  1  0  0  0
 29104  1  0  0  0
 33 34  1  0  0  0
 33 66  1  0  0  0
 33 70  2  0  0  0
 34 36  1  0  0  0
 34 59  1  0  0  0
 34105  1  0  0  0
 35 44  2  0  0  0
 35 45  1  0  0  0
 35 68  1  0  0  0
 36 56  1  0  0  0
 36106  1  0  0  0
 37 39  1  0  0  0
 37 47  1  0  0  0
 37 66  1  0  0  0
 37107  1  0  0  0
 38 43  2  0  0  0
 38 46  1  0  0  0
 38 47  1  0  0  0
 39 64  1  0  0  0
 39 67  2  0  0  0
 40 52  1  0  0  0
 40 53  2  0  0  0
 40 58  1  0  0  0
 41108  1  0  0  0
 41109  1  0  0  0
 41110  1  0  0  0
 41 48  1  0  0  0
 42 43  1  0  0  0
 42 66  1  0  0  0
 42111  1  0  0  0
 42112  1  0  0  0
 43 44  1  0  0  0
 44113  1  0  0  0
 45 46  2  0  0  0
 45114  1  0  0  0
 46115  1  0  0  0
 47116  1  0  0  0
 47117  1  0  0  0
 48 56  1  0  0  0
 48 65  1  0  0  0
 48118  1  0  0  0
 49 50  1  0  0  0
 49 53  1  0  0  0
 49 64  1  0  0  0
 49119  1  0  0  0
 50 51  1  0  0  0
 50120  1  0  0  0
 50121  1  0  0  0
 51 52  1  0  0  0
 51122  1  0  0  0
 51123  1  0  0  0
 52124  1  0  0  0
 52125  1  0  0  0
 53 54  1  0  0  0
 54 55  2  0  0  0
 54126  1  0  0  0
 55 57  1  0  0  0
 55127  1  0  0  0
 56 69  2  0  0  0
 57 58  2  0  0  0
 57128  1  0  0  0
 58129  1  0  0  0
 59 60  1  0  0  0
 59 61  1  0  0  0
 59 62  1  0  0  0
 60130  1  0  0  0
 60131  1  0  0  0
 60132  1  0  0  0
 61133  1  0  0  0
 61134  1  0  0  0
 61135  1  0  0  0
 62136  1  0  0  0
 62137  1  0  0  0
 62138  1  0  0  0
 63 65  1  0  0  0
 63139  1  0  0  0
 63140  1  0  0  0
 63141  1  0  0  0
 64142  1  0  0  0
 65143  1  0  0  0
 68 79  1  0  0  0
 71 75  1  0  0  0
 71 78  1  0  0  0
 71144  1  0  0  0
 71145  1  0  0  0
 72 76  1  0  0  0
 72 78  1  0  0  0
 72146  1  0  0  0
 72147  1  0  0  0
 73 79  1  0  0  0
 73148  1  0  0  0
 73149  1  0  0  0
 73 77  1  0  0  0
 74 77  1  0  0  0
 74 79  1  0  0  0
 74150  1  0  0  0
 74151  1  0  0  0
 75152  1  0  0  0
 75153  1  0  0  0
 75 84  1  0  0  0
 76 84  1  0  0  0
 76154  1  0  0  0
 76155  1  0  0  0
 77 82  1  0  0  0
 77156  1  0  0  0
 78 83  1  0  0  0
 78157  1  0  0  0
 79158  1  0  0  0
 80 81  1  0  0  0
 80159  1  0  0  0
 80160  1  0  0  0
 80161  1  0  0  0
 81162  1  0  0  0
 81163  1  0  0  0
 81 82  1  0  0  0
 82 84  1  0  0  0
 82164  1  0  0  0
 83165  1  0  0  0
 84166  1  0  0  0
M  CHG  1  84   1
M  ISO  4   1 100  68 101  79 101  83 100
M  END
> <chiral flag>
0

> <version>
0

> <s_m_source_file>
/data/baiqing/PycharmProjects/Reinvent-master-3.2/result/LINK_invent/BTK/process_docking_weight1_custom_sum_contain_oxygen_bond_distance_aromatic_linkinvent_7_9_3/rearranged_h_0160.sdf

> <i_m_source_file_index>
52

> <r_mmod_Potential_Energy-OPLS-2005>
129.730224609375

> <r_mmod_Stretch_Energy-OPLS-2005>
95.1730575561523

> <r_mmod_Bend_Energy-OPLS-2005>
193.916641235352

> <r_mmod_Torsional_Energy-OPLS-2005>
323.489105224609

> <r_mmod_Improper_Torsional_Energy-OPLS-2005>
5.03973054885864

> <r_mmod_Van_der_Waal_Energy-OPLS-2005>
124.994194030762

> <r_mmod_Electrostatic_Energy-OPLS-2005>
-220.787582397461

> <r_mmod_Solvation_Energy-OPLS-2005>
-448.103363037109

> <b_mmod_Minimization_Converged-OPLS-2005>
0

> <r_mmod_RMS_Derivative-OPLS-2005>
2.3059070110321

$$$$
52
                    3D
 Structure written by MMmdl.
165176  0  0  1  0            999 V2000
  -30.5171  -14.9358   20.4999 C   0  0  0  0  0  0
  -30.4430  -12.5929   19.4911 C   0  0  0  0  0  0
  -29.5246  -12.5885   18.2454 C   0  0  0  0  0  0
  -28.0460  -12.3911   18.6378 C   0  0  0  0  0  0
  -27.6407  -13.2515   19.8711 C   0  0  2  0  0  0
  -28.6938  -13.1140   20.9920 C   0  0  0  0  0  0
  -25.2416  -13.8331   20.5510 C   0  0  0  0  0  0
  -24.1731  -13.0487   20.9084 C   0  0  0  0  0  0
  -24.6374  -11.7018   20.8633 C   0  0  0  0  0  0
  -23.9060  -10.4396   21.0330 C   0  0  0  0  0  0
  -24.3657   -9.4348   21.9090 C   0  0  0  0  0  0
  -23.6383   -8.2365   22.0719 C   0  0  0  0  0  0
  -22.4353   -8.0319   21.3519 C   0  0  0  0  0  0
  -21.9960   -9.0281   20.4611 C   0  0  0  0  0  0
  -22.7228  -10.2194   20.2990 C   0  0  0  0  0  0
  -21.6893   -6.0730   22.5279 C   0  0  0  0  0  0
  -21.4018   -6.5598   23.8223 C   0  0  0  0  0  0
  -21.3659   -5.6761   24.9196 C   0  0  0  0  0  0
  -21.6110   -4.3027   24.7259 C   0  0  0  0  0  0
  -21.8842   -3.8115   23.4381 C   0  0  0  0  0  0
  -21.9229   -4.6939   22.3429 C   0  0  0  0  0  0
  -22.7784  -13.5293   21.1816 C   0  0  0  0  0  0
  -22.1692   -4.2113   21.0999 F   0  0  0  0  0  0
  -21.5642   -3.4501   25.7758 F   0  0  0  0  0  0
  -29.9495  -13.6473   20.4325 N   0  0  0  0  0  0
  -26.2889  -12.9536   20.3284 N   0  0  0  0  0  0
  -25.9301  -11.6653   20.5630 N   0  0  0  0  0  0
  -22.0514  -12.8213   22.0381 N   0  0  0  0  0  0
  -25.3941  -15.2041   20.3788 N   0  0  0  0  0  0
  -31.6788  -15.0142   20.0883 O   0  0  0  0  0  0
  -21.6757   -6.8883   21.4218 O   0  0  0  0  0  0
  -22.3428  -14.5600   20.6795 O   0  0  0  0  0  0
  -24.6389  -31.8440   23.1929 C   0  0  0  0  0  0
  -25.9179  -32.4681   23.8305 C   0  0  1  0  0  0
  -27.2028  -27.1212   20.1752 C   0  0  0  0  0  0
  -25.5946  -33.8488   24.2210 N   0  0  0  0  0  0
  -23.4410  -30.4713   21.5295 C   0  0  2  0  0  0
  -24.8957  -28.8946   20.1279 C   0  0  0  0  0  0
  -22.7514  -29.4582   22.4768 C   0  0  0  0  0  0
  -18.0322  -28.1379   22.8457 C   0  0  0  0  0  0
  -24.1497  -36.7248   23.2642 C   0  0  0  0  0  0
  -26.0004  -30.7149   21.4020 C   0  0  0  0  0  0
  -26.0700  -29.3199   20.7589 C   0  0  0  0  0  0
  -27.2255  -28.4458   20.7791 C   0  0  0  0  0  0
  -26.0169  -26.8257   19.4751 C   0  0  0  0  0  0
  -24.8779  -27.6505   19.4848 C   0  0  0  0  0  0
  -23.6741  -29.7979   20.1530 C   0  0  0  0  0  0
  -25.4121  -36.3027   24.0324 C   0  0  1  0  0  0
  -20.5934  -28.3724   23.1201 C   0  0  2  0  0  0
  -20.6796  -26.9410   22.5389 C   0  0  0  0  0  0
  -19.5781  -26.6365   21.5194 C   0  0  0  0  0  0
  -18.1972  -26.7916   22.1607 C   0  0  0  0  0  0
  -19.1567  -28.8858   23.2845 C   0  0  0  0  0  0
  -18.9487  -30.1455   23.8879 C   0  0  0  0  0  0
  -17.6476  -30.6582   24.0557 C   0  0  0  0  0  0
  -25.9063  -34.9396   23.5074 C   0  0  0  0  0  0
  -16.5371  -29.9074   23.6348 C   0  0  0  0  0  0
  -16.7304  -28.6492   23.0377 C   0  0  0  0  0  0
  -26.4509  -31.6558   25.0746 C   0  0  0  0  0  0
  -25.3695  -31.3741   26.1446 C   0  0  0  0  0  0
  -27.0392  -30.2950   24.6392 C   0  0  0  0  0  0
  -27.6071  -32.4299   25.7484 C   0  0  0  0  0  0
  -27.5590  -37.1775   24.8469 C   0  0  0  0  0  0
  -21.4198  -29.3083   22.3542 N   0  0  0  0  0  0
  -26.4289  -37.3744   23.9399 N   0  0  0  0  0  0
  -24.7113  -31.0329   22.0944 N   0  0  0  0  0  0
  -23.4145  -28.8106   23.2897 O   0  0  0  0  0  0
  -28.2581  -26.1391   20.1272 O   0  0  0  0  0  0
  -26.5676  -34.8870   22.4670 O   0  0  0  0  0  0
  -23.5517  -32.1308   23.7158 O   0  0  0  0  0  0
  -27.1802  -19.5909   21.9140 C   0  0  0  0  0  0
  -28.1594  -18.6160   21.7161 C   0  0  0  0  0  0
  -27.1867  -20.9174   21.3425 C   0  0  0  0  0  0
  -29.1431  -18.9276   20.7622 C   0  0  0  0  0  0
  -28.2667  -21.5101   20.6295 C   0  0  0  0  0  0
  -29.2185  -20.3726   20.3092 C   0  0  0  0  0  0
  -28.2606  -17.3682   22.5679 C   0  0  0  0  0  0
  -25.8084  -19.7232   22.5163 C   0  0  0  0  0  0
  -30.0612  -17.6294   20.3262 C   0  0  0  0  0  0
  -26.9781  -23.9175   20.5191 C   0  0  0  0  0  0
  -28.8560  -16.0892   21.9441 C   0  0  0  0  0  0
  -28.2335  -23.1251   20.1323 C   0  0  1  0  0  0
  -25.7424  -21.1559   21.7949 C   0  0  2  0  0  0
  -28.2192  -24.7045   20.7696 C   0  0  1  0  0  0
  -30.4073  -20.6726   19.4319 C   0  0  0  0  0  0
  -24.7557  -21.2380   20.6276 C   0  0  0  0  0  0
  -29.7686  -16.1387   20.7846 N   0  0  0  0  0  0
  -31.4806  -12.7458   19.1868 H   0  0  0  0  0  0
  -30.4323  -11.6069   19.9577 H   0  0  0  0  0  0
  -29.8194  -11.8146   17.5344 H   0  0  0  0  0  0
  -29.6391  -13.5380   17.7214 H   0  0  0  0  0  0
  -27.9011  -11.3364   18.8673 H   0  0  0  0  0  0
  -27.4117  -12.5981   17.7774 H   0  0  0  0  0  0
  -27.6412  -14.2856   19.5264 H   0  0  0  0  0  0
  -28.7904  -12.0523   21.2262 H   0  0  0  0  0  0
  -28.4181  -13.5521   21.9512 H   0  0  0  0  0  0
  -25.2818   -9.5937   22.4601 H   0  0  0  0  0  0
  -24.0161   -7.4831   22.7459 H   0  0  0  0  0  0
  -21.0875   -8.8793   19.8905 H   0  0  0  0  0  0
  -22.3650  -10.9737   19.6108 H   0  0  0  0  0  0
  -21.1970   -7.6102   23.9722 H   0  0  0  0  0  0
  -21.1450   -6.0462   25.9094 H   0  0  0  0  0  0
  -22.0652   -2.7549   23.2929 H   0  0  0  0  0  0
  -22.4230  -11.9797   22.4467 H   0  0  0  0  0  0
  -21.1248  -13.1276   22.2943 H   0  0  0  0  0  0
  -24.5903  -15.8253   20.3838 H   0  0  0  0  0  0
  -26.2019  -15.6266   19.9355 H   0  0  0  0  0  0
  -26.7229  -32.5291   23.1014 H   0  0  0  0  0  0
  -25.0062  -33.9620   25.0349 H   0  0  0  0  0  0
  -22.7465  -31.3007   21.3704 H   0  0  0  0  0  0
  -23.3779  -35.9565   23.3271 H   0  0  0  0  0  0
  -24.3618  -36.8909   22.2069 H   0  0  0  0  0  0
  -23.7240  -37.6419   23.6710 H   0  0  0  0  0  0
  -26.1681  -31.4583   20.6206 H   0  0  0  0  0  0
  -26.8645  -30.7625   22.0542 H   0  0  0  0  0  0
  -28.1124  -28.7753   21.3039 H   0  0  0  0  0  0
  -25.9472  -25.9339   18.8773 H   0  0  0  0  0  0
  -23.9839  -27.3163   18.9797 H   0  0  0  0  0  0
  -23.8125  -30.5669   19.3914 H   0  0  0  0  0  0
  -22.7919  -29.2386   19.8367 H   0  0  0  0  0  0
  -25.1306  -36.1836   25.0822 H   0  0  0  0  0  0
  -21.0084  -28.3328   24.1299 H   0  0  0  0  0  0
  -20.5671  -26.2323   23.3611 H   0  0  0  0  0  0
  -21.6661  -26.7388   22.1196 H   0  0  0  0  0  0
  -19.6934  -25.6275   21.1253 H   0  0  0  0  0  0
  -19.6733  -27.3138   20.6699 H   0  0  0  0  0  0
  -17.4225  -26.6671   21.4028 H   0  0  0  0  0  0
  -18.0378  -26.0059   22.9000 H   0  0  0  0  0  0
  -19.7963  -30.7301   24.2209 H   0  0  0  0  0  0
  -17.5040  -31.6271   24.5147 H   0  0  0  0  0  0
  -15.5379  -30.2981   23.7684 H   0  0  0  0  0  0
  -15.8702  -28.0817   22.7107 H   0  0  0  0  0  0
  -24.5926  -30.7014   25.7778 H   0  0  0  0  0  0
  -24.8816  -32.2903   26.4768 H   0  0  0  0  0  0
  -25.7980  -30.9000   27.0285 H   0  0  0  0  0  0
  -26.3034  -29.6636   24.1394 H   0  0  0  0  0  0
  -27.3957  -29.7286   25.5006 H   0  0  0  0  0  0
  -27.8956  -30.4154   23.9762 H   0  0  0  0  0  0
  -27.2743  -33.3658   26.1956 H   0  0  0  0  0  0
  -28.3916  -32.6725   25.0314 H   0  0  0  0  0  0
  -28.0691  -31.8470   26.5458 H   0  0  0  0  0  0
  -28.2570  -38.0109   24.7550 H   0  0  0  0  0  0
  -28.1110  -36.2635   24.6222 H   0  0  0  0  0  0
  -27.2329  -37.1335   25.8882 H   0  0  0  0  0  0
  -20.9352  -29.8784   21.6757 H   0  0  0  0  0  0
  -26.0148  -38.2796   24.1431 H   0  0  0  0  0  0
  -27.2859  -17.0989   22.9717 H   0  0  0  0  0  0
  -28.8569  -17.6472   23.4395 H   0  0  0  0  0  0
  -25.8053  -19.7214   23.6079 H   0  0  0  0  0  0
  -25.1231  -18.9752   22.1099 H   0  0  0  0  0  0
  -31.0960  -17.8419   20.5990 H   0  0  0  0  0  0
  -30.0813  -17.6243   19.2326 H   0  0  0  0  0  0
  -26.4670  -23.7647   21.4666 H   0  0  0  0  0  0
  -26.3127  -24.0940   19.6799 H   0  0  0  0  0  0
  -27.9779  -15.5235   21.6587 H   0  0  0  0  0  0
  -29.3766  -15.5754   22.7582 H   0  0  0  0  0  0
  -28.4761  -23.0858   19.0716 H   0  0  0  0  0  0
  -25.6650  -21.9750   22.5104 H   0  0  0  0  0  0
  -28.5735  -24.8114   21.7974 H   0  0  0  0  0  0
  -30.3246  -20.1104   18.4990 H   0  0  0  0  0  0
  -31.3163  -20.3436   19.9419 H   0  0  0  0  0  0
  -30.5003  -21.7349   19.2092 H   0  0  0  0  0  0
  -24.5310  -20.2350   20.2560 H   0  0  0  0  0  0
  -25.1605  -21.8010   19.7855 H   0  0  0  0  0  0
  -23.8024  -21.6764   20.9254 H   0  0  0  0  0  0
  1 25  1  0  0  0
  1 30  2  0  0  0
  1 87  1  0  0  0
  2  3  1  0  0  0
  2 25  1  0  0  0
  2 88  1  0  0  0
  2 89  1  0  0  0
  3  4  1  0  0  0
  3 90  1  0  0  0
  3 91  1  0  0  0
  4  5  1  0  0  0
  4 92  1  0  0  0
  4 93  1  0  0  0
  5  6  1  0  0  0
  5 26  1  0  0  0
  5 94  1  0  0  0
  6 25  1  0  0  0
  6 95  1  0  0  0
  6 96  1  0  0  0
  7  8  2  0  0  0
  7 26  1  0  0  0
  7 29  1  0  0  0
  8  9  1  0  0  0
  8 22  1  0  0  0
  9 10  1  0  0  0
  9 27  2  0  0  0
 10 11  2  0  0  0
 10 15  1  0  0  0
 11 12  1  0  0  0
 11 97  1  0  0  0
 12 13  2  0  0  0
 12 98  1  0  0  0
 13 14  1  0  0  0
 13 31  1  0  0  0
 14 15  2  0  0  0
 14 99  1  0  0  0
 15100  1  0  0  0
 16 17  2  0  0  0
 16 21  1  0  0  0
 16 31  1  0  0  0
 17 18  1  0  0  0
 17101  1  0  0  0
 18 19  2  0  0  0
 18102  1  0  0  0
 19 20  1  0  0  0
 19 24  1  0  0  0
 20 21  2  0  0  0
 20103  1  0  0  0
 21 23  1  0  0  0
 22 28  1  0  0  0
 22 32  2  0  0  0
 26 27  1  0  0  0
 28104  1  0  0  0
 28105  1  0  0  0
 29106  1  0  0  0
 29107  1  0  0  0
 33 34  1  0  0  0
 33 66  1  0  0  0
 33 70  2  0  0  0
 34 36  1  0  0  0
 34 59  1  0  0  0
 34108  1  0  0  0
 35 44  2  0  0  0
 35 45  1  0  0  0
 35 68  1  0  0  0
 36 56  1  0  0  0
 36109  1  0  0  0
 37 39  1  0  0  0
 37 47  1  0  0  0
 37 66  1  0  0  0
 37110  1  0  0  0
 38 43  2  0  0  0
 38 46  1  0  0  0
 38 47  1  0  0  0
 39 64  1  0  0  0
 39 67  2  0  0  0
 40 52  1  0  0  0
 40 53  2  0  0  0
 40 58  1  0  0  0
 41111  1  0  0  0
 41112  1  0  0  0
 41113  1  0  0  0
 41 48  1  0  0  0
 42 43  1  0  0  0
 42 66  1  0  0  0
 42114  1  0  0  0
 42115  1  0  0  0
 43 44  1  0  0  0
 44116  1  0  0  0
 45 46  2  0  0  0
 45117  1  0  0  0
 46118  1  0  0  0
 47119  1  0  0  0
 47120  1  0  0  0
 48 56  1  0  0  0
 48 65  1  0  0  0
 48121  1  0  0  0
 49 50  1  0  0  0
 49 53  1  0  0  0
 49 64  1  0  0  0
 49122  1  0  0  0
 50 51  1  0  0  0
 50123  1  0  0  0
 50124  1  0  0  0
 51 52  1  0  0  0
 51125  1  0  0  0
 51126  1  0  0  0
 52127  1  0  0  0
 52128  1  0  0  0
 53 54  1  0  0  0
 54 55  2  0  0  0
 54129  1  0  0  0
 55 57  1  0  0  0
 55130  1  0  0  0
 56 69  2  0  0  0
 57 58  2  0  0  0
 57131  1  0  0  0
 58132  1  0  0  0
 59 60  1  0  0  0
 59 61  1  0  0  0
 59 62  1  0  0  0
 60133  1  0  0  0
 60134  1  0  0  0
 60135  1  0  0  0
 61136  1  0  0  0
 61137  1  0  0  0
 61138  1  0  0  0
 62139  1  0  0  0
 62140  1  0  0  0
 62141  1  0  0  0
 63 65  1  0  0  0
 63142  1  0  0  0
 63143  1  0  0  0
 63144  1  0  0  0
 64145  1  0  0  0
 65146  1  0  0  0
 68 84  1  0  0  0
 71 72  2  0  0  0
 71 73  1  0  0  0
 71 78  1  0  0  0
 72 74  1  0  0  0
 72 77  1  0  0  0
 73 75  2  0  0  0
 73 83  1  0  0  0
 74 76  2  0  0  0
 74 79  1  0  0  0
 75 76  1  0  0  0
 75 82  1  0  0  0
 76 85  1  0  0  0
 77 81  1  0  0  0
 77147  1  0  0  0
 77148  1  0  0  0
 78 83  1  0  0  0
 78149  1  0  0  0
 78150  1  0  0  0
 79 87  1  0  0  0
 79151  1  0  0  0
 79152  1  0  0  0
 80 82  1  0  0  0
 80 84  1  0  0  0
 80153  1  0  0  0
 80154  1  0  0  0
 81 87  1  0  0  0
 81155  1  0  0  0
 81156  1  0  0  0
 82 84  1  0  0  0
 82157  1  0  0  0
 83 86  1  0  0  0
 83158  1  0  0  0
 84159  1  0  0  0
 85160  1  0  0  0
 85161  1  0  0  0
 85162  1  0  0  0
 86163  1  0  0  0
 86164  1  0  0  0
 86165  1  0  0  0
M  ISO  4   1 100  68 101  84 101  87 100
M  END
> <chiral flag>
0

> <version>
0

> <s_m_source_file>
/data/baiqing/PycharmProjects/Reinvent-master-3.2/result/LINK_invent/BTK/process_docking_weight1_custom_sum_contain_oxygen_bond_distance_aromatic_linkinvent_7_9_3/rearranged_h_0160.sdf

> <i_m_source_file_index>
53

> <r_mmod_Potential_Energy-OPLS-2005>
1144.15100097656

> <r_mmod_Stretch_Energy-OPLS-2005>
337.498413085938

> <r_mmod_Bend_Energy-OPLS-2005>
689.43603515625

> <r_mmod_Torsional_Energy-OPLS-2005>
351.304229736328

> <r_mmod_Improper_Torsional_Energy-OPLS-2005>
9.51034450531006

> <r_mmod_Van_der_Waal_Energy-OPLS-2005>
139.824951171875

> <r_mmod_Electrostatic_Energy-OPLS-2005>
-357.221343994141

> <r_mmod_Solvation_Energy-OPLS-2005>
-203.913772583008

> <b_mmod_Minimization_Converged-OPLS-2005>
0

> <r_mmod_RMS_Derivative-OPLS-2005>
11.1144351959229

$$$$
53
                    3D
 Structure written by MMmdl.
170179  0  0  1  0            999 V2000
  -31.3200  -14.7947   21.6008 C   0  0  0  0  0  0
  -30.3517  -14.4851   17.8030 C   0  0  0  0  0  0
  -28.7451  -13.9888   17.2071 C   0  0  0  0  0  0
  -27.3661  -13.8908   18.3310 C   0  0  0  0  0  0
  -27.3912  -13.9742   20.1509 C   0  0  2  0  0  0
  -28.8280  -14.1601   21.3188 C   0  0  0  0  0  0
  -25.0298  -13.9562   20.6861 C   0  0  0  0  0  0
  -24.0641  -13.0623   20.9684 C   0  0  0  0  0  0
  -24.6460  -11.7605   20.9063 C   0  0  0  0  0  0
  -23.9557  -10.4493   21.0280 C   0  0  0  0  0  0
  -24.3972   -9.4365   21.9099 C   0  0  0  0  0  0
  -23.6561   -8.2400   22.0700 C   0  0  0  0  0  0
  -22.4515   -8.0411   21.3520 C   0  0  0  0  0  0
  -22.0267   -9.0385   20.4559 C   0  0  0  0  0  0
  -22.7688  -10.2231   20.2943 C   0  0  0  0  0  0
  -21.6946   -6.0850   22.5279 C   0  0  0  0  0  0
  -21.4081   -6.5715   23.8224 C   0  0  0  0  0  0
  -21.3682   -5.6835   24.9169 C   0  0  0  0  0  0
  -21.6037   -4.3100   24.7204 C   0  0  0  0  0  0
  -21.8792   -3.8219   23.4315 C   0  0  0  0  0  0
  -21.9212   -4.7055   22.3390 C   0  0  0  0  0  0
  -22.6500  -13.4631   21.1996 C   0  0  0  0  0  0
  -22.1669   -4.2238   21.0967 F   0  0  0  0  0  0
  -21.5610   -3.4564   25.7708 F   0  0  0  0  0  0
  -30.4327  -14.5349   20.6608 N   0  0  0  0  0  0
  -26.1897  -13.2565   20.5754 N   0  0  0  0  0  0
  -25.9686  -11.8899   20.6812 N   0  0  0  0  0  0
  -21.9523  -12.7479   22.0675 N   0  0  0  0  0  0
  -24.9861  -15.3376   20.5072 N   0  0  0  0  0  0
  -32.4608  -14.4039   21.4922 O   0  0  0  0  0  0
  -21.6798   -6.9045   21.4263 O   0  0  0  0  0  0
  -22.1914  -14.4785   20.6748 O   0  0  0  0  0  0
  -24.7543  -31.7140   23.0941 C   0  0  0  0  0  0
  -25.9794  -32.4054   23.7734 C   0  0  1  0  0  0
  -27.0976  -25.9882   20.1243 C   0  0  0  0  0  0
  -25.6071  -33.7928   24.1537 N   0  0  0  0  0  0
  -23.5934  -30.3011   21.4716 C   0  0  2  0  0  0
  -25.0061  -28.5033   20.1025 C   0  0  0  0  0  0
  -22.8011  -29.3882   22.4552 C   0  0  0  0  0  0
  -18.0356  -28.1454   22.8404 C   0  0  0  0  0  0
  -24.1475  -36.6969   23.2666 C   0  0  0  0  0  0
  -26.1944  -30.1960   21.4512 C   0  0  0  0  0  0
  -26.2150  -28.6925   20.7769 C   0  0  0  0  0  0
  -27.2229  -27.4850   20.7419 C   0  0  0  0  0  0
  -25.8717  -26.1925   19.4080 C   0  0  0  0  0  0
  -24.9150  -27.2853   19.3970 C   0  0  0  0  0  0
  -23.8601  -29.5608   20.1218 C   0  0  0  0  0  0
  -25.4163  -36.2663   24.0222 C   0  0  1  0  0  0
  -20.6017  -28.3830   23.1022 C   0  0  2  0  0  0
  -20.6797  -26.9440   22.5402 C   0  0  0  0  0  0
  -19.5790  -26.6342   21.5210 C   0  0  0  0  0  0
  -18.1964  -26.7963   22.1593 C   0  0  0  0  0  0
  -19.1637  -28.8983   23.2670 C   0  0  0  0  0  0
  -18.9545  -30.1549   23.8749 C   0  0  0  0  0  0
  -17.6533  -30.6623   24.0528 C   0  0  0  0  0  0
  -25.9209  -34.9070   23.4768 C   0  0  0  0  0  0
  -16.5415  -29.9097   23.6368 C   0  0  0  0  0  0
  -16.7329  -28.6526   23.0375 C   0  0  0  0  0  0
  -26.4727  -31.6418   25.0657 C   0  0  0  0  0  0
  -25.3603  -31.3948   26.1144 C   0  0  0  0  0  0
  -27.0789  -30.2704   24.7047 C   0  0  0  0  0  0
  -27.6013  -32.4476   25.7526 C   0  0  0  0  0  0
  -27.5539  -37.1630   24.8463 C   0  0  0  0  0  0
  -21.4614  -29.2956   22.3281 N   0  0  0  0  0  0
  -26.4219  -37.3514   23.9428 N   0  0  0  0  0  0
  -24.8832  -30.7869   22.0581 N   0  0  0  0  0  0
  -23.4172  -28.7598   23.3173 O   0  0  0  0  0  0
  -27.8768  -24.4221   20.0640 O   0  0  0  0  0  0
  -26.5949  -34.8814   22.4459 O   0  0  0  0  0  0
  -23.6436  -32.0575   23.5466 O   0  0  0  0  0  0
  -32.2771  -13.8768   19.0590 C   0  0  0  0  0  0
  -30.7243  -16.3834   19.2153 C   0  0  0  0  0  0
  -31.1055  -12.7528   19.2223 C   0  0  0  0  0  0
  -29.1665  -15.7036   19.2527 C   0  0  0  0  0  0
  -29.4696  -13.1901   19.2807 C   0  0  0  0  0  0
  -32.1134  -15.5139   19.0326 C   0  0  0  0  0  0
  -31.7794  -18.8053   20.2686 C   0  0  0  0  0  0
  -31.8880  -18.5621   21.8114 C   0  0  0  0  0  0
  -30.9698  -17.5034   20.2509 C   0  0  2  0  0  0
  -31.8740  -17.0738   21.4261 C   0  0  2  0  0  0
  -31.6112  -11.3158   19.2817 C   0  0  0  0  0  0
  -28.7162  -11.7966   19.4310 C   0  0  0  0  0  0
  -34.4479  -15.6731   18.4830 C   0  0  0  0  0  0
  -28.2213  -17.7082   19.4072 C   0  0  0  0  0  0
  -28.4205  -20.0669   19.6419 C   0  0  0  0  0  0
  -27.6892  -22.3205   19.8407 C   0  0  0  0  0  0
  -31.1341  -16.0169   22.1524 N   0  0  0  0  0  0
  -33.2299  -16.3053   18.8476 O   0  0  0  0  0  0
  -30.5220  -15.3817   17.1881 H   0  0  0  0  0  0
  -30.9803  -13.8391   17.1653 H   0  0  0  0  0  0
  -28.8570  -13.0118   16.7310 H   0  0  0  0  0  0
  -28.4643  -14.6419   16.3779 H   0  0  0  0  0  0
  -26.6921  -13.1059   17.9875 H   0  0  0  0  0  0
  -26.7779  -14.7675   18.0659 H   0  0  0  0  0  0
  -27.1825  -15.0223   20.2703 H   0  0  0  0  0  0
  -28.9207  -13.2618   21.9341 H   0  0  0  0  0  0
  -28.5625  -14.9349   22.0437 H   0  0  0  0  0  0
  -25.3023   -9.5847   22.4823 H   0  0  0  0  0  0
  -24.0202   -7.4810   22.7468 H   0  0  0  0  0  0
  -21.1199   -8.8935   19.8858 H   0  0  0  0  0  0
  -22.4065  -10.9766   19.6084 H   0  0  0  0  0  0
  -21.2106   -7.6222   23.9761 H   0  0  0  0  0  0
  -21.1510   -6.0561   25.9075 H   0  0  0  0  0  0
  -22.0534   -2.7678   23.2780 H   0  0  0  0  0  0
  -22.3599  -11.9402   22.5170 H   0  0  0  0  0  0
  -20.9987  -12.9987   22.2787 H   0  0  0  0  0  0
  -24.1065  -15.8428   20.5282 H   0  0  0  0  0  0
  -25.7753  -15.9181   20.2571 H   0  0  0  0  0  0
  -26.7982  -32.4380   23.0532 H   0  0  0  0  0  0
  -25.0011  -33.8837   24.9553 H   0  0  0  0  0  0
  -22.9584  -31.1596   21.2453 H   0  0  0  0  0  0
  -23.3798  -35.9227   23.3186 H   0  0  0  0  0  0
  -24.3512  -36.8831   22.2108 H   0  0  0  0  0  0
  -23.7170  -37.6047   23.6910 H   0  0  0  0  0  0
  -26.4940  -30.8873   20.6616 H   0  0  0  0  0  0
  -27.0133  -30.2418   22.1527 H   0  0  0  0  0  0
  -28.1279  -27.6538   21.3057 H   0  0  0  0  0  0
  -25.5651  -25.3314   18.8327 H   0  0  0  0  0  0
  -24.0234  -27.1195   18.8095 H   0  0  0  0  0  0
  -24.1027  -30.3065   19.3631 H   0  0  0  0  0  0
  -22.9396  -29.0901   19.7745 H   0  0  0  0  0  0
  -25.1400  -36.1302   25.0702 H   0  0  0  0  0  0
  -21.0061  -28.3502   24.1164 H   0  0  0  0  0  0
  -20.5601  -26.2474   23.3714 H   0  0  0  0  0  0
  -21.6652  -26.7281   22.1264 H   0  0  0  0  0  0
  -19.6942  -25.6216   21.1335 H   0  0  0  0  0  0
  -19.6768  -27.3069   20.6679 H   0  0  0  0  0  0
  -17.4235  -26.6670   21.3998 H   0  0  0  0  0  0
  -18.0347  -26.0146   22.9031 H   0  0  0  0  0  0
  -19.8027  -30.7380   24.2063 H   0  0  0  0  0  0
  -17.5093  -31.6294   24.5161 H   0  0  0  0  0  0
  -15.5413  -30.2971   23.7797 H   0  0  0  0  0  0
  -15.8711  -28.0813   22.7189 H   0  0  0  0  0  0
  -24.5791  -30.7320   25.7419 H   0  0  0  0  0  0
  -24.8815  -32.3248   26.4212 H   0  0  0  0  0  0
  -25.7604  -30.9316   27.0166 H   0  0  0  0  0  0
  -26.3606  -29.6050   24.2259 H   0  0  0  0  0  0
  -27.4175  -29.7513   25.6022 H   0  0  0  0  0  0
  -27.9591  -30.3725   24.0698 H   0  0  0  0  0  0
  -27.2421  -33.3908   26.1661 H   0  0  0  0  0  0
  -28.4045  -32.6839   25.0536 H   0  0  0  0  0  0
  -28.0442  -31.8936   26.5812 H   0  0  0  0  0  0
  -28.2449  -38.0024   24.7578 H   0  0  0  0  0  0
  -28.1140  -36.2543   24.6199 H   0  0  0  0  0  0
  -27.2269  -37.1139   25.8865 H   0  0  0  0  0  0
  -21.0066  -29.8548   21.6202 H   0  0  0  0  0  0
  -25.9975  -38.2515   24.1510 H   0  0  0  0  0  0
  -33.2709  -13.4701   18.9762 H   0  0  0  0  0  0
  -32.7340  -18.7302   19.7417 H   0  0  0  0  0  0
  -31.2322  -19.6956   19.9667 H   0  0  0  0  0  0
  -31.0218  -18.8968   22.3831 H   0  0  0  0  0  0
  -32.8258  -18.9176   22.2403 H   0  0  0  0  0  0
  -30.0319  -17.6982   20.7583 H   0  0  0  0  0  0
  -32.9007  -16.8005   21.1670 H   0  0  0  0  0  0
  -32.6977  -11.2827   19.3690 H   0  0  0  0  0  0
  -31.3619  -10.7763   18.3691 H   0  0  0  0  0  0
  -31.2083  -10.7827   20.1428 H   0  0  0  0  0  0
  -28.6319  -11.5221   20.4814 H   0  0  0  0  0  0
  -29.2479  -10.9785   18.9614 H   0  0  0  0  0  0
  -27.7573  -11.6405   18.9549 H   0  0  0  0  0  0
  -35.1767  -16.4380   18.2134 H   0  0  0  0  0  0
  -34.3286  -15.0177   17.6190 H   0  0  0  0  0  0
  -34.8665  -15.1026   19.3129 H   0  0  0  0  0  0
  -27.5257  -17.5103   20.2261 H   0  0  0  0  0  0
  -27.5824  -17.6478   18.5248 H   0  0  0  0  0  0
  -29.0248  -20.0549   20.5473 H   0  0  0  0  0  0
  -29.1423  -20.2299   18.8451 H   0  0  0  0  0  0
  -27.1101  -22.1779   20.7534 H   0  0  0  0  0  0
  -26.9245  -22.3313   19.0637 H   0  0  0  0  0  0
  -30.1684  -16.2395   22.3393 H   0  0  0  0  0  0
  1 25  1  0  0  0
  1 30  2  0  0  0
  1 87  1  0  0  0
  2  3  1  0  0  0
  2 25  1  0  0  0
  2 89  1  0  0  0
  2 90  1  0  0  0
  3  4  1  0  0  0
  3 91  1  0  0  0
  3 92  1  0  0  0
  4  5  1  0  0  0
  4 93  1  0  0  0
  4 94  1  0  0  0
  5  6  1  0  0  0
  5 26  1  0  0  0
  5 95  1  0  0  0
  6 25  1  0  0  0
  6 96  1  0  0  0
  6 97  1  0  0  0
  7  8  2  0  0  0
  7 26  1  0  0  0
  7 29  1  0  0  0
  8  9  1  0  0  0
  8 22  1  0  0  0
  9 10  1  0  0  0
  9 27  2  0  0  0
 10 11  2  0  0  0
 10 15  1  0  0  0
 11 12  1  0  0  0
 11 98  1  0  0  0
 12 13  2  0  0  0
 12 99  1  0  0  0
 13 14  1  0  0  0
 13 31  1  0  0  0
 14 15  2  0  0  0
 14100  1  0  0  0
 15101  1  0  0  0
 16 17  2  0  0  0
 16 21  1  0  0  0
 16 31  1  0  0  0
 17 18  1  0  0  0
 17102  1  0  0  0
 18 19  2  0  0  0
 18103  1  0  0  0
 19 20  1  0  0  0
 19 24  1  0  0  0
 20 21  2  0  0  0
 20104  1  0  0  0
 21 23  1  0  0  0
 22 28  1  0  0  0
 22 32  2  0  0  0
 26 27  1  0  0  0
 28105  1  0  0  0
 28106  1  0  0  0
 29107  1  0  0  0
 29108  1  0  0  0
 33 34  1  0  0  0
 33 66  1  0  0  0
 33 70  2  0  0  0
 34 36  1  0  0  0
 34 59  1  0  0  0
 34109  1  0  0  0
 35 44  2  0  0  0
 35 45  1  0  0  0
 35 68  1  0  0  0
 36 56  1  0  0  0
 36110  1  0  0  0
 37 39  1  0  0  0
 37 47  1  0  0  0
 37 66  1  0  0  0
 37111  1  0  0  0
 38 43  2  0  0  0
 38 46  1  0  0  0
 38 47  1  0  0  0
 39 64  1  0  0  0
 39 67  2  0  0  0
 40 52  1  0  0  0
 40 53  2  0  0  0
 40 58  1  0  0  0
 41112  1  0  0  0
 41113  1  0  0  0
 41114  1  0  0  0
 41 48  1  0  0  0
 42 43  1  0  0  0
 42 66  1  0  0  0
 42115  1  0  0  0
 42116  1  0  0  0
 43 44  1  0  0  0
 44117  1  0  0  0
 45 46  2  0  0  0
 45118  1  0  0  0
 46119  1  0  0  0
 47120  1  0  0  0
 47121  1  0  0  0
 48 56  1  0  0  0
 48 65  1  0  0  0
 48122  1  0  0  0
 49 50  1  0  0  0
 49 53  1  0  0  0
 49 64  1  0  0  0
 49123  1  0  0  0
 50 51  1  0  0  0
 50124  1  0  0  0
 50125  1  0  0  0
 51 52  1  0  0  0
 51126  1  0  0  0
 51127  1  0  0  0
 52128  1  0  0  0
 52129  1  0  0  0
 53 54  1  0  0  0
 54 55  2  0  0  0
 54130  1  0  0  0
 55 57  1  0  0  0
 55131  1  0  0  0
 56 69  2  0  0  0
 57 58  2  0  0  0
 57132  1  0  0  0
 58133  1  0  0  0
 59 60  1  0  0  0
 59 61  1  0  0  0
 59 62  1  0  0  0
 60134  1  0  0  0
 60135  1  0  0  0
 60136  1  0  0  0
 61137  1  0  0  0
 61138  1  0  0  0
 61139  1  0  0  0
 62140  1  0  0  0
 62141  1  0  0  0
 62142  1  0  0  0
 63 65  1  0  0  0
 63143  1  0  0  0
 63144  1  0  0  0
 63145  1  0  0  0
 64146  1  0  0  0
 65147  1  0  0  0
 68 86  1  0  0  0
 71 73  2  0  0  0
 71 76  1  0  0  0
 71148  1  0  0  0
 72 74  1  0  0  0
 72 76  2  0  0  0
 72 79  1  0  0  0
 73 75  1  0  0  0
 73 81  1  0  0  0
 74 75  2  0  0  0
 74 84  1  0  0  0
 75 82  1  0  0  0
 76 88  1  0  0  0
 77 78  1  0  0  0
 77 79  1  0  0  0
 77149  1  0  0  0
 77150  1  0  0  0
 78 80  1  0  0  0
 78151  1  0  0  0
 78152  1  0  0  0
 79 80  1  0  0  0
 79153  1  0  0  0
 80 87  1  0  0  0
 80154  1  0  0  0
 81155  1  0  0  0
 81156  1  0  0  0
 81157  1  0  0  0
 82158  1  0  0  0
 82159  1  0  0  0
 82160  1  0  0  0
 83 88  1  0  0  0
 83161  1  0  0  0
 83162  1  0  0  0
 83163  1  0  0  0
 84 85  1  0  0  0
 84164  1  0  0  0
 84165  1  0  0  0
 85 86  1  0  0  0
 85166  1  0  0  0
 85167  1  0  0  0
 86168  1  0  0  0
 86169  1  0  0  0
 87170  1  0  0  0
M  ISO  4   1 100  68 101  86 101  87 100
M  END
> <chiral flag>
0

> <version>
0

> <s_m_source_file>
/data/baiqing/PycharmProjects/Reinvent-master-3.2/result/LINK_invent/BTK/process_docking_weight1_custom_sum_contain_oxygen_bond_distance_aromatic_linkinvent_7_9_3/rearranged_h_0160.sdf

> <i_m_source_file_index>
54

> <r_mmod_Potential_Energy-OPLS-2005>
18095.9609375

> <r_mmod_Stretch_Energy-OPLS-2005>
10043.080078125

> <r_mmod_Bend_Energy-OPLS-2005>
1532.53234863281

> <r_mmod_Torsional_Energy-OPLS-2005>
411.782470703125

> <r_mmod_Improper_Torsional_Energy-OPLS-2005>
49.2099113464355

> <r_mmod_Van_der_Waal_Energy-OPLS-2005>
3133.19653320312

> <r_mmod_Electrostatic_Energy-OPLS-2005>
-390.462615966797

> <r_mmod_Solvation_Energy-OPLS-2005>
-208.516326904297

> <b_mmod_Minimization_Converged-OPLS-2005>
0

> <r_mmod_RMS_Derivative-OPLS-2005>
9.5607213973999

$$$$
54
                    3D
 Structure written by MMmdl.
181190  0  0  1  0            999 V2000
  -30.8310  -14.2557   20.7926 C   0  0  0  0  0  0
  -30.4175  -12.2936   19.3623 C   0  0  0  0  0  0
  -29.4725  -12.5474   18.1788 C   0  0  0  0  0  0
  -28.0043  -12.3835   18.6067 C   0  0  0  0  0  0
  -27.6683  -13.2020   19.8782 C   0  0  2  0  0  0
  -28.7056  -12.9413   20.9928 C   0  0  0  0  0  0
  -25.2611  -13.8156   20.5697 C   0  0  0  0  0  0
  -24.1849  -13.0451   20.9163 C   0  0  0  0  0  0
  -24.6389  -11.6905   20.8712 C   0  0  0  0  0  0
  -23.9053  -10.4299   21.0383 C   0  0  0  0  0  0
  -24.3597   -9.4221   21.9178 C   0  0  0  0  0  0
  -23.6278   -8.2249   22.0751 C   0  0  0  0  0  0
  -22.4261   -8.0273   21.3543 C   0  0  0  0  0  0
  -21.9897   -9.0245   20.4641 C   0  0  0  0  0  0
  -22.7213  -10.2132   20.3050 C   0  0  0  0  0  0
  -21.6856   -6.0733   22.5281 C   0  0  0  0  0  0
  -21.4006   -6.5638   23.8210 C   0  0  0  0  0  0
  -21.3657   -5.6793   24.9176 C   0  0  0  0  0  0
  -21.6041   -4.3055   24.7229 C   0  0  0  0  0  0
  -21.8820   -3.8146   23.4351 C   0  0  0  0  0  0
  -21.9187   -4.6959   22.3402 C   0  0  0  0  0  0
  -22.7871  -13.5238   21.1841 C   0  0  0  0  0  0
  -22.1663   -4.2138   21.0983 F   0  0  0  0  0  0
  -21.5623   -3.4540   25.7747 F   0  0  0  0  0  0
  -30.0617  -13.1934   20.4656 N   0  0  0  0  0  0
  -26.3055  -12.9328   20.3382 N   0  0  0  0  0  0
  -25.9312  -11.6485   20.5726 N   0  0  0  0  0  0
  -22.0513  -12.8236   22.0390 N   0  0  0  0  0  0
  -25.4369  -15.1883   20.4157 N   0  0  0  0  0  0
  -31.6977  -14.7335   20.0527 O   0  0  0  0  0  0
  -21.6633   -6.8867   21.4237 O   0  0  0  0  0  0
  -22.3546  -14.5541   20.6669 O   0  0  0  0  0  0
  -24.6129  -31.8719   23.2103 C   0  0  0  0  0  0
  -25.9045  -32.4842   23.8389 C   0  0  1  0  0  0
  -27.2427  -27.4603   20.0991 C   0  0  0  0  0  0
  -25.5885  -33.8636   24.2302 N   0  0  0  0  0  0
  -23.4023  -30.4948   21.5465 C   0  0  2  0  0  0
  -24.8525  -28.9618   20.1140 C   0  0  0  0  0  0
  -22.7405  -29.4717   22.4966 C   0  0  0  0  0  0
  -18.0288  -28.1437   22.8499 C   0  0  0  0  0  0
  -24.1474  -36.7341   23.2639 C   0  0  0  0  0  0
  -25.9276  -30.8437   21.3649 C   0  0  0  0  0  0
  -26.0072  -29.4797   20.7121 C   0  0  0  0  0  0
  -27.2062  -28.7351   20.7021 C   0  0  0  0  0  0
  -26.0752  -26.9562   19.4832 C   0  0  0  0  0  0
  -24.8806  -27.6985   19.4961 C   0  0  0  0  0  0
  -23.6137  -29.8264   20.1608 C   0  0  0  0  0  0
  -25.4099  -36.3118   24.0316 C   0  0  1  0  0  0
  -20.5874  -28.3740   23.1320 C   0  0  2  0  0  0
  -20.6784  -26.9482   22.5430 C   0  0  0  0  0  0
  -19.5751  -26.6443   21.5235 C   0  0  0  0  0  0
  -18.1924  -26.7989   22.1644 C   0  0  0  0  0  0
  -19.1533  -28.8902   23.2916 C   0  0  0  0  0  0
  -18.9478  -30.1508   23.8933 C   0  0  0  0  0  0
  -17.6484  -30.6637   24.0609 C   0  0  0  0  0  0
  -25.9031  -34.9491   23.5108 C   0  0  0  0  0  0
  -16.5373  -29.9153   23.6350 C   0  0  0  0  0  0
  -16.7281  -28.6584   23.0327 C   0  0  0  0  0  0
  -26.4453  -31.6641   25.0730 C   0  0  0  0  0  0
  -25.3742  -31.3793   26.1514 C   0  0  0  0  0  0
  -27.0252  -30.3066   24.6125 C   0  0  0  0  0  0
  -27.5994  -32.4392   25.7535 C   0  0  0  0  0  0
  -27.5576  -37.1821   24.8460 C   0  0  0  0  0  0
  -21.4136  -29.3096   22.3710 N   0  0  0  0  0  0
  -26.4289  -37.3790   23.9387 N   0  0  0  0  0  0
  -24.6646  -31.0824   22.1007 N   0  0  0  0  0  0
  -23.4193  -28.8252   23.2994 O   0  0  0  0  0  0
  -28.4257  -26.7619   20.0823 O   0  0  0  0  0  0
  -26.5613  -34.8941   22.4683 O   0  0  0  0  0  0
  -23.5327  -32.1478   23.7509 O   0  0  0  0  0  0
  -28.6152  -19.3087   23.0919 C   0  0  0  0  0  0
  -29.1222  -17.9324   25.4801 C   0  0  0  0  0  0
  -28.6867  -20.0265   24.3087 C   0  0  0  0  0  0
  -28.8956  -19.3238   25.5241 C   0  0  0  0  0  0
  -29.0753  -17.2359   24.2553 C   0  0  0  0  0  0
  -28.7685  -17.9060   23.0529 C   0  0  0  0  0  0
  -29.8733  -22.1027   23.5462 C   0  0  0  0  0  0
  -27.3279  -22.0456   23.5421 C   0  0  0  0  0  0
  -29.7937  -23.6210   23.3292 C   0  0  0  0  0  0
  -27.3489  -23.5680   23.3345 C   0  0  0  0  0  0
  -28.6117  -21.5504   24.2455 C   0  0  1  0  0  0
  -28.9031  -20.0243   26.8760 C   0  0  0  0  0  0
  -32.9677  -15.3225   22.9027 C   0  0  0  0  0  0
  -28.4640  -17.8040   20.6549 C   0  0  0  0  0  0
  -30.8481  -15.6989   24.2477 C   0  0  0  0  0  0
  -28.5303  -25.3696   22.0815 C   0  0  0  0  0  0
  -28.3764  -25.4122   20.5487 C   0  0  0  0  0  0
  -31.4571  -15.6065   22.8333 C   0  0  2  0  0  0
  -29.3992  -15.8804   24.1951 N   0  0  0  0  0  0
  -30.7231  -14.5883   22.0847 N   0  0  0  0  0  0
  -28.5624  -23.9683   22.5770 N   0  3  1  0  0  0
  -28.6783  -17.1457   21.9002 O   0  0  0  0  0  0
  -31.4555  -12.4224   19.0484 H   0  0  0  0  0  0
  -30.3369  -11.2596   19.7000 H   0  0  0  0  0  0
  -29.7030  -11.8633   17.3606 H   0  0  0  0  0  0
  -29.6325  -13.5552   17.7907 H   0  0  0  0  0  0
  -27.8215  -11.3230   18.7855 H   0  0  0  0  0  0
  -27.3422  -12.6723   17.7897 H   0  0  0  0  0  0
  -27.7296  -14.2570   19.6080 H   0  0  0  0  0  0
  -28.6454  -11.9075   21.3369 H   0  0  0  0  0  0
  -28.4552  -13.5599   21.8557 H   0  0  0  0  0  0
  -25.2744   -9.5704   22.4750 H   0  0  0  0  0  0
  -23.9988   -7.4653   22.7485 H   0  0  0  0  0  0
  -21.0826   -8.8751   19.8958 H   0  0  0  0  0  0
  -22.3659  -10.9660   19.6154 H   0  0  0  0  0  0
  -21.1999   -7.6146   23.9707 H   0  0  0  0  0  0
  -21.1478   -6.0529   25.9076 H   0  0  0  0  0  0
  -22.0597   -2.7606   23.2858 H   0  0  0  0  0  0
  -22.4118  -11.9897   22.4791 H   0  0  0  0  0  0
  -21.1125  -13.1246   22.2580 H   0  0  0  0  0  0
  -24.6820  -15.8521   20.5468 H   0  0  0  0  0  0
  -26.3123  -15.6270   20.1625 H   0  0  0  0  0  0
  -26.7142  -32.5550   23.1185 H   0  0  0  0  0  0
  -24.9974  -33.9779   25.0411 H   0  0  0  0  0  0
  -22.6957  -31.3151   21.4014 H   0  0  0  0  0  0
  -23.3728  -35.9683   23.3301 H   0  0  0  0  0  0
  -24.3572  -36.8970   22.2059 H   0  0  0  0  0  0
  -23.7252  -37.6538   23.6700 H   0  0  0  0  0  0
  -26.0366  -31.6124   20.5979 H   0  0  0  0  0  0
  -26.8174  -30.9000   21.9804 H   0  0  0  0  0  0
  -28.1004  -29.1314   21.1650 H   0  0  0  0  0  0
  -26.0892  -26.0055   18.9687 H   0  0  0  0  0  0
  -23.9985  -27.2989   19.0147 H   0  0  0  0  0  0
  -23.7229  -30.6016   19.4022 H   0  0  0  0  0  0
  -22.7375  -29.2470   19.8629 H   0  0  0  0  0  0
  -25.1283  -36.1979   25.0806 H   0  0  0  0  0  0
  -20.9980  -28.3358   24.1434 H   0  0  0  0  0  0
  -20.5728  -26.2377   23.3636 H   0  0  0  0  0  0
  -21.6650  -26.7559   22.1186 H   0  0  0  0  0  0
  -19.6934  -25.6350   21.1283 H   0  0  0  0  0  0
  -19.6680  -27.3250   20.6756 H   0  0  0  0  0  0
  -17.4184  -26.6768   21.4053 H   0  0  0  0  0  0
  -18.0301  -26.0144   22.9050 H   0  0  0  0  0  0
  -19.7954  -30.7307   24.2325 H   0  0  0  0  0  0
  -17.5046  -31.6295   24.5253 H   0  0  0  0  0  0
  -15.5383  -30.3068   23.7662 H   0  0  0  0  0  0
  -15.8679  -28.0946   22.6969 H   0  0  0  0  0  0
  -24.5791  -30.7281   25.7895 H   0  0  0  0  0  0
  -24.9092  -32.2972   26.5105 H   0  0  0  0  0  0
  -25.8078  -30.8848   27.0212 H   0  0  0  0  0  0
  -26.2767  -29.6896   24.1136 H   0  0  0  0  0  0
  -27.3931  -29.7265   25.4605 H   0  0  0  0  0  0
  -27.8667  -30.4335   23.9308 H   0  0  0  0  0  0
  -27.2519  -33.3649   26.2142 H   0  0  0  0  0  0
  -28.3791  -32.7043   25.0393 H   0  0  0  0  0  0
  -28.0675  -31.8524   26.5442 H   0  0  0  0  0  0
  -28.2590  -38.0122   24.7461 H   0  0  0  0  0  0
  -28.1043  -36.2629   24.6309 H   0  0  0  0  0  0
  -27.2277  -37.1514   25.8859 H   0  0  0  0  0  0
  -20.9312  -29.8803   21.6909 H   0  0  0  0  0  0
  -26.0187  -38.2874   24.1364 H   0  0  0  0  0  0
  -28.4696  -19.8593   22.1767 H   0  0  0  0  0  0
  -29.3479  -17.3966   26.3919 H   0  0  0  0  0  0
  -30.7595  -21.8622   24.1357 H   0  0  0  0  0  0
  -30.0217  -21.6212   22.5781 H   0  0  0  0  0  0
  -27.2011  -21.5796   22.5656 H   0  0  0  0  0  0
  -26.4523  -21.7607   24.1277 H   0  0  0  0  0  0
  -30.6786  -23.9478   22.7810 H   0  0  0  0  0  0
  -29.8034  -24.1432   24.2894 H   0  0  0  0  0  0
  -27.3300  -24.0771   24.2997 H   0  0  0  0  0  0
  -26.4502  -23.8716   22.7946 H   0  0  0  0  0  0
  -28.5975  -21.9661   25.2527 H   0  0  0  0  0  0
  -28.8907  -19.3059   27.6977 H   0  0  0  0  0  0
  -28.0180  -20.6503   26.9947 H   0  0  0  0  0  0
  -29.7898  -20.6483   26.9918 H   0  0  0  0  0  0
  -33.4764  -16.0761   23.5049 H   0  0  0  0  0  0
  -33.4284  -15.3487   21.9149 H   0  0  0  0  0  0
  -33.1769  -14.3478   23.3440 H   0  0  0  0  0  0
  -28.1834  -17.0658   19.9045 H   0  0  0  0  0  0
  -29.3763  -18.2900   20.3101 H   0  0  0  0  0  0
  -27.6558  -18.5349   20.6851 H   0  0  0  0  0  0
  -31.3313  -16.5051   24.8038 H   0  0  0  0  0  0
  -31.0616  -14.7875   24.8086 H   0  0  0  0  0  0
  -27.7213  -25.9261   22.5554 H   0  0  0  0  0  0
  -29.4494  -25.8919   22.3604 H   0  0  0  0  0  0
  -27.4722  -24.8839   20.2460 H   0  0  0  0  0  0
  -29.2019  -24.8751   20.0817 H   0  0  0  0  0  0
  -31.3153  -16.5621   22.3236 H   0  0  0  0  0  0
  -29.0515  -15.5371   23.3057 H   0  0  0  0  0  0
  -30.0672  -14.0372   22.6190 H   0  0  0  0  0  0
  -28.5767  -23.3889   21.7487 H   0  0  0  0  0  0
  1 25  1  0  0  0
  1 30  2  0  0  0
  1 90  1  0  0  0
  2  3  1  0  0  0
  2 25  1  0  0  0
  2 93  1  0  0  0
  2 94  1  0  0  0
  3  4  1  0  0  0
  3 95  1  0  0  0
  3 96  1  0  0  0
  4  5  1  0  0  0
  4 97  1  0  0  0
  4 98  1  0  0  0
  5  6  1  0  0  0
  5 26  1  0  0  0
  5 99  1  0  0  0
  6 25  1  0  0  0
  6100  1  0  0  0
  6101  1  0  0  0
  7  8  2  0  0  0
  7 26  1  0  0  0
  7 29  1  0  0  0
  8  9  1  0  0  0
  8 22  1  0  0  0
  9 10  1  0  0  0
  9 27  2  0  0  0
 10 11  2  0  0  0
 10 15  1  0  0  0
 11 12  1  0  0  0
 11102  1  0  0  0
 12 13  2  0  0  0
 12103  1  0  0  0
 13 14  1  0  0  0
 13 31  1  0  0  0
 14 15  2  0  0  0
 14104  1  0  0  0
 15105  1  0  0  0
 16 17  2  0  0  0
 16 21  1  0  0  0
 16 31  1  0  0  0
 17 18  1  0  0  0
 17106  1  0  0  0
 18 19  2  0  0  0
 18107  1  0  0  0
 19 20  1  0  0  0
 19 24  1  0  0  0
 20 21  2  0  0  0
 20108  1  0  0  0
 21 23  1  0  0  0
 22 28  1  0  0  0
 22 32  2  0  0  0
 26 27  1  0  0  0
 28109  1  0  0  0
 28110  1  0  0  0
 29111  1  0  0  0
 29112  1  0  0  0
 33 34  1  0  0  0
 33 66  1  0  0  0
 33 70  2  0  0  0
 34 36  1  0  0  0
 34 59  1  0  0  0
 34113  1  0  0  0
 35 44  2  0  0  0
 35 45  1  0  0  0
 35 68  1  0  0  0
 36 56  1  0  0  0
 36114  1  0  0  0
 37 39  1  0  0  0
 37 47  1  0  0  0
 37 66  1  0  0  0
 37115  1  0  0  0
 38 43  2  0  0  0
 38 46  1  0  0  0
 38 47  1  0  0  0
 39 64  1  0  0  0
 39 67  2  0  0  0
 40 52  1  0  0  0
 40 53  2  0  0  0
 40 58  1  0  0  0
 41116  1  0  0  0
 41117  1  0  0  0
 41118  1  0  0  0
 41 48  1  0  0  0
 42 43  1  0  0  0
 42 66  1  0  0  0
 42119  1  0  0  0
 42120  1  0  0  0
 43 44  1  0  0  0
 44121  1  0  0  0
 45 46  2  0  0  0
 45122  1  0  0  0
 46123  1  0  0  0
 47124  1  0  0  0
 47125  1  0  0  0
 48 56  1  0  0  0
 48 65  1  0  0  0
 48126  1  0  0  0
 49 50  1  0  0  0
 49 53  1  0  0  0
 49 64  1  0  0  0
 49127  1  0  0  0
 50 51  1  0  0  0
 50128  1  0  0  0
 50129  1  0  0  0
 51 52  1  0  0  0
 51130  1  0  0  0
 51131  1  0  0  0
 52132  1  0  0  0
 52133  1  0  0  0
 53 54  1  0  0  0
 54 55  2  0  0  0
 54134  1  0  0  0
 55 57  1  0  0  0
 55135  1  0  0  0
 56 69  2  0  0  0
 57 58  2  0  0  0
 57136  1  0  0  0
 58137  1  0  0  0
 59 60  1  0  0  0
 59 61  1  0  0  0
 59 62  1  0  0  0
 60138  1  0  0  0
 60139  1  0  0  0
 60140  1  0  0  0
 61141  1  0  0  0
 61142  1  0  0  0
 61143  1  0  0  0
 62144  1  0  0  0
 62145  1  0  0  0
 62146  1  0  0  0
 63 65  1  0  0  0
 63147  1  0  0  0
 63148  1  0  0  0
 63149  1  0  0  0
 64150  1  0  0  0
 65151  1  0  0  0
 68 87  1  0  0  0
 71 73  2  0  0  0
 71 76  1  0  0  0
 71152  1  0  0  0
 72 74  2  0  0  0
 72 75  1  0  0  0
 72153  1  0  0  0
 73 74  1  0  0  0
 73 81  1  0  0  0
 74 82  1  0  0  0
 75 76  2  0  0  0
 75 89  1  0  0  0
 76 92  1  0  0  0
 77 79  1  0  0  0
 77 81  1  0  0  0
 77154  1  0  0  0
 77155  1  0  0  0
 78 80  1  0  0  0
 78 81  1  0  0  0
 78156  1  0  0  0
 78157  1  0  0  0
 79 91  1  0  0  0
 79158  1  0  0  0
 79159  1  0  0  0
 80 91  1  0  0  0
 80160  1  0  0  0
 80161  1  0  0  0
 81162  1  0  0  0
 82163  1  0  0  0
 82164  1  0  0  0
 82165  1  0  0  0
 83166  1  0  0  0
 83167  1  0  0  0
 83168  1  0  0  0
 83 88  1  0  0  0
 84 92  1  0  0  0
 84169  1  0  0  0
 84170  1  0  0  0
 84171  1  0  0  0
 85 88  1  0  0  0
 85 89  1  0  0  0
 85172  1  0  0  0
 85173  1  0  0  0
 86 87  1  0  0  0
 86174  1  0  0  0
 86175  1  0  0  0
 86 91  1  0  0  0
 87176  1  0  0  0
 87177  1  0  0  0
 88 90  1  0  0  0
 88178  1  0  0  0
 89179  1  0  0  0
 90180  1  0  0  0
 91181  1  0  0  0
M  CHG  1  91   1
M  ISO  4   1 100  68 101  87 101  90 100
M  END
> <chiral flag>
0

> <version>
0

> <s_m_source_file>
/data/baiqing/PycharmProjects/Reinvent-master-3.2/result/LINK_invent/BTK/process_docking_weight1_custom_sum_contain_oxygen_bond_distance_aromatic_linkinvent_7_9_3/rearranged_h_0160.sdf

> <i_m_source_file_index>
55

> <r_mmod_Potential_Energy-OPLS-2005>
-190.436676025391

> <r_mmod_Stretch_Energy-OPLS-2005>
34.6251182556152

> <r_mmod_Bend_Energy-OPLS-2005>
104.243705749512

> <r_mmod_Torsional_Energy-OPLS-2005>
282.702026367188

> <r_mmod_Improper_Torsional_Energy-OPLS-2005>
11.3484497070312

> <r_mmod_Van_der_Waal_Energy-OPLS-2005>
160.786117553711

> <r_mmod_Electrostatic_Energy-OPLS-2005>
-359.405731201172

> <r_mmod_Solvation_Energy-OPLS-2005>
-436.397247314453

> <b_mmod_Minimization_Converged-OPLS-2005>
0

> <r_mmod_RMS_Derivative-OPLS-2005>
3.55626010894775

$$$$
55
                    3D
 Structure written by MMmdl.
166175  0  0  1  0            999 V2000
  -30.2812  -15.7089   20.3528 C   0  0  0  0  0  0
  -30.4148  -13.1305   19.5666 C   0  0  0  0  0  0
  -29.5556  -12.6922   18.3415 C   0  0  0  0  0  0
  -28.1358  -12.3038   18.7788 C   0  0  0  0  0  0
  -27.5928  -13.3120   19.8129 C   0  0  2  0  0  0
  -28.5985  -13.6480   20.9380 C   0  0  0  0  0  0
  -25.2295  -13.8279   20.5781 C   0  0  0  0  0  0
  -24.1686  -13.0430   20.9265 C   0  0  0  0  0  0
  -24.6392  -11.6939   20.8734 C   0  0  0  0  0  0
  -23.9093  -10.4276   21.0376 C   0  0  0  0  0  0
  -24.3628   -9.4204   21.9174 C   0  0  0  0  0  0
  -23.6292   -8.2247   22.0759 C   0  0  0  0  0  0
  -22.4285   -8.0267   21.3547 C   0  0  0  0  0  0
  -21.9918   -9.0232   20.4645 C   0  0  0  0  0  0
  -22.7248  -10.2113   20.3053 C   0  0  0  0  0  0
  -21.6844   -6.0718   22.5275 C   0  0  0  0  0  0
  -21.4019   -6.5618   23.8205 C   0  0  0  0  0  0
  -21.3686   -5.6778   24.9173 C   0  0  0  0  0  0
  -21.6054   -4.3040   24.7222 C   0  0  0  0  0  0
  -21.8808   -3.8126   23.4349 C   0  0  0  0  0  0
  -21.9189   -4.6939   22.3397 C   0  0  0  0  0  0
  -22.7695  -13.5153   21.1909 C   0  0  0  0  0  0
  -22.1648   -4.2119   21.0983 F   0  0  0  0  0  0
  -21.5644   -3.4545   25.7747 F   0  0  0  0  0  0
  -29.7685  -14.3203   20.3126 N   0  0  0  0  0  0
  -26.2739  -12.9615   20.3187 N   0  0  0  0  0  0
  -25.9340  -11.6686   20.5654 N   0  0  0  0  0  0
  -22.0349  -12.8153   22.0475 N   0  0  0  0  0  0
  -25.3893  -15.2035   20.4301 N   0  0  0  0  0  0
  -31.4912  -15.6240   20.0529 O   0  0  0  0  0  0
  -21.6651   -6.8861   21.4239 O   0  0  0  0  0  0
  -22.3375  -14.5440   20.6716 O   0  0  0  0  0  0
  -24.6884  -31.7917   23.1405 C   0  0  0  0  0  0
  -25.9448  -32.4414   23.7938 C   0  0  1  0  0  0
  -27.2276  -26.6492   20.2096 C   0  0  0  0  0  0
  -25.5991  -33.8243   24.1824 N   0  0  0  0  0  0
  -23.5172  -30.3889   21.4984 C   0  0  2  0  0  0
  -24.9742  -28.7184   20.1145 C   0  0  0  0  0  0
  -22.7807  -29.4254   22.4660 C   0  0  0  0  0  0
  -18.0350  -28.1455   22.8420 C   0  0  0  0  0  0
  -24.1520  -36.7217   23.2650 C   0  0  0  0  0  0
  -26.0985  -30.5075   21.4113 C   0  0  0  0  0  0
  -26.1648  -29.0655   20.7636 C   0  0  0  0  0  0
  -27.2735  -28.0592   20.7796 C   0  0  0  0  0  0
  -26.0048  -26.5266   19.4990 C   0  0  0  0  0  0
  -24.9354  -27.4752   19.4595 C   0  0  0  0  0  0
  -23.7727  -29.6796   20.1372 C   0  0  0  0  0  0
  -25.4168  -36.2885   24.0245 C   0  0  1  0  0  0
  -20.5980  -28.3807   23.1133 C   0  0  2  0  0  0
  -20.6830  -26.9454   22.5419 C   0  0  0  0  0  0
  -19.5809  -26.6371   21.5235 C   0  0  0  0  0  0
  -18.1978  -26.7971   22.1600 C   0  0  0  0  0  0
  -19.1610  -28.8950   23.2743 C   0  0  0  0  0  0
  -18.9518  -30.1530   23.8789 C   0  0  0  0  0  0
  -17.6509  -30.6607   24.0557 C   0  0  0  0  0  0
  -25.9143  -34.9272   23.4886 C   0  0  0  0  0  0
  -16.5399  -29.9096   23.6356 C   0  0  0  0  0  0
  -16.7324  -28.6547   23.0312 C   0  0  0  0  0  0
  -26.4563  -31.6465   25.0593 C   0  0  0  0  0  0
  -25.3558  -31.3876   26.1157 C   0  0  0  0  0  0
  -27.0475  -30.2771   24.6566 C   0  0  0  0  0  0
  -27.5962  -32.4364   25.7449 C   0  0  0  0  0  0
  -27.5573  -37.1759   24.8441 C   0  0  0  0  0  0
  -21.4438  -29.3046   22.3453 N   0  0  0  0  0  0
  -26.4295  -37.3648   23.9377 N   0  0  0  0  0  0
  -24.7933  -30.9312   22.0698 N   0  0  0  0  0  0
  -23.4240  -28.7822   23.2978 O   0  0  0  0  0  0
  -28.1847  -25.4082   20.2745 O   0  0  0  0  0  0
  -26.5820  -34.8867   22.4534 O   0  0  0  0  0  0
  -23.5902  -32.1000   23.6362 O   0  0  0  0  0  0
  -29.3952  -20.1689   21.9190 C   0  0  0  0  0  0
  -28.9738  -20.4522   20.6084 C   0  0  0  0  0  0
  -30.4214  -20.9505   22.5081 C   0  0  0  0  0  0
  -29.0481  -22.0829   20.2844 C   0  0  0  0  0  0
  -30.9852  -22.0393   21.7826 C   0  0  0  0  0  0
  -30.3279  -22.5639   20.6370 C   0  0  0  0  0  0
  -28.9471  -18.8243   22.5149 C   0  0  0  0  0  0
  -29.3928  -18.7619   19.9344 C   0  0  0  0  0  0
  -29.7834  -17.5638   22.0685 C   0  0  1  0  0  0
  -30.9958  -20.5393   23.8678 C   0  0  0  0  0  0
  -32.2473  -22.7160   22.3117 C   0  0  0  0  0  0
  -30.8761  -23.7968   19.9253 C   0  0  0  0  0  0
  -28.1542  -16.1078   23.4569 C   0  0  0  0  0  0
  -27.9760  -23.6346   20.1641 C   0  0  0  0  0  0
  -29.6172  -16.4746   23.1639 C   0  0  0  0  0  0
  -29.6054  -17.1250   20.6360 N   0  0  0  0  0  0
  -31.4128  -13.3835   19.2073 H   0  0  0  0  0  0
  -30.5759  -12.2867   20.2402 H   0  0  0  0  0  0
  -30.0296  -11.8653   17.8114 H   0  0  0  0  0  0
  -29.5016  -13.5196   17.6327 H   0  0  0  0  0  0
  -28.1822  -11.3130   19.2349 H   0  0  0  0  0  0
  -27.4691  -12.2210   17.9184 H   0  0  0  0  0  0
  -27.4518  -14.2305   19.2413 H   0  0  0  0  0  0
  -28.8678  -12.7617   21.5156 H   0  0  0  0  0  0
  -28.1215  -14.3227   21.6361 H   0  0  0  0  0  0
  -25.2763   -9.5681   22.4758 H   0  0  0  0  0  0
  -23.9984   -7.4659   22.7510 H   0  0  0  0  0  0
  -21.0841   -8.8740   19.8963 H   0  0  0  0  0  0
  -22.3682  -10.9645   19.6169 H   0  0  0  0  0  0
  -21.2007   -7.6130   23.9698 H   0  0  0  0  0  0
  -21.1534   -6.0520   25.9077 H   0  0  0  0  0  0
  -22.0566   -2.7584   23.2852 H   0  0  0  0  0  0
  -22.3973  -11.9848   22.4916 H   0  0  0  0  0  0
  -21.0949  -13.1149   22.2644 H   0  0  0  0  0  0
  -24.6196  -15.8457   20.5800 H   0  0  0  0  0  0
  -26.2363  -15.6624   20.1198 H   0  0  0  0  0  0
  -26.7533  -32.4829   23.0636 H   0  0  0  0  0  0
  -24.9947  -33.9251   24.9846 H   0  0  0  0  0  0
  -22.8498  -31.2293   21.3023 H   0  0  0  0  0  0
  -23.3753  -35.9569   23.3242 H   0  0  0  0  0  0
  -24.3590  -36.8994   22.2080 H   0  0  0  0  0  0
  -23.7324  -37.6395   23.6801 H   0  0  0  0  0  0
  -26.2963  -31.2259   20.6164 H   0  0  0  0  0  0
  -26.9548  -30.5793   22.0697 H   0  0  0  0  0  0
  -28.1653  -28.3332   21.3281 H   0  0  0  0  0  0
  -25.8293  -25.5908   18.9867 H   0  0  0  0  0  0
  -24.0357  -27.1975   18.9275 H   0  0  0  0  0  0
  -23.9564  -30.4368   19.3750 H   0  0  0  0  0  0
  -22.8766  -29.1529   19.8067 H   0  0  0  0  0  0
  -25.1378  -36.1615   25.0728 H   0  0  0  0  0  0
  -21.0039  -28.3461   24.1267 H   0  0  0  0  0  0
  -20.5785  -26.2407   23.3685 H   0  0  0  0  0  0
  -21.6679  -26.7451   22.1187 H   0  0  0  0  0  0
  -19.7011  -25.6264   21.1327 H   0  0  0  0  0  0
  -19.6793  -27.3115   20.6718 H   0  0  0  0  0  0
  -17.4277  -26.6700   21.3982 H   0  0  0  0  0  0
  -18.0350  -26.0136   22.9016 H   0  0  0  0  0  0
  -19.7995  -30.7367   24.2108 H   0  0  0  0  0  0
  -17.5066  -31.6271   24.5201 H   0  0  0  0  0  0
  -15.5398  -30.2969   23.7769 H   0  0  0  0  0  0
  -15.8719  -28.0884   22.7022 H   0  0  0  0  0  0
  -24.5793  -30.7178   25.7453 H   0  0  0  0  0  0
  -24.8664  -32.3125   26.4211 H   0  0  0  0  0  0
  -25.7609  -30.9281   27.0175 H   0  0  0  0  0  0
  -26.3153  -29.6337   24.1680 H   0  0  0  0  0  0
  -27.3966  -29.7283   25.5327 H   0  0  0  0  0  0
  -27.9106  -30.3826   23.9993 H   0  0  0  0  0  0
  -27.2445  -33.3769   26.1707 H   0  0  0  0  0  0
  -28.3900  -32.6793   25.0368 H   0  0  0  0  0  0
  -28.0464  -31.8728   26.5629 H   0  0  0  0  0  0
  -28.2505  -38.0133   24.7475 H   0  0  0  0  0  0
  -28.1152  -36.2640   24.6261 H   0  0  0  0  0  0
  -27.2285  -37.1376   25.8846 H   0  0  0  0  0  0
  -20.9761  -29.8792   21.6565 H   0  0  0  0  0  0
  -26.0118  -38.2701   24.1379 H   0  0  0  0  0  0
  -27.9016  -18.6747   22.2379 H   0  0  0  0  0  0
  -28.9168  -18.9104   23.6005 H   0  0  0  0  0  0
  -30.3067  -18.9250   19.3623 H   0  0  0  0  0  0
  -28.6317  -18.6005   19.1724 H   0  0  0  0  0  0
  -30.8354  -17.8505   22.1228 H   0  0  0  0  0  0
  -31.0286  -19.4573   23.9873 H   0  0  0  0  0  0
  -30.3810  -20.9469   24.6707 H   0  0  0  0  0  0
  -32.0177  -20.8724   24.0346 H   0  0  0  0  0  0
  -32.0515  -23.1365   23.2976 H   0  0  0  0  0  0
  -32.6222  -23.5302   21.6942 H   0  0  0  0  0  0
  -33.0582  -21.9921   22.3941 H   0  0  0  0  0  0
  -30.3005  -24.0586   19.0376 H   0  0  0  0  0  0
  -31.8957  -23.6178   19.5800 H   0  0  0  0  0  0
  -30.8722  -24.6588   20.5923 H   0  0  0  0  0  0
  -27.7108  -16.7832   24.1888 H   0  0  0  0  0  0
  -28.0765  -15.0968   23.8572 H   0  0  0  0  0  0
  -27.5390  -16.1796   22.5606 H   0  0  0  0  0  0
  -27.1833  -23.4431   20.8867 H   0  0  0  0  0  0
  -27.4824  -23.5112   19.1992 H   0  0  0  0  0  0
  -30.0564  -16.8443   24.0933 H   0  0  0  0  0  0
  -30.2013  -15.5814   22.9528 H   0  0  0  0  0  0
  1 25  1  0  0  0
  1 30  2  0  0  0
  1 86  1  0  0  0
  2  3  1  0  0  0
  2 25  1  0  0  0
  2 87  1  0  0  0
  2 88  1  0  0  0
  3  4  1  0  0  0
  3 89  1  0  0  0
  3 90  1  0  0  0
  4  5  1  0  0  0
  4 91  1  0  0  0
  4 92  1  0  0  0
  5  6  1  0  0  0
  5 26  1  0  0  0
  5 93  1  0  0  0
  6 25  1  0  0  0
  6 94  1  0  0  0
  6 95  1  0  0  0
  7  8  2  0  0  0
  7 26  1  0  0  0
  7 29  1  0  0  0
  8  9  1  0  0  0
  8 22  1  0  0  0
  9 10  1  0  0  0
  9 27  2  0  0  0
 10 11  2  0  0  0
 10 15  1  0  0  0
 11 12  1  0  0  0
 11 96  1  0  0  0
 12 13  2  0  0  0
 12 97  1  0  0  0
 13 14  1  0  0  0
 13 31  1  0  0  0
 14 15  2  0  0  0
 14 98  1  0  0  0
 15 99  1  0  0  0
 16 17  2  0  0  0
 16 21  1  0  0  0
 16 31  1  0  0  0
 17 18  1  0  0  0
 17100  1  0  0  0
 18 19  2  0  0  0
 18101  1  0  0  0
 19 20  1  0  0  0
 19 24  1  0  0  0
 20 21  2  0  0  0
 20102  1  0  0  0
 21 23  1  0  0  0
 22 28  1  0  0  0
 22 32  2  0  0  0
 26 27  1  0  0  0
 28103  1  0  0  0
 28104  1  0  0  0
 29105  1  0  0  0
 29106  1  0  0  0
 33 34  1  0  0  0
 33 66  1  0  0  0
 33 70  2  0  0  0
 34 36  1  0  0  0
 34 59  1  0  0  0
 34107  1  0  0  0
 35 44  2  0  0  0
 35 45  1  0  0  0
 35 68  1  0  0  0
 36 56  1  0  0  0
 36108  1  0  0  0
 37 39  1  0  0  0
 37 47  1  0  0  0
 37 66  1  0  0  0
 37109  1  0  0  0
 38 43  2  0  0  0
 38 46  1  0  0  0
 38 47  1  0  0  0
 39 64  1  0  0  0
 39 67  2  0  0  0
 40 52  1  0  0  0
 40 53  2  0  0  0
 40 58  1  0  0  0
 41110  1  0  0  0
 41111  1  0  0  0
 41112  1  0  0  0
 41 48  1  0  0  0
 42 43  1  0  0  0
 42 66  1  0  0  0
 42113  1  0  0  0
 42114  1  0  0  0
 43 44  1  0  0  0
 44115  1  0  0  0
 45 46  2  0  0  0
 45116  1  0  0  0
 46117  1  0  0  0
 47118  1  0  0  0
 47119  1  0  0  0
 48 56  1  0  0  0
 48 65  1  0  0  0
 48120  1  0  0  0
 49 50  1  0  0  0
 49 53  1  0  0  0
 49 64  1  0  0  0
 49121  1  0  0  0
 50 51  1  0  0  0
 50122  1  0  0  0
 50123  1  0  0  0
 51 52  1  0  0  0
 51124  1  0  0  0
 51125  1  0  0  0
 52126  1  0  0  0
 52127  1  0  0  0
 53 54  1  0  0  0
 54 55  2  0  0  0
 54128  1  0  0  0
 55 57  1  0  0  0
 55129  1  0  0  0
 56 69  2  0  0  0
 57 58  2  0  0  0
 57130  1  0  0  0
 58131  1  0  0  0
 59 60  1  0  0  0
 59 61  1  0  0  0
 59 62  1  0  0  0
 60132  1  0  0  0
 60133  1  0  0  0
 60134  1  0  0  0
 61135  1  0  0  0
 61136  1  0  0  0
 61137  1  0  0  0
 62138  1  0  0  0
 62139  1  0  0  0
 62140  1  0  0  0
 63 65  1  0  0  0
 63141  1  0  0  0
 63142  1  0  0  0
 63143  1  0  0  0
 64144  1  0  0  0
 65145  1  0  0  0
 68 84  1  0  0  0
 71 72  1  0  0  0
 71 73  2  0  0  0
 71 77  1  0  0  0
 72 74  2  0  0  0
 72 78  1  0  0  0
 73 75  1  0  0  0
 73 80  1  0  0  0
 74 76  1  0  0  0
 74 84  1  0  0  0
 75 76  2  0  0  0
 75 81  1  0  0  0
 76 82  1  0  0  0
 77 79  1  0  0  0
 77146  1  0  0  0
 77147  1  0  0  0
 78 86  1  0  0  0
 78148  1  0  0  0
 78149  1  0  0  0
 79 85  1  0  0  0
 79 86  1  0  0  0
 79150  1  0  0  0
 80151  1  0  0  0
 80152  1  0  0  0
 80153  1  0  0  0
 81154  1  0  0  0
 81155  1  0  0  0
 81156  1  0  0  0
 82157  1  0  0  0
 82158  1  0  0  0
 82159  1  0  0  0
 83 85  1  0  0  0
 83160  1  0  0  0
 83161  1  0  0  0
 83162  1  0  0  0
 84163  1  0  0  0
 84164  1  0  0  0
 85165  1  0  0  0
 85166  1  0  0  0
M  ISO  4   1 100  68 101  84 101  86 100
M  END
> <chiral flag>
0

> <version>
0

> <s_m_source_file>
/data/baiqing/PycharmProjects/Reinvent-master-3.2/result/LINK_invent/BTK/process_docking_weight1_custom_sum_contain_oxygen_bond_distance_aromatic_linkinvent_7_9_3/rearranged_h_0160.sdf

> <i_m_source_file_index>
56

> <r_mmod_Potential_Energy-OPLS-2005>
3167.10009765625

> <r_mmod_Stretch_Energy-OPLS-2005>
1242.13427734375

> <r_mmod_Bend_Energy-OPLS-2005>
717.30029296875

> <r_mmod_Torsional_Energy-OPLS-2005>
527.533813476562

> <r_mmod_Improper_Torsional_Energy-OPLS-2005>
31.2763023376465

> <r_mmod_Van_der_Waal_Energy-OPLS-2005>
160.823440551758

> <r_mmod_Electrostatic_Energy-OPLS-2005>
-319.095611572266

> <r_mmod_Solvation_Energy-OPLS-2005>
-196.777923583984

> <b_mmod_Minimization_Converged-OPLS-2005>
0

> <r_mmod_RMS_Derivative-OPLS-2005>
3.28496360778809

$$$$
56
                    3D
 Structure written by MMmdl.
164173  0  0  1  0            999 V2000
  -30.7273  -14.4534   20.5806 C   0  0  0  0  0  0
  -30.4142  -12.3003   19.4203 C   0  0  0  0  0  0
  -29.4890  -12.5000   18.2038 C   0  0  0  0  0  0
  -28.0116  -12.3628   18.6191 C   0  0  0  0  0  0
  -27.6590  -13.2088   19.8722 C   0  0  2  0  0  0
  -28.7012  -13.0028   20.9945 C   0  0  0  0  0  0
  -25.2576  -13.8169   20.5680 C   0  0  0  0  0  0
  -24.1831  -13.0443   20.9182 C   0  0  0  0  0  0
  -24.6389  -11.6910   20.8743 C   0  0  0  0  0  0
  -23.9059  -10.4294   21.0408 C   0  0  0  0  0  0
  -24.3612   -9.4210   21.9186 C   0  0  0  0  0  0
  -23.6290   -8.2244   22.0755 C   0  0  0  0  0  0
  -22.4272   -8.0282   21.3544 C   0  0  0  0  0  0
  -21.9907   -9.0256   20.4647 C   0  0  0  0  0  0
  -22.7233  -10.2136   20.3058 C   0  0  0  0  0  0
  -21.6852   -6.0736   22.5279 C   0  0  0  0  0  0
  -21.4013   -6.5640   23.8213 C   0  0  0  0  0  0
  -21.3659   -5.6793   24.9175 C   0  0  0  0  0  0
  -21.6043   -4.3056   24.7225 C   0  0  0  0  0  0
  -21.8820   -3.8148   23.4346 C   0  0  0  0  0  0
  -21.9192   -4.6964   22.3402 C   0  0  0  0  0  0
  -22.7854  -13.5239   21.1845 C   0  0  0  0  0  0
  -22.1661   -4.2150   21.0980 F   0  0  0  0  0  0
  -21.5629   -3.4540   25.7738 F   0  0  0  0  0  0
  -30.0304  -13.2945   20.4347 N   0  0  0  0  0  0
  -26.3011  -12.9341   20.3361 N   0  0  0  0  0  0
  -25.9316  -11.6500   20.5773 N   0  0  0  0  0  0
  -22.0494  -12.8233   22.0401 N   0  0  0  0  0  0
  -25.4304  -15.1885   20.4075 N   0  0  0  0  0  0
  -31.8602  -14.6035   20.1128 O   0  0  0  0  0  0
  -21.6637   -6.8878   21.4240 O   0  0  0  0  0  0
  -22.3542  -14.5548   20.6696 O   0  0  0  0  0  0
  -24.6143  -31.8687   23.2107 C   0  0  0  0  0  0
  -25.9039  -32.4827   23.8398 C   0  0  1  0  0  0
  -27.2290  -27.4316   20.0970 C   0  0  0  0  0  0
  -25.5893  -33.8624   24.2330 N   0  0  0  0  0  0
  -23.4015  -30.4932   21.5518 C   0  0  2  0  0  0
  -24.8457  -28.9612   20.1126 C   0  0  0  0  0  0
  -22.7409  -29.4661   22.4994 C   0  0  0  0  0  0
  -18.0271  -28.1375   22.8493 C   0  0  0  0  0  0
  -24.1486  -36.7320   23.2638 C   0  0  0  0  0  0
  -25.9304  -30.8341   21.3632 C   0  0  0  0  0  0
  -26.0063  -29.4692   20.7086 C   0  0  0  0  0  0
  -27.2006  -28.7129   20.6956 C   0  0  0  0  0  0
  -26.0507  -26.9452   19.4832 C   0  0  0  0  0  0
  -24.8632  -27.6992   19.4960 C   0  0  0  0  0  0
  -23.6084  -29.8282   20.1651 C   0  0  0  0  0  0
  -25.4106  -36.3116   24.0338 C   0  0  1  0  0  0
  -20.5861  -28.3663   23.1321 C   0  0  2  0  0  0
  -20.6763  -26.9400   22.5418 C   0  0  0  0  0  0
  -19.5742  -26.6385   21.5214 C   0  0  0  0  0  0
  -18.1921  -26.7921   22.1624 C   0  0  0  0  0  0
  -19.1520  -28.8833   23.2904 C   0  0  0  0  0  0
  -18.9450  -30.1439   23.8915 C   0  0  0  0  0  0
  -17.6455  -30.6583   24.0565 C   0  0  0  0  0  0
  -25.9030  -34.9480   23.5132 C   0  0  0  0  0  0
  -16.5344  -29.9087   23.6323 C   0  0  0  0  0  0
  -16.7261  -28.6502   23.0346 C   0  0  0  0  0  0
  -26.4466  -31.6601   25.0723 C   0  0  0  0  0  0
  -25.3734  -31.3704   26.1475 C   0  0  0  0  0  0
  -27.0293  -30.3045   24.6087 C   0  0  0  0  0  0
  -27.6046  -32.4317   25.7483 C   0  0  0  0  0  0
  -27.5582  -37.1815   24.8465 C   0  0  0  0  0  0
  -21.4138  -29.3033   22.3732 N   0  0  0  0  0  0
  -26.4297  -37.3796   23.9404 N   0  0  0  0  0  0
  -24.6672  -31.0792   22.1005 N   0  0  0  0  0  0
  -23.4188  -28.8199   23.3028 O   0  0  0  0  0  0
  -28.3983  -26.6965   20.1308 O   0  0  0  0  0  0
  -26.5598  -34.8930   22.4697 O   0  0  0  0  0  0
  -23.5338  -32.1439   23.7505 O   0  0  0  0  0  0
  -31.8578  -17.0697   21.8908 C   0  0  0  0  0  0
  -29.9473  -17.9821   21.0770 C   0  0  0  0  0  0
  -30.5805  -16.7950   21.3364 C   0  0  0  0  0  0
  -32.0009  -18.4286   21.9179 C   0  0  0  0  0  0
  -29.8019  -20.8582   19.9840 C   0  0  0  0  0  0
  -30.0319  -21.1265   22.4390 C   0  0  0  0  0  0
  -29.8066  -22.3990   19.8145 C   0  0  0  0  0  0
  -30.0460  -22.6618   22.2705 C   0  0  0  0  0  0
  -30.6448  -20.4539   21.2052 C   0  0  1  0  0  0
  -33.1657  -19.2356   22.4027 C   0  0  0  0  0  0
  -29.4397  -24.6201   20.8956 C   0  0  0  0  0  0
  -28.2828  -25.2621   20.0987 C   0  0  0  0  0  0
  -30.8470  -19.0059   21.3786 N   0  0  0  0  0  0
  -30.0502  -15.4906   21.1155 N   0  0  0  0  0  0
  -29.3483  -23.1303   21.0356 N   0  3  1  0  0  0
  -31.4593  -12.3854   19.1175 H   0  0  0  0  0  0
  -30.3052  -11.2927   19.8244 H   0  0  0  0  0  0
  -29.7269  -11.7731   17.4258 H   0  0  0  0  0  0
  -29.6599  -13.4847   17.7658 H   0  0  0  0  0  0
  -27.8227  -11.3077   18.8204 H   0  0  0  0  0  0
  -27.3599  -12.6332   17.7875 H   0  0  0  0  0  0
  -27.7003  -14.2546   19.5672 H   0  0  0  0  0  0
  -28.6747  -11.9733   21.3545 H   0  0  0  0  0  0
  -28.4679  -13.6218   21.8620 H   0  0  0  0  0  0
  -25.2758   -9.5684   22.4760 H   0  0  0  0  0  0
  -24.0000   -7.4634   22.7473 H   0  0  0  0  0  0
  -21.0839   -8.8774   19.8952 H   0  0  0  0  0  0
  -22.3693  -10.9675   19.6167 H   0  0  0  0  0  0
  -21.2006   -7.6149   23.9716 H   0  0  0  0  0  0
  -21.1479   -6.0524   25.9078 H   0  0  0  0  0  0
  -22.0599   -2.7610   23.2847 H   0  0  0  0  0  0
  -22.4103  -11.9890   22.4786 H   0  0  0  0  0  0
  -21.1114  -13.1263   22.2609 H   0  0  0  0  0  0
  -24.6645  -15.8454   20.5117 H   0  0  0  0  0  0
  -26.2828  -15.6247   20.0788 H   0  0  0  0  0  0
  -26.7113  -32.5538   23.1165 H   0  0  0  0  0  0
  -25.0044  -33.9786   25.0475 H   0  0  0  0  0  0
  -22.6902  -31.3103   21.4154 H   0  0  0  0  0  0
  -23.3744  -35.9660   23.3312 H   0  0  0  0  0  0
  -24.3584  -36.8919   22.2050 H   0  0  0  0  0  0
  -23.7245  -37.6531   23.6644 H   0  0  0  0  0  0
  -26.0426  -31.6010   20.5955 H   0  0  0  0  0  0
  -26.8183  -30.8863   21.9813 H   0  0  0  0  0  0
  -28.0957  -29.1008   21.1621 H   0  0  0  0  0  0
  -26.0299  -25.9869   18.9851 H   0  0  0  0  0  0
  -23.9722  -27.3057   19.0260 H   0  0  0  0  0  0
  -23.7167  -30.6048   19.4070 H   0  0  0  0  0  0
  -22.7316  -29.2489   19.8695 H   0  0  0  0  0  0
  -25.1284  -36.1989   25.0832 H   0  0  0  0  0  0
  -20.9952  -28.3229   24.1441 H   0  0  0  0  0  0
  -20.5669  -26.2271   23.3605 H   0  0  0  0  0  0
  -21.6635  -26.7449   22.1210 H   0  0  0  0  0  0
  -19.6904  -25.6302   21.1230 H   0  0  0  0  0  0
  -19.6677  -27.3209   20.6756 H   0  0  0  0  0  0
  -17.4191  -26.6671   21.4025 H   0  0  0  0  0  0
  -18.0316  -26.0061   22.9016 H   0  0  0  0  0  0
  -19.7928  -30.7246   24.2295 H   0  0  0  0  0  0
  -17.5013  -31.6266   24.5164 H   0  0  0  0  0  0
  -15.5346  -30.2996   23.7637 H   0  0  0  0  0  0
  -15.8660  -28.0830   22.7049 H   0  0  0  0  0  0
  -24.5905  -30.7052   25.7813 H   0  0  0  0  0  0
  -24.8930  -32.2859   26.4938 H   0  0  0  0  0  0
  -25.8092  -30.8865   27.0225 H   0  0  0  0  0  0
  -26.2832  -29.6813   24.1142 H   0  0  0  0  0  0
  -27.4067  -29.7274   25.4539 H   0  0  0  0  0  0
  -27.8667  -30.4367   23.9231 H   0  0  0  0  0  0
  -27.2667  -33.3604   26.2095 H   0  0  0  0  0  0
  -28.3838  -32.6894   25.0296 H   0  0  0  0  0  0
  -28.0735  -31.8418   26.5370 H   0  0  0  0  0  0
  -28.2608  -38.0105   24.7511 H   0  0  0  0  0  0
  -28.1069  -36.2638   24.6295 H   0  0  0  0  0  0
  -27.2302  -37.1472   25.8868 H   0  0  0  0  0  0
  -20.9295  -29.8769   21.6969 H   0  0  0  0  0  0
  -26.0190  -38.2878   24.1400 H   0  0  0  0  0  0
  -32.5988  -16.3554   22.2246 H   0  0  0  0  0  0
  -28.9683  -18.1960   20.6688 H   0  0  0  0  0  0
  -30.2046  -20.3926   19.0840 H   0  0  0  0  0  0
  -28.7777  -20.4989   20.0867 H   0  0  0  0  0  0
  -29.0140  -20.7694   22.5990 H   0  0  0  0  0  0
  -30.5929  -20.8577   23.3343 H   0  0  0  0  0  0
  -29.1781  -22.6690   18.9656 H   0  0  0  0  0  0
  -30.8172  -22.7247   19.5615 H   0  0  0  0  0  0
  -31.0795  -23.0124   22.2508 H   0  0  0  0  0  0
  -29.5836  -23.1190   23.1464 H   0  0  0  0  0  0
  -31.6340  -20.8847   21.0449 H   0  0  0  0  0  0
  -33.8996  -18.6006   22.8998 H   0  0  0  0  0  0
  -32.8547  -19.9941   23.1208 H   0  0  0  0  0  0
  -33.6720  -19.7339   21.5756 H   0  0  0  0  0  0
  -29.4198  -25.0691   21.8897 H   0  0  0  0  0  0
  -30.3999  -24.9022   20.4620 H   0  0  0  0  0  0
  -27.3457  -24.9340   20.5516 H   0  0  0  0  0  0
  -28.2863  -24.9241   19.0620 H   0  0  0  0  0  0
  -29.0690  -15.3438   21.2980 H   0  0  0  0  0  0
  -28.3719  -22.9048   21.1699 H   0  0  0  0  0  0
  1 25  1  0  0  0
  1 30  2  0  0  0
  1 84  1  0  0  0
  2  3  1  0  0  0
  2 25  1  0  0  0
  2 86  1  0  0  0
  2 87  1  0  0  0
  3  4  1  0  0  0
  3 88  1  0  0  0
  3 89  1  0  0  0
  4  5  1  0  0  0
  4 90  1  0  0  0
  4 91  1  0  0  0
  5  6  1  0  0  0
  5 26  1  0  0  0
  5 92  1  0  0  0
  6 25  1  0  0  0
  6 93  1  0  0  0
  6 94  1  0  0  0
  7  8  2  0  0  0
  7 26  1  0  0  0
  7 29  1  0  0  0
  8  9  1  0  0  0
  8 22  1  0  0  0
  9 10  1  0  0  0
  9 27  2  0  0  0
 10 11  2  0  0  0
 10 15  1  0  0  0
 11 12  1  0  0  0
 11 95  1  0  0  0
 12 13  2  0  0  0
 12 96  1  0  0  0
 13 14  1  0  0  0
 13 31  1  0  0  0
 14 15  2  0  0  0
 14 97  1  0  0  0
 15 98  1  0  0  0
 16 17  2  0  0  0
 16 21  1  0  0  0
 16 31  1  0  0  0
 17 18  1  0  0  0
 17 99  1  0  0  0
 18 19  2  0  0  0
 18100  1  0  0  0
 19 20  1  0  0  0
 19 24  1  0  0  0
 20 21  2  0  0  0
 20101  1  0  0  0
 21 23  1  0  0  0
 22 28  1  0  0  0
 22 32  2  0  0  0
 26 27  1  0  0  0
 28102  1  0  0  0
 28103  1  0  0  0
 29104  1  0  0  0
 29105  1  0  0  0
 33 34  1  0  0  0
 33 66  1  0  0  0
 33 70  2  0  0  0
 34 36  1  0  0  0
 34 59  1  0  0  0
 34106  1  0  0  0
 35 44  2  0  0  0
 35 45  1  0  0  0
 35 68  1  0  0  0
 36 56  1  0  0  0
 36107  1  0  0  0
 37 39  1  0  0  0
 37 47  1  0  0  0
 37 66  1  0  0  0
 37108  1  0  0  0
 38 43  2  0  0  0
 38 46  1  0  0  0
 38 47  1  0  0  0
 39 64  1  0  0  0
 39 67  2  0  0  0
 40 52  1  0  0  0
 40 53  2  0  0  0
 40 58  1  0  0  0
 41109  1  0  0  0
 41110  1  0  0  0
 41111  1  0  0  0
 41 48  1  0  0  0
 42 43  1  0  0  0
 42 66  1  0  0  0
 42112  1  0  0  0
 42113  1  0  0  0
 43 44  1  0  0  0
 44114  1  0  0  0
 45 46  2  0  0  0
 45115  1  0  0  0
 46116  1  0  0  0
 47117  1  0  0  0
 47118  1  0  0  0
 48 56  1  0  0  0
 48 65  1  0  0  0
 48119  1  0  0  0
 49 50  1  0  0  0
 49 53  1  0  0  0
 49 64  1  0  0  0
 49120  1  0  0  0
 50 51  1  0  0  0
 50121  1  0  0  0
 50122  1  0  0  0
 51 52  1  0  0  0
 51123  1  0  0  0
 51124  1  0  0  0
 52125  1  0  0  0
 52126  1  0  0  0
 53 54  1  0  0  0
 54 55  2  0  0  0
 54127  1  0  0  0
 55 57  1  0  0  0
 55128  1  0  0  0
 56 69  2  0  0  0
 57 58  2  0  0  0
 57129  1  0  0  0
 58130  1  0  0  0
 59 60  1  0  0  0
 59 61  1  0  0  0
 59 62  1  0  0  0
 60131  1  0  0  0
 60132  1  0  0  0
 60133  1  0  0  0
 61134  1  0  0  0
 61135  1  0  0  0
 61136  1  0  0  0
 62137  1  0  0  0
 62138  1  0  0  0
 62139  1  0  0  0
 63 65  1  0  0  0
 63140  1  0  0  0
 63141  1  0  0  0
 63142  1  0  0  0
 64143  1  0  0  0
 65144  1  0  0  0
 68 82  1  0  0  0
 71 73  1  0  0  0
 71 74  2  0  0  0
 71145  1  0  0  0
 72 73  2  0  0  0
 72 83  1  0  0  0
 72146  1  0  0  0
 73 84  1  0  0  0
 74 80  1  0  0  0
 74 83  1  0  0  0
 75 77  1  0  0  0
 75 79  1  0  0  0
 75147  1  0  0  0
 75148  1  0  0  0
 76 78  1  0  0  0
 76 79  1  0  0  0
 76149  1  0  0  0
 76150  1  0  0  0
 77 85  1  0  0  0
 77151  1  0  0  0
 77152  1  0  0  0
 78 85  1  0  0  0
 78153  1  0  0  0
 78154  1  0  0  0
 79 83  1  0  0  0
 79155  1  0  0  0
 80156  1  0  0  0
 80157  1  0  0  0
 80158  1  0  0  0
 81 82  1  0  0  0
 81159  1  0  0  0
 81160  1  0  0  0
 81 85  1  0  0  0
 82161  1  0  0  0
 82162  1  0  0  0
 84163  1  0  0  0
 85164  1  0  0  0
M  CHG  1  85   1
M  ISO  4   1 100  68 101  82 101  84 100
M  END
> <chiral flag>
0

> <version>
0

> <s_m_source_file>
/data/baiqing/PycharmProjects/Reinvent-master-3.2/result/LINK_invent/BTK/process_docking_weight1_custom_sum_contain_oxygen_bond_distance_aromatic_linkinvent_7_9_3/rearranged_h_0160.sdf

> <i_m_source_file_index>
57

> <r_mmod_Potential_Energy-OPLS-2005>
-119.614318847656

> <r_mmod_Stretch_Energy-OPLS-2005>
38.1588478088379

> <r_mmod_Bend_Energy-OPLS-2005>
106.576026916504

> <r_mmod_Torsional_Energy-OPLS-2005>
276.324493408203

> <r_mmod_Improper_Torsional_Energy-OPLS-2005>
3.64059615135193

> <r_mmod_Van_der_Waal_Energy-OPLS-2005>
140.200332641602

> <r_mmod_Electrostatic_Energy-OPLS-2005>
-240.934616088867

> <r_mmod_Solvation_Energy-OPLS-2005>
-457.116821289062

> <b_mmod_Minimization_Converged-OPLS-2005>
0

> <r_mmod_RMS_Derivative-OPLS-2005>
0.402074426412582

$$$$
57
                    3D
 Structure written by MMmdl.
178187  0  0  1  0            999 V2000
  -30.6984  -14.2902   20.7101 C   0  0  0  0  0  0
  -30.3875  -12.2522   19.3346 C   0  0  0  0  0  0
  -29.4604  -12.5617   18.1514 C   0  0  0  0  0  0
  -27.9846  -12.4159   18.5769 C   0  0  0  0  0  0
  -27.6563  -13.1766   19.8851 C   0  0  2  0  0  0
  -28.6844  -12.8021   20.9578 C   0  0  0  0  0  0
  -25.2497  -13.8061   20.5639 C   0  0  0  0  0  0
  -24.1755  -13.0451   20.9173 C   0  0  0  0  0  0
  -24.6224  -11.6835   20.8717 C   0  0  0  0  0  0
  -23.8902  -10.4227   21.0358 C   0  0  0  0  0  0
  -24.3429   -9.4133   21.9167 C   0  0  0  0  0  0
  -23.6133   -8.2150   22.0737 C   0  0  0  0  0  0
  -22.4114   -8.0162   21.3516 C   0  0  0  0  0  0
  -21.9728   -9.0138   20.4641 C   0  0  0  0  0  0
  -22.7056  -10.2026   20.3042 C   0  0  0  0  0  0
  -21.6828   -6.0632   22.5241 C   0  0  0  0  0  0
  -21.3991   -6.5563   23.8156 C   0  0  0  0  0  0
  -21.3674   -5.6749   24.9153 C   0  0  0  0  0  0
  -21.6003   -4.2992   24.7216 C   0  0  0  0  0  0
  -21.8827   -3.8064   23.4354 C   0  0  0  0  0  0
  -21.9155   -4.6860   22.3384 C   0  0  0  0  0  0
  -22.7743  -13.5213   21.1820 C   0  0  0  0  0  0
  -22.1624   -4.1991   21.0989 F   0  0  0  0  0  0
  -21.5616   -3.4536   25.7785 F   0  0  0  0  0  0
  -30.0188  -13.1509   20.4387 N   0  0  0  0  0  0
  -26.2942  -12.9221   20.3403 N   0  0  0  0  0  0
  -25.9130  -11.6388   20.5757 N   0  0  0  0  0  0
  -22.0310  -12.8314   22.0405 N   0  0  0  0  0  0
  -25.4215  -15.1850   20.4009 N   0  0  0  0  0  0
  -31.7389  -14.5993   20.1271 O   0  0  0  0  0  0
  -21.6537   -6.8720   21.4184 O   0  0  0  0  0  0
  -22.3482  -14.5526   20.6591 O   0  0  0  0  0  0
  -24.6126  -31.8708   23.2180 C   0  0  0  0  0  0
  -25.9092  -32.4828   23.8359 C   0  0  1  0  0  0
  -27.2365  -27.4092   20.0856 C   0  0  0  0  0  0
  -25.5961  -33.8639   24.2348 N   0  0  0  0  0  0
  -23.3974  -30.5063   21.5550 C   0  0  2  0  0  0
  -24.8498  -28.9732   20.1070 C   0  0  0  0  0  0
  -22.7265  -29.4855   22.4997 C   0  0  0  0  0  0
  -18.0256  -28.1356   22.8515 C   0  0  0  0  0  0
  -24.1474  -36.7333   23.2653 C   0  0  0  0  0  0
  -25.9368  -30.8159   21.3803 C   0  0  0  0  0  0
  -26.0139  -29.4553   20.7202 C   0  0  0  0  0  0
  -27.2029  -28.6836   20.7207 C   0  0  0  0  0  0
  -26.0248  -26.9295   19.5536 C   0  0  0  0  0  0
  -24.8561  -27.7020   19.5195 C   0  0  0  0  0  0
  -23.6024  -29.8285   20.1768 C   0  0  0  0  0  0
  -25.4073  -36.3112   24.0359 C   0  0  1  0  0  0
  -20.5823  -28.3719   23.1323 C   0  0  2  0  0  0
  -20.6752  -26.9426   22.5616 C   0  0  0  0  0  0
  -19.5709  -26.6219   21.5405 C   0  0  0  0  0  0
  -18.1918  -26.7813   22.1899 C   0  0  0  0  0  0
  -19.1490  -28.8832   23.2863 C   0  0  0  0  0  0
  -18.9428  -30.1515   23.8712 C   0  0  0  0  0  0
  -17.6456  -30.6589   24.0473 C   0  0  0  0  0  0
  -25.9039  -34.9471   23.5112 C   0  0  0  0  0  0
  -16.5319  -29.9032   23.6400 C   0  0  0  0  0  0
  -16.7245  -28.6443   23.0470 C   0  0  0  0  0  0
  -26.4449  -31.6594   25.0711 C   0  0  0  0  0  0
  -25.3667  -31.3780   26.1465 C   0  0  0  0  0  0
  -27.0300  -30.2956   24.6265 C   0  0  0  0  0  0
  -27.5912  -32.4395   25.7587 C   0  0  0  0  0  0
  -27.5570  -37.1825   24.8495 C   0  0  0  0  0  0
  -21.3974  -29.3096   22.3639 N   0  0  0  0  0  0
  -26.4255  -37.3806   23.9461 N   0  0  0  0  0  0
  -24.6703  -31.0751   22.1095 N   0  0  0  0  0  0
  -23.4050  -28.8492   23.3143 O   0  0  0  0  0  0
  -28.3965  -26.6467   20.0177 O   0  0  0  0  0  0
  -26.5600  -34.8998   22.4649 O   0  0  0  0  0  0
  -23.5353  -32.1540   23.7593 O   0  0  0  0  0  0
  -29.0740  -22.0554   20.2834 C   0  0  0  0  0  0
  -29.3050  -23.4110   19.9278 C   0  0  0  0  0  0
  -27.0395  -23.4879   18.9943 C   0  0  0  0  0  0
  -28.2659  -24.1701   19.3133 C   0  0  0  0  0  0
  -26.7476  -22.2321   19.5829 C   0  0  0  0  0  0
  -27.7952  -21.4715   20.1469 C   0  0  0  0  0  0
  -30.6496  -18.7309   21.8064 C   0  0  0  0  0  0
  -31.1291  -17.3427   21.3791 C   0  0  1  0  0  0
  -30.6065  -16.2480   22.3577 C   0  0  1  0  0  0
  -29.1199  -18.8099   21.8626 C   0  0  1  0  0  0
  -29.4299  -16.8227   23.2115 C   0  0  2  0  0  0
  -30.7160  -23.9791   20.1289 C   0  0  0  0  0  0
  -26.0643  -23.9448   17.9113 C   0  0  0  0  0  0
  -25.2953  -21.7216   19.5659 C   0  0  0  0  0  0
  -32.6473  -17.4103   21.1557 C   0  0  0  0  0  0
  -28.5382  -15.7884   23.9009 C   0  0  0  0  0  0
  -28.5394  -25.6579   18.9495 C   0  0  0  0  0  0
  -28.4937  -19.0731   20.4800 C   0  0  0  0  0  0
  -27.5034  -20.1489   20.5076 N   0  0  0  0  0  0
  -30.1369  -15.0304   21.6705 N   0  0  0  0  0  0
  -28.5719  -17.5852   22.3572 O   0  0  0  0  0  0
  -31.4440  -12.2894   19.0546 H   0  0  0  0  0  0
  -30.2196  -11.2171   19.6387 H   0  0  0  0  0  0
  -29.6788  -11.8741   17.3376 H   0  0  0  0  0  0
  -29.6357  -13.5701   17.7733 H   0  0  0  0  0  0
  -27.7796  -11.3579   18.7223 H   0  0  0  0  0  0
  -27.3244  -12.7308   17.7638 H   0  0  0  0  0  0
  -27.7525  -14.2437   19.6994 H   0  0  0  0  0  0
  -28.6424  -11.7251   21.1458 H   0  0  0  0  0  0
  -28.4250  -13.2618   21.9063 H   0  0  0  0  0  0
  -25.2552   -9.5605   22.4773 H   0  0  0  0  0  0
  -23.9795   -7.4549   22.7491 H   0  0  0  0  0  0
  -21.0608   -8.8595   19.9021 H   0  0  0  0  0  0
  -22.3436  -10.9495   19.6116 H   0  0  0  0  0  0
  -21.1991   -7.6089   23.9605 H   0  0  0  0  0  0
  -21.1526   -6.0517   25.9034 H   0  0  0  0  0  0
  -22.0603   -2.7515   23.2937 H   0  0  0  0  0  0
  -22.3837  -12.0153   22.5167 H   0  0  0  0  0  0
  -21.0894  -13.1320   22.2443 H   0  0  0  0  0  0
  -24.6248  -15.8167   20.3668 H   0  0  0  0  0  0
  -26.2961  -15.6366   20.1737 H   0  0  0  0  0  0
  -26.7127  -32.5572   23.1099 H   0  0  0  0  0  0
  -25.0000  -33.9773   25.0440 H   0  0  0  0  0  0
  -22.6978  -31.3319   21.4195 H   0  0  0  0  0  0
  -23.3741  -35.9694   23.3359 H   0  0  0  0  0  0
  -24.3548  -36.8915   22.2064 H   0  0  0  0  0  0
  -23.7220  -37.6561   23.6602 H   0  0  0  0  0  0
  -26.0270  -31.5704   20.5983 H   0  0  0  0  0  0
  -26.8417  -30.9016   21.9772 H   0  0  0  0  0  0
  -28.0806  -29.0491   21.2335 H   0  0  0  0  0  0
  -25.9610  -25.9113   19.2506 H   0  0  0  0  0  0
  -23.9613  -27.2901   19.0718 H   0  0  0  0  0  0
  -23.6552  -30.6065   19.4266 H   0  0  0  0  0  0
  -22.7261  -29.2283   19.9097 H   0  0  0  0  0  0
  -25.1230  -36.1992   25.0848 H   0  0  0  0  0  0
  -20.9806  -28.3304   24.1485 H   0  0  0  0  0  0
  -20.5705  -26.2435   23.3967 H   0  0  0  0  0  0
  -21.6702  -26.7426   22.1692 H   0  0  0  0  0  0
  -19.6806  -25.6070   21.1509 H   0  0  0  0  0  0
  -19.6584  -27.2917   20.6887 H   0  0  0  0  0  0
  -17.4083  -26.6507   21.4417 H   0  0  0  0  0  0
  -18.0276  -26.0192   22.9499 H   0  0  0  0  0  0
  -19.7880  -30.7455   24.1819 H   0  0  0  0  0  0
  -17.5008  -31.6292   24.4972 H   0  0  0  0  0  0
  -15.5249  -30.2984   23.7719 H   0  0  0  0  0  0
  -15.8655  -28.0664   22.7304 H   0  0  0  0  0  0
  -24.5832  -30.7149   25.7844 H   0  0  0  0  0  0
  -24.8897  -32.2978   26.4829 H   0  0  0  0  0  0
  -25.7996  -30.9000   27.0269 H   0  0  0  0  0  0
  -26.2915  -29.6747   24.1204 H   0  0  0  0  0  0
  -27.3776  -29.7214   25.4875 H   0  0  0  0  0  0
  -27.8843  -30.4172   23.9617 H   0  0  0  0  0  0
  -27.2342  -33.3684   26.2096 H   0  0  0  0  0  0
  -28.3767  -32.7055   25.0496 H   0  0  0  0  0  0
  -28.0501  -31.8591   26.5641 H   0  0  0  0  0  0
  -28.2624  -38.0084   24.7458 H   0  0  0  0  0  0
  -28.0994  -36.2616   24.6331 H   0  0  0  0  0  0
  -27.2306  -37.1497   25.8905 H   0  0  0  0  0  0
  -20.9030  -29.8524   21.6724 H   0  0  0  0  0  0
  -26.0189  -38.2950   24.1312 H   0  0  0  0  0  0
  -29.8938  -21.4865   20.6944 H   0  0  0  0  0  0
  -31.0523  -19.5080   21.1552 H   0  0  0  0  0  0
  -31.0422  -18.9323   22.7973 H   0  0  0  0  0  0
  -30.6660  -17.1329   20.4149 H   0  0  0  0  0  0
  -31.4033  -15.9538   23.0483 H   0  0  0  0  0  0
  -28.8461  -19.5951   22.5657 H   0  0  0  0  0  0
  -29.8144  -17.4687   24.0043 H   0  0  0  0  0  0
  -30.6931  -25.0472   20.3594 H   0  0  0  0  0  0
  -31.2391  -23.8485   19.1813 H   0  0  0  0  0  0
  -31.3148  -23.4870   20.9050 H   0  0  0  0  0  0
  -25.9548  -23.1309   17.1913 H   0  0  0  0  0  0
  -26.4153  -24.7997   17.3449 H   0  0  0  0  0  0
  -25.0792  -24.1650   18.3151 H   0  0  0  0  0  0
  -24.9674  -21.4970   18.5543 H   0  0  0  0  0  0
  -24.6365  -22.4843   19.9844 H   0  0  0  0  0  0
  -25.0955  -20.8419   20.1887 H   0  0  0  0  0  0
  -33.1212  -16.4440   20.9583 H   0  0  0  0  0  0
  -33.1741  -17.8892   21.9792 H   0  0  0  0  0  0
  -32.8252  -18.0516   20.2906 H   0  0  0  0  0  0
  -27.7828  -16.3124   24.4842 H   0  0  0  0  0  0
  -29.1130  -15.1762   24.5991 H   0  0  0  0  0  0
  -28.0136  -15.1364   23.2039 H   0  0  0  0  0  0
  -27.9685  -25.9392   18.0750 H   0  0  0  0  0  0
  -29.5653  -25.7443   18.5765 H   0  0  0  0  0  0
  -27.9689  -18.1736   20.1587 H   0  0  0  0  0  0
  -29.2592  -19.2315   19.7197 H   0  0  0  0  0  0
  -26.5811  -19.8588   20.1997 H   0  0  0  0  0  0
  -29.2657  -14.6545   22.0176 H   0  0  0  0  0  0
  1 25  1  0  0  0
  1 30  2  0  0  0
  1 90  1  0  0  0
  2  3  1  0  0  0
  2 25  1  0  0  0
  2 92  1  0  0  0
  2 93  1  0  0  0
  3  4  1  0  0  0
  3 94  1  0  0  0
  3 95  1  0  0  0
  4  5  1  0  0  0
  4 96  1  0  0  0
  4 97  1  0  0  0
  5  6  1  0  0  0
  5 26  1  0  0  0
  5 98  1  0  0  0
  6 25  1  0  0  0
  6 99  1  0  0  0
  6100  1  0  0  0
  7  8  2  0  0  0
  7 26  1  0  0  0
  7 29  1  0  0  0
  8  9  1  0  0  0
  8 22  1  0  0  0
  9 10  1  0  0  0
  9 27  2  0  0  0
 10 11  2  0  0  0
 10 15  1  0  0  0
 11 12  1  0  0  0
 11101  1  0  0  0
 12 13  2  0  0  0
 12102  1  0  0  0
 13 14  1  0  0  0
 13 31  1  0  0  0
 14 15  2  0  0  0
 14103  1  0  0  0
 15104  1  0  0  0
 16 17  2  0  0  0
 16 21  1  0  0  0
 16 31  1  0  0  0
 17 18  1  0  0  0
 17105  1  0  0  0
 18 19  2  0  0  0
 18106  1  0  0  0
 19 20  1  0  0  0
 19 24  1  0  0  0
 20 21  2  0  0  0
 20107  1  0  0  0
 21 23  1  0  0  0
 22 28  1  0  0  0
 22 32  2  0  0  0
 26 27  1  0  0  0
 28108  1  0  0  0
 28109  1  0  0  0
 29110  1  0  0  0
 29111  1  0  0  0
 33 34  1  0  0  0
 33 66  1  0  0  0
 33 70  2  0  0  0
 34 36  1  0  0  0
 34 59  1  0  0  0
 34112  1  0  0  0
 35 44  2  0  0  0
 35 45  1  0  0  0
 35 68  1  0  0  0
 36 56  1  0  0  0
 36113  1  0  0  0
 37 39  1  0  0  0
 37 47  1  0  0  0
 37 66  1  0  0  0
 37114  1  0  0  0
 38 43  2  0  0  0
 38 46  1  0  0  0
 38 47  1  0  0  0
 39 64  1  0  0  0
 39 67  2  0  0  0
 40 52  1  0  0  0
 40 53  2  0  0  0
 40 58  1  0  0  0
 41115  1  0  0  0
 41116  1  0  0  0
 41117  1  0  0  0
 41 48  1  0  0  0
 42 43  1  0  0  0
 42 66  1  0  0  0
 42118  1  0  0  0
 42119  1  0  0  0
 43 44  1  0  0  0
 44120  1  0  0  0
 45 46  2  0  0  0
 45121  1  0  0  0
 46122  1  0  0  0
 47123  1  0  0  0
 47124  1  0  0  0
 48 56  1  0  0  0
 48 65  1  0  0  0
 48125  1  0  0  0
 49 50  1  0  0  0
 49 53  1  0  0  0
 49 64  1  0  0  0
 49126  1  0  0  0
 50 51  1  0  0  0
 50127  1  0  0  0
 50128  1  0  0  0
 51 52  1  0  0  0
 51129  1  0  0  0
 51130  1  0  0  0
 52131  1  0  0  0
 52132  1  0  0  0
 53 54  1  0  0  0
 54 55  2  0  0  0
 54133  1  0  0  0
 55 57  1  0  0  0
 55134  1  0  0  0
 56 69  2  0  0  0
 57 58  2  0  0  0
 57135  1  0  0  0
 58136  1  0  0  0
 59 60  1  0  0  0
 59 61  1  0  0  0
 59 62  1  0  0  0
 60137  1  0  0  0
 60138  1  0  0  0
 60139  1  0  0  0
 61140  1  0  0  0
 61141  1  0  0  0
 61142  1  0  0  0
 62143  1  0  0  0
 62144  1  0  0  0
 62145  1  0  0  0
 63 65  1  0  0  0
 63146  1  0  0  0
 63147  1  0  0  0
 63148  1  0  0  0
 64149  1  0  0  0
 65150  1  0  0  0
 68 87  1  0  0  0
 71 72  2  0  0  0
 71 76  1  0  0  0
 71151  1  0  0  0
 72 74  1  0  0  0
 72 82  1  0  0  0
 73 74  2  0  0  0
 73 75  1  0  0  0
 73 83  1  0  0  0
 74 87  1  0  0  0
 75 76  2  0  0  0
 75 84  1  0  0  0
 76 89  1  0  0  0
 77 78  1  0  0  0
 77 80  1  0  0  0
 77152  1  0  0  0
 77153  1  0  0  0
 78 79  1  0  0  0
 78 85  1  0  0  0
 78154  1  0  0  0
 79 81  1  0  0  0
 79 90  1  0  0  0
 79155  1  0  0  0
 80 88  1  0  0  0
 80 91  1  0  0  0
 80156  1  0  0  0
 81 86  1  0  0  0
 81 91  1  0  0  0
 81157  1  0  0  0
 82158  1  0  0  0
 82159  1  0  0  0
 82160  1  0  0  0
 83161  1  0  0  0
 83162  1  0  0  0
 83163  1  0  0  0
 84164  1  0  0  0
 84165  1  0  0  0
 84166  1  0  0  0
 85167  1  0  0  0
 85168  1  0  0  0
 85169  1  0  0  0
 86170  1  0  0  0
 86171  1  0  0  0
 86172  1  0  0  0
 87173  1  0  0  0
 87174  1  0  0  0
 88 89  1  0  0  0
 88175  1  0  0  0
 88176  1  0  0  0
 89177  1  0  0  0
 90178  1  0  0  0
M  ISO  4   1 100  68 101  87 101  90 100
M  END
> <chiral flag>
0

> <version>
0

> <s_m_source_file>
/data/baiqing/PycharmProjects/Reinvent-master-3.2/result/LINK_invent/BTK/process_docking_weight1_custom_sum_contain_oxygen_bond_distance_aromatic_linkinvent_7_9_3/rearranged_h_0160.sdf

> <i_m_source_file_index>
58

> <r_mmod_Potential_Energy-OPLS-2005>
6.77605533599854

> <r_mmod_Stretch_Energy-OPLS-2005>
52.5817070007324

> <r_mmod_Bend_Energy-OPLS-2005>
144.781677246094

> <r_mmod_Torsional_Energy-OPLS-2005>
301.596801757812

> <r_mmod_Improper_Torsional_Energy-OPLS-2005>
6.56079387664795

> <r_mmod_Van_der_Waal_Energy-OPLS-2005>
193.342849731445

> <r_mmod_Electrostatic_Energy-OPLS-2005>
-503.593536376953

> <r_mmod_Solvation_Energy-OPLS-2005>
-205.868606567383

> <b_mmod_Minimization_Converged-OPLS-2005>
0

> <r_mmod_RMS_Derivative-OPLS-2005>
17.7683963775635

$$$$
58
                    3D
 Structure written by MMmdl.
181189  0  0  1  0            999 V2000
  -30.6665  -14.5803   20.4571 C   0  0  0  0  0  0
  -30.4178  -12.3401   19.4727 C   0  0  0  0  0  0
  -29.5116  -12.4947   18.2327 C   0  0  0  0  0  0
  -28.0294  -12.3544   18.6353 C   0  0  0  0  0  0
  -27.6502  -13.2294   19.8618 C   0  0  2  0  0  0
  -28.6906  -13.0999   20.9994 C   0  0  0  0  0  0
  -25.2536  -13.8209   20.5723 C   0  0  0  0  0  0
  -24.1840  -13.0464   20.9222 C   0  0  0  0  0  0
  -24.6403  -11.6941   20.8744 C   0  0  0  0  0  0
  -23.9076  -10.4321   21.0374 C   0  0  0  0  0  0
  -24.3619   -9.4241   21.9142 C   0  0  0  0  0  0
  -23.6298   -8.2274   22.0714 C   0  0  0  0  0  0
  -22.4271   -8.0306   21.3513 C   0  0  0  0  0  0
  -21.9914   -9.0270   20.4611 C   0  0  0  0  0  0
  -22.7243  -10.2155   20.3011 C   0  0  0  0  0  0
  -21.6864   -6.0771   22.5275 C   0  0  0  0  0  0
  -21.4037   -6.5663   23.8220 C   0  0  0  0  0  0
  -21.3641   -5.6788   24.9162 C   0  0  0  0  0  0
  -21.6035   -4.3062   24.7182 C   0  0  0  0  0  0
  -21.8805   -3.8163   23.4302 C   0  0  0  0  0  0
  -21.9201   -4.7002   22.3382 C   0  0  0  0  0  0
  -22.7851  -13.5254   21.1877 C   0  0  0  0  0  0
  -22.1669   -4.2197   21.0966 F   0  0  0  0  0  0
  -21.5591   -3.4542   25.7698 F   0  0  0  0  0  0
  -30.0137  -13.3831   20.4321 N   0  0  0  0  0  0
  -26.2987  -12.9407   20.3334 N   0  0  0  0  0  0
  -25.9336  -11.6550   20.5754 N   0  0  0  0  0  0
  -22.0500  -12.8238   22.0447 N   0  0  0  0  0  0
  -25.4215  -15.1930   20.4146 N   0  0  0  0  0  0
  -31.8575  -14.6679   20.1494 O   0  0  0  0  0  0
  -21.6633   -6.8911   21.4227 O   0  0  0  0  0  0
  -22.3557  -14.5533   20.6704 O   0  0  0  0  0  0
  -24.6165  -31.8652   23.2079 C   0  0  0  0  0  0
  -25.9034  -32.4816   23.8397 C   0  0  1  0  0  0
  -27.2178  -27.3880   20.1284 C   0  0  0  0  0  0
  -25.5871  -33.8624   24.2321 N   0  0  0  0  0  0
  -23.4057  -30.4877   21.5495 C   0  0  2  0  0  0
  -24.8511  -28.9487   20.1186 C   0  0  0  0  0  0
  -22.7415  -29.4641   22.4984 C   0  0  0  0  0  0
  -18.0260  -28.1351   22.8472 C   0  0  0  0  0  0
  -24.1492  -36.7347   23.2640 C   0  0  0  0  0  0
  -25.9382  -30.8265   21.3588 C   0  0  0  0  0  0
  -26.0157  -29.4550   20.7098 C   0  0  0  0  0  0
  -27.2080  -28.6863   20.7007 C   0  0  0  0  0  0
  -26.0350  -26.9045   19.5342 C   0  0  0  0  0  0
  -24.8577  -27.6763   19.5211 C   0  0  0  0  0  0
  -23.6154  -29.8187   20.1643 C   0  0  0  0  0  0
  -25.4111  -36.3124   24.0338 C   0  0  1  0  0  0
  -20.5860  -28.3652   23.1299 C   0  0  2  0  0  0
  -20.6757  -26.9382   22.5410 C   0  0  0  0  0  0
  -19.5747  -26.6372   21.5193 C   0  0  0  0  0  0
  -18.1924  -26.7897   22.1616 C   0  0  0  0  0  0
  -19.1511  -28.8816   23.2887 C   0  0  0  0  0  0
  -18.9448  -30.1420   23.8899 C   0  0  0  0  0  0
  -17.6453  -30.6566   24.0545 C   0  0  0  0  0  0
  -25.9033  -34.9477   23.5142 C   0  0  0  0  0  0
  -16.5339  -29.9064   23.6321 C   0  0  0  0  0  0
  -16.7251  -28.6481   23.0339 C   0  0  0  0  0  0
  -26.4464  -31.6584   25.0722 C   0  0  0  0  0  0
  -25.3747  -31.3665   26.1479 C   0  0  0  0  0  0
  -27.0250  -30.3017   24.6069 C   0  0  0  0  0  0
  -27.6049  -32.4267   25.7487 C   0  0  0  0  0  0
  -27.5587  -37.1830   24.8465 C   0  0  0  0  0  0
  -21.4145  -29.3024   22.3724 N   0  0  0  0  0  0
  -26.4303  -37.3798   23.9404 N   0  0  0  0  0  0
  -24.6725  -31.0723   22.0986 N   0  0  0  0  0  0
  -23.4168  -28.8181   23.3040 O   0  0  0  0  0  0
  -28.3590  -26.6055   20.1221 O   0  0  0  0  0  0
  -26.5615  -34.8922   22.4705 O   0  0  0  0  0  0
  -23.5366  -32.1392   23.7488 O   0  0  0  0  0  0
  -32.7403  -20.5111   20.6341 C   0  0  0  0  0  0
  -32.4525  -21.1389   21.8640 C   0  0  0  0  0  0
  -30.1150  -20.6021   21.5077 C   0  0  0  0  0  0
  -31.1234  -21.1311   22.3560 C   0  0  0  0  0  0
  -30.4830  -19.5751   20.5817 C   0  0  0  0  0  0
  -31.7777  -19.6825   20.0069 C   0  0  0  0  0  0
  -33.5802  -21.8482   22.5984 C   0  0  0  0  0  0
  -29.7921  -20.6966   24.5015 C   0  0  0  0  0  0
  -30.4380  -23.0816   23.9340 C   0  0  0  0  0  0
  -28.4479  -24.1860   18.6468 C   0  0  0  0  0  0
  -29.9766  -16.7934   18.3167 C   0  0  0  0  0  0
  -33.3172  -19.1075   18.2375 C   0  0  0  0  0  0
  -28.8937  -21.5197   21.2278 C   0  0  0  0  0  0
  -29.5613  -18.3371   20.3208 C   0  0  0  0  0  0
  -29.3501  -22.9236   20.6518 C   0  0  0  0  0  0
  -28.3267  -25.3869   20.9205 C   0  0  0  0  0  0
  -30.8147  -21.6010   23.7908 C   0  0  0  0  0  0
  -28.2952  -23.9963   20.1676 C   0  0  1  0  0  0
  -30.2513  -16.9854   19.8293 C   0  0  1  0  0  0
  -29.8895  -15.7005   20.5153 N   0  0  0  0  0  0
  -32.0411  -18.9858   18.8500 O   0  0  0  0  0  0
  -31.4715  -12.3973   19.1947 H   0  0  0  0  0  0
  -30.2837  -11.3534   19.9171 H   0  0  0  0  0  0
  -29.7710  -11.7449   17.4858 H   0  0  0  0  0  0
  -29.6827  -13.4659   17.7645 H   0  0  0  0  0  0
  -27.8590  -11.3054   18.8735 H   0  0  0  0  0  0
  -27.3755  -12.5778   17.7909 H   0  0  0  0  0  0
  -27.6631  -14.2629   19.5136 H   0  0  0  0  0  0
  -28.6787  -12.0956   21.4236 H   0  0  0  0  0  0
  -28.4572  -13.7808   21.8216 H   0  0  0  0  0  0
  -25.2764   -9.5739   22.4702 H   0  0  0  0  0  0
  -24.0019   -7.4656   22.7405 H   0  0  0  0  0  0
  -21.0857   -8.8759   19.8913 H   0  0  0  0  0  0
  -22.3674  -10.9658   19.6101 H   0  0  0  0  0  0
  -21.2045   -7.6176   23.9747 H   0  0  0  0  0  0
  -21.1482   -6.0520   25.9077 H   0  0  0  0  0  0
  -22.0603   -2.7630   23.2778 H   0  0  0  0  0  0
  -22.4179  -12.0010   22.4984 H   0  0  0  0  0  0
  -21.1042  -13.1134   22.2492 H   0  0  0  0  0  0
  -24.6455  -15.8379   20.5181 H   0  0  0  0  0  0
  -26.2571  -15.6312   20.0499 H   0  0  0  0  0  0
  -26.7105  -32.5512   23.1168 H   0  0  0  0  0  0
  -24.9960  -33.9775   25.0428 H   0  0  0  0  0  0
  -22.6979  -31.3071   21.4101 H   0  0  0  0  0  0
  -23.3733  -35.9693   23.3305 H   0  0  0  0  0  0
  -24.3603  -36.8959   22.2053 H   0  0  0  0  0  0
  -23.7262  -37.6571   23.6646 H   0  0  0  0  0  0
  -26.0458  -31.5875   20.5849 H   0  0  0  0  0  0
  -26.8293  -30.8879   21.9724 H   0  0  0  0  0  0
  -28.1087  -29.0755   21.1551 H   0  0  0  0  0  0
  -26.0088  -25.9211   19.0907 H   0  0  0  0  0  0
  -23.9609  -27.2789   19.0681 H   0  0  0  0  0  0
  -23.7235  -30.5922   19.4020 H   0  0  0  0  0  0
  -22.7388  -29.2379   19.8724 H   0  0  0  0  0  0
  -25.1291  -36.2008   25.0834 H   0  0  0  0  0  0
  -20.9940  -28.3199   24.1424 H   0  0  0  0  0  0
  -20.5636  -26.2261   23.3597 H   0  0  0  0  0  0
  -21.6634  -26.7407   22.1228 H   0  0  0  0  0  0
  -19.6924  -25.6290   21.1207 H   0  0  0  0  0  0
  -19.6686  -27.3189   20.6725 H   0  0  0  0  0  0
  -17.4197  -26.6596   21.4022 H   0  0  0  0  0  0
  -18.0352  -26.0032   22.9019 H   0  0  0  0  0  0
  -19.7929  -30.7214   24.2278 H   0  0  0  0  0  0
  -17.5019  -31.6246   24.5138 H   0  0  0  0  0  0
  -15.5346  -30.2976   23.7643 H   0  0  0  0  0  0
  -15.8649  -28.0804   22.7066 H   0  0  0  0  0  0
  -24.5929  -30.6992   25.7844 H   0  0  0  0  0  0
  -24.8928  -32.2799   26.4968 H   0  0  0  0  0  0
  -25.8126  -30.8829   27.0219 H   0  0  0  0  0  0
  -26.2758  -29.6823   24.1122 H   0  0  0  0  0  0
  -27.4024  -29.7214   25.4507 H   0  0  0  0  0  0
  -27.8608  -30.4346   23.9187 H   0  0  0  0  0  0
  -27.2672  -33.3531   26.2138 H   0  0  0  0  0  0
  -28.3817  -32.6866   25.0286 H   0  0  0  0  0  0
  -28.0749  -31.8332   26.5338 H   0  0  0  0  0  0
  -28.2620  -38.0114   24.7488 H   0  0  0  0  0  0
  -28.1054  -36.2647   24.6299 H   0  0  0  0  0  0
  -27.2304  -37.1504   25.8867 H   0  0  0  0  0  0
  -20.9313  -29.8751   21.6957 H   0  0  0  0  0  0
  -26.0201  -38.2885   24.1362 H   0  0  0  0  0  0
  -33.7435  -20.5953   20.2418 H   0  0  0  0  0  0
  -34.4148  -22.0675   21.9331 H   0  0  0  0  0  0
  -33.9541  -21.2436   23.4261 H   0  0  0  0  0  0
  -33.2425  -22.7986   23.0123 H   0  0  0  0  0  0
  -30.0943  -19.6476   24.4514 H   0  0  0  0  0  0
  -28.7977  -20.7770   24.0669 H   0  0  0  0  0  0
  -29.7046  -20.9676   25.5547 H   0  0  0  0  0  0
  -31.1672  -23.7384   23.4591 H   0  0  0  0  0  0
  -30.4023  -23.3531   24.9906 H   0  0  0  0  0  0
  -29.4542  -23.2922   23.5154 H   0  0  0  0  0  0
  -28.4072  -23.2277   18.1308 H   0  0  0  0  0  0
  -29.3988  -24.6602   18.3979 H   0  0  0  0  0  0
  -27.6551  -24.8024   18.2282 H   0  0  0  0  0  0
  -30.2432  -17.6766   17.7367 H   0  0  0  0  0  0
  -28.9220  -16.5955   18.1197 H   0  0  0  0  0  0
  -30.5402  -15.9636   17.8909 H   0  0  0  0  0  0
  -33.3322  -18.5205   17.3171 H   0  0  0  0  0  0
  -34.1053  -18.7123   18.8800 H   0  0  0  0  0  0
  -33.5437  -20.1417   17.9700 H   0  0  0  0  0  0
  -28.3092  -21.6597   22.1331 H   0  0  0  0  0  0
  -28.2312  -21.0221   20.5200 H   0  0  0  0  0  0
  -28.7808  -18.6365   19.6179 H   0  0  0  0  0  0
  -29.0450  -18.1434   21.2609 H   0  0  0  0  0  0
  -30.0097  -22.7023   19.8117 H   0  0  0  0  0  0
  -30.0251  -23.4088   21.3499 H   0  0  0  0  0  0
  -29.2126  -25.4418   21.5534 H   0  0  0  0  0  0
  -27.4915  -25.4299   21.6231 H   0  0  0  0  0  0
  -31.7322  -21.4567   24.3585 H   0  0  0  0  0  0
  -27.3040  -23.5743   20.3327 H   0  0  0  0  0  0
  -31.3261  -17.0809   19.9892 H   0  0  0  0  0  0
  -28.9266  -15.5763   20.7868 H   0  0  0  0  0  0
  1 25  1  0  0  0
  1 30  2  0  0  0
  1 90  1  0  0  0
  2  3  1  0  0  0
  2 25  1  0  0  0
  2 92  1  0  0  0
  2 93  1  0  0  0
  3  4  1  0  0  0
  3 94  1  0  0  0
  3 95  1  0  0  0
  4  5  1  0  0  0
  4 96  1  0  0  0
  4 97  1  0  0  0
  5  6  1  0  0  0
  5 26  1  0  0  0
  5 98  1  0  0  0
  6 25  1  0  0  0
  6 99  1  0  0  0
  6100  1  0  0  0
  7  8  2  0  0  0
  7 26  1  0  0  0
  7 29  1  0  0  0
  8  9  1  0  0  0
  8 22  1  0  0  0
  9 10  1  0  0  0
  9 27  2  0  0  0
 10 11  2  0  0  0
 10 15  1  0  0  0
 11 12  1  0  0  0
 11101  1  0  0  0
 12 13  2  0  0  0
 12102  1  0  0  0
 13 14  1  0  0  0
 13 31  1  0  0  0
 14 15  2  0  0  0
 14103  1  0  0  0
 15104  1  0  0  0
 16 17  2  0  0  0
 16 21  1  0  0  0
 16 31  1  0  0  0
 17 18  1  0  0  0
 17105  1  0  0  0
 18 19  2  0  0  0
 18106  1  0  0  0
 19 20  1  0  0  0
 19 24  1  0  0  0
 20 21  2  0  0  0
 20107  1  0  0  0
 21 23  1  0  0  0
 22 28  1  0  0  0
 22 32  2  0  0  0
 26 27  1  0  0  0
 28108  1  0  0  0
 28109  1  0  0  0
 29110  1  0  0  0
 29111  1  0  0  0
 33 34  1  0  0  0
 33 66  1  0  0  0
 33 70  2  0  0  0
 34 36  1  0  0  0
 34 59  1  0  0  0
 34112  1  0  0  0
 35 44  2  0  0  0
 35 45  1  0  0  0
 35 68  1  0  0  0
 36 56  1  0  0  0
 36113  1  0  0  0
 37 39  1  0  0  0
 37 47  1  0  0  0
 37 66  1  0  0  0
 37114  1  0  0  0
 38 43  2  0  0  0
 38 46  1  0  0  0
 38 47  1  0  0  0
 39 64  1  0  0  0
 39 67  2  0  0  0
 40 52  1  0  0  0
 40 53  2  0  0  0
 40 58  1  0  0  0
 41115  1  0  0  0
 41116  1  0  0  0
 41117  1  0  0  0
 41 48  1  0  0  0
 42 43  1  0  0  0
 42 66  1  0  0  0
 42118  1  0  0  0
 42119  1  0  0  0
 43 44  1  0  0  0
 44120  1  0  0  0
 45 46  2  0  0  0
 45121  1  0  0  0
 46122  1  0  0  0
 47123  1  0  0  0
 47124  1  0  0  0
 48 56  1  0  0  0
 48 65  1  0  0  0
 48125  1  0  0  0
 49 50  1  0  0  0
 49 53  1  0  0  0
 49 64  1  0  0  0
 49126  1  0  0  0
 50 51  1  0  0  0
 50127  1  0  0  0
 50128  1  0  0  0
 51 52  1  0  0  0
 51129  1  0  0  0
 51130  1  0  0  0
 52131  1  0  0  0
 52132  1  0  0  0
 53 54  1  0  0  0
 54 55  2  0  0  0
 54133  1  0  0  0
 55 57  1  0  0  0
 55134  1  0  0  0
 56 69  2  0  0  0
 57 58  2  0  0  0
 57135  1  0  0  0
 58136  1  0  0  0
 59 60  1  0  0  0
 59 61  1  0  0  0
 59 62  1  0  0  0
 60137  1  0  0  0
 60138  1  0  0  0
 60139  1  0  0  0
 61140  1  0  0  0
 61141  1  0  0  0
 61142  1  0  0  0
 62143  1  0  0  0
 62144  1  0  0  0
 62145  1  0  0  0
 63 65  1  0  0  0
 63146  1  0  0  0
 63147  1  0  0  0
 63148  1  0  0  0
 64149  1  0  0  0
 65150  1  0  0  0
 68 86  1  0  0  0
 71 72  2  0  0  0
 71 76  1  0  0  0
 71151  1  0  0  0
 72 74  1  0  0  0
 72 77  1  0  0  0
 73 74  2  0  0  0
 73 75  1  0  0  0
 73 83  1  0  0  0
 74 87  1  0  0  0
 75 76  2  0  0  0
 75 84  1  0  0  0
 76 91  1  0  0  0
 77152  1  0  0  0
 77153  1  0  0  0
 77154  1  0  0  0
 78155  1  0  0  0
 78156  1  0  0  0
 78157  1  0  0  0
 78 87  1  0  0  0
 79 87  1  0  0  0
 79158  1  0  0  0
 79159  1  0  0  0
 79160  1  0  0  0
 80161  1  0  0  0
 80162  1  0  0  0
 80163  1  0  0  0
 80 88  1  0  0  0
 81164  1  0  0  0
 81165  1  0  0  0
 81166  1  0  0  0
 81 89  1  0  0  0
 82 91  1  0  0  0
 82167  1  0  0  0
 82168  1  0  0  0
 82169  1  0  0  0
 83 85  1  0  0  0
 83170  1  0  0  0
 83171  1  0  0  0
 84 89  1  0  0  0
 84172  1  0  0  0
 84173  1  0  0  0
 85 88  1  0  0  0
 85174  1  0  0  0
 85175  1  0  0  0
 86 88  1  0  0  0
 86176  1  0  0  0
 86177  1  0  0  0
 87178  1  0  0  0
 88179  1  0  0  0
 89 90  1  0  0  0
 89180  1  0  0  0
 90181  1  0  0  0
M  ISO  4   1 100  68 101  86 101  90 100
M  END
> <chiral flag>
0

> <version>
0

> <s_m_source_file>
/data/baiqing/PycharmProjects/Reinvent-master-3.2/result/LINK_invent/BTK/process_docking_weight1_custom_sum_contain_oxygen_bond_distance_aromatic_linkinvent_7_9_3/rearranged_h_0160.sdf

> <i_m_source_file_index>
59

> <r_mmod_Potential_Energy-OPLS-2005>
226.294021606445

> <r_mmod_Stretch_Energy-OPLS-2005>
68.5161972045898

> <r_mmod_Bend_Energy-OPLS-2005>
135.411666870117

> <r_mmod_Torsional_Energy-OPLS-2005>
427.626007080078

> <r_mmod_Improper_Torsional_Energy-OPLS-2005>
15.7568054199219

> <r_mmod_Van_der_Waal_Energy-OPLS-2005>
158.919815063477

> <r_mmod_Electrostatic_Energy-OPLS-2005>
-409.712463378906

> <r_mmod_Solvation_Energy-OPLS-2005>
-201.686447143555

> <b_mmod_Minimization_Converged-OPLS-2005>
0

> <r_mmod_RMS_Derivative-OPLS-2005>
5.34730243682861

$$$$
59
                    3D
 Structure written by MMmdl.
152161  0  0  1  0            999 V2000
  -30.5621  -14.9684   20.3891 C   0  0  0  0  0  0
  -30.4327  -12.5955   19.5064 C   0  0  0  0  0  0
  -29.5212  -12.5318   18.2585 C   0  0  0  0  0  0
  -28.0556  -12.3139   18.6768 C   0  0  0  0  0  0
  -27.6277  -13.2540   19.8340 C   0  0  2  0  0  0
  -28.6707  -13.3125   20.9725 C   0  0  0  0  0  0
  -25.2474  -13.8246   20.5728 C   0  0  0  0  0  0
  -24.1789  -13.0461   20.9233 C   0  0  0  0  0  0
  -24.6400  -11.6940   20.8769 C   0  0  0  0  0  0
  -23.9083  -10.4317   21.0422 C   0  0  0  0  0  0
  -24.3635   -9.4221   21.9186 C   0  0  0  0  0  0
  -23.6313   -8.2253   22.0748 C   0  0  0  0  0  0
  -22.4289   -8.0295   21.3546 C   0  0  0  0  0  0
  -21.9941   -9.0267   20.4637 C   0  0  0  0  0  0
  -22.7270  -10.2145   20.3053 C   0  0  0  0  0  0
  -21.6855   -6.0750   22.5284 C   0  0  0  0  0  0
  -21.4016   -6.5645   23.8218 C   0  0  0  0  0  0
  -21.3654   -5.6793   24.9177 C   0  0  0  0  0  0
  -21.6036   -4.3055   24.7222 C   0  0  0  0  0  0
  -21.8820   -3.8152   23.4341 C   0  0  0  0  0  0
  -21.9199   -4.6977   22.3406 C   0  0  0  0  0  0
  -22.7805  -13.5221   21.1891 C   0  0  0  0  0  0
  -22.1674   -4.2162   21.0982 F   0  0  0  0  0  0
  -21.5627   -3.4536   25.7735 F   0  0  0  0  0  0
  -29.9460  -13.7154   20.3662 N   0  0  0  0  0  0
  -26.2895  -12.9477   20.3253 N   0  0  0  0  0  0
  -25.9336  -11.6598   20.5749 N   0  0  0  0  0  0
  -22.0465  -12.8180   22.0436 N   0  0  0  0  0  0
  -25.4161  -15.1970   20.4142 N   0  0  0  0  0  0
  -31.7675  -14.9960   20.1288 O   0  0  0  0  0  0
  -21.6643   -6.8898   21.4247 O   0  0  0  0  0  0
  -22.3470  -14.5527   20.6757 O   0  0  0  0  0  0
  -24.6448  -31.8416   23.1874 C   0  0  0  0  0  0
  -25.9224  -32.4687   23.8245 C   0  0  1  0  0  0
  -27.2163  -27.1171   20.1422 C   0  0  0  0  0  0
  -25.5981  -33.8497   24.2174 N   0  0  0  0  0  0
  -23.4483  -30.4595   21.5339 C   0  0  2  0  0  0
  -24.8981  -28.8846   20.1055 C   0  0  0  0  0  0
  -22.7566  -29.4526   22.4870 C   0  0  0  0  0  0
  -18.0296  -28.1379   22.8477 C   0  0  0  0  0  0
  -24.1495  -36.7247   23.2632 C   0  0  0  0  0  0
  -26.0051  -30.7043   21.3920 C   0  0  0  0  0  0
  -26.0742  -29.3151   20.7309 C   0  0  0  0  0  0
  -27.2316  -28.4470   20.7348 C   0  0  0  0  0  0
  -26.0210  -26.8016   19.4591 C   0  0  0  0  0  0
  -24.8871  -27.6443   19.4501 C   0  0  0  0  0  0
  -23.6732  -29.7857   20.1538 C   0  0  0  0  0  0
  -25.4134  -36.3031   24.0303 C   0  0  1  0  0  0
  -20.5907  -28.3706   23.1230 C   0  0  2  0  0  0
  -20.6784  -26.9409   22.5402 C   0  0  0  0  0  0
  -19.5771  -26.6372   21.5202 C   0  0  0  0  0  0
  -18.1949  -26.7922   22.1609 C   0  0  0  0  0  0
  -19.1552  -28.8861   23.2845 C   0  0  0  0  0  0
  -18.9469  -30.1457   23.8870 C   0  0  0  0  0  0
  -17.6467  -30.6584   24.0548 C   0  0  0  0  0  0
  -25.9088  -34.9407   23.5047 C   0  0  0  0  0  0
  -16.5358  -29.9072   23.6342 C   0  0  0  0  0  0
  -16.7278  -28.6485   23.0377 C   0  0  0  0  0  0
  -26.4555  -31.6554   25.0686 C   0  0  0  0  0  0
  -25.3740  -31.3736   26.1372 C   0  0  0  0  0  0
  -27.0419  -30.2944   24.6278 C   0  0  0  0  0  0
  -27.6078  -32.4318   25.7489 C   0  0  0  0  0  0
  -27.5584  -37.1782   24.8463 C   0  0  0  0  0  0
  -21.4254  -29.3039   22.3614 N   0  0  0  0  0  0
  -26.4301  -37.3744   23.9395 N   0  0  0  0  0  0
  -24.7187  -31.0245   22.0922 N   0  0  0  0  0  0
  -23.4209  -28.8071   23.3020 O   0  0  0  0  0  0
  -28.2622  -26.1193   20.2378 O   0  0  0  0  0  0
  -26.5662  -34.8910   22.4620 O   0  0  0  0  0  0
  -23.5569  -32.1304   23.7099 O   0  0  0  0  0  0
  -29.4690  -20.4348   20.5141 C   0  0  0  0  0  0
  -28.0728  -21.4295   18.7818 C   0  0  0  0  0  0
  -29.4097  -19.0796   19.8923 C   0  0  0  0  0  0
  -28.8149  -21.6688   19.9628 C   0  0  0  0  0  0
  -28.7759  -19.0661   18.6529 C   0  0  0  0  0  0
  -28.0641  -20.1713   18.1282 C   0  0  0  0  0  0
  -30.3676  -17.5002   18.4570 C   0  0  0  0  0  0
  -30.2554  -17.6600   19.9964 C   0  0  2  0  0  0
  -28.9166  -23.2445   20.4934 C   0  0  0  0  0  0
  -28.0725  -24.5972   19.8939 C   0  0  0  0  0  0
  -29.8259  -16.1934   20.4507 N   0  0  0  0  0  0
  -29.1149  -17.9598   17.9241 O   0  0  0  0  0  0
  -27.2767  -20.0265   16.5974 Cl  0  0  0  0  0  0
  -31.4726  -12.7282   19.2022 H   0  0  0  0  0  0
  -30.4052  -11.6512   20.0531 H   0  0  0  0  0  0
  -29.8448  -11.7351   17.5868 H   0  0  0  0  0  0
  -29.6038  -13.4624   17.6953 H   0  0  0  0  0  0
  -27.9531  -11.2747   18.9891 H   0  0  0  0  0  0
  -27.3925  -12.4399   17.8208 H   0  0  0  0  0  0
  -27.5829  -14.2483   19.3880 H   0  0  0  0  0  0
  -28.7587  -12.3498   21.4769 H   0  0  0  0  0  0
  -28.3677  -14.0345   21.7326 H   0  0  0  0  0  0
  -25.2786   -9.5687   22.4747 H   0  0  0  0  0  0
  -24.0030   -7.4629   22.7448 H   0  0  0  0  0  0
  -21.0888   -8.8777   19.8921 H   0  0  0  0  0  0
  -22.3743  -10.9681   19.6145 H   0  0  0  0  0  0
  -21.2005   -7.6149   23.9734 H   0  0  0  0  0  0
  -21.1478   -6.0516   25.9083 H   0  0  0  0  0  0
  -22.0604   -2.7617   23.2837 H   0  0  0  0  0  0
  -22.4120  -11.9847   22.4807 H   0  0  0  0  0  0
  -21.1065  -13.1151   22.2627 H   0  0  0  0  0  0
  -24.6501  -15.8540   20.5167 H   0  0  0  0  0  0
  -26.2602  -15.6316   20.0650 H   0  0  0  0  0  0
  -26.7268  -32.5280   23.0946 H   0  0  0  0  0  0
  -25.0149  -33.9619   25.0335 H   0  0  0  0  0  0
  -22.7516  -31.2859   21.3806 H   0  0  0  0  0  0
  -23.3781  -35.9561   23.3288 H   0  0  0  0  0  0
  -24.3563  -36.8897   22.2049 H   0  0  0  0  0  0
  -23.7245  -37.6432   23.6679 H   0  0  0  0  0  0
  -26.1675  -31.4553   20.6183 H   0  0  0  0  0  0
  -26.8749  -30.7503   22.0354 H   0  0  0  0  0  0
  -28.1234  -28.7696   21.2539 H   0  0  0  0  0  0
  -25.9281  -25.8620   18.9352 H   0  0  0  0  0  0
  -23.9962  -27.3188   18.9300 H   0  0  0  0  0  0
  -23.8014  -30.5582   19.3956 H   0  0  0  0  0  0
  -22.7886  -29.2228   19.8497 H   0  0  0  0  0  0
  -25.1333  -36.1855   25.0800 H   0  0  0  0  0  0
  -20.9987  -28.3292   24.1350 H   0  0  0  0  0  0
  -20.5667  -26.2315   23.3619 H   0  0  0  0  0  0
  -21.6657  -26.7422   22.1204 H   0  0  0  0  0  0
  -19.6944  -25.6275   21.1253 H   0  0  0  0  0  0
  -19.6718  -27.3159   20.6717 H   0  0  0  0  0  0
  -17.4221  -26.6651   21.4014 H   0  0  0  0  0  0
  -18.0356  -26.0060   22.8998 H   0  0  0  0  0  0
  -19.7943  -30.7279   24.2241 H   0  0  0  0  0  0
  -17.5020  -31.6272   24.5136 H   0  0  0  0  0  0
  -15.5360  -30.2968   23.7690 H   0  0  0  0  0  0
  -15.8672  -28.0792   22.7133 H   0  0  0  0  0  0
  -24.5925  -30.7095   25.7661 H   0  0  0  0  0  0
  -24.8937  -32.2921   26.4749 H   0  0  0  0  0  0
  -25.8017  -30.8916   27.0173 H   0  0  0  0  0  0
  -26.3023  -29.6658   24.1303 H   0  0  0  0  0  0
  -27.4035  -29.7254   25.4854 H   0  0  0  0  0  0
  -27.8943  -30.4166   23.9593 H   0  0  0  0  0  0
  -27.2665  -33.3634   26.2014 H   0  0  0  0  0  0
  -28.3929  -32.6853   25.0354 H   0  0  0  0  0  0
  -28.0699  -31.8477   26.5458 H   0  0  0  0  0  0
  -28.2593  -38.0086   24.7522 H   0  0  0  0  0  0
  -28.1099  -36.2620   24.6299 H   0  0  0  0  0  0
  -27.2288  -37.1428   25.8860 H   0  0  0  0  0  0
  -20.9466  -29.8747   21.6784 H   0  0  0  0  0  0
  -26.0174  -38.2816   24.1400 H   0  0  0  0  0  0
  -30.0952  -20.5478   21.3873 H   0  0  0  0  0  0
  -27.5589  -22.2511   18.3042 H   0  0  0  0  0  0
  -30.6116  -16.5000   18.1016 H   0  0  0  0  0  0
  -31.1509  -18.1573   18.0726 H   0  0  0  0  0  0
  -31.2416  -17.8638   20.4175 H   0  0  0  0  0  0
  -29.9762  -23.4941   20.4276 H   0  0  0  0  0  0
  -28.7111  -23.2041   21.5632 H   0  0  0  0  0  0
  -27.0249  -24.3590   20.0740 H   0  0  0  0  0  0
  -28.1890  -24.5669   18.8096 H   0  0  0  0  0  0
  -28.8470  -16.0819   20.6635 H   0  0  0  0  0  0
  1 25  1  0  0  0
  1 30  2  0  0  0
  1 81  1  0  0  0
  2  3  1  0  0  0
  2 25  1  0  0  0
  2 84  1  0  0  0
  2 85  1  0  0  0
  3  4  1  0  0  0
  3 86  1  0  0  0
  3 87  1  0  0  0
  4  5  1  0  0  0
  4 88  1  0  0  0
  4 89  1  0  0  0
  5  6  1  0  0  0
  5 26  1  0  0  0
  5 90  1  0  0  0
  6 25  1  0  0  0
  6 91  1  0  0  0
  6 92  1  0  0  0
  7  8  2  0  0  0
  7 26  1  0  0  0
  7 29  1  0  0  0
  8  9  1  0  0  0
  8 22  1  0  0  0
  9 10  1  0  0  0
  9 27  2  0  0  0
 10 11  2  0  0  0
 10 15  1  0  0  0
 11 12  1  0  0  0
 11 93  1  0  0  0
 12 13  2  0  0  0
 12 94  1  0  0  0
 13 14  1  0  0  0
 13 31  1  0  0  0
 14 15  2  0  0  0
 14 95  1  0  0  0
 15 96  1  0  0  0
 16 17  2  0  0  0
 16 21  1  0  0  0
 16 31  1  0  0  0
 17 18  1  0  0  0
 17 97  1  0  0  0
 18 19  2  0  0  0
 18 98  1  0  0  0
 19 20  1  0  0  0
 19 24  1  0  0  0
 20 21  2  0  0  0
 20 99  1  0  0  0
 21 23  1  0  0  0
 22 28  1  0  0  0
 22 32  2  0  0  0
 26 27  1  0  0  0
 28100  1  0  0  0
 28101  1  0  0  0
 29102  1  0  0  0
 29103  1  0  0  0
 33 34  1  0  0  0
 33 66  1  0  0  0
 33 70  2  0  0  0
 34 36  1  0  0  0
 34 59  1  0  0  0
 34104  1  0  0  0
 35 44  2  0  0  0
 35 45  1  0  0  0
 35 68  1  0  0  0
 36 56  1  0  0  0
 36105  1  0  0  0
 37 39  1  0  0  0
 37 47  1  0  0  0
 37 66  1  0  0  0
 37106  1  0  0  0
 38 43  2  0  0  0
 38 46  1  0  0  0
 38 47  1  0  0  0
 39 64  1  0  0  0
 39 67  2  0  0  0
 40 52  1  0  0  0
 40 53  2  0  0  0
 40 58  1  0  0  0
 41107  1  0  0  0
 41108  1  0  0  0
 41109  1  0  0  0
 41 48  1  0  0  0
 42 43  1  0  0  0
 42 66  1  0  0  0
 42110  1  0  0  0
 42111  1  0  0  0
 43 44  1  0  0  0
 44112  1  0  0  0
 45 46  2  0  0  0
 45113  1  0  0  0
 46114  1  0  0  0
 47115  1  0  0  0
 47116  1  0  0  0
 48 56  1  0  0  0
 48 65  1  0  0  0
 48117  1  0  0  0
 49 50  1  0  0  0
 49 53  1  0  0  0
 49 64  1  0  0  0
 49118  1  0  0  0
 50 51  1  0  0  0
 50119  1  0  0  0
 50120  1  0  0  0
 51 52  1  0  0  0
 51121  1  0  0  0
 51122  1  0  0  0
 52123  1  0  0  0
 52124  1  0  0  0
 53 54  1  0  0  0
 54 55  2  0  0  0
 54125  1  0  0  0
 55 57  1  0  0  0
 55126  1  0  0  0
 56 69  2  0  0  0
 57 58  2  0  0  0
 57127  1  0  0  0
 58128  1  0  0  0
 59 60  1  0  0  0
 59 61  1  0  0  0
 59 62  1  0  0  0
 60129  1  0  0  0
 60130  1  0  0  0
 60131  1  0  0  0
 61132  1  0  0  0
 61133  1  0  0  0
 61134  1  0  0  0
 62135  1  0  0  0
 62136  1  0  0  0
 62137  1  0  0  0
 63 65  1  0  0  0
 63138  1  0  0  0
 63139  1  0  0  0
 63140  1  0  0  0
 64141  1  0  0  0
 65142  1  0  0  0
 68 80  1  0  0  0
 71 73  2  0  0  0
 71 74  1  0  0  0
 71143  1  0  0  0
 72 74  2  0  0  0
 72 76  1  0  0  0
 72144  1  0  0  0
 73 75  1  0  0  0
 73 78  1  0  0  0
 74 79  1  0  0  0
 75 76  2  0  0  0
 75 82  1  0  0  0
 76 83  1  0  0  0
 77 78  1  0  0  0
 77 82  1  0  0  0
 77145  1  0  0  0
 77146  1  0  0  0
 78 81  1  0  0  0
 78147  1  0  0  0
 79 80  1  0  0  0
 79148  1  0  0  0
 79149  1  0  0  0
 80150  1  0  0  0
 80151  1  0  0  0
 81152  1  0  0  0
M  ISO  4   1 100  68 101  80 101  81 100
M  END
> <chiral flag>
0

> <version>
0

> <s_m_source_file>
/data/baiqing/PycharmProjects/Reinvent-master-3.2/result/LINK_invent/BTK/process_docking_weight1_custom_sum_contain_oxygen_bond_distance_aromatic_linkinvent_7_9_3/rearranged_h_0160.sdf

> <i_m_source_file_index>
60

> <r_mmod_Potential_Energy-OPLS-2005>
588.793518066406

> <r_mmod_Stretch_Energy-OPLS-2005>
283.482330322266

> <r_mmod_Bend_Energy-OPLS-2005>
339.544616699219

> <r_mmod_Torsional_Energy-OPLS-2005>
232.012435913086

> <r_mmod_Improper_Torsional_Energy-OPLS-2005>
12.5051136016846

> <r_mmod_Van_der_Waal_Energy-OPLS-2005>
127.189361572266

> <r_mmod_Electrostatic_Energy-OPLS-2005>
-406.011688232422

> <r_mmod_Solvation_Energy-OPLS-2005>
-209.494995117188

> <b_mmod_Minimization_Converged-OPLS-2005>
0

> <r_mmod_RMS_Derivative-OPLS-2005>
2.07504630088806

$$$$
60
                    3D
 Structure written by MMmdl.
167176  0  0  1  0            999 V2000
  -30.6189  -14.6650   20.4339 C   0  0  0  0  0  0
  -30.4439  -12.3942   19.4450 C   0  0  0  0  0  0
  -29.5144  -12.4888   18.2156 C   0  0  0  0  0  0
  -28.0343  -12.3397   18.6285 C   0  0  0  0  0  0
  -27.6539  -13.2160   19.8522 C   0  0  2  0  0  0
  -28.7049  -13.0995   20.9789 C   0  0  0  0  0  0
  -25.2583  -13.8163   20.5642 C   0  0  0  0  0  0
  -24.1861  -13.0437   20.9187 C   0  0  0  0  0  0
  -24.6431  -11.6904   20.8749 C   0  0  0  0  0  0
  -23.9094  -10.4295   21.0406 C   0  0  0  0  0  0
  -24.3640   -9.4219   21.9192 C   0  0  0  0  0  0
  -23.6308   -8.2263   22.0775 C   0  0  0  0  0  0
  -22.4294   -8.0296   21.3564 C   0  0  0  0  0  0
  -21.9932   -9.0267   20.4666 C   0  0  0  0  0  0
  -22.7263  -10.2139   20.3060 C   0  0  0  0  0  0
  -21.6871   -6.0740   22.5276 C   0  0  0  0  0  0
  -21.4026   -6.5641   23.8208 C   0  0  0  0  0  0
  -21.3651   -5.6778   24.9162 C   0  0  0  0  0  0
  -21.6037   -4.3040   24.7204 C   0  0  0  0  0  0
  -21.8838   -3.8148   23.4323 C   0  0  0  0  0  0
  -21.9217   -4.6972   22.3387 C   0  0  0  0  0  0
  -22.7889  -13.5257   21.1841 C   0  0  0  0  0  0
  -22.1673   -4.2166   21.0958 F   0  0  0  0  0  0
  -21.5625   -3.4516   25.7714 F   0  0  0  0  0  0
  -30.0144  -13.4364   20.3963 N   0  0  0  0  0  0
  -26.3014  -12.9337   20.3269 N   0  0  0  0  0  0
  -25.9361  -11.6510   20.5757 N   0  0  0  0  0  0
  -22.0484  -12.8246   22.0347 N   0  0  0  0  0  0
  -25.4269  -15.1857   20.3967 N   0  0  0  0  0  0
  -31.8129  -14.8063   20.1546 O   0  0  0  0  0  0
  -21.6664   -6.8883   21.4247 O   0  0  0  0  0  0
  -22.3610  -14.5601   20.6738 O   0  0  0  0  0  0
  -24.6239  -31.8626   23.1998 C   0  0  0  0  0  0
  -25.9104  -32.4786   23.8324 C   0  0  1  0  0  0
  -27.2333  -27.3352   20.1224 C   0  0  0  0  0  0
  -25.5948  -33.8586   24.2294 N   0  0  0  0  0  0
  -23.4160  -30.4857   21.5388 C   0  0  2  0  0  0
  -24.8654  -28.9356   20.1143 C   0  0  0  0  0  0
  -22.7458  -29.4632   22.4886 C   0  0  0  0  0  0
  -18.0310  -28.1406   22.8450 C   0  0  0  0  0  0
  -24.1497  -36.7260   23.2618 C   0  0  0  0  0  0
  -25.9544  -30.7969   21.3698 C   0  0  0  0  0  0
  -26.0295  -29.4214   20.7208 C   0  0  0  0  0  0
  -27.2149  -28.6325   20.7167 C   0  0  0  0  0  0
  -26.0459  -26.8955   19.4922 C   0  0  0  0  0  0
  -24.8712  -27.6765   19.4929 C   0  0  0  0  0  0
  -23.6345  -29.8180   20.1551 C   0  0  0  0  0  0
  -25.4110  -36.3077   24.0342 C   0  0  1  0  0  0
  -20.5898  -28.3701   23.1273 C   0  0  2  0  0  0
  -20.6815  -26.9433   22.5395 C   0  0  0  0  0  0
  -19.5801  -26.6404   21.5189 C   0  0  0  0  0  0
  -18.1974  -26.7949   22.1592 C   0  0  0  0  0  0
  -19.1556  -28.8874   23.2859 C   0  0  0  0  0  0
  -18.9470  -30.1476   23.8868 C   0  0  0  0  0  0
  -17.6472  -30.6590   24.0582 C   0  0  0  0  0  0
  -25.9050  -34.9452   23.5104 C   0  0  0  0  0  0
  -16.5365  -29.9090   23.6351 C   0  0  0  0  0  0
  -16.7295  -28.6531   23.0317 C   0  0  0  0  0  0
  -26.4515  -31.6543   25.0647 C   0  0  0  0  0  0
  -25.3771  -31.3671   26.1384 C   0  0  0  0  0  0
  -27.0339  -30.2971   24.6030 C   0  0  0  0  0  0
  -27.6094  -32.4244   25.7430 C   0  0  0  0  0  0
  -27.5606  -37.1753   24.8447 C   0  0  0  0  0  0
  -21.4182  -29.3042   22.3640 N   0  0  0  0  0  0
  -26.4274  -37.3785   23.9451 N   0  0  0  0  0  0
  -24.6824  -31.0648   22.0936 N   0  0  0  0  0  0
  -23.4208  -28.8209   23.2973 O   0  0  0  0  0  0
  -28.3791  -26.5280   20.1236 O   0  0  0  0  0  0
  -26.5601  -34.8912   22.4654 O   0  0  0  0  0  0
  -23.5403  -32.1393   23.7349 O   0  0  0  0  0  0
  -29.1644  -19.3375   19.3985 C   0  0  0  0  0  0
  -30.9121  -17.9360   21.0623 C   0  0  0  0  0  0
  -29.0878  -17.9140   19.4830 C   0  0  0  0  0  0
  -30.1158  -20.1067   20.1121 C   0  0  0  0  0  0
  -29.9566  -17.1756   20.3392 C   0  0  0  0  0  0
  -31.0118  -19.3689   20.9487 C   0  0  0  0  0  0
  -28.5047  -16.2442   17.5387 C   0  0  0  0  0  0
  -27.9568  -17.5948   17.1482 C   0  0  0  0  0  0
  -28.0813  -17.2254   18.6103 C   0  0  0  0  0  0
  -30.6514  -21.8343   18.3321 C   0  0  0  0  0  0
  -32.9228  -19.3945   22.4194 C   0  0  0  0  0  0
  -29.3654  -24.1038   19.9376 C   0  0  0  0  0  0
  -28.2425  -25.0947   20.4676 C   0  0  0  0  0  0
  -30.2895  -21.6557   19.8211 C   0  0  1  0  0  0
  -29.7684  -15.7355   20.5410 N   0  0  0  0  0  0
  -29.1853  -22.6154   20.2411 N   0  3  0  0  0  0
  -31.9820  -20.0932   21.6114 O   0  0  0  0  0  0
  -31.4865  -12.5146   19.1399 H   0  0  0  0  0  0
  -30.3751  -11.4063   19.9027 H   0  0  0  0  0  0
  -29.7793  -11.7203   17.4876 H   0  0  0  0  0  0
  -29.6657  -13.4447   17.7142 H   0  0  0  0  0  0
  -27.8656  -11.2876   18.8635 H   0  0  0  0  0  0
  -27.3884  -12.5748   17.7828 H   0  0  0  0  0  0
  -27.6606  -14.2469   19.5008 H   0  0  0  0  0  0
  -28.7228  -12.0900   21.3945 H   0  0  0  0  0  0
  -28.4589  -13.7642   21.8086 H   0  0  0  0  0  0
  -25.2791   -9.5702   22.4747 H   0  0  0  0  0  0
  -24.0022   -7.4675   22.7507 H   0  0  0  0  0  0
  -21.0866   -8.8798   19.8965 H   0  0  0  0  0  0
  -22.3742  -10.9684   19.6156 H   0  0  0  0  0  0
  -21.2019   -7.6149   23.9709 H   0  0  0  0  0  0
  -21.1445   -6.0498   25.9058 H   0  0  0  0  0  0
  -22.0635   -2.7621   23.2807 H   0  0  0  0  0  0
  -22.4045  -11.9859   22.4676 H   0  0  0  0  0  0
  -21.1142  -13.1361   22.2593 H   0  0  0  0  0  0
  -24.6530  -15.8344   20.4932 H   0  0  0  0  0  0
  -26.2459  -15.6038   19.9802 H   0  0  0  0  0  0
  -26.7160  -32.5490   23.1059 H   0  0  0  0  0  0
  -25.0264  -33.9745   25.0556 H   0  0  0  0  0  0
  -22.7056  -31.3028   21.3950 H   0  0  0  0  0  0
  -23.3811  -35.9536   23.3208 H   0  0  0  0  0  0
  -24.3605  -36.8943   22.2041 H   0  0  0  0  0  0
  -23.7167  -37.6404   23.6675 H   0  0  0  0  0  0
  -26.0810  -31.5589   20.6002 H   0  0  0  0  0  0
  -26.8383  -30.8521   21.9930 H   0  0  0  0  0  0
  -28.1095  -29.0026   21.1987 H   0  0  0  0  0  0
  -26.0099  -25.9459   18.9791 H   0  0  0  0  0  0
  -23.9802  -27.3041   19.0054 H   0  0  0  0  0  0
  -23.7618  -30.5942   19.3993 H   0  0  0  0  0  0
  -22.7567  -29.2464   19.8479 H   0  0  0  0  0  0
  -25.1282  -36.1909   25.0837 H   0  0  0  0  0  0
  -20.9983  -28.3287   24.1391 H   0  0  0  0  0  0
  -20.5727  -26.2301   23.3580 H   0  0  0  0  0  0
  -21.6695  -26.7499   22.1188 H   0  0  0  0  0  0
  -19.6966  -25.6307   21.1238 H   0  0  0  0  0  0
  -19.6765  -27.3215   20.6717 H   0  0  0  0  0  0
  -17.4249  -26.6680   21.3989 H   0  0  0  0  0  0
  -18.0385  -26.0105   22.9006 H   0  0  0  0  0  0
  -19.7949  -30.7322   24.2179 H   0  0  0  0  0  0
  -17.5035  -31.6250   24.5227 H   0  0  0  0  0  0
  -15.5364  -30.2993   23.7686 H   0  0  0  0  0  0
  -15.8696  -28.0877   22.6981 H   0  0  0  0  0  0
  -24.5963  -30.6995   25.7715 H   0  0  0  0  0  0
  -24.8934  -32.2839   26.4765 H   0  0  0  0  0  0
  -25.8108  -30.8871   27.0168 H   0  0  0  0  0  0
  -26.2853  -29.6703   24.1144 H   0  0  0  0  0  0
  -27.4193  -29.7221   25.4463 H   0  0  0  0  0  0
  -27.8684  -30.4288   23.9133 H   0  0  0  0  0  0
  -27.2740  -33.3574   26.1983 H   0  0  0  0  0  0
  -28.3929  -32.6725   25.0256 H   0  0  0  0  0  0
  -28.0730  -31.8347   26.5351 H   0  0  0  0  0  0
  -28.2528  -38.0152   24.7684 H   0  0  0  0  0  0
  -28.1213  -36.2690   24.6064 H   0  0  0  0  0  0
  -27.2364  -37.1160   25.8855 H   0  0  0  0  0  0
  -20.9332  -29.8688   21.6810 H   0  0  0  0  0  0
  -26.0154  -38.2844   24.1537 H   0  0  0  0  0  0
  -28.4968  -19.8500   18.7215 H   0  0  0  0  0  0
  -31.5613  -17.3843   21.7239 H   0  0  0  0  0  0
  -29.5707  -16.0723   17.4022 H   0  0  0  0  0  0
  -27.8646  -15.3875   17.3309 H   0  0  0  0  0  0
  -26.9591  -17.6207   16.7161 H   0  0  0  0  0  0
  -28.6625  -18.3127   16.7340 H   0  0  0  0  0  0
  -27.1587  -17.0403   19.1544 H   0  0  0  0  0  0
  -31.4545  -21.1529   18.0486 H   0  0  0  0  0  0
  -31.0035  -22.8402   18.1098 H   0  0  0  0  0  0
  -29.8012  -21.6245   17.6834 H   0  0  0  0  0  0
  -33.6407  -20.0993   22.8391 H   0  0  0  0  0  0
  -33.4867  -18.6585   21.8456 H   0  0  0  0  0  0
  -32.4275  -18.8940   23.2517 H   0  0  0  0  0  0
  -30.3283  -24.4286   20.3354 H   0  0  0  0  0  0
  -29.4225  -24.2361   18.8576 H   0  0  0  0  0  0
  -28.2344  -25.0436   21.5572 H   0  0  0  0  0  0
  -27.2769  -24.6974   20.1611 H   0  0  0  0  0  0
  -31.1680  -21.9864   20.3777 H   0  0  0  0  0  0
  -28.8044  -15.4457   20.6071 H   0  0  0  0  0  0
  -28.3232  -22.3061   19.8214 H   0  0  0  0  0  0
  -29.0752  -22.5102   21.2374 H   0  0  0  0  0  0
  1 25  1  0  0  0
  1 30  2  0  0  0
  1 85  1  0  0  0
  2  3  1  0  0  0
  2 25  1  0  0  0
  2 88  1  0  0  0
  2 89  1  0  0  0
  3  4  1  0  0  0
  3 90  1  0  0  0
  3 91  1  0  0  0
  4  5  1  0  0  0
  4 92  1  0  0  0
  4 93  1  0  0  0
  5  6  1  0  0  0
  5 26  1  0  0  0
  5 94  1  0  0  0
  6 25  1  0  0  0
  6 95  1  0  0  0
  6 96  1  0  0  0
  7  8  2  0  0  0
  7 26  1  0  0  0
  7 29  1  0  0  0
  8  9  1  0  0  0
  8 22  1  0  0  0
  9 10  1  0  0  0
  9 27  2  0  0  0
 10 11  2  0  0  0
 10 15  1  0  0  0
 11 12  1  0  0  0
 11 97  1  0  0  0
 12 13  2  0  0  0
 12 98  1  0  0  0
 13 14  1  0  0  0
 13 31  1  0  0  0
 14 15  2  0  0  0
 14 99  1  0  0  0
 15100  1  0  0  0
 16 17  2  0  0  0
 16 21  1  0  0  0
 16 31  1  0  0  0
 17 18  1  0  0  0
 17101  1  0  0  0
 18 19  2  0  0  0
 18102  1  0  0  0
 19 20  1  0  0  0
 19 24  1  0  0  0
 20 21  2  0  0  0
 20103  1  0  0  0
 21 23  1  0  0  0
 22 28  1  0  0  0
 22 32  2  0  0  0
 26 27  1  0  0  0
 28104  1  0  0  0
 28105  1  0  0  0
 29106  1  0  0  0
 29107  1  0  0  0
 33 34  1  0  0  0
 33 66  1  0  0  0
 33 70  2  0  0  0
 34 36  1  0  0  0
 34 59  1  0  0  0
 34108  1  0  0  0
 35 44  2  0  0  0
 35 45  1  0  0  0
 35 68  1  0  0  0
 36 56  1  0  0  0
 36109  1  0  0  0
 37 39  1  0  0  0
 37 47  1  0  0  0
 37 66  1  0  0  0
 37110  1  0  0  0
 38 43  2  0  0  0
 38 46  1  0  0  0
 38 47  1  0  0  0
 39 64  1  0  0  0
 39 67  2  0  0  0
 40 52  1  0  0  0
 40 53  2  0  0  0
 40 58  1  0  0  0
 41111  1  0  0  0
 41112  1  0  0  0
 41113  1  0  0  0
 41 48  1  0  0  0
 42 43  1  0  0  0
 42 66  1  0  0  0
 42114  1  0  0  0
 42115  1  0  0  0
 43 44  1  0  0  0
 44116  1  0  0  0
 45 46  2  0  0  0
 45117  1  0  0  0
 46118  1  0  0  0
 47119  1  0  0  0
 47120  1  0  0  0
 48 56  1  0  0  0
 48 65  1  0  0  0
 48121  1  0  0  0
 49 50  1  0  0  0
 49 53  1  0  0  0
 49 64  1  0  0  0
 49122  1  0  0  0
 50 51  1  0  0  0
 50123  1  0  0  0
 50124  1  0  0  0
 51 52  1  0  0  0
 51125  1  0  0  0
 51126  1  0  0  0
 52127  1  0  0  0
 52128  1  0  0  0
 53 54  1  0  0  0
 54 55  2  0  0  0
 54129  1  0  0  0
 55 57  1  0  0  0
 55130  1  0  0  0
 56 69  2  0  0  0
 57 58  2  0  0  0
 57131  1  0  0  0
 58132  1  0  0  0
 59 60  1  0  0  0
 59 61  1  0  0  0
 59 62  1  0  0  0
 60133  1  0  0  0
 60134  1  0  0  0
 60135  1  0  0  0
 61136  1  0  0  0
 61137  1  0  0  0
 61138  1  0  0  0
 62139  1  0  0  0
 62140  1  0  0  0
 62141  1  0  0  0
 63 65  1  0  0  0
 63142  1  0  0  0
 63143  1  0  0  0
 63144  1  0  0  0
 64145  1  0  0  0
 65146  1  0  0  0
 68 83  1  0  0  0
 71 73  2  0  0  0
 71 74  1  0  0  0
 71147  1  0  0  0
 72 75  2  0  0  0
 72 76  1  0  0  0
 72148  1  0  0  0
 73 75  1  0  0  0
 73 79  1  0  0  0
 74 76  2  0  0  0
 74 84  1  0  0  0
 75 85  1  0  0  0
 76 87  1  0  0  0
 77 78  1  0  0  0
 77 79  1  0  0  0
 77149  1  0  0  0
 77150  1  0  0  0
 78 79  1  0  0  0
 78151  1  0  0  0
 78152  1  0  0  0
 79153  1  0  0  0
 80154  1  0  0  0
 80155  1  0  0  0
 80156  1  0  0  0
 80 84  1  0  0  0
 81 87  1  0  0  0
 81157  1  0  0  0
 81158  1  0  0  0
 81159  1  0  0  0
 82 83  1  0  0  0
 82 86  1  0  0  0
 82160  1  0  0  0
 82161  1  0  0  0
 83162  1  0  0  0
 83163  1  0  0  0
 84 86  1  0  0  0
 84164  1  0  0  0
 85165  1  0  0  0
 86166  1  0  0  0
 86167  1  0  0  0
M  CHG  1  86   1
M  ISO  4   1 100  68 101  83 101  85 100
M  END
> <chiral flag>
0

> <version>
0

> <s_m_source_file>
/data/baiqing/PycharmProjects/Reinvent-master-3.2/result/LINK_invent/BTK/process_docking_weight1_custom_sum_contain_oxygen_bond_distance_aromatic_linkinvent_7_9_3/rearranged_h_0160.sdf

> <i_m_source_file_index>
61

> <r_mmod_Potential_Energy-OPLS-2005>
-56.8791465759277

> <r_mmod_Stretch_Energy-OPLS-2005>
82.8265075683594

> <r_mmod_Bend_Energy-OPLS-2005>
138.659271240234

> <r_mmod_Torsional_Energy-OPLS-2005>
271.691741943359

> <r_mmod_Improper_Torsional_Energy-OPLS-2005>
7.93924951553345

> <r_mmod_Van_der_Waal_Energy-OPLS-2005>
137.087326049805

> <r_mmod_Electrostatic_Energy-OPLS-2005>
-301.190765380859

> <r_mmod_Solvation_Energy-OPLS-2005>
-444.153930664062

> <b_mmod_Minimization_Converged-OPLS-2005>
0

> <r_mmod_RMS_Derivative-OPLS-2005>
3.59630799293518

$$$$
61
                    3D
 Structure written by MMmdl.
163171  0  0  1  0            999 V2000
  -30.6264  -14.7116   20.4492 C   0  0  0  0  0  0
  -30.4371  -12.4353   19.4615 C   0  0  0  0  0  0
  -29.5072  -12.5144   18.2293 C   0  0  0  0  0  0
  -28.0311  -12.3462   18.6406 C   0  0  0  0  0  0
  -27.6482  -13.2306   19.8570 C   0  0  2  0  0  0
  -28.6969  -13.1385   20.9876 C   0  0  0  0  0  0
  -25.2543  -13.8201   20.5698 C   0  0  0  0  0  0
  -24.1844  -13.0470   20.9207 C   0  0  0  0  0  0
  -24.6426  -11.6926   20.8767 C   0  0  0  0  0  0
  -23.9119  -10.4299   21.0435 C   0  0  0  0  0  0
  -24.3652   -9.4205   21.9216 C   0  0  0  0  0  0
  -23.6313   -8.2258   22.0774 C   0  0  0  0  0  0
  -22.4301   -8.0309   21.3552 C   0  0  0  0  0  0
  -21.9953   -9.0291   20.4651 C   0  0  0  0  0  0
  -22.7297  -10.2157   20.3067 C   0  0  0  0  0  0
  -21.6851   -6.0770   22.5287 C   0  0  0  0  0  0
  -21.4018   -6.5665   23.8226 C   0  0  0  0  0  0
  -21.3649   -5.6809   24.9181 C   0  0  0  0  0  0
  -21.6027   -4.3072   24.7216 C   0  0  0  0  0  0
  -21.8822   -3.8180   23.4335 C   0  0  0  0  0  0
  -21.9193   -4.7001   22.3400 C   0  0  0  0  0  0
  -22.7846  -13.5238   21.1844 C   0  0  0  0  0  0
  -22.1660   -4.2194   21.0978 F   0  0  0  0  0  0
  -21.5615   -3.4552   25.7732 F   0  0  0  0  0  0
  -30.0031  -13.4853   20.4103 N   0  0  0  0  0  0
  -26.2990  -12.9423   20.3325 N   0  0  0  0  0  0
  -25.9357  -11.6566   20.5789 N   0  0  0  0  0  0
  -22.0469  -12.8216   22.0344 N   0  0  0  0  0  0
  -25.4252  -15.1940   20.4113 N   0  0  0  0  0  0
  -31.8159  -14.7968   20.1429 O   0  0  0  0  0  0
  -21.6642   -6.8923   21.4253 O   0  0  0  0  0  0
  -22.3530  -14.5557   20.6680 O   0  0  0  0  0  0
  -24.6297  -31.8547   23.2022 C   0  0  0  0  0  0
  -25.9121  -32.4727   23.8373 C   0  0  1  0  0  0
  -27.2288  -27.2614   20.1131 C   0  0  0  0  0  0
  -25.5895  -33.8551   24.2258 N   0  0  0  0  0  0
  -23.4302  -30.4814   21.5381 C   0  0  2  0  0  0
  -24.8799  -28.9289   20.1095 C   0  0  0  0  0  0
  -22.7506  -29.4579   22.4819 C   0  0  0  0  0  0
  -18.0301  -28.1371   22.8422 C   0  0  0  0  0  0
  -24.1465  -36.7262   23.2654 C   0  0  0  0  0  0
  -25.9834  -30.7519   21.4009 C   0  0  0  0  0  0
  -26.0485  -29.3842   20.7258 C   0  0  0  0  0  0
  -27.2179  -28.5593   20.7227 C   0  0  0  0  0  0
  -26.0307  -26.8760   19.4631 C   0  0  0  0  0  0
  -24.8760  -27.6807   19.4726 C   0  0  0  0  0  0
  -23.6586  -29.8260   20.1492 C   0  0  0  0  0  0
  -25.4096  -36.3046   24.0350 C   0  0  1  0  0  0
  -20.5909  -28.3680   23.1221 C   0  0  2  0  0  0
  -20.6749  -26.9393   22.5383 C   0  0  0  0  0  0
  -19.5746  -26.6383   21.5165 C   0  0  0  0  0  0
  -18.1933  -26.7903   22.1584 C   0  0  0  0  0  0
  -19.1567  -28.8834   23.2783 C   0  0  0  0  0  0
  -18.9533  -30.1407   23.8845 C   0  0  0  0  0  0
  -17.6556  -30.6549   24.0583 C   0  0  0  0  0  0
  -25.9075  -34.9435   23.5131 C   0  0  0  0  0  0
  -16.5423  -29.9089   23.6334 C   0  0  0  0  0  0
  -16.7297  -28.6510   23.0317 C   0  0  0  0  0  0
  -26.4460  -31.6649   25.0851 C   0  0  0  0  0  0
  -25.3659  -31.3884   26.1569 C   0  0  0  0  0  0
  -27.0387  -30.3055   24.6506 C   0  0  0  0  0  0
  -27.5916  -32.4514   25.7633 C   0  0  0  0  0  0
  -27.5569  -37.1775   24.8445 C   0  0  0  0  0  0
  -21.4210  -29.3023   22.3577 N   0  0  0  0  0  0
  -26.4253  -37.3768   23.9456 N   0  0  0  0  0  0
  -24.6980  -31.0518   22.0996 N   0  0  0  0  0  0
  -23.4205  -28.8069   23.2879 O   0  0  0  0  0  0
  -28.3443  -26.3903   20.1941 O   0  0  0  0  0  0
  -26.5651  -34.8910   22.4705 O   0  0  0  0  0  0
  -23.5440  -32.1449   23.7254 O   0  0  0  0  0  0
  -30.6202  -19.2286   19.3860 C   0  0  0  0  0  0
  -30.8269  -17.8642   19.3395 C   0  0  0  0  0  0
  -29.9908  -17.2675   20.3413 C   0  0  0  0  0  0
  -29.2524  -18.3148   20.8954 C   0  0  0  0  0  0
  -31.7581  -17.1805   18.3709 C   0  0  0  0  0  0
  -28.2186  -18.2645   21.9835 C   0  0  0  0  0  0
  -28.4096  -23.5793   21.8889 C   0  0  0  0  0  0
  -29.0568  -20.9478   20.6095 C   0  0  0  0  0  0
  -28.2910  -24.9571   19.7398 C   0  0  0  0  0  0
  -29.0946  -23.7834   20.5211 C   0  0  2  0  0  0
  -29.4790  -22.3290   19.8311 C   0  0  2  0  0  0
  -29.6141  -19.5553   20.2877 N   0  0  0  0  0  0
  -29.8409  -15.8285   20.6837 N   0  0  0  0  0  0
  -29.1730  -22.2944   18.3692 N   0  3  0  0  0  0
  -31.4753  -12.5657   19.1498 H   0  0  0  0  0  0
  -30.3898  -11.4522   19.9310 H   0  0  0  0  0  0
  -29.7815  -11.7517   17.4980 H   0  0  0  0  0  0
  -29.6348  -13.4765   17.7314 H   0  0  0  0  0  0
  -27.8680  -11.2936   18.8747 H   0  0  0  0  0  0
  -27.3782  -12.5740   17.7952 H   0  0  0  0  0  0
  -27.6505  -14.2573   19.4928 H   0  0  0  0  0  0
  -28.7246  -12.1340   21.4114 H   0  0  0  0  0  0
  -28.4406  -13.8066   21.8118 H   0  0  0  0  0  0
  -25.2792   -9.5679   22.4786 H   0  0  0  0  0  0
  -24.0012   -7.4656   22.7491 H   0  0  0  0  0  0
  -21.0890   -8.8825   19.8942 H   0  0  0  0  0  0
  -22.3787  -10.9708   19.6160 H   0  0  0  0  0  0
  -21.2020   -7.6173   23.9745 H   0  0  0  0  0  0
  -21.1449   -6.0535   25.9083 H   0  0  0  0  0  0
  -22.0605   -2.7651   23.2825 H   0  0  0  0  0  0
  -22.4059  -11.9839   22.4685 H   0  0  0  0  0  0
  -21.1082  -13.1225   22.2544 H   0  0  0  0  0  0
  -24.6590  -15.8481   20.5269 H   0  0  0  0  0  0
  -26.2672  -15.6316   20.0598 H   0  0  0  0  0  0
  -26.7157  -32.5331   23.1052 H   0  0  0  0  0  0
  -24.9904  -33.9702   25.0300 H   0  0  0  0  0  0
  -22.7263  -31.3015   21.3908 H   0  0  0  0  0  0
  -23.3759  -35.9542   23.3275 H   0  0  0  0  0  0
  -24.3558  -36.8987   22.2069 H   0  0  0  0  0  0
  -23.7193  -37.6453   23.6733 H   0  0  0  0  0  0
  -26.1731  -31.5185   20.6512 H   0  0  0  0  0  0
  -26.8420  -30.7649   22.0642 H   0  0  0  0  0  0
  -28.1071  -28.8948   21.2338 H   0  0  0  0  0  0
  -25.9422  -25.9363   18.9429 H   0  0  0  0  0  0
  -23.9816  -27.3295   18.9784 H   0  0  0  0  0  0
  -23.8130  -30.6146   19.4112 H   0  0  0  0  0  0
  -22.7742  -29.2787   19.8177 H   0  0  0  0  0  0
  -25.1228  -36.1890   25.0835 H   0  0  0  0  0  0
  -21.0001  -28.3282   24.1340 H   0  0  0  0  0  0
  -20.5617  -26.2288   23.3595 H   0  0  0  0  0  0
  -21.6608  -26.7327   22.1203 H   0  0  0  0  0  0
  -19.6949  -25.6312   21.1159 H   0  0  0  0  0  0
  -19.6738  -27.3171   20.6686 H   0  0  0  0  0  0
  -17.4194  -26.6658   21.3995 H   0  0  0  0  0  0
  -18.0336  -26.0043   22.8975 H   0  0  0  0  0  0
  -19.8032  -30.7209   24.2193 H   0  0  0  0  0  0
  -17.5132  -31.6217   24.5184 H   0  0  0  0  0  0
  -15.5411  -30.2993   23.7686 H   0  0  0  0  0  0
  -15.8687  -28.0856   22.7013 H   0  0  0  0  0  0
  -24.5698  -30.7401   25.7906 H   0  0  0  0  0  0
  -24.9000  -32.3118   26.5022 H   0  0  0  0  0  0
  -25.7889  -30.9006   27.0368 H   0  0  0  0  0  0
  -26.3074  -29.6762   24.1414 H   0  0  0  0  0  0
  -27.3902  -29.7357   25.5145 H   0  0  0  0  0  0
  -27.9005  -30.4313   23.9924 H   0  0  0  0  0  0
  -27.2360  -33.3779   26.2133 H   0  0  0  0  0  0
  -28.3695  -32.7217   25.0481 H   0  0  0  0  0  0
  -28.0624  -31.8805   26.5671 H   0  0  0  0  0  0
  -28.2437  -38.0177   24.7542 H   0  0  0  0  0  0
  -28.1174  -36.2744   24.6101 H   0  0  0  0  0  0
  -27.2331  -37.1167   25.8836 H   0  0  0  0  0  0
  -20.9371  -29.8881   21.6924 H   0  0  0  0  0  0
  -26.0139  -38.2825   24.1557 H   0  0  0  0  0  0
  -31.1102  -20.0098   18.8183 H   0  0  0  0  0  0
  -32.0389  -17.8592   17.5623 H   0  0  0  0  0  0
  -31.2712  -16.3114   17.9217 H   0  0  0  0  0  0
  -32.6702  -16.8550   18.8734 H   0  0  0  0  0  0
  -27.9858  -17.2386   22.2717 H   0  0  0  0  0  0
  -27.2862  -18.7300   21.6641 H   0  0  0  0  0  0
  -28.5688  -18.7787   22.8791 H   0  0  0  0  0  0
  -29.0505  -23.0544   22.6013 H   0  0  0  0  0  0
  -27.4895  -23.0041   21.7750 H   0  0  0  0  0  0
  -28.1435  -24.5293   22.3523 H   0  0  0  0  0  0
  -27.9648  -20.8642   20.5969 H   0  0  0  0  0  0
  -29.3149  -21.0804   21.6618 H   0  0  0  0  0  0
  -27.2647  -24.5980   19.7210 H   0  0  0  0  0  0
  -28.6159  -24.9869   18.7020 H   0  0  0  0  0  0
  -30.0608  -24.2296   20.7625 H   0  0  0  0  0  0
  -30.5760  -22.3199   19.8451 H   0  0  0  0  0  0
  -28.9507  -15.5858   21.0913 H   0  0  0  0  0  0
  -28.1929  -22.1549   18.1776 H   0  0  0  0  0  0
  -29.6829  -21.5640   17.8999 H   0  0  0  0  0  0
  -29.4632  -23.1431   17.9088 H   0  0  0  0  0  0
  1 25  1  0  0  0
  1 30  2  0  0  0
  1 83  1  0  0  0
  2  3  1  0  0  0
  2 25  1  0  0  0
  2 85  1  0  0  0
  2 86  1  0  0  0
  3  4  1  0  0  0
  3 87  1  0  0  0
  3 88  1  0  0  0
  4  5  1  0  0  0
  4 89  1  0  0  0
  4 90  1  0  0  0
  5  6  1  0  0  0
  5 26  1  0  0  0
  5 91  1  0  0  0
  6 25  1  0  0  0
  6 92  1  0  0  0
  6 93  1  0  0  0
  7  8  2  0  0  0
  7 26  1  0  0  0
  7 29  1  0  0  0
  8  9  1  0  0  0
  8 22  1  0  0  0
  9 10  1  0  0  0
  9 27  2  0  0  0
 10 11  2  0  0  0
 10 15  1  0  0  0
 11 12  1  0  0  0
 11 94  1  0  0  0
 12 13  2  0  0  0
 12 95  1  0  0  0
 13 14  1  0  0  0
 13 31  1  0  0  0
 14 15  2  0  0  0
 14 96  1  0  0  0
 15 97  1  0  0  0
 16 17  2  0  0  0
 16 21  1  0  0  0
 16 31  1  0  0  0
 17 18  1  0  0  0
 17 98  1  0  0  0
 18 19  2  0  0  0
 18 99  1  0  0  0
 19 20  1  0  0  0
 19 24  1  0  0  0
 20 21  2  0  0  0
 20100  1  0  0  0
 21 23  1  0  0  0
 22 28  1  0  0  0
 22 32  2  0  0  0
 26 27  1  0  0  0
 28101  1  0  0  0
 28102  1  0  0  0
 29103  1  0  0  0
 29104  1  0  0  0
 33 34  1  0  0  0
 33 66  1  0  0  0
 33 70  2  0  0  0
 34 36  1  0  0  0
 34 59  1  0  0  0
 34105  1  0  0  0
 35 44  2  0  0  0
 35 45  1  0  0  0
 35 68  1  0  0  0
 36 56  1  0  0  0
 36106  1  0  0  0
 37 39  1  0  0  0
 37 47  1  0  0  0
 37 66  1  0  0  0
 37107  1  0  0  0
 38 43  2  0  0  0
 38 46  1  0  0  0
 38 47  1  0  0  0
 39 64  1  0  0  0
 39 67  2  0  0  0
 40 52  1  0  0  0
 40 53  2  0  0  0
 40 58  1  0  0  0
 41108  1  0  0  0
 41109  1  0  0  0
 41110  1  0  0  0
 41 48  1  0  0  0
 42 43  1  0  0  0
 42 66  1  0  0  0
 42111  1  0  0  0
 42112  1  0  0  0
 43 44  1  0  0  0
 44113  1  0  0  0
 45 46  2  0  0  0
 45114  1  0  0  0
 46115  1  0  0  0
 47116  1  0  0  0
 47117  1  0  0  0
 48 56  1  0  0  0
 48 65  1  0  0  0
 48118  1  0  0  0
 49 50  1  0  0  0
 49 53  1  0  0  0
 49 64  1  0  0  0
 49119  1  0  0  0
 50 51  1  0  0  0
 50120  1  0  0  0
 50121  1  0  0  0
 51 52  1  0  0  0
 51122  1  0  0  0
 51123  1  0  0  0
 52124  1  0  0  0
 52125  1  0  0  0
 53 54  1  0  0  0
 54 55  2  0  0  0
 54126  1  0  0  0
 55 57  1  0  0  0
 55127  1  0  0  0
 56 69  2  0  0  0
 57 58  2  0  0  0
 57128  1  0  0  0
 58129  1  0  0  0
 59 60  1  0  0  0
 59 61  1  0  0  0
 59 62  1  0  0  0
 60130  1  0  0  0
 60131  1  0  0  0
 60132  1  0  0  0
 61133  1  0  0  0
 61134  1  0  0  0
 61135  1  0  0  0
 62136  1  0  0  0
 62137  1  0  0  0
 62138  1  0  0  0
 63 65  1  0  0  0
 63139  1  0  0  0
 63140  1  0  0  0
 63141  1  0  0  0
 64142  1  0  0  0
 65143  1  0  0  0
 68 79  1  0  0  0
 71 72  2  0  0  0
 71 82  1  0  0  0
 71144  1  0  0  0
 72 73  1  0  0  0
 72 75  1  0  0  0
 73 74  2  0  0  0
 73 83  1  0  0  0
 74 76  1  0  0  0
 74 82  1  0  0  0
 75145  1  0  0  0
 75146  1  0  0  0
 75147  1  0  0  0
 76148  1  0  0  0
 76149  1  0  0  0
 76150  1  0  0  0
 77151  1  0  0  0
 77152  1  0  0  0
 77153  1  0  0  0
 77 80  1  0  0  0
 78 81  1  0  0  0
 78 82  1  0  0  0
 78154  1  0  0  0
 78155  1  0  0  0
 79 80  1  0  0  0
 79156  1  0  0  0
 79157  1  0  0  0
 80 81  1  0  0  0
 80158  1  0  0  0
 81 84  1  0  0  0
 81159  1  0  0  0
 83160  1  0  0  0
 84161  1  0  0  0
 84162  1  0  0  0
 84163  1  0  0  0
M  CHG  1  84   1
M  ISO  4   1 100  68 101  79 101  83 100
M  END
> <chiral flag>
0

> <version>
0

> <s_m_source_file>
/data/baiqing/PycharmProjects/Reinvent-master-3.2/result/LINK_invent/BTK/process_docking_weight1_custom_sum_contain_oxygen_bond_distance_aromatic_linkinvent_7_9_3/rearranged_h_0160.sdf

> <i_m_source_file_index>
62

> <r_mmod_Potential_Energy-OPLS-2005>
-71.4127502441406

> <r_mmod_Stretch_Energy-OPLS-2005>
131.4453125

> <r_mmod_Bend_Energy-OPLS-2005>
197.143783569336

> <r_mmod_Torsional_Energy-OPLS-2005>
266.847900390625

> <r_mmod_Improper_Torsional_Energy-OPLS-2005>
4.03794813156128

> <r_mmod_Van_der_Waal_Energy-OPLS-2005>
118.506118774414

> <r_mmod_Electrostatic_Energy-OPLS-2005>
-347.128021240234

> <r_mmod_Solvation_Energy-OPLS-2005>
-519.978332519531

> <b_mmod_Minimization_Converged-OPLS-2005>
0

> <r_mmod_RMS_Derivative-OPLS-2005>
7.07474803924561

$$$$
62
                    3D
 Structure written by MMmdl.
179188  0  0  1  0            999 V2000
  -30.7490  -14.4308   20.6116 C   0  0  0  0  0  0
  -30.4114  -12.2984   19.4134 C   0  0  0  0  0  0
  -29.4828  -12.5060   18.2006 C   0  0  0  0  0  0
  -28.0073  -12.3539   18.6130 C   0  0  0  0  0  0
  -27.6609  -13.1845   19.8758 C   0  0  2  0  0  0
  -28.7091  -12.9350   20.9943 C   0  0  0  0  0  0
  -25.2569  -13.8106   20.5620 C   0  0  0  0  0  0
  -24.1820  -13.0422   20.9174 C   0  0  0  0  0  0
  -24.6356  -11.6879   20.8757 C   0  0  0  0  0  0
  -23.9015  -10.4292   21.0434 C   0  0  0  0  0  0
  -24.3590   -9.4206   21.9196 C   0  0  0  0  0  0
  -23.6274   -8.2240   22.0756 C   0  0  0  0  0  0
  -22.4260   -8.0277   21.3550 C   0  0  0  0  0  0
  -21.9897   -9.0246   20.4652 C   0  0  0  0  0  0
  -22.7205  -10.2130   20.3061 C   0  0  0  0  0  0
  -21.6830   -6.0742   22.5285 C   0  0  0  0  0  0
  -21.4005   -6.5641   23.8223 C   0  0  0  0  0  0
  -21.3668   -5.6789   24.9183 C   0  0  0  0  0  0
  -21.6044   -4.3052   24.7225 C   0  0  0  0  0  0
  -21.8817   -3.8148   23.4346 C   0  0  0  0  0  0
  -21.9190   -4.6972   22.3406 C   0  0  0  0  0  0
  -22.7846  -13.5238   21.1849 C   0  0  0  0  0  0
  -22.1637   -4.2160   21.0977 F   0  0  0  0  0  0
  -21.5647   -3.4532   25.7736 F   0  0  0  0  0  0
  -30.0319  -13.2783   20.4521 N   0  0  0  0  0  0
  -26.3000  -12.9244   20.3358 N   0  0  0  0  0  0
  -25.9269  -11.6426   20.5772 N   0  0  0  0  0  0
  -22.0472  -12.8250   22.0407 N   0  0  0  0  0  0
  -25.4282  -15.1820   20.3934 N   0  0  0  0  0  0
  -31.8509  -14.5566   20.0651 O   0  0  0  0  0  0
  -21.6620   -6.8881   21.4243 O   0  0  0  0  0  0
  -22.3550  -14.5558   20.6701 O   0  0  0  0  0  0
  -24.6098  -31.8698   23.2143 C   0  0  0  0  0  0
  -25.9010  -32.4835   23.8417 C   0  0  1  0  0  0
  -27.2449  -27.4871   20.0735 C   0  0  0  0  0  0
  -25.5884  -33.8641   24.2351 N   0  0  0  0  0  0
  -23.3962  -30.4927   21.5531 C   0  0  2  0  0  0
  -24.8431  -28.9568   20.1224 C   0  0  0  0  0  0
  -22.7379  -29.4670   22.5028 C   0  0  0  0  0  0
  -18.0263  -28.1367   22.8496 C   0  0  0  0  0  0
  -24.1481  -36.7331   23.2634 C   0  0  0  0  0  0
  -25.9193  -30.8452   21.3621 C   0  0  0  0  0  0
  -25.9976  -29.4780   20.7204 C   0  0  0  0  0  0
  -27.1995  -28.7418   20.7094 C   0  0  0  0  0  0
  -26.0737  -26.9548   19.4937 C   0  0  0  0  0  0
  -24.8715  -27.6873   19.5158 C   0  0  0  0  0  0
  -23.6034  -29.8210   20.1687 C   0  0  0  0  0  0
  -25.4098  -36.3125   24.0340 C   0  0  1  0  0  0
  -20.5845  -28.3651   23.1335 C   0  0  2  0  0  0
  -20.6750  -26.9391   22.5427 C   0  0  0  0  0  0
  -19.5738  -26.6381   21.5214 C   0  0  0  0  0  0
  -18.1913  -26.7918   22.1616 C   0  0  0  0  0  0
  -19.1509  -28.8827   23.2910 C   0  0  0  0  0  0
  -18.9441  -30.1432   23.8925 C   0  0  0  0  0  0
  -17.6443  -30.6575   24.0574 C   0  0  0  0  0  0
  -25.9028  -34.9487   23.5142 C   0  0  0  0  0  0
  -16.5337  -29.9086   23.6314 C   0  0  0  0  0  0
  -16.7257  -28.6495   23.0351 C   0  0  0  0  0  0
  -26.4463  -31.6606   25.0728 C   0  0  0  0  0  0
  -25.3760  -31.3710   26.1503 C   0  0  0  0  0  0
  -27.0266  -30.3051   24.6071 C   0  0  0  0  0  0
  -27.6053  -32.4317   25.7476 C   0  0  0  0  0  0
  -27.5589  -37.1801   24.8452 C   0  0  0  0  0  0
  -21.4115  -29.3021   22.3749 N   0  0  0  0  0  0
  -26.4287  -37.3810   23.9421 N   0  0  0  0  0  0
  -24.6594  -31.0836   22.1016 N   0  0  0  0  0  0
  -23.4170  -28.8207   23.3052 O   0  0  0  0  0  0
  -28.4357  -26.8137   19.9961 O   0  0  0  0  0  0
  -26.5590  -34.8932   22.4704 O   0  0  0  0  0  0
  -23.5302  -32.1441   23.7563 O   0  0  0  0  0  0
  -30.9300  -22.3022   17.8936 C   0  0  0  0  0  0
  -30.3007  -23.0285   18.9380 C   0  0  0  0  0  0
  -30.9154  -20.8851   17.9520 C   0  0  0  0  0  0
  -29.6404  -22.3029   19.9624 C   0  0  0  0  0  0
  -30.2282  -20.2615   19.0141 C   0  0  0  0  0  0
  -31.3513  -17.5739   20.7502 C   0  0  0  0  0  0
  -28.9202  -17.0250   20.1536 C   0  0  0  0  0  0
  -31.2319  -16.4870   21.8499 C   0  0  0  0  0  0
  -28.9570  -16.0639   21.3516 C   0  0  0  0  0  0
  -29.9777  -18.1361   20.3091 C   0  0  0  0  0  0
  -31.6054  -23.0284   16.7321 C   0  0  0  0  0  0
  -31.6338  -20.0530   16.8886 C   0  0  0  0  0  0
  -29.6913  -22.7350   22.4560 C   0  0  0  0  0  0
  -27.4501  -22.5130   21.2492 C   0  0  0  0  0  0
  -30.3337  -24.5556   18.9626 C   0  0  0  0  0  0
  -29.0721  -25.1704   18.3352 C   0  0  0  0  0  0
  -28.9250  -26.6577   18.6638 C   0  0  0  0  0  0
  -28.9179  -22.9581   21.1471 C   0  0  0  0  0  0
  -29.6192  -20.9556   19.9843 N   0  0  0  0  0  0
  -30.2881  -15.4319   21.4232 N   0  0  0  0  0  0
  -30.1032  -18.8711   19.0545 N   0  0  0  0  0  0
  -31.4545  -12.3811   19.1030 H   0  0  0  0  0  0
  -30.3096  -11.2815   19.7986 H   0  0  0  0  0  0
  -29.7253  -11.7880   17.4159 H   0  0  0  0  0  0
  -29.6447  -13.4969   17.7728 H   0  0  0  0  0  0
  -27.8212  -11.2958   18.8010 H   0  0  0  0  0  0
  -27.3531  -12.6306   17.7857 H   0  0  0  0  0  0
  -27.7059  -14.2240   19.5559 H   0  0  0  0  0  0
  -28.6995  -11.8814   21.2747 H   0  0  0  0  0  0
  -28.4872  -13.4482   21.9285 H   0  0  0  0  0  0
  -25.2754   -9.5676   22.4747 H   0  0  0  0  0  0
  -23.9999   -7.4627   22.7466 H   0  0  0  0  0  0
  -21.0839   -8.8767   19.8948 H   0  0  0  0  0  0
  -22.3691  -10.9663   19.6158 H   0  0  0  0  0  0
  -21.1976   -7.6147   23.9726 H   0  0  0  0  0  0
  -21.1490   -6.0522   25.9086 H   0  0  0  0  0  0
  -22.0592   -2.7610   23.2835 H   0  0  0  0  0  0
  -22.4075  -11.9899   22.4796 H   0  0  0  0  0  0
  -21.1094  -13.1301   22.2593 H   0  0  0  0  0  0
  -24.6569  -15.8331   20.4907 H   0  0  0  0  0  0
  -26.2767  -15.6190   20.0593 H   0  0  0  0  0  0
  -26.7090  -32.5566   23.1190 H   0  0  0  0  0  0
  -25.0037  -33.9808   25.0501 H   0  0  0  0  0  0
  -22.6834  -31.3078   21.4140 H   0  0  0  0  0  0
  -23.3738  -35.9665   23.3287 H   0  0  0  0  0  0
  -24.3584  -36.8955   22.2052 H   0  0  0  0  0  0
  -23.7227  -37.6533   23.6653 H   0  0  0  0  0  0
  -26.0227  -31.6065   20.5876 H   0  0  0  0  0  0
  -26.8112  -30.9058   21.9742 H   0  0  0  0  0  0
  -28.0976  -29.1471   21.1551 H   0  0  0  0  0  0
  -26.0967  -25.9866   19.0135 H   0  0  0  0  0  0
  -23.9827  -27.2764   19.0581 H   0  0  0  0  0  0
  -23.7107  -30.5936   19.4064 H   0  0  0  0  0  0
  -22.7283  -29.2385   19.8752 H   0  0  0  0  0  0
  -25.1265  -36.1995   25.0830 H   0  0  0  0  0  0
  -20.9942  -28.3212   24.1455 H   0  0  0  0  0  0
  -20.5644  -26.2260   23.3610 H   0  0  0  0  0  0
  -21.6625  -26.7428   22.1228 H   0  0  0  0  0  0
  -19.6896  -25.6300   21.1230 H   0  0  0  0  0  0
  -19.6679  -27.3207   20.6762 H   0  0  0  0  0  0
  -17.4184  -26.6683   21.4013 H   0  0  0  0  0  0
  -18.0299  -26.0050   22.9001 H   0  0  0  0  0  0
  -19.7921  -30.7242   24.2312 H   0  0  0  0  0  0
  -17.5000  -31.6261   24.5168 H   0  0  0  0  0  0
  -15.5340  -30.3004   23.7620 H   0  0  0  0  0  0
  -15.8654  -28.0831   22.7055 H   0  0  0  0  0  0
  -24.5921  -30.7054   25.7871 H   0  0  0  0  0  0
  -24.8962  -32.2862   26.4987 H   0  0  0  0  0  0
  -25.8142  -30.8873   27.0243 H   0  0  0  0  0  0
  -26.2777  -29.6827   24.1155 H   0  0  0  0  0  0
  -27.4072  -29.7276   25.4508 H   0  0  0  0  0  0
  -27.8607  -30.4371   23.9173 H   0  0  0  0  0  0
  -27.2681  -33.3605   26.2098 H   0  0  0  0  0  0
  -28.3837  -32.6902   25.0280 H   0  0  0  0  0  0
  -28.0753  -31.8415   26.5354 H   0  0  0  0  0  0
  -28.2584  -38.0127   24.7544 H   0  0  0  0  0  0
  -28.1107  -36.2660   24.6204 H   0  0  0  0  0  0
  -27.2321  -37.1369   25.8858 H   0  0  0  0  0  0
  -20.9274  -29.8758   21.6984 H   0  0  0  0  0  0
  -26.0176  -38.2880   24.1462 H   0  0  0  0  0  0
  -31.8726  -17.1546   19.8883 H   0  0  0  0  0  0
  -31.9867  -18.3872   21.1038 H   0  0  0  0  0  0
  -27.9289  -17.4708   20.0690 H   0  0  0  0  0  0
  -29.0824  -16.4621   19.2322 H   0  0  0  0  0  0
  -32.2162  -16.0693   22.0732 H   0  0  0  0  0  0
  -30.8979  -16.9391   22.7848 H   0  0  0  0  0  0
  -28.1209  -15.3843   21.2979 H   0  0  0  0  0  0
  -28.7620  -16.6233   22.2678 H   0  0  0  0  0  0
  -29.6289  -18.7896   21.1105 H   0  0  0  0  0  0
  -31.0422  -23.9101   16.4306 H   0  0  0  0  0  0
  -31.6800  -22.4160   15.8353 H   0  0  0  0  0  0
  -32.6119  -23.3399   17.0117 H   0  0  0  0  0  0
  -32.5895  -20.5019   16.6175 H   0  0  0  0  0  0
  -31.0226  -19.9734   15.9889 H   0  0  0  0  0  0
  -31.8700  -19.0449   17.2285 H   0  0  0  0  0  0
  -30.6957  -23.1524   22.3830 H   0  0  0  0  0  0
  -29.7912  -21.6729   22.6804 H   0  0  0  0  0  0
  -29.1908  -23.2101   23.3000 H   0  0  0  0  0  0
  -26.9155  -22.7362   20.3262 H   0  0  0  0  0  0
  -26.9395  -23.0297   22.0622 H   0  0  0  0  0  0
  -27.3671  -21.4423   21.4336 H   0  0  0  0  0  0
  -31.2211  -24.9351   18.4567 H   0  0  0  0  0  0
  -30.4697  -24.9075   19.9841 H   0  0  0  0  0  0
  -28.1771  -24.6477   18.6731 H   0  0  0  0  0  0
  -29.1051  -25.0357   17.2537 H   0  0  0  0  0  0
  -28.2779  -27.1333   17.9239 H   0  0  0  0  0  0
  -29.8886  -27.1622   18.5808 H   0  0  0  0  0  0
  -28.8571  -24.0337   21.0033 H   0  0  0  0  0  0
  -30.5325  -18.3731   18.2860 H   0  0  0  0  0  0
  1 25  1  0  0  0
  1 30  2  0  0  0
  1 90  1  0  0  0
  2  3  1  0  0  0
  2 25  1  0  0  0
  2 92  1  0  0  0
  2 93  1  0  0  0
  3  4  1  0  0  0
  3 94  1  0  0  0
  3 95  1  0  0  0
  4  5  1  0  0  0
  4 96  1  0  0  0
  4 97  1  0  0  0
  5  6  1  0  0  0
  5 26  1  0  0  0
  5 98  1  0  0  0
  6 25  1  0  0  0
  6 99  1  0  0  0
  6100  1  0  0  0
  7  8  2  0  0  0
  7 26  1  0  0  0
  7 29  1  0  0  0
  8  9  1  0  0  0
  8 22  1  0  0  0
  9 10  1  0  0  0
  9 27  2  0  0  0
 10 11  2  0  0  0
 10 15  1  0  0  0
 11 12  1  0  0  0
 11101  1  0  0  0
 12 13  2  0  0  0
 12102  1  0  0  0
 13 14  1  0  0  0
 13 31  1  0  0  0
 14 15  2  0  0  0
 14103  1  0  0  0
 15104  1  0  0  0
 16 17  2  0  0  0
 16 21  1  0  0  0
 16 31  1  0  0  0
 17 18  1  0  0  0
 17105  1  0  0  0
 18 19  2  0  0  0
 18106  1  0  0  0
 19 20  1  0  0  0
 19 24  1  0  0  0
 20 21  2  0  0  0
 20107  1  0  0  0
 21 23  1  0  0  0
 22 28  1  0  0  0
 22 32  2  0  0  0
 26 27  1  0  0  0
 28108  1  0  0  0
 28109  1  0  0  0
 29110  1  0  0  0
 29111  1  0  0  0
 33 34  1  0  0  0
 33 66  1  0  0  0
 33 70  2  0  0  0
 34 36  1  0  0  0
 34 59  1  0  0  0
 34112  1  0  0  0
 35 44  2  0  0  0
 35 45  1  0  0  0
 35 68  1  0  0  0
 36 56  1  0  0  0
 36113  1  0  0  0
 37 39  1  0  0  0
 37 47  1  0  0  0
 37 66  1  0  0  0
 37114  1  0  0  0
 38 43  2  0  0  0
 38 46  1  0  0  0
 38 47  1  0  0  0
 39 64  1  0  0  0
 39 67  2  0  0  0
 40 52  1  0  0  0
 40 53  2  0  0  0
 40 58  1  0  0  0
 41115  1  0  0  0
 41116  1  0  0  0
 41117  1  0  0  0
 41 48  1  0  0  0
 42 43  1  0  0  0
 42 66  1  0  0  0
 42118  1  0  0  0
 42119  1  0  0  0
 43 44  1  0  0  0
 44120  1  0  0  0
 45 46  2  0  0  0
 45121  1  0  0  0
 46122  1  0  0  0
 47123  1  0  0  0
 47124  1  0  0  0
 48 56  1  0  0  0
 48 65  1  0  0  0
 48125  1  0  0  0
 49 50  1  0  0  0
 49 53  1  0  0  0
 49 64  1  0  0  0
 49126  1  0  0  0
 50 51  1  0  0  0
 50127  1  0  0  0
 50128  1  0  0  0
 51 52  1  0  0  0
 51129  1  0  0  0
 51130  1  0  0  0
 52131  1  0  0  0
 52132  1  0  0  0
 53 54  1  0  0  0
 54 55  2  0  0  0
 54133  1  0  0  0
 55 57  1  0  0  0
 55134  1  0  0  0
 56 69  2  0  0  0
 57 58  2  0  0  0
 57135  1  0  0  0
 58136  1  0  0  0
 59 60  1  0  0  0
 59 61  1  0  0  0
 59 62  1  0  0  0
 60137  1  0  0  0
 60138  1  0  0  0
 60139  1  0  0  0
 61140  1  0  0  0
 61141  1  0  0  0
 61142  1  0  0  0
 62143  1  0  0  0
 62144  1  0  0  0
 62145  1  0  0  0
 63 65  1  0  0  0
 63146  1  0  0  0
 63147  1  0  0  0
 63148  1  0  0  0
 64149  1  0  0  0
 65150  1  0  0  0
 68 87  1  0  0  0
 71 72  2  0  0  0
 71 73  1  0  0  0
 71 81  1  0  0  0
 72 74  1  0  0  0
 72 85  1  0  0  0
 73 75  2  0  0  0
 73 82  1  0  0  0
 74 88  1  0  0  0
 74 89  2  0  0  0
 75 89  1  0  0  0
 75 91  1  0  0  0
 76 78  1  0  0  0
 76 80  1  0  0  0
 76151  1  0  0  0
 76152  1  0  0  0
 77 79  1  0  0  0
 77 80  1  0  0  0
 77153  1  0  0  0
 77154  1  0  0  0
 78 90  1  0  0  0
 78155  1  0  0  0
 78156  1  0  0  0
 79 90  1  0  0  0
 79157  1  0  0  0
 79158  1  0  0  0
 80 91  1  0  0  0
 80159  1  0  0  0
 81160  1  0  0  0
 81161  1  0  0  0
 81162  1  0  0  0
 82163  1  0  0  0
 82164  1  0  0  0
 82165  1  0  0  0
 83166  1  0  0  0
 83167  1  0  0  0
 83168  1  0  0  0
 83 88  1  0  0  0
 84 88  1  0  0  0
 84169  1  0  0  0
 84170  1  0  0  0
 84171  1  0  0  0
 85 86  1  0  0  0
 85172  1  0  0  0
 85173  1  0  0  0
 86 87  1  0  0  0
 86174  1  0  0  0
 86175  1  0  0  0
 87176  1  0  0  0
 87177  1  0  0  0
 88178  1  0  0  0
 91179  1  0  0  0
M  ISO  4   1 100  68 101  87 101  90 100
M  END
> <chiral flag>
0

> <version>
0

> <s_m_source_file>
/data/baiqing/PycharmProjects/Reinvent-master-3.2/result/LINK_invent/BTK/process_docking_weight1_custom_sum_contain_oxygen_bond_distance_aromatic_linkinvent_7_9_3/rearranged_h_0160.sdf

> <i_m_source_file_index>
63

> <r_mmod_Potential_Energy-OPLS-2005>
-98.3803863525391

> <r_mmod_Stretch_Energy-OPLS-2005>
40.7049865722656

> <r_mmod_Bend_Energy-OPLS-2005>
130.370864868164

> <r_mmod_Torsional_Energy-OPLS-2005>
297.107788085938

> <r_mmod_Improper_Torsional_Energy-OPLS-2005>
7.10287189483643

> <r_mmod_Van_der_Waal_Energy-OPLS-2005>
186.187866210938

> <r_mmod_Electrostatic_Energy-OPLS-2005>
-554.281066894531

> <r_mmod_Solvation_Energy-OPLS-2005>
-216.039749145508

> <b_mmod_Minimization_Converged-OPLS-2005>
0

> <r_mmod_RMS_Derivative-OPLS-2005>
1.74368357658386

$$$$
63
                    3D
 Structure written by MMmdl.
167176  0  0  1  0            999 V2000
  -30.5789  -14.9402   20.4121 C   0  0  0  0  0  0
  -30.4291  -12.5960   19.4656 C   0  0  0  0  0  0
  -29.5057  -12.5417   18.2300 C   0  0  0  0  0  0
  -28.0394  -12.3306   18.6559 C   0  0  0  0  0  0
  -27.6266  -13.2488   19.8389 C   0  0  2  0  0  0
  -28.6842  -13.2452   20.9636 C   0  0  0  0  0  0
  -25.2434  -13.8210   20.5700 C   0  0  0  0  0  0
  -24.1764  -13.0432   20.9238 C   0  0  0  0  0  0
  -24.6392  -11.6921   20.8759 C   0  0  0  0  0  0
  -23.9080  -10.4292   21.0388 C   0  0  0  0  0  0
  -24.3632   -9.4212   21.9164 C   0  0  0  0  0  0
  -23.6310   -8.2245   22.0746 C   0  0  0  0  0  0
  -22.4281   -8.0277   21.3554 C   0  0  0  0  0  0
  -21.9920   -9.0241   20.4644 C   0  0  0  0  0  0
  -22.7251  -10.2122   20.3045 C   0  0  0  0  0  0
  -21.6857   -6.0738   22.5285 C   0  0  0  0  0  0
  -21.4020   -6.5641   23.8222 C   0  0  0  0  0  0
  -21.3668   -5.6790   24.9180 C   0  0  0  0  0  0
  -21.6038   -4.3051   24.7221 C   0  0  0  0  0  0
  -21.8821   -3.8149   23.4342 C   0  0  0  0  0  0
  -21.9196   -4.6966   22.3401 C   0  0  0  0  0  0
  -22.7782  -13.5197   21.1870 C   0  0  0  0  0  0
  -22.1662   -4.2157   21.0976 F   0  0  0  0  0  0
  -21.5627   -3.4529   25.7732 F   0  0  0  0  0  0
  -29.9350  -13.7002   20.3419 N   0  0  0  0  0  0
  -26.2881  -12.9458   20.3281 N   0  0  0  0  0  0
  -25.9332  -11.6582   20.5764 N   0  0  0  0  0  0
  -22.0428  -12.8203   22.0432 N   0  0  0  0  0  0
  -25.4017  -15.1930   20.4054 N   0  0  0  0  0  0
  -31.7937  -14.9068   20.1844 O   0  0  0  0  0  0
  -21.6649   -6.8872   21.4246 O   0  0  0  0  0  0
  -22.3459  -14.5488   20.6692 O   0  0  0  0  0  0
  -24.6425  -31.8451   23.1863 C   0  0  0  0  0  0
  -25.9197  -32.4695   23.8265 C   0  0  1  0  0  0
  -27.2230  -27.1441   20.1414 C   0  0  0  0  0  0
  -25.5956  -33.8498   24.2197 N   0  0  0  0  0  0
  -23.4444  -30.4621   21.5322 C   0  0  2  0  0  0
  -24.8936  -28.8866   20.1057 C   0  0  0  0  0  0
  -22.7562  -29.4531   22.4845 C   0  0  0  0  0  0
  -18.0304  -28.1405   22.8466 C   0  0  0  0  0  0
  -24.1488  -36.7251   23.2643 C   0  0  0  0  0  0
  -25.9977  -30.7174   21.3837 C   0  0  0  0  0  0
  -26.0683  -29.3281   20.7271 C   0  0  0  0  0  0
  -27.2274  -28.4700   20.7340 C   0  0  0  0  0  0
  -26.0237  -26.7987   19.4778 C   0  0  0  0  0  0
  -24.8840  -27.6362   19.4674 C   0  0  0  0  0  0
  -23.6703  -29.7904   20.1507 C   0  0  0  0  0  0
  -25.4118  -36.3019   24.0320 C   0  0  1  0  0  0
  -20.5910  -28.3723   23.1244 C   0  0  2  0  0  0
  -20.6793  -26.9424   22.5412 C   0  0  0  0  0  0
  -19.5759  -26.6380   21.5221 C   0  0  0  0  0  0
  -18.1941  -26.7938   22.1629 C   0  0  0  0  0  0
  -19.1559  -28.8883   23.2853 C   0  0  0  0  0  0
  -18.9478  -30.1485   23.8865 C   0  0  0  0  0  0
  -17.6473  -30.6597   24.0561 C   0  0  0  0  0  0
  -25.9071  -34.9400   23.5069 C   0  0  0  0  0  0
  -16.5366  -29.9088   23.6338 C   0  0  0  0  0  0
  -16.7291  -28.6521   23.0337 C   0  0  0  0  0  0
  -26.4530  -31.6536   25.0691 C   0  0  0  0  0  0
  -25.3730  -31.3722   26.1399 C   0  0  0  0  0  0
  -27.0399  -30.2933   24.6243 C   0  0  0  0  0  0
  -27.6063  -32.4295   25.7483 C   0  0  0  0  0  0
  -27.5574  -37.1785   24.8466 C   0  0  0  0  0  0
  -21.4249  -29.3047   22.3614 N   0  0  0  0  0  0
  -26.4281  -37.3739   23.9411 N   0  0  0  0  0  0
  -24.7144  -31.0300   22.0894 N   0  0  0  0  0  0
  -23.4216  -28.8082   23.2993 O   0  0  0  0  0  0
  -28.3068  -26.2022   20.2416 O   0  0  0  0  0  0
  -26.5659  -34.8897   22.4647 O   0  0  0  0  0  0
  -23.5547  -32.1325   23.7090 O   0  0  0  0  0  0
  -28.2145  -20.5990   20.6188 C   0  0  0  0  0  0
  -30.7942  -20.1645   19.7704 C   0  0  0  0  0  0
  -28.7260  -19.2314   20.4605 C   0  0  0  0  0  0
  -30.0297  -18.9755   20.0033 C   0  0  0  0  0  0
  -28.9696  -21.8176   20.3497 C   0  0  0  0  0  0
  -30.3066  -21.5186   19.9441 C   0  0  0  0  0  0
  -27.9196  -17.9497   20.7337 C   0  0  0  0  0  0
  -28.7290  -16.6403   21.1531 C   0  0  0  0  0  0
  -30.5672  -17.4741   19.7149 C   0  0  2  0  0  0
  -29.3477  -17.3007   17.4483 C   0  0  0  0  0  0
  -31.7351  -18.1225   17.4602 C   0  0  0  0  0  0
  -32.3733  -22.5673   20.4331 C   0  0  0  0  0  0
  -28.4718  -23.3521   20.7327 C   0  0  0  0  0  0
  -28.3474  -24.7180   19.7684 C   0  0  0  0  0  0
  -30.7031  -17.2284   18.1745 C   0  0  0  0  0  0
  -29.9073  -16.2163   20.3370 N   0  0  0  0  0  0
  -31.1394  -22.5881   19.7221 O   0  0  0  0  0  0
  -31.4596  -12.7490   19.1405 H   0  0  0  0  0  0
  -30.4284  -11.6412   19.9940 H   0  0  0  0  0  0
  -29.8190  -11.7473   17.5524 H   0  0  0  0  0  0
  -29.5911  -13.4736   17.6691 H   0  0  0  0  0  0
  -27.9283  -11.2847   18.9435 H   0  0  0  0  0  0
  -27.3728  -12.4814   17.8050 H   0  0  0  0  0  0
  -27.5906  -14.2578   19.4277 H   0  0  0  0  0  0
  -28.7928  -12.2437   21.3825 H   0  0  0  0  0  0
  -28.4024  -13.8711   21.8078 H   0  0  0  0  0  0
  -25.2765   -9.5697   22.4747 H   0  0  0  0  0  0
  -24.0019   -7.4641   22.7469 H   0  0  0  0  0  0
  -21.0853   -8.8761   19.8950 H   0  0  0  0  0  0
  -22.3696  -10.9660   19.6163 H   0  0  0  0  0  0
  -21.2016   -7.6151   23.9732 H   0  0  0  0  0  0
  -21.1489   -6.0515   25.9088 H   0  0  0  0  0  0
  -22.0590   -2.7610   23.2837 H   0  0  0  0  0  0
  -22.4066  -11.9901   22.4874 H   0  0  0  0  0  0
  -21.1034  -13.1213   22.2598 H   0  0  0  0  0  0
  -24.6217  -15.8334   20.5064 H   0  0  0  0  0  0
  -26.2371  -15.6349   20.0464 H   0  0  0  0  0  0
  -26.7259  -32.5295   23.0988 H   0  0  0  0  0  0
  -25.0082  -33.9610   25.0332 H   0  0  0  0  0  0
  -22.7465  -31.2879   21.3791 H   0  0  0  0  0  0
  -23.3755  -35.9586   23.3290 H   0  0  0  0  0  0
  -24.3566  -36.8894   22.2060 H   0  0  0  0  0  0
  -23.7256  -37.6452   23.6686 H   0  0  0  0  0  0
  -26.1540  -31.4674   20.6068 H   0  0  0  0  0  0
  -26.8698  -30.7695   22.0246 H   0  0  0  0  0  0
  -28.1199  -28.8008   21.2478 H   0  0  0  0  0  0
  -25.9235  -25.8441   18.9866 H   0  0  0  0  0  0
  -23.9868  -27.2963   18.9684 H   0  0  0  0  0  0
  -23.8104  -30.5670   19.3970 H   0  0  0  0  0  0
  -22.7835  -29.2370   19.8363 H   0  0  0  0  0  0
  -25.1312  -36.1841   25.0819 H   0  0  0  0  0  0
  -21.0023  -28.3309   24.1360 H   0  0  0  0  0  0
  -20.5699  -26.2331   23.3632 H   0  0  0  0  0  0
  -21.6658  -26.7434   22.1202 H   0  0  0  0  0  0
  -19.6914  -25.6287   21.1258 H   0  0  0  0  0  0
  -19.6696  -27.3195   20.6749 H   0  0  0  0  0  0
  -17.4220  -26.6688   21.4025 H   0  0  0  0  0  0
  -18.0328  -26.0100   22.9042 H   0  0  0  0  0  0
  -19.7959  -30.7311   24.2217 H   0  0  0  0  0  0
  -17.5031  -31.6264   24.5188 H   0  0  0  0  0  0
  -15.5371  -30.2987   23.7680 H   0  0  0  0  0  0
  -15.8689  -28.0844   22.7043 H   0  0  0  0  0  0
  -24.5911  -30.7057   25.7730 H   0  0  0  0  0  0
  -24.8919  -32.2905   26.4774 H   0  0  0  0  0  0
  -25.8025  -30.8934   27.0207 H   0  0  0  0  0  0
  -26.3008  -29.6647   24.1263 H   0  0  0  0  0  0
  -27.4050  -29.7221   25.4791 H   0  0  0  0  0  0
  -27.8893  -30.4188   23.9528 H   0  0  0  0  0  0
  -27.2664  -33.3616   26.2011 H   0  0  0  0  0  0
  -28.3907  -32.6824   25.0333 H   0  0  0  0  0  0
  -28.0700  -31.8455   26.5443 H   0  0  0  0  0  0
  -28.2588  -38.0081   24.7501 H   0  0  0  0  0  0
  -28.1070  -36.2614   24.6305 H   0  0  0  0  0  0
  -27.2290  -37.1447   25.8868 H   0  0  0  0  0  0
  -20.9465  -29.8762   21.6785 H   0  0  0  0  0  0
  -26.0135  -38.2807   24.1409 H   0  0  0  0  0  0
  -27.2075  -20.7112   20.9955 H   0  0  0  0  0  0
  -31.8063  -20.0274   19.4229 H   0  0  0  0  0  0
  -27.3502  -17.7320   19.8290 H   0  0  0  0  0  0
  -27.1769  -18.1677   21.5017 H   0  0  0  0  0  0
  -28.0027  -15.8370   21.2053 H   0  0  0  0  0  0
  -29.0945  -16.7766   22.1710 H   0  0  0  0  0  0
  -31.5771  -17.4827   20.1289 H   0  0  0  0  0  0
  -28.6214  -16.6137   17.8820 H   0  0  0  0  0  0
  -29.4541  -17.0406   16.3951 H   0  0  0  0  0  0
  -28.9208  -18.3040   17.4929 H   0  0  0  0  0  0
  -32.6867  -18.1424   17.9923 H   0  0  0  0  0  0
  -31.3830  -19.1470   17.3420 H   0  0  0  0  0  0
  -31.9397  -17.7447   16.4577 H   0  0  0  0  0  0
  -32.1960  -22.7184   21.4985 H   0  0  0  0  0  0
  -33.0103  -23.3812   20.0873 H   0  0  0  0  0  0
  -32.9394  -21.6445   20.3121 H   0  0  0  0  0  0
  -29.1408  -23.6390   21.5453 H   0  0  0  0  0  0
  -27.5009  -23.2373   21.2148 H   0  0  0  0  0  0
  -27.5615  -24.5336   19.0409 H   0  0  0  0  0  0
  -29.2531  -24.7013   19.1623 H   0  0  0  0  0  0
  -31.0764  -16.2150   18.0240 H   0  0  0  0  0  0
  1 25  1  0  0  0
  1 30  2  0  0  0
  1 86  1  0  0  0
  2  3  1  0  0  0
  2 25  1  0  0  0
  2 88  1  0  0  0
  2 89  1  0  0  0
  3  4  1  0  0  0
  3 90  1  0  0  0
  3 91  1  0  0  0
  4  5  1  0  0  0
  4 92  1  0  0  0
  4 93  1  0  0  0
  5  6  1  0  0  0
  5 26  1  0  0  0
  5 94  1  0  0  0
  6 25  1  0  0  0
  6 95  1  0  0  0
  6 96  1  0  0  0
  7  8  2  0  0  0
  7 26  1  0  0  0
  7 29  1  0  0  0
  8  9  1  0  0  0
  8 22  1  0  0  0
  9 10  1  0  0  0
  9 27  2  0  0  0
 10 11  2  0  0  0
 10 15  1  0  0  0
 11 12  1  0  0  0
 11 97  1  0  0  0
 12 13  2  0  0  0
 12 98  1  0  0  0
 13 14  1  0  0  0
 13 31  1  0  0  0
 14 15  2  0  0  0
 14 99  1  0  0  0
 15100  1  0  0  0
 16 17  2  0  0  0
 16 21  1  0  0  0
 16 31  1  0  0  0
 17 18  1  0  0  0
 17101  1  0  0  0
 18 19  2  0  0  0
 18102  1  0  0  0
 19 20  1  0  0  0
 19 24  1  0  0  0
 20 21  2  0  0  0
 20103  1  0  0  0
 21 23  1  0  0  0
 22 28  1  0  0  0
 22 32  2  0  0  0
 26 27  1  0  0  0
 28104  1  0  0  0
 28105  1  0  0  0
 29106  1  0  0  0
 29107  1  0  0  0
 33 34  1  0  0  0
 33 66  1  0  0  0
 33 70  2  0  0  0
 34 36  1  0  0  0
 34 59  1  0  0  0
 34108  1  0  0  0
 35 44  2  0  0  0
 35 45  1  0  0  0
 35 68  1  0  0  0
 36 56  1  0  0  0
 36109  1  0  0  0
 37 39  1  0  0  0
 37 47  1  0  0  0
 37 66  1  0  0  0
 37110  1  0  0  0
 38 43  2  0  0  0
 38 46  1  0  0  0
 38 47  1  0  0  0
 39 64  1  0  0  0
 39 67  2  0  0  0
 40 52  1  0  0  0
 40 53  2  0  0  0
 40 58  1  0  0  0
 41111  1  0  0  0
 41112  1  0  0  0
 41113  1  0  0  0
 41 48  1  0  0  0
 42 43  1  0  0  0
 42 66  1  0  0  0
 42114  1  0  0  0
 42115  1  0  0  0
 43 44  1  0  0  0
 44116  1  0  0  0
 45 46  2  0  0  0
 45117  1  0  0  0
 46118  1  0  0  0
 47119  1  0  0  0
 47120  1  0  0  0
 48 56  1  0  0  0
 48 65  1  0  0  0
 48121  1  0  0  0
 49 50  1  0  0  0
 49 53  1  0  0  0
 49 64  1  0  0  0
 49122  1  0  0  0
 50 51  1  0  0  0
 50123  1  0  0  0
 50124  1  0  0  0
 51 52  1  0  0  0
 51125  1  0  0  0
 51126  1  0  0  0
 52127  1  0  0  0
 52128  1  0  0  0
 53 54  1  0  0  0
 54 55  2  0  0  0
 54129  1  0  0  0
 55 57  1  0  0  0
 55130  1  0  0  0
 56 69  2  0  0  0
 57 58  2  0  0  0
 57131  1  0  0  0
 58132  1  0  0  0
 59 60  1  0  0  0
 59 61  1  0  0  0
 59 62  1  0  0  0
 60133  1  0  0  0
 60134  1  0  0  0
 60135  1  0  0  0
 61136  1  0  0  0
 61137  1  0  0  0
 61138  1  0  0  0
 62139  1  0  0  0
 62140  1  0  0  0
 62141  1  0  0  0
 63 65  1  0  0  0
 63142  1  0  0  0
 63143  1  0  0  0
 63144  1  0  0  0
 64145  1  0  0  0
 65146  1  0  0  0
 68 84  1  0  0  0
 71 73  2  0  0  0
 71 75  1  0  0  0
 71147  1  0  0  0
 72 74  2  0  0  0
 72 76  1  0  0  0
 72148  1  0  0  0
 73 74  1  0  0  0
 73 77  1  0  0  0
 74 79  1  0  0  0
 75 76  2  0  0  0
 75 83  1  0  0  0
 76 87  1  0  0  0
 77 78  1  0  0  0
 77149  1  0  0  0
 77150  1  0  0  0
 78 86  1  0  0  0
 78151  1  0  0  0
 78152  1  0  0  0
 79 85  1  0  0  0
 79 86  1  0  0  0
 79153  1  0  0  0
 80154  1  0  0  0
 80155  1  0  0  0
 80156  1  0  0  0
 80 85  1  0  0  0
 81 85  1  0  0  0
 81157  1  0  0  0
 81158  1  0  0  0
 81159  1  0  0  0
 82 87  1  0  0  0
 82160  1  0  0  0
 82161  1  0  0  0
 82162  1  0  0  0
 83 84  1  0  0  0
 83163  1  0  0  0
 83164  1  0  0  0
 84165  1  0  0  0
 84166  1  0  0  0
 85167  1  0  0  0
M  ISO  4   1 100  68 101  84 101  86 100
M  END
> <chiral flag>
0

> <version>
0

> <s_m_source_file>
/data/baiqing/PycharmProjects/Reinvent-master-3.2/result/LINK_invent/BTK/process_docking_weight1_custom_sum_contain_oxygen_bond_distance_aromatic_linkinvent_7_9_3/rearranged_h_0160.sdf

> <i_m_source_file_index>
64

> <r_mmod_Potential_Energy-OPLS-2005>
620.999267578125

> <r_mmod_Stretch_Energy-OPLS-2005>
235.398956298828

> <r_mmod_Bend_Energy-OPLS-2005>
279.063293457031

> <r_mmod_Torsional_Energy-OPLS-2005>
309.955047607422

> <r_mmod_Improper_Torsional_Energy-OPLS-2005>
13.647928237915

> <r_mmod_Van_der_Waal_Energy-OPLS-2005>
134.808975219727

> <r_mmod_Electrostatic_Energy-OPLS-2005>
-332.141418457031

> <r_mmod_Solvation_Energy-OPLS-2005>
-197.58415222168

> <b_mmod_Minimization_Converged-OPLS-2005>
0

> <r_mmod_RMS_Derivative-OPLS-2005>
2.29910492897034

$$$$
64
                    3D
 Structure written by MMmdl.
165174  0  0  1  0            999 V2000
  -30.6607  -14.5457   20.5450 C   0  0  0  0  0  0
  -30.4314  -12.3479   19.4266 C   0  0  0  0  0  0
  -29.4971  -12.5003   18.2078 C   0  0  0  0  0  0
  -28.0202  -12.3482   18.6250 C   0  0  0  0  0  0
  -27.6553  -13.2074   19.8651 C   0  0  2  0  0  0
  -28.6997  -13.0232   20.9878 C   0  0  0  0  0  0
  -25.2576  -13.8157   20.5678 C   0  0  0  0  0  0
  -24.1833  -13.0434   20.9185 C   0  0  0  0  0  0
  -24.6388  -11.6900   20.8741 C   0  0  0  0  0  0
  -23.9058  -10.4289   21.0413 C   0  0  0  0  0  0
  -24.3611   -9.4203   21.9188 C   0  0  0  0  0  0
  -23.6287   -8.2239   22.0756 C   0  0  0  0  0  0
  -22.4271   -8.0279   21.3545 C   0  0  0  0  0  0
  -21.9906   -9.0252   20.4647 C   0  0  0  0  0  0
  -22.7234  -10.2131   20.3058 C   0  0  0  0  0  0
  -21.6849   -6.0734   22.5279 C   0  0  0  0  0  0
  -21.4011   -6.5638   23.8214 C   0  0  0  0  0  0
  -21.3659   -5.6792   24.9177 C   0  0  0  0  0  0
  -21.6044   -4.3055   24.7227 C   0  0  0  0  0  0
  -21.8819   -3.8147   23.4349 C   0  0  0  0  0  0
  -21.9191   -4.6962   22.3403 C   0  0  0  0  0  0
  -22.7857  -13.5234   21.1850 C   0  0  0  0  0  0
  -22.1660   -4.2148   21.0981 F   0  0  0  0  0  0
  -21.5630   -3.4540   25.7741 F   0  0  0  0  0  0
  -30.0190  -13.3490   20.4237 N   0  0  0  0  0  0
  -26.2995  -12.9319   20.3324 N   0  0  0  0  0  0
  -25.9309  -11.6484   20.5757 N   0  0  0  0  0  0
  -22.0498  -12.8226   22.0405 N   0  0  0  0  0  0
  -25.4308  -15.1876   20.4091 N   0  0  0  0  0  0
  -31.8196  -14.7185   20.1587 O   0  0  0  0  0  0
  -21.6635   -6.8876   21.4242 O   0  0  0  0  0  0
  -22.3549  -14.5546   20.6705 O   0  0  0  0  0  0
  -24.6182  -31.8644   23.2061 C   0  0  0  0  0  0
  -25.9060  -32.4799   23.8375 C   0  0  1  0  0  0
  -27.2351  -27.3926   20.1137 C   0  0  0  0  0  0
  -25.5903  -33.8600   24.2305 N   0  0  0  0  0  0
  -23.4086  -30.4856   21.5473 C   0  0  2  0  0  0
  -24.8564  -28.9402   20.1197 C   0  0  0  0  0  0
  -22.7427  -29.4642   22.4977 C   0  0  0  0  0  0
  -18.0270  -28.1379   22.8492 C   0  0  0  0  0  0
  -24.1485  -36.7303   23.2642 C   0  0  0  0  0  0
  -25.9403  -30.8188   21.3631 C   0  0  0  0  0  0
  -26.0188  -29.4478   20.7140 C   0  0  0  0  0  0
  -27.2135  -28.6852   20.6988 C   0  0  0  0  0  0
  -26.0541  -26.9044   19.5165 C   0  0  0  0  0  0
  -24.8711  -27.6700   19.5157 C   0  0  0  0  0  0
  -23.6200  -29.8123   20.1644 C   0  0  0  0  0  0
  -25.4108  -36.3098   24.0336 C   0  0  1  0  0  0
  -20.5864  -28.3674   23.1306 C   0  0  2  0  0  0
  -20.6759  -26.9406   22.5419 C   0  0  0  0  0  0
  -19.5738  -26.6380   21.5217 C   0  0  0  0  0  0
  -18.1915  -26.7924   22.1625 C   0  0  0  0  0  0
  -19.1522  -28.8843   23.2890 C   0  0  0  0  0  0
  -18.9453  -30.1448   23.8904 C   0  0  0  0  0  0
  -17.6458  -30.6590   24.0565 C   0  0  0  0  0  0
  -25.9041  -34.9464   23.5120 C   0  0  0  0  0  0
  -16.5346  -29.9094   23.6332 C   0  0  0  0  0  0
  -16.7261  -28.6507   23.0357 C   0  0  0  0  0  0
  -26.4483  -31.6592   25.0719 C   0  0  0  0  0  0
  -25.3744  -31.3699   26.1465 C   0  0  0  0  0  0
  -27.0329  -30.3037   24.6113 C   0  0  0  0  0  0
  -27.6050  -32.4325   25.7480 C   0  0  0  0  0  0
  -27.5577  -37.1800   24.8464 C   0  0  0  0  0  0
  -21.4149  -29.3036   22.3713 N   0  0  0  0  0  0
  -26.4287  -37.3788   23.9415 N   0  0  0  0  0  0
  -24.6741  -31.0718   22.0969 N   0  0  0  0  0  0
  -23.4178  -28.8185   23.3035 O   0  0  0  0  0  0
  -28.4002  -26.6446   20.0747 O   0  0  0  0  0  0
  -26.5608  -34.8919   22.4686 O   0  0  0  0  0  0
  -23.5366  -32.1409   23.7434 O   0  0  0  0  0  0
  -30.9136  -18.0283   19.1248 C   0  0  0  0  0  0
  -29.3778  -20.3014   19.4941 C   0  0  0  0  0  0
  -30.1338  -18.1045   20.3015 C   0  0  0  0  0  0
  -29.3318  -19.2844   20.4978 C   0  0  0  0  0  0
  -30.1728  -20.0666   18.3743 C   0  0  0  0  0  0
  -30.0138  -21.1243   17.3233 C   0  0  0  0  0  0
  -28.7340  -21.8545   17.7650 C   0  0  0  0  0  0
  -28.5448  -21.6017   19.2947 C   0  0  2  0  0  0
  -28.4497  -19.4375   21.7251 C   0  0  0  0  0  0
  -29.5846  -25.3506   21.6510 C   0  0  0  0  0  0
  -30.2941  -16.9607   21.3424 C   0  0  0  0  0  0
  -28.5235  -24.1654   19.6174 C   0  0  0  0  0  0
  -28.4014  -25.3189   20.6741 C   0  0  2  0  0  0
  -30.9364  -18.9799   18.1672 N   0  0  0  0  0  0
  -29.8922  -15.5802   20.9684 N   0  0  0  0  0  0
  -28.9198  -22.7979   20.1340 N   0  3  0  0  0  0
  -31.4731  -12.4684   19.1233 H   0  0  0  0  0  0
  -30.3556  -11.3442   19.8477 H   0  0  0  0  0  0
  -29.7472  -11.7599   17.4468 H   0  0  0  0  0  0
  -29.6491  -13.4770   17.7455 H   0  0  0  0  0  0
  -27.8483  -11.2937   18.8449 H   0  0  0  0  0  0
  -27.3639  -12.5935   17.7894 H   0  0  0  0  0  0
  -27.6866  -14.2483   19.5427 H   0  0  0  0  0  0
  -28.6954  -11.9931   21.3475 H   0  0  0  0  0  0
  -28.4567  -13.6382   21.8555 H   0  0  0  0  0  0
  -25.2757   -9.5678   22.4763 H   0  0  0  0  0  0
  -23.9995   -7.4632   22.7478 H   0  0  0  0  0  0
  -21.0838   -8.8772   19.8954 H   0  0  0  0  0  0
  -22.3695  -10.9672   19.6168 H   0  0  0  0  0  0
  -21.2003   -7.6146   23.9716 H   0  0  0  0  0  0
  -21.1481   -6.0523   25.9079 H   0  0  0  0  0  0
  -22.0598   -2.7608   23.2851 H   0  0  0  0  0  0
  -22.4107  -11.9878   22.4780 H   0  0  0  0  0  0
  -21.1121  -13.1259   22.2622 H   0  0  0  0  0  0
  -24.6636  -15.8425   20.5150 H   0  0  0  0  0  0
  -26.2785  -15.6245   20.0702 H   0  0  0  0  0  0
  -26.7130  -32.5507   23.1134 H   0  0  0  0  0  0
  -25.0058  -33.9755   25.0454 H   0  0  0  0  0  0
  -22.6992  -31.3030   21.4025 H   0  0  0  0  0  0
  -23.3750  -35.9634   23.3302 H   0  0  0  0  0  0
  -24.3576  -36.8930   22.2058 H   0  0  0  0  0  0
  -23.7233  -37.6500   23.6668 H   0  0  0  0  0  0
  -26.0560  -31.5816   20.5918 H   0  0  0  0  0  0
  -26.8259  -30.8742   21.9843 H   0  0  0  0  0  0
  -28.1150  -29.0783   21.1483 H   0  0  0  0  0  0
  -26.0476  -25.9353   19.0393 H   0  0  0  0  0  0
  -23.9782  -27.2756   19.0500 H   0  0  0  0  0  0
  -23.7301  -30.5840   19.4016 H   0  0  0  0  0  0
  -22.7429  -29.2330   19.8707 H   0  0  0  0  0  0
  -25.1283  -36.1955   25.0828 H   0  0  0  0  0  0
  -20.9947  -28.3248   24.1429 H   0  0  0  0  0  0
  -20.5665  -26.2286   23.3612 H   0  0  0  0  0  0
  -21.6630  -26.7442   22.1212 H   0  0  0  0  0  0
  -19.6906  -25.6291   21.1246 H   0  0  0  0  0  0
  -19.6681  -27.3189   20.6745 H   0  0  0  0  0  0
  -17.4186  -26.6675   21.4024 H   0  0  0  0  0  0
  -18.0307  -26.0059   22.9013 H   0  0  0  0  0  0
  -19.7933  -30.7255   24.2279 H   0  0  0  0  0  0
  -17.5020  -31.6273   24.5160 H   0  0  0  0  0  0
  -15.5352  -30.3004   23.7656 H   0  0  0  0  0  0
  -15.8653  -28.0834   22.7076 H   0  0  0  0  0  0
  -24.5911  -30.7051   25.7802 H   0  0  0  0  0  0
  -24.8936  -32.2851   26.4933 H   0  0  0  0  0  0
  -25.8091  -30.8856   27.0217 H   0  0  0  0  0  0
  -26.2883  -29.6776   24.1180 H   0  0  0  0  0  0
  -27.4116  -29.7296   25.4579 H   0  0  0  0  0  0
  -27.8706  -30.4362   23.9259 H   0  0  0  0  0  0
  -27.2671  -33.3629   26.2059 H   0  0  0  0  0  0
  -28.3855  -32.6883   25.0301 H   0  0  0  0  0  0
  -28.0723  -31.8451   26.5395 H   0  0  0  0  0  0
  -28.2588  -38.0103   24.7530 H   0  0  0  0  0  0
  -28.1077  -36.2635   24.6269 H   0  0  0  0  0  0
  -27.2295  -37.1426   25.8866 H   0  0  0  0  0  0
  -20.9316  -29.8764   21.6934 H   0  0  0  0  0  0
  -26.0172  -38.2863   24.1426 H   0  0  0  0  0  0
  -31.5528  -17.1763   18.9473 H   0  0  0  0  0  0
  -29.9270  -20.7013   16.3220 H   0  0  0  0  0  0
  -30.8781  -21.7887   17.3489 H   0  0  0  0  0  0
  -27.9066  -21.3487   17.2655 H   0  0  0  0  0  0
  -28.6882  -22.8818   17.4109 H   0  0  0  0  0  0
  -27.4911  -21.3881   19.4832 H   0  0  0  0  0  0
  -27.7950  -20.3048   21.6573 H   0  0  0  0  0  0
  -29.0609  -19.5497   22.6208 H   0  0  0  0  0  0
  -27.8136  -18.5608   21.8502 H   0  0  0  0  0  0
  -29.6484  -24.4396   22.2443 H   0  0  0  0  0  0
  -29.4820  -26.1812   22.3496 H   0  0  0  0  0  0
  -30.5293  -25.4797   21.1226 H   0  0  0  0  0  0
  -29.7561  -17.2099   22.2559 H   0  0  0  0  0  0
  -31.3441  -16.9439   21.6411 H   0  0  0  0  0  0
  -29.2603  -24.4698   18.8733 H   0  0  0  0  0  0
  -27.5679  -24.0893   19.0984 H   0  0  0  0  0  0
  -27.4910  -25.1687   21.2580 H   0  0  0  0  0  0
  -28.9416  -15.3291   21.1949 H   0  0  0  0  0  0
  -29.9173  -22.7933   20.2783 H   0  0  0  0  0  0
  -28.4937  -22.6640   21.0380 H   0  0  0  0  0  0
  1 25  1  0  0  0
  1 30  2  0  0  0
  1 85  1  0  0  0
  2  3  1  0  0  0
  2 25  1  0  0  0
  2 87  1  0  0  0
  2 88  1  0  0  0
  3  4  1  0  0  0
  3 89  1  0  0  0
  3 90  1  0  0  0
  4  5  1  0  0  0
  4 91  1  0  0  0
  4 92  1  0  0  0
  5  6  1  0  0  0
  5 26  1  0  0  0
  5 93  1  0  0  0
  6 25  1  0  0  0
  6 94  1  0  0  0
  6 95  1  0  0  0
  7  8  2  0  0  0
  7 26  1  0  0  0
  7 29  1  0  0  0
  8  9  1  0  0  0
  8 22  1  0  0  0
  9 10  1  0  0  0
  9 27  2  0  0  0
 10 11  2  0  0  0
 10 15  1  0  0  0
 11 12  1  0  0  0
 11 96  1  0  0  0
 12 13  2  0  0  0
 12 97  1  0  0  0
 13 14  1  0  0  0
 13 31  1  0  0  0
 14 15  2  0  0  0
 14 98  1  0  0  0
 15 99  1  0  0  0
 16 17  2  0  0  0
 16 21  1  0  0  0
 16 31  1  0  0  0
 17 18  1  0  0  0
 17100  1  0  0  0
 18 19  2  0  0  0
 18101  1  0  0  0
 19 20  1  0  0  0
 19 24  1  0  0  0
 20 21  2  0  0  0
 20102  1  0  0  0
 21 23  1  0  0  0
 22 28  1  0  0  0
 22 32  2  0  0  0
 26 27  1  0  0  0
 28103  1  0  0  0
 28104  1  0  0  0
 29105  1  0  0  0
 29106  1  0  0  0
 33 34  1  0  0  0
 33 66  1  0  0  0
 33 70  2  0  0  0
 34 36  1  0  0  0
 34 59  1  0  0  0
 34107  1  0  0  0
 35 44  2  0  0  0
 35 45  1  0  0  0
 35 68  1  0  0  0
 36 56  1  0  0  0
 36108  1  0  0  0
 37 39  1  0  0  0
 37 47  1  0  0  0
 37 66  1  0  0  0
 37109  1  0  0  0
 38 43  2  0  0  0
 38 46  1  0  0  0
 38 47  1  0  0  0
 39 64  1  0  0  0
 39 67  2  0  0  0
 40 52  1  0  0  0
 40 53  2  0  0  0
 40 58  1  0  0  0
 41110  1  0  0  0
 41111  1  0  0  0
 41112  1  0  0  0
 41 48  1  0  0  0
 42 43  1  0  0  0
 42 66  1  0  0  0
 42113  1  0  0  0
 42114  1  0  0  0
 43 44  1  0  0  0
 44115  1  0  0  0
 45 46  2  0  0  0
 45116  1  0  0  0
 46117  1  0  0  0
 47118  1  0  0  0
 47119  1  0  0  0
 48 56  1  0  0  0
 48 65  1  0  0  0
 48120  1  0  0  0
 49 50  1  0  0  0
 49 53  1  0  0  0
 49 64  1  0  0  0
 49121  1  0  0  0
 50 51  1  0  0  0
 50122  1  0  0  0
 50123  1  0  0  0
 51 52  1  0  0  0
 51124  1  0  0  0
 51125  1  0  0  0
 52126  1  0  0  0
 52127  1  0  0  0
 53 54  1  0  0  0
 54 55  2  0  0  0
 54128  1  0  0  0
 55 57  1  0  0  0
 55129  1  0  0  0
 56 69  2  0  0  0
 57 58  2  0  0  0
 57130  1  0  0  0
 58131  1  0  0  0
 59 60  1  0  0  0
 59 61  1  0  0  0
 59 62  1  0  0  0
 60132  1  0  0  0
 60133  1  0  0  0
 60134  1  0  0  0
 61135  1  0  0  0
 61136  1  0  0  0
 61137  1  0  0  0
 62138  1  0  0  0
 62139  1  0  0  0
 62140  1  0  0  0
 63 65  1  0  0  0
 63141  1  0  0  0
 63142  1  0  0  0
 63143  1  0  0  0
 64144  1  0  0  0
 65145  1  0  0  0
 68 83  1  0  0  0
 71 73  2  0  0  0
 71 84  1  0  0  0
 71146  1  0  0  0
 72 74  2  0  0  0
 72 75  1  0  0  0
 72 78  1  0  0  0
 73 74  1  0  0  0
 73 81  1  0  0  0
 74 79  1  0  0  0
 75 76  1  0  0  0
 75 84  2  0  0  0
 76 77  1  0  0  0
 76147  1  0  0  0
 76148  1  0  0  0
 77 78  1  0  0  0
 77149  1  0  0  0
 77150  1  0  0  0
 78 86  1  0  0  0
 78151  1  0  0  0
 79152  1  0  0  0
 79153  1  0  0  0
 79154  1  0  0  0
 80155  1  0  0  0
 80156  1  0  0  0
 80157  1  0  0  0
 80 83  1  0  0  0
 81 85  1  0  0  0
 81158  1  0  0  0
 81159  1  0  0  0
 82 83  1  0  0  0
 82 86  1  0  0  0
 82160  1  0  0  0
 82161  1  0  0  0
 83162  1  0  0  0
 85163  1  0  0  0
 86164  1  0  0  0
 86165  1  0  0  0
M  CHG  1  86   1
M  ISO  4   1 100  68 101  83 101  85 100
M  END
> <chiral flag>
0

> <version>
0

> <s_m_source_file>
/data/baiqing/PycharmProjects/Reinvent-master-3.2/result/LINK_invent/BTK/process_docking_weight1_custom_sum_contain_oxygen_bond_distance_aromatic_linkinvent_7_9_3/rearranged_h_0160.sdf

> <i_m_source_file_index>
65

> <r_mmod_Potential_Energy-OPLS-2005>
-222.733779907227

> <r_mmod_Stretch_Energy-OPLS-2005>
56.4752502441406

> <r_mmod_Bend_Energy-OPLS-2005>
168.151214599609

> <r_mmod_Torsional_Energy-OPLS-2005>
244.768035888672

> <r_mmod_Improper_Torsional_Energy-OPLS-2005>
5.11536598205566

> <r_mmod_Van_der_Waal_Energy-OPLS-2005>
140.69677734375

> <r_mmod_Electrostatic_Energy-OPLS-2005>
-387.319732666016

> <r_mmod_Solvation_Energy-OPLS-2005>
-472.590270996094

> <b_mmod_Minimization_Converged-OPLS-2005>
0

> <r_mmod_RMS_Derivative-OPLS-2005>
0.636194467544556

$$$$
65
                    3D
 Structure written by MMmdl.
165175  0  0  1  0            999 V2000
  -30.5556  -14.9006   20.4118 C   0  0  0  0  0  0
  -30.4407  -12.5513   19.4877 C   0  0  0  0  0  0
  -29.5179  -12.5172   18.2472 C   0  0  0  0  0  0
  -28.0492  -12.3166   18.6665 C   0  0  0  0  0  0
  -27.6338  -13.2435   19.8391 C   0  0  2  0  0  0
  -28.6795  -13.2478   20.9749 C   0  0  0  0  0  0
  -25.2486  -13.8208   20.5705 C   0  0  0  0  0  0
  -24.1797  -13.0438   20.9234 C   0  0  0  0  0  0
  -24.6402  -11.6916   20.8761 C   0  0  0  0  0  0
  -23.9083  -10.4293   21.0412 C   0  0  0  0  0  0
  -24.3634   -9.4205   21.9186 C   0  0  0  0  0  0
  -23.6302   -8.2240   22.0754 C   0  0  0  0  0  0
  -22.4282   -8.0279   21.3544 C   0  0  0  0  0  0
  -21.9920   -9.0258   20.4651 C   0  0  0  0  0  0
  -22.7256  -10.2135   20.3062 C   0  0  0  0  0  0
  -21.6855   -6.0741   22.5281 C   0  0  0  0  0  0
  -21.4013   -6.5642   23.8216 C   0  0  0  0  0  0
  -21.3656   -5.6793   24.9175 C   0  0  0  0  0  0
  -21.6039   -4.3056   24.7223 C   0  0  0  0  0  0
  -21.8818   -3.8148   23.4342 C   0  0  0  0  0  0
  -21.9194   -4.6970   22.3401 C   0  0  0  0  0  0
  -22.7818  -13.5212   21.1881 C   0  0  0  0  0  0
  -22.1663   -4.2157   21.0981 F   0  0  0  0  0  0
  -21.5628   -3.4538   25.7734 F   0  0  0  0  0  0
  -29.9614  -13.6438   20.3778 N   0  0  0  0  0  0
  -26.2913  -12.9431   20.3255 N   0  0  0  0  0  0
  -25.9335  -11.6566   20.5741 N   0  0  0  0  0  0
  -22.0474  -12.8195   22.0438 N   0  0  0  0  0  0
  -25.4136  -15.1931   20.4094 N   0  0  0  0  0  0
  -31.7599  -14.9706   20.1424 O   0  0  0  0  0  0
  -21.6641   -6.8878   21.4241 O   0  0  0  0  0  0
  -22.3502  -14.5514   20.6728 O   0  0  0  0  0  0
  -24.6383  -31.8465   23.1888 C   0  0  0  0  0  0
  -25.9165  -32.4712   23.8276 C   0  0  1  0  0  0
  -27.2261  -27.1731   20.1533 C   0  0  0  0  0  0
  -25.5942  -33.8519   24.2199 N   0  0  0  0  0  0
  -23.4412  -30.4640   21.5331 C   0  0  2  0  0  0
  -24.8909  -28.8883   20.1144 C   0  0  0  0  0  0
  -22.7539  -29.4561   22.4878 C   0  0  0  0  0  0
  -18.0305  -28.1401   22.8494 C   0  0  0  0  0  0
  -24.1485  -36.7244   23.2643 C   0  0  0  0  0  0
  -25.9927  -30.7320   21.3806 C   0  0  0  0  0  0
  -26.0657  -29.3453   20.7240 C   0  0  0  0  0  0
  -27.2358  -28.5056   20.7201 C   0  0  0  0  0  0
  -26.0233  -26.7949   19.5231 C   0  0  0  0  0  0
  -24.8794  -27.6249   19.4992 C   0  0  0  0  0  0
  -23.6658  -29.7866   20.1542 C   0  0  0  0  0  0
  -25.4121  -36.3040   24.0322 C   0  0  1  0  0  0
  -20.5914  -28.3711   23.1260 C   0  0  2  0  0  0
  -20.6793  -26.9419   22.5420 C   0  0  0  0  0  0
  -19.5766  -26.6384   21.5227 C   0  0  0  0  0  0
  -18.1943  -26.7946   22.1622 C   0  0  0  0  0  0
  -19.1563  -28.8875   23.2872 C   0  0  0  0  0  0
  -18.9478  -30.1479   23.8883 C   0  0  0  0  0  0
  -17.6478  -30.6601   24.0570 C   0  0  0  0  0  0
  -25.9071  -34.9418   23.5064 C   0  0  0  0  0  0
  -16.5366  -29.9093   23.6344 C   0  0  0  0  0  0
  -16.7289  -28.6513   23.0364 C   0  0  0  0  0  0
  -26.4496  -31.6580   25.0706 C   0  0  0  0  0  0
  -25.3698  -31.3802   26.1427 C   0  0  0  0  0  0
  -27.0326  -30.2968   24.6269 C   0  0  0  0  0  0
  -27.6056  -32.4324   25.7468 C   0  0  0  0  0  0
  -27.5578  -37.1774   24.8466 C   0  0  0  0  0  0
  -21.4241  -29.3042   22.3625 N   0  0  0  0  0  0
  -26.4282  -37.3751   23.9422 N   0  0  0  0  0  0
  -24.7103  -31.0357   22.0895 N   0  0  0  0  0  0
  -23.4208  -28.8125   23.3021 O   0  0  0  0  0  0
  -28.3235  -26.2524   20.1849 O   0  0  0  0  0  0
  -26.5657  -34.8912   22.4637 O   0  0  0  0  0  0
  -23.5510  -32.1314   23.7137 O   0  0  0  0  0  0
  -31.2321  -18.1403   20.2389 C   0  0  0  0  0  0
  -29.0752  -18.7143   20.4189 C   0  0  0  0  0  0
  -30.0084  -17.5595   20.4007 C   0  0  0  0  0  0
  -29.7484  -19.9554   20.2405 C   0  0  0  0  0  0
  -29.3196  -22.4542   21.4457 C   0  0  0  0  0  0
  -28.2064  -22.1598   19.3009 C   0  0  0  0  0  0
  -32.3666  -21.0349   18.5555 C   0  0  0  0  0  0
  -33.2987  -19.9189   18.9552 C   0  0  0  0  0  0
  -29.3141  -24.0520   21.2371 C   0  0  0  0  0  0
  -28.1870  -23.7672   19.0823 C   0  0  0  0  0  0
  -29.4029  -21.5670   20.1469 C   0  0  2  0  0  0
  -32.2460  -20.4135   19.9322 C   0  0  0  0  0  0
  -28.1802  -24.7207   20.3533 C   0  0  2  0  0  0
  -27.5878  -18.5975   20.6030 C   0  0  0  0  0  0
  -31.0921  -19.5337   20.1114 N   0  0  0  0  0  0
  -29.7518  -16.0620   20.5404 N   0  0  0  0  0  0
  -31.4758  -12.7017   19.1763 H   0  0  0  0  0  0
  -30.4238  -11.5930   20.0100 H   0  0  0  0  0  0
  -29.8243  -11.7206   17.5686 H   0  0  0  0  0  0
  -29.6173  -13.4488   17.6884 H   0  0  0  0  0  0
  -27.9338  -11.2736   18.9650 H   0  0  0  0  0  0
  -27.3852  -12.4625   17.8132 H   0  0  0  0  0  0
  -27.6043  -14.2498   19.4207 H   0  0  0  0  0  0
  -28.7544  -12.2674   21.4462 H   0  0  0  0  0  0
  -28.3904  -13.9476   21.7603 H   0  0  0  0  0  0
  -25.2780   -9.5680   22.4756 H   0  0  0  0  0  0
  -24.0017   -7.4627   22.7465 H   0  0  0  0  0  0
  -21.0855   -8.8772   19.8956 H   0  0  0  0  0  0
  -22.3709  -10.9671   19.6173 H   0  0  0  0  0  0
  -21.2000   -7.6150   23.9722 H   0  0  0  0  0  0
  -21.1475   -6.0521   25.9081 H   0  0  0  0  0  0
  -22.0594   -2.7609   23.2837 H   0  0  0  0  0  0
  -22.4097  -11.9861   22.4832 H   0  0  0  0  0  0
  -21.1090  -13.1210   22.2640 H   0  0  0  0  0  0
  -24.6363  -15.8365   20.5081 H   0  0  0  0  0  0
  -26.2389  -15.6286   20.0209 H   0  0  0  0  0  0
  -26.7233  -32.5324   23.1012 H   0  0  0  0  0  0
  -25.0099  -33.9642   25.0353 H   0  0  0  0  0  0
  -22.7418  -31.2882   21.3777 H   0  0  0  0  0  0
  -23.3768  -35.9554   23.3302 H   0  0  0  0  0  0
  -24.3573  -36.8865   22.2059 H   0  0  0  0  0  0
  -23.7210  -37.6428   23.6673 H   0  0  0  0  0  0
  -26.1484  -31.4882   20.6107 H   0  0  0  0  0  0
  -26.8636  -30.7802   22.0233 H   0  0  0  0  0  0
  -28.1379  -28.8548   21.2032 H   0  0  0  0  0  0
  -25.9527  -25.8240   19.0558 H   0  0  0  0  0  0
  -23.9793  -27.2682   19.0172 H   0  0  0  0  0  0
  -23.7999  -30.5568   19.3931 H   0  0  0  0  0  0
  -22.7825  -29.2242   19.8472 H   0  0  0  0  0  0
  -25.1311  -36.1857   25.0814 H   0  0  0  0  0  0
  -21.0015  -28.3290   24.1378 H   0  0  0  0  0  0
  -20.5687  -26.2323   23.3633 H   0  0  0  0  0  0
  -21.6656  -26.7435   22.1210 H   0  0  0  0  0  0
  -19.6918  -25.6289   21.1265 H   0  0  0  0  0  0
  -19.6706  -27.3192   20.6758 H   0  0  0  0  0  0
  -17.4223  -26.6722   21.4017 H   0  0  0  0  0  0
  -18.0320  -26.0092   22.9013 H   0  0  0  0  0  0
  -19.7958  -30.7310   24.2227 H   0  0  0  0  0  0
  -17.5035  -31.6277   24.5172 H   0  0  0  0  0  0
  -15.5368  -30.2991   23.7689 H   0  0  0  0  0  0
  -15.8690  -28.0828   22.7080 H   0  0  0  0  0  0
  -24.5848  -30.7171   25.7771 H   0  0  0  0  0  0
  -24.8921  -32.3008   26.4802 H   0  0  0  0  0  0
  -25.7982  -30.9005   27.0236 H   0  0  0  0  0  0
  -26.2915  -29.6727   24.1266 H   0  0  0  0  0  0
  -27.3932  -29.7237   25.4820 H   0  0  0  0  0  0
  -27.8842  -30.4207   23.9574 H   0  0  0  0  0  0
  -27.2690  -33.3674   26.1966 H   0  0  0  0  0  0
  -28.3906  -32.6796   25.0304 H   0  0  0  0  0  0
  -28.0685  -31.8491   26.5439 H   0  0  0  0  0  0
  -28.2590  -38.0076   24.7522 H   0  0  0  0  0  0
  -28.1071  -36.2607   24.6270 H   0  0  0  0  0  0
  -27.2310  -37.1397   25.8872 H   0  0  0  0  0  0
  -20.9435  -29.8734   21.6793 H   0  0  0  0  0  0
  -26.0145  -38.2811   24.1443 H   0  0  0  0  0  0
  -32.2134  -17.6868   20.1910 H   0  0  0  0  0  0
  -28.4368  -22.1626   22.0166 H   0  0  0  0  0  0
  -30.1703  -22.2050   22.0814 H   0  0  0  0  0  0
  -28.2295  -21.6938   18.3146 H   0  0  0  0  0  0
  -27.2628  -21.8438   19.7475 H   0  0  0  0  0  0
  -31.5934  -20.8078   17.8232 H   0  0  0  0  0  0
  -32.7816  -22.0390   18.4949 H   0  0  0  0  0  0
  -34.3357  -20.1870   19.1477 H   0  0  0  0  0  0
  -33.1572  -18.9667   18.4472 H   0  0  0  0  0  0
  -30.2783  -24.3290   20.8076 H   0  0  0  0  0  0
  -29.2973  -24.5237   22.2208 H   0  0  0  0  0  0
  -27.3281  -24.0155   18.4598 H   0  0  0  0  0  0
  -29.0559  -24.0269   18.4761 H   0  0  0  0  0  0
  -30.2538  -21.9976   19.6281 H   0  0  0  0  0  0
  -32.5297  -20.9631   20.8291 H   0  0  0  0  0  0
  -27.2380  -24.5568   20.8771 H   0  0  0  0  0  0
  -27.3336  -17.6737   21.1248 H   0  0  0  0  0  0
  -27.0864  -18.6011   19.6334 H   0  0  0  0  0  0
  -27.2143  -19.4375   21.1909 H   0  0  0  0  0  0
  -28.7854  -15.8282   20.7073 H   0  0  0  0  0  0
  1 25  1  0  0  0
  1 30  2  0  0  0
  1 86  1  0  0  0
  2  3  1  0  0  0
  2 25  1  0  0  0
  2 87  1  0  0  0
  2 88  1  0  0  0
  3  4  1  0  0  0
  3 89  1  0  0  0
  3 90  1  0  0  0
  4  5  1  0  0  0
  4 91  1  0  0  0
  4 92  1  0  0  0
  5  6  1  0  0  0
  5 26  1  0  0  0
  5 93  1  0  0  0
  6 25  1  0  0  0
  6 94  1  0  0  0
  6 95  1  0  0  0
  7  8  2  0  0  0
  7 26  1  0  0  0
  7 29  1  0  0  0
  8  9  1  0  0  0
  8 22  1  0  0  0
  9 10  1  0  0  0
  9 27  2  0  0  0
 10 11  2  0  0  0
 10 15  1  0  0  0
 11 12  1  0  0  0
 11 96  1  0  0  0
 12 13  2  0  0  0
 12 97  1  0  0  0
 13 14  1  0  0  0
 13 31  1  0  0  0
 14 15  2  0  0  0
 14 98  1  0  0  0
 15 99  1  0  0  0
 16 17  2  0  0  0
 16 21  1  0  0  0
 16 31  1  0  0  0
 17 18  1  0  0  0
 17100  1  0  0  0
 18 19  2  0  0  0
 18101  1  0  0  0
 19 20  1  0  0  0
 19 24  1  0  0  0
 20 21  2  0  0  0
 20102  1  0  0  0
 21 23  1  0  0  0
 22 28  1  0  0  0
 22 32  2  0  0  0
 26 27  1  0  0  0
 28103  1  0  0  0
 28104  1  0  0  0
 29105  1  0  0  0
 29106  1  0  0  0
 33 34  1  0  0  0
 33 66  1  0  0  0
 33 70  2  0  0  0
 34 36  1  0  0  0
 34 59  1  0  0  0
 34107  1  0  0  0
 35 44  2  0  0  0
 35 45  1  0  0  0
 35 68  1  0  0  0
 36 56  1  0  0  0
 36108  1  0  0  0
 37 39  1  0  0  0
 37 47  1  0  0  0
 37 66  1  0  0  0
 37109  1  0  0  0
 38 43  2  0  0  0
 38 46  1  0  0  0
 38 47  1  0  0  0
 39 64  1  0  0  0
 39 67  2  0  0  0
 40 52  1  0  0  0
 40 53  2  0  0  0
 40 58  1  0  0  0
 41110  1  0  0  0
 41111  1  0  0  0
 41112  1  0  0  0
 41 48  1  0  0  0
 42 43  1  0  0  0
 42 66  1  0  0  0
 42113  1  0  0  0
 42114  1  0  0  0
 43 44  1  0  0  0
 44115  1  0  0  0
 45 46  2  0  0  0
 45116  1  0  0  0
 46117  1  0  0  0
 47118  1  0  0  0
 47119  1  0  0  0
 48 56  1  0  0  0
 48 65  1  0  0  0
 48120  1  0  0  0
 49 50  1  0  0  0
 49 53  1  0  0  0
 49 64  1  0  0  0
 49121  1  0  0  0
 50 51  1  0  0  0
 50122  1  0  0  0
 50123  1  0  0  0
 51 52  1  0  0  0
 51124  1  0  0  0
 51125  1  0  0  0
 52126  1  0  0  0
 52127  1  0  0  0
 53 54  1  0  0  0
 54 55  2  0  0  0
 54128  1  0  0  0
 55 57  1  0  0  0
 55129  1  0  0  0
 56 69  2  0  0  0
 57 58  2  0  0  0
 57130  1  0  0  0
 58131  1  0  0  0
 59 60  1  0  0  0
 59 61  1  0  0  0
 59 62  1  0  0  0
 60132  1  0  0  0
 60133  1  0  0  0
 60134  1  0  0  0
 61135  1  0  0  0
 61136  1  0  0  0
 61137  1  0  0  0
 62138  1  0  0  0
 62139  1  0  0  0
 62140  1  0  0  0
 63 65  1  0  0  0
 63141  1  0  0  0
 63142  1  0  0  0
 63143  1  0  0  0
 64144  1  0  0  0
 65145  1  0  0  0
 68 83  1  0  0  0
 71 73  2  0  0  0
 71 85  1  0  0  0
 71146  1  0  0  0
 72 73  1  0  0  0
 72 74  2  0  0  0
 72 84  1  0  0  0
 73 86  1  0  0  0
 74 85  1  0  0  0
 74 81  1  0  0  0
 75 79  1  0  0  0
 75 81  1  0  0  0
 75147  1  0  0  0
 75148  1  0  0  0
 76 80  1  0  0  0
 76 81  1  0  0  0
 76149  1  0  0  0
 76150  1  0  0  0
 77 78  1  0  0  0
 77 82  1  0  0  0
 77151  1  0  0  0
 77152  1  0  0  0
 78 82  1  0  0  0
 78153  1  0  0  0
 78154  1  0  0  0
 79 83  1  0  0  0
 79155  1  0  0  0
 79156  1  0  0  0
 80 83  1  0  0  0
 80157  1  0  0  0
 80158  1  0  0  0
 81159  1  0  0  0
 82 85  1  0  0  0
 82160  1  0  0  0
 83161  1  0  0  0
 84162  1  0  0  0
 84163  1  0  0  0
 84164  1  0  0  0
 86165  1  0  0  0
M  ISO  4   1 100  68 101  83 101  86 100
M  END
> <chiral flag>
0

> <version>
0

> <s_m_source_file>
/data/baiqing/PycharmProjects/Reinvent-master-3.2/result/LINK_invent/BTK/process_docking_weight1_custom_sum_contain_oxygen_bond_distance_aromatic_linkinvent_7_9_3/rearranged_h_0160.sdf

> <i_m_source_file_index>
66

> <r_mmod_Potential_Energy-OPLS-2005>
404.421905517578

> <r_mmod_Stretch_Energy-OPLS-2005>
197.939987182617

> <r_mmod_Bend_Energy-OPLS-2005>
244.770004272461

> <r_mmod_Torsional_Energy-OPLS-2005>
297.676300048828

> <r_mmod_Improper_Torsional_Energy-OPLS-2005>
4.82376003265381

> <r_mmod_Van_der_Waal_Energy-OPLS-2005>
106.508056640625

> <r_mmod_Electrostatic_Energy-OPLS-2005>
-402.421356201172

> <r_mmod_Solvation_Energy-OPLS-2005>
-200.17529296875

> <b_mmod_Minimization_Converged-OPLS-2005>
0

> <r_mmod_RMS_Derivative-OPLS-2005>
1.77282762527466

$$$$
66
                    3D
 Structure written by MMmdl.
168177  0  0  1  0            999 V2000
  -30.6783  -14.5770   20.5426 C   0  0  0  0  0  0
  -30.4243  -12.3675   19.4453 C   0  0  0  0  0  0
  -29.5009  -12.5027   18.2171 C   0  0  0  0  0  0
  -28.0190  -12.3664   18.6210 C   0  0  0  0  0  0
  -27.6480  -13.2218   19.8634 C   0  0  2  0  0  0
  -28.6905  -13.0408   20.9825 C   0  0  0  0  0  0
  -25.2495  -13.8169   20.5665 C   0  0  0  0  0  0
  -24.1779  -13.0442   20.9207 C   0  0  0  0  0  0
  -24.6375  -11.6917   20.8763 C   0  0  0  0  0  0
  -23.9067  -10.4307   21.0445 C   0  0  0  0  0  0
  -24.3631   -9.4214   21.9199 C   0  0  0  0  0  0
  -23.6306   -8.2252   22.0766 C   0  0  0  0  0  0
  -22.4284   -8.0298   21.3564 C   0  0  0  0  0  0
  -21.9940   -9.0278   20.4663 C   0  0  0  0  0  0
  -22.7269  -10.2148   20.3070 C   0  0  0  0  0  0
  -21.6821   -6.0771   22.5302 C   0  0  0  0  0  0
  -21.3990   -6.5676   23.8242 C   0  0  0  0  0  0
  -21.3655   -5.6813   24.9200 C   0  0  0  0  0  0
  -21.6057   -4.3077   24.7247 C   0  0  0  0  0  0
  -21.8804   -3.8182   23.4357 C   0  0  0  0  0  0
  -21.9182   -4.7009   22.3418 C   0  0  0  0  0  0
  -22.7795  -13.5223   21.1896 C   0  0  0  0  0  0
  -22.1654   -4.2205   21.0991 F   0  0  0  0  0  0
  -21.5640   -3.4550   25.7751 F   0  0  0  0  0  0
  -30.0000  -13.3925   20.4229 N   0  0  0  0  0  0
  -26.2946  -12.9377   20.3329 N   0  0  0  0  0  0
  -25.9305  -11.6516   20.5761 N   0  0  0  0  0  0
  -22.0434  -12.8194   22.0432 N   0  0  0  0  0  0
  -25.4163  -15.1888   20.3997 N   0  0  0  0  0  0
  -31.8630  -14.6390   20.1913 O   0  0  0  0  0  0
  -21.6627   -6.8909   21.4255 O   0  0  0  0  0  0
  -22.3473  -14.5537   20.6753 O   0  0  0  0  0  0
  -24.6203  -31.8647   23.2073 C   0  0  0  0  0  0
  -25.9082  -32.4800   23.8378 C   0  0  1  0  0  0
  -27.2213  -27.3680   20.0893 C   0  0  0  0  0  0
  -25.5921  -33.8606   24.2298 N   0  0  0  0  0  0
  -23.4099  -30.4922   21.5489 C   0  0  2  0  0  0
  -24.8507  -28.9512   20.1114 C   0  0  0  0  0  0
  -22.7427  -29.4689   22.4966 C   0  0  0  0  0  0
  -18.0272  -28.1396   22.8506 C   0  0  0  0  0  0
  -24.1482  -36.7298   23.2645 C   0  0  0  0  0  0
  -25.9462  -30.8097   21.3682 C   0  0  0  0  0  0
  -26.0180  -29.4398   20.7113 C   0  0  0  0  0  0
  -27.2023  -28.6556   20.6969 C   0  0  0  0  0  0
  -26.0219  -26.9086   19.4949 C   0  0  0  0  0  0
  -24.8528  -27.6891   19.5012 C   0  0  0  0  0  0
  -23.6174  -29.8251   20.1633 C   0  0  0  0  0  0
  -25.4109  -36.3094   24.0327 C   0  0  1  0  0  0
  -20.5868  -28.3708   23.1296 C   0  0  2  0  0  0
  -20.6768  -26.9433   22.5419 C   0  0  0  0  0  0
  -19.5739  -26.6402   21.5228 C   0  0  0  0  0  0
  -18.1920  -26.7941   22.1637 C   0  0  0  0  0  0
  -19.1526  -28.8862   23.2904 C   0  0  0  0  0  0
  -18.9449  -30.1470   23.8934 C   0  0  0  0  0  0
  -17.6450  -30.6606   24.0578 C   0  0  0  0  0  0
  -25.9055  -34.9468   23.5110 C   0  0  0  0  0  0
  -16.5352  -29.9111   23.6327 C   0  0  0  0  0  0
  -16.7264  -28.6520   23.0369 C   0  0  0  0  0  0
  -26.4484  -31.6591   25.0722 C   0  0  0  0  0  0
  -25.3716  -31.3692   26.1444 C   0  0  0  0  0  0
  -27.0336  -30.3030   24.6154 C   0  0  0  0  0  0
  -27.6054  -32.4322   25.7481 C   0  0  0  0  0  0
  -27.5573  -37.1805   24.8467 C   0  0  0  0  0  0
  -21.4146  -29.3069   22.3696 N   0  0  0  0  0  0
  -26.4285  -37.3787   23.9419 N   0  0  0  0  0  0
  -24.6783  -31.0701   22.0995 N   0  0  0  0  0  0
  -23.4151  -28.8226   23.3032 O   0  0  0  0  0  0
  -28.3793  -26.5940   20.1186 O   0  0  0  0  0  0
  -26.5637  -34.8909   22.4683 O   0  0  0  0  0  0
  -23.5386  -32.1442   23.7429 O   0  0  0  0  0  0
  -27.2871  -23.2188   19.6784 C   0  0  0  0  0  0
  -28.4418  -23.9958   19.9035 C   0  0  0  0  0  0
  -27.2087  -21.8526   20.0424 C   0  0  0  0  0  0
  -29.5324  -23.3564   20.5663 C   0  0  0  0  0  0
  -29.4699  -21.9639   20.9281 C   0  0  0  0  0  0
  -28.3028  -21.1773   20.6512 C   0  0  0  0  0  0
  -29.4975  -18.1305   19.7000 C   0  0  0  0  0  0
  -28.4417  -17.4393   21.8046 C   0  0  0  0  0  0
  -30.4506  -16.9025   19.8277 C   0  0  0  0  0  0
  -29.4565  -16.2597   21.9364 C   0  0  0  0  0  0
  -29.0453  -18.6622   21.0705 C   0  0  0  0  0  0
  -25.9052  -21.1203   19.7559 C   0  0  0  0  0  0
  -30.7908  -24.1667   20.8762 C   0  0  0  0  0  0
  -30.6576  -21.3185   21.6346 C   0  0  0  0  0  0
  -28.5247  -25.4192   19.2666 C   0  0  0  0  0  0
  -29.9542  -15.7507   20.6372 N   0  0  0  0  0  0
  -28.0952  -19.7987   20.9806 N   0  0  0  0  0  0
  -31.4669  -12.4729   19.1399 H   0  0  0  0  0  0
  -30.3445  -11.3670   19.8756 H   0  0  0  0  0  0
  -29.7502  -11.7461   17.4713 H   0  0  0  0  0  0
  -29.6640  -13.4712   17.7415 H   0  0  0  0  0  0
  -27.8377  -11.3119   18.8276 H   0  0  0  0  0  0
  -27.3735  -12.6271   17.7810 H   0  0  0  0  0  0
  -27.6731  -14.2661   19.5480 H   0  0  0  0  0  0
  -28.6981  -12.0023   21.3184 H   0  0  0  0  0  0
  -28.4288  -13.6251   21.8593 H   0  0  0  0  0  0
  -25.2796   -9.5683   22.4725 H   0  0  0  0  0  0
  -24.0049   -7.4624   22.7442 H   0  0  0  0  0  0
  -21.0902   -8.8815   19.8928 H   0  0  0  0  0  0
  -22.3782  -10.9691   19.6154 H   0  0  0  0  0  0
  -21.1932   -7.6170   23.9772 H   0  0  0  0  0  0
  -21.1498   -6.0535   25.9107 H   0  0  0  0  0  0
  -22.0565   -2.7649   23.2839 H   0  0  0  0  0  0
  -22.4065  -11.9894   22.4873 H   0  0  0  0  0  0
  -21.1033  -13.1188   22.2628 H   0  0  0  0  0  0
  -24.6524  -15.8443   20.5214 H   0  0  0  0  0  0
  -26.2717  -15.6225   20.0785 H   0  0  0  0  0  0
  -26.7159  -32.5467   23.1144 H   0  0  0  0  0  0
  -25.0015  -33.9775   25.0404 H   0  0  0  0  0  0
  -22.7030  -31.3123   21.4082 H   0  0  0  0  0  0
  -23.3746  -35.9631   23.3314 H   0  0  0  0  0  0
  -24.3567  -36.8914   22.2062 H   0  0  0  0  0  0
  -23.7232  -37.6497   23.6658 H   0  0  0  0  0  0
  -26.0693  -31.5752   20.6002 H   0  0  0  0  0  0
  -26.8324  -30.8616   21.9894 H   0  0  0  0  0  0
  -28.1027  -29.0345   21.1617 H   0  0  0  0  0  0
  -25.9474  -25.9356   19.0368 H   0  0  0  0  0  0
  -23.9515  -27.3064   19.0419 H   0  0  0  0  0  0
  -23.7282  -30.6018   19.4056 H   0  0  0  0  0  0
  -22.7376  -29.2490   19.8663 H   0  0  0  0  0  0
  -25.1293  -36.1957   25.0817 H   0  0  0  0  0  0
  -20.9976  -28.3296   24.1409 H   0  0  0  0  0  0
  -20.5690  -26.2329   23.3627 H   0  0  0  0  0  0
  -21.6634  -26.7483   22.1200 H   0  0  0  0  0  0
  -19.6913  -25.6320   21.1244 H   0  0  0  0  0  0
  -19.6660  -27.3226   20.6769 H   0  0  0  0  0  0
  -17.4185  -26.6719   21.4037 H   0  0  0  0  0  0
  -18.0313  -26.0073   22.9020 H   0  0  0  0  0  0
  -19.7923  -30.7288   24.2304 H   0  0  0  0  0  0
  -17.5005  -31.6282   24.5205 H   0  0  0  0  0  0
  -15.5355  -30.3036   23.7635 H   0  0  0  0  0  0
  -15.8653  -28.0852   22.7076 H   0  0  0  0  0  0
  -24.5913  -30.7031   25.7743 H   0  0  0  0  0  0
  -24.8870  -32.2830   26.4898 H   0  0  0  0  0  0
  -25.8038  -30.8838   27.0202 H   0  0  0  0  0  0
  -26.2906  -29.6775   24.1200 H   0  0  0  0  0  0
  -27.4080  -29.7302   25.4649 H   0  0  0  0  0  0
  -27.8736  -30.4353   23.9335 H   0  0  0  0  0  0
  -27.2706  -33.3647   26.2047 H   0  0  0  0  0  0
  -28.3859  -32.6860   25.0289 H   0  0  0  0  0  0
  -28.0726  -31.8443   26.5399 H   0  0  0  0  0  0
  -28.2591  -38.0103   24.7522 H   0  0  0  0  0  0
  -28.1057  -36.2639   24.6271 H   0  0  0  0  0  0
  -27.2287  -37.1427   25.8865 H   0  0  0  0  0  0
  -20.9323  -29.8764   21.6889 H   0  0  0  0  0  0
  -26.0161  -38.2849   24.1426 H   0  0  0  0  0  0
  -26.4461  -23.6742   19.1760 H   0  0  0  0  0  0
  -28.6329  -17.8517   19.0956 H   0  0  0  0  0  0
  -30.0050  -18.9243   19.1480 H   0  0  0  0  0  0
  -28.1083  -17.7275   22.8005 H   0  0  0  0  0  0
  -27.5463  -17.0966   21.2830 H   0  0  0  0  0  0
  -31.3935  -17.2432   20.2620 H   0  0  0  0  0  0
  -30.6894  -16.5609   18.8191 H   0  0  0  0  0  0
  -29.0161  -15.4749   22.5444 H   0  0  0  0  0  0
  -30.3175  -16.6003   22.5143 H   0  0  0  0  0  0
  -29.9209  -18.9423   21.6452 H   0  0  0  0  0  0
  -25.2267  -21.7258   19.1525 H   0  0  0  0  0  0
  -25.3948  -20.8904   20.6927 H   0  0  0  0  0  0
  -26.0797  -20.1908   19.2128 H   0  0  0  0  0  0
  -30.6913  -25.2280   20.6619 H   0  0  0  0  0  0
  -31.6368  -23.7861   20.3015 H   0  0  0  0  0  0
  -31.0346  -24.1113   21.9378 H   0  0  0  0  0  0
  -31.4622  -21.9917   21.9175 H   0  0  0  0  0  0
  -31.1098  -20.5723   20.9838 H   0  0  0  0  0  0
  -30.3186  -20.8454   22.5553 H   0  0  0  0  0  0
  -27.8756  -25.4651   18.3935 H   0  0  0  0  0  0
  -29.5105  -25.4991   18.8057 H   0  0  0  0  0  0
  -27.1402  -19.4926   20.8287 H   0  0  0  0  0  0
  1 25  1  0  0  0
  1 30  2  0  0  0
  1 86  1  0  0  0
  2  3  1  0  0  0
  2 25  1  0  0  0
  2 88  1  0  0  0
  2 89  1  0  0  0
  3  4  1  0  0  0
  3 90  1  0  0  0
  3 91  1  0  0  0
  4  5  1  0  0  0
  4 92  1  0  0  0
  4 93  1  0  0  0
  5  6  1  0  0  0
  5 26  1  0  0  0
  5 94  1  0  0  0
  6 25  1  0  0  0
  6 95  1  0  0  0
  6 96  1  0  0  0
  7  8  2  0  0  0
  7 26  1  0  0  0
  7 29  1  0  0  0
  8  9  1  0  0  0
  8 22  1  0  0  0
  9 10  1  0  0  0
  9 27  2  0  0  0
 10 11  2  0  0  0
 10 15  1  0  0  0
 11 12  1  0  0  0
 11 97  1  0  0  0
 12 13  2  0  0  0
 12 98  1  0  0  0
 13 14  1  0  0  0
 13 31  1  0  0  0
 14 15  2  0  0  0
 14 99  1  0  0  0
 15100  1  0  0  0
 16 17  2  0  0  0
 16 21  1  0  0  0
 16 31  1  0  0  0
 17 18  1  0  0  0
 17101  1  0  0  0
 18 19  2  0  0  0
 18102  1  0  0  0
 19 20  1  0  0  0
 19 24  1  0  0  0
 20 21  2  0  0  0
 20103  1  0  0  0
 21 23  1  0  0  0
 22 28  1  0  0  0
 22 32  2  0  0  0
 26 27  1  0  0  0
 28104  1  0  0  0
 28105  1  0  0  0
 29106  1  0  0  0
 29107  1  0  0  0
 33 34  1  0  0  0
 33 66  1  0  0  0
 33 70  2  0  0  0
 34 36  1  0  0  0
 34 59  1  0  0  0
 34108  1  0  0  0
 35 44  2  0  0  0
 35 45  1  0  0  0
 35 68  1  0  0  0
 36 56  1  0  0  0
 36109  1  0  0  0
 37 39  1  0  0  0
 37 47  1  0  0  0
 37 66  1  0  0  0
 37110  1  0  0  0
 38 43  2  0  0  0
 38 46  1  0  0  0
 38 47  1  0  0  0
 39 64  1  0  0  0
 39 67  2  0  0  0
 40 52  1  0  0  0
 40 53  2  0  0  0
 40 58  1  0  0  0
 41111  1  0  0  0
 41112  1  0  0  0
 41113  1  0  0  0
 41 48  1  0  0  0
 42 43  1  0  0  0
 42 66  1  0  0  0
 42114  1  0  0  0
 42115  1  0  0  0
 43 44  1  0  0  0
 44116  1  0  0  0
 45 46  2  0  0  0
 45117  1  0  0  0
 46118  1  0  0  0
 47119  1  0  0  0
 47120  1  0  0  0
 48 56  1  0  0  0
 48 65  1  0  0  0
 48121  1  0  0  0
 49 50  1  0  0  0
 49 53  1  0  0  0
 49 64  1  0  0  0
 49122  1  0  0  0
 50 51  1  0  0  0
 50123  1  0  0  0
 50124  1  0  0  0
 51 52  1  0  0  0
 51125  1  0  0  0
 51126  1  0  0  0
 52127  1  0  0  0
 52128  1  0  0  0
 53 54  1  0  0  0
 54 55  2  0  0  0
 54129  1  0  0  0
 55 57  1  0  0  0
 55130  1  0  0  0
 56 69  2  0  0  0
 57 58  2  0  0  0
 57131  1  0  0  0
 58132  1  0  0  0
 59 60  1  0  0  0
 59 61  1  0  0  0
 59 62  1  0  0  0
 60133  1  0  0  0
 60134  1  0  0  0
 60135  1  0  0  0
 61136  1  0  0  0
 61137  1  0  0  0
 61138  1  0  0  0
 62139  1  0  0  0
 62140  1  0  0  0
 62141  1  0  0  0
 63 65  1  0  0  0
 63142  1  0  0  0
 63143  1  0  0  0
 63144  1  0  0  0
 64145  1  0  0  0
 65146  1  0  0  0
 68 85  1  0  0  0
 71 72  2  0  0  0
 71 73  1  0  0  0
 71147  1  0  0  0
 72 74  1  0  0  0
 72 85  1  0  0  0
 73 76  2  0  0  0
 73 82  1  0  0  0
 74 75  2  0  0  0
 74 83  1  0  0  0
 75 76  1  0  0  0
 75 84  1  0  0  0
 76 87  1  0  0  0
 77 79  1  0  0  0
 77 81  1  0  0  0
 77148  1  0  0  0
 77149  1  0  0  0
 78 80  1  0  0  0
 78 81  1  0  0  0
 78150  1  0  0  0
 78151  1  0  0  0
 79 86  1  0  0  0
 79152  1  0  0  0
 79153  1  0  0  0
 80 86  1  0  0  0
 80154  1  0  0  0
 80155  1  0  0  0
 81 87  1  0  0  0
 81156  1  0  0  0
 82157  1  0  0  0
 82158  1  0  0  0
 82159  1  0  0  0
 83160  1  0  0  0
 83161  1  0  0  0
 83162  1  0  0  0
 84163  1  0  0  0
 84164  1  0  0  0
 84165  1  0  0  0
 85166  1  0  0  0
 85167  1  0  0  0
 87168  1  0  0  0
M  ISO  4   1 100  68 101  85 101  86 100
M  END
> <chiral flag>
0

> <version>
0

> <s_m_source_file>
/data/baiqing/PycharmProjects/Reinvent-master-3.2/result/LINK_invent/BTK/process_docking_weight1_custom_sum_contain_oxygen_bond_distance_aromatic_linkinvent_7_9_3/rearranged_h_0160.sdf

> <i_m_source_file_index>
67

> <r_mmod_Potential_Energy-OPLS-2005>
215.172576904297

> <r_mmod_Stretch_Energy-OPLS-2005>
67.1625289916992

> <r_mmod_Bend_Energy-OPLS-2005>
170.122421264648

> <r_mmod_Torsional_Energy-OPLS-2005>
311.183654785156

> <r_mmod_Improper_Torsional_Energy-OPLS-2005>
18.043758392334

> <r_mmod_Van_der_Waal_Energy-OPLS-2005>
169.656387329102

> <r_mmod_Electrostatic_Energy-OPLS-2005>
-356.905426025391

> <r_mmod_Solvation_Energy-OPLS-2005>
-194.857452392578

> <b_mmod_Minimization_Converged-OPLS-2005>
0

> <r_mmod_RMS_Derivative-OPLS-2005>
3.1686487197876

$$$$
67
                    3D
 Structure written by MMmdl.
167177  0  0  1  0            999 V2000
  -30.7308  -14.5076   20.5049 C   0  0  0  0  0  0
  -30.4043  -12.3071   19.3995 C   0  0  0  0  0  0
  -29.4867  -12.5371   18.1797 C   0  0  0  0  0  0
  -28.0014  -12.4222   18.5755 C   0  0  0  0  0  0
  -27.6566  -13.2258   19.8605 C   0  0  2  0  0  0
  -28.7122  -12.9848   20.9618 C   0  0  0  0  0  0
  -25.2570  -13.8141   20.5710 C   0  0  0  0  0  0
  -24.1863  -13.0472   20.9122 C   0  0  0  0  0  0
  -24.6405  -11.6890   20.8651 C   0  0  0  0  0  0
  -23.9034  -10.4307   21.0345 C   0  0  0  0  0  0
  -24.3599   -9.4209   21.9102 C   0  0  0  0  0  0
  -23.6284   -8.2262   22.0713 C   0  0  0  0  0  0
  -22.4258   -8.0259   21.3536 C   0  0  0  0  0  0
  -21.9887   -9.0225   20.4629 C   0  0  0  0  0  0
  -22.7196  -10.2119   20.3005 C   0  0  0  0  0  0
  -21.6889   -6.0715   22.5278 C   0  0  0  0  0  0
  -21.3994   -6.5623   23.8195 C   0  0  0  0  0  0
  -21.3660   -5.6788   24.9174 C   0  0  0  0  0  0
  -21.6062   -4.3058   24.7246 C   0  0  0  0  0  0
  -21.8801   -3.8131   23.4374 C   0  0  0  0  0  0
  -21.9182   -4.6935   22.3412 C   0  0  0  0  0  0
  -22.7847  -13.5205   21.1857 C   0  0  0  0  0  0
  -22.1663   -4.2128   21.0983 F   0  0  0  0  0  0
  -21.5656   -3.4538   25.7749 F   0  0  0  0  0  0
  -30.0353  -13.3230   20.4037 N   0  0  0  0  0  0
  -26.3034  -12.9411   20.3299 N   0  0  0  0  0  0
  -25.9344  -11.6536   20.5628 N   0  0  0  0  0  0
  -22.0527  -12.8229   22.0405 N   0  0  0  0  0  0
  -25.4215  -15.1920   20.4228 N   0  0  0  0  0  0
  -31.8690  -14.6191   20.0338 O   0  0  0  0  0  0
  -21.6629   -6.8874   21.4244 O   0  0  0  0  0  0
  -22.3511  -14.5525   20.6667 O   0  0  0  0  0  0
  -24.6081  -31.8717   23.2210 C   0  0  0  0  0  0
  -25.8967  -32.4905   23.8530 C   0  0  1  0  0  0
  -27.2580  -27.4684   20.0756 C   0  0  0  0  0  0
  -25.5780  -33.8659   24.2429 N   0  0  0  0  0  0
  -23.3977  -30.4903   21.5583 C   0  0  2  0  0  0
  -24.8580  -28.9739   20.1166 C   0  0  0  0  0  0
  -22.7435  -29.4596   22.5083 C   0  0  0  0  0  0
  -18.0231  -28.1367   22.8531 C   0  0  0  0  0  0
  -24.1431  -36.7343   23.2646 C   0  0  0  0  0  0
  -25.9268  -30.8605   21.3632 C   0  0  0  0  0  0
  -26.0198  -29.4997   20.6942 C   0  0  0  0  0  0
  -27.2233  -28.7591   20.6566 C   0  0  0  0  0  0
  -26.0552  -26.9431   19.5372 C   0  0  0  0  0  0
  -24.8731  -27.7001   19.5277 C   0  0  0  0  0  0
  -23.6154  -29.8321   20.1731 C   0  0  0  0  0  0
  -25.4068  -36.3168   24.0354 C   0  0  1  0  0  0
  -20.5854  -28.3597   23.1424 C   0  0  2  0  0  0
  -20.6739  -26.9376   22.5436 C   0  0  0  0  0  0
  -19.5692  -26.6399   21.5215 C   0  0  0  0  0  0
  -18.1879  -26.7915   22.1647 C   0  0  0  0  0  0
  -19.1503  -28.8786   23.2957 C   0  0  0  0  0  0
  -18.9445  -30.1434   23.8919 C   0  0  0  0  0  0
  -17.6455  -30.6589   24.0570 C   0  0  0  0  0  0
  -25.9005  -34.9483   23.5208 C   0  0  0  0  0  0
  -16.5331  -29.9101   23.6341 C   0  0  0  0  0  0
  -16.7226  -28.6508   23.0343 C   0  0  0  0  0  0
  -26.4371  -31.6630   25.0813 C   0  0  0  0  0  0
  -25.3647  -31.3686   26.1578 C   0  0  0  0  0  0
  -27.0180  -30.3080   24.6154 C   0  0  0  0  0  0
  -27.5992  -32.4300   25.7503 C   0  0  0  0  0  0
  -27.5565  -37.1835   24.8486 C   0  0  0  0  0  0
  -21.4143  -29.2956   22.3853 N   0  0  0  0  0  0
  -26.4261  -37.3858   23.9446 N   0  0  0  0  0  0
  -24.6611  -31.0881   22.1085 N   0  0  0  0  0  0
  -23.4178  -28.8136   23.3131 O   0  0  0  0  0  0
  -28.4565  -26.7705   20.0326 O   0  0  0  0  0  0
  -26.5639  -34.8950   22.4815 O   0  0  0  0  0  0
  -23.5256  -32.1390   23.7631 O   0  0  0  0  0  0
  -29.0141  -18.4780   19.2119 C   0  0  0  0  0  0
  -29.6404  -19.5439   19.9041 C   0  0  0  0  0  0
  -30.6658  -19.0941   20.7823 C   0  0  0  0  0  0
  -30.1463  -16.8675   20.4080 C   0  0  0  0  0  0
  -31.0476  -23.0921   18.1926 C   0  0  0  0  0  0
  -29.7280  -23.7693   17.9097 C   0  0  1  0  0  0
  -28.7862  -22.5695   18.2254 C   0  0  1  0  0  0
  -30.6691  -22.8170   19.6554 C   0  0  2  0  0  0
  -29.2895  -22.0948   19.5933 C   0  0  2  0  0  0
  -29.7824  -24.8562   19.0242 C   0  0  2  0  0  0
  -31.5237  -19.9539   21.6819 C   0  0  0  0  0  0
  -27.2753  -22.8150   18.0885 C   0  0  0  0  0  0
  -29.7833  -15.5793   22.4512 C   0  0  0  0  0  0
  -28.4275  -25.5190   19.3330 C   0  0  0  0  0  0
  -29.2547  -17.1674   19.4687 N   0  0  0  0  0  0
  -30.8813  -17.7850   21.0231 N   0  0  0  0  0  0
  -30.0951  -15.6028   21.0096 N   0  0  0  0  0  0
  -30.3863  -24.1461   20.1180 O   0  0  0  0  0  0
  -28.9401  -20.7475   20.0070 O   0  0  0  0  0  0
  -31.4563  -12.3463   19.1097 H   0  0  0  0  0  0
  -30.2502  -11.3021   19.7875 H   0  0  0  0  0  0
  -29.7180  -11.8352   17.3792 H   0  0  0  0  0  0
  -29.6779  -13.5314   17.7642 H   0  0  0  0  0  0
  -27.7807  -11.3670   18.7215 H   0  0  0  0  0  0
  -27.3751  -12.7558   17.7499 H   0  0  0  0  0  0
  -27.6962  -14.2826   19.5904 H   0  0  0  0  0  0
  -28.6981  -11.9346   21.2575 H   0  0  0  0  0  0
  -28.4536  -13.5274   21.8653 H   0  0  0  0  0  0
  -25.2767   -9.5715   22.4674 H   0  0  0  0  0  0
  -24.0012   -7.4660   22.7449 H   0  0  0  0  0  0
  -21.0826   -8.8699   19.8971 H   0  0  0  0  0  0
  -22.3590  -10.9624   19.6127 H   0  0  0  0  0  0
  -21.1934   -7.6126   23.9706 H   0  0  0  0  0  0
  -21.1534   -6.0514   25.9086 H   0  0  0  0  0  0
  -22.0572   -2.7589   23.2856 H   0  0  0  0  0  0
  -22.4168  -11.9942   22.4884 H   0  0  0  0  0  0
  -21.1070  -13.1192   22.2578 H   0  0  0  0  0  0
  -24.6456  -15.8344   20.5236 H   0  0  0  0  0  0
  -26.2827  -15.6505   20.1618 H   0  0  0  0  0  0
  -26.7076  -32.5584   23.1346 H   0  0  0  0  0  0
  -24.9726  -33.9875   25.0406 H   0  0  0  0  0  0
  -22.6641  -31.2919   21.4253 H   0  0  0  0  0  0
  -23.3701  -35.9683   23.3301 H   0  0  0  0  0  0
  -24.3533  -36.8946   22.2075 H   0  0  0  0  0  0
  -23.7137  -37.6518   23.6652 H   0  0  0  0  0  0
  -26.0264  -31.6513   20.6151 H   0  0  0  0  0  0
  -26.8140  -30.9154   21.9813 H   0  0  0  0  0  0
  -28.1377  -29.1793   21.0610 H   0  0  0  0  0  0
  -25.9667  -25.9535   19.1176 H   0  0  0  0  0  0
  -23.9902  -27.2762   19.0686 H   0  0  0  0  0  0
  -23.7130  -30.6081   19.4132 H   0  0  0  0  0  0
  -22.7448  -29.2509   19.8811 H   0  0  0  0  0  0
  -25.1217  -36.2066   25.0842 H   0  0  0  0  0  0
  -20.9884  -28.3148   24.1558 H   0  0  0  0  0  0
  -20.5659  -26.2216   23.3588 H   0  0  0  0  0  0
  -21.6624  -26.7460   22.1229 H   0  0  0  0  0  0
  -19.6884  -25.6310   21.1230 H   0  0  0  0  0  0
  -19.6656  -27.3214   20.6758 H   0  0  0  0  0  0
  -17.4185  -26.6637   21.4054 H   0  0  0  0  0  0
  -18.0322  -26.0051   22.9051 H   0  0  0  0  0  0
  -19.7913  -30.7255   24.2308 H   0  0  0  0  0  0
  -17.4996  -31.6283   24.5138 H   0  0  0  0  0  0
  -15.5329  -30.3009   23.7649 H   0  0  0  0  0  0
  -15.8615  -28.0841   22.7048 H   0  0  0  0  0  0
  -24.5875  -30.6935   25.7920 H   0  0  0  0  0  0
  -24.8728  -32.2780   26.4998 H   0  0  0  0  0  0
  -25.8029  -30.8897   27.0345 H   0  0  0  0  0  0
  -26.2735  -29.6936   24.1031 H   0  0  0  0  0  0
  -27.3858  -29.7260   25.4622 H   0  0  0  0  0  0
  -27.8508  -30.4312   23.9261 H   0  0  0  0  0  0
  -27.2712  -33.3639   26.2034 H   0  0  0  0  0  0
  -28.3815  -32.6722   25.0316 H   0  0  0  0  0  0
  -28.0642  -31.8407   26.5425 H   0  0  0  0  0  0
  -28.2638  -38.0080   24.7570 H   0  0  0  0  0  0
  -28.1009  -36.2625   24.6254 H   0  0  0  0  0  0
  -27.2338  -37.1450   25.8907 H   0  0  0  0  0  0
  -20.9298  -29.8628   21.7036 H   0  0  0  0  0  0
  -26.0168  -38.2929   24.1444 H   0  0  0  0  0  0
  -28.2159  -18.6554   18.5084 H   0  0  0  0  0  0
  -31.9036  -23.7530   18.0371 H   0  0  0  0  0  0
  -31.1900  -22.1701   17.6211 H   0  0  0  0  0  0
  -29.6449  -24.1938   16.9005 H   0  0  0  0  0  0
  -29.0284  -21.7891   17.5138 H   0  0  0  0  0  0
  -31.4453  -22.3719   20.2502 H   0  0  0  0  0  0
  -28.6718  -22.6443   20.3004 H   0  0  0  0  0  0
  -30.4665  -25.6461   18.7188 H   0  0  0  0  0  0
  -32.0421  -20.7395   21.1518 H   0  0  0  0  0  0
  -32.3077  -19.3288   22.1171 H   0  0  0  0  0  0
  -30.9566  -20.3723   22.5055 H   0  0  0  0  0  0
  -26.7783  -21.9108   17.7433 H   0  0  0  0  0  0
  -27.1402  -23.5660   17.3198 H   0  0  0  0  0  0
  -26.7441  -23.1443   18.9817 H   0  0  0  0  0  0
  -30.1717  -14.6894   22.9650 H   0  0  0  0  0  0
  -28.7030  -15.6194   22.5892 H   0  0  0  0  0  0
  -30.1999  -16.4367   22.9728 H   0  0  0  0  0  0
  -27.7614  -24.8333   19.8535 H   0  0  0  0  0  0
  -28.0232  -25.7274   18.3417 H   0  0  0  0  0  0
  1 25  1  0  0  0
  1 30  2  0  0  0
  1 87  1  0  0  0
  2  3  1  0  0  0
  2 25  1  0  0  0
  2 90  1  0  0  0
  2 91  1  0  0  0
  3  4  1  0  0  0
  3 92  1  0  0  0
  3 93  1  0  0  0
  4  5  1  0  0  0
  4 94  1  0  0  0
  4 95  1  0  0  0
  5  6  1  0  0  0
  5 26  1  0  0  0
  5 96  1  0  0  0
  6 25  1  0  0  0
  6 97  1  0  0  0
  6 98  1  0  0  0
  7  8  2  0  0  0
  7 26  1  0  0  0
  7 29  1  0  0  0
  8  9  1  0  0  0
  8 22  1  0  0  0
  9 10  1  0  0  0
  9 27  2  0  0  0
 10 11  2  0  0  0
 10 15  1  0  0  0
 11 12  1  0  0  0
 11 99  1  0  0  0
 12 13  2  0  0  0
 12100  1  0  0  0
 13 14  1  0  0  0
 13 31  1  0  0  0
 14 15  2  0  0  0
 14101  1  0  0  0
 15102  1  0  0  0
 16 17  2  0  0  0
 16 21  1  0  0  0
 16 31  1  0  0  0
 17 18  1  0  0  0
 17103  1  0  0  0
 18 19  2  0  0  0
 18104  1  0  0  0
 19 20  1  0  0  0
 19 24  1  0  0  0
 20 21  2  0  0  0
 20105  1  0  0  0
 21 23  1  0  0  0
 22 28  1  0  0  0
 22 32  2  0  0  0
 26 27  1  0  0  0
 28106  1  0  0  0
 28107  1  0  0  0
 29108  1  0  0  0
 29109  1  0  0  0
 33 34  1  0  0  0
 33 66  1  0  0  0
 33 70  2  0  0  0
 34 36  1  0  0  0
 34 59  1  0  0  0
 34110  1  0  0  0
 35 44  2  0  0  0
 35 45  1  0  0  0
 35 68  1  0  0  0
 36 56  1  0  0  0
 36111  1  0  0  0
 37 39  1  0  0  0
 37 47  1  0  0  0
 37 66  1  0  0  0
 37112  1  0  0  0
 38 43  2  0  0  0
 38 46  1  0  0  0
 38 47  1  0  0  0
 39 64  1  0  0  0
 39 67  2  0  0  0
 40 52  1  0  0  0
 40 53  2  0  0  0
 40 58  1  0  0  0
 41113  1  0  0  0
 41114  1  0  0  0
 41115  1  0  0  0
 41 48  1  0  0  0
 42 43  1  0  0  0
 42 66  1  0  0  0
 42116  1  0  0  0
 42117  1  0  0  0
 43 44  1  0  0  0
 44118  1  0  0  0
 45 46  2  0  0  0
 45119  1  0  0  0
 46120  1  0  0  0
 47121  1  0  0  0
 47122  1  0  0  0
 48 56  1  0  0  0
 48 65  1  0  0  0
 48123  1  0  0  0
 49 50  1  0  0  0
 49 53  1  0  0  0
 49 64  1  0  0  0
 49124  1  0  0  0
 50 51  1  0  0  0
 50125  1  0  0  0
 50126  1  0  0  0
 51 52  1  0  0  0
 51127  1  0  0  0
 51128  1  0  0  0
 52129  1  0  0  0
 52130  1  0  0  0
 53 54  1  0  0  0
 54 55  2  0  0  0
 54131  1  0  0  0
 55 57  1  0  0  0
 55132  1  0  0  0
 56 69  2  0  0  0
 57 58  2  0  0  0
 57133  1  0  0  0
 58134  1  0  0  0
 59 60  1  0  0  0
 59 61  1  0  0  0
 59 62  1  0  0  0
 60135  1  0  0  0
 60136  1  0  0  0
 60137  1  0  0  0
 61138  1  0  0  0
 61139  1  0  0  0
 61140  1  0  0  0
 62141  1  0  0  0
 62142  1  0  0  0
 62143  1  0  0  0
 63 65  1  0  0  0
 63144  1  0  0  0
 63145  1  0  0  0
 63146  1  0  0  0
 64147  1  0  0  0
 65148  1  0  0  0
 68 84  1  0  0  0
 71 72  2  0  0  0
 71 85  1  0  0  0
 71149  1  0  0  0
 72 73  1  0  0  0
 72 89  1  0  0  0
 73 81  1  0  0  0
 73 86  2  0  0  0
 74 85  2  0  0  0
 74 86  1  0  0  0
 74 87  1  0  0  0
 75 78  1  0  0  0
 75150  1  0  0  0
 75151  1  0  0  0
 75 76  1  0  0  0
 76 77  1  0  0  0
 76 80  1  0  0  0
 76152  1  0  0  0
 77 79  1  0  0  0
 77 82  1  0  0  0
 77153  1  0  0  0
 78 79  1  0  0  0
 78 88  1  0  0  0
 78154  1  0  0  0
 79 89  1  0  0  0
 79155  1  0  0  0
 80 84  1  0  0  0
 80 88  1  0  0  0
 80156  1  0  0  0
 81157  1  0  0  0
 81158  1  0  0  0
 81159  1  0  0  0
 82160  1  0  0  0
 82161  1  0  0  0
 82162  1  0  0  0
 83 87  1  0  0  0
 83163  1  0  0  0
 83164  1  0  0  0
 83165  1  0  0  0
 84166  1  0  0  0
 84167  1  0  0  0
M  ISO  4   1 100  68 101  84 101  87 100
M  END
> <chiral flag>
0

> <version>
0

> <s_m_source_file>
/data/baiqing/PycharmProjects/Reinvent-master-3.2/result/LINK_invent/BTK/process_docking_weight1_custom_sum_contain_oxygen_bond_distance_aromatic_linkinvent_7_9_3/rearranged_h_0160.sdf

> <i_m_source_file_index>
68

> <r_mmod_Potential_Energy-OPLS-2005>
160.713394165039

> <r_mmod_Stretch_Energy-OPLS-2005>
54.3929176330566

> <r_mmod_Bend_Energy-OPLS-2005>
315.001861572266

> <r_mmod_Torsional_Energy-OPLS-2005>
392.94140625

> <r_mmod_Improper_Torsional_Energy-OPLS-2005>
12.6566534042358

> <r_mmod_Van_der_Waal_Energy-OPLS-2005>
181.726898193359

> <r_mmod_Electrostatic_Energy-OPLS-2005>
-599.854431152344

> <r_mmod_Solvation_Energy-OPLS-2005>
-212.634979248047

> <b_mmod_Minimization_Converged-OPLS-2005>
0

> <r_mmod_RMS_Derivative-OPLS-2005>
13.579478263855

$$$$
68
                    3D
 Structure written by MMmdl.
170179  0  0  1  0            999 V2000
  -30.6493  -14.5879   20.5037 C   0  0  0  0  0  0
  -30.4262  -12.3677   19.4343 C   0  0  0  0  0  0
  -29.4916  -12.5013   18.2129 C   0  0  0  0  0  0
  -28.0130  -12.3588   18.6297 C   0  0  0  0  0  0
  -27.6498  -13.2107   19.8779 C   0  0  2  0  0  0
  -28.7019  -13.0195   20.9918 C   0  0  0  0  0  0
  -25.2540  -13.8144   20.5736 C   0  0  0  0  0  0
  -24.1783  -13.0406   20.9205 C   0  0  0  0  0  0
  -24.6352  -11.6880   20.8776 C   0  0  0  0  0  0
  -23.9035  -10.4271   21.0464 C   0  0  0  0  0  0
  -24.3576   -9.4179   21.9253 C   0  0  0  0  0  0
  -23.6258   -8.2206   22.0802 C   0  0  0  0  0  0
  -22.4256   -8.0241   21.3565 C   0  0  0  0  0  0
  -21.9894   -9.0226   20.4684 C   0  0  0  0  0  0
  -22.7212  -10.2115   20.3109 C   0  0  0  0  0  0
  -21.6852   -6.0693   22.5285 C   0  0  0  0  0  0
  -21.4023   -6.5622   23.8212 C   0  0  0  0  0  0
  -21.3667   -5.6795   24.9194 C   0  0  0  0  0  0
  -21.6043   -4.3050   24.7262 C   0  0  0  0  0  0
  -21.8827   -3.8122   23.4390 C   0  0  0  0  0  0
  -21.9188   -4.6917   22.3431 C   0  0  0  0  0  0
  -22.7812  -13.5226   21.1869 C   0  0  0  0  0  0
  -22.1662   -4.2086   21.1014 F   0  0  0  0  0  0
  -21.5646   -3.4550   25.7787 F   0  0  0  0  0  0
  -29.9991  -13.3863   20.4126 N   0  0  0  0  0  0
  -26.2962  -12.9305   20.3443 N   0  0  0  0  0  0
  -25.9279  -11.6467   20.5806 N   0  0  0  0  0  0
  -22.0442  -12.8220   22.0430 N   0  0  0  0  0  0
  -25.4333  -15.1846   20.4178 N   0  0  0  0  0  0
  -31.8469  -14.6606   20.2085 O   0  0  0  0  0  0
  -21.6634   -6.8827   21.4235 O   0  0  0  0  0  0
  -22.3526  -14.5548   20.6734 O   0  0  0  0  0  0
  -24.6197  -31.8646   23.2035 C   0  0  0  0  0  0
  -25.9075  -32.4792   23.8340 C   0  0  1  0  0  0
  -27.2337  -27.3881   20.0963 C   0  0  0  0  0  0
  -25.5927  -33.8593   24.2274 N   0  0  0  0  0  0
  -23.4090  -30.4876   21.5447 C   0  0  2  0  0  0
  -24.8544  -28.9447   20.1126 C   0  0  0  0  0  0
  -22.7426  -29.4668   22.4957 C   0  0  0  0  0  0
  -18.0286  -28.1400   22.8482 C   0  0  0  0  0  0
  -24.1505  -36.7301   23.2624 C   0  0  0  0  0  0
  -25.9427  -30.8138   21.3647 C   0  0  0  0  0  0
  -26.0169  -29.4457   20.7098 C   0  0  0  0  0  0
  -27.2061  -28.6725   20.7021 C   0  0  0  0  0  0
  -26.0454  -26.9092   19.5073 C   0  0  0  0  0  0
  -24.8637  -27.6744   19.5122 C   0  0  0  0  0  0
  -23.6186  -29.8151   20.1616 C   0  0  0  0  0  0
  -25.4119  -36.3084   24.0319 C   0  0  1  0  0  0
  -20.5877  -28.3701   23.1296 C   0  0  2  0  0  0
  -20.6793  -26.9436   22.5411 C   0  0  0  0  0  0
  -19.5776  -26.6403   21.5212 C   0  0  0  0  0  0
  -18.1944  -26.7947   22.1612 C   0  0  0  0  0  0
  -19.1535  -28.8861   23.2886 C   0  0  0  0  0  0
  -18.9463  -30.1463   23.8903 C   0  0  0  0  0  0
  -17.6469  -30.6603   24.0571 C   0  0  0  0  0  0
  -25.9061  -34.9460   23.5093 C   0  0  0  0  0  0
  -16.5360  -29.9105   23.6339 C   0  0  0  0  0  0
  -16.7273  -28.6521   23.0349 C   0  0  0  0  0  0
  -26.4486  -31.6578   25.0690 C   0  0  0  0  0  0
  -25.3719  -31.3706   26.1413 C   0  0  0  0  0  0
  -27.0327  -30.3007   24.6111 C   0  0  0  0  0  0
  -27.6063  -32.4287   25.7454 C   0  0  0  0  0  0
  -27.5604  -37.1776   24.8433 C   0  0  0  0  0  0
  -21.4146  -29.3054   22.3680 N   0  0  0  0  0  0
  -26.4284  -37.3791   23.9432 N   0  0  0  0  0  0
  -24.6751  -31.0713   22.0949 N   0  0  0  0  0  0
  -23.4167  -28.8226   23.3040 O   0  0  0  0  0  0
  -28.3924  -26.6249   20.1447 O   0  0  0  0  0  0
  -26.5631  -34.8926   22.4664 O   0  0  0  0  0  0
  -23.5379  -32.1425   23.7412 O   0  0  0  0  0  0
  -29.4134  -23.4660   20.4574 C   0  0  0  0  0  0
  -27.6063  -23.2042   18.8469 C   0  0  0  0  0  0
  -28.5029  -24.0739   19.5399 C   0  0  0  0  0  0
  -29.5289  -22.0374   20.5759 C   0  0  0  0  0  0
  -27.6200  -21.7965   19.0882 C   0  0  0  0  0  0
  -28.5985  -21.1707   19.9121 C   0  0  0  0  0  0
  -28.3416  -17.6453   21.1774 C   0  0  0  0  0  0
  -30.4532  -18.1921   19.9437 C   0  0  0  0  0  0
  -29.0833  -16.3093   21.5261 C   0  0  0  0  0  0
  -30.2001  -16.7568   19.3773 C   0  0  0  0  0  0
  -29.2660  -18.8073   20.7304 C   0  0  0  0  0  0
  -30.3154  -24.3710   21.2984 C   0  0  0  0  0  0
  -26.6111  -23.7235   17.8027 C   0  0  0  0  0  0
  -30.7015  -21.4738   21.3761 C   0  0  0  0  0  0
  -26.5718  -20.9208   18.3941 C   0  0  0  0  0  0
  -28.6570  -25.5922   19.1611 C   0  0  0  0  0  0
  -29.8800  -15.7327   20.4119 N   0  0  0  0  0  0
  -28.5160  -19.7623   19.9339 O   0  0  0  0  0  0
  -31.4655  -12.4894   19.1221 H   0  0  0  0  0  0
  -30.3660  -11.3667   19.8661 H   0  0  0  0  0  0
  -29.7400  -11.7559   17.4565 H   0  0  0  0  0  0
  -29.6437  -13.4723   17.7383 H   0  0  0  0  0  0
  -27.8308  -11.3039   18.8373 H   0  0  0  0  0  0
  -27.3622  -12.6205   17.7946 H   0  0  0  0  0  0
  -27.6792  -14.2546   19.5631 H   0  0  0  0  0  0
  -28.7153  -11.9792   21.3188 H   0  0  0  0  0  0
  -28.4697  -13.5784   21.8939 H   0  0  0  0  0  0
  -25.2718   -9.5639   22.4843 H   0  0  0  0  0  0
  -23.9966   -7.4586   22.7510 H   0  0  0  0  0  0
  -21.0848   -8.8729   19.8971 H   0  0  0  0  0  0
  -22.3686  -10.9650   19.6223 H   0  0  0  0  0  0
  -21.2039   -7.6142   23.9697 H   0  0  0  0  0  0
  -21.1514   -6.0548   25.9090 H   0  0  0  0  0  0
  -22.0618   -2.7574   23.2927 H   0  0  0  0  0  0
  -22.3983  -11.9811   22.4733 H   0  0  0  0  0  0
  -21.1097  -13.1307   22.2730 H   0  0  0  0  0  0
  -24.6776  -15.8518   20.5265 H   0  0  0  0  0  0
  -26.3020  -15.6108   20.1206 H   0  0  0  0  0  0
  -26.7143  -32.5490   23.1096 H   0  0  0  0  0  0
  -25.0063  -33.9734   25.0407 H   0  0  0  0  0  0
  -22.7007  -31.3060   21.4009 H   0  0  0  0  0  0
  -23.3799  -35.9598   23.3189 H   0  0  0  0  0  0
  -24.3618  -36.9033   22.2060 H   0  0  0  0  0  0
  -23.7221  -37.6449   23.6723 H   0  0  0  0  0  0
  -26.0650  -31.5794   20.5979 H   0  0  0  0  0  0
  -26.8265  -30.8622   21.9885 H   0  0  0  0  0  0
  -28.1026  -29.0546   21.1691 H   0  0  0  0  0  0
  -26.0063  -25.9246   19.0767 H   0  0  0  0  0  0
  -23.9635  -27.2705   19.0695 H   0  0  0  0  0  0
  -23.7304  -30.5854   19.3986 H   0  0  0  0  0  0
  -22.7420  -29.2349   19.8684 H   0  0  0  0  0  0
  -25.1293  -36.1910   25.0805 H   0  0  0  0  0  0
  -20.9963  -28.3300   24.1419 H   0  0  0  0  0  0
  -20.5737  -26.2306   23.3603 H   0  0  0  0  0  0
  -21.6668  -26.7515   22.1194 H   0  0  0  0  0  0
  -19.6956  -25.6315   21.1243 H   0  0  0  0  0  0
  -19.6722  -27.3205   20.6734 H   0  0  0  0  0  0
  -17.4225  -26.6695   21.3998 H   0  0  0  0  0  0
  -18.0340  -26.0086   22.9000 H   0  0  0  0  0  0
  -19.7940  -30.7278   24.2269 H   0  0  0  0  0  0
  -17.5032  -31.6284   24.5180 H   0  0  0  0  0  0
  -15.5360  -30.3016   23.7665 H   0  0  0  0  0  0
  -15.8665  -28.0847   22.7061 H   0  0  0  0  0  0
  -24.5878  -30.7082   25.7712 H   0  0  0  0  0  0
  -24.8928  -32.2877   26.4849 H   0  0  0  0  0  0
  -25.8033  -30.8844   27.0169 H   0  0  0  0  0  0
  -26.2882  -29.6739   24.1184 H   0  0  0  0  0  0
  -27.4093  -29.7279   25.4594 H   0  0  0  0  0  0
  -27.8720  -30.4298   23.9273 H   0  0  0  0  0  0
  -27.2704  -33.3596   26.2033 H   0  0  0  0  0  0
  -28.3877  -32.6816   25.0272 H   0  0  0  0  0  0
  -28.0725  -31.8393   26.5364 H   0  0  0  0  0  0
  -28.2513  -38.0181   24.7654 H   0  0  0  0  0  0
  -28.1222  -36.2729   24.6052 H   0  0  0  0  0  0
  -27.2349  -37.1157   25.8830 H   0  0  0  0  0  0
  -20.9322  -29.8714   21.6837 H   0  0  0  0  0  0
  -26.0157  -38.2838   24.1544 H   0  0  0  0  0  0
  -27.7527  -17.9681   22.0372 H   0  0  0  0  0  0
  -27.6103  -17.4447   20.3937 H   0  0  0  0  0  0
  -30.7566  -18.8667   19.1425 H   0  0  0  0  0  0
  -31.3107  -18.1391   20.6145 H   0  0  0  0  0  0
  -28.3213  -15.6185   21.8682 H   0  0  0  0  0  0
  -29.7521  -16.4749   22.3725 H   0  0  0  0  0  0
  -31.0597  -16.4651   18.7708 H   0  0  0  0  0  0
  -29.3707  -16.7815   18.6704 H   0  0  0  0  0  0
  -29.6101  -19.2593   21.6526 H   0  0  0  0  0  0
  -29.8420  -25.3200   21.5362 H   0  0  0  0  0  0
  -31.2527  -24.5742   20.7826 H   0  0  0  0  0  0
  -30.5372  -23.9360   22.2732 H   0  0  0  0  0  0
  -26.8180  -24.7005   17.3824 H   0  0  0  0  0  0
  -25.6048  -23.7516   18.2242 H   0  0  0  0  0  0
  -26.5918  -23.0665   16.9335 H   0  0  0  0  0  0
  -31.5299  -22.1710   21.4776 H   0  0  0  0  0  0
  -31.1495  -20.6234   20.8685 H   0  0  0  0  0  0
  -30.3878  -21.1873   22.3796 H   0  0  0  0  0  0
  -25.5807  -21.3703   18.4607 H   0  0  0  0  0  0
  -26.4667  -19.9268   18.8269 H   0  0  0  0  0  0
  -26.8219  -20.7935   17.3406 H   0  0  0  0  0  0
  -28.2200  -25.8712   18.2102 H   0  0  0  0  0  0
  -29.7203  -25.7044   18.9469 H   0  0  0  0  0  0
  1 25  1  0  0  0
  1 30  2  0  0  0
  1 87  1  0  0  0
  2  3  1  0  0  0
  2 25  1  0  0  0
  2 89  1  0  0  0
  2 90  1  0  0  0
  3  4  1  0  0  0
  3 91  1  0  0  0
  3 92  1  0  0  0
  4  5  1  0  0  0
  4 93  1  0  0  0
  4 94  1  0  0  0
  5  6  1  0  0  0
  5 26  1  0  0  0
  5 95  1  0  0  0
  6 25  1  0  0  0
  6 96  1  0  0  0
  6 97  1  0  0  0
  7  8  2  0  0  0
  7 26  1  0  0  0
  7 29  1  0  0  0
  8  9  1  0  0  0
  8 22  1  0  0  0
  9 10  1  0  0  0
  9 27  2  0  0  0
 10 11  2  0  0  0
 10 15  1  0  0  0
 11 12  1  0  0  0
 11 98  1  0  0  0
 12 13  2  0  0  0
 12 99  1  0  0  0
 13 14  1  0  0  0
 13 31  1  0  0  0
 14 15  2  0  0  0
 14100  1  0  0  0
 15101  1  0  0  0
 16 17  2  0  0  0
 16 21  1  0  0  0
 16 31  1  0  0  0
 17 18  1  0  0  0
 17102  1  0  0  0
 18 19  2  0  0  0
 18103  1  0  0  0
 19 20  1  0  0  0
 19 24  1  0  0  0
 20 21  2  0  0  0
 20104  1  0  0  0
 21 23  1  0  0  0
 22 28  1  0  0  0
 22 32  2  0  0  0
 26 27  1  0  0  0
 28105  1  0  0  0
 28106  1  0  0  0
 29107  1  0  0  0
 29108  1  0  0  0
 33 34  1  0  0  0
 33 66  1  0  0  0
 33 70  2  0  0  0
 34 36  1  0  0  0
 34 59  1  0  0  0
 34109  1  0  0  0
 35 44  2  0  0  0
 35 45  1  0  0  0
 35 68  1  0  0  0
 36 56  1  0  0  0
 36110  1  0  0  0
 37 39  1  0  0  0
 37 47  1  0  0  0
 37 66  1  0  0  0
 37111  1  0  0  0
 38 43  2  0  0  0
 38 46  1  0  0  0
 38 47  1  0  0  0
 39 64  1  0  0  0
 39 67  2  0  0  0
 40 52  1  0  0  0
 40 53  2  0  0  0
 40 58  1  0  0  0
 41112  1  0  0  0
 41113  1  0  0  0
 41114  1  0  0  0
 41 48  1  0  0  0
 42 43  1  0  0  0
 42 66  1  0  0  0
 42115  1  0  0  0
 42116  1  0  0  0
 43 44  1  0  0  0
 44117  1  0  0  0
 45 46  2  0  0  0
 45118  1  0  0  0
 46119  1  0  0  0
 47120  1  0  0  0
 47121  1  0  0  0
 48 56  1  0  0  0
 48 65  1  0  0  0
 48122  1  0  0  0
 49 50  1  0  0  0
 49 53  1  0  0  0
 49 64  1  0  0  0
 49123  1  0  0  0
 50 51  1  0  0  0
 50124  1  0  0  0
 50125  1  0  0  0
 51 52  1  0  0  0
 51126  1  0  0  0
 51127  1  0  0  0
 52128  1  0  0  0
 52129  1  0  0  0
 53 54  1  0  0  0
 54 55  2  0  0  0
 54130  1  0  0  0
 55 57  1  0  0  0
 55131  1  0  0  0
 56 69  2  0  0  0
 57 58  2  0  0  0
 57132  1  0  0  0
 58133  1  0  0  0
 59 60  1  0  0  0
 59 61  1  0  0  0
 59 62  1  0  0  0
 60134  1  0  0  0
 60135  1  0  0  0
 60136  1  0  0  0
 61137  1  0  0  0
 61138  1  0  0  0
 61139  1  0  0  0
 62140  1  0  0  0
 62141  1  0  0  0
 62142  1  0  0  0
 63 65  1  0  0  0
 63143  1  0  0  0
 63144  1  0  0  0
 63145  1  0  0  0
 64146  1  0  0  0
 65147  1  0  0  0
 68 86  1  0  0  0
 71 73  2  0  0  0
 71 74  1  0  0  0
 71 82  1  0  0  0
 72 73  1  0  0  0
 72 75  2  0  0  0
 72 83  1  0  0  0
 73 86  1  0  0  0
 74 76  2  0  0  0
 74 84  1  0  0  0
 75 76  1  0  0  0
 75 85  1  0  0  0
 76 88  1  0  0  0
 77 79  1  0  0  0
 77 81  1  0  0  0
 77148  1  0  0  0
 77149  1  0  0  0
 78 80  1  0  0  0
 78 81  1  0  0  0
 78150  1  0  0  0
 78151  1  0  0  0
 79 87  1  0  0  0
 79152  1  0  0  0
 79153  1  0  0  0
 80 87  1  0  0  0
 80154  1  0  0  0
 80155  1  0  0  0
 81 88  1  0  0  0
 81156  1  0  0  0
 82157  1  0  0  0
 82158  1  0  0  0
 82159  1  0  0  0
 83160  1  0  0  0
 83161  1  0  0  0
 83162  1  0  0  0
 84163  1  0  0  0
 84164  1  0  0  0
 84165  1  0  0  0
 85166  1  0  0  0
 85167  1  0  0  0
 85168  1  0  0  0
 86169  1  0  0  0
 86170  1  0  0  0
M  ISO  4   1 100  68 101  86 101  87 100
M  END
> <chiral flag>
0

> <version>
0

> <s_m_source_file>
/data/baiqing/PycharmProjects/Reinvent-master-3.2/result/LINK_invent/BTK/process_docking_weight1_custom_sum_contain_oxygen_bond_distance_aromatic_linkinvent_7_9_3/rearranged_h_0160.sdf

> <i_m_source_file_index>
69

> <r_mmod_Potential_Energy-OPLS-2005>
335.767059326172

> <r_mmod_Stretch_Energy-OPLS-2005>
72.9411697387695

> <r_mmod_Bend_Energy-OPLS-2005>
181.01725769043

> <r_mmod_Torsional_Energy-OPLS-2005>
350.801177978516

> <r_mmod_Improper_Torsional_Energy-OPLS-2005>
19.014066696167

> <r_mmod_Van_der_Waal_Energy-OPLS-2005>
187.453170776367

> <r_mmod_Electrostatic_Energy-OPLS-2005>
-309.687377929688

> <r_mmod_Solvation_Energy-OPLS-2005>
-196.659133911133

> <b_mmod_Minimization_Converged-OPLS-2005>
0

> <r_mmod_RMS_Derivative-OPLS-2005>
2.52728366851807

$$$$
69
                    3D
 Structure written by MMmdl.
170179  0  0  1  0            999 V2000
  -30.6626  -14.4734   20.5873 C   0  0  0  0  0  0
  -30.4415  -12.3193   19.4100 C   0  0  0  0  0  0
  -29.5008  -12.5312   18.2018 C   0  0  0  0  0  0
  -28.0194  -12.3790   18.6161 C   0  0  0  0  0  0
  -27.6688  -13.1860   19.8934 C   0  0  2  0  0  0
  -28.7182  -12.8942   20.9940 C   0  0  0  0  0  0
  -25.2683  -13.8086   20.5689 C   0  0  0  0  0  0
  -24.1896  -13.0391   20.9171 C   0  0  0  0  0  0
  -24.6413  -11.6857   20.8755 C   0  0  0  0  0  0
  -23.9049  -10.4247   21.0422 C   0  0  0  0  0  0
  -24.3585   -9.4172   21.9213 C   0  0  0  0  0  0
  -23.6272   -8.2212   22.0748 C   0  0  0  0  0  0
  -22.4253   -8.0249   21.3537 C   0  0  0  0  0  0
  -21.9906   -9.0224   20.4645 C   0  0  0  0  0  0
  -22.7225  -10.2114   20.3073 C   0  0  0  0  0  0
  -21.6825   -6.0721   22.5279 C   0  0  0  0  0  0
  -21.3991   -6.5621   23.8199 C   0  0  0  0  0  0
  -21.3664   -5.6780   24.9162 C   0  0  0  0  0  0
  -21.6056   -4.3050   24.7237 C   0  0  0  0  0  0
  -21.8816   -3.8134   23.4350 C   0  0  0  0  0  0
  -21.9186   -4.6944   22.3403 C   0  0  0  0  0  0
  -22.7953  -13.5271   21.1856 C   0  0  0  0  0  0
  -22.1666   -4.2125   21.0986 F   0  0  0  0  0  0
  -21.5651   -3.4532   25.7755 F   0  0  0  0  0  0
  -30.0282  -13.2732   20.4526 N   0  0  0  0  0  0
  -26.3067  -12.9197   20.3460 N   0  0  0  0  0  0
  -25.9327  -11.6369   20.5785 N   0  0  0  0  0  0
  -22.0548  -12.8273   22.0376 N   0  0  0  0  0  0
  -25.4531  -15.1780   20.4091 N   0  0  0  0  0  0
  -31.8316  -14.6264   20.2160 O   0  0  0  0  0  0
  -21.6614   -6.8852   21.4232 O   0  0  0  0  0  0
  -22.3672  -14.5566   20.6681 O   0  0  0  0  0  0
  -24.6138  -31.8672   23.2104 C   0  0  0  0  0  0
  -25.9046  -32.4801   23.8386 C   0  0  1  0  0  0
  -27.2362  -27.4415   20.0681 C   0  0  0  0  0  0
  -25.5926  -33.8603   24.2301 N   0  0  0  0  0  0
  -23.3976  -30.4908   21.5540 C   0  0  2  0  0  0
  -24.8412  -28.9570   20.1158 C   0  0  0  0  0  0
  -22.7381  -29.4641   22.5003 C   0  0  0  0  0  0
  -18.0267  -28.1389   22.8484 C   0  0  0  0  0  0
  -24.1505  -36.7298   23.2627 C   0  0  0  0  0  0
  -25.9274  -30.8308   21.3651 C   0  0  0  0  0  0
  -26.0016  -29.4675   20.7080 C   0  0  0  0  0  0
  -27.1982  -28.7161   20.6844 C   0  0  0  0  0  0
  -26.0485  -26.9384   19.4880 C   0  0  0  0  0  0
  -24.8595  -27.6901   19.5111 C   0  0  0  0  0  0
  -23.6041  -29.8240   20.1667 C   0  0  0  0  0  0
  -25.4135  -36.3079   24.0307 C   0  0  1  0  0  0
  -20.5860  -28.3680   23.1335 C   0  0  2  0  0  0
  -20.6767  -26.9416   22.5423 C   0  0  0  0  0  0
  -19.5739  -26.6392   21.5219 C   0  0  0  0  0  0
  -18.1914  -26.7929   22.1633 C   0  0  0  0  0  0
  -19.1511  -28.8841   23.2912 C   0  0  0  0  0  0
  -18.9447  -30.1450   23.8920 C   0  0  0  0  0  0
  -17.6444  -30.6597   24.0564 C   0  0  0  0  0  0
  -25.9066  -34.9455   23.5091 C   0  0  0  0  0  0
  -16.5343  -29.9106   23.6313 C   0  0  0  0  0  0
  -16.7251  -28.6522   23.0323 C   0  0  0  0  0  0
  -26.4500  -31.6565   25.0717 C   0  0  0  0  0  0
  -25.3758  -31.3712   26.1447 C   0  0  0  0  0  0
  -27.0305  -30.2990   24.6103 C   0  0  0  0  0  0
  -27.6068  -32.4273   25.7504 C   0  0  0  0  0  0
  -27.5594  -37.1807   24.8470 C   0  0  0  0  0  0
  -21.4115  -29.3049   22.3748 N   0  0  0  0  0  0
  -26.4312  -37.3760   23.9394 N   0  0  0  0  0  0
  -24.6640  -31.0760   22.1026 N   0  0  0  0  0  0
  -23.4166  -28.8163   23.3013 O   0  0  0  0  0  0
  -28.4402  -26.7645   20.0413 O   0  0  0  0  0  0
  -26.5603  -34.8919   22.4654 O   0  0  0  0  0  0
  -23.5334  -32.1464   23.7504 O   0  0  0  0  0  0
  -30.9455  -21.0522   21.2903 C   0  0  0  0  0  0
  -31.5588  -22.3168   21.3392 C   0  0  0  0  0  0
  -30.7441  -23.4775   21.3095 C   0  0  0  0  0  0
  -29.3396  -23.3071   21.1566 C   0  0  0  0  0  0
  -29.5487  -20.9730   21.1744 C   0  0  0  0  0  0
  -30.2411  -17.9907   19.9982 C   0  0  0  0  0  0
  -28.4740  -17.3937   21.7199 C   0  0  0  0  0  0
  -29.9132  -16.5534   19.5356 C   0  0  0  0  0  0
  -29.0802  -15.9778   21.8266 C   0  0  0  0  0  0
  -29.5027  -18.4445   21.2777 C   0  0  0  0  0  0
  -33.0776  -22.3885   21.4019 C   0  0  0  0  0  0
  -31.3625  -24.8672   21.4854 C   0  0  0  0  0  0
  -28.2346  -25.3053   22.3718 C   0  0  0  0  0  0
  -28.4899  -25.3482   19.7848 C   0  0  0  0  0  0
  -28.3394  -24.4846   21.0699 C   0  0  1  0  0  0
  -28.7766  -22.0730   21.0972 N   0  0  0  0  0  0
  -29.8344  -15.5554   20.6255 N   0  0  0  0  0  0
  -28.8603  -19.7533   21.1212 N   0  0  0  0  0  0
  -31.4840  -12.4526   19.1183 H   0  0  0  0  0  0
  -30.3759  -11.2961   19.7799 H   0  0  0  0  0  0
  -29.7424  -11.8182   17.4109 H   0  0  0  0  0  0
  -29.6689  -13.5203   17.7694 H   0  0  0  0  0  0
  -27.8345  -11.3180   18.7894 H   0  0  0  0  0  0
  -27.3647  -12.6695   17.7939 H   0  0  0  0  0  0
  -27.7266  -14.2401   19.6299 H   0  0  0  0  0  0
  -28.7212  -11.8292   21.2225 H   0  0  0  0  0  0
  -28.5082  -13.3461   21.9587 H   0  0  0  0  0  0
  -25.2714   -9.5620   22.4804 H   0  0  0  0  0  0
  -23.9952   -7.4579   22.7457 H   0  0  0  0  0  0
  -21.0835   -8.8735   19.8954 H   0  0  0  0  0  0
  -22.3673  -10.9647   19.6186 H   0  0  0  0  0  0
  -21.1948   -7.6120   23.9692 H   0  0  0  0  0  0
  -21.1519   -6.0519   25.9067 H   0  0  0  0  0  0
  -22.0606   -2.7595   23.2855 H   0  0  0  0  0  0
  -22.4103  -11.9909   22.4771 H   0  0  0  0  0  0
  -21.1180  -13.1320   22.2572 H   0  0  0  0  0  0
  -24.6969  -15.8477   20.4877 H   0  0  0  0  0  0
  -26.3276  -15.5920   20.1125 H   0  0  0  0  0  0
  -26.7110  -32.5495   23.1140 H   0  0  0  0  0  0
  -25.0119  -33.9800   25.0463 H   0  0  0  0  0  0
  -22.6865  -31.3077   21.4167 H   0  0  0  0  0  0
  -23.3771  -35.9637   23.3293 H   0  0  0  0  0  0
  -24.3598  -36.8923   22.2043 H   0  0  0  0  0  0
  -23.7276  -37.6514   23.6652 H   0  0  0  0  0  0
  -26.0360  -31.5964   20.5970 H   0  0  0  0  0  0
  -26.8155  -30.8814   21.9815 H   0  0  0  0  0  0
  -28.0957  -29.1154   21.1381 H   0  0  0  0  0  0
  -26.0059  -25.9813   18.9940 H   0  0  0  0  0  0
  -23.9642  -27.2840   19.0597 H   0  0  0  0  0  0
  -23.7163  -30.6036   19.4137 H   0  0  0  0  0  0
  -22.7282  -29.2492   19.8611 H   0  0  0  0  0  0
  -25.1313  -36.1933   25.0802 H   0  0  0  0  0  0
  -20.9933  -28.3233   24.1465 H   0  0  0  0  0  0
  -20.5692  -26.2267   23.3612 H   0  0  0  0  0  0
  -21.6640  -26.7473   22.1202 H   0  0  0  0  0  0
  -19.6927  -25.6307   21.1233 H   0  0  0  0  0  0
  -19.6693  -27.3217   20.6770 H   0  0  0  0  0  0
  -17.4185  -26.6633   21.4048 H   0  0  0  0  0  0
  -18.0359  -26.0090   22.9058 H   0  0  0  0  0  0
  -19.7927  -30.7243   24.2309 H   0  0  0  0  0  0
  -17.5018  -31.6286   24.5163 H   0  0  0  0  0  0
  -15.5348  -30.3024   23.7646 H   0  0  0  0  0  0
  -15.8648  -28.0872   22.7022 H   0  0  0  0  0  0
  -24.5916  -30.7086   25.7776 H   0  0  0  0  0  0
  -24.8988  -32.2903   26.4864 H   0  0  0  0  0  0
  -25.8094  -30.8885   27.0213 H   0  0  0  0  0  0
  -26.2857  -29.6795   24.1101 H   0  0  0  0  0  0
  -27.3992  -29.7182   25.4574 H   0  0  0  0  0  0
  -27.8728  -30.4294   23.9299 H   0  0  0  0  0  0
  -27.2668  -33.3543   26.2153 H   0  0  0  0  0  0
  -28.3878  -32.6875   25.0335 H   0  0  0  0  0  0
  -28.0747  -31.8345   26.5387 H   0  0  0  0  0  0
  -28.2587  -38.0113   24.7481 H   0  0  0  0  0  0
  -28.1088  -36.2638   24.6314 H   0  0  0  0  0  0
  -27.2285  -37.1463   25.8861 H   0  0  0  0  0  0
  -20.9273  -29.8794   21.6999 H   0  0  0  0  0  0
  -26.0186  -38.2838   24.1409 H   0  0  0  0  0  0
  -31.5562  -20.1606   21.3445 H   0  0  0  0  0  0
  -30.0310  -18.6712   19.1693 H   0  0  0  0  0  0
  -31.3159  -18.0708   20.1708 H   0  0  0  0  0  0
  -28.0437  -17.6754   22.6826 H   0  0  0  0  0  0
  -27.6413  -17.3690   21.0141 H   0  0  0  0  0  0
  -28.9482  -16.5517   19.0283 H   0  0  0  0  0  0
  -30.6301  -16.2613   18.7641 H   0  0  0  0  0  0
  -28.2265  -15.3346   22.0146 H   0  0  0  0  0  0
  -29.7325  -15.9113   22.7013 H   0  0  0  0  0  0
  -30.2383  -18.5105   22.0803 H   0  0  0  0  0  0
  -33.4186  -22.6786   22.4002 H   0  0  0  0  0  0
  -33.4462  -23.1046   20.6686 H   0  0  0  0  0  0
  -33.5322  -21.4341   21.1404 H   0  0  0  0  0  0
  -32.4435  -24.8866   21.3833 H   0  0  0  0  0  0
  -31.1385  -25.2365   22.4849 H   0  0  0  0  0  0
  -30.9879  -25.5936   20.7690 H   0  0  0  0  0  0
  -29.0775  -25.9827   22.5086 H   0  0  0  0  0  0
  -28.1757  -24.6521   23.2391 H   0  0  0  0  0  0
  -27.3323  -25.9211   22.3693 H   0  0  0  0  0  0
  -27.8133  -25.0092   19.0030 H   0  0  0  0  0  0
  -29.4621  -25.1574   19.3364 H   0  0  0  0  0  0
  -27.3534  -24.0283   20.9715 H   0  0  0  0  0  0
  -27.8516  -19.7753   21.0141 H   0  0  0  0  0  0
  1 25  1  0  0  0
  1 30  2  0  0  0
  1 87  1  0  0  0
  2  3  1  0  0  0
  2 25  1  0  0  0
  2 89  1  0  0  0
  2 90  1  0  0  0
  3  4  1  0  0  0
  3 91  1  0  0  0
  3 92  1  0  0  0
  4  5  1  0  0  0
  4 93  1  0  0  0
  4 94  1  0  0  0
  5  6  1  0  0  0
  5 26  1  0  0  0
  5 95  1  0  0  0
  6 25  1  0  0  0
  6 96  1  0  0  0
  6 97  1  0  0  0
  7  8  2  0  0  0
  7 26  1  0  0  0
  7 29  1  0  0  0
  8  9  1  0  0  0
  8 22  1  0  0  0
  9 10  1  0  0  0
  9 27  2  0  0  0
 10 11  2  0  0  0
 10 15  1  0  0  0
 11 12  1  0  0  0
 11 98  1  0  0  0
 12 13  2  0  0  0
 12 99  1  0  0  0
 13 14  1  0  0  0
 13 31  1  0  0  0
 14 15  2  0  0  0
 14100  1  0  0  0
 15101  1  0  0  0
 16 17  2  0  0  0
 16 21  1  0  0  0
 16 31  1  0  0  0
 17 18  1  0  0  0
 17102  1  0  0  0
 18 19  2  0  0  0
 18103  1  0  0  0
 19 20  1  0  0  0
 19 24  1  0  0  0
 20 21  2  0  0  0
 20104  1  0  0  0
 21 23  1  0  0  0
 22 28  1  0  0  0
 22 32  2  0  0  0
 26 27  1  0  0  0
 28105  1  0  0  0
 28106  1  0  0  0
 29107  1  0  0  0
 29108  1  0  0  0
 33 34  1  0  0  0
 33 66  1  0  0  0
 33 70  2  0  0  0
 34 36  1  0  0  0
 34 59  1  0  0  0
 34109  1  0  0  0
 35 44  2  0  0  0
 35 45  1  0  0  0
 35 68  1  0  0  0
 36 56  1  0  0  0
 36110  1  0  0  0
 37 39  1  0  0  0
 37 47  1  0  0  0
 37 66  1  0  0  0
 37111  1  0  0  0
 38 43  2  0  0  0
 38 46  1  0  0  0
 38 47  1  0  0  0
 39 64  1  0  0  0
 39 67  2  0  0  0
 40 52  1  0  0  0
 40 53  2  0  0  0
 40 58  1  0  0  0
 41112  1  0  0  0
 41113  1  0  0  0
 41114  1  0  0  0
 41 48  1  0  0  0
 42 43  1  0  0  0
 42 66  1  0  0  0
 42115  1  0  0  0
 42116  1  0  0  0
 43 44  1  0  0  0
 44117  1  0  0  0
 45 46  2  0  0  0
 45118  1  0  0  0
 46119  1  0  0  0
 47120  1  0  0  0
 47121  1  0  0  0
 48 56  1  0  0  0
 48 65  1  0  0  0
 48122  1  0  0  0
 49 50  1  0  0  0
 49 53  1  0  0  0
 49 64  1  0  0  0
 49123  1  0  0  0
 50 51  1  0  0  0
 50124  1  0  0  0
 50125  1  0  0  0
 51 52  1  0  0  0
 51126  1  0  0  0
 51127  1  0  0  0
 52128  1  0  0  0
 52129  1  0  0  0
 53 54  1  0  0  0
 54 55  2  0  0  0
 54130  1  0  0  0
 55 57  1  0  0  0
 55131  1  0  0  0
 56 69  2  0  0  0
 57 58  2  0  0  0
 57132  1  0  0  0
 58133  1  0  0  0
 59 60  1  0  0  0
 59 61  1  0  0  0
 59 62  1  0  0  0
 60134  1  0  0  0
 60135  1  0  0  0
 60136  1  0  0  0
 61137  1  0  0  0
 61138  1  0  0  0
 61139  1  0  0  0
 62140  1  0  0  0
 62141  1  0  0  0
 62142  1  0  0  0
 63 65  1  0  0  0
 63143  1  0  0  0
 63144  1  0  0  0
 63145  1  0  0  0
 64146  1  0  0  0
 65147  1  0  0  0
 68 84  1  0  0  0
 71 72  2  0  0  0
 71 75  1  0  0  0
 71148  1  0  0  0
 72 73  1  0  0  0
 72 81  1  0  0  0
 73 74  2  0  0  0
 73 82  1  0  0  0
 74 85  1  0  0  0
 74 86  1  0  0  0
 75 86  2  0  0  0
 75 88  1  0  0  0
 76 78  1  0  0  0
 76 80  1  0  0  0
 76149  1  0  0  0
 76150  1  0  0  0
 77 79  1  0  0  0
 77 80  1  0  0  0
 77151  1  0  0  0
 77152  1  0  0  0
 78 87  1  0  0  0
 78153  1  0  0  0
 78154  1  0  0  0
 79 87  1  0  0  0
 79155  1  0  0  0
 79156  1  0  0  0
 80 88  1  0  0  0
 80157  1  0  0  0
 81158  1  0  0  0
 81159  1  0  0  0
 81160  1  0  0  0
 82161  1  0  0  0
 82162  1  0  0  0
 82163  1  0  0  0
 83164  1  0  0  0
 83165  1  0  0  0
 83166  1  0  0  0
 83 85  1  0  0  0
 84 85  1  0  0  0
 84167  1  0  0  0
 84168  1  0  0  0
 85169  1  0  0  0
 88170  1  0  0  0
M  ISO  4   1 100  68 101  84 101  87 100
M  END
> <chiral flag>
0

> <version>
0

> <s_m_source_file>
/data/baiqing/PycharmProjects/Reinvent-master-3.2/result/LINK_invent/BTK/process_docking_weight1_custom_sum_contain_oxygen_bond_distance_aromatic_linkinvent_7_9_3/rearranged_h_0160.sdf

> <i_m_source_file_index>
70

> <r_mmod_Potential_Energy-OPLS-2005>
2.80370879173279

> <r_mmod_Stretch_Energy-OPLS-2005>
43.5960540771484

> <r_mmod_Bend_Energy-OPLS-2005>
136.533721923828

> <r_mmod_Torsional_Energy-OPLS-2005>
334.805358886719

> <r_mmod_Improper_Torsional_Energy-OPLS-2005>
17.745813369751

> <r_mmod_Van_der_Waal_Energy-OPLS-2005>
176.843551635742

> <r_mmod_Electrostatic_Energy-OPLS-2005>
-508.528869628906

> <r_mmod_Solvation_Energy-OPLS-2005>
-213.499374389648

> <b_mmod_Minimization_Converged-OPLS-2005>
0

> <r_mmod_RMS_Derivative-OPLS-2005>
5.44230937957764

$$$$
70
                    3D
 Structure written by MMmdl.
180189  0  0  1  0            999 V2000
  -30.7447  -14.5293   20.2712 C   0  0  0  0  0  0
  -30.4173  -12.2850   19.3911 C   0  0  0  0  0  0
  -29.4733  -12.3970   18.1764 C   0  0  0  0  0  0
  -28.0027  -12.3025   18.6232 C   0  0  0  0  0  0
  -27.6535  -13.2045   19.8380 C   0  0  2  0  0  0
  -28.7370  -13.1362   20.9408 C   0  0  0  0  0  0
  -25.2651  -13.8176   20.5730 C   0  0  0  0  0  0
  -24.1888  -13.0459   20.9230 C   0  0  0  0  0  0
  -24.6424  -11.6924   20.8798 C   0  0  0  0  0  0
  -23.9077  -10.4315   21.0433 C   0  0  0  0  0  0
  -24.3618   -9.4221   21.9208 C   0  0  0  0  0  0
  -23.6281   -8.2267   22.0775 C   0  0  0  0  0  0
  -22.4263   -8.0332   21.3558 C   0  0  0  0  0  0
  -21.9922   -9.0304   20.4635 C   0  0  0  0  0  0
  -22.7266  -10.2181   20.3061 C   0  0  0  0  0  0
  -21.6835   -6.0742   22.5279 C   0  0  0  0  0  0
  -21.3995   -6.5624   23.8223 C   0  0  0  0  0  0
  -21.3653   -5.6775   24.9174 C   0  0  0  0  0  0
  -21.6031   -4.3047   24.7217 C   0  0  0  0  0  0
  -21.8817   -3.8149   23.4340 C   0  0  0  0  0  0
  -21.9184   -4.6966   22.3389 C   0  0  0  0  0  0
  -22.7910  -13.5248   21.1846 C   0  0  0  0  0  0
  -22.1671   -4.2156   21.0964 F   0  0  0  0  0  0
  -21.5636   -3.4527   25.7735 F   0  0  0  0  0  0
  -30.0420  -13.3660   20.3051 N   0  0  0  0  0  0
  -26.3057  -12.9315   20.3387 N   0  0  0  0  0  0
  -25.9386  -11.6495   20.5917 N   0  0  0  0  0  0
  -22.0532  -12.8218   22.0380 N   0  0  0  0  0  0
  -25.4344  -15.1886   20.4057 N   0  0  0  0  0  0
  -31.9532  -14.5587   20.4854 O   0  0  0  0  0  0
  -21.6632   -6.8917   21.4257 O   0  0  0  0  0  0
  -22.3621  -14.5564   20.6718 O   0  0  0  0  0  0
  -24.6092  -31.8684   23.2099 C   0  0  0  0  0  0
  -25.9019  -32.4822   23.8393 C   0  0  1  0  0  0
  -27.2261  -27.4535   20.1096 C   0  0  0  0  0  0
  -25.5901  -33.8622   24.2320 N   0  0  0  0  0  0
  -23.3986  -30.4922   21.5506 C   0  0  2  0  0  0
  -24.8471  -28.9656   20.1115 C   0  0  0  0  0  0
  -22.7370  -29.4673   22.4994 C   0  0  0  0  0  0
  -18.0251  -28.1360   22.8490 C   0  0  0  0  0  0
  -24.1489  -36.7284   23.2633 C   0  0  0  0  0  0
  -25.9255  -30.8479   21.3613 C   0  0  0  0  0  0
  -26.0061  -29.4847   20.7037 C   0  0  0  0  0  0
  -27.2033  -28.7363   20.6957 C   0  0  0  0  0  0
  -26.0585  -26.9483   19.5033 C   0  0  0  0  0  0
  -24.8661  -27.6937   19.5098 C   0  0  0  0  0  0
  -23.6058  -29.8253   20.1646 C   0  0  0  0  0  0
  -25.4117  -36.3112   24.0336 C   0  0  1  0  0  0
  -20.5849  -28.3675   23.1308 C   0  0  2  0  0  0
  -20.6754  -26.9416   22.5430 C   0  0  0  0  0  0
  -19.5747  -26.6389   21.5214 C   0  0  0  0  0  0
  -18.1910  -26.7917   22.1599 C   0  0  0  0  0  0
  -19.1515  -28.8831   23.2879 C   0  0  0  0  0  0
  -18.9432  -30.1434   23.8901 C   0  0  0  0  0  0
  -17.6456  -30.6585   24.0571 C   0  0  0  0  0  0
  -25.9051  -34.9477   23.5132 C   0  0  0  0  0  0
  -16.5326  -29.9100   23.6335 C   0  0  0  0  0  0
  -16.7270  -28.6496   23.0380 C   0  0  0  0  0  0
  -26.4465  -31.6604   25.0711 C   0  0  0  0  0  0
  -25.3733  -31.3628   26.1433 C   0  0  0  0  0  0
  -27.0356  -30.3067   24.6086 C   0  0  0  0  0  0
  -27.6030  -32.4345   25.7470 C   0  0  0  0  0  0
  -27.5630  -37.1733   24.8426 C   0  0  0  0  0  0
  -21.4102  -29.3018   22.3679 N   0  0  0  0  0  0
  -26.4279  -37.3831   23.9466 N   0  0  0  0  0  0
  -24.6626  -31.0822   22.0992 N   0  0  0  0  0  0
  -23.4142  -28.8218   23.3038 O   0  0  0  0  0  0
  -28.3495  -26.6662   20.1834 O   0  0  0  0  0  0
  -26.5616  -34.8924   22.4684 O   0  0  0  0  0  0
  -23.5278  -32.1445   23.7480 O   0  0  0  0  0  0
  -29.8029  -17.2671   17.8896 C   0  0  0  0  0  0
  -31.2311  -15.4447   18.0488 C   0  0  0  0  0  0
  -27.5791  -20.6503   20.5777 C   0  0  0  0  0  0
  -30.4098  -16.2024   17.0078 C   0  0  2  0  0  0
  -29.4786  -16.5370   19.2215 C   0  0  2  0  0  0
  -29.7296  -21.1355   21.3713 C   0  0  1  0  0  0
  -28.0246  -19.4620   19.7056 C   0  0  2  0  0  0
  -30.3658  -19.9560   20.5525 C   0  0  1  0  0  0
  -31.1876  -16.7707   15.8077 C   0  0  0  0  0  0
  -30.7797  -22.2307   21.6964 C   0  0  0  0  0  0
  -26.8711  -18.4383   19.5934 C   0  0  0  0  0  0
  -31.6452  -19.3939   21.2264 C   0  0  0  0  0  0
  -29.5293  -17.4675   20.4790 C   0  0  0  0  0  0
  -28.5024  -24.1972   20.3564 C   0  0  0  0  0  0
  -28.0171  -22.9452   21.1357 C   0  0  0  0  0  0
  -28.1789  -25.5322   21.0582 C   0  0  0  0  0  0
  -30.3584  -15.3378   19.2418 N   0  0  0  0  0  0
  -28.6026  -21.7000   20.5940 N   0  0  0  0  0  0
  -29.3687  -18.9162   20.0966 N   0  3  1  0  0  0
  -31.4594  -12.3576   19.0735 H   0  0  0  0  0  0
  -30.3127  -11.3169   19.8821 H   0  0  0  0  0  0
  -29.6919  -11.6057   17.4595 H   0  0  0  0  0  0
  -29.6280  -13.3256   17.6356 H   0  0  0  0  0  0
  -27.8133  -11.2590   18.8767 H   0  0  0  0  0  0
  -27.3357  -12.5304   17.7915 H   0  0  0  0  0  0
  -27.6373  -14.2165   19.4517 H   0  0  0  0  0  0
  -28.7313  -12.1620   21.4306 H   0  0  0  0  0  0
  -28.5471  -13.8836   21.7131 H   0  0  0  0  0  0
  -25.2789   -9.5662   22.4761 H   0  0  0  0  0  0
  -23.9974   -7.4626   22.7484 H   0  0  0  0  0  0
  -21.0877   -8.8811   19.8905 H   0  0  0  0  0  0
  -22.3752  -10.9716   19.6149 H   0  0  0  0  0  0
  -21.1992   -7.6134   23.9724 H   0  0  0  0  0  0
  -21.1475   -6.0506   25.9070 H   0  0  0  0  0  0
  -22.0594   -2.7609   23.2832 H   0  0  0  0  0  0
  -22.4121  -11.9857   22.4748 H   0  0  0  0  0  0
  -21.1145  -13.1264   22.2569 H   0  0  0  0  0  0
  -24.6682  -15.8464   20.4988 H   0  0  0  0  0  0
  -26.2891  -15.6191   20.0845 H   0  0  0  0  0  0
  -26.7092  -32.5563   23.1158 H   0  0  0  0  0  0
  -25.0128  -33.9799   25.0516 H   0  0  0  0  0  0
  -22.6878  -31.3082   21.4100 H   0  0  0  0  0  0
  -23.3844  -35.9505   23.3136 H   0  0  0  0  0  0
  -24.3627  -36.9103   22.2089 H   0  0  0  0  0  0
  -23.7086  -37.6355   23.6763 H   0  0  0  0  0  0
  -26.0372  -31.6198   20.5982 H   0  0  0  0  0  0
  -26.8088  -30.8953   21.9860 H   0  0  0  0  0  0
  -28.0982  -29.1203   21.1652 H   0  0  0  0  0  0
  -26.0747  -25.9670   19.0501 H   0  0  0  0  0  0
  -23.9699  -27.2878   19.0600 H   0  0  0  0  0  0
  -23.7030  -30.5981   19.4005 H   0  0  0  0  0  0
  -22.7308  -29.2369   19.8790 H   0  0  0  0  0  0
  -25.1262  -36.1969   25.0820 H   0  0  0  0  0  0
  -20.9962  -28.3283   24.1427 H   0  0  0  0  0  0
  -20.5702  -26.2280   23.3606 H   0  0  0  0  0  0
  -21.6610  -26.7480   22.1221 H   0  0  0  0  0  0
  -19.6922  -25.6303   21.1231 H   0  0  0  0  0  0
  -19.6688  -27.3170   20.6720 H   0  0  0  0  0  0
  -17.4201  -26.6710   21.3963 H   0  0  0  0  0  0
  -18.0262  -26.0026   22.8960 H   0  0  0  0  0  0
  -19.7915  -30.7211   24.2312 H   0  0  0  0  0  0
  -17.5019  -31.6271   24.5170 H   0  0  0  0  0  0
  -15.5337  -30.3017   23.7643 H   0  0  0  0  0  0
  -15.8661  -28.0816   22.7149 H   0  0  0  0  0  0
  -24.6005  -30.6893   25.7721 H   0  0  0  0  0  0
  -24.8787  -32.2724   26.4817 H   0  0  0  0  0  0
  -25.8098  -30.8845   27.0209 H   0  0  0  0  0  0
  -26.2912  -29.6724   24.1246 H   0  0  0  0  0  0
  -27.4287  -29.7386   25.4531 H   0  0  0  0  0  0
  -27.8656  -30.4418   23.9145 H   0  0  0  0  0  0
  -27.2693  -33.3712   26.1927 H   0  0  0  0  0  0
  -28.3874  -32.6791   25.0301 H   0  0  0  0  0  0
  -28.0633  -31.8538   26.5465 H   0  0  0  0  0  0
  -28.2436  -38.0246   24.7885 H   0  0  0  0  0  0
  -28.1356  -36.2813   24.5781 H   0  0  0  0  0  0
  -27.2389  -37.0861   25.8819 H   0  0  0  0  0  0
  -20.9249  -29.8733   21.6886 H   0  0  0  0  0  0
  -26.0157  -38.2839   24.1716 H   0  0  0  0  0  0
  -28.9346  -17.7401   17.4282 H   0  0  0  0  0  0
  -30.5635  -18.0379   18.0310 H   0  0  0  0  0  0
  -32.1203  -16.0234   18.3125 H   0  0  0  0  0  0
  -31.5790  -14.4799   17.6750 H   0  0  0  0  0  0
  -27.3173  -20.3223   21.5849 H   0  0  0  0  0  0
  -26.6622  -21.0481   20.1311 H   0  0  0  0  0  0
  -29.6169  -15.5494   16.6312 H   0  0  0  0  0  0
  -28.4688  -16.1476   19.1245 H   0  0  0  0  0  0
  -29.3633  -20.7467   22.3254 H   0  0  0  0  0  0
  -28.1772  -19.8591   18.7000 H   0  0  0  0  0  0
  -30.7093  -20.4026   19.6155 H   0  0  0  0  0  0
  -32.0509  -17.3619   16.1183 H   0  0  0  0  0  0
  -30.5463  -17.4251   15.2123 H   0  0  0  0  0  0
  -31.5439  -15.9782   15.1478 H   0  0  0  0  0  0
  -31.2385  -22.6302   20.7902 H   0  0  0  0  0  0
  -31.5819  -21.8526   22.3311 H   0  0  0  0  0  0
  -30.3659  -23.0674   22.2594 H   0  0  0  0  0  0
  -26.7152  -17.8789   20.5141 H   0  0  0  0  0  0
  -27.0043  -17.7380   18.7729 H   0  0  0  0  0  0
  -25.9323  -18.9562   19.3778 H   0  0  0  0  0  0
  -31.4413  -19.0178   22.2307 H   0  0  0  0  0  0
  -32.4205  -20.1526   21.3182 H   0  0  0  0  0  0
  -32.1162  -18.6036   20.6418 H   0  0  0  0  0  0
  -30.4620  -17.2740   20.9958 H   0  0  0  0  0  0
  -28.7694  -17.1756   21.2048 H   0  0  0  0  0  0
  -28.0314  -24.1936   19.3741 H   0  0  0  0  0  0
  -29.5722  -24.1544   20.1687 H   0  0  0  0  0  0
  -26.9300  -22.9333   21.0381 H   0  0  0  0  0  0
  -28.1980  -23.0287   22.2096 H   0  0  0  0  0  0
  -28.8365  -25.6572   21.9207 H   0  0  0  0  0  0
  -27.1720  -25.4819   21.4768 H   0  0  0  0  0  0
  -29.7432  -18.8021   19.1656 H   0  0  0  0  0  0
  1 25  1  0  0  0
  1 30  2  0  0  0
  1 87  1  0  0  0
  2  3  1  0  0  0
  2 25  1  0  0  0
  2 90  1  0  0  0
  2 91  1  0  0  0
  3  4  1  0  0  0
  3 92  1  0  0  0
  3 93  1  0  0  0
  4  5  1  0  0  0
  4 94  1  0  0  0
  4 95  1  0  0  0
  5  6  1  0  0  0
  5 26  1  0  0  0
  5 96  1  0  0  0
  6 25  1  0  0  0
  6 97  1  0  0  0
  6 98  1  0  0  0
  7  8  2  0  0  0
  7 26  1  0  0  0
  7 29  1  0  0  0
  8  9  1  0  0  0
  8 22  1  0  0  0
  9 10  1  0  0  0
  9 27  2  0  0  0
 10 11  2  0  0  0
 10 15  1  0  0  0
 11 12  1  0  0  0
 11 99  1  0  0  0
 12 13  2  0  0  0
 12100  1  0  0  0
 13 14  1  0  0  0
 13 31  1  0  0  0
 14 15  2  0  0  0
 14101  1  0  0  0
 15102  1  0  0  0
 16 17  2  0  0  0
 16 21  1  0  0  0
 16 31  1  0  0  0
 17 18  1  0  0  0
 17103  1  0  0  0
 18 19  2  0  0  0
 18104  1  0  0  0
 19 20  1  0  0  0
 19 24  1  0  0  0
 20 21  2  0  0  0
 20105  1  0  0  0
 21 23  1  0  0  0
 22 28  1  0  0  0
 22 32  2  0  0  0
 26 27  1  0  0  0
 28106  1  0  0  0
 28107  1  0  0  0
 29108  1  0  0  0
 29109  1  0  0  0
 33 34  1  0  0  0
 33 66  1  0  0  0
 33 70  2  0  0  0
 34 36  1  0  0  0
 34 59  1  0  0  0
 34110  1  0  0  0
 35 44  2  0  0  0
 35 45  1  0  0  0
 35 68  1  0  0  0
 36 56  1  0  0  0
 36111  1  0  0  0
 37 39  1  0  0  0
 37 47  1  0  0  0
 37 66  1  0  0  0
 37112  1  0  0  0
 38 43  2  0  0  0
 38 46  1  0  0  0
 38 47  1  0  0  0
 39 64  1  0  0  0
 39 67  2  0  0  0
 40 52  1  0  0  0
 40 53  2  0  0  0
 40 58  1  0  0  0
 41113  1  0  0  0
 41114  1  0  0  0
 41115  1  0  0  0
 41 48  1  0  0  0
 42 43  1  0  0  0
 42 66  1  0  0  0
 42116  1  0  0  0
 42117  1  0  0  0
 43 44  1  0  0  0
 44118  1  0  0  0
 45 46  2  0  0  0
 45119  1  0  0  0
 46120  1  0  0  0
 47121  1  0  0  0
 47122  1  0  0  0
 48 56  1  0  0  0
 48 65  1  0  0  0
 48123  1  0  0  0
 49 50  1  0  0  0
 49 53  1  0  0  0
 49 64  1  0  0  0
 49124  1  0  0  0
 50 51  1  0  0  0
 50125  1  0  0  0
 50126  1  0  0  0
 51 52  1  0  0  0
 51127  1  0  0  0
 51128  1  0  0  0
 52129  1  0  0  0
 52130  1  0  0  0
 53 54  1  0  0  0
 54 55  2  0  0  0
 54131  1  0  0  0
 55 57  1  0  0  0
 55132  1  0  0  0
 56 69  2  0  0  0
 57 58  2  0  0  0
 57133  1  0  0  0
 58134  1  0  0  0
 59 60  1  0  0  0
 59 61  1  0  0  0
 59 62  1  0  0  0
 60135  1  0  0  0
 60136  1  0  0  0
 60137  1  0  0  0
 61138  1  0  0  0
 61139  1  0  0  0
 61140  1  0  0  0
 62141  1  0  0  0
 62142  1  0  0  0
 62143  1  0  0  0
 63 65  1  0  0  0
 63144  1  0  0  0
 63145  1  0  0  0
 63146  1  0  0  0
 64147  1  0  0  0
 65148  1  0  0  0
 68 86  1  0  0  0
 71 74  1  0  0  0
 71 75  1  0  0  0
 71149  1  0  0  0
 71150  1  0  0  0
 72 74  1  0  0  0
 72 87  1  0  0  0
 72151  1  0  0  0
 72152  1  0  0  0
 73 77  1  0  0  0
 73 88  1  0  0  0
 73153  1  0  0  0
 73154  1  0  0  0
 74 79  1  0  0  0
 74155  1  0  0  0
 75 83  1  0  0  0
 75 87  1  0  0  0
 75156  1  0  0  0
 76 78  1  0  0  0
 76 80  1  0  0  0
 76 88  1  0  0  0
 76157  1  0  0  0
 77 81  1  0  0  0
 77 89  1  0  0  0
 77158  1  0  0  0
 78 82  1  0  0  0
 78 89  1  0  0  0
 78159  1  0  0  0
 79160  1  0  0  0
 79161  1  0  0  0
 79162  1  0  0  0
 80163  1  0  0  0
 80164  1  0  0  0
 80165  1  0  0  0
 81166  1  0  0  0
 81167  1  0  0  0
 81168  1  0  0  0
 82169  1  0  0  0
 82170  1  0  0  0
 82171  1  0  0  0
 83172  1  0  0  0
 83173  1  0  0  0
 83 89  1  0  0  0
 84 85  1  0  0  0
 84 86  1  0  0  0
 84174  1  0  0  0
 84175  1  0  0  0
 85 88  1  0  0  0
 85176  1  0  0  0
 85177  1  0  0  0
 86178  1  0  0  0
 86179  1  0  0  0
 89180  1  0  0  0
M  CHG  1  89   1
M  ISO  4   1 100  68 101  86 101  87 100
M  END
> <chiral flag>
0

> <version>
0

> <s_m_source_file>
/data/baiqing/PycharmProjects/Reinvent-master-3.2/result/LINK_invent/BTK/process_docking_weight1_custom_sum_contain_oxygen_bond_distance_aromatic_linkinvent_7_9_3/rearranged_h_0160.sdf

> <i_m_source_file_index>
71

> <r_mmod_Potential_Energy-OPLS-2005>
395.255920410156

> <r_mmod_Stretch_Energy-OPLS-2005>
52.1238479614258

> <r_mmod_Bend_Energy-OPLS-2005>
196.762176513672

> <r_mmod_Torsional_Energy-OPLS-2005>
466.550659179688

> <r_mmod_Improper_Torsional_Energy-OPLS-2005>
35.9583702087402

> <r_mmod_Van_der_Waal_Energy-OPLS-2005>
152.348037719727

> <r_mmod_Electrostatic_Energy-OPLS-2005>
-163.285629272461

> <r_mmod_Solvation_Energy-OPLS-2005>
-408.285827636719

> <b_mmod_Minimization_Converged-OPLS-2005>
0

> <r_mmod_RMS_Derivative-OPLS-2005>
5.39333820343018

$$$$
71
                    3D
 Structure written by MMmdl.
162171  0  0  1  0            999 V2000
  -30.6844  -14.7461   20.4610 C   0  0  0  0  0  0
  -30.4169  -12.4677   19.4746 C   0  0  0  0  0  0
  -29.4981  -12.4771   18.2378 C   0  0  0  0  0  0
  -28.0347  -12.2782   18.6650 C   0  0  0  0  0  0
  -27.6279  -13.2140   19.8297 C   0  0  2  0  0  0
  -28.6751  -13.2281   20.9687 C   0  0  0  0  0  0
  -25.2492  -13.8176   20.5697 C   0  0  0  0  0  0
  -24.1784  -13.0420   20.9228 C   0  0  0  0  0  0
  -24.6377  -11.6905   20.8773 C   0  0  0  0  0  0
  -23.9068  -10.4285   21.0453 C   0  0  0  0  0  0
  -24.3634   -9.4198   21.9212 C   0  0  0  0  0  0
  -23.6304   -8.2234   22.0767 C   0  0  0  0  0  0
  -22.4283   -8.0301   21.3561 C   0  0  0  0  0  0
  -21.9936   -9.0268   20.4655 C   0  0  0  0  0  0
  -22.7265  -10.2144   20.3081 C   0  0  0  0  0  0
  -21.6842   -6.0767   22.5303 C   0  0  0  0  0  0
  -21.3999   -6.5660   23.8235 C   0  0  0  0  0  0
  -21.3642   -5.6804   24.9187 C   0  0  0  0  0  0
  -21.6038   -4.3064   24.7231 C   0  0  0  0  0  0
  -21.8823   -3.8176   23.4346 C   0  0  0  0  0  0
  -21.9192   -4.7001   22.3415 C   0  0  0  0  0  0
  -22.7828  -13.5232   21.1882 C   0  0  0  0  0  0
  -22.1672   -4.2195   21.0987 F   0  0  0  0  0  0
  -21.5617   -3.4547   25.7729 F   0  0  0  0  0  0
  -29.9714  -13.5660   20.3683 N   0  0  0  0  0  0
  -26.2867  -12.9324   20.3232 N   0  0  0  0  0  0
  -25.9288  -11.6493   20.5784 N   0  0  0  0  0  0
  -22.0458  -12.8207   22.0427 N   0  0  0  0  0  0
  -25.4178  -15.1875   20.4112 N   0  0  0  0  0  0
  -31.8901  -14.7066   20.2003 O   0  0  0  0  0  0
  -21.6634   -6.8919   21.4259 O   0  0  0  0  0  0
  -22.3523  -14.5546   20.6756 O   0  0  0  0  0  0
  -24.6338  -31.8595   23.2020 C   0  0  0  0  0  0
  -25.9159  -32.4762   23.8365 C   0  0  1  0  0  0
  -27.1841  -27.2384   20.0843 C   0  0  0  0  0  0
  -25.5942  -33.8570   24.2277 N   0  0  0  0  0  0
  -23.4278  -30.4927   21.5533 C   0  0  2  0  0  0
  -24.8649  -28.9599   20.1096 C   0  0  0  0  0  0
  -22.7520  -29.4654   22.4947 C   0  0  0  0  0  0
  -18.0298  -28.1409   22.8497 C   0  0  0  0  0  0
  -24.1487  -36.7306   23.2624 C   0  0  0  0  0  0
  -25.9842  -30.7604   21.3913 C   0  0  0  0  0  0
  -26.0486  -29.3877   20.7231 C   0  0  0  0  0  0
  -27.2133  -28.5399   20.7072 C   0  0  0  0  0  0
  -25.9581  -26.9111   19.4436 C   0  0  0  0  0  0
  -24.8272  -27.7294   19.4627 C   0  0  0  0  0  0
  -23.6417  -29.8480   20.1662 C   0  0  0  0  0  0
  -25.4106  -36.3079   24.0307 C   0  0  1  0  0  0
  -20.5897  -28.3721   23.1258 C   0  0  2  0  0  0
  -20.6786  -26.9433   22.5407 C   0  0  0  0  0  0
  -19.5751  -26.6409   21.5229 C   0  0  0  0  0  0
  -18.1929  -26.7953   22.1645 C   0  0  0  0  0  0
  -19.1540  -28.8889   23.2868 C   0  0  0  0  0  0
  -18.9472  -30.1500   23.8872 C   0  0  0  0  0  0
  -17.6469  -30.6596   24.0587 C   0  0  0  0  0  0
  -25.9055  -34.9444   23.5105 C   0  0  0  0  0  0
  -16.5361  -29.9093   23.6346 C   0  0  0  0  0  0
  -16.7279  -28.6520   23.0337 C   0  0  0  0  0  0
  -26.4486  -31.6560   25.0753 C   0  0  0  0  0  0
  -25.3664  -31.3716   26.1446 C   0  0  0  0  0  0
  -27.0298  -30.2956   24.6248 C   0  0  0  0  0  0
  -27.6102  -32.4251   25.7503 C   0  0  0  0  0  0
  -27.5573  -37.1794   24.8452 C   0  0  0  0  0  0
  -21.4225  -29.3073   22.3661 N   0  0  0  0  0  0
  -26.4273  -37.3773   23.9408 N   0  0  0  0  0  0
  -24.7034  -31.0544   22.1042 N   0  0  0  0  0  0
  -23.4229  -28.8148   23.3015 O   0  0  0  0  0  0
  -28.2340  -26.2682   20.1027 O   0  0  0  0  0  0
  -26.5640  -34.8921   22.4684 O   0  0  0  0  0  0
  -23.5483  -32.1476   23.7276 O   0  0  0  0  0  0
  -29.2489  -21.5484   21.0493 C   0  0  0  0  0  0
  -29.2112  -20.6164   19.9725 C   0  0  0  0  0  0
  -28.8793  -21.2203   18.7184 C   0  0  0  0  0  0
  -28.6518  -22.6395   18.6132 C   0  0  0  0  0  0
  -28.6158  -23.4746   19.7827 C   0  0  0  0  0  0
  -30.4909  -18.6049   21.2761 C   0  0  0  0  0  0
  -28.4243  -18.0226   20.2580 C   0  0  0  0  0  0
  -30.9964  -17.1043   21.2212 C   0  0  0  0  0  0
  -28.8292  -16.4911   20.1275 C   0  0  0  0  0  0
  -29.5789  -19.0534   20.1096 C   0  0  0  0  0  0
  -28.7154  -20.3410   17.4776 C   0  0  0  0  0  0
  -28.3850  -23.2432   17.2256 C   0  0  0  0  0  0
  -27.7885  -24.8518   19.7978 C   0  0  0  0  0  0
  -28.9314  -22.8857   20.9726 N   0  0  0  0  0  0
  -30.0966  -15.9939   20.7454 N   0  0  0  0  0  0
  -31.4543  -12.5749   19.1527 H   0  0  0  0  0  0
  -30.3684  -11.5075   19.9922 H   0  0  0  0  0  0
  -29.7938  -11.6875   17.5456 H   0  0  0  0  0  0
  -29.6054  -13.4200   17.6984 H   0  0  0  0  0  0
  -27.9197  -11.2385   18.9732 H   0  0  0  0  0  0
  -27.3687  -12.4180   17.8137 H   0  0  0  0  0  0
  -27.5912  -14.1970   19.3697 H   0  0  0  0  0  0
  -28.7200  -12.2605   21.4703 H   0  0  0  0  0  0
  -28.4046  -13.9551   21.7356 H   0  0  0  0  0  0
  -25.2786   -9.5667   22.4780 H   0  0  0  0  0  0
  -24.0011   -7.4628   22.7482 H   0  0  0  0  0  0
  -21.0885   -8.8815   19.8949 H   0  0  0  0  0  0
  -22.3765  -10.9695   19.6194 H   0  0  0  0  0  0
  -21.1984   -7.6164   23.9756 H   0  0  0  0  0  0
  -21.1448   -6.0526   25.9091 H   0  0  0  0  0  0
  -22.0614   -2.7646   23.2837 H   0  0  0  0  0  0
  -22.4043  -11.9824   22.4741 H   0  0  0  0  0  0
  -21.1105  -13.1284   22.2681 H   0  0  0  0  0  0
  -24.6611  -15.8488   20.5508 H   0  0  0  0  0  0
  -26.2778  -15.6283   20.1139 H   0  0  0  0  0  0
  -26.7214  -32.5385   23.1095 H   0  0  0  0  0  0
  -25.0030  -33.9737   25.0378 H   0  0  0  0  0  0
  -22.7245  -31.3171   21.4137 H   0  0  0  0  0  0
  -23.3755  -35.9631   23.3288 H   0  0  0  0  0  0
  -24.3554  -36.8950   22.2035 H   0  0  0  0  0  0
  -23.7239  -37.6502   23.6669 H   0  0  0  0  0  0
  -26.1219  -31.5184   20.6194 H   0  0  0  0  0  0
  -26.8648  -30.8095   22.0202 H   0  0  0  0  0  0
  -28.1133  -28.8586   21.2141 H   0  0  0  0  0  0
  -25.7677  -25.9952   18.9128 H   0  0  0  0  0  0
  -23.9245  -27.3961   18.9708 H   0  0  0  0  0  0
  -23.7666  -30.6325   19.4197 H   0  0  0  0  0  0
  -22.7579  -29.2871   19.8575 H   0  0  0  0  0  0
  -25.1267  -36.1952   25.0785 H   0  0  0  0  0  0
  -20.9992  -28.3318   24.1380 H   0  0  0  0  0  0
  -20.5733  -26.2330   23.3620 H   0  0  0  0  0  0
  -21.6643  -26.7470   22.1172 H   0  0  0  0  0  0
  -19.6926  -25.6330   21.1242 H   0  0  0  0  0  0
  -19.6694  -27.3245   20.6778 H   0  0  0  0  0  0
  -17.4208  -26.6718   21.4037 H   0  0  0  0  0  0
  -18.0304  -26.0088   22.9035 H   0  0  0  0  0  0
  -19.7940  -30.7332   24.2217 H   0  0  0  0  0  0
  -17.5012  -31.6265   24.5214 H   0  0  0  0  0  0
  -15.5361  -30.2986   23.7687 H   0  0  0  0  0  0
  -15.8681  -28.0864   22.7014 H   0  0  0  0  0  0
  -24.5999  -30.6850   25.7820 H   0  0  0  0  0  0
  -24.8625  -32.2842   26.4647 H   0  0  0  0  0  0
  -25.7954  -30.9139   27.0369 H   0  0  0  0  0  0
  -26.2879  -29.6728   24.1229 H   0  0  0  0  0  0
  -27.3915  -29.7186   25.4767 H   0  0  0  0  0  0
  -27.8794  -30.4217   23.9527 H   0  0  0  0  0  0
  -27.2837  -33.3679   26.1906 H   0  0  0  0  0  0
  -28.3990  -32.6555   25.0323 H   0  0  0  0  0  0
  -28.0643  -31.8425   26.5531 H   0  0  0  0  0  0
  -28.2556  -38.0126   24.7526 H   0  0  0  0  0  0
  -28.1100  -36.2652   24.6243 H   0  0  0  0  0  0
  -27.2284  -37.1391   25.8850 H   0  0  0  0  0  0
  -20.9437  -29.8839   21.6888 H   0  0  0  0  0  0
  -26.0175  -38.2840   24.1469 H   0  0  0  0  0  0
  -29.5176  -21.2061   22.0351 H   0  0  0  0  0  0
  -31.3648  -19.2547   21.3208 H   0  0  0  0  0  0
  -29.9689  -18.7599   22.2214 H   0  0  0  0  0  0
  -27.9560  -18.1725   21.2325 H   0  0  0  0  0  0
  -27.6284  -18.2330   19.5441 H   0  0  0  0  0  0
  -31.3448  -16.8265   22.2195 H   0  0  0  0  0  0
  -31.8934  -17.1158   20.6006 H   0  0  0  0  0  0
  -28.8615  -16.2324   19.0671 H   0  0  0  0  0  0
  -28.0157  -15.9256   20.5709 H   0  0  0  0  0  0
  -30.1221  -18.8072   19.1957 H   0  0  0  0  0  0
  -28.4026  -19.3289   17.7268 H   0  0  0  0  0  0
  -29.6462  -20.2820   16.9140 H   0  0  0  0  0  0
  -27.9368  -20.7177   16.8123 H   0  0  0  0  0  0
  -28.6307  -24.3032   17.1895 H   0  0  0  0  0  0
  -27.3376  -23.1192   16.9407 H   0  0  0  0  0  0
  -29.0069  -22.7919   16.4488 H   0  0  0  0  0  0
  -26.9452  -24.6419   20.4574 H   0  0  0  0  0  0
  -27.3744  -24.8838   18.7992 H   0  0  0  0  0  0
  1 25  1  0  0  0
  1 30  2  0  0  0
  1 85  1  0  0  0
  2  3  1  0  0  0
  2 25  1  0  0  0
  2 86  1  0  0  0
  2 87  1  0  0  0
  3  4  1  0  0  0
  3 88  1  0  0  0
  3 89  1  0  0  0
  4  5  1  0  0  0
  4 90  1  0  0  0
  4 91  1  0  0  0
  5  6  1  0  0  0
  5 26  1  0  0  0
  5 92  1  0  0  0
  6 25  1  0  0  0
  6 93  1  0  0  0
  6 94  1  0  0  0
  7  8  2  0  0  0
  7 26  1  0  0  0
  7 29  1  0  0  0
  8  9  1  0  0  0
  8 22  1  0  0  0
  9 10  1  0  0  0
  9 27  2  0  0  0
 10 11  2  0  0  0
 10 15  1  0  0  0
 11 12  1  0  0  0
 11 95  1  0  0  0
 12 13  2  0  0  0
 12 96  1  0  0  0
 13 14  1  0  0  0
 13 31  1  0  0  0
 14 15  2  0  0  0
 14 97  1  0  0  0
 15 98  1  0  0  0
 16 17  2  0  0  0
 16 21  1  0  0  0
 16 31  1  0  0  0
 17 18  1  0  0  0
 17 99  1  0  0  0
 18 19  2  0  0  0
 18100  1  0  0  0
 19 20  1  0  0  0
 19 24  1  0  0  0
 20 21  2  0  0  0
 20101  1  0  0  0
 21 23  1  0  0  0
 22 28  1  0  0  0
 22 32  2  0  0  0
 26 27  1  0  0  0
 28102  1  0  0  0
 28103  1  0  0  0
 29104  1  0  0  0
 29105  1  0  0  0
 33 34  1  0  0  0
 33 66  1  0  0  0
 33 70  2  0  0  0
 34 36  1  0  0  0
 34 59  1  0  0  0
 34106  1  0  0  0
 35 44  2  0  0  0
 35 45  1  0  0  0
 35 68  1  0  0  0
 36 56  1  0  0  0
 36107  1  0  0  0
 37 39  1  0  0  0
 37 47  1  0  0  0
 37 66  1  0  0  0
 37108  1  0  0  0
 38 43  2  0  0  0
 38 46  1  0  0  0
 38 47  1  0  0  0
 39 64  1  0  0  0
 39 67  2  0  0  0
 40 52  1  0  0  0
 40 53  2  0  0  0
 40 58  1  0  0  0
 41109  1  0  0  0
 41110  1  0  0  0
 41111  1  0  0  0
 41 48  1  0  0  0
 42 43  1  0  0  0
 42 66  1  0  0  0
 42112  1  0  0  0
 42113  1  0  0  0
 43 44  1  0  0  0
 44114  1  0  0  0
 45 46  2  0  0  0
 45115  1  0  0  0
 46116  1  0  0  0
 47117  1  0  0  0
 47118  1  0  0  0
 48 56  1  0  0  0
 48 65  1  0  0  0
 48119  1  0  0  0
 49 50  1  0  0  0
 49 53  1  0  0  0
 49 64  1  0  0  0
 49120  1  0  0  0
 50 51  1  0  0  0
 50121  1  0  0  0
 50122  1  0  0  0
 51 52  1  0  0  0
 51123  1  0  0  0
 51124  1  0  0  0
 52125  1  0  0  0
 52126  1  0  0  0
 53 54  1  0  0  0
 54 55  2  0  0  0
 54127  1  0  0  0
 55 57  1  0  0  0
 55128  1  0  0  0
 56 69  2  0  0  0
 57 58  2  0  0  0
 57129  1  0  0  0
 58130  1  0  0  0
 59 60  1  0  0  0
 59 61  1  0  0  0
 59 62  1  0  0  0
 60131  1  0  0  0
 60132  1  0  0  0
 60133  1  0  0  0
 61134  1  0  0  0
 61135  1  0  0  0
 61136  1  0  0  0
 62137  1  0  0  0
 62138  1  0  0  0
 62139  1  0  0  0
 63 65  1  0  0  0
 63140  1  0  0  0
 63141  1  0  0  0
 63142  1  0  0  0
 64143  1  0  0  0
 65144  1  0  0  0
 68 83  1  0  0  0
 71 72  2  0  0  0
 71 84  1  0  0  0
 71145  1  0  0  0
 72 73  1  0  0  0
 72 80  1  0  0  0
 73 74  2  0  0  0
 73 81  1  0  0  0
 74 75  1  0  0  0
 74 82  1  0  0  0
 75 83  1  0  0  0
 75 84  2  0  0  0
 76 78  1  0  0  0
 76 80  1  0  0  0
 76146  1  0  0  0
 76147  1  0  0  0
 77 79  1  0  0  0
 77 80  1  0  0  0
 77148  1  0  0  0
 77149  1  0  0  0
 78 85  1  0  0  0
 78150  1  0  0  0
 78151  1  0  0  0
 79 85  1  0  0  0
 79152  1  0  0  0
 79153  1  0  0  0
 80154  1  0  0  0
 81155  1  0  0  0
 81156  1  0  0  0
 81157  1  0  0  0
 82158  1  0  0  0
 82159  1  0  0  0
 82160  1  0  0  0
 83161  1  0  0  0
 83162  1  0  0  0
M  ISO  4   1 100  68 101  83 101  85 100
M  END
> <chiral flag>
0

> <version>
0

> <s_m_source_file>
/data/baiqing/PycharmProjects/Reinvent-master-3.2/result/LINK_invent/BTK/process_docking_weight1_custom_sum_contain_oxygen_bond_distance_aromatic_linkinvent_7_9_3/rearranged_h_0160.sdf

> <i_m_source_file_index>
72

> <r_mmod_Potential_Energy-OPLS-2005>
374.861083984375

> <r_mmod_Stretch_Energy-OPLS-2005>
132.198455810547

> <r_mmod_Bend_Energy-OPLS-2005>
224.632263183594

> <r_mmod_Torsional_Energy-OPLS-2005>
328.442199707031

> <r_mmod_Improper_Torsional_Energy-OPLS-2005>
7.49078178405762

> <r_mmod_Van_der_Waal_Energy-OPLS-2005>
179.622863769531

> <r_mmod_Electrostatic_Energy-OPLS-2005>
-379.851654052734

> <r_mmod_Solvation_Energy-OPLS-2005>
-223.730285644531

> <b_mmod_Minimization_Converged-OPLS-2005>
0

> <r_mmod_RMS_Derivative-OPLS-2005>
4.59481477737427

$$$$
72
                    3D
 Structure written by MMmdl.
163172  0  0  1  0            999 V2000
  -30.5785  -14.8924   20.4757 C   0  0  0  0  0  0
  -30.4380  -12.5601   19.4963 C   0  0  0  0  0  0
  -29.5174  -12.5308   18.2546 C   0  0  0  0  0  0
  -28.0471  -12.3256   18.6670 C   0  0  0  0  0  0
  -27.6361  -13.2352   19.8539 C   0  0  2  0  0  0
  -28.6833  -13.1977   20.9892 C   0  0  0  0  0  0
  -25.2429  -13.8155   20.5644 C   0  0  0  0  0  0
  -24.1762  -13.0393   20.9219 C   0  0  0  0  0  0
  -24.6380  -11.6882   20.8771 C   0  0  0  0  0  0
  -23.9062  -10.4261   21.0417 C   0  0  0  0  0  0
  -24.3610   -9.4177   21.9192 C   0  0  0  0  0  0
  -23.6284   -8.2216   22.0751 C   0  0  0  0  0  0
  -22.4275   -8.0257   21.3533 C   0  0  0  0  0  0
  -21.9913   -9.0232   20.4643 C   0  0  0  0  0  0
  -22.7241  -10.2111   20.3056 C   0  0  0  0  0  0
  -21.6842   -6.0730   22.5284 C   0  0  0  0  0  0
  -21.4015   -6.5633   23.8216 C   0  0  0  0  0  0
  -21.3662   -5.6785   24.9178 C   0  0  0  0  0  0
  -21.6043   -4.3046   24.7228 C   0  0  0  0  0  0
  -21.8819   -3.8142   23.4345 C   0  0  0  0  0  0
  -21.9187   -4.6960   22.3405 C   0  0  0  0  0  0
  -22.7784  -13.5177   21.1878 C   0  0  0  0  0  0
  -22.1647   -4.2141   21.0980 F   0  0  0  0  0  0
  -21.5632   -3.4532   25.7743 F   0  0  0  0  0  0
  -29.9552  -13.6445   20.4023 N   0  0  0  0  0  0
  -26.2895  -12.9388   20.3299 N   0  0  0  0  0  0
  -25.9320  -11.6523   20.5799 N   0  0  0  0  0  0
  -22.0430  -12.8179   22.0441 N   0  0  0  0  0  0
  -25.3975  -15.1870   20.3919 N   0  0  0  0  0  0
  -31.7642  -14.9380   20.1235 O   0  0  0  0  0  0
  -21.6626   -6.8870   21.4240 O   0  0  0  0  0  0
  -22.3476  -14.5477   20.6713 O   0  0  0  0  0  0
  -24.6413  -31.8474   23.1933 C   0  0  0  0  0  0
  -25.9195  -32.4715   23.8311 C   0  0  1  0  0  0
  -27.2101  -27.1708   20.1482 C   0  0  0  0  0  0
  -25.5956  -33.8523   24.2229 N   0  0  0  0  0  0
  -23.4433  -30.4705   21.5374 C   0  0  2  0  0  0
  -24.8916  -28.9056   20.1133 C   0  0  0  0  0  0
  -22.7559  -29.4572   22.4869 C   0  0  0  0  0  0
  -18.0307  -28.1396   22.8472 C   0  0  0  0  0  0
  -24.1489  -36.7261   23.2641 C   0  0  0  0  0  0
  -25.9987  -30.7321   21.3893 C   0  0  0  0  0  0
  -26.0702  -29.3472   20.7310 C   0  0  0  0  0  0
  -27.2362  -28.4954   20.7326 C   0  0  0  0  0  0
  -26.0122  -26.8321   19.4872 C   0  0  0  0  0  0
  -24.8725  -27.6583   19.4765 C   0  0  0  0  0  0
  -23.6691  -29.8059   20.1553 C   0  0  0  0  0  0
  -25.4121  -36.3047   24.0324 C   0  0  1  0  0  0
  -20.5921  -28.3719   23.1228 C   0  0  2  0  0  0
  -20.6794  -26.9427   22.5390 C   0  0  0  0  0  0
  -19.5769  -26.6383   21.5198 C   0  0  0  0  0  0
  -18.1950  -26.7934   22.1616 C   0  0  0  0  0  0
  -19.1565  -28.8876   23.2840 C   0  0  0  0  0  0
  -18.9481  -30.1471   23.8867 C   0  0  0  0  0  0
  -17.6481  -30.6588   24.0563 C   0  0  0  0  0  0
  -25.9065  -34.9416   23.5080 C   0  0  0  0  0  0
  -16.5369  -29.9081   23.6339 C   0  0  0  0  0  0
  -16.7290  -28.6507   23.0349 C   0  0  0  0  0  0
  -26.4531  -31.6565   25.0733 C   0  0  0  0  0  0
  -25.3731  -31.3730   26.1434 C   0  0  0  0  0  0
  -27.0396  -30.2966   24.6295 C   0  0  0  0  0  0
  -27.6065  -32.4325   25.7510 C   0  0  0  0  0  0
  -27.5576  -37.1791   24.8471 C   0  0  0  0  0  0
  -21.4252  -29.3056   22.3609 N   0  0  0  0  0  0
  -26.4290  -37.3754   23.9409 N   0  0  0  0  0  0
  -24.7137  -31.0369   22.0953 N   0  0  0  0  0  0
  -23.4215  -28.8120   23.3007 O   0  0  0  0  0  0
  -28.2411  -26.1737   20.1596 O   0  0  0  0  0  0
  -26.5643  -34.8906   22.4650 O   0  0  0  0  0  0
  -23.5535  -32.1335   23.7167 O   0  0  0  0  0  0
  -29.8143  -21.1793   20.8042 C   0  0  0  0  0  0
  -28.8569  -20.2169   20.3391 C   0  0  0  0  0  0
  -29.5931  -22.6219   20.8529 C   0  0  0  0  0  0
  -27.6576  -20.8741   19.8669 C   0  0  0  0  0  0
  -27.4628  -22.3219   19.8489 C   0  0  0  0  0  0
  -28.3872  -23.2748   20.4052 C   0  0  0  0  0  0
  -28.4226  -17.8872   21.6520 C   0  0  0  0  0  0
  -28.7048  -16.3547   21.5179 C   0  0  0  0  0  0
  -30.2314  -17.5561   20.1944 C   0  0  0  0  0  0
  -28.9803  -18.5645   20.3977 C   0  0  2  0  0  0
  -30.6878  -23.4814   21.4584 C   0  0  0  0  0  0
  -26.4885  -19.9988   19.4033 C   0  0  0  0  0  0
  -26.1843  -22.8810   19.2354 C   0  0  0  0  0  0
  -27.9252  -24.8147   20.8089 C   0  0  0  0  0  0
  -29.8584  -16.1174   20.6287 N   0  0  0  0  0  0
  -31.4729  -12.7067   19.1848 H   0  0  0  0  0  0
  -30.4259  -11.5957   20.0070 H   0  0  0  0  0  0
  -29.8301  -11.7374   17.5743 H   0  0  0  0  0  0
  -29.6166  -13.4672   17.7036 H   0  0  0  0  0  0
  -27.9275  -11.2790   18.9487 H   0  0  0  0  0  0
  -27.3856  -12.4884   17.8147 H   0  0  0  0  0  0
  -27.6179  -14.2494   19.4539 H   0  0  0  0  0  0
  -28.7772  -12.1888   21.3932 H   0  0  0  0  0  0
  -28.3841  -13.8072   21.8377 H   0  0  0  0  0  0
  -25.2742   -9.5654   22.4783 H   0  0  0  0  0  0
  -23.9980   -7.4606   22.7468 H   0  0  0  0  0  0
  -21.0844   -8.8744   19.8952 H   0  0  0  0  0  0
  -22.3685  -10.9648   19.6167 H   0  0  0  0  0  0
  -21.2001   -7.6140   23.9726 H   0  0  0  0  0  0
  -21.1488   -6.0506   25.9084 H   0  0  0  0  0  0
  -22.0602   -2.7604   23.2837 H   0  0  0  0  0  0
  -22.4044  -11.9841   22.4833 H   0  0  0  0  0  0
  -21.1056  -13.1218   22.2652 H   0  0  0  0  0  0
  -24.6190  -15.8273   20.5005 H   0  0  0  0  0  0
  -26.2267  -15.6318   20.0207 H   0  0  0  0  0  0
  -26.7265  -32.5342   23.1045 H   0  0  0  0  0  0
  -25.0108  -33.9650   25.0383 H   0  0  0  0  0  0
  -22.7445  -31.2961   21.3867 H   0  0  0  0  0  0
  -23.3758  -35.9584   23.3294 H   0  0  0  0  0  0
  -24.3579  -36.8891   22.2057 H   0  0  0  0  0  0
  -23.7235  -37.6455   23.6674 H   0  0  0  0  0  0
  -26.1539  -31.4891   20.6191 H   0  0  0  0  0  0
  -26.8693  -30.7788   22.0318 H   0  0  0  0  0  0
  -28.1376  -28.8301   21.2271 H   0  0  0  0  0  0
  -25.9376  -25.8877   18.9781 H   0  0  0  0  0  0
  -23.9769  -27.3166   18.9752 H   0  0  0  0  0  0
  -23.8094  -30.5826   19.4024 H   0  0  0  0  0  0
  -22.7842  -29.2492   19.8413 H   0  0  0  0  0  0
  -25.1308  -36.1879   25.0818 H   0  0  0  0  0  0
  -21.0014  -28.3301   24.1346 H   0  0  0  0  0  0
  -20.5679  -26.2340   23.3607 H   0  0  0  0  0  0
  -21.6661  -26.7430   22.1197 H   0  0  0  0  0  0
  -19.6924  -25.6284   21.1241 H   0  0  0  0  0  0
  -19.6696  -27.3183   20.6715 H   0  0  0  0  0  0
  -17.4217  -26.6668   21.4018 H   0  0  0  0  0  0
  -18.0356  -26.0078   22.9019 H   0  0  0  0  0  0
  -19.7958  -30.7296   24.2216 H   0  0  0  0  0  0
  -17.5033  -31.6260   24.5175 H   0  0  0  0  0  0
  -15.5369  -30.2977   23.7675 H   0  0  0  0  0  0
  -15.8691  -28.0818   22.7071 H   0  0  0  0  0  0
  -24.5930  -30.7053   25.7760 H   0  0  0  0  0  0
  -24.8904  -32.2901   26.4819 H   0  0  0  0  0  0
  -25.8039  -30.8940   27.0237 H   0  0  0  0  0  0
  -26.3013  -29.6688   24.1298 H   0  0  0  0  0  0
  -27.4012  -29.7259   25.4861 H   0  0  0  0  0  0
  -27.8920  -30.4207   23.9612 H   0  0  0  0  0  0
  -27.2665  -33.3648   26.2031 H   0  0  0  0  0  0
  -28.3905  -32.6845   25.0355 H   0  0  0  0  0  0
  -28.0704  -31.8487   26.5470 H   0  0  0  0  0  0
  -28.2596  -38.0086   24.7518 H   0  0  0  0  0  0
  -28.1068  -36.2618   24.6297 H   0  0  0  0  0  0
  -27.2294  -37.1444   25.8874 H   0  0  0  0  0  0
  -20.9458  -29.8781   21.6808 H   0  0  0  0  0  0
  -26.0156  -38.2821   24.1411 H   0  0  0  0  0  0
  -30.7463  -20.7937   21.1948 H   0  0  0  0  0  0
  -28.9449  -18.2791   22.5258 H   0  0  0  0  0  0
  -27.3611  -18.0885   21.8000 H   0  0  0  0  0  0
  -27.8308  -15.8788   21.0870 H   0  0  0  0  0  0
  -28.8714  -15.9135   22.5015 H   0  0  0  0  0  0
  -31.0774  -17.8809   20.8006 H   0  0  0  0  0  0
  -30.5666  -17.5570   19.1566 H   0  0  0  0  0  0
  -28.3550  -18.2417   19.5666 H   0  0  0  0  0  0
  -31.6637  -23.0068   21.3550 H   0  0  0  0  0  0
  -30.5011  -23.6502   22.5189 H   0  0  0  0  0  0
  -30.7424  -24.4508   20.9608 H   0  0  0  0  0  0
  -26.4317  -19.0457   19.9224 H   0  0  0  0  0  0
  -26.5517  -19.8065   18.3319 H   0  0  0  0  0  0
  -25.5219  -20.4544   19.6148 H   0  0  0  0  0  0
  -25.8251  -22.2837   18.3976 H   0  0  0  0  0  0
  -26.3681  -23.8617   18.8099 H   0  0  0  0  0  0
  -25.3928  -22.9575   19.9810 H   0  0  0  0  0  0
  -28.2947  -24.9380   21.8272 H   0  0  0  0  0  0
  -26.8479  -24.7709   20.9659 H   0  0  0  0  0  0
  1 25  1  0  0  0
  1 30  2  0  0  0
  1 85  1  0  0  0
  2  3  1  0  0  0
  2 25  1  0  0  0
  2 86  1  0  0  0
  2 87  1  0  0  0
  3  4  1  0  0  0
  3 88  1  0  0  0
  3 89  1  0  0  0
  4  5  1  0  0  0
  4 90  1  0  0  0
  4 91  1  0  0  0
  5  6  1  0  0  0
  5 26  1  0  0  0
  5 92  1  0  0  0
  6 25  1  0  0  0
  6 93  1  0  0  0
  6 94  1  0  0  0
  7  8  2  0  0  0
  7 26  1  0  0  0
  7 29  1  0  0  0
  8  9  1  0  0  0
  8 22  1  0  0  0
  9 10  1  0  0  0
  9 27  2  0  0  0
 10 11  2  0  0  0
 10 15  1  0  0  0
 11 12  1  0  0  0
 11 95  1  0  0  0
 12 13  2  0  0  0
 12 96  1  0  0  0
 13 14  1  0  0  0
 13 31  1  0  0  0
 14 15  2  0  0  0
 14 97  1  0  0  0
 15 98  1  0  0  0
 16 17  2  0  0  0
 16 21  1  0  0  0
 16 31  1  0  0  0
 17 18  1  0  0  0
 17 99  1  0  0  0
 18 19  2  0  0  0
 18100  1  0  0  0
 19 20  1  0  0  0
 19 24  1  0  0  0
 20 21  2  0  0  0
 20101  1  0  0  0
 21 23  1  0  0  0
 22 28  1  0  0  0
 22 32  2  0  0  0
 26 27  1  0  0  0
 28102  1  0  0  0
 28103  1  0  0  0
 29104  1  0  0  0
 29105  1  0  0  0
 33 34  1  0  0  0
 33 66  1  0  0  0
 33 70  2  0  0  0
 34 36  1  0  0  0
 34 59  1  0  0  0
 34106  1  0  0  0
 35 44  2  0  0  0
 35 45  1  0  0  0
 35 68  1  0  0  0
 36 56  1  0  0  0
 36107  1  0  0  0
 37 39  1  0  0  0
 37 47  1  0  0  0
 37 66  1  0  0  0
 37108  1  0  0  0
 38 43  2  0  0  0
 38 46  1  0  0  0
 38 47  1  0  0  0
 39 64  1  0  0  0
 39 67  2  0  0  0
 40 52  1  0  0  0
 40 53  2  0  0  0
 40 58  1  0  0  0
 41109  1  0  0  0
 41110  1  0  0  0
 41111  1  0  0  0
 41 48  1  0  0  0
 42 43  1  0  0  0
 42 66  1  0  0  0
 42112  1  0  0  0
 42113  1  0  0  0
 43 44  1  0  0  0
 44114  1  0  0  0
 45 46  2  0  0  0
 45115  1  0  0  0
 46116  1  0  0  0
 47117  1  0  0  0
 47118  1  0  0  0
 48 56  1  0  0  0
 48 65  1  0  0  0
 48119  1  0  0  0
 49 50  1  0  0  0
 49 53  1  0  0  0
 49 64  1  0  0  0
 49120  1  0  0  0
 50 51  1  0  0  0
 50121  1  0  0  0
 50122  1  0  0  0
 51 52  1  0  0  0
 51123  1  0  0  0
 51124  1  0  0  0
 52125  1  0  0  0
 52126  1  0  0  0
 53 54  1  0  0  0
 54 55  2  0  0  0
 54127  1  0  0  0
 55 57  1  0  0  0
 55128  1  0  0  0
 56 69  2  0  0  0
 57 58  2  0  0  0
 57129  1  0  0  0
 58130  1  0  0  0
 59 60  1  0  0  0
 59 61  1  0  0  0
 59 62  1  0  0  0
 60131  1  0  0  0
 60132  1  0  0  0
 60133  1  0  0  0
 61134  1  0  0  0
 61135  1  0  0  0
 61136  1  0  0  0
 62137  1  0  0  0
 62138  1  0  0  0
 62139  1  0  0  0
 63 65  1  0  0  0
 63140  1  0  0  0
 63141  1  0  0  0
 63142  1  0  0  0
 64143  1  0  0  0
 65144  1  0  0  0
 68 84  1  0  0  0
 71 72  2  0  0  0
 71 73  1  0  0  0
 71145  1  0  0  0
 72 74  1  0  0  0
 72 80  1  0  0  0
 73 76  2  0  0  0
 73 81  1  0  0  0
 74 75  2  0  0  0
 74 82  1  0  0  0
 75 76  1  0  0  0
 75 83  1  0  0  0
 76 84  1  0  0  0
 77 78  1  0  0  0
 77 80  1  0  0  0
 77146  1  0  0  0
 77147  1  0  0  0
 78 85  1  0  0  0
 78148  1  0  0  0
 78149  1  0  0  0
 79 80  1  0  0  0
 79 85  1  0  0  0
 79150  1  0  0  0
 79151  1  0  0  0
 80152  1  0  0  0
 81153  1  0  0  0
 81154  1  0  0  0
 81155  1  0  0  0
 82156  1  0  0  0
 82157  1  0  0  0
 82158  1  0  0  0
 83159  1  0  0  0
 83160  1  0  0  0
 83161  1  0  0  0
 84162  1  0  0  0
 84163  1  0  0  0
M  ISO  4   1 100  68 101  84 101  85 100
M  END
> <chiral flag>
0

> <version>
0

> <s_m_source_file>
/data/baiqing/PycharmProjects/Reinvent-master-3.2/result/LINK_invent/BTK/process_docking_weight1_custom_sum_contain_oxygen_bond_distance_aromatic_linkinvent_7_9_3/rearranged_h_0160.sdf

> <i_m_source_file_index>
73

> <r_mmod_Potential_Energy-OPLS-2005>
659.141418457031

> <r_mmod_Stretch_Energy-OPLS-2005>
210.474227905273

> <r_mmod_Bend_Energy-OPLS-2005>
293.243286132812

> <r_mmod_Torsional_Energy-OPLS-2005>
345.316833496094

> <r_mmod_Improper_Torsional_Energy-OPLS-2005>
11.1564149856567

> <r_mmod_Van_der_Waal_Energy-OPLS-2005>
146.305709838867

> <r_mmod_Electrostatic_Energy-OPLS-2005>
-301.595123291016

> <r_mmod_Solvation_Energy-OPLS-2005>
-200.714584350586

> <b_mmod_Minimization_Converged-OPLS-2005>
0

> <r_mmod_RMS_Derivative-OPLS-2005>
1.40852618217468

$$$$
73
                    3D
 Structure written by MMmdl.
181191  0  0  1  0            999 V2000
  -30.6709  -14.4779   20.5176 C   0  0  0  0  0  0
  -30.4282  -12.2973   19.4038 C   0  0  0  0  0  0
  -29.4866  -12.4870   18.1924 C   0  0  0  0  0  0
  -28.0094  -12.3417   18.6137 C   0  0  0  0  0  0
  -27.6597  -13.1817   19.8696 C   0  0  2  0  0  0
  -28.7075  -12.9462   20.9807 C   0  0  0  0  0  0
  -25.2634  -13.8086   20.5653 C   0  0  0  0  0  0
  -24.1860  -13.0410   20.9199 C   0  0  0  0  0  0
  -24.6384  -11.6870   20.8789 C   0  0  0  0  0  0
  -23.9034  -10.4283   21.0456 C   0  0  0  0  0  0
  -24.3592   -9.4193   21.9223 C   0  0  0  0  0  0
  -23.6271   -8.2226   22.0779 C   0  0  0  0  0  0
  -22.4259   -8.0275   21.3557 C   0  0  0  0  0  0
  -21.9896   -9.0255   20.4671 C   0  0  0  0  0  0
  -22.7217  -10.2142   20.3097 C   0  0  0  0  0  0
  -21.6840   -6.0749   22.5284 C   0  0  0  0  0  0
  -21.3995   -6.5652   23.8220 C   0  0  0  0  0  0
  -21.3661   -5.6806   24.9178 C   0  0  0  0  0  0
  -21.6048   -4.3072   24.7229 C   0  0  0  0  0  0
  -21.8802   -3.8159   23.4351 C   0  0  0  0  0  0
  -21.9177   -4.6976   22.3402 C   0  0  0  0  0  0
  -22.7897  -13.5269   21.1828 C   0  0  0  0  0  0
  -22.1657   -4.2155   21.0983 F   0  0  0  0  0  0
  -21.5631   -3.4559   25.7745 F   0  0  0  0  0  0
  -30.0284  -13.2794   20.4249 N   0  0  0  0  0  0
  -26.3025  -12.9199   20.3359 N   0  0  0  0  0  0
  -25.9291  -11.6391   20.5806 N   0  0  0  0  0  0
  -22.0504  -12.8300   22.0398 N   0  0  0  0  0  0
  -25.4363  -15.1785   20.3996 N   0  0  0  0  0  0
  -31.8393  -14.6254   20.1455 O   0  0  0  0  0  0
  -21.6622   -6.8878   21.4245 O   0  0  0  0  0  0
  -22.3623  -14.5587   20.6682 O   0  0  0  0  0  0
  -24.6063  -31.8690   23.2108 C   0  0  0  0  0  0
  -25.8955  -32.4844   23.8404 C   0  0  1  0  0  0
  -27.2365  -27.4581   20.0898 C   0  0  0  0  0  0
  -25.5798  -33.8646   24.2332 N   0  0  0  0  0  0
  -23.3951  -30.4898   21.5493 C   0  0  2  0  0  0
  -24.8422  -28.9536   20.1250 C   0  0  0  0  0  0
  -22.7350  -29.4680   22.5001 C   0  0  0  0  0  0
  -18.0270  -28.1356   22.8482 C   0  0  0  0  0  0
  -24.1455  -36.7408   23.2654 C   0  0  0  0  0  0
  -25.9215  -30.8391   21.3638 C   0  0  0  0  0  0
  -25.9999  -29.4699   20.7239 C   0  0  0  0  0  0
  -27.2018  -28.7259   20.7183 C   0  0  0  0  0  0
  -26.0641  -26.9541   19.4949 C   0  0  0  0  0  0
  -24.8656  -27.6879   19.5172 C   0  0  0  0  0  0
  -23.6010  -29.8147   20.1677 C   0  0  0  0  0  0
  -25.4046  -36.3142   24.0356 C   0  0  1  0  0  0
  -20.5852  -28.3650   23.1299 C   0  0  2  0  0  0
  -20.6756  -26.9396   22.5393 C   0  0  0  0  0  0
  -19.5750  -26.6373   21.5184 C   0  0  0  0  0  0
  -18.1930  -26.7904   22.1595 C   0  0  0  0  0  0
  -19.1518  -28.8809   23.2898 C   0  0  0  0  0  0
  -18.9459  -30.1415   23.8900 C   0  0  0  0  0  0
  -17.6467  -30.6570   24.0556 C   0  0  0  0  0  0
  -25.8955  -34.9513   23.5141 C   0  0  0  0  0  0
  -16.5353  -29.9070   23.6325 C   0  0  0  0  0  0
  -16.7261  -28.6482   23.0355 C   0  0  0  0  0  0
  -26.4407  -31.6562   25.0707 C   0  0  0  0  0  0
  -25.3682  -31.3689   26.1475 C   0  0  0  0  0  0
  -27.0237  -30.3006   24.6073 C   0  0  0  0  0  0
  -27.5998  -32.4245   25.7452 C   0  0  0  0  0  0
  -27.5544  -37.1833   24.8468 C   0  0  0  0  0  0
  -21.4092  -29.3023   22.3703 N   0  0  0  0  0  0
  -26.4237  -37.3813   23.9445 N   0  0  0  0  0  0
  -24.6591  -31.0796   22.1013 N   0  0  0  0  0  0
  -23.4126  -28.8258   23.3081 O   0  0  0  0  0  0
  -28.3605  -26.6874   19.9245 O   0  0  0  0  0  0
  -26.5546  -34.8966   22.4712 O   0  0  0  0  0  0
  -23.5257  -32.1420   23.7507 O   0  0  0  0  0  0
  -31.1028  -23.2525   20.9635 C   0  0  0  0  0  0
  -29.5176  -21.3167   19.7109 C   0  0  0  0  0  0
  -30.3850  -23.6122   19.8082 C   0  0  0  0  0  0
  -31.0361  -21.9528   21.5108 C   0  0  0  0  0  0
  -29.5844  -22.6267   19.1743 C   0  0  0  0  0  0
  -30.2457  -20.9669   20.8704 C   0  0  0  0  0  0
  -33.6811  -23.4545   23.0314 C   0  0  0  0  0  0
  -33.7779  -22.5515   24.2279 C   0  0  0  0  0  0
  -29.5213  -17.4600   22.0699 C   0  0  0  0  0  0
  -30.3433  -17.8793   19.7199 C   0  0  0  0  0  0
  -29.0752  -16.0461   21.6513 C   0  0  0  0  0  0
  -29.8159  -16.4787   19.3506 C   0  0  0  0  0  0
  -29.5822  -18.4831   20.9159 C   0  0  0  0  0  0
  -32.4391  -22.7496   23.5487 C   0  0  0  0  0  0
  -28.8254  -22.9371   17.8948 C   0  0  0  0  0  0
  -31.3654  -23.5160   24.3050 C   0  0  0  0  0  0
  -31.8457  -21.5853   22.7620 C   0  0  0  0  0  0
  -30.5653  -25.0203   19.2233 C   0  0  0  0  0  0
  -30.6669  -26.2071   20.2230 C   0  0  0  0  0  0
  -29.3598  -26.6145   20.9291 C   0  0  0  0  0  0
  -29.8367  -15.5518   20.4964 N   0  0  0  0  0  0
  -30.2437  -19.6765   21.4285 N   0  0  0  0  0  0
  -31.4678  -12.4122   19.0929 H   0  0  0  0  0  0
  -30.3474  -11.2837   19.7970 H   0  0  0  0  0  0
  -29.7206  -11.7601   17.4149 H   0  0  0  0  0  0
  -29.6507  -13.4689   17.7446 H   0  0  0  0  0  0
  -27.8280  -11.2860   18.8169 H   0  0  0  0  0  0
  -27.3491  -12.6056   17.7866 H   0  0  0  0  0  0
  -27.6987  -14.2259   19.5644 H   0  0  0  0  0  0
  -28.6991  -11.9000   21.2898 H   0  0  0  0  0  0
  -28.4652  -13.5026   21.8814 H   0  0  0  0  0  0
  -25.2733   -9.5662   22.4825 H   0  0  0  0  0  0
  -23.9970   -7.4608   22.7500 H   0  0  0  0  0  0
  -21.0828   -8.8778   19.8977 H   0  0  0  0  0  0
  -22.3669  -10.9696   19.6231 H   0  0  0  0  0  0
  -21.1984   -7.6158   23.9715 H   0  0  0  0  0  0
  -21.1510   -6.0551   25.9082 H   0  0  0  0  0  0
  -22.0577   -2.7620   23.2851 H   0  0  0  0  0  0
  -22.4092  -11.9958   22.4788 H   0  0  0  0  0  0
  -21.1148  -13.1403   22.2595 H   0  0  0  0  0  0
  -24.6676  -15.8319   20.4987 H   0  0  0  0  0  0
  -26.2824  -15.6078   20.0497 H   0  0  0  0  0  0
  -26.7026  -32.5577   23.1163 H   0  0  0  0  0  0
  -24.9883  -33.9817   25.0437 H   0  0  0  0  0  0
  -22.6833  -31.3051   21.4048 H   0  0  0  0  0  0
  -23.3693  -35.9777   23.3290 H   0  0  0  0  0  0
  -24.3569  -36.9050   22.2074 H   0  0  0  0  0  0
  -23.7266  -37.6626   23.6694 H   0  0  0  0  0  0
  -26.0206  -31.5987   20.5864 H   0  0  0  0  0  0
  -26.8132  -30.9048   21.9745 H   0  0  0  0  0  0
  -28.0910  -29.1493   21.1613 H   0  0  0  0  0  0
  -26.0843  -25.9914   19.0038 H   0  0  0  0  0  0
  -23.9765  -27.2845   19.0508 H   0  0  0  0  0  0
  -23.6980  -30.5793   19.3960 H   0  0  0  0  0  0
  -22.7271  -29.2250   19.8836 H   0  0  0  0  0  0
  -25.1220  -36.2001   25.0845 H   0  0  0  0  0  0
  -20.9948  -28.3224   24.1412 H   0  0  0  0  0  0
  -20.5665  -26.2265   23.3578 H   0  0  0  0  0  0
  -21.6637  -26.7460   22.1194 H   0  0  0  0  0  0
  -19.6928  -25.6287   21.1224 H   0  0  0  0  0  0
  -19.6688  -27.3159   20.6698 H   0  0  0  0  0  0
  -17.4201  -26.6645   21.3994 H   0  0  0  0  0  0
  -18.0338  -26.0027   22.8972 H   0  0  0  0  0  0
  -19.7951  -30.7226   24.2256 H   0  0  0  0  0  0
  -17.5044  -31.6265   24.5157 H   0  0  0  0  0  0
  -15.5364  -30.2999   23.7632 H   0  0  0  0  0  0
  -15.8652  -28.0815   22.7068 H   0  0  0  0  0  0
  -24.5815  -30.7076   25.7817 H   0  0  0  0  0  0
  -24.8908  -32.2852   26.4983 H   0  0  0  0  0  0
  -25.8028  -30.8802   27.0195 H   0  0  0  0  0  0
  -26.2787  -29.6773   24.1107 H   0  0  0  0  0  0
  -27.3970  -29.7258   25.4543 H   0  0  0  0  0  0
  -27.8615  -30.4347   23.9242 H   0  0  0  0  0  0
  -27.2621  -33.3510   26.2124 H   0  0  0  0  0  0
  -28.3756  -32.6801   25.0220 H   0  0  0  0  0  0
  -28.0717  -31.8297   26.5300 H   0  0  0  0  0  0
  -28.2521  -38.0160   24.7491 H   0  0  0  0  0  0
  -28.1071  -36.2665   24.6287 H   0  0  0  0  0  0
  -27.2307  -37.1479   25.8890 H   0  0  0  0  0  0
  -20.9235  -29.8753   21.6935 H   0  0  0  0  0  0
  -26.0134  -38.2876   24.1512 H   0  0  0  0  0  0
  -31.7365  -23.9914   21.4229 H   0  0  0  0  0  0
  -28.9097  -20.5753   19.2137 H   0  0  0  0  0  0
  -34.1119  -23.0959   22.0981 H   0  0  0  0  0  0
  -33.7629  -24.5273   23.1934 H   0  0  0  0  0  0
  -33.9247  -23.0154   25.2017 H   0  0  0  0  0  0
  -34.2810  -21.5952   24.0947 H   0  0  0  0  0  0
  -30.5060  -17.3733   22.5328 H   0  0  0  0  0  0
  -28.8556  -17.8304   22.8516 H   0  0  0  0  0  0
  -30.2535  -18.5365   18.8544 H   0  0  0  0  0  0
  -31.4082  -17.8119   19.9414 H   0  0  0  0  0  0
  -28.0126  -16.0377   21.4084 H   0  0  0  0  0  0
  -29.2065  -15.3964   22.5153 H   0  0  0  0  0  0
  -30.3922  -16.0838   18.5120 H   0  0  0  0  0  0
  -28.7896  -16.5505   18.9873 H   0  0  0  0  0  0
  -28.5629  -18.7286   20.6055 H   0  0  0  0  0  0
  -28.2662  -22.0740   17.5318 H   0  0  0  0  0  0
  -29.5181  -23.2325   17.1057 H   0  0  0  0  0  0
  -28.1138  -23.7494   18.0594 H   0  0  0  0  0  0
  -30.9020  -22.8726   25.0546 H   0  0  0  0  0  0
  -30.5838  -23.8728   23.6321 H   0  0  0  0  0  0
  -31.7897  -24.3802   24.8162 H   0  0  0  0  0  0
  -32.6501  -20.9227   22.4384 H   0  0  0  0  0  0
  -31.2282  -21.0027   23.4468 H   0  0  0  0  0  0
  -29.7926  -25.2468   18.4896 H   0  0  0  0  0  0
  -31.4900  -24.9940   18.6451 H   0  0  0  0  0  0
  -30.9989  -27.0732   19.6503 H   0  0  0  0  0  0
  -31.4476  -26.0523   20.9640 H   0  0  0  0  0  0
  -29.5213  -27.5563   21.4520 H   0  0  0  0  0  0
  -29.0735  -25.8712   21.6748 H   0  0  0  0  0  0
  -30.8406  -19.5328   22.2347 H   0  0  0  0  0  0
  1 25  1  0  0  0
  1 30  2  0  0  0
  1 91  1  0  0  0
  2  3  1  0  0  0
  2 25  1  0  0  0
  2 93  1  0  0  0
  2 94  1  0  0  0
  3  4  1  0  0  0
  3 95  1  0  0  0
  3 96  1  0  0  0
  4  5  1  0  0  0
  4 97  1  0  0  0
  4 98  1  0  0  0
  5  6  1  0  0  0
  5 26  1  0  0  0
  5 99  1  0  0  0
  6 25  1  0  0  0
  6100  1  0  0  0
  6101  1  0  0  0
  7  8  2  0  0  0
  7 26  1  0  0  0
  7 29  1  0  0  0
  8  9  1  0  0  0
  8 22  1  0  0  0
  9 10  1  0  0  0
  9 27  2  0  0  0
 10 11  2  0  0  0
 10 15  1  0  0  0
 11 12  1  0  0  0
 11102  1  0  0  0
 12 13  2  0  0  0
 12103  1  0  0  0
 13 14  1  0  0  0
 13 31  1  0  0  0
 14 15  2  0  0  0
 14104  1  0  0  0
 15105  1  0  0  0
 16 17  2  0  0  0
 16 21  1  0  0  0
 16 31  1  0  0  0
 17 18  1  0  0  0
 17106  1  0  0  0
 18 19  2  0  0  0
 18107  1  0  0  0
 19 20  1  0  0  0
 19 24  1  0  0  0
 20 21  2  0  0  0
 20108  1  0  0  0
 21 23  1  0  0  0
 22 28  1  0  0  0
 22 32  2  0  0  0
 26 27  1  0  0  0
 28109  1  0  0  0
 28110  1  0  0  0
 29111  1  0  0  0
 29112  1  0  0  0
 33 34  1  0  0  0
 33 66  1  0  0  0
 33 70  2  0  0  0
 34 36  1  0  0  0
 34 59  1  0  0  0
 34113  1  0  0  0
 35 44  2  0  0  0
 35 45  1  0  0  0
 35 68  1  0  0  0
 36 56  1  0  0  0
 36114  1  0  0  0
 37 39  1  0  0  0
 37 47  1  0  0  0
 37 66  1  0  0  0
 37115  1  0  0  0
 38 43  2  0  0  0
 38 46  1  0  0  0
 38 47  1  0  0  0
 39 64  1  0  0  0
 39 67  2  0  0  0
 40 52  1  0  0  0
 40 53  2  0  0  0
 40 58  1  0  0  0
 41116  1  0  0  0
 41117  1  0  0  0
 41118  1  0  0  0
 41 48  1  0  0  0
 42 43  1  0  0  0
 42 66  1  0  0  0
 42119  1  0  0  0
 42120  1  0  0  0
 43 44  1  0  0  0
 44121  1  0  0  0
 45 46  2  0  0  0
 45122  1  0  0  0
 46123  1  0  0  0
 47124  1  0  0  0
 47125  1  0  0  0
 48 56  1  0  0  0
 48 65  1  0  0  0
 48126  1  0  0  0
 49 50  1  0  0  0
 49 53  1  0  0  0
 49 64  1  0  0  0
 49127  1  0  0  0
 50 51  1  0  0  0
 50128  1  0  0  0
 50129  1  0  0  0
 51 52  1  0  0  0
 51130  1  0  0  0
 51131  1  0  0  0
 52132  1  0  0  0
 52133  1  0  0  0
 53 54  1  0  0  0
 54 55  2  0  0  0
 54134  1  0  0  0
 55 57  1  0  0  0
 55135  1  0  0  0
 56 69  2  0  0  0
 57 58  2  0  0  0
 57136  1  0  0  0
 58137  1  0  0  0
 59 60  1  0  0  0
 59 61  1  0  0  0
 59 62  1  0  0  0
 60138  1  0  0  0
 60139  1  0  0  0
 60140  1  0  0  0
 61141  1  0  0  0
 61142  1  0  0  0
 61143  1  0  0  0
 62144  1  0  0  0
 62145  1  0  0  0
 62146  1  0  0  0
 63 65  1  0  0  0
 63147  1  0  0  0
 63148  1  0  0  0
 63149  1  0  0  0
 64150  1  0  0  0
 65151  1  0  0  0
 68 90  1  0  0  0
 71 73  2  0  0  0
 71 74  1  0  0  0
 71152  1  0  0  0
 72 75  2  0  0  0
 72 76  1  0  0  0
 72153  1  0  0  0
 73 75  1  0  0  0
 73 88  1  0  0  0
 74 76  2  0  0  0
 74 87  1  0  0  0
 75 85  1  0  0  0
 76 92  1  0  0  0
 77 78  1  0  0  0
 77 84  1  0  0  0
 77154  1  0  0  0
 77155  1  0  0  0
 78 84  1  0  0  0
 78156  1  0  0  0
 78157  1  0  0  0
 79 81  1  0  0  0
 79 83  1  0  0  0
 79158  1  0  0  0
 79159  1  0  0  0
 80 82  1  0  0  0
 80 83  1  0  0  0
 80160  1  0  0  0
 80161  1  0  0  0
 81 91  1  0  0  0
 81162  1  0  0  0
 81163  1  0  0  0
 82 91  1  0  0  0
 82164  1  0  0  0
 82165  1  0  0  0
 83 92  1  0  0  0
 83166  1  0  0  0
 84 86  1  0  0  0
 84 87  1  0  0  0
 85167  1  0  0  0
 85168  1  0  0  0
 85169  1  0  0  0
 86170  1  0  0  0
 86171  1  0  0  0
 86172  1  0  0  0
 87173  1  0  0  0
 87174  1  0  0  0
 88 89  1  0  0  0
 88175  1  0  0  0
 88176  1  0  0  0
 89 90  1  0  0  0
 89177  1  0  0  0
 89178  1  0  0  0
 90179  1  0  0  0
 90180  1  0  0  0
 92181  1  0  0  0
M  ISO  4   1 100  68 101  90 101  91 100
M  END
> <chiral flag>
0

> <version>
0

> <s_m_source_file>
/data/baiqing/PycharmProjects/Reinvent-master-3.2/result/LINK_invent/BTK/process_docking_weight1_custom_sum_contain_oxygen_bond_distance_aromatic_linkinvent_7_9_3/rearranged_h_0160.sdf

> <i_m_source_file_index>
74

> <r_mmod_Potential_Energy-OPLS-2005>
213.6845703125

> <r_mmod_Stretch_Energy-OPLS-2005>
38.8368835449219

> <r_mmod_Bend_Energy-OPLS-2005>
138.716201782227

> <r_mmod_Torsional_Energy-OPLS-2005>
371.925109863281

> <r_mmod_Improper_Torsional_Energy-OPLS-2005>
19.1714839935303

> <r_mmod_Van_der_Waal_Energy-OPLS-2005>
159.039031982422

> <r_mmod_Electrostatic_Energy-OPLS-2005>
-335.082916259766

> <r_mmod_Solvation_Energy-OPLS-2005>
-193.524551391602

> <b_mmod_Minimization_Converged-OPLS-2005>
0

> <r_mmod_RMS_Derivative-OPLS-2005>
3.86671900749207

$$$$
74
                    3D
 Structure written by MMmdl.
174184  0  0  1  0            999 V2000
  -30.6755  -14.5784   20.4386 C   0  0  0  0  0  0
  -30.4264  -12.3425   19.4606 C   0  0  0  0  0  0
  -29.5252  -12.4800   18.2185 C   0  0  0  0  0  0
  -28.0391  -12.3432   18.6195 C   0  0  0  0  0  0
  -27.6484  -13.2171   19.8429 C   0  0  2  0  0  0
  -28.6915  -13.1054   20.9788 C   0  0  0  0  0  0
  -25.2542  -13.8176   20.5662 C   0  0  0  0  0  0
  -24.1809  -13.0417   20.9180 C   0  0  0  0  0  0
  -24.6378  -11.6908   20.8700 C   0  0  0  0  0  0
  -23.9060  -10.4305   21.0413 C   0  0  0  0  0  0
  -24.3601   -9.4242   21.9197 C   0  0  0  0  0  0
  -23.6297   -8.2266   22.0730 C   0  0  0  0  0  0
  -22.4295   -8.0289   21.3513 C   0  0  0  0  0  0
  -21.9916   -9.0291   20.4664 C   0  0  0  0  0  0
  -22.7228  -10.2169   20.3097 C   0  0  0  0  0  0
  -21.6877   -6.0740   22.5261 C   0  0  0  0  0  0
  -21.4051   -6.5640   23.8188 C   0  0  0  0  0  0
  -21.3644   -5.6776   24.9136 C   0  0  0  0  0  0
  -21.6032   -4.3048   24.7190 C   0  0  0  0  0  0
  -21.8840   -3.8143   23.4323 C   0  0  0  0  0  0
  -21.9200   -4.6970   22.3379 C   0  0  0  0  0  0
  -22.7844  -13.5259   21.1784 C   0  0  0  0  0  0
  -22.1670   -4.2152   21.0961 F   0  0  0  0  0  0
  -21.5591   -3.4525   25.7714 F   0  0  0  0  0  0
  -30.0085  -13.3926   20.3982 N   0  0  0  0  0  0
  -26.2956  -12.9352   20.3209 N   0  0  0  0  0  0
  -25.9298  -11.6502   20.5632 N   0  0  0  0  0  0
  -22.0409  -12.8359   22.0385 N   0  0  0  0  0  0
  -25.4140  -15.1870   20.4042 N   0  0  0  0  0  0
  -31.8989  -14.6233   20.2720 O   0  0  0  0  0  0
  -21.6640   -6.8896   21.4227 O   0  0  0  0  0  0
  -22.3580  -14.5529   20.6562 O   0  0  0  0  0  0
  -24.6097  -31.8718   23.2107 C   0  0  0  0  0  0
  -25.9005  -32.4835   23.8381 C   0  0  1  0  0  0
  -27.2057  -27.4347   20.1222 C   0  0  0  0  0  0
  -25.5880  -33.8630   24.2322 N   0  0  0  0  0  0
  -23.3941  -30.4968   21.5498 C   0  0  2  0  0  0
  -24.8364  -28.9665   20.1079 C   0  0  0  0  0  0
  -22.7376  -29.4679   22.4987 C   0  0  0  0  0  0
  -18.0264  -28.1367   22.8506 C   0  0  0  0  0  0
  -24.1488  -36.7327   23.2640 C   0  0  0  0  0  0
  -25.9180  -30.8459   21.3530 C   0  0  0  0  0  0
  -25.9947  -29.4774   20.7073 C   0  0  0  0  0  0
  -27.1873  -28.7199   20.7097 C   0  0  0  0  0  0
  -26.0389  -26.9386   19.5108 C   0  0  0  0  0  0
  -24.8518  -27.6957   19.5039 C   0  0  0  0  0  0
  -23.5974  -29.8321   20.1608 C   0  0  0  0  0  0
  -25.4100  -36.3100   24.0331 C   0  0  1  0  0  0
  -20.5855  -28.3635   23.1324 C   0  0  2  0  0  0
  -20.6759  -26.9376   22.5420 C   0  0  0  0  0  0
  -19.5734  -26.6360   21.5219 C   0  0  0  0  0  0
  -18.1910  -26.7910   22.1626 C   0  0  0  0  0  0
  -19.1521  -28.8808   23.2917 C   0  0  0  0  0  0
  -18.9460  -30.1426   23.8897 C   0  0  0  0  0  0
  -17.6467  -30.6577   24.0547 C   0  0  0  0  0  0
  -25.9022  -34.9475   23.5116 C   0  0  0  0  0  0
  -16.5345  -29.9084   23.6327 C   0  0  0  0  0  0
  -16.7256  -28.6505   23.0340 C   0  0  0  0  0  0
  -26.4453  -31.6592   25.0698 C   0  0  0  0  0  0
  -25.3740  -31.3762   26.1475 C   0  0  0  0  0  0
  -27.0260  -30.3019   24.6059 C   0  0  0  0  0  0
  -27.6004  -32.4324   25.7487 C   0  0  0  0  0  0
  -27.5577  -37.1804   24.8448 C   0  0  0  0  0  0
  -21.4115  -29.3026   22.3720 N   0  0  0  0  0  0
  -26.4274  -37.3791   23.9420 N   0  0  0  0  0  0
  -24.6590  -31.0874   22.0955 N   0  0  0  0  0  0
  -23.4183  -28.8254   23.3031 O   0  0  0  0  0  0
  -28.3297  -26.6463   20.1622 O   0  0  0  0  0  0
  -26.5571  -34.8942   22.4678 O   0  0  0  0  0  0
  -23.5294  -32.1443   23.7523 O   0  0  0  0  0  0
  -29.1210  -22.5243   18.6332 C   0  0  0  0  0  0
  -29.1114  -21.4013   19.5097 C   0  0  0  0  0  0
  -28.9782  -23.8624   19.1025 C   0  0  0  0  0  0
  -29.0162  -21.6931   20.9037 C   0  0  0  0  0  0
  -28.6616  -22.9978   21.3582 C   0  0  0  0  0  0
  -28.6130  -24.0989   20.4565 C   0  0  0  0  0  0
  -29.4312  -22.2517   17.1598 C   0  0  0  0  0  0
  -30.5556  -17.7434   18.7328 C   0  0  0  0  0  0
  -29.0672  -17.9487   20.7007 C   0  0  0  0  0  0
  -30.2906  -16.2363   18.6728 C   0  0  0  0  0  0
  -28.9022  -16.3986   20.7158 C   0  0  0  0  0  0
  -28.6729  -20.0067   17.4146 C   0  0  0  0  0  0
  -29.4169  -20.0344   18.7895 C   0  0  2  0  0  0
  -29.3354  -18.5099   19.2839 C   0  0  0  0  0  0
  -29.3138  -25.0220   18.1631 C   0  0  0  0  0  0
  -29.4434  -20.6948   21.9488 C   0  0  0  0  0  0
  -28.4406  -23.2293   22.8613 C   0  0  0  0  0  0
  -28.2095  -25.4916   21.0133 C   0  0  0  0  0  0
  -29.9469  -15.6446   19.9787 N   0  0  0  0  0  0
  -28.6593  -21.1921   16.6402 O   0  0  0  0  0  0
  -31.4802  -12.4291   19.1877 H   0  0  0  0  0  0
  -30.3034  -11.3622   19.9231 H   0  0  0  0  0  0
  -29.7915  -11.7194   17.4826 H   0  0  0  0  0  0
  -29.6973  -13.4448   17.7373 H   0  0  0  0  0  0
  -27.8527  -11.2929   18.8359 H   0  0  0  0  0  0
  -27.4047  -12.5928   17.7691 H   0  0  0  0  0  0
  -27.6432  -14.2354   19.4621 H   0  0  0  0  0  0
  -28.6819  -12.1067   21.4131 H   0  0  0  0  0  0
  -28.4528  -13.7893   21.7939 H   0  0  0  0  0  0
  -25.2727   -9.5743   22.4776 H   0  0  0  0  0  0
  -24.0000   -7.4688   22.7488 H   0  0  0  0  0  0
  -21.0782   -8.8877   19.9033 H   0  0  0  0  0  0
  -22.3676  -10.9731   19.6235 H   0  0  0  0  0  0
  -21.2110   -7.6157   23.9716 H   0  0  0  0  0  0
  -21.1401   -6.0475   25.9028 H   0  0  0  0  0  0
  -22.0637   -2.7609   23.2799 H   0  0  0  0  0  0
  -22.3895  -12.0078   22.4983 H   0  0  0  0  0  0
  -21.1034  -13.1499   22.2425 H   0  0  0  0  0  0
  -24.6414  -15.8347   20.5191 H   0  0  0  0  0  0
  -26.2524  -15.6375   20.0625 H   0  0  0  0  0  0
  -26.7080  -32.5555   23.1155 H   0  0  0  0  0  0
  -25.0028  -33.9803   25.0450 H   0  0  0  0  0  0
  -22.6794  -31.3112   21.4165 H   0  0  0  0  0  0
  -23.3737  -35.9670   23.3264 H   0  0  0  0  0  0
  -24.3607  -36.8978   22.2063 H   0  0  0  0  0  0
  -23.7245  -37.6529   23.6681 H   0  0  0  0  0  0
  -26.0160  -31.6145   20.5841 H   0  0  0  0  0  0
  -26.8105  -30.9068   21.9650 H   0  0  0  0  0  0
  -28.0729  -29.1067   21.1901 H   0  0  0  0  0  0
  -26.0390  -25.9550   19.0630 H   0  0  0  0  0  0
  -23.9605  -27.2952   19.0422 H   0  0  0  0  0  0
  -23.6995  -30.6100   19.4023 H   0  0  0  0  0  0
  -22.7187  -29.2543   19.8685 H   0  0  0  0  0  0
  -25.1280  -36.1948   25.0819 H   0  0  0  0  0  0
  -20.9952  -28.3208   24.1442 H   0  0  0  0  0  0
  -20.5645  -26.2264   23.3626 H   0  0  0  0  0  0
  -21.6637  -26.7412   22.1228 H   0  0  0  0  0  0
  -19.6903  -25.6285   21.1239 H   0  0  0  0  0  0
  -19.6669  -27.3176   20.6765 H   0  0  0  0  0  0
  -17.4194  -26.6648   21.4020 H   0  0  0  0  0  0
  -18.0292  -26.0053   22.9022 H   0  0  0  0  0  0
  -19.7940  -30.7236   24.2254 H   0  0  0  0  0  0
  -17.5031  -31.6256   24.5155 H   0  0  0  0  0  0
  -15.5354  -30.2976   23.7664 H   0  0  0  0  0  0
  -15.8660  -28.0818   22.7038 H   0  0  0  0  0  0
  -24.5845  -30.7173   25.7891 H   0  0  0  0  0  0
  -24.9015  -32.2952   26.4945 H   0  0  0  0  0  0
  -25.8090  -30.8936   27.0224 H   0  0  0  0  0  0
  -26.2796  -29.6825   24.1075 H   0  0  0  0  0  0
  -27.3987  -29.7243   25.4532 H   0  0  0  0  0  0
  -27.8658  -30.4361   23.9235 H   0  0  0  0  0  0
  -27.2564  -33.3598   26.2098 H   0  0  0  0  0  0
  -28.3798  -32.6921   25.0314 H   0  0  0  0  0  0
  -28.0674  -31.8423   26.5384 H   0  0  0  0  0  0
  -28.2560  -38.0137   24.7511 H   0  0  0  0  0  0
  -28.1098  -36.2653   24.6214 H   0  0  0  0  0  0
  -27.2310  -37.1390   25.8858 H   0  0  0  0  0  0
  -20.9248  -29.8779   21.6983 H   0  0  0  0  0  0
  -26.0145  -38.2871   24.1430 H   0  0  0  0  0  0
  -30.4983  -22.0407   17.0563 H   0  0  0  0  0  0
  -29.2037  -23.0846   16.5004 H   0  0  0  0  0  0
  -30.7869  -18.0705   17.7182 H   0  0  0  0  0  0
  -31.4554  -17.9524   19.3142 H   0  0  0  0  0  0
  -29.8849  -18.1567   21.3826 H   0  0  0  0  0  0
  -28.1473  -18.3767   21.1005 H   0  0  0  0  0  0
  -31.1665  -15.7718   18.2180 H   0  0  0  0  0  0
  -29.4612  -16.0474   17.9908 H   0  0  0  0  0  0
  -28.8532  -16.0756   21.7530 H   0  0  0  0  0  0
  -27.9311  -16.1769   20.2852 H   0  0  0  0  0  0
  -27.6197  -19.7522   17.5579 H   0  0  0  0  0  0
  -29.0805  -19.2158   16.7874 H   0  0  0  0  0  0
  -30.4785  -20.1873   18.5893 H   0  0  0  0  0  0
  -28.4724  -18.0964   18.7586 H   0  0  0  0  0  0
  -28.4232  -25.4451   17.7000 H   0  0  0  0  0  0
  -30.0209  -24.7427   17.3867 H   0  0  0  0  0  0
  -29.8660  -25.8020   18.6848 H   0  0  0  0  0  0
  -29.9055  -21.1718   22.8146 H   0  0  0  0  0  0
  -30.2598  -20.1120   21.5416 H   0  0  0  0  0  0
  -28.6018  -20.0946   22.2962 H   0  0  0  0  0  0
  -28.1649  -22.3256   23.4076 H   0  0  0  0  0  0
  -27.6380  -23.9304   23.0760 H   0  0  0  0  0  0
  -29.3566  -23.6085   23.3155 H   0  0  0  0  0  0
  -27.1890  -25.3945   21.3978 H   0  0  0  0  0  0
  -28.8296  -25.7016   21.8836 H   0  0  0  0  0  0
  1 25  1  0  0  0
  1 30  2  0  0  0
  1 89  1  0  0  0
  2  3  1  0  0  0
  2 25  1  0  0  0
  2 91  1  0  0  0
  2 92  1  0  0  0
  3  4  1  0  0  0
  3 93  1  0  0  0
  3 94  1  0  0  0
  4  5  1  0  0  0
  4 95  1  0  0  0
  4 96  1  0  0  0
  5  6  1  0  0  0
  5 26  1  0  0  0
  5 97  1  0  0  0
  6 25  1  0  0  0
  6 98  1  0  0  0
  6 99  1  0  0  0
  7  8  2  0  0  0
  7 26  1  0  0  0
  7 29  1  0  0  0
  8  9  1  0  0  0
  8 22  1  0  0  0
  9 10  1  0  0  0
  9 27  2  0  0  0
 10 11  2  0  0  0
 10 15  1  0  0  0
 11 12  1  0  0  0
 11100  1  0  0  0
 12 13  2  0  0  0
 12101  1  0  0  0
 13 14  1  0  0  0
 13 31  1  0  0  0
 14 15  2  0  0  0
 14102  1  0  0  0
 15103  1  0  0  0
 16 17  2  0  0  0
 16 21  1  0  0  0
 16 31  1  0  0  0
 17 18  1  0  0  0
 17104  1  0  0  0
 18 19  2  0  0  0
 18105  1  0  0  0
 19 20  1  0  0  0
 19 24  1  0  0  0
 20 21  2  0  0  0
 20106  1  0  0  0
 21 23  1  0  0  0
 22 28  1  0  0  0
 22 32  2  0  0  0
 26 27  1  0  0  0
 28107  1  0  0  0
 28108  1  0  0  0
 29109  1  0  0  0
 29110  1  0  0  0
 33 34  1  0  0  0
 33 66  1  0  0  0
 33 70  2  0  0  0
 34 36  1  0  0  0
 34 59  1  0  0  0
 34111  1  0  0  0
 35 44  2  0  0  0
 35 45  1  0  0  0
 35 68  1  0  0  0
 36 56  1  0  0  0
 36112  1  0  0  0
 37 39  1  0  0  0
 37 47  1  0  0  0
 37 66  1  0  0  0
 37113  1  0  0  0
 38 43  2  0  0  0
 38 46  1  0  0  0
 38 47  1  0  0  0
 39 64  1  0  0  0
 39 67  2  0  0  0
 40 52  1  0  0  0
 40 53  2  0  0  0
 40 58  1  0  0  0
 41114  1  0  0  0
 41115  1  0  0  0
 41116  1  0  0  0
 41 48  1  0  0  0
 42 43  1  0  0  0
 42 66  1  0  0  0
 42117  1  0  0  0
 42118  1  0  0  0
 43 44  1  0  0  0
 44119  1  0  0  0
 45 46  2  0  0  0
 45120  1  0  0  0
 46121  1  0  0  0
 47122  1  0  0  0
 47123  1  0  0  0
 48 56  1  0  0  0
 48 65  1  0  0  0
 48124  1  0  0  0
 49 50  1  0  0  0
 49 53  1  0  0  0
 49 64  1  0  0  0
 49125  1  0  0  0
 50 51  1  0  0  0
 50126  1  0  0  0
 50127  1  0  0  0
 51 52  1  0  0  0
 51128  1  0  0  0
 51129  1  0  0  0
 52130  1  0  0  0
 52131  1  0  0  0
 53 54  1  0  0  0
 54 55  2  0  0  0
 54132  1  0  0  0
 55 57  1  0  0  0
 55133  1  0  0  0
 56 69  2  0  0  0
 57 58  2  0  0  0
 57134  1  0  0  0
 58135  1  0  0  0
 59 60  1  0  0  0
 59 61  1  0  0  0
 59 62  1  0  0  0
 60136  1  0  0  0
 60137  1  0  0  0
 60138  1  0  0  0
 61139  1  0  0  0
 61140  1  0  0  0
 61141  1  0  0  0
 62142  1  0  0  0
 62143  1  0  0  0
 62144  1  0  0  0
 63 65  1  0  0  0
 63145  1  0  0  0
 63146  1  0  0  0
 63147  1  0  0  0
 64148  1  0  0  0
 65149  1  0  0  0
 68 88  1  0  0  0
 71 72  1  0  0  0
 71 73  2  0  0  0
 71 77  1  0  0  0
 72 74  2  0  0  0
 72 83  1  0  0  0
 73 76  1  0  0  0
 73 85  1  0  0  0
 74 75  1  0  0  0
 74 86  1  0  0  0
 75 76  2  0  0  0
 75 87  1  0  0  0
 76 88  1  0  0  0
 77 90  1  0  0  0
 77150  1  0  0  0
 77151  1  0  0  0
 78 80  1  0  0  0
 78152  1  0  0  0
 78153  1  0  0  0
 78 84  1  0  0  0
 79 81  1  0  0  0
 79 84  1  0  0  0
 79154  1  0  0  0
 79155  1  0  0  0
 80 89  1  0  0  0
 80156  1  0  0  0
 80157  1  0  0  0
 81 89  1  0  0  0
 81158  1  0  0  0
 81159  1  0  0  0
 82 90  1  0  0  0
 82160  1  0  0  0
 82161  1  0  0  0
 82 83  1  0  0  0
 83 84  1  0  0  0
 83162  1  0  0  0
 84163  1  0  0  0
 85164  1  0  0  0
 85165  1  0  0  0
 85166  1  0  0  0
 86167  1  0  0  0
 86168  1  0  0  0
 86169  1  0  0  0
 87170  1  0  0  0
 87171  1  0  0  0
 87172  1  0  0  0
 88173  1  0  0  0
 88174  1  0  0  0
M  ISO  4   1 100  68 101  88 101  89 100
M  END
> <chiral flag>
0

> <version>
0

> <s_m_source_file>
/data/baiqing/PycharmProjects/Reinvent-master-3.2/result/LINK_invent/BTK/process_docking_weight1_custom_sum_contain_oxygen_bond_distance_aromatic_linkinvent_7_9_3/rearranged_h_0160.sdf

> <i_m_source_file_index>
75

> <r_mmod_Potential_Energy-OPLS-2005>
521.363891601562

> <r_mmod_Stretch_Energy-OPLS-2005>
61.9842529296875

> <r_mmod_Bend_Energy-OPLS-2005>
223.262008666992

> <r_mmod_Torsional_Energy-OPLS-2005>
405.889068603516

> <r_mmod_Improper_Torsional_Energy-OPLS-2005>
27.7839584350586

> <r_mmod_Van_der_Waal_Energy-OPLS-2005>
210.495941162109

> <r_mmod_Electrostatic_Energy-OPLS-2005>
-246.962036132812

> <r_mmod_Solvation_Energy-OPLS-2005>
-197.763046264648

> <b_mmod_Minimization_Converged-OPLS-2005>
0

> <r_mmod_RMS_Derivative-OPLS-2005>
6.31331205368042

$$$$
75
                    3D
 Structure written by MMmdl.
172181  0  0  1  0            999 V2000
  -30.6916  -14.4552   20.5714 C   0  0  0  0  0  0
  -30.4227  -12.2922   19.4239 C   0  0  0  0  0  0
  -29.4959  -12.5032   18.2081 C   0  0  0  0  0  0
  -28.0167  -12.3633   18.6183 C   0  0  0  0  0  0
  -27.6625  -13.2007   19.8760 C   0  0  2  0  0  0
  -28.7008  -12.9656   20.9969 C   0  0  0  0  0  0
  -25.2584  -13.8151   20.5658 C   0  0  0  0  0  0
  -24.1827  -13.0438   20.9154 C   0  0  0  0  0  0
  -24.6368  -11.6902   20.8721 C   0  0  0  0  0  0
  -23.9038  -10.4291   21.0401 C   0  0  0  0  0  0
  -24.3596   -9.4209   21.9179 C   0  0  0  0  0  0
  -23.6273   -8.2247   22.0756 C   0  0  0  0  0  0
  -22.4255   -8.0278   21.3549 C   0  0  0  0  0  0
  -21.9884   -9.0250   20.4655 C   0  0  0  0  0  0
  -22.7211  -10.2127   20.3056 C   0  0  0  0  0  0
  -21.6852   -6.0724   22.5280 C   0  0  0  0  0  0
  -21.4014   -6.5627   23.8208 C   0  0  0  0  0  0
  -21.3659   -5.6783   24.9174 C   0  0  0  0  0  0
  -21.6046   -4.3047   24.7227 C   0  0  0  0  0  0
  -21.8819   -3.8137   23.4349 C   0  0  0  0  0  0
  -21.9189   -4.6955   22.3404 C   0  0  0  0  0  0
  -22.7853  -13.5252   21.1827 C   0  0  0  0  0  0
  -22.1659   -4.2137   21.0982 F   0  0  0  0  0  0
  -21.5630   -3.4534   25.7742 F   0  0  0  0  0  0
  -30.0366  -13.2682   20.4545 N   0  0  0  0  0  0
  -26.3014  -12.9309   20.3347 N   0  0  0  0  0  0
  -25.9288  -11.6476   20.5737 N   0  0  0  0  0  0
  -22.0489  -12.8258   22.0393 N   0  0  0  0  0  0
  -25.4326  -15.1867   20.4082 N   0  0  0  0  0  0
  -31.8200  -14.6332   20.0992 O   0  0  0  0  0  0
  -21.6633   -6.8866   21.4238 O   0  0  0  0  0  0
  -22.3547  -14.5565   20.6687 O   0  0  0  0  0  0
  -24.6108  -31.8698   23.2121 C   0  0  0  0  0  0
  -25.9012  -32.4835   23.8410 C   0  0  1  0  0  0
  -27.2407  -27.4540   20.1032 C   0  0  0  0  0  0
  -25.5875  -33.8635   24.2337 N   0  0  0  0  0  0
  -23.3986  -30.4922   21.5508 C   0  0  2  0  0  0
  -24.8491  -28.9590   20.1169 C   0  0  0  0  0  0
  -22.7397  -29.4656   22.4994 C   0  0  0  0  0  0
  -18.0268  -28.1369   22.8494 C   0  0  0  0  0  0
  -24.1485  -36.7335   23.2640 C   0  0  0  0  0  0
  -25.9228  -30.8421   21.3623 C   0  0  0  0  0  0
  -26.0036  -29.4733   20.7203 C   0  0  0  0  0  0
  -27.2015  -28.7273   20.7203 C   0  0  0  0  0  0
  -26.0765  -26.9569   19.4847 C   0  0  0  0  0  0
  -24.8785  -27.6970   19.4974 C   0  0  0  0  0  0
  -23.6088  -29.8227   20.1654 C   0  0  0  0  0  0
  -25.4100  -36.3124   24.0341 C   0  0  1  0  0  0
  -20.5857  -28.3652   23.1330 C   0  0  2  0  0  0
  -20.6759  -26.9390   22.5425 C   0  0  0  0  0  0
  -19.5740  -26.6381   21.5215 C   0  0  0  0  0  0
  -18.1915  -26.7916   22.1621 C   0  0  0  0  0  0
  -19.1516  -28.8824   23.2914 C   0  0  0  0  0  0
  -18.9446  -30.1432   23.8922 C   0  0  0  0  0  0
  -17.6450  -30.6577   24.0564 C   0  0  0  0  0  0
  -25.9024  -34.9486   23.5136 C   0  0  0  0  0  0
  -16.5342  -29.9081   23.6320 C   0  0  0  0  0  0
  -16.7258  -28.6497   23.0342 C   0  0  0  0  0  0
  -26.4459  -31.6605   25.0722 C   0  0  0  0  0  0
  -25.3743  -31.3707   26.1487 C   0  0  0  0  0  0
  -27.0285  -30.3053   24.6069 C   0  0  0  0  0  0
  -27.6051  -32.4319   25.7460 C   0  0  0  0  0  0
  -27.5581  -37.1814   24.8458 C   0  0  0  0  0  0
  -21.4127  -29.3023   22.3740 N   0  0  0  0  0  0
  -26.4291  -37.3804   23.9409 N   0  0  0  0  0  0
  -24.6621  -31.0820   22.1011 N   0  0  0  0  0  0
  -23.4184  -28.8199   23.3026 O   0  0  0  0  0  0
  -28.3705  -26.6716   20.0460 O   0  0  0  0  0  0
  -26.5590  -34.8928   22.4702 O   0  0  0  0  0  0
  -23.5308  -32.1439   23.7529 O   0  0  0  0  0  0
  -30.7049  -17.4199   19.8686 C   0  0  0  0  0  0
  -30.1450  -19.6507   20.6670 C   0  0  0  0  0  0
  -30.7567  -18.8158   19.6966 C   0  0  0  0  0  0
  -30.0667  -16.8521   20.9924 C   0  0  0  0  0  0
  -29.4938  -19.0057   21.7457 C   0  0  0  0  0  0
  -28.8921  -21.9405   20.4392 C   0  0  0  0  0  0
  -31.0242  -21.8187   21.7336 C   0  0  0  0  0  0
  -29.1177  -23.4627   20.2316 C   0  0  0  0  0  0
  -31.2402  -23.3253   21.4998 C   0  0  0  0  0  0
  -30.2348  -21.1925   20.5742 C   0  0  1  0  0  0
  -31.4788  -19.3652   18.4763 C   0  0  0  0  0  0
  -27.6235  -20.2170   24.7009 C   0  0  0  0  0  0
  -30.2600  -25.5275   21.0671 C   0  0  0  0  0  0
  -28.2413  -19.1343   23.8108 C   0  0  0  0  0  0
  -29.0743  -26.4942   21.2734 C   0  0  0  0  0  0
  -29.4565  -17.6566   21.8916 N   0  0  0  0  0  0
  -29.9806  -15.4379   21.1616 N   0  0  0  0  0  0
  -29.9682  -24.0777   21.2948 N   0  3  1  0  0  0
  -28.8686  -19.7752   22.7054 O   0  0  0  0  0  0
  -31.4684  -12.3869   19.1257 H   0  0  0  0  0  0
  -30.3167  -11.2792   19.8141 H   0  0  0  0  0  0
  -29.7336  -11.7831   17.4243 H   0  0  0  0  0  0
  -29.6677  -13.4914   17.7773 H   0  0  0  0  0  0
  -27.8268  -11.3073   18.8147 H   0  0  0  0  0  0
  -27.3676  -12.6379   17.7863 H   0  0  0  0  0  0
  -27.7120  -14.2489   19.5815 H   0  0  0  0  0  0
  -28.6725  -11.9254   21.3244 H   0  0  0  0  0  0
  -28.4585  -13.5519   21.8839 H   0  0  0  0  0  0
  -25.2745   -9.5681   22.4748 H   0  0  0  0  0  0
  -23.9984   -7.4636   22.7472 H   0  0  0  0  0  0
  -21.0812   -8.8767   19.8963 H   0  0  0  0  0  0
  -22.3671  -10.9662   19.6162 H   0  0  0  0  0  0
  -21.2009   -7.6136   23.9708 H   0  0  0  0  0  0
  -21.1481   -6.0516   25.9073 H   0  0  0  0  0  0
  -22.0597   -2.7599   23.2858 H   0  0  0  0  0  0
  -22.4095  -11.9923   22.4797 H   0  0  0  0  0  0
  -21.1119  -13.1311   22.2611 H   0  0  0  0  0  0
  -24.6690  -15.8445   20.5217 H   0  0  0  0  0  0
  -26.2884  -15.6270   20.0949 H   0  0  0  0  0  0
  -26.7086  -32.5567   23.1185 H   0  0  0  0  0  0
  -25.0006  -33.9802   25.0466 H   0  0  0  0  0  0
  -22.6858  -31.3076   21.4117 H   0  0  0  0  0  0
  -23.3733  -35.9684   23.3311 H   0  0  0  0  0  0
  -24.3583  -36.8943   22.2055 H   0  0  0  0  0  0
  -23.7252  -37.6549   23.6648 H   0  0  0  0  0  0
  -26.0248  -31.6036   20.5878 H   0  0  0  0  0  0
  -26.8139  -30.9056   21.9745 H   0  0  0  0  0  0
  -28.0870  -29.1448   21.1780 H   0  0  0  0  0  0
  -26.0970  -25.9914   18.9993 H   0  0  0  0  0  0
  -23.9932  -27.2960   19.0233 H   0  0  0  0  0  0
  -23.7148  -30.5970   19.4045 H   0  0  0  0  0  0
  -22.7343  -29.2400   19.8710 H   0  0  0  0  0  0
  -25.1277  -36.1994   25.0835 H   0  0  0  0  0  0
  -20.9950  -28.3213   24.1448 H   0  0  0  0  0  0
  -20.5655  -26.2258   23.3610 H   0  0  0  0  0  0
  -21.6633  -26.7431   22.1222 H   0  0  0  0  0  0
  -19.6906  -25.6296   21.1230 H   0  0  0  0  0  0
  -19.6680  -27.3206   20.6757 H   0  0  0  0  0  0
  -17.4191  -26.6674   21.4016 H   0  0  0  0  0  0
  -18.0307  -26.0043   22.9002 H   0  0  0  0  0  0
  -19.7922  -30.7241   24.2304 H   0  0  0  0  0  0
  -17.5004  -31.6258   24.5164 H   0  0  0  0  0  0
  -15.5343  -30.2994   23.7623 H   0  0  0  0  0  0
  -15.8657  -28.0830   22.7036 H   0  0  0  0  0  0
  -24.5899  -30.7068   25.7833 H   0  0  0  0  0  0
  -24.8948  -32.2863   26.4963 H   0  0  0  0  0  0
  -25.8108  -30.8858   27.0228 H   0  0  0  0  0  0
  -26.2812  -29.6807   24.1160 H   0  0  0  0  0  0
  -27.4112  -29.7295   25.4507 H   0  0  0  0  0  0
  -27.8624  -30.4387   23.9172 H   0  0  0  0  0  0
  -27.2679  -33.3598   26.2093 H   0  0  0  0  0  0
  -28.3813  -32.6917   25.0249 H   0  0  0  0  0  0
  -28.0776  -31.8417   26.5322 H   0  0  0  0  0  0
  -28.2602  -38.0108   24.7505 H   0  0  0  0  0  0
  -28.1070  -36.2642   24.6273 H   0  0  0  0  0  0
  -27.2308  -37.1460   25.8864 H   0  0  0  0  0  0
  -20.9280  -29.8753   21.6976 H   0  0  0  0  0  0
  -26.0185  -38.2888   24.1402 H   0  0  0  0  0  0
  -31.1660  -16.7922   19.1192 H   0  0  0  0  0  0
  -28.3342  -21.5455   19.5892 H   0  0  0  0  0  0
  -28.2636  -21.7825   21.3153 H   0  0  0  0  0  0
  -30.5179  -21.6661   22.6864 H   0  0  0  0  0  0
  -31.9969  -21.3332   21.8231 H   0  0  0  0  0  0
  -28.1510  -23.9673   20.1972 H   0  0  0  0  0  0
  -29.5845  -23.6299   19.2596 H   0  0  0  0  0  0
  -31.8879  -23.4686   20.6329 H   0  0  0  0  0  0
  -31.7775  -23.7375   22.3554 H   0  0  0  0  0  0
  -30.7896  -21.4438   19.6735 H   0  0  0  0  0  0
  -31.8612  -18.5657   17.8405 H   0  0  0  0  0  0
  -32.3292  -19.9787   18.7751 H   0  0  0  0  0  0
  -30.8043  -19.9705   17.8701 H   0  0  0  0  0  0
  -27.1315  -19.7739   25.5674 H   0  0  0  0  0  0
  -26.8791  -20.7966   24.1547 H   0  0  0  0  0  0
  -28.3851  -20.9069   25.0645 H   0  0  0  0  0  0
  -31.0177  -25.8252   21.7937 H   0  0  0  0  0  0
  -30.7151  -25.6847   20.0883 H   0  0  0  0  0  0
  -27.4626  -18.4513   23.4679 H   0  0  0  0  0  0
  -28.9724  -18.5577   24.3804 H   0  0  0  0  0  0
  -29.4742  -27.4555   21.5962 H   0  0  0  0  0  0
  -28.4082  -26.1449   22.0636 H   0  0  0  0  0  0
  -29.1718  -15.1219   21.6707 H   0  0  0  0  0  0
  -29.4547  -24.0090   22.1627 H   0  0  0  0  0  0
  1 25  1  0  0  0
  1 30  2  0  0  0
  1 87  1  0  0  0
  2  3  1  0  0  0
  2 25  1  0  0  0
  2 90  1  0  0  0
  2 91  1  0  0  0
  3  4  1  0  0  0
  3 92  1  0  0  0
  3 93  1  0  0  0
  4  5  1  0  0  0
  4 94  1  0  0  0
  4 95  1  0  0  0
  5  6  1  0  0  0
  5 26  1  0  0  0
  5 96  1  0  0  0
  6 25  1  0  0  0
  6 97  1  0  0  0
  6 98  1  0  0  0
  7  8  2  0  0  0
  7 26  1  0  0  0
  7 29  1  0  0  0
  8  9  1  0  0  0
  8 22  1  0  0  0
  9 10  1  0  0  0
  9 27  2  0  0  0
 10 11  2  0  0  0
 10 15  1  0  0  0
 11 12  1  0  0  0
 11 99  1  0  0  0
 12 13  2  0  0  0
 12100  1  0  0  0
 13 14  1  0  0  0
 13 31  1  0  0  0
 14 15  2  0  0  0
 14101  1  0  0  0
 15102  1  0  0  0
 16 17  2  0  0  0
 16 21  1  0  0  0
 16 31  1  0  0  0
 17 18  1  0  0  0
 17103  1  0  0  0
 18 19  2  0  0  0
 18104  1  0  0  0
 19 20  1  0  0  0
 19 24  1  0  0  0
 20 21  2  0  0  0
 20105  1  0  0  0
 21 23  1  0  0  0
 22 28  1  0  0  0
 22 32  2  0  0  0
 26 27  1  0  0  0
 28106  1  0  0  0
 28107  1  0  0  0
 29108  1  0  0  0
 29109  1  0  0  0
 33 34  1  0  0  0
 33 66  1  0  0  0
 33 70  2  0  0  0
 34 36  1  0  0  0
 34 59  1  0  0  0
 34110  1  0  0  0
 35 44  2  0  0  0
 35 45  1  0  0  0
 35 68  1  0  0  0
 36 56  1  0  0  0
 36111  1  0  0  0
 37 39  1  0  0  0
 37 47  1  0  0  0
 37 66  1  0  0  0
 37112  1  0  0  0
 38 43  2  0  0  0
 38 46  1  0  0  0
 38 47  1  0  0  0
 39 64  1  0  0  0
 39 67  2  0  0  0
 40 52  1  0  0  0
 40 53  2  0  0  0
 40 58  1  0  0  0
 41113  1  0  0  0
 41114  1  0  0  0
 41115  1  0  0  0
 41 48  1  0  0  0
 42 43  1  0  0  0
 42 66  1  0  0  0
 42116  1  0  0  0
 42117  1  0  0  0
 43 44  1  0  0  0
 44118  1  0  0  0
 45 46  2  0  0  0
 45119  1  0  0  0
 46120  1  0  0  0
 47121  1  0  0  0
 47122  1  0  0  0
 48 56  1  0  0  0
 48 65  1  0  0  0
 48123  1  0  0  0
 49 50  1  0  0  0
 49 53  1  0  0  0
 49 64  1  0  0  0
 49124  1  0  0  0
 50 51  1  0  0  0
 50125  1  0  0  0
 50126  1  0  0  0
 51 52  1  0  0  0
 51127  1  0  0  0
 51128  1  0  0  0
 52129  1  0  0  0
 52130  1  0  0  0
 53 54  1  0  0  0
 54 55  2  0  0  0
 54131  1  0  0  0
 55 57  1  0  0  0
 55132  1  0  0  0
 56 69  2  0  0  0
 57 58  2  0  0  0
 57133  1  0  0  0
 58134  1  0  0  0
 59 60  1  0  0  0
 59 61  1  0  0  0
 59 62  1  0  0  0
 60135  1  0  0  0
 60136  1  0  0  0
 60137  1  0  0  0
 61138  1  0  0  0
 61139  1  0  0  0
 61140  1  0  0  0
 62141  1  0  0  0
 62142  1  0  0  0
 62143  1  0  0  0
 63 65  1  0  0  0
 63144  1  0  0  0
 63145  1  0  0  0
 63146  1  0  0  0
 64147  1  0  0  0
 65148  1  0  0  0
 68 85  1  0  0  0
 71 73  2  0  0  0
 71 74  1  0  0  0
 71149  1  0  0  0
 72 73  1  0  0  0
 72 75  2  0  0  0
 72 80  1  0  0  0
 73 81  1  0  0  0
 74 86  2  0  0  0
 74 87  1  0  0  0
 75 86  1  0  0  0
 75 89  1  0  0  0
 76 78  1  0  0  0
 76 80  1  0  0  0
 76150  1  0  0  0
 76151  1  0  0  0
 77 79  1  0  0  0
 77 80  1  0  0  0
 77152  1  0  0  0
 77153  1  0  0  0
 78 88  1  0  0  0
 78154  1  0  0  0
 78155  1  0  0  0
 79 88  1  0  0  0
 79156  1  0  0  0
 79157  1  0  0  0
 80158  1  0  0  0
 81159  1  0  0  0
 81160  1  0  0  0
 81161  1  0  0  0
 82 84  1  0  0  0
 82162  1  0  0  0
 82163  1  0  0  0
 82164  1  0  0  0
 83 85  1  0  0  0
 83165  1  0  0  0
 83166  1  0  0  0
 83 88  1  0  0  0
 84 89  1  0  0  0
 84167  1  0  0  0
 84168  1  0  0  0
 85169  1  0  0  0
 85170  1  0  0  0
 87171  1  0  0  0
 88172  1  0  0  0
M  CHG  1  88   1
M  ISO  4   1 100  68 101  85 101  87 100
M  END
> <chiral flag>
0

> <version>
0

> <s_m_source_file>
/data/baiqing/PycharmProjects/Reinvent-master-3.2/result/LINK_invent/BTK/process_docking_weight1_custom_sum_contain_oxygen_bond_distance_aromatic_linkinvent_7_9_3/rearranged_h_0160.sdf

> <i_m_source_file_index>
76

> <r_mmod_Potential_Energy-OPLS-2005>
-233.023956298828

> <r_mmod_Stretch_Energy-OPLS-2005>
39.5696296691895

> <r_mmod_Bend_Energy-OPLS-2005>
116.642456054688

> <r_mmod_Torsional_Energy-OPLS-2005>
253.915802001953

> <r_mmod_Improper_Torsional_Energy-OPLS-2005>
3.08305287361145

> <r_mmod_Van_der_Waal_Energy-OPLS-2005>
169.211135864258

> <r_mmod_Electrostatic_Energy-OPLS-2005>
-409.992828369141

> <r_mmod_Solvation_Energy-OPLS-2005>
-415.783752441406

> <b_mmod_Minimization_Converged-OPLS-2005>
0

> <r_mmod_RMS_Derivative-OPLS-2005>
1.1009840965271

$$$$
76
                    3D
 Structure written by MMmdl.
183192  0  0  1  0            999 V2000
  -30.7372  -14.4281   20.5867 C   0  0  0  0  0  0
  -30.4110  -12.2846   19.4283 C   0  0  0  0  0  0
  -29.4943  -12.5095   18.2115 C   0  0  0  0  0  0
  -28.0148  -12.3758   18.6200 C   0  0  0  0  0  0
  -27.6631  -13.2106   19.8809 C   0  0  2  0  0  0
  -28.7020  -12.9913   21.0051 C   0  0  0  0  0  0
  -25.2582  -13.8153   20.5712 C   0  0  0  0  0  0
  -24.1824  -13.0426   20.9173 C   0  0  0  0  0  0
  -24.6381  -11.6902   20.8724 C   0  0  0  0  0  0
  -23.9063  -10.4287   21.0392 C   0  0  0  0  0  0
  -24.3613   -9.4202   21.9173 C   0  0  0  0  0  0
  -23.6287   -8.2243   22.0750 C   0  0  0  0  0  0
  -22.4264   -8.0285   21.3555 C   0  0  0  0  0  0
  -21.9903   -9.0262   20.4661 C   0  0  0  0  0  0
  -22.7233  -10.2130   20.3048 C   0  0  0  0  0  0
  -21.6851   -6.0731   22.5282 C   0  0  0  0  0  0
  -21.4022   -6.5634   23.8211 C   0  0  0  0  0  0
  -21.3658   -5.6785   24.9177 C   0  0  0  0  0  0
  -21.6042   -4.3047   24.7227 C   0  0  0  0  0  0
  -21.8820   -3.8146   23.4344 C   0  0  0  0  0  0
  -21.9198   -4.6967   22.3399 C   0  0  0  0  0  0
  -22.7846  -13.5235   21.1837 C   0  0  0  0  0  0
  -22.1661   -4.2149   21.0976 F   0  0  0  0  0  0
  -21.5630   -3.4528   25.7739 F   0  0  0  0  0  0
  -30.0392  -13.2704   20.4561 N   0  0  0  0  0  0
  -26.3027  -12.9338   20.3390 N   0  0  0  0  0  0
  -25.9311  -11.6491   20.5754 N   0  0  0  0  0  0
  -22.0477  -12.8242   22.0388 N   0  0  0  0  0  0
  -25.4307  -15.1860   20.4173 N   0  0  0  0  0  0
  -31.8435  -14.6027   20.0691 O   0  0  0  0  0  0
  -21.6632   -6.8877   21.4243 O   0  0  0  0  0  0
  -22.3539  -14.5550   20.6691 O   0  0  0  0  0  0
  -24.6082  -31.8696   23.2135 C   0  0  0  0  0  0
  -25.9000  -32.4842   23.8409 C   0  0  1  0  0  0
  -27.2569  -27.4853   20.0967 C   0  0  0  0  0  0
  -25.5882  -33.8636   24.2362 N   0  0  0  0  0  0
  -23.3931  -30.4899   21.5530 C   0  0  2  0  0  0
  -24.8424  -28.9585   20.1194 C   0  0  0  0  0  0
  -22.7371  -29.4640   22.5037 C   0  0  0  0  0  0
  -18.0246  -28.1351   22.8475 C   0  0  0  0  0  0
  -24.1489  -36.7328   23.2626 C   0  0  0  0  0  0
  -25.9118  -30.8551   21.3534 C   0  0  0  0  0  0
  -25.9937  -29.4882   20.7126 C   0  0  0  0  0  0
  -27.2006  -28.7627   20.7023 C   0  0  0  0  0  0
  -26.0879  -26.9662   19.5008 C   0  0  0  0  0  0
  -24.8814  -27.6915   19.5121 C   0  0  0  0  0  0
  -23.5976  -29.8140   20.1695 C   0  0  0  0  0  0
  -25.4105  -36.3133   24.0341 C   0  0  1  0  0  0
  -20.5830  -28.3614   23.1358 C   0  0  2  0  0  0
  -20.6738  -26.9363   22.5435 C   0  0  0  0  0  0
  -19.5742  -26.6374   21.5193 C   0  0  0  0  0  0
  -18.1905  -26.7916   22.1585 C   0  0  0  0  0  0
  -19.1493  -28.8808   23.2913 C   0  0  0  0  0  0
  -18.9417  -30.1416   23.8919 C   0  0  0  0  0  0
  -17.6423  -30.6566   24.0548 C   0  0  0  0  0  0
  -25.9021  -34.9484   23.5148 C   0  0  0  0  0  0
  -16.5314  -29.9055   23.6323 C   0  0  0  0  0  0
  -16.7241  -28.6470   23.0348 C   0  0  0  0  0  0
  -26.4486  -31.6604   25.0706 C   0  0  0  0  0  0
  -25.3802  -31.3658   26.1494 C   0  0  0  0  0  0
  -27.0284  -30.3069   24.5985 C   0  0  0  0  0  0
  -27.6102  -32.4309   25.7425 C   0  0  0  0  0  0
  -27.5601  -37.1795   24.8444 C   0  0  0  0  0  0
  -21.4103  -29.2988   22.3781 N   0  0  0  0  0  0
  -26.4292  -37.3818   23.9417 N   0  0  0  0  0  0
  -24.6559  -31.0844   22.1011 N   0  0  0  0  0  0
  -23.4168  -28.8181   23.3055 O   0  0  0  0  0  0
  -28.3924  -26.7100   19.9963 O   0  0  0  0  0  0
  -26.5566  -34.8923   22.4704 O   0  0  0  0  0  0
  -23.5298  -32.1418   23.7584 O   0  0  0  0  0  0
  -31.9267  -21.0847   21.1820 C   0  0  0  0  0  0
  -31.1560  -21.7936   20.2228 C   0  0  0  0  0  0
  -31.4448  -19.8597   21.7210 C   0  0  0  0  0  0
  -30.1938  -19.3248   21.2943 C   0  0  0  0  0  0
  -29.4001  -20.0711   20.3763 C   0  0  0  0  0  0
  -29.9007  -21.2798   19.8271 C   0  0  0  0  0  0
  -33.3260  -21.5756   21.5770 C   0  0  0  0  0  0
  -33.6967  -22.9763   21.0771 C   0  0  0  0  0  0
  -33.2046  -23.2028   19.6484 C   0  0  0  0  0  0
  -31.6717  -23.0894   19.5716 C   0  0  2  0  0  0
  -32.3221  -19.1271   22.7400 C   0  0  0  0  0  0
  -29.3081  -21.4664   17.5693 C   0  0  0  0  0  0
  -26.7464  -18.0277   18.7468 C   0  0  0  0  0  0
  -29.7507  -17.9158   21.7407 C   0  0  0  0  0  0
  -28.0015  -19.6004   19.9776 C   0  0  0  0  0  0
  -30.7969  -26.7883   20.1123 C   0  0  0  0  0  0
  -30.5626  -16.8332   20.9953 C   0  0  0  0  0  0
  -30.9789  -25.4809   19.3141 C   0  0  0  0  0  0
  -29.4822  -26.8893   20.8997 C   0  0  0  0  0  0
  -30.1012  -15.4513   21.1816 N   0  0  0  0  0  0
  -31.0166  -24.2719   20.1742 N   0  3  0  0  0  0
  -29.1795  -21.9817   18.8927 O   0  0  0  0  0  0
  -28.0412  -18.4376   19.1597 O   0  0  0  0  0  0
  -31.4575  -12.3596   19.1297 H   0  0  0  0  0  0
  -30.2894  -11.2740   19.8194 H   0  0  0  0  0  0
  -29.7318  -11.7953   17.4217 H   0  0  0  0  0  0
  -29.6759  -13.5008   17.7932 H   0  0  0  0  0  0
  -27.8204  -11.3193   18.8095 H   0  0  0  0  0  0
  -27.3684  -12.6614   17.7891 H   0  0  0  0  0  0
  -27.7095  -14.2598   19.5871 H   0  0  0  0  0  0
  -28.6642  -11.9618   21.3652 H   0  0  0  0  0  0
  -28.4682  -13.6112   21.8716 H   0  0  0  0  0  0
  -25.2755   -9.5684   22.4745 H   0  0  0  0  0  0
  -24.0009   -7.4632   22.7456 H   0  0  0  0  0  0
  -21.0842   -8.8786   19.8954 H   0  0  0  0  0  0
  -22.3704  -10.9674   19.6156 H   0  0  0  0  0  0
  -21.2005   -7.6140   23.9721 H   0  0  0  0  0  0
  -21.1476   -6.0508   25.9079 H   0  0  0  0  0  0
  -22.0595   -2.7611   23.2841 H   0  0  0  0  0  0
  -22.4066  -11.9889   22.4778 H   0  0  0  0  0  0
  -21.1101  -13.1300   22.2593 H   0  0  0  0  0  0
  -24.6691  -15.8438   20.5406 H   0  0  0  0  0  0
  -26.2999  -15.6249   20.1447 H   0  0  0  0  0  0
  -26.7063  -32.5588   23.1169 H   0  0  0  0  0  0
  -25.0102  -33.9809   25.0558 H   0  0  0  0  0  0
  -22.6775  -31.3024   21.4139 H   0  0  0  0  0  0
  -23.3772  -35.9643   23.3271 H   0  0  0  0  0  0
  -24.3604  -36.8966   22.2049 H   0  0  0  0  0  0
  -23.7222  -37.6511   23.6662 H   0  0  0  0  0  0
  -26.0023  -31.6166   20.5780 H   0  0  0  0  0  0
  -26.8083  -30.9271   21.9560 H   0  0  0  0  0  0
  -28.0689  -29.2327   21.1369 H   0  0  0  0  0  0
  -26.1149  -25.9957   19.0255 H   0  0  0  0  0  0
  -23.9960  -27.2734   19.0503 H   0  0  0  0  0  0
  -23.6929  -30.5820   19.4010 H   0  0  0  0  0  0
  -22.7277  -29.2178   19.8846 H   0  0  0  0  0  0
  -25.1282  -36.1996   25.0837 H   0  0  0  0  0  0
  -20.9902  -28.3152   24.1480 H   0  0  0  0  0  0
  -20.5620  -26.2193   23.3586 H   0  0  0  0  0  0
  -21.6623  -26.7413   22.1254 H   0  0  0  0  0  0
  -19.6908  -25.6287   21.1208 H   0  0  0  0  0  0
  -19.6723  -27.3195   20.6730 H   0  0  0  0  0  0
  -17.4201  -26.6693   21.3953 H   0  0  0  0  0  0
  -18.0278  -26.0043   22.8956 H   0  0  0  0  0  0
  -19.7885  -30.7218   24.2322 H   0  0  0  0  0  0
  -17.4969  -31.6261   24.5116 H   0  0  0  0  0  0
  -15.5316  -30.2948   23.7653 H   0  0  0  0  0  0
  -15.8636  -28.0782   22.7081 H   0  0  0  0  0  0
  -24.5970  -30.7015   25.7834 H   0  0  0  0  0  0
  -24.8997  -32.2788   26.5017 H   0  0  0  0  0  0
  -25.8209  -30.8777   27.0197 H   0  0  0  0  0  0
  -26.2738  -29.6814   24.1209 H   0  0  0  0  0  0
  -27.4272  -29.7321   25.4347 H   0  0  0  0  0  0
  -27.8486  -30.4424   23.8937 H   0  0  0  0  0  0
  -27.2777  -33.3613   26.2036 H   0  0  0  0  0  0
  -28.3868  -32.6866   25.0207 H   0  0  0  0  0  0
  -28.0837  -31.8424   26.5293 H   0  0  0  0  0  0
  -28.2583  -38.0124   24.7572 H   0  0  0  0  0  0
  -28.1126  -36.2668   24.6169 H   0  0  0  0  0  0
  -27.2328  -37.1333   25.8841 H   0  0  0  0  0  0
  -20.9240  -29.8678   21.6995 H   0  0  0  0  0  0
  -26.0188  -38.2881   24.1493 H   0  0  0  0  0  0
  -34.0424  -20.8629   21.1646 H   0  0  0  0  0  0
  -33.4549  -21.5558   22.6592 H   0  0  0  0  0  0
  -34.7760  -23.1207   21.1371 H   0  0  0  0  0  0
  -33.2595  -23.7254   21.7375 H   0  0  0  0  0  0
  -33.6458  -22.4427   19.0012 H   0  0  0  0  0  0
  -33.5631  -24.1581   19.2651 H   0  0  0  0  0  0
  -31.4050  -23.0635   18.5152 H   0  0  0  0  0  0
  -33.2873  -18.8789   22.2973 H   0  0  0  0  0  0
  -31.9091  -18.2007   23.1267 H   0  0  0  0  0  0
  -32.4968  -19.7581   23.6118 H   0  0  0  0  0  0
  -28.9754  -22.2152   16.8506 H   0  0  0  0  0  0
  -28.7020  -20.5725   17.4228 H   0  0  0  0  0  0
  -30.3436  -21.2169   17.3287 H   0  0  0  0  0  0
  -26.8186  -17.1062   18.1684 H   0  0  0  0  0  0
  -26.2721  -18.7830   18.1180 H   0  0  0  0  0  0
  -26.0992  -17.8379   19.6042 H   0  0  0  0  0  0
  -28.6934  -17.7458   21.5583 H   0  0  0  0  0  0
  -29.8428  -17.8122   22.8216 H   0  0  0  0  0  0
  -27.4594  -20.3931   19.4607 H   0  0  0  0  0  0
  -27.4204  -19.4136   20.8821 H   0  0  0  0  0  0
  -30.8492  -27.6293   19.4182 H   0  0  0  0  0  0
  -31.6389  -26.9256   20.7921 H   0  0  0  0  0  0
  -31.6153  -16.8998   21.2720 H   0  0  0  0  0  0
  -30.5209  -17.0488   19.9258 H   0  0  0  0  0  0
  -31.9029  -25.5681   18.7420 H   0  0  0  0  0  0
  -30.1847  -25.3701   18.5728 H   0  0  0  0  0  0
  -29.4880  -27.8224   21.4537 H   0  0  0  0  0  0
  -29.4325  -26.1038   21.6536 H   0  0  0  0  0  0
  -29.1938  -15.2816   21.5895 H   0  0  0  0  0  0
  -31.4769  -24.4775   21.0445 H   0  0  0  0  0  0
  -30.0644  -24.0130   20.3793 H   0  0  0  0  0  0
  1 25  1  0  0  0
  1 30  2  0  0  0
  1 90  1  0  0  0
  2  3  1  0  0  0
  2 25  1  0  0  0
  2 94  1  0  0  0
  2 95  1  0  0  0
  3  4  1  0  0  0
  3 96  1  0  0  0
  3 97  1  0  0  0
  4  5  1  0  0  0
  4 98  1  0  0  0
  4 99  1  0  0  0
  5  6  1  0  0  0
  5 26  1  0  0  0
  5100  1  0  0  0
  6 25  1  0  0  0
  6101  1  0  0  0
  6102  1  0  0  0
  7  8  2  0  0  0
  7 26  1  0  0  0
  7 29  1  0  0  0
  8  9  1  0  0  0
  8 22  1  0  0  0
  9 10  1  0  0  0
  9 27  2  0  0  0
 10 11  2  0  0  0
 10 15  1  0  0  0
 11 12  1  0  0  0
 11103  1  0  0  0
 12 13  2  0  0  0
 12104  1  0  0  0
 13 14  1  0  0  0
 13 31  1  0  0  0
 14 15  2  0  0  0
 14105  1  0  0  0
 15106  1  0  0  0
 16 17  2  0  0  0
 16 21  1  0  0  0
 16 31  1  0  0  0
 17 18  1  0  0  0
 17107  1  0  0  0
 18 19  2  0  0  0
 18108  1  0  0  0
 19 20  1  0  0  0
 19 24  1  0  0  0
 20 21  2  0  0  0
 20109  1  0  0  0
 21 23  1  0  0  0
 22 28  1  0  0  0
 22 32  2  0  0  0
 26 27  1  0  0  0
 28110  1  0  0  0
 28111  1  0  0  0
 29112  1  0  0  0
 29113  1  0  0  0
 33 34  1  0  0  0
 33 66  1  0  0  0
 33 70  2  0  0  0
 34 36  1  0  0  0
 34 59  1  0  0  0
 34114  1  0  0  0
 35 44  2  0  0  0
 35 45  1  0  0  0
 35 68  1  0  0  0
 36 56  1  0  0  0
 36115  1  0  0  0
 37 39  1  0  0  0
 37 47  1  0  0  0
 37 66  1  0  0  0
 37116  1  0  0  0
 38 43  2  0  0  0
 38 46  1  0  0  0
 38 47  1  0  0  0
 39 64  1  0  0  0
 39 67  2  0  0  0
 40 52  1  0  0  0
 40 53  2  0  0  0
 40 58  1  0  0  0
 41117  1  0  0  0
 41118  1  0  0  0
 41119  1  0  0  0
 41 48  1  0  0  0
 42 43  1  0  0  0
 42 66  1  0  0  0
 42120  1  0  0  0
 42121  1  0  0  0
 43 44  1  0  0  0
 44122  1  0  0  0
 45 46  2  0  0  0
 45123  1  0  0  0
 46124  1  0  0  0
 47125  1  0  0  0
 47126  1  0  0  0
 48 56  1  0  0  0
 48 65  1  0  0  0
 48127  1  0  0  0
 49 50  1  0  0  0
 49 53  1  0  0  0
 49 64  1  0  0  0
 49128  1  0  0  0
 50 51  1  0  0  0
 50129  1  0  0  0
 50130  1  0  0  0
 51 52  1  0  0  0
 51131  1  0  0  0
 51132  1  0  0  0
 52133  1  0  0  0
 52134  1  0  0  0
 53 54  1  0  0  0
 54 55  2  0  0  0
 54135  1  0  0  0
 55 57  1  0  0  0
 55136  1  0  0  0
 56 69  2  0  0  0
 57 58  2  0  0  0
 57137  1  0  0  0
 58138  1  0  0  0
 59 60  1  0  0  0
 59 61  1  0  0  0
 59 62  1  0  0  0
 60139  1  0  0  0
 60140  1  0  0  0
 60141  1  0  0  0
 61142  1  0  0  0
 61143  1  0  0  0
 61144  1  0  0  0
 62145  1  0  0  0
 62146  1  0  0  0
 62147  1  0  0  0
 63 65  1  0  0  0
 63148  1  0  0  0
 63149  1  0  0  0
 63150  1  0  0  0
 64151  1  0  0  0
 65152  1  0  0  0
 68 89  1  0  0  0
 71 72  1  0  0  0
 71 73  2  0  0  0
 71 77  1  0  0  0
 72 76  2  0  0  0
 72 80  1  0  0  0
 73 74  1  0  0  0
 73 81  1  0  0  0
 74 75  2  0  0  0
 74 84  1  0  0  0
 75 76  1  0  0  0
 75 85  1  0  0  0
 76 92  1  0  0  0
 77 78  1  0  0  0
 77153  1  0  0  0
 77154  1  0  0  0
 78 79  1  0  0  0
 78155  1  0  0  0
 78156  1  0  0  0
 79 80  1  0  0  0
 79157  1  0  0  0
 79158  1  0  0  0
 80 91  1  0  0  0
 80159  1  0  0  0
 81160  1  0  0  0
 81161  1  0  0  0
 81162  1  0  0  0
 82 92  1  0  0  0
 82163  1  0  0  0
 82164  1  0  0  0
 82165  1  0  0  0
 83 93  1  0  0  0
 83166  1  0  0  0
 83167  1  0  0  0
 83168  1  0  0  0
 84 87  1  0  0  0
 84169  1  0  0  0
 84170  1  0  0  0
 85 93  1  0  0  0
 85171  1  0  0  0
 85172  1  0  0  0
 86 88  1  0  0  0
 86 89  1  0  0  0
 86173  1  0  0  0
 86174  1  0  0  0
 87 90  1  0  0  0
 87175  1  0  0  0
 87176  1  0  0  0
 88 91  1  0  0  0
 88177  1  0  0  0
 88178  1  0  0  0
 89179  1  0  0  0
 89180  1  0  0  0
 90181  1  0  0  0
 91182  1  0  0  0
 91183  1  0  0  0
M  CHG  1  91   1
M  ISO  4   1 100  68 101  89 101  90 100
M  END
> <chiral flag>
0

> <version>
0

> <s_m_source_file>
/data/baiqing/PycharmProjects/Reinvent-master-3.2/result/LINK_invent/BTK/process_docking_weight1_custom_sum_contain_oxygen_bond_distance_aromatic_linkinvent_7_9_3/rearranged_h_0160.sdf

> <i_m_source_file_index>
77

> <r_mmod_Potential_Energy-OPLS-2005>
-179.172058105469

> <r_mmod_Stretch_Energy-OPLS-2005>
41.5864410400391

> <r_mmod_Bend_Energy-OPLS-2005>
111.935470581055

> <r_mmod_Torsional_Energy-OPLS-2005>
265.782897949219

> <r_mmod_Improper_Torsional_Energy-OPLS-2005>
4.16133499145508

> <r_mmod_Van_der_Waal_Energy-OPLS-2005>
170.499816894531

> <r_mmod_Electrostatic_Energy-OPLS-2005>
-357.721130371094

> <r_mmod_Solvation_Energy-OPLS-2005>
-423.53759765625

> <b_mmod_Minimization_Converged-OPLS-2005>
0

> <r_mmod_RMS_Derivative-OPLS-2005>
2.30445432662964

$$$$
77
                    3D
 Structure written by MMmdl.
176184  0  0  1  0            999 V2000
  -30.7394  -14.4603   20.6798 C   0  0  0  0  0  0
  -30.4213  -12.3436   19.4307 C   0  0  0  0  0  0
  -29.4926  -12.5363   18.2136 C   0  0  0  0  0  0
  -28.0149  -12.3813   18.6215 C   0  0  0  0  0  0
  -27.6623  -13.2059   19.8838 C   0  0  2  0  0  0
  -28.6998  -12.9574   20.9991 C   0  0  0  0  0  0
  -25.2557  -13.8099   20.5635 C   0  0  0  0  0  0
  -24.1841  -13.0385   20.9207 C   0  0  0  0  0  0
  -24.6411  -11.6868   20.8780 C   0  0  0  0  0  0
  -23.9075  -10.4270   21.0417 C   0  0  0  0  0  0
  -24.3626   -9.4200   21.9191 C   0  0  0  0  0  0
  -23.6314   -8.2228   22.0733 C   0  0  0  0  0  0
  -22.4303   -8.0266   21.3531 C   0  0  0  0  0  0
  -21.9937   -9.0235   20.4637 C   0  0  0  0  0  0
  -22.7247  -10.2125   20.3068 C   0  0  0  0  0  0
  -21.6851   -6.0751   22.5296 C   0  0  0  0  0  0
  -21.4016   -6.5649   23.8229 C   0  0  0  0  0  0
  -21.3658   -5.6794   24.9192 C   0  0  0  0  0  0
  -21.6042   -4.3055   24.7228 C   0  0  0  0  0  0
  -21.8818   -3.8161   23.4351 C   0  0  0  0  0  0
  -21.9205   -4.6977   22.3410 C   0  0  0  0  0  0
  -22.7886  -13.5205   21.1870 C   0  0  0  0  0  0
  -22.1688   -4.2171   21.0990 F   0  0  0  0  0  0
  -21.5612   -3.4532   25.7741 F   0  0  0  0  0  0
  -30.0318  -13.3060   20.4824 N   0  0  0  0  0  0
  -26.3034  -12.9297   20.3416 N   0  0  0  0  0  0
  -25.9351  -11.6458   20.5855 N   0  0  0  0  0  0
  -22.0493  -12.8219   22.0419 N   0  0  0  0  0  0
  -25.4200  -15.1778   20.3827 N   0  0  0  0  0  0
  -31.7833  -14.6909   20.0679 O   0  0  0  0  0  0
  -21.6641   -6.8878   21.4245 O   0  0  0  0  0  0
  -22.3616  -14.5532   20.6735 O   0  0  0  0  0  0
  -24.6138  -31.8675   23.2108 C   0  0  0  0  0  0
  -25.9038  -32.4821   23.8388 C   0  0  1  0  0  0
  -27.2437  -27.4386   20.1090 C   0  0  0  0  0  0
  -25.5908  -33.8616   24.2331 N   0  0  0  0  0  0
  -23.4039  -30.4892   21.5488 C   0  0  2  0  0  0
  -24.8551  -28.9474   20.1224 C   0  0  0  0  0  0
  -22.7409  -29.4668   22.4998 C   0  0  0  0  0  0
  -18.0280  -28.1377   22.8494 C   0  0  0  0  0  0
  -24.1485  -36.7311   23.2634 C   0  0  0  0  0  0
  -25.9311  -30.8338   21.3634 C   0  0  0  0  0  0
  -26.0113  -29.4633   20.7213 C   0  0  0  0  0  0
  -27.2102  -28.7146   20.7155 C   0  0  0  0  0  0
  -26.0743  -26.9290   19.5110 C   0  0  0  0  0  0
  -24.8796  -27.6757   19.5183 C   0  0  0  0  0  0
  -23.6154  -29.8146   20.1662 C   0  0  0  0  0  0
  -25.4109  -36.3108   24.0335 C   0  0  1  0  0  0
  -20.5869  -28.3665   23.1332 C   0  0  2  0  0  0
  -20.6769  -26.9404   22.5426 C   0  0  0  0  0  0
  -19.5744  -26.6393   21.5228 C   0  0  0  0  0  0
  -18.1919  -26.7935   22.1629 C   0  0  0  0  0  0
  -19.1531  -28.8841   23.2902 C   0  0  0  0  0  0
  -18.9460  -30.1451   23.8902 C   0  0  0  0  0  0
  -17.6461  -30.6577   24.0573 C   0  0  0  0  0  0
  -25.9041  -34.9470   23.5130 C   0  0  0  0  0  0
  -16.5349  -29.9078   23.6325 C   0  0  0  0  0  0
  -16.7274  -28.6502   23.0334 C   0  0  0  0  0  0
  -26.4467  -31.6604   25.0717 C   0  0  0  0  0  0
  -25.3746  -31.3699   26.1478 C   0  0  0  0  0  0
  -27.0298  -30.3049   24.6079 C   0  0  0  0  0  0
  -27.6044  -32.4329   25.7475 C   0  0  0  0  0  0
  -27.5583  -37.1804   24.8460 C   0  0  0  0  0  0
  -21.4147  -29.3035   22.3740 N   0  0  0  0  0  0
  -26.4289  -37.3804   23.9411 N   0  0  0  0  0  0
  -24.6676  -31.0776   22.0999 N   0  0  0  0  0  0
  -23.4188  -28.8217   23.3041 O   0  0  0  0  0  0
  -28.4205  -26.7377   19.9995 O   0  0  0  0  0  0
  -26.5600  -34.8925   22.4692 O   0  0  0  0  0  0
  -23.5338  -32.1425   23.7516 O   0  0  0  0  0  0
  -26.6894  -20.1215   22.6691 C   0  0  0  0  0  0
  -26.9249  -17.7744   22.3897 C   0  0  0  0  0  0
  -25.8774  -18.8744   22.3472 C   0  0  1  0  0  0
  -28.1704  -19.6750   22.5575 C   0  0  2  0  0  0
  -24.6945  -18.6336   23.2955 C   0  0  0  0  0  0
  -29.9692  -21.2784   23.3404 C   0  0  0  0  0  0
  -28.7450  -15.5019   23.4430 C   0  0  0  0  0  0
  -30.4988  -23.0722   20.3358 C   0  0  0  0  0  0
  -28.2873  -24.3279   20.6357 C   0  0  0  0  0  0
  -29.3473  -17.5476   21.9925 C   0  0  0  0  0  0
  -28.7132  -25.7745   21.0151 C   0  0  0  0  0  0
  -29.1901  -20.7830   22.0987 C   0  0  2  0  0  0
  -29.1692  -15.9808   22.0318 C   0  0  1  0  0  0
  -29.2261  -23.2125   21.1976 C   0  0  1  0  0  0
  -28.1301  -18.3864   21.8254 N   0  0  0  0  0  0
  -30.4268  -15.2880   21.7021 N   0  0  0  0  0  0
  -28.5298  -21.8938   21.3363 N   0  3  0  0  0  0
  -31.4642  -12.4451   19.1277 H   0  0  0  0  0  0
  -30.3349  -11.3285   19.8178 H   0  0  0  0  0  0
  -29.7462  -11.8218   17.4288 H   0  0  0  0  0  0
  -29.6483  -13.5270   17.7838 H   0  0  0  0  0  0
  -27.8283  -11.3241   18.8149 H   0  0  0  0  0  0
  -27.3634  -12.6645   17.7945 H   0  0  0  0  0  0
  -27.7119  -14.2573   19.6035 H   0  0  0  0  0  0
  -28.6901  -11.9075   21.2927 H   0  0  0  0  0  0
  -28.4230  -13.4845   21.8995 H   0  0  0  0  0  0
  -25.2746   -9.5703   22.4793 H   0  0  0  0  0  0
  -24.0027   -7.4620   22.7456 H   0  0  0  0  0  0
  -21.0860   -8.8763   19.8950 H   0  0  0  0  0  0
  -22.3672  -10.9682   19.6218 H   0  0  0  0  0  0
  -21.2012   -7.6153   23.9755 H   0  0  0  0  0  0
  -21.1481   -6.0514   25.9091 H   0  0  0  0  0  0
  -22.0604   -2.7620   23.2851 H   0  0  0  0  0  0
  -22.4056  -11.9870   22.4833 H   0  0  0  0  0  0
  -21.1118  -13.1299   22.2558 H   0  0  0  0  0  0
  -24.6374  -15.8184   20.4505 H   0  0  0  0  0  0
  -26.2577  -15.6094   20.0145 H   0  0  0  0  0  0
  -26.7099  -32.5542   23.1148 H   0  0  0  0  0  0
  -25.0099  -33.9771   25.0503 H   0  0  0  0  0  0
  -22.6945  -31.3067   21.4043 H   0  0  0  0  0  0
  -23.3751  -35.9638   23.3304 H   0  0  0  0  0  0
  -24.3586  -36.8932   22.2050 H   0  0  0  0  0  0
  -23.7233  -37.6514   23.6650 H   0  0  0  0  0  0
  -26.0416  -31.5951   20.5903 H   0  0  0  0  0  0
  -26.8208  -30.8938   21.9775 H   0  0  0  0  0  0
  -28.1102  -29.1186   21.1570 H   0  0  0  0  0  0
  -26.0959  -25.9624   19.0281 H   0  0  0  0  0  0
  -23.9923  -27.2727   19.0504 H   0  0  0  0  0  0
  -23.7259  -30.5878   19.4060 H   0  0  0  0  0  0
  -22.7392  -29.2357   19.8681 H   0  0  0  0  0  0
  -25.1276  -36.1971   25.0826 H   0  0  0  0  0  0
  -20.9955  -28.3219   24.1455 H   0  0  0  0  0  0
  -20.5705  -26.2257   23.3606 H   0  0  0  0  0  0
  -21.6631  -26.7466   22.1197 H   0  0  0  0  0  0
  -19.6902  -25.6316   21.1224 H   0  0  0  0  0  0
  -19.6678  -27.3232   20.6782 H   0  0  0  0  0  0
  -17.4200  -26.6728   21.4009 H   0  0  0  0  0  0
  -18.0277  -26.0074   22.9011 H   0  0  0  0  0  0
  -19.7934  -30.7272   24.2265 H   0  0  0  0  0  0
  -17.5007  -31.6256   24.5179 H   0  0  0  0  0  0
  -15.5343  -30.2965   23.7654 H   0  0  0  0  0  0
  -15.8687  -28.0824   22.7014 H   0  0  0  0  0  0
  -24.5930  -30.7026   25.7828 H   0  0  0  0  0  0
  -24.8921  -32.2847   26.4923 H   0  0  0  0  0  0
  -25.8123  -30.8887   27.0232 H   0  0  0  0  0  0
  -26.2826  -29.6818   24.1147 H   0  0  0  0  0  0
  -27.4094  -29.7272   25.4515 H   0  0  0  0  0  0
  -27.8650  -30.4377   23.9196 H   0  0  0  0  0  0
  -27.2664  -33.3629   26.2051 H   0  0  0  0  0  0
  -28.3853  -32.6904   25.0306 H   0  0  0  0  0  0
  -28.0708  -31.8457   26.5396 H   0  0  0  0  0  0
  -28.2584  -38.0117   24.7550 H   0  0  0  0  0  0
  -28.1093  -36.2659   24.6228 H   0  0  0  0  0  0
  -27.2304  -37.1389   25.8859 H   0  0  0  0  0  0
  -20.9305  -29.8748   21.6959 H   0  0  0  0  0  0
  -26.0176  -38.2868   24.1455 H   0  0  0  0  0  0
  -26.4887  -20.4898   23.6766 H   0  0  0  0  0  0
  -26.3760  -20.9051   21.9808 H   0  0  0  0  0  0
  -26.6029  -16.8868   21.8500 H   0  0  0  0  0  0
  -27.0957  -17.4981   23.4312 H   0  0  0  0  0  0
  -25.4973  -18.9505   21.3275 H   0  0  0  0  0  0
  -28.4492  -19.3910   23.5751 H   0  0  0  0  0  0
  -25.0257  -18.5558   24.3307 H   0  0  0  0  0  0
  -24.1707  -17.7103   23.0476 H   0  0  0  0  0  0
  -23.9699  -19.4464   23.2428 H   0  0  0  0  0  0
  -30.4226  -20.4420   23.8729 H   0  0  0  0  0  0
  -29.3196  -21.7997   24.0448 H   0  0  0  0  0  0
  -30.7946  -21.9402   23.0808 H   0  0  0  0  0  0
  -29.0744  -16.1814   24.2284 H   0  0  0  0  0  0
  -29.1523  -14.5243   23.7004 H   0  0  0  0  0  0
  -27.6630  -15.4091   23.5241 H   0  0  0  0  0  0
  -31.0122  -24.0267   20.2279 H   0  0  0  0  0  0
  -30.2644  -22.7102   19.3333 H   0  0  0  0  0  0
  -31.2160  -22.3777   20.7757 H   0  0  0  0  0  0
  -28.2369  -24.2378   19.5505 H   0  0  0  0  0  0
  -27.2671  -24.1848   20.9947 H   0  0  0  0  0  0
  -29.8806  -17.8487   22.8961 H   0  0  0  0  0  0
  -30.0155  -17.8111   21.1694 H   0  0  0  0  0  0
  -29.7940  -25.8152   21.1492 H   0  0  0  0  0  0
  -28.2887  -26.0674   21.9787 H   0  0  0  0  0  0
  -29.9236  -20.3303   21.4308 H   0  0  0  0  0  0
  -28.4257  -15.6878   21.2932 H   0  0  0  0  0  0
  -29.5148  -23.5477   22.1944 H   0  0  0  0  0  0
  -31.2273  -15.8542   21.9418 H   0  0  0  0  0  0
  -27.6595  -22.0668   21.8136 H   0  0  0  0  0  0
  -28.2862  -21.5383   20.4246 H   0  0  0  0  0  0
  1 25  1  0  0  0
  1 30  2  0  0  0
  1 86  1  0  0  0
  2  3  1  0  0  0
  2 25  1  0  0  0
  2 88  1  0  0  0
  2 89  1  0  0  0
  3  4  1  0  0  0
  3 90  1  0  0  0
  3 91  1  0  0  0
  4  5  1  0  0  0
  4 92  1  0  0  0
  4 93  1  0  0  0
  5  6  1  0  0  0
  5 26  1  0  0  0
  5 94  1  0  0  0
  6 25  1  0  0  0
  6 95  1  0  0  0
  6 96  1  0  0  0
  7  8  2  0  0  0
  7 26  1  0  0  0
  7 29  1  0  0  0
  8  9  1  0  0  0
  8 22  1  0  0  0
  9 10  1  0  0  0
  9 27  2  0  0  0
 10 11  2  0  0  0
 10 15  1  0  0  0
 11 12  1  0  0  0
 11 97  1  0  0  0
 12 13  2  0  0  0
 12 98  1  0  0  0
 13 14  1  0  0  0
 13 31  1  0  0  0
 14 15  2  0  0  0
 14 99  1  0  0  0
 15100  1  0  0  0
 16 17  2  0  0  0
 16 21  1  0  0  0
 16 31  1  0  0  0
 17 18  1  0  0  0
 17101  1  0  0  0
 18 19  2  0  0  0
 18102  1  0  0  0
 19 20  1  0  0  0
 19 24  1  0  0  0
 20 21  2  0  0  0
 20103  1  0  0  0
 21 23  1  0  0  0
 22 28  1  0  0  0
 22 32  2  0  0  0
 26 27  1  0  0  0
 28104  1  0  0  0
 28105  1  0  0  0
 29106  1  0  0  0
 29107  1  0  0  0
 33 34  1  0  0  0
 33 66  1  0  0  0
 33 70  2  0  0  0
 34 36  1  0  0  0
 34 59  1  0  0  0
 34108  1  0  0  0
 35 44  2  0  0  0
 35 45  1  0  0  0
 35 68  1  0  0  0
 36 56  1  0  0  0
 36109  1  0  0  0
 37 39  1  0  0  0
 37 47  1  0  0  0
 37 66  1  0  0  0
 37110  1  0  0  0
 38 43  2  0  0  0
 38 46  1  0  0  0
 38 47  1  0  0  0
 39 64  1  0  0  0
 39 67  2  0  0  0
 40 52  1  0  0  0
 40 53  2  0  0  0
 40 58  1  0  0  0
 41111  1  0  0  0
 41112  1  0  0  0
 41113  1  0  0  0
 41 48  1  0  0  0
 42 43  1  0  0  0
 42 66  1  0  0  0
 42114  1  0  0  0
 42115  1  0  0  0
 43 44  1  0  0  0
 44116  1  0  0  0
 45 46  2  0  0  0
 45117  1  0  0  0
 46118  1  0  0  0
 47119  1  0  0  0
 47120  1  0  0  0
 48 56  1  0  0  0
 48 65  1  0  0  0
 48121  1  0  0  0
 49 50  1  0  0  0
 49 53  1  0  0  0
 49 64  1  0  0  0
 49122  1  0  0  0
 50 51  1  0  0  0
 50123  1  0  0  0
 50124  1  0  0  0
 51 52  1  0  0  0
 51125  1  0  0  0
 51126  1  0  0  0
 52127  1  0  0  0
 52128  1  0  0  0
 53 54  1  0  0  0
 54 55  2  0  0  0
 54129  1  0  0  0
 55 57  1  0  0  0
 55130  1  0  0  0
 56 69  2  0  0  0
 57 58  2  0  0  0
 57131  1  0  0  0
 58132  1  0  0  0
 59 60  1  0  0  0
 59 61  1  0  0  0
 59 62  1  0  0  0
 60133  1  0  0  0
 60134  1  0  0  0
 60135  1  0  0  0
 61136  1  0  0  0
 61137  1  0  0  0
 61138  1  0  0  0
 62139  1  0  0  0
 62140  1  0  0  0
 62141  1  0  0  0
 63 65  1  0  0  0
 63142  1  0  0  0
 63143  1  0  0  0
 63144  1  0  0  0
 64145  1  0  0  0
 65146  1  0  0  0
 68 81  1  0  0  0
 71 73  1  0  0  0
 71147  1  0  0  0
 71148  1  0  0  0
 71 74  1  0  0  0
 72 73  1  0  0  0
 72 85  1  0  0  0
 72149  1  0  0  0
 72150  1  0  0  0
 73 75  1  0  0  0
 73151  1  0  0  0
 74 82  1  0  0  0
 74 85  1  0  0  0
 74152  1  0  0  0
 75153  1  0  0  0
 75154  1  0  0  0
 75155  1  0  0  0
 76156  1  0  0  0
 76157  1  0  0  0
 76158  1  0  0  0
 76 82  1  0  0  0
 77159  1  0  0  0
 77160  1  0  0  0
 77161  1  0  0  0
 77 83  1  0  0  0
 78162  1  0  0  0
 78163  1  0  0  0
 78164  1  0  0  0
 78 84  1  0  0  0
 79 81  1  0  0  0
 79 84  1  0  0  0
 79165  1  0  0  0
 79166  1  0  0  0
 80 83  1  0  0  0
 80 85  1  0  0  0
 80167  1  0  0  0
 80168  1  0  0  0
 81169  1  0  0  0
 81170  1  0  0  0
 82 87  1  0  0  0
 82171  1  0  0  0
 83 86  1  0  0  0
 83172  1  0  0  0
 84 87  1  0  0  0
 84173  1  0  0  0
 86174  1  0  0  0
 87175  1  0  0  0
 87176  1  0  0  0
M  CHG  1  87   1
M  ISO  4   1 100  68 101  81 101  86 100
M  END
> <chiral flag>
0

> <version>
0

> <s_m_source_file>
/data/baiqing/PycharmProjects/Reinvent-master-3.2/result/LINK_invent/BTK/process_docking_weight1_custom_sum_contain_oxygen_bond_distance_aromatic_linkinvent_7_9_3/rearranged_h_0160.sdf

> <i_m_source_file_index>
78

> <r_mmod_Potential_Energy-OPLS-2005>
-14.0730714797974

> <r_mmod_Stretch_Energy-OPLS-2005>
48.0474128723145

> <r_mmod_Bend_Energy-OPLS-2005>
166.796371459961

> <r_mmod_Torsional_Energy-OPLS-2005>
376.243408203125

> <r_mmod_Improper_Torsional_Energy-OPLS-2005>
7.63474988937378

> <r_mmod_Van_der_Waal_Energy-OPLS-2005>
137.73112487793

> <r_mmod_Electrostatic_Energy-OPLS-2005>
-325.756500244141

> <r_mmod_Solvation_Energy-OPLS-2005>
-434.917846679688

> <b_mmod_Minimization_Converged-OPLS-2005>
0

> <r_mmod_RMS_Derivative-OPLS-2005>
2.79614233970642

$$$$
78
                    3D
 Structure written by MMmdl.
173182  0  0  1  0            999 V2000
  -30.7813  -14.5054   20.6710 C   0  0  0  0  0  0
  -30.4108  -12.3586   19.4646 C   0  0  0  0  0  0
  -29.5044  -12.5256   18.2282 C   0  0  0  0  0  0
  -28.0279  -12.3571   18.6247 C   0  0  0  0  0  0
  -27.6522  -13.2206   19.8538 C   0  0  2  0  0  0
  -28.6776  -13.0688   20.9936 C   0  0  0  0  0  0
  -25.2548  -13.8190   20.5648 C   0  0  0  0  0  0
  -24.1819  -13.0442   20.9161 C   0  0  0  0  0  0
  -24.6395  -11.6916   20.8701 C   0  0  0  0  0  0
  -23.9065  -10.4295   21.0385 C   0  0  0  0  0  0
  -24.3617   -9.4217   21.9171 C   0  0  0  0  0  0
  -23.6294   -8.2251   22.0749 C   0  0  0  0  0  0
  -22.4275   -8.0282   21.3544 C   0  0  0  0  0  0
  -21.9907   -9.0250   20.4647 C   0  0  0  0  0  0
  -22.7232  -10.2132   20.3047 C   0  0  0  0  0  0
  -21.6856   -6.0733   22.5282 C   0  0  0  0  0  0
  -21.4015   -6.5637   23.8216 C   0  0  0  0  0  0
  -21.3661   -5.6789   24.9178 C   0  0  0  0  0  0
  -21.6043   -4.3049   24.7226 C   0  0  0  0  0  0
  -21.8820   -3.8144   23.4347 C   0  0  0  0  0  0
  -21.9192   -4.6962   22.3404 C   0  0  0  0  0  0
  -22.7850  -13.5237   21.1847 C   0  0  0  0  0  0
  -22.1661   -4.2147   21.0982 F   0  0  0  0  0  0
  -21.5630   -3.4535   25.7738 F   0  0  0  0  0  0
  -30.0295  -13.3672   20.4807 N   0  0  0  0  0  0
  -26.2963  -12.9374   20.3213 N   0  0  0  0  0  0
  -25.9312  -11.6526   20.5671 N   0  0  0  0  0  0
  -22.0498  -12.8226   22.0413 N   0  0  0  0  0  0
  -25.4277  -15.1910   20.4108 N   0  0  0  0  0  0
  -31.7832  -14.6951   19.9735 O   0  0  0  0  0  0
  -21.6641   -6.8877   21.4244 O   0  0  0  0  0  0
  -22.3532  -14.5543   20.6706 O   0  0  0  0  0  0
  -24.6246  -31.8624   23.2055 C   0  0  0  0  0  0
  -25.9102  -32.4800   23.8386 C   0  0  1  0  0  0
  -27.2323  -27.3679   20.0916 C   0  0  0  0  0  0
  -25.5933  -33.8600   24.2306 N   0  0  0  0  0  0
  -23.4147  -30.4886   21.5454 C   0  0  2  0  0  0
  -24.8587  -28.9533   20.1070 C   0  0  0  0  0  0
  -22.7454  -29.4638   22.4927 C   0  0  0  0  0  0
  -18.0282  -28.1384   22.8497 C   0  0  0  0  0  0
  -24.1466  -36.7286   23.2637 C   0  0  0  0  0  0
  -25.9502  -30.8110   21.3656 C   0  0  0  0  0  0
  -26.0251  -29.4416   20.7084 C   0  0  0  0  0  0
  -27.2099  -28.6565   20.6980 C   0  0  0  0  0  0
  -26.0339  -26.9103   19.5112 C   0  0  0  0  0  0
  -24.8618  -27.6882   19.5032 C   0  0  0  0  0  0
  -23.6262  -29.8306   20.1564 C   0  0  0  0  0  0
  -25.4087  -36.3090   24.0335 C   0  0  1  0  0  0
  -20.5883  -28.3683   23.1274 C   0  0  2  0  0  0
  -20.6764  -26.9406   22.5393 C   0  0  0  0  0  0
  -19.5736  -26.6381   21.5206 C   0  0  0  0  0  0
  -18.1925  -26.7931   22.1632 C   0  0  0  0  0  0
  -19.1541  -28.8844   23.2896 C   0  0  0  0  0  0
  -18.9473  -30.1445   23.8918 C   0  0  0  0  0  0
  -17.6478  -30.6592   24.0562 C   0  0  0  0  0  0
  -25.9035  -34.9459   23.5108 C   0  0  0  0  0  0
  -16.5363  -29.9099   23.6326 C   0  0  0  0  0  0
  -16.7277  -28.6507   23.0363 C   0  0  0  0  0  0
  -26.4509  -31.6619   25.0747 C   0  0  0  0  0  0
  -25.3764  -31.3738   26.1500 C   0  0  0  0  0  0
  -27.0354  -30.3063   24.6149 C   0  0  0  0  0  0
  -27.6080  -32.4344   25.7524 C   0  0  0  0  0  0
  -27.5558  -37.1795   24.8464 C   0  0  0  0  0  0
  -21.4162  -29.3043   22.3670 N   0  0  0  0  0  0
  -26.4256  -37.3790   23.9428 N   0  0  0  0  0  0
  -24.6824  -31.0688   22.0978 N   0  0  0  0  0  0
  -23.4186  -28.8170   23.3003 O   0  0  0  0  0  0
  -28.3782  -26.5768   20.1604 O   0  0  0  0  0  0
  -26.5585  -34.8922   22.4667 O   0  0  0  0  0  0
  -23.5415  -32.1390   23.7406 O   0  0  0  0  0  0
  -29.1876  -18.3995   21.0810 C   0  0  0  0  0  0
  -31.4625  -19.2036   21.1762 C   0  0  0  0  0  0
  -30.5620  -18.1152   21.2687 C   0  0  0  0  0  0
  -28.7378  -19.7380   20.8575 C   0  0  0  0  0  0
  -31.0269  -20.5348   20.9784 C   0  0  0  0  0  0
  -29.6522  -20.8311   20.8051 C   0  0  0  0  0  0
  -31.2215  -15.5628   23.8776 C   0  0  0  0  0  0
  -31.4975  -16.9082   23.2491 C   0  0  0  0  0  0
  -30.1302  -14.9874   22.9884 C   0  0  0  0  0  0
  -31.1489  -16.7568   21.7543 C   0  0  1  0  0  0
  -27.2465  -19.9975   20.7376 C   0  0  0  0  0  0
  -32.0666  -21.6418   21.0089 C   0  0  0  0  0  0
  -27.0632  -23.7827   18.1580 C   0  0  0  0  0  0
  -30.1969  -22.8377   18.5471 C   0  0  0  0  0  0
  -28.6791  -25.4525   19.2669 C   0  0  0  0  0  0
  -28.0014  -24.0110   19.3763 C   0  0  2  0  0  0
  -28.9255  -22.7045   19.4080 C   0  0  2  0  0  0
  -30.4169  -15.4406   21.6152 N   0  0  0  0  0  0
  -29.2337  -22.1653   20.7130 O   0  0  0  0  0  0
  -31.4607  -12.4245   19.1725 H   0  0  0  0  0  0
  -30.2960  -11.3569   19.8828 H   0  0  0  0  0  0
  -29.7709  -11.7958   17.4624 H   0  0  0  0  0  0
  -29.6607  -13.5098   17.7838 H   0  0  0  0  0  0
  -27.8620  -11.3024   18.8486 H   0  0  0  0  0  0
  -27.3781  -12.5964   17.7817 H   0  0  0  0  0  0
  -27.6797  -14.2601   19.5257 H   0  0  0  0  0  0
  -28.6549  -12.0589   21.4060 H   0  0  0  0  0  0
  -28.3536  -13.7254   21.7953 H   0  0  0  0  0  0
  -25.2767   -9.5695   22.4738 H   0  0  0  0  0  0
  -24.0007   -7.4643   22.7470 H   0  0  0  0  0  0
  -21.0836   -8.8762   19.8957 H   0  0  0  0  0  0
  -22.3685  -10.9661   19.6148 H   0  0  0  0  0  0
  -21.2008   -7.6144   23.9722 H   0  0  0  0  0  0
  -21.1483   -6.0516   25.9081 H   0  0  0  0  0  0
  -22.0597   -2.7605   23.2848 H   0  0  0  0  0  0
  -22.4108  -11.9881   22.4794 H   0  0  0  0  0  0
  -21.1119  -13.1261   22.2621 H   0  0  0  0  0  0
  -24.6674  -15.8508   20.5323 H   0  0  0  0  0  0
  -26.2873  -15.6286   20.1028 H   0  0  0  0  0  0
  -26.7180  -32.5485   23.1154 H   0  0  0  0  0  0
  -25.0168  -33.9763   25.0513 H   0  0  0  0  0  0
  -22.7075  -31.3079   21.4070 H   0  0  0  0  0  0
  -23.3728  -35.9623   23.3316 H   0  0  0  0  0  0
  -24.3557  -36.8887   22.2048 H   0  0  0  0  0  0
  -23.7220  -37.6489   23.6651 H   0  0  0  0  0  0
  -26.0656  -31.5767   20.5956 H   0  0  0  0  0  0
  -26.8352  -30.8618   21.9883 H   0  0  0  0  0  0
  -28.1060  -29.0271   21.1764 H   0  0  0  0  0  0
  -25.9522  -25.9231   19.1143 H   0  0  0  0  0  0
  -23.9623  -27.2957   19.0505 H   0  0  0  0  0  0
  -23.7429  -30.6122   19.4040 H   0  0  0  0  0  0
  -22.7463  -29.2614   19.8515 H   0  0  0  0  0  0
  -25.1263  -36.1933   25.0824 H   0  0  0  0  0  0
  -21.0005  -28.3260   24.1387 H   0  0  0  0  0  0
  -20.5655  -26.2299   23.3600 H   0  0  0  0  0  0
  -21.6636  -26.7426   22.1198 H   0  0  0  0  0  0
  -19.6890  -25.6291   21.1241 H   0  0  0  0  0  0
  -19.6672  -27.3190   20.6736 H   0  0  0  0  0  0
  -17.4187  -26.6691   21.4035 H   0  0  0  0  0  0
  -18.0322  -26.0063   22.9018 H   0  0  0  0  0  0
  -19.7952  -30.7248   24.2307 H   0  0  0  0  0  0
  -17.5038  -31.6281   24.5148 H   0  0  0  0  0  0
  -15.5368  -30.3019   23.7615 H   0  0  0  0  0  0
  -15.8678  -28.0823   22.7085 H   0  0  0  0  0  0
  -24.5941  -30.7079   25.7851 H   0  0  0  0  0  0
  -24.8959  -32.2892   26.4957 H   0  0  0  0  0  0
  -25.8117  -30.8920   27.0261 H   0  0  0  0  0  0
  -26.2911  -29.6829   24.1182 H   0  0  0  0  0  0
  -27.4104  -29.7306   25.4617 H   0  0  0  0  0  0
  -27.8759  -30.4386   23.9333 H   0  0  0  0  0  0
  -27.2704  -33.3635   26.2128 H   0  0  0  0  0  0
  -28.3897  -32.6922   25.0369 H   0  0  0  0  0  0
  -28.0751  -31.8454   26.5424 H   0  0  0  0  0  0
  -28.2576  -38.0091   24.7529 H   0  0  0  0  0  0
  -28.1044  -36.2625   24.6260 H   0  0  0  0  0  0
  -27.2282  -37.1414   25.8867 H   0  0  0  0  0  0
  -20.9314  -29.8823   21.6953 H   0  0  0  0  0  0
  -26.0126  -38.2850   24.1488 H   0  0  0  0  0  0
  -28.4657  -17.5986   21.1678 H   0  0  0  0  0  0
  -32.5176  -19.0216   21.3347 H   0  0  0  0  0  0
  -30.9204  -15.6383   24.9233 H   0  0  0  0  0  0
  -32.1147  -14.9373   23.8300 H   0  0  0  0  0  0
  -32.5222  -17.2461   23.4106 H   0  0  0  0  0  0
  -30.8409  -17.6430   23.7197 H   0  0  0  0  0  0
  -29.1554  -15.3772   23.2865 H   0  0  0  0  0  0
  -30.1112  -13.9034   23.1166 H   0  0  0  0  0  0
  -32.1102  -16.6721   21.2460 H   0  0  0  0  0  0
  -26.6705  -19.2345   21.2607 H   0  0  0  0  0  0
  -26.9424  -19.9918   19.6913 H   0  0  0  0  0  0
  -26.9792  -20.9644   21.1670 H   0  0  0  0  0  0
  -32.8215  -21.4361   21.7672 H   0  0  0  0  0  0
  -31.6281  -22.6118   21.2459 H   0  0  0  0  0  0
  -32.5709  -21.7131   20.0454 H   0  0  0  0  0  0
  -26.2541  -23.0961   18.4097 H   0  0  0  0  0  0
  -27.6039  -23.3483   17.3166 H   0  0  0  0  0  0
  -26.6163  -24.6777   17.7420 H   0  0  0  0  0  0
  -29.9738  -23.2598   17.5676 H   0  0  0  0  0  0
  -30.6597  -21.8662   18.3712 H   0  0  0  0  0  0
  -30.9433  -23.4743   19.0197 H   0  0  0  0  0  0
  -29.7428  -25.3162   19.4485 H   0  0  0  0  0  0
  -28.6300  -25.8095   18.2372 H   0  0  0  0  0  0
  -27.3798  -24.0078   20.2721 H   0  0  0  0  0  0
  -28.3499  -21.9007   18.9431 H   0  0  0  0  0  0
  1 25  1  0  0  0
  1 30  2  0  0  0
  1 88  1  0  0  0
  2  3  1  0  0  0
  2 25  1  0  0  0
  2 90  1  0  0  0
  2 91  1  0  0  0
  3  4  1  0  0  0
  3 92  1  0  0  0
  3 93  1  0  0  0
  4  5  1  0  0  0
  4 94  1  0  0  0
  4 95  1  0  0  0
  5  6  1  0  0  0
  5 26  1  0  0  0
  5 96  1  0  0  0
  6 25  1  0  0  0
  6 97  1  0  0  0
  6 98  1  0  0  0
  7  8  2  0  0  0
  7 26  1  0  0  0
  7 29  1  0  0  0
  8  9  1  0  0  0
  8 22  1  0  0  0
  9 10  1  0  0  0
  9 27  2  0  0  0
 10 11  2  0  0  0
 10 15  1  0  0  0
 11 12  1  0  0  0
 11 99  1  0  0  0
 12 13  2  0  0  0
 12100  1  0  0  0
 13 14  1  0  0  0
 13 31  1  0  0  0
 14 15  2  0  0  0
 14101  1  0  0  0
 15102  1  0  0  0
 16 17  2  0  0  0
 16 21  1  0  0  0
 16 31  1  0  0  0
 17 18  1  0  0  0
 17103  1  0  0  0
 18 19  2  0  0  0
 18104  1  0  0  0
 19 20  1  0  0  0
 19 24  1  0  0  0
 20 21  2  0  0  0
 20105  1  0  0  0
 21 23  1  0  0  0
 22 28  1  0  0  0
 22 32  2  0  0  0
 26 27  1  0  0  0
 28106  1  0  0  0
 28107  1  0  0  0
 29108  1  0  0  0
 29109  1  0  0  0
 33 34  1  0  0  0
 33 66  1  0  0  0
 33 70  2  0  0  0
 34 36  1  0  0  0
 34 59  1  0  0  0
 34110  1  0  0  0
 35 44  2  0  0  0
 35 45  1  0  0  0
 35 68  1  0  0  0
 36 56  1  0  0  0
 36111  1  0  0  0
 37 39  1  0  0  0
 37 47  1  0  0  0
 37 66  1  0  0  0
 37112  1  0  0  0
 38 43  2  0  0  0
 38 46  1  0  0  0
 38 47  1  0  0  0
 39 64  1  0  0  0
 39 67  2  0  0  0
 40 52  1  0  0  0
 40 53  2  0  0  0
 40 58  1  0  0  0
 41113  1  0  0  0
 41114  1  0  0  0
 41115  1  0  0  0
 41 48  1  0  0  0
 42 43  1  0  0  0
 42 66  1  0  0  0
 42116  1  0  0  0
 42117  1  0  0  0
 43 44  1  0  0  0
 44118  1  0  0  0
 45 46  2  0  0  0
 45119  1  0  0  0
 46120  1  0  0  0
 47121  1  0  0  0
 47122  1  0  0  0
 48 56  1  0  0  0
 48 65  1  0  0  0
 48123  1  0  0  0
 49 50  1  0  0  0
 49 53  1  0  0  0
 49 64  1  0  0  0
 49124  1  0  0  0
 50 51  1  0  0  0
 50125  1  0  0  0
 50126  1  0  0  0
 51 52  1  0  0  0
 51127  1  0  0  0
 51128  1  0  0  0
 52129  1  0  0  0
 52130  1  0  0  0
 53 54  1  0  0  0
 54 55  2  0  0  0
 54131  1  0  0  0
 55 57  1  0  0  0
 55132  1  0  0  0
 56 69  2  0  0  0
 57 58  2  0  0  0
 57133  1  0  0  0
 58134  1  0  0  0
 59 60  1  0  0  0
 59 61  1  0  0  0
 59 62  1  0  0  0
 60135  1  0  0  0
 60136  1  0  0  0
 60137  1  0  0  0
 61138  1  0  0  0
 61139  1  0  0  0
 61140  1  0  0  0
 62141  1  0  0  0
 62142  1  0  0  0
 62143  1  0  0  0
 63 65  1  0  0  0
 63144  1  0  0  0
 63145  1  0  0  0
 63146  1  0  0  0
 64147  1  0  0  0
 65148  1  0  0  0
 68 85  1  0  0  0
 71 73  2  0  0  0
 71 74  1  0  0  0
 71149  1  0  0  0
 72 73  1  0  0  0
 72 75  2  0  0  0
 72150  1  0  0  0
 73 80  1  0  0  0
 74 76  2  0  0  0
 74 81  1  0  0  0
 75 76  1  0  0  0
 75 82  1  0  0  0
 76 89  1  0  0  0
 77 78  1  0  0  0
 77 79  1  0  0  0
 77151  1  0  0  0
 77152  1  0  0  0
 78 80  1  0  0  0
 78153  1  0  0  0
 78154  1  0  0  0
 79 88  1  0  0  0
 79155  1  0  0  0
 79156  1  0  0  0
 80 88  1  0  0  0
 80157  1  0  0  0
 81158  1  0  0  0
 81159  1  0  0  0
 81160  1  0  0  0
 82161  1  0  0  0
 82162  1  0  0  0
 82163  1  0  0  0
 83164  1  0  0  0
 83165  1  0  0  0
 83166  1  0  0  0
 83 86  1  0  0  0
 84167  1  0  0  0
 84168  1  0  0  0
 84169  1  0  0  0
 84 87  1  0  0  0
 85 86  1  0  0  0
 85170  1  0  0  0
 85171  1  0  0  0
 86 87  1  0  0  0
 86172  1  0  0  0
 87 89  1  0  0  0
 87173  1  0  0  0
M  ISO  4   1 100  68 101  85 101  88 100
M  END
> <chiral flag>
0

> <version>
0

> <s_m_source_file>
/data/baiqing/PycharmProjects/Reinvent-master-3.2/result/LINK_invent/BTK/process_docking_weight1_custom_sum_contain_oxygen_bond_distance_aromatic_linkinvent_7_9_3/rearranged_h_0160.sdf

> <i_m_source_file_index>
79

> <r_mmod_Potential_Energy-OPLS-2005>
309.679138183594

> <r_mmod_Stretch_Energy-OPLS-2005>
75.8294906616211

> <r_mmod_Bend_Energy-OPLS-2005>
204.434555053711

> <r_mmod_Torsional_Energy-OPLS-2005>
355.456939697266

> <r_mmod_Improper_Torsional_Energy-OPLS-2005>
7.29763317108154

> <r_mmod_Van_der_Waal_Energy-OPLS-2005>
158.931503295898

> <r_mmod_Electrostatic_Energy-OPLS-2005>
-327.468536376953

> <r_mmod_Solvation_Energy-OPLS-2005>
-190.121963500977

> <b_mmod_Minimization_Converged-OPLS-2005>
0

> <r_mmod_RMS_Derivative-OPLS-2005>
2.2985827922821

$$$$
79
                    3D
 Structure written by MMmdl.
173182  0  0  1  0            999 V2000
  -30.6945  -14.6066   20.5311 C   0  0  0  0  0  0
  -30.4119  -12.3723   19.4954 C   0  0  0  0  0  0
  -29.5208  -12.4965   18.2414 C   0  0  0  0  0  0
  -28.0335  -12.3455   18.6180 C   0  0  0  0  0  0
  -27.6394  -13.2218   19.8351 C   0  0  2  0  0  0
  -28.6622  -13.0914   20.9722 C   0  0  0  0  0  0
  -25.2513  -13.8175   20.5623 C   0  0  0  0  0  0
  -24.1781  -13.0406   20.9107 C   0  0  0  0  0  0
  -24.6360  -11.6884   20.8641 C   0  0  0  0  0  0
  -23.9040  -10.4263   21.0362 C   0  0  0  0  0  0
  -24.3587   -9.4156   21.9139 C   0  0  0  0  0  0
  -23.6223   -8.2224   22.0733 C   0  0  0  0  0  0
  -22.4197   -8.0243   21.3544 C   0  0  0  0  0  0
  -21.9861   -9.0218   20.4649 C   0  0  0  0  0  0
  -22.7199  -10.2087   20.3041 C   0  0  0  0  0  0
  -21.6814   -6.0689   22.5257 C   0  0  0  0  0  0
  -21.3997   -6.5625   23.8179 C   0  0  0  0  0  0
  -21.3684   -5.6789   24.9158 C   0  0  0  0  0  0
  -21.6030   -4.3049   24.7212 C   0  0  0  0  0  0
  -21.8820   -3.8115   23.4358 C   0  0  0  0  0  0
  -21.9183   -4.6923   22.3389 C   0  0  0  0  0  0
  -22.7830  -13.5192   21.1849 C   0  0  0  0  0  0
  -22.1641   -4.2100   21.0974 F   0  0  0  0  0  0
  -21.5617   -3.4554   25.7760 F   0  0  0  0  0  0
  -29.9921  -13.4279   20.4480 N   0  0  0  0  0  0
  -26.2882  -12.9345   20.3079 N   0  0  0  0  0  0
  -25.9261  -11.6492   20.5537 N   0  0  0  0  0  0
  -22.0539  -12.8148   22.0453 N   0  0  0  0  0  0
  -25.4295  -15.1906   20.4196 N   0  0  0  0  0  0
  -31.8886  -14.6149   20.2179 O   0  0  0  0  0  0
  -21.6571   -6.8841   21.4226 O   0  0  0  0  0  0
  -22.3500  -14.5519   20.6735 O   0  0  0  0  0  0
  -24.6223  -31.8636   23.2010 C   0  0  0  0  0  0
  -25.9102  -32.4794   23.8343 C   0  0  1  0  0  0
  -27.2419  -27.3705   20.1418 C   0  0  0  0  0  0
  -25.5902  -33.8589   24.2271 N   0  0  0  0  0  0
  -23.4168  -30.4816   21.5413 C   0  0  2  0  0  0
  -24.8668  -28.9326   20.1168 C   0  0  0  0  0  0
  -22.7515  -29.4636   22.4960 C   0  0  0  0  0  0
  -18.0358  -28.1400   22.8454 C   0  0  0  0  0  0
  -24.1488  -36.7305   23.2641 C   0  0  0  0  0  0
  -25.9476  -30.8136   21.3615 C   0  0  0  0  0  0
  -26.0272  -29.4400   20.7161 C   0  0  0  0  0  0
  -27.2191  -28.6713   20.7160 C   0  0  0  0  0  0
  -26.0659  -26.8904   19.5313 C   0  0  0  0  0  0
  -24.8831  -27.6591   19.5179 C   0  0  0  0  0  0
  -23.6314  -29.8082   20.1571 C   0  0  0  0  0  0
  -25.4108  -36.3075   24.0322 C   0  0  1  0  0  0
  -20.5960  -28.3701   23.1346 C   0  0  2  0  0  0
  -20.6845  -26.9452   22.5402 C   0  0  0  0  0  0
  -19.5880  -26.6612   21.5106 C   0  0  0  0  0  0
  -18.2059  -26.7993   22.1523 C   0  0  0  0  0  0
  -19.1601  -28.8829   23.2939 C   0  0  0  0  0  0
  -18.9487  -30.1417   23.9001 C   0  0  0  0  0  0
  -17.6472  -30.6532   24.0595 C   0  0  0  0  0  0
  -25.9054  -34.9459   23.5094 C   0  0  0  0  0  0
  -16.5373  -29.9069   23.6266 C   0  0  0  0  0  0
  -16.7339  -28.6500   23.0282 C   0  0  0  0  0  0
  -26.4517  -31.6592   25.0707 C   0  0  0  0  0  0
  -25.3762  -31.3761   26.1448 C   0  0  0  0  0  0
  -27.0347  -30.3012   24.6148 C   0  0  0  0  0  0
  -27.6059  -32.4313   25.7505 C   0  0  0  0  0  0
  -27.5572  -37.1796   24.8459 C   0  0  0  0  0  0
  -21.4228  -29.3092   22.3745 N   0  0  0  0  0  0
  -26.4286  -37.3766   23.9399 N   0  0  0  0  0  0
  -24.6809  -31.0698   22.0908 N   0  0  0  0  0  0
  -23.4263  -28.8158   23.2991 O   0  0  0  0  0  0
  -28.3883  -26.5812   20.1233 O   0  0  0  0  0  0
  -26.5643  -34.8929   22.4690 O   0  0  0  0  0  0
  -23.5389  -32.1395   23.7374 O   0  0  0  0  0  0
  -30.0705  -16.0258   20.7037 C   0  0  0  0  0  0
  -29.4476  -16.5158   21.8960 C   0  0  0  0  0  0
  -30.3117  -17.0096   19.6845 C   0  0  0  0  0  0
  -29.0786  -17.8967   22.0350 C   0  0  0  0  0  0
  -30.1513  -18.4167   19.9212 C   0  0  0  0  0  0
  -29.5392  -18.8964   21.1172 C   0  0  0  0  0  0
  -27.4202  -23.1526   20.1159 C   0  0  0  0  0  0
  -27.8367  -21.6488   20.1263 C   0  0  0  0  0  0
  -29.5212  -22.9319   21.1927 C   0  0  0  0  0  0
  -28.6925  -23.9793   20.3830 C   0  0  2  0  0  0
  -29.2620  -15.6114   23.1169 C   0  0  0  0  0  0
  -30.8057  -16.5453   18.3058 C   0  0  0  0  0  0
  -28.2461  -18.3209   23.2493 C   0  0  0  0  0  0
  -30.6895  -19.4174   18.8972 C   0  0  0  0  0  0
  -27.5501  -25.4516   22.2253 C   0  0  0  0  0  0
  -29.5720  -20.4200   21.5621 C   0  0  0  0  0  0
  -28.5206  -25.4274   21.0273 C   0  0  2  0  0  0
  -29.2260  -21.5681   20.6385 N   0  3  1  0  0  0
  -31.4605  -12.4446   19.2063 H   0  0  0  0  0  0
  -30.3087  -11.3804   19.9423 H   0  0  0  0  0  0
  -29.7984  -11.7448   17.5009 H   0  0  0  0  0  0
  -29.6832  -13.4617   17.7647 H   0  0  0  0  0  0
  -27.8594  -11.2924   18.8418 H   0  0  0  0  0  0
  -27.4043  -12.5849   17.7608 H   0  0  0  0  0  0
  -27.6587  -14.2582   19.4988 H   0  0  0  0  0  0
  -28.6696  -12.0763   21.3685 H   0  0  0  0  0  0
  -28.3425  -13.7144   21.7912 H   0  0  0  0  0  0
  -25.2773   -9.5572   22.4660 H   0  0  0  0  0  0
  -23.9904   -7.4612   22.7454 H   0  0  0  0  0  0
  -21.0780   -8.8718   19.8978 H   0  0  0  0  0  0
  -22.3641  -10.9580   19.6107 H   0  0  0  0  0  0
  -21.1978   -7.6131   23.9662 H   0  0  0  0  0  0
  -21.1513   -6.0535   25.9051 H   0  0  0  0  0  0
  -22.0601   -2.7576   23.2857 H   0  0  0  0  0  0
  -22.4189  -11.9796   22.4794 H   0  0  0  0  0  0
  -21.1170  -13.1170   22.2753 H   0  0  0  0  0  0
  -24.6910  -15.8607   20.6036 H   0  0  0  0  0  0
  -26.3111  -15.6286   20.1866 H   0  0  0  0  0  0
  -26.7189  -32.5478   23.1102 H   0  0  0  0  0  0
  -24.9983  -33.9747   25.0360 H   0  0  0  0  0  0
  -22.7058  -31.2975   21.3990 H   0  0  0  0  0  0
  -23.3725  -35.9665   23.3308 H   0  0  0  0  0  0
  -24.3590  -36.8907   22.2056 H   0  0  0  0  0  0
  -23.7268  -37.6514   23.6675 H   0  0  0  0  0  0
  -26.0700  -31.5754   20.5906 H   0  0  0  0  0  0
  -26.8286  -30.8706   21.9850 H   0  0  0  0  0  0
  -28.1137  -29.0660   21.1804 H   0  0  0  0  0  0
  -26.0686  -25.9127   19.0697 H   0  0  0  0  0  0
  -23.9943  -27.2616   19.0473 H   0  0  0  0  0  0
  -23.7436  -30.5797   19.3938 H   0  0  0  0  0  0
  -22.7546  -29.2283   19.8609 H   0  0  0  0  0  0
  -25.1291  -36.1915   25.0807 H   0  0  0  0  0  0
  -21.0110  -28.3252   24.1431 H   0  0  0  0  0  0
  -20.5626  -26.2240   23.3508 H   0  0  0  0  0  0
  -21.6717  -26.7533   22.1148 H   0  0  0  0  0  0
  -19.7072  -25.6619   21.0935 H   0  0  0  0  0  0
  -19.6845  -27.3583   20.6789 H   0  0  0  0  0  0
  -17.4312  -26.6730   21.3933 H   0  0  0  0  0  0
  -18.0631  -26.0059   22.8874 H   0  0  0  0  0  0
  -19.7938  -30.7217   24.2431 H   0  0  0  0  0  0
  -17.4977  -31.6178   24.5240 H   0  0  0  0  0  0
  -15.5363  -30.2935   23.7554 H   0  0  0  0  0  0
  -15.8750  -28.0808   22.6982 H   0  0  0  0  0  0
  -24.5892  -30.7168   25.7793 H   0  0  0  0  0  0
  -24.9053  -32.2972   26.4905 H   0  0  0  0  0  0
  -25.8109  -30.8898   27.0194 H   0  0  0  0  0  0
  -26.2922  -29.6777   24.1157 H   0  0  0  0  0  0
  -27.4026  -29.7277   25.4668 H   0  0  0  0  0  0
  -27.8813  -30.4316   23.9395 H   0  0  0  0  0  0
  -27.2637  -33.3570   26.2163 H   0  0  0  0  0  0
  -28.3873  -32.6925   25.0353 H   0  0  0  0  0  0
  -28.0755  -31.8386   26.5367 H   0  0  0  0  0  0
  -28.2592  -38.0088   24.7483 H   0  0  0  0  0  0
  -28.1047  -36.2613   24.6281 H   0  0  0  0  0  0
  -27.2313  -37.1444   25.8869 H   0  0  0  0  0  0
  -20.9417  -29.8838   21.6954 H   0  0  0  0  0  0
  -26.0150  -38.2843   24.1347 H   0  0  0  0  0  0
  -26.6882  -23.3086   20.9098 H   0  0  0  0  0  0
  -26.9458  -23.4457   19.1792 H   0  0  0  0  0  0
  -27.8079  -21.2173   19.1253 H   0  0  0  0  0  0
  -27.1545  -21.0665   20.7472 H   0  0  0  0  0  0
  -29.2188  -22.9617   22.2417 H   0  0  0  0  0  0
  -30.5880  -23.1516   21.1746 H   0  0  0  0  0  0
  -29.2232  -24.1047   19.4387 H   0  0  0  0  0  0
  -29.8602  -14.7009   23.0813 H   0  0  0  0  0  0
  -28.2172  -15.3320   23.2433 H   0  0  0  0  0  0
  -29.5618  -16.1227   24.0333 H   0  0  0  0  0  0
  -30.4277  -15.5551   18.0571 H   0  0  0  0  0  0
  -31.8949  -16.4966   18.2736 H   0  0  0  0  0  0
  -30.4651  -17.1861   17.4957 H   0  0  0  0  0  0
  -27.5892  -17.5293   23.6047 H   0  0  0  0  0  0
  -27.5636  -19.1353   23.0151 H   0  0  0  0  0  0
  -28.8869  -18.6298   24.0752 H   0  0  0  0  0  0
  -31.4767  -18.9954   18.2742 H   0  0  0  0  0  0
  -31.1668  -20.2770   19.3675 H   0  0  0  0  0  0
  -29.8960  -19.7623   18.2365 H   0  0  0  0  0  0
  -27.7306  -24.6099   22.8905 H   0  0  0  0  0  0
  -26.5096  -25.3930   21.9043 H   0  0  0  0  0  0
  -27.6662  -26.3626   22.8141 H   0  0  0  0  0  0
  -30.6045  -20.5843   21.8853 H   0  0  0  0  0  0
  -28.9967  -20.5878   22.4664 H   0  0  0  0  0  0
  -29.4969  -25.6373   21.4692 H   0  0  0  0  0  0
  -29.8192  -21.4622   19.8309 H   0  0  0  0  0  0
  1 25  1  0  0  0
  1 30  2  0  0  0
  1 71  1  0  0  0
  2  3  1  0  0  0
  2 25  1  0  0  0
  2 89  1  0  0  0
  2 90  1  0  0  0
  3  4  1  0  0  0
  3 91  1  0  0  0
  3 92  1  0  0  0
  4  5  1  0  0  0
  4 93  1  0  0  0
  4 94  1  0  0  0
  5  6  1  0  0  0
  5 26  1  0  0  0
  5 95  1  0  0  0
  6 25  1  0  0  0
  6 96  1  0  0  0
  6 97  1  0  0  0
  7  8  2  0  0  0
  7 26  1  0  0  0
  7 29  1  0  0  0
  8  9  1  0  0  0
  8 22  1  0  0  0
  9 10  1  0  0  0
  9 27  2  0  0  0
 10 11  2  0  0  0
 10 15  1  0  0  0
 11 12  1  0  0  0
 11 98  1  0  0  0
 12 13  2  0  0  0
 12 99  1  0  0  0
 13 14  1  0  0  0
 13 31  1  0  0  0
 14 15  2  0  0  0
 14100  1  0  0  0
 15101  1  0  0  0
 16 17  2  0  0  0
 16 21  1  0  0  0
 16 31  1  0  0  0
 17 18  1  0  0  0
 17102  1  0  0  0
 18 19  2  0  0  0
 18103  1  0  0  0
 19 20  1  0  0  0
 19 24  1  0  0  0
 20 21  2  0  0  0
 20104  1  0  0  0
 21 23  1  0  0  0
 22 28  1  0  0  0
 22 32  2  0  0  0
 26 27  1  0  0  0
 28105  1  0  0  0
 28106  1  0  0  0
 29107  1  0  0  0
 29108  1  0  0  0
 33 34  1  0  0  0
 33 66  1  0  0  0
 33 70  2  0  0  0
 34 36  1  0  0  0
 34 59  1  0  0  0
 34109  1  0  0  0
 35 44  2  0  0  0
 35 45  1  0  0  0
 35 68  1  0  0  0
 36 56  1  0  0  0
 36110  1  0  0  0
 37 39  1  0  0  0
 37 47  1  0  0  0
 37 66  1  0  0  0
 37111  1  0  0  0
 38 43  2  0  0  0
 38 46  1  0  0  0
 38 47  1  0  0  0
 39 64  1  0  0  0
 39 67  2  0  0  0
 40 52  1  0  0  0
 40 53  2  0  0  0
 40 58  1  0  0  0
 41112  1  0  0  0
 41113  1  0  0  0
 41114  1  0  0  0
 41 48  1  0  0  0
 42 43  1  0  0  0
 42 66  1  0  0  0
 42115  1  0  0  0
 42116  1  0  0  0
 43 44  1  0  0  0
 44117  1  0  0  0
 45 46  2  0  0  0
 45118  1  0  0  0
 46119  1  0  0  0
 47120  1  0  0  0
 47121  1  0  0  0
 48 56  1  0  0  0
 48 65  1  0  0  0
 48122  1  0  0  0
 49 50  1  0  0  0
 49 53  1  0  0  0
 49 64  1  0  0  0
 49123  1  0  0  0
 50 51  1  0  0  0
 50124  1  0  0  0
 50125  1  0  0  0
 51 52  1  0  0  0
 51126  1  0  0  0
 51127  1  0  0  0
 52128  1  0  0  0
 52129  1  0  0  0
 53 54  1  0  0  0
 54 55  2  0  0  0
 54130  1  0  0  0
 55 57  1  0  0  0
 55131  1  0  0  0
 56 69  2  0  0  0
 57 58  2  0  0  0
 57132  1  0  0  0
 58133  1  0  0  0
 59 60  1  0  0  0
 59 61  1  0  0  0
 59 62  1  0  0  0
 60134  1  0  0  0
 60135  1  0  0  0
 60136  1  0  0  0
 61137  1  0  0  0
 61138  1  0  0  0
 61139  1  0  0  0
 62140  1  0  0  0
 62141  1  0  0  0
 62142  1  0  0  0
 63 65  1  0  0  0
 63143  1  0  0  0
 63144  1  0  0  0
 63145  1  0  0  0
 64146  1  0  0  0
 65147  1  0  0  0
 68 87  1  0  0  0
 71 72  2  0  0  0
 71 73  1  0  0  0
 72 74  1  0  0  0
 72 81  1  0  0  0
 73 75  2  0  0  0
 73 82  1  0  0  0
 74 76  2  0  0  0
 74 83  1  0  0  0
 75 76  1  0  0  0
 75 84  1  0  0  0
 76 86  1  0  0  0
 77 78  1  0  0  0
 77148  1  0  0  0
 77149  1  0  0  0
 77 80  1  0  0  0
 78 88  1  0  0  0
 78150  1  0  0  0
 78151  1  0  0  0
 79 80  1  0  0  0
 79 88  1  0  0  0
 79152  1  0  0  0
 79153  1  0  0  0
 80 87  1  0  0  0
 80154  1  0  0  0
 81155  1  0  0  0
 81156  1  0  0  0
 81157  1  0  0  0
 82158  1  0  0  0
 82159  1  0  0  0
 82160  1  0  0  0
 83161  1  0  0  0
 83162  1  0  0  0
 83163  1  0  0  0
 84164  1  0  0  0
 84165  1  0  0  0
 84166  1  0  0  0
 85167  1  0  0  0
 85168  1  0  0  0
 85169  1  0  0  0
 85 87  1  0  0  0
 86170  1  0  0  0
 86171  1  0  0  0
 86 88  1  0  0  0
 87172  1  0  0  0
 88173  1  0  0  0
M  CHG  1  88   1
M  ISO  4   1 100  68 101  71 100  87 101
M  END
> <chiral flag>
0

> <version>
0

> <s_m_source_file>
/data/baiqing/PycharmProjects/Reinvent-master-3.2/result/LINK_invent/BTK/process_docking_weight1_custom_sum_contain_oxygen_bond_distance_aromatic_linkinvent_7_9_3/rearranged_h_0160.sdf

> <i_m_source_file_index>
80

> <r_mmod_Potential_Energy-OPLS-2005>
188.132049560547

> <r_mmod_Stretch_Energy-OPLS-2005>
83.8942260742188

> <r_mmod_Bend_Energy-OPLS-2005>
190.1103515625

> <r_mmod_Torsional_Energy-OPLS-2005>
323.567749023438

> <r_mmod_Improper_Torsional_Energy-OPLS-2005>
8.74461650848389

> <r_mmod_Van_der_Waal_Energy-OPLS-2005>
162.012222290039

> <r_mmod_Electrostatic_Energy-OPLS-2005>
-207.769241333008

> <r_mmod_Solvation_Energy-OPLS-2005>
-411.181274414062

> <b_mmod_Minimization_Converged-OPLS-2005>
0

> <r_mmod_RMS_Derivative-OPLS-2005>
6.15205574035645

$$$$
80
                    3D
 Structure written by MMmdl.
166175  0  0  1  0            999 V2000
  -30.5536  -14.8584   20.4956 C   0  0  0  0  0  0
  -30.4510  -12.5394   19.5078 C   0  0  0  0  0  0
  -29.5309  -12.5549   18.2678 C   0  0  0  0  0  0
  -28.0606  -12.3489   18.6781 C   0  0  0  0  0  0
  -27.6481  -13.2450   19.8756 C   0  0  2  0  0  0
  -28.6859  -13.1907   21.0158 C   0  0  0  0  0  0
  -25.2500  -13.8208   20.5694 C   0  0  0  0  0  0
  -24.1804  -13.0441   20.9188 C   0  0  0  0  0  0
  -24.6442  -11.6945   20.8774 C   0  0  0  0  0  0
  -23.9126  -10.4322   21.0417 C   0  0  0  0  0  0
  -24.3654   -9.4214   21.9176 C   0  0  0  0  0  0
  -23.6311   -8.2246   22.0755 C   0  0  0  0  0  0
  -22.4270   -8.0302   21.3561 C   0  0  0  0  0  0
  -21.9937   -9.0291   20.4645 C   0  0  0  0  0  0
  -22.7303  -10.2164   20.3059 C   0  0  0  0  0  0
  -21.6855   -6.0739   22.5288 C   0  0  0  0  0  0
  -21.4014   -6.5640   23.8226 C   0  0  0  0  0  0
  -21.3659   -5.6785   24.9172 C   0  0  0  0  0  0
  -21.6036   -4.3056   24.7217 C   0  0  0  0  0  0
  -21.8819   -3.8157   23.4343 C   0  0  0  0  0  0
  -21.9190   -4.6964   22.3401 C   0  0  0  0  0  0
  -22.7820  -13.5227   21.1865 C   0  0  0  0  0  0
  -22.1658   -4.2150   21.0980 F   0  0  0  0  0  0
  -21.5630   -3.4546   25.7737 F   0  0  0  0  0  0
  -29.9759  -13.5947   20.4402 N   0  0  0  0  0  0
  -26.2971  -12.9453   20.3392 N   0  0  0  0  0  0
  -25.9387  -11.6597   20.5774 N   0  0  0  0  0  0
  -22.0485  -12.8203   22.0420 N   0  0  0  0  0  0
  -25.4209  -15.1913   20.4083 N   0  0  0  0  0  0
  -31.7246  -14.9841   20.1241 O   0  0  0  0  0  0
  -21.6650   -6.8892   21.4247 O   0  0  0  0  0  0
  -22.3502  -14.5527   20.6703 O   0  0  0  0  0  0
  -24.6335  -31.8511   23.1956 C   0  0  0  0  0  0
  -25.9161  -32.4703   23.8299 C   0  0  1  0  0  0
  -27.2187  -27.1888   20.1498 C   0  0  0  0  0  0
  -25.5954  -33.8506   24.2220 N   0  0  0  0  0  0
  -23.4323  -30.4707   21.5463 C   0  0  2  0  0  0
  -24.8815  -28.9032   20.1158 C   0  0  0  0  0  0
  -22.7513  -29.4569   22.4959 C   0  0  0  0  0  0
  -18.0252  -28.1399   22.8633 C   0  0  0  0  0  0
  -24.1484  -36.7247   23.2641 C   0  0  0  0  0  0
  -25.9821  -30.7383   21.3882 C   0  0  0  0  0  0
  -26.0546  -29.3529   20.7308 C   0  0  0  0  0  0
  -27.2235  -28.5126   20.7297 C   0  0  0  0  0  0
  -26.0207  -26.8297   19.4947 C   0  0  0  0  0  0
  -24.8718  -27.6506   19.4829 C   0  0  0  0  0  0
  -23.6545  -29.8010   20.1622 C   0  0  0  0  0  0
  -25.4117  -36.3019   24.0315 C   0  0  1  0  0  0
  -20.5861  -28.3663   23.1305 C   0  0  2  0  0  0
  -20.6564  -26.9313   22.5538 C   0  0  0  0  0  0
  -19.5554  -26.6354   21.5291 C   0  0  0  0  0  0
  -18.1809  -26.7922   22.1822 C   0  0  0  0  0  0
  -19.1577  -28.8864   23.2914 C   0  0  0  0  0  0
  -18.9605  -30.1554   23.8827 C   0  0  0  0  0  0
  -17.6639  -30.6785   24.0467 C   0  0  0  0  0  0
  -25.9080  -34.9404   23.5073 C   0  0  0  0  0  0
  -16.5493  -29.9191   23.6446 C   0  0  0  0  0  0
  -16.7273  -28.6554   23.0590 C   0  0  0  0  0  0
  -26.4498  -31.6554   25.0708 C   0  0  0  0  0  0
  -25.3690  -31.3774   26.1414 C   0  0  0  0  0  0
  -27.0380  -30.2951   24.6274 C   0  0  0  0  0  0
  -27.6020  -32.4304   25.7509 C   0  0  0  0  0  0
  -27.5568  -37.1781   24.8467 C   0  0  0  0  0  0
  -21.4208  -29.3103   22.3785 N   0  0  0  0  0  0
  -26.4281  -37.3724   23.9414 N   0  0  0  0  0  0
  -24.7011  -31.0418   22.0968 N   0  0  0  0  0  0
  -23.4205  -28.8025   23.2994 O   0  0  0  0  0  0
  -28.3219  -26.2775   20.2137 O   0  0  0  0  0  0
  -26.5644  -34.8879   22.4635 O   0  0  0  0  0  0
  -23.5497  -32.1399   23.7201 O   0  0  0  0  0  0
  -26.3784  -18.5785   20.9449 C   0  0  0  0  0  0
  -28.8080  -18.6357   20.7989 C   0  0  0  0  0  0
  -27.6330  -18.1691   21.4353 C   0  0  0  0  0  0
  -28.6018  -19.9190   20.0637 C   0  0  0  0  0  0
  -26.3506  -19.4142   19.8189 C   0  0  0  0  0  0
  -27.9312  -22.2987   21.2604 C   0  0  0  0  0  0
  -29.2598  -22.4274   19.1865 C   0  0  0  0  0  0
  -28.0798  -23.8933   21.4195 C   0  0  0  0  0  0
  -29.3997  -24.0108   19.4136 C   0  0  0  0  0  0
  -29.0133  -21.4647   20.4341 C   0  0  2  0  0  0
  -28.1979  -24.7490   20.1010 C   0  0  2  0  0  0
  -25.0528  -19.7200   19.1114 C   0  0  0  0  0  0
  -26.8842  -17.5424   23.5721 C   0  0  0  0  0  0
  -30.0137  -17.5365   20.7049 C   0  0  0  0  0  0
  -27.4454  -20.0490   19.3740 N   0  0  0  0  0  0
  -29.7665  -15.9875   20.7942 N   0  0  0  0  0  0
  -27.7325  -17.2630   22.4595 O   0  0  0  0  0  0
  -31.4854  -12.7088   19.2025 H   0  0  0  0  0  0
  -30.4447  -11.5597   19.9934 H   0  0  0  0  0  0
  -29.8443  -11.7878   17.5612 H   0  0  0  0  0  0
  -29.6445  -13.5117   17.7542 H   0  0  0  0  0  0
  -27.9406  -11.2981   18.9398 H   0  0  0  0  0  0
  -27.4077  -12.5322   17.8259 H   0  0  0  0  0  0
  -27.6415  -14.2698   19.5033 H   0  0  0  0  0  0
  -28.7490  -12.1833   21.4316 H   0  0  0  0  0  0
  -28.3998  -13.8452   21.8394 H   0  0  0  0  0  0
  -25.2793   -9.5639   22.4761 H   0  0  0  0  0  0
  -24.0008   -7.4615   22.7468 H   0  0  0  0  0  0
  -21.0867   -8.8805   19.8955 H   0  0  0  0  0  0
  -22.3758  -10.9688   19.6164 H   0  0  0  0  0  0
  -21.2012   -7.6154   23.9713 H   0  0  0  0  0  0
  -21.1483   -6.0531   25.9075 H   0  0  0  0  0  0
  -22.0600   -2.7620   23.2846 H   0  0  0  0  0  0
  -22.4114  -11.9847   22.4774 H   0  0  0  0  0  0
  -21.1108  -13.1202   22.2681 H   0  0  0  0  0  0
  -24.6552  -15.8479   20.4948 H   0  0  0  0  0  0
  -26.2721  -15.6261   20.0798 H   0  0  0  0  0  0
  -26.7190  -32.5319   23.1015 H   0  0  0  0  0  0
  -25.0043  -33.9643   25.0322 H   0  0  0  0  0  0
  -22.7313  -31.2935   21.3931 H   0  0  0  0  0  0
  -23.3738  -35.9588   23.3289 H   0  0  0  0  0  0
  -24.3579  -36.8902   22.2067 H   0  0  0  0  0  0
  -23.7269  -37.6441   23.6694 H   0  0  0  0  0  0
  -26.1318  -31.4933   20.6159 H   0  0  0  0  0  0
  -26.8553  -30.7869   22.0288 H   0  0  0  0  0  0
  -28.1143  -28.8639   21.2290 H   0  0  0  0  0  0
  -25.9287  -25.8921   18.9774 H   0  0  0  0  0  0
  -23.9768  -27.2990   18.9875 H   0  0  0  0  0  0
  -23.7904  -30.5724   19.4004 H   0  0  0  0  0  0
  -22.7665  -29.2420   19.8578 H   0  0  0  0  0  0
  -25.1312  -36.1832   25.0807 H   0  0  0  0  0  0
  -20.9979  -28.3259   24.1448 H   0  0  0  0  0  0
  -20.5067  -26.2321   23.3790 H   0  0  0  0  0  0
  -21.6364  -26.6881   22.1468 H   0  0  0  0  0  0
  -19.6615  -25.6226   21.1406 H   0  0  0  0  0  0
  -19.6516  -27.3124   20.6819 H   0  0  0  0  0  0
  -17.3934  -26.6683   21.4382 H   0  0  0  0  0  0
  -18.0370  -26.0108   22.9297 H   0  0  0  0  0  0
  -19.8189  -30.7307   24.2016 H   0  0  0  0  0  0
  -17.5322  -31.6607   24.4752 H   0  0  0  0  0  0
  -15.5521  -30.3128   23.7849 H   0  0  0  0  0  0
  -15.8610  -28.0891   22.7480 H   0  0  0  0  0  0
  -24.5847  -30.7128   25.7763 H   0  0  0  0  0  0
  -24.8883  -32.2979   26.4731 H   0  0  0  0  0  0
  -25.7959  -30.9019   27.0258 H   0  0  0  0  0  0
  -26.3017  -29.6666   24.1234 H   0  0  0  0  0  0
  -27.3980  -29.7223   25.4842 H   0  0  0  0  0  0
  -27.8910  -30.4196   23.9594 H   0  0  0  0  0  0
  -27.2593  -33.3626   26.2010 H   0  0  0  0  0  0
  -28.3877  -32.6845   25.0376 H   0  0  0  0  0  0
  -28.0610  -31.8469   26.5512 H   0  0  0  0  0  0
  -28.2568  -38.0080   24.7482 H   0  0  0  0  0  0
  -28.1070  -36.2618   24.6314 H   0  0  0  0  0  0
  -27.2281  -37.1441   25.8861 H   0  0  0  0  0  0
  -20.9359  -29.9215   21.7363 H   0  0  0  0  0  0
  -26.0135  -38.2777   24.1408 H   0  0  0  0  0  0
  -25.4523  -18.1749   21.3355 H   0  0  0  0  0  0
  -26.9657  -22.1517   20.7787 H   0  0  0  0  0  0
  -27.8253  -21.8470   22.2493 H   0  0  0  0  0  0
  -30.1328  -22.0688   18.6435 H   0  0  0  0  0  0
  -28.4199  -22.3015   18.5021 H   0  0  0  0  0  0
  -28.9489  -24.0974   22.0400 H   0  0  0  0  0  0
  -27.2310  -24.2707   21.9842 H   0  0  0  0  0  0
  -29.5552  -24.4665   18.4344 H   0  0  0  0  0  0
  -30.3141  -24.2190   19.9731 H   0  0  0  0  0  0
  -29.9313  -21.4219   21.0163 H   0  0  0  0  0  0
  -27.3312  -24.5106   19.4962 H   0  0  0  0  0  0
  -24.3876  -20.2618   19.7815 H   0  0  0  0  0  0
  -24.5676  -18.7968   18.7836 H   0  0  0  0  0  0
  -25.2187  -20.3487   18.2312 H   0  0  0  0  0  0
  -26.8104  -18.6133   23.7800 H   0  0  0  0  0  0
  -25.8740  -17.1488   23.4301 H   0  0  0  0  0  0
  -27.3171  -17.0940   24.4648 H   0  0  0  0  0  0
  -30.7335  -17.7933   21.4855 H   0  0  0  0  0  0
  -30.5460  -17.7154   19.7693 H   0  0  0  0  0  0
  -28.8460  -15.7487   21.1340 H   0  0  0  0  0  0
  1 25  1  0  0  0
  1 30  2  0  0  0
  1 86  1  0  0  0
  2  3  1  0  0  0
  2 25  1  0  0  0
  2 88  1  0  0  0
  2 89  1  0  0  0
  3  4  1  0  0  0
  3 90  1  0  0  0
  3 91  1  0  0  0
  4  5  1  0  0  0
  4 92  1  0  0  0
  4 93  1  0  0  0
  5  6  1  0  0  0
  5 26  1  0  0  0
  5 94  1  0  0  0
  6 25  1  0  0  0
  6 95  1  0  0  0
  6 96  1  0  0  0
  7  8  2  0  0  0
  7 26  1  0  0  0
  7 29  1  0  0  0
  8  9  1  0  0  0
  8 22  1  0  0  0
  9 10  1  0  0  0
  9 27  2  0  0  0
 10 11  2  0  0  0
 10 15  1  0  0  0
 11 12  1  0  0  0
 11 97  1  0  0  0
 12 13  2  0  0  0
 12 98  1  0  0  0
 13 14  1  0  0  0
 13 31  1  0  0  0
 14 15  2  0  0  0
 14 99  1  0  0  0
 15100  1  0  0  0
 16 17  2  0  0  0
 16 21  1  0  0  0
 16 31  1  0  0  0
 17 18  1  0  0  0
 17101  1  0  0  0
 18 19  2  0  0  0
 18102  1  0  0  0
 19 20  1  0  0  0
 19 24  1  0  0  0
 20 21  2  0  0  0
 20103  1  0  0  0
 21 23  1  0  0  0
 22 28  1  0  0  0
 22 32  2  0  0  0
 26 27  1  0  0  0
 28104  1  0  0  0
 28105  1  0  0  0
 29106  1  0  0  0
 29107  1  0  0  0
 33 34  1  0  0  0
 33 66  1  0  0  0
 33 70  2  0  0  0
 34 36  1  0  0  0
 34 59  1  0  0  0
 34108  1  0  0  0
 35 44  2  0  0  0
 35 45  1  0  0  0
 35 68  1  0  0  0
 36 56  1  0  0  0
 36109  1  0  0  0
 37 39  1  0  0  0
 37 47  1  0  0  0
 37 66  1  0  0  0
 37110  1  0  0  0
 38 43  2  0  0  0
 38 46  1  0  0  0
 38 47  1  0  0  0
 39 64  1  0  0  0
 39 67  2  0  0  0
 40 52  1  0  0  0
 40 53  2  0  0  0
 40 58  1  0  0  0
 41111  1  0  0  0
 41112  1  0  0  0
 41113  1  0  0  0
 41 48  1  0  0  0
 42 43  1  0  0  0
 42 66  1  0  0  0
 42114  1  0  0  0
 42115  1  0  0  0
 43 44  1  0  0  0
 44116  1  0  0  0
 45 46  2  0  0  0
 45117  1  0  0  0
 46118  1  0  0  0
 47119  1  0  0  0
 47120  1  0  0  0
 48 56  1  0  0  0
 48 65  1  0  0  0
 48121  1  0  0  0
 49 50  1  0  0  0
 49 53  1  0  0  0
 49 64  1  0  0  0
 49122  1  0  0  0
 50 51  1  0  0  0
 50123  1  0  0  0
 50124  1  0  0  0
 51 52  1  0  0  0
 51125  1  0  0  0
 51126  1  0  0  0
 52127  1  0  0  0
 52128  1  0  0  0
 53 54  1  0  0  0
 54 55  2  0  0  0
 54129  1  0  0  0
 55 57  1  0  0  0
 55130  1  0  0  0
 56 69  2  0  0  0
 57 58  2  0  0  0
 57131  1  0  0  0
 58132  1  0  0  0
 59 60  1  0  0  0
 59 61  1  0  0  0
 59 62  1  0  0  0
 60133  1  0  0  0
 60134  1  0  0  0
 60135  1  0  0  0
 61136  1  0  0  0
 61137  1  0  0  0
 61138  1  0  0  0
 62139  1  0  0  0
 62140  1  0  0  0
 62141  1  0  0  0
 63 65  1  0  0  0
 63142  1  0  0  0
 63143  1  0  0  0
 63144  1  0  0  0
 64145  1  0  0  0
 65146  1  0  0  0
 68 81  1  0  0  0
 71 73  2  0  0  0
 71 75  1  0  0  0
 71147  1  0  0  0
 72 73  1  0  0  0
 72 74  2  0  0  0
 72 84  1  0  0  0
 73 87  1  0  0  0
 74 85  1  0  0  0
 74 80  1  0  0  0
 75 82  1  0  0  0
 75 85  2  0  0  0
 76 78  1  0  0  0
 76 80  1  0  0  0
 76148  1  0  0  0
 76149  1  0  0  0
 77 79  1  0  0  0
 77 80  1  0  0  0
 77150  1  0  0  0
 77151  1  0  0  0
 78 81  1  0  0  0
 78152  1  0  0  0
 78153  1  0  0  0
 79 81  1  0  0  0
 79154  1  0  0  0
 79155  1  0  0  0
 80156  1  0  0  0
 81157  1  0  0  0
 82158  1  0  0  0
 82159  1  0  0  0
 82160  1  0  0  0
 83 87  1  0  0  0
 83161  1  0  0  0
 83162  1  0  0  0
 83163  1  0  0  0
 84 86  1  0  0  0
 84164  1  0  0  0
 84165  1  0  0  0
 86166  1  0  0  0
M  ISO  4   1 100  68 101  81 101  86 100
M  END
> <chiral flag>
0

> <version>
0

> <s_m_source_file>
/data/baiqing/PycharmProjects/Reinvent-master-3.2/result/LINK_invent/BTK/process_docking_weight1_custom_sum_contain_oxygen_bond_distance_aromatic_linkinvent_7_9_3/rearranged_h_0160.sdf

> <i_m_source_file_index>
81

> <r_mmod_Potential_Energy-OPLS-2005>
361.120697021484

> <r_mmod_Stretch_Energy-OPLS-2005>
197.273803710938

> <r_mmod_Bend_Energy-OPLS-2005>
244.691024780273

> <r_mmod_Torsional_Energy-OPLS-2005>
381.013977050781

> <r_mmod_Improper_Torsional_Energy-OPLS-2005>
16.9060955047607

> <r_mmod_Van_der_Waal_Energy-OPLS-2005>
140.617111206055

> <r_mmod_Electrostatic_Energy-OPLS-2005>
-548.1787109375

> <r_mmod_Solvation_Energy-OPLS-2005>
-205.742904663086

> <b_mmod_Minimization_Converged-OPLS-2005>
0

> <r_mmod_RMS_Derivative-OPLS-2005>
8.13167667388916

$$$$
81
                    3D
 Structure written by MMmdl.
159168  0  0  1  0            999 V2000
  -30.5080  -14.9630   20.4453 C   0  0  0  0  0  0
  -30.4317  -12.5843   19.5625 C   0  0  0  0  0  0
  -29.5502  -12.5314   18.2949 C   0  0  0  0  0  0
  -28.0685  -12.3312   18.6670 C   0  0  0  0  0  0
  -27.6278  -13.2519   19.8385 C   0  0  2  0  0  0
  -28.6454  -13.2734   21.0001 C   0  0  0  0  0  0
  -25.2406  -13.8202   20.5656 C   0  0  0  0  0  0
  -24.1739  -13.0417   20.9191 C   0  0  0  0  0  0
  -24.6357  -11.6914   20.8694 C   0  0  0  0  0  0
  -23.9033  -10.4288   21.0365 C   0  0  0  0  0  0
  -24.3580   -9.4209   21.9154 C   0  0  0  0  0  0
  -23.6258   -8.2236   22.0739 C   0  0  0  0  0  0
  -22.4241   -8.0258   21.3510 C   0  0  0  0  0  0
  -21.9852   -9.0245   20.4637 C   0  0  0  0  0  0
  -22.7184  -10.2124   20.3031 C   0  0  0  0  0  0
  -21.6854   -6.0687   22.5247 C   0  0  0  0  0  0
  -21.4056   -6.5606   23.8179 C   0  0  0  0  0  0
  -21.3685   -5.6756   24.9139 C   0  0  0  0  0  0
  -21.6046   -4.3021   24.7215 C   0  0  0  0  0  0
  -21.8825   -3.8109   23.4343 C   0  0  0  0  0  0
  -21.9216   -4.6917   22.3390 C   0  0  0  0  0  0
  -22.7763  -13.5193   21.1874 C   0  0  0  0  0  0
  -22.1678   -4.2102   21.0966 F   0  0  0  0  0  0
  -21.5603   -3.4531   25.7745 F   0  0  0  0  0  0
  -29.9389  -13.6856   20.4408 N   0  0  0  0  0  0
  -26.2817  -12.9441   20.3094 N   0  0  0  0  0  0
  -25.9272  -11.6568   20.5605 N   0  0  0  0  0  0
  -22.0433  -12.8206   22.0473 N   0  0  0  0  0  0
  -25.4049  -15.1938   20.4058 N   0  0  0  0  0  0
  -31.6826  -15.0373   20.0591 O   0  0  0  0  0  0
  -21.6605   -6.8847   21.4209 O   0  0  0  0  0  0
  -22.3469  -14.5519   20.6745 O   0  0  0  0  0  0
  -24.6452  -31.8411   23.1799 C   0  0  0  0  0  0
  -25.9231  -32.4682   23.8201 C   0  0  1  0  0  0
  -27.2209  -27.1183   20.1813 C   0  0  0  0  0  0
  -25.5964  -33.8473   24.2137 N   0  0  0  0  0  0
  -23.4495  -30.4611   21.5255 C   0  0  2  0  0  0
  -24.9025  -28.8784   20.1109 C   0  0  0  0  0  0
  -22.7572  -29.4573   22.4791 C   0  0  0  0  0  0
  -18.0314  -28.1402   22.8495 C   0  0  0  0  0  0
  -24.1481  -36.7243   23.2640 C   0  0  0  0  0  0
  -26.0059  -30.7149   21.3804 C   0  0  0  0  0  0
  -26.0793  -29.3208   20.7287 C   0  0  0  0  0  0
  -27.2404  -28.4632   20.7345 C   0  0  0  0  0  0
  -26.0223  -26.7722   19.5241 C   0  0  0  0  0  0
  -24.8915  -27.6191   19.4870 C   0  0  0  0  0  0
  -23.6793  -29.7815   20.1478 C   0  0  0  0  0  0
  -25.4121  -36.3019   24.0314 C   0  0  1  0  0  0
  -20.5934  -28.3747   23.1213 C   0  0  2  0  0  0
  -20.6817  -26.9447   22.5400 C   0  0  0  0  0  0
  -19.5770  -26.6352   21.5253 C   0  0  0  0  0  0
  -18.1944  -26.7921   22.1665 C   0  0  0  0  0  0
  -19.1575  -28.8887   23.2841 C   0  0  0  0  0  0
  -18.9506  -30.1483   23.8860 C   0  0  0  0  0  0
  -17.6526  -30.6589   24.0661 C   0  0  0  0  0  0
  -25.9086  -34.9415   23.5030 C   0  0  0  0  0  0
  -16.5395  -29.9096   23.6447 C   0  0  0  0  0  0
  -16.7303  -28.6518   23.0423 C   0  0  0  0  0  0
  -26.4520  -31.6575   25.0664 C   0  0  0  0  0  0
  -25.3648  -31.3814   26.1327 C   0  0  0  0  0  0
  -27.0392  -30.2972   24.6265 C   0  0  0  0  0  0
  -27.6028  -32.4348   25.7447 C   0  0  0  0  0  0
  -27.5564  -37.1792   24.8462 C   0  0  0  0  0  0
  -21.4257  -29.3071   22.3546 N   0  0  0  0  0  0
  -26.4272  -37.3752   23.9411 N   0  0  0  0  0  0
  -24.7190  -31.0259   22.0840 N   0  0  0  0  0  0
  -23.4212  -28.8166   23.2970 O   0  0  0  0  0  0
  -28.2775  -26.1370   20.2341 O   0  0  0  0  0  0
  -26.5661  -34.8922   22.4616 O   0  0  0  0  0  0
  -23.5577  -32.1301   23.7041 O   0  0  0  0  0  0
  -29.4337  -18.8169   20.9208 C   0  0  0  0  0  0
  -29.0881  -20.1317   20.2947 C   0  0  0  0  0  0
  -28.7991  -19.9816   18.9133 C   0  0  0  0  0  0
  -29.0176  -18.7317   18.2605 C   0  0  0  0  0  0
  -29.5923  -17.5188   20.2111 C   0  0  0  0  0  0
  -29.1674  -24.2891   21.3972 C   0  0  0  0  0  0
  -28.9402  -23.1813   20.3795 C   0  0  2  0  0  0
  -28.0164  -24.6158   20.5193 C   0  0  2  0  0  0
  -28.2011  -21.1433   18.1286 C   0  0  0  0  0  0
  -28.7692  -18.5526   16.7651 C   0  0  0  0  0  0
  -30.1770  -21.5850   22.0599 C   0  0  0  0  0  0
  -28.9891  -21.6167   21.0615 C   0  0  2  0  0  0
  -29.4100  -17.5889   18.8768 N   0  0  0  0  0  0
  -29.7708  -16.1247   20.8191 N   0  0  0  0  0  0
  -31.4775  -12.7238   19.2882 H   0  0  0  0  0  0
  -30.3941  -11.6331   20.0972 H   0  0  0  0  0  0
  -29.8793  -11.7264   17.6398 H   0  0  0  0  0  0
  -29.6738  -13.4567   17.7281 H   0  0  0  0  0  0
  -27.9318  -11.2849   18.9447 H   0  0  0  0  0  0
  -27.4380  -12.4962   17.7944 H   0  0  0  0  0  0
  -27.5990  -14.2595   19.4267 H   0  0  0  0  0  0
  -28.7060  -12.2976   21.4896 H   0  0  0  0  0  0
  -28.3213  -13.9791   21.7639 H   0  0  0  0  0  0
  -25.2738   -9.5699   22.4693 H   0  0  0  0  0  0
  -23.9977   -7.4632   22.7463 H   0  0  0  0  0  0
  -21.0773   -8.8727   19.8970 H   0  0  0  0  0  0
  -22.3604  -10.9627   19.6125 H   0  0  0  0  0  0
  -21.2066   -7.6113   23.9676 H   0  0  0  0  0  0
  -21.1498   -6.0487   25.9035 H   0  0  0  0  0  0
  -22.0590   -2.7570   23.2842 H   0  0  0  0  0  0
  -22.4056  -11.9897   22.4888 H   0  0  0  0  0  0
  -21.1071  -13.1204   22.2686 H   0  0  0  0  0  0
  -24.6345  -15.8395   20.5360 H   0  0  0  0  0  0
  -26.2090  -15.6270   19.9700 H   0  0  0  0  0  0
  -26.7298  -32.5306   23.0928 H   0  0  0  0  0  0
  -25.0090  -33.9551   25.0261 H   0  0  0  0  0  0
  -22.7533  -31.2890   21.3677 H   0  0  0  0  0  0
  -23.3736  -35.9583   23.3300 H   0  0  0  0  0  0
  -24.3546  -36.8862   22.2045 H   0  0  0  0  0  0
  -23.7237  -37.6442   23.6670 H   0  0  0  0  0  0
  -26.1563  -31.4690   20.6055 H   0  0  0  0  0  0
  -26.8751  -30.7727   22.0221 H   0  0  0  0  0  0
  -28.1420  -28.8054   21.2234 H   0  0  0  0  0  0
  -25.9469  -25.8024   19.0525 H   0  0  0  0  0  0
  -23.9992  -27.2732   18.9856 H   0  0  0  0  0  0
  -23.8075  -30.5500   19.3870 H   0  0  0  0  0  0
  -22.7939  -29.2176   19.8455 H   0  0  0  0  0  0
  -25.1311  -36.1840   25.0804 H   0  0  0  0  0  0
  -21.0026  -28.3371   24.1346 H   0  0  0  0  0  0
  -20.5812  -26.2371   23.3645 H   0  0  0  0  0  0
  -21.6685  -26.7456   22.1193 H   0  0  0  0  0  0
  -19.6933  -25.6243   21.1335 H   0  0  0  0  0  0
  -19.6698  -27.3154   20.6765 H   0  0  0  0  0  0
  -17.4221  -26.6669   21.4060 H   0  0  0  0  0  0
  -18.0344  -26.0073   22.9072 H   0  0  0  0  0  0
  -19.8007  -30.7293   24.2188 H   0  0  0  0  0  0
  -17.5095  -31.6249   24.5318 H   0  0  0  0  0  0
  -15.5419  -30.3020   23.7834 H   0  0  0  0  0  0
  -15.8682  -28.0876   22.7135 H   0  0  0  0  0  0
  -24.5776  -30.7243   25.7599 H   0  0  0  0  0  0
  -24.8892  -32.3031   26.4697 H   0  0  0  0  0  0
  -25.7857  -30.8960   27.0146 H   0  0  0  0  0  0
  -26.3045  -29.6653   24.1271 H   0  0  0  0  0  0
  -27.3986  -29.7312   25.4863 H   0  0  0  0  0  0
  -27.8934  -30.4157   23.9605 H   0  0  0  0  0  0
  -27.2607  -33.3655   26.1976 H   0  0  0  0  0  0
  -28.3860  -32.6913   25.0305 H   0  0  0  0  0  0
  -28.0677  -31.8517   26.5390 H   0  0  0  0  0  0
  -28.2606  -38.0068   24.7512 H   0  0  0  0  0  0
  -28.1040  -36.2606   24.6304 H   0  0  0  0  0  0
  -27.2282  -37.1474   25.8865 H   0  0  0  0  0  0
  -20.9435  -29.8738   21.6720 H   0  0  0  0  0  0
  -26.0127  -38.2814   24.1430 H   0  0  0  0  0  0
  -29.5712  -18.7858   21.9910 H   0  0  0  0  0  0
  -30.0977  -24.8451   21.2719 H   0  0  0  0  0  0
  -28.8877  -24.1371   22.4375 H   0  0  0  0  0  0
  -29.6185  -23.2196   19.5295 H   0  0  0  0  0  0
  -27.0253  -24.4952   20.9567 H   0  0  0  0  0  0
  -27.5045  -21.7120   18.7443 H   0  0  0  0  0  0
  -27.6209  -20.8108   17.2687 H   0  0  0  0  0  0
  -28.9839  -21.8104   17.7689 H   0  0  0  0  0  0
  -29.0745  -19.4345   16.1989 H   0  0  0  0  0  0
  -27.7157  -18.3531   16.5718 H   0  0  0  0  0  0
  -29.3354  -17.7179   16.3513 H   0  0  0  0  0  0
  -30.2571  -22.4655   22.6924 H   0  0  0  0  0  0
  -31.1200  -21.4854   21.5239 H   0  0  0  0  0  0
  -30.1223  -20.7548   22.7631 H   0  0  0  0  0  0
  -28.0796  -21.5493   21.6599 H   0  0  0  0  0  0
  -28.9952  -15.8876   21.4177 H   0  0  0  0  0  0
  1 25  1  0  0  0
  1 30  2  0  0  0
  1 84  1  0  0  0
  2  3  1  0  0  0
  2 25  1  0  0  0
  2 85  1  0  0  0
  2 86  1  0  0  0
  3  4  1  0  0  0
  3 87  1  0  0  0
  3 88  1  0  0  0
  4  5  1  0  0  0
  4 89  1  0  0  0
  4 90  1  0  0  0
  5  6  1  0  0  0
  5 26  1  0  0  0
  5 91  1  0  0  0
  6 25  1  0  0  0
  6 92  1  0  0  0
  6 93  1  0  0  0
  7  8  2  0  0  0
  7 26  1  0  0  0
  7 29  1  0  0  0
  8  9  1  0  0  0
  8 22  1  0  0  0
  9 10  1  0  0  0
  9 27  2  0  0  0
 10 11  2  0  0  0
 10 15  1  0  0  0
 11 12  1  0  0  0
 11 94  1  0  0  0
 12 13  2  0  0  0
 12 95  1  0  0  0
 13 14  1  0  0  0
 13 31  1  0  0  0
 14 15  2  0  0  0
 14 96  1  0  0  0
 15 97  1  0  0  0
 16 17  2  0  0  0
 16 21  1  0  0  0
 16 31  1  0  0  0
 17 18  1  0  0  0
 17 98  1  0  0  0
 18 19  2  0  0  0
 18 99  1  0  0  0
 19 20  1  0  0  0
 19 24  1  0  0  0
 20 21  2  0  0  0
 20100  1  0  0  0
 21 23  1  0  0  0
 22 28  1  0  0  0
 22 32  2  0  0  0
 26 27  1  0  0  0
 28101  1  0  0  0
 28102  1  0  0  0
 29103  1  0  0  0
 29104  1  0  0  0
 33 34  1  0  0  0
 33 66  1  0  0  0
 33 70  2  0  0  0
 34 36  1  0  0  0
 34 59  1  0  0  0
 34105  1  0  0  0
 35 44  2  0  0  0
 35 45  1  0  0  0
 35 68  1  0  0  0
 36 56  1  0  0  0
 36106  1  0  0  0
 37 39  1  0  0  0
 37 47  1  0  0  0
 37 66  1  0  0  0
 37107  1  0  0  0
 38 43  2  0  0  0
 38 46  1  0  0  0
 38 47  1  0  0  0
 39 64  1  0  0  0
 39 67  2  0  0  0
 40 52  1  0  0  0
 40 53  2  0  0  0
 40 58  1  0  0  0
 41108  1  0  0  0
 41109  1  0  0  0
 41110  1  0  0  0
 41 48  1  0  0  0
 42 43  1  0  0  0
 42 66  1  0  0  0
 42111  1  0  0  0
 42112  1  0  0  0
 43 44  1  0  0  0
 44113  1  0  0  0
 45 46  2  0  0  0
 45114  1  0  0  0
 46115  1  0  0  0
 47116  1  0  0  0
 47117  1  0  0  0
 48 56  1  0  0  0
 48 65  1  0  0  0
 48118  1  0  0  0
 49 50  1  0  0  0
 49 53  1  0  0  0
 49 64  1  0  0  0
 49119  1  0  0  0
 50 51  1  0  0  0
 50120  1  0  0  0
 50121  1  0  0  0
 51 52  1  0  0  0
 51122  1  0  0  0
 51123  1  0  0  0
 52124  1  0  0  0
 52125  1  0  0  0
 53 54  1  0  0  0
 54 55  2  0  0  0
 54126  1  0  0  0
 55 57  1  0  0  0
 55127  1  0  0  0
 56 69  2  0  0  0
 57 58  2  0  0  0
 57128  1  0  0  0
 58129  1  0  0  0
 59 60  1  0  0  0
 59 61  1  0  0  0
 59 62  1  0  0  0
 60130  1  0  0  0
 60131  1  0  0  0
 60132  1  0  0  0
 61133  1  0  0  0
 61134  1  0  0  0
 61135  1  0  0  0
 62136  1  0  0  0
 62137  1  0  0  0
 62138  1  0  0  0
 63 65  1  0  0  0
 63139  1  0  0  0
 63140  1  0  0  0
 63141  1  0  0  0
 64142  1  0  0  0
 65143  1  0  0  0
 68 78  1  0  0  0
 71 72  2  0  0  0
 71 75  1  0  0  0
 71144  1  0  0  0
 72 73  1  0  0  0
 72 82  1  0  0  0
 73 74  2  0  0  0
 73 79  1  0  0  0
 74 80  1  0  0  0
 74 83  1  0  0  0
 75 83  2  0  0  0
 75 84  1  0  0  0
 76 78  1  0  0  0
 76145  1  0  0  0
 76146  1  0  0  0
 76 77  1  0  0  0
 77 78  1  0  0  0
 77 82  1  0  0  0
 77147  1  0  0  0
 78148  1  0  0  0
 79149  1  0  0  0
 79150  1  0  0  0
 79151  1  0  0  0
 80152  1  0  0  0
 80153  1  0  0  0
 80154  1  0  0  0
 81155  1  0  0  0
 81156  1  0  0  0
 81157  1  0  0  0
 81 82  1  0  0  0
 82158  1  0  0  0
 84159  1  0  0  0
M  ISO  4   1 100  68 101  78 101  84 100
M  END
> <chiral flag>
0

> <version>
0

> <s_m_source_file>
/data/baiqing/PycharmProjects/Reinvent-master-3.2/result/LINK_invent/BTK/process_docking_weight1_custom_sum_contain_oxygen_bond_distance_aromatic_linkinvent_7_9_3/rearranged_h_0160.sdf

> <i_m_source_file_index>
82

> <r_mmod_Potential_Energy-OPLS-2005>
467.027893066406

> <r_mmod_Stretch_Energy-OPLS-2005>
302.691497802734

> <r_mmod_Bend_Energy-OPLS-2005>
302.194488525391

> <r_mmod_Torsional_Energy-OPLS-2005>
283.784332275391

> <r_mmod_Improper_Torsional_Energy-OPLS-2005>
4.51754951477051

> <r_mmod_Van_der_Waal_Energy-OPLS-2005>
144.616928100586

> <r_mmod_Electrostatic_Energy-OPLS-2005>
-551.566162109375

> <r_mmod_Solvation_Energy-OPLS-2005>
-224.345672607422

> <b_mmod_Minimization_Converged-OPLS-2005>
0

> <r_mmod_RMS_Derivative-OPLS-2005>
5.70110416412354

$$$$
82
                    3D
 Structure written by MMmdl.
173182  0  0  1  0            999 V2000
  -31.7550  -14.9989   20.3590 C   0  0  0  0  0  0
  -30.4305  -13.0642   20.4465 C   0  0  0  0  0  0
  -28.1833  -13.1585   18.5832 C   0  0  0  0  0  0
  -27.1725  -12.2868   18.3126 C   0  0  0  0  0  0
  -27.4376  -13.3975   19.2943 C   0  0  2  0  0  0
  -29.8034  -13.6320   21.0103 C   0  0  0  0  0  0
  -25.0143  -13.8541   20.4116 C   0  0  0  0  0  0
  -24.0213  -13.0601   20.8885 C   0  0  0  0  0  0
  -24.4833  -11.7210   20.8275 C   0  0  0  0  0  0
  -23.8218  -10.4417   21.0424 C   0  0  0  0  0  0
  -24.3171   -9.4498   21.9192 C   0  0  0  0  0  0
  -23.6162   -8.2349   22.0754 C   0  0  0  0  0  0
  -22.4180   -8.0144   21.3535 C   0  0  0  0  0  0
  -21.9579   -8.9928   20.4591 C   0  0  0  0  0  0
  -22.6574  -10.1949   20.2989 C   0  0  0  0  0  0
  -21.6883   -6.0633   22.5302 C   0  0  0  0  0  0
  -21.4028   -6.5596   23.8204 C   0  0  0  0  0  0
  -21.3654   -5.6772   24.9180 C   0  0  0  0  0  0
  -21.6044   -4.3030   24.7255 C   0  0  0  0  0  0
  -21.8827   -3.8087   23.4392 C   0  0  0  0  0  0
  -21.9211   -4.6873   22.3438 C   0  0  0  0  0  0
  -22.6589  -13.5281   21.2360 C   0  0  0  0  0  0
  -22.1689   -4.2056   21.1011 F   0  0  0  0  0  0
  -21.5612   -3.4529   25.7777 F   0  0  0  0  0  0
  -31.0351  -14.1110   20.9933 N   0  0  0  0  0  0
  -25.9897  -12.9958   19.9202 N   0  0  0  0  0  0
  -25.6675  -11.7078   20.3092 N   0  0  0  0  0  0
  -21.9752  -12.8094   22.1146 N   0  0  0  0  0  0
  -25.1413  -15.2424   20.3641 N   0  0  0  0  0  0
  -32.8759  -14.7233   20.0589 O   0  0  0  0  0  0
  -21.6693   -6.8678   21.4225 O   0  0  0  0  0  0
  -22.2107  -14.5578   20.7365 O   0  0  0  0  0  0
  -24.6722  -31.8163   23.1622 C   0  0  0  0  0  0
  -25.9378  -32.4548   23.8096 C   0  0  1  0  0  0
  -27.1116  -26.7863   20.1954 C   0  0  0  0  0  0
  -25.6014  -33.8372   24.2008 N   0  0  0  0  0  0
  -23.4836  -30.4324   21.5179 C   0  0  2  0  0  0
  -24.9116  -28.7993   20.1073 C   0  0  0  0  0  0
  -22.7684  -29.4416   22.4752 C   0  0  0  0  0  0
  -18.0329  -28.1423   22.8451 C   0  0  0  0  0  0
  -24.1491  -36.7196   23.2647 C   0  0  0  0  0  0
  -26.0598  -30.5735   21.4088 C   0  0  0  0  0  0
  -26.1041  -29.1526   20.7511 C   0  0  0  0  0  0
  -27.2056  -28.1693   20.7641 C   0  0  0  0  0  0
  -25.9060  -26.6195   19.4910 C   0  0  0  0  0  0
  -24.8465  -27.5600   19.4535 C   0  0  0  0  0  0
  -23.7193  -29.7549   20.1414 C   0  0  0  0  0  0
  -25.4147  -36.2948   24.0282 C   0  0  1  0  0  0
  -20.5942  -28.3770   23.1166 C   0  0  2  0  0  0
  -20.6804  -26.9446   22.5401 C   0  0  0  0  0  0
  -19.5782  -26.6371   21.5217 C   0  0  0  0  0  0
  -18.1959  -26.7954   22.1611 C   0  0  0  0  0  0
  -19.1585  -28.8927   23.2783 C   0  0  0  0  0  0
  -18.9494  -30.1509   23.8829 C   0  0  0  0  0  0
  -17.6485  -30.6604   24.0558 C   0  0  0  0  0  0
  -25.9126  -34.9341   23.4975 C   0  0  0  0  0  0
  -16.5375  -29.9084   23.6349 C   0  0  0  0  0  0
  -16.7308  -28.6507   23.0360 C   0  0  0  0  0  0
  -26.4574  -31.6548   25.0694 C   0  0  0  0  0  0
  -25.3653  -31.3859   26.1325 C   0  0  0  0  0  0
  -27.0495  -30.2902   24.6527 C   0  0  0  0  0  0
  -27.6039  -32.4378   25.7519 C   0  0  0  0  0  0
  -27.5570  -37.1757   24.8457 C   0  0  0  0  0  0
  -21.4349  -29.3043   22.3503 N   0  0  0  0  0  0
  -26.4270  -37.3698   23.9409 N   0  0  0  0  0  0
  -24.7622  -30.9715   22.0808 N   0  0  0  0  0  0
  -23.4213  -28.7984   23.3005 O   0  0  0  0  0  0
  -28.0281  -25.5865   20.2512 O   0  0  0  0  0  0
  -26.5733  -34.8896   22.4565 O   0  0  0  0  0  0
  -23.5778  -32.1175   23.6682 O   0  0  0  0  0  0
  -29.4867  -11.4766   19.2536 C   0  0  0  0  0  0
  -28.4169  -15.2991   20.2713 C   0  0  0  0  0  0
  -28.3203  -11.9135   20.8166 C   0  0  0  0  0  0
  -30.3405  -13.0652   18.2426 C   0  0  0  0  0  0
  -27.6919  -13.8086   21.4489 C   0  0  0  0  0  0
  -29.6804  -14.8411   18.8939 C   0  0  0  0  0  0
  -28.1050  -16.9646   20.6697 C   0  0  0  0  0  0
  -27.2406  -21.0779   19.3661 C   0  0  0  0  0  0
  -28.9707  -21.1852   20.9346 C   0  0  0  0  0  0
  -27.5880  -22.7504   19.1506 C   0  0  0  0  0  0
  -28.5551  -22.8173   21.2731 C   0  0  0  0  0  0
  -27.9506  -19.9955   20.4182 C   0  0  2  0  0  0
  -27.7092  -23.9062   20.3319 C   0  0  1  0  0  0
  -28.0695  -10.7503   21.7619 C   0  0  0  0  0  0
  -31.4099  -12.8935   17.1844 C   0  0  0  0  0  0
  -26.9936  -14.0291   22.7827 C   0  0  0  0  0  0
  -30.5648  -16.0102   18.6460 C   0  0  0  0  0  0
  -28.3368  -18.3389   20.0802 N   0  0  0  0  0  0
  -31.2207  -16.1510   19.9413 N   0  0  0  0  0  0
  -27.4932  -17.0405   21.7330 O   0  0  0  0  0  0
  -31.4472  -12.6973   20.0509 H   0  0  0  0  0  0
  -30.8618  -12.0191   20.9126 H   0  0  0  0  0  0
  -28.3666  -12.5554   17.6095 H   0  0  0  0  0  0
  -28.2586  -13.8244   17.5734 H   0  0  0  0  0  0
  -27.2312  -11.2259   18.5870 H   0  0  0  0  0  0
  -26.4118  -12.5469   17.5626 H   0  0  0  0  0  0
  -26.8153  -14.4110   19.0143 H   0  0  0  0  0  0
  -29.6730  -13.2726   22.1927 H   0  0  0  0  0  0
  -29.7896  -14.5187   21.7671 H   0  0  0  0  0  0
  -25.2242   -9.6314   22.4780 H   0  0  0  0  0  0
  -24.0007   -7.4821   22.7497 H   0  0  0  0  0  0
  -21.0567   -8.8210   19.8879 H   0  0  0  0  0  0
  -22.2875  -10.9368   19.6059 H   0  0  0  0  0  0
  -21.2040   -7.6108   23.9675 H   0  0  0  0  0  0
  -21.1471   -6.0517   25.9068 H   0  0  0  0  0  0
  -22.0610   -2.7545   23.2910 H   0  0  0  0  0  0
  -22.3648  -11.9693   22.5163 H   0  0  0  0  0  0
  -21.0482  -13.0992   22.3914 H   0  0  0  0  0  0
  -24.4536  -15.8499   20.7926 H   0  0  0  0  0  0
  -26.0479  -15.6731   20.2580 H   0  0  0  0  0  0
  -26.7454  -32.5012   23.0795 H   0  0  0  0  0  0
  -25.0096  -33.9421   25.0120 H   0  0  0  0  0  0
  -22.8014  -31.2693   21.3535 H   0  0  0  0  0  0
  -23.3766  -35.9501   23.3255 H   0  0  0  0  0  0
  -24.3553  -36.8909   22.2066 H   0  0  0  0  0  0
  -23.7220  -37.6360   23.6742 H   0  0  0  0  0  0
  -26.2587  -31.3056   20.6253 H   0  0  0  0  0  0
  -26.9150  -30.6239   22.0704 H   0  0  0  0  0  0
  -28.1076  -28.4293   21.2988 H   0  0  0  0  0  0
  -25.7378  -25.6743   18.9941 H   0  0  0  0  0  0
  -23.9406  -27.2890   18.9290 H   0  0  0  0  0  0
  -23.8947  -30.5264   19.3908 H   0  0  0  0  0  0
  -22.8168  -29.2350   19.8158 H   0  0  0  0  0  0
  -25.1335  -36.1722   25.0763 H   0  0  0  0  0  0
  -21.0023  -28.3403   24.1291 H   0  0  0  0  0  0
  -20.5701  -26.2393   23.3649 H   0  0  0  0  0  0
  -21.6667  -26.7434   22.1200 H   0  0  0  0  0  0
  -19.6943  -25.6262   21.1295 H   0  0  0  0  0  0
  -19.6732  -27.3138   20.6714 H   0  0  0  0  0  0
  -17.4230  -26.6684   21.4011 H   0  0  0  0  0  0
  -18.0352  -26.0121   22.9033 H   0  0  0  0  0  0
  -19.7970  -30.7341   24.2162 H   0  0  0  0  0  0
  -17.5042  -31.6284   24.5169 H   0  0  0  0  0  0
  -15.5371  -30.2970   23.7733 H   0  0  0  0  0  0
  -15.8700  -28.0820   22.7107 H   0  0  0  0  0  0
  -24.5829  -30.7228   25.7619 H   0  0  0  0  0  0
  -24.8852  -32.3093   26.4579 H   0  0  0  0  0  0
  -25.7822  -30.9120   27.0221 H   0  0  0  0  0  0
  -26.3194  -29.6550   24.1507 H   0  0  0  0  0  0
  -27.3954  -29.7313   25.5234 H   0  0  0  0  0  0
  -27.9158  -30.4077   24.0014 H   0  0  0  0  0  0
  -27.2591  -33.3726   26.1950 H   0  0  0  0  0  0
  -28.3931  -32.6872   25.0415 H   0  0  0  0  0  0
  -28.0619  -31.8609   26.5563 H   0  0  0  0  0  0
  -28.2548  -38.0094   24.7535 H   0  0  0  0  0  0
  -28.1109  -36.2620   24.6240 H   0  0  0  0  0  0
  -27.2293  -37.1346   25.8861 H   0  0  0  0  0  0
  -20.9625  -29.8739   21.6621 H   0  0  0  0  0  0
  -26.0114  -38.2747   24.1427 H   0  0  0  0  0  0
  -29.7793  -10.4571   19.0440 H   0  0  0  0  0  0
  -27.3466  -20.6327   18.3767 H   0  0  0  0  0  0
  -26.1683  -21.0187   19.5571 H   0  0  0  0  0  0
  -29.4659  -20.8003   21.8254 H   0  0  0  0  0  0
  -29.7695  -21.2282   20.1929 H   0  0  0  0  0  0
  -26.8615  -23.1248   18.4297 H   0  0  0  0  0  0
  -28.5335  -22.7893   18.6082 H   0  0  0  0  0  0
  -29.5056  -23.3080   21.4817 H   0  0  0  0  0  0
  -28.0601  -22.8127   22.2440 H   0  0  0  0  0  0
  -27.2389  -19.8848   21.2394 H   0  0  0  0  0  0
  -26.7078  -23.9180   20.7640 H   0  0  0  0  0  0
  -28.9857  -10.1733   21.8791 H   0  0  0  0  0  0
  -27.3038  -10.0703   21.3929 H   0  0  0  0  0  0
  -27.7755  -11.1182   22.7435 H   0  0  0  0  0  0
  -31.4587  -11.8525   16.8624 H   0  0  0  0  0  0
  -32.3873  -13.1803   17.5737 H   0  0  0  0  0  0
  -31.1869  -13.5151   16.3180 H   0  0  0  0  0  0
  -26.3325  -14.8937   22.7554 H   0  0  0  0  0  0
  -27.7326  -14.1973   23.5657 H   0  0  0  0  0  0
  -26.4077  -13.1503   23.0540 H   0  0  0  0  0  0
  -31.2705  -15.7995   17.8393 H   0  0  0  0  0  0
  -29.9916  -16.8943   18.3749 H   0  0  0  0  0  0
  -28.8526  -18.2645   19.2144 H   0  0  0  0  0  0
  -31.8941  -16.9028   19.9229 H   0  0  0  0  0  0
  1 25  1  0  0  0
  1 30  2  0  0  0
  1 89  1  0  0  0
  2  3  1  0  0  0
  2 25  1  0  0  0
  2 91  1  0  0  0
  2 92  1  0  0  0
  3  4  1  0  0  0
  3 93  1  0  0  0
  3 94  1  0  0  0
  4  5  1  0  0  0
  4 95  1  0  0  0
  4 96  1  0  0  0
  5  6  1  0  0  0
  5 26  1  0  0  0
  5 97  1  0  0  0
  6 25  1  0  0  0
  6 98  1  0  0  0
  6 99  1  0  0  0
  7  8  2  0  0  0
  7 26  1  0  0  0
  7 29  1  0  0  0
  8  9  1  0  0  0
  8 22  1  0  0  0
  9 10  1  0  0  0
  9 27  2  0  0  0
 10 11  2  0  0  0
 10 15  1  0  0  0
 11 12  1  0  0  0
 11100  1  0  0  0
 12 13  2  0  0  0
 12101  1  0  0  0
 13 14  1  0  0  0
 13 31  1  0  0  0
 14 15  2  0  0  0
 14102  1  0  0  0
 15103  1  0  0  0
 16 17  2  0  0  0
 16 21  1  0  0  0
 16 31  1  0  0  0
 17 18  1  0  0  0
 17104  1  0  0  0
 18 19  2  0  0  0
 18105  1  0  0  0
 19 20  1  0  0  0
 19 24  1  0  0  0
 20 21  2  0  0  0
 20106  1  0  0  0
 21 23  1  0  0  0
 22 28  1  0  0  0
 22 32  2  0  0  0
 26 27  1  0  0  0
 28107  1  0  0  0
 28108  1  0  0  0
 29109  1  0  0  0
 29110  1  0  0  0
 33 34  1  0  0  0
 33 66  1  0  0  0
 33 70  2  0  0  0
 34 36  1  0  0  0
 34 59  1  0  0  0
 34111  1  0  0  0
 35 44  2  0  0  0
 35 45  1  0  0  0
 35 68  1  0  0  0
 36 56  1  0  0  0
 36112  1  0  0  0
 37 39  1  0  0  0
 37 47  1  0  0  0
 37 66  1  0  0  0
 37113  1  0  0  0
 38 43  2  0  0  0
 38 46  1  0  0  0
 38 47  1  0  0  0
 39 64  1  0  0  0
 39 67  2  0  0  0
 40 52  1  0  0  0
 40 53  2  0  0  0
 40 58  1  0  0  0
 41114  1  0  0  0
 41115  1  0  0  0
 41116  1  0  0  0
 41 48  1  0  0  0
 42 43  1  0  0  0
 42 66  1  0  0  0
 42117  1  0  0  0
 42118  1  0  0  0
 43 44  1  0  0  0
 44119  1  0  0  0
 45 46  2  0  0  0
 45120  1  0  0  0
 46121  1  0  0  0
 47122  1  0  0  0
 47123  1  0  0  0
 48 56  1  0  0  0
 48 65  1  0  0  0
 48124  1  0  0  0
 49 50  1  0  0  0
 49 53  1  0  0  0
 49 64  1  0  0  0
 49125  1  0  0  0
 50 51  1  0  0  0
 50126  1  0  0  0
 50127  1  0  0  0
 51 52  1  0  0  0
 51128  1  0  0  0
 51129  1  0  0  0
 52130  1  0  0  0
 52131  1  0  0  0
 53 54  1  0  0  0
 54 55  2  0  0  0
 54132  1  0  0  0
 55 57  1  0  0  0
 55133  1  0  0  0
 56 69  2  0  0  0
 57 58  2  0  0  0
 57134  1  0  0  0
 58135  1  0  0  0
 59 60  1  0  0  0
 59 61  1  0  0  0
 59 62  1  0  0  0
 60136  1  0  0  0
 60137  1  0  0  0
 60138  1  0  0  0
 61139  1  0  0  0
 61140  1  0  0  0
 61141  1  0  0  0
 62142  1  0  0  0
 62143  1  0  0  0
 62144  1  0  0  0
 63 65  1  0  0  0
 63145  1  0  0  0
 63146  1  0  0  0
 63147  1  0  0  0
 64148  1  0  0  0
 65149  1  0  0  0
 68 83  1  0  0  0
 71 73  2  0  0  0
 71 74  1  0  0  0
 71150  1  0  0  0
 72 75  2  0  0  0
 72 76  1  0  0  0
 72 77  1  0  0  0
 73 75  1  0  0  0
 73 84  1  0  0  0
 74 76  2  0  0  0
 74 85  1  0  0  0
 75 86  1  0  0  0
 76 87  1  0  0  0
 77 88  1  0  0  0
 77 90  2  0  0  0
 78 80  1  0  0  0
 78 82  1  0  0  0
 78151  1  0  0  0
 78152  1  0  0  0
 79 81  1  0  0  0
 79 82  1  0  0  0
 79153  1  0  0  0
 79154  1  0  0  0
 80 83  1  0  0  0
 80155  1  0  0  0
 80156  1  0  0  0
 81 83  1  0  0  0
 81157  1  0  0  0
 81158  1  0  0  0
 82 88  1  0  0  0
 82159  1  0  0  0
 83160  1  0  0  0
 84161  1  0  0  0
 84162  1  0  0  0
 84163  1  0  0  0
 85164  1  0  0  0
 85165  1  0  0  0
 85166  1  0  0  0
 86167  1  0  0  0
 86168  1  0  0  0
 86169  1  0  0  0
 87 89  1  0  0  0
 87170  1  0  0  0
 87171  1  0  0  0
 88172  1  0  0  0
 89173  1  0  0  0
M  ISO  4   1 100  68 101  83 101  89 100
M  END
> <chiral flag>
0

> <version>
0

> <s_m_source_file>
/data/baiqing/PycharmProjects/Reinvent-master-3.2/result/LINK_invent/BTK/process_docking_weight1_custom_sum_contain_oxygen_bond_distance_aromatic_linkinvent_7_9_3/rearranged_h_0160.sdf

> <i_m_source_file_index>
83

> <r_mmod_Potential_Energy-OPLS-2005>
17364.98828125

> <r_mmod_Stretch_Energy-OPLS-2005>
9872.8779296875

> <r_mmod_Bend_Energy-OPLS-2005>
2049.93896484375

> <r_mmod_Torsional_Energy-OPLS-2005>
407.663299560547

> <r_mmod_Improper_Torsional_Energy-OPLS-2005>
25.2223377227783

> <r_mmod_Van_der_Waal_Energy-OPLS-2005>
4153.044921875

> <r_mmod_Electrostatic_Energy-OPLS-2005>
-464.311706542969

> <r_mmod_Solvation_Energy-OPLS-2005>
-232.505813598633

> <b_mmod_Minimization_Converged-OPLS-2005>
0

> <r_mmod_RMS_Derivative-OPLS-2005>
4.37174510955811

$$$$
83
                    3D
 Structure written by MMmdl.
169178  0  0  1  0            999 V2000
  -30.5898  -14.8725   20.3499 C   0  0  0  0  0  0
  -30.4398  -12.5168   19.4803 C   0  0  0  0  0  0
  -29.5158  -12.4404   18.2438 C   0  0  0  0  0  0
  -28.0357  -12.2982   18.6612 C   0  0  0  0  0  0
  -27.6234  -13.2212   19.8420 C   0  0  2  0  0  0
  -28.6853  -13.2667   20.9606 C   0  0  0  0  0  0
  -25.2483  -13.8137   20.5785 C   0  0  0  0  0  0
  -24.1758  -13.0392   20.9244 C   0  0  0  0  0  0
  -24.6349  -11.6875   20.8804 C   0  0  0  0  0  0
  -23.9030  -10.4268   21.0447 C   0  0  0  0  0  0
  -24.3591   -9.4188   21.9216 C   0  0  0  0  0  0
  -23.6266   -8.2229   22.0775 C   0  0  0  0  0  0
  -22.4255   -8.0266   21.3552 C   0  0  0  0  0  0
  -21.9887   -9.0243   20.4661 C   0  0  0  0  0  0
  -22.7213  -10.2121   20.3083 C   0  0  0  0  0  0
  -21.6842   -6.0731   22.5280 C   0  0  0  0  0  0
  -21.4002   -6.5637   23.8212 C   0  0  0  0  0  0
  -21.3657   -5.6795   24.9177 C   0  0  0  0  0  0
  -21.6044   -4.3056   24.7227 C   0  0  0  0  0  0
  -21.8822   -3.8146   23.4348 C   0  0  0  0  0  0
  -21.9189   -4.6961   22.3403 C   0  0  0  0  0  0
  -22.7791  -13.5213   21.1857 C   0  0  0  0  0  0
  -22.1666   -4.2149   21.0982 F   0  0  0  0  0  0
  -21.5623   -3.4546   25.7741 F   0  0  0  0  0  0
  -29.9614  -13.6334   20.3320 N   0  0  0  0  0  0
  -26.2878  -12.9295   20.3387 N   0  0  0  0  0  0
  -25.9284  -11.6458   20.5864 N   0  0  0  0  0  0
  -22.0412  -12.8233   22.0410 N   0  0  0  0  0  0
  -25.4166  -15.1868   20.4239 N   0  0  0  0  0  0
  -31.8217  -14.8991   20.2647 O   0  0  0  0  0  0
  -21.6622   -6.8868   21.4242 O   0  0  0  0  0  0
  -22.3515  -14.5528   20.6692 O   0  0  0  0  0  0
  -24.6394  -31.8527   23.1969 C   0  0  0  0  0  0
  -25.9195  -32.4741   23.8322 C   0  0  1  0  0  0
  -27.2002  -27.1856   20.1265 C   0  0  0  0  0  0
  -25.5964  -33.8546   24.2233 N   0  0  0  0  0  0
  -23.4385  -30.4789   21.5437 C   0  0  2  0  0  0
  -24.8843  -28.9317   20.1064 C   0  0  0  0  0  0
  -22.7545  -29.4593   22.4888 C   0  0  0  0  0  0
  -18.0303  -28.1406   22.8493 C   0  0  0  0  0  0
  -24.1496  -36.7270   23.2640 C   0  0  0  0  0  0
  -25.9960  -30.7379   21.3958 C   0  0  0  0  0  0
  -26.0634  -29.3581   20.7315 C   0  0  0  0  0  0
  -27.2221  -28.4977   20.7381 C   0  0  0  0  0  0
  -25.9993  -26.8803   19.4345 C   0  0  0  0  0  0
  -24.8628  -27.7025   19.4449 C   0  0  0  0  0  0
  -23.6597  -29.8251   20.1577 C   0  0  0  0  0  0
  -25.4129  -36.3057   24.0313 C   0  0  1  0  0  0
  -20.5915  -28.3730   23.1252 C   0  0  2  0  0  0
  -20.6798  -26.9443   22.5407 C   0  0  0  0  0  0
  -19.5761  -26.6396   21.5228 C   0  0  0  0  0  0
  -18.1940  -26.7945   22.1633 C   0  0  0  0  0  0
  -19.1561  -28.8884   23.2862 C   0  0  0  0  0  0
  -18.9474  -30.1483   23.8886 C   0  0  0  0  0  0
  -17.6473  -30.6605   24.0567 C   0  0  0  0  0  0
  -25.9077  -34.9431   23.5074 C   0  0  0  0  0  0
  -16.5364  -29.9101   23.6343 C   0  0  0  0  0  0
  -16.7286  -28.6515   23.0367 C   0  0  0  0  0  0
  -26.4522  -31.6586   25.0739 C   0  0  0  0  0  0
  -25.3699  -31.3752   26.1418 C   0  0  0  0  0  0
  -27.0407  -30.2993   24.6305 C   0  0  0  0  0  0
  -27.6051  -32.4348   25.7531 C   0  0  0  0  0  0
  -27.5581  -37.1798   24.8466 C   0  0  0  0  0  0
  -21.4245  -29.3060   22.3628 N   0  0  0  0  0  0
  -26.4296  -37.3767   23.9404 N   0  0  0  0  0  0
  -24.7110  -31.0420   22.0999 N   0  0  0  0  0  0
  -23.4213  -28.8120   23.2998 O   0  0  0  0  0  0
  -28.2215  -26.1738   20.2181 O   0  0  0  0  0  0
  -26.5654  -34.8912   22.4645 O   0  0  0  0  0  0
  -23.5522  -32.1390   23.7208 O   0  0  0  0  0  0
  -29.7204  -21.3782   21.1879 C   0  0  0  0  0  0
  -28.1965  -20.7723   19.4486 C   0  0  0  0  0  0
  -29.3819  -22.7915   21.0104 C   0  0  0  0  0  0
  -27.8417  -22.1706   19.2843 C   0  0  0  0  0  0
  -29.1143  -20.3010   20.4421 C   0  0  0  0  0  0
  -28.4188  -23.2521   20.0506 C   0  0  0  0  0  0
  -30.0203  -17.0114   17.9352 C   0  0  0  0  0  0
  -30.7753  -17.9377   18.8756 C   0  0  0  0  0  0
  -29.1611  -16.1355   18.8514 C   0  0  0  0  0  0
  -30.2714  -17.5638   20.2758 C   0  0  1  0  0  0
  -30.7407  -21.0037   22.2564 C   0  0  0  0  0  0
  -27.5266  -19.7344   18.5522 C   0  0  0  0  0  0
  -30.0316  -23.8256   21.9196 C   0  0  0  0  0  0
  -26.7405  -22.5195   18.2704 C   0  0  0  0  0  0
  -29.2203  -18.7092   20.8412 C   0  0  0  0  0  0
  -27.7906  -24.7533   19.8384 C   0  0  0  0  0  0
  -29.8377  -16.0645   20.1578 N   0  0  0  0  0  0
  -31.4732  -12.6625   19.1608 H   0  0  0  0  0  0
  -30.4250  -11.5779   20.0356 H   0  0  0  0  0  0
  -29.8007  -11.5928   17.6188 H   0  0  0  0  0  0
  -29.6595  -13.3130   17.6104 H   0  0  0  0  0  0
  -27.8849  -11.2570   18.9467 H   0  0  0  0  0  0
  -27.3850  -12.4694   17.8030 H   0  0  0  0  0  0
  -27.5422  -14.2155   19.4255 H   0  0  0  0  0  0
  -28.7622  -12.3091   21.4764 H   0  0  0  0  0  0
  -28.4109  -14.0079   21.7135 H   0  0  0  0  0  0
  -25.2730   -9.5672   22.4799 H   0  0  0  0  0  0
  -23.9966   -7.4629   22.7508 H   0  0  0  0  0  0
  -21.0817   -8.8773   19.8968 H   0  0  0  0  0  0
  -22.3678  -10.9672   19.6205 H   0  0  0  0  0  0
  -21.1993   -7.6145   23.9714 H   0  0  0  0  0  0
  -21.1472   -6.0526   25.9078 H   0  0  0  0  0  0
  -22.0600   -2.7609   23.2851 H   0  0  0  0  0  0
  -22.3986  -11.9871   22.4787 H   0  0  0  0  0  0
  -21.1061  -13.1332   22.2642 H   0  0  0  0  0  0
  -24.6486  -15.8381   20.5426 H   0  0  0  0  0  0
  -26.2807  -15.6384   20.1531 H   0  0  0  0  0  0
  -26.7258  -32.5355   23.1050 H   0  0  0  0  0  0
  -25.0101  -33.9686   25.0371 H   0  0  0  0  0  0
  -22.7387  -31.3045   21.3996 H   0  0  0  0  0  0
  -23.3767  -35.9595   23.3299 H   0  0  0  0  0  0
  -24.3581  -36.8912   22.2058 H   0  0  0  0  0  0
  -23.7247  -37.6460   23.6681 H   0  0  0  0  0  0
  -26.1528  -31.4971   20.6279 H   0  0  0  0  0  0
  -26.8670  -30.7801   22.0385 H   0  0  0  0  0  0
  -28.1114  -28.8115   21.2666 H   0  0  0  0  0  0
  -25.8643  -25.9639   18.8832 H   0  0  0  0  0  0
  -23.9692  -27.3763   18.9300 H   0  0  0  0  0  0
  -23.7893  -30.6062   19.4079 H   0  0  0  0  0  0
  -22.7752  -29.2661   19.8462 H   0  0  0  0  0  0
  -25.1317  -36.1898   25.0805 H   0  0  0  0  0  0
  -21.0004  -28.3323   24.1374 H   0  0  0  0  0  0
  -20.5738  -26.2340   23.3618 H   0  0  0  0  0  0
  -21.6657  -26.7483   22.1182 H   0  0  0  0  0  0
  -19.6929  -25.6305   21.1264 H   0  0  0  0  0  0
  -19.6691  -27.3198   20.6750 H   0  0  0  0  0  0
  -17.4213  -26.6707   21.4028 H   0  0  0  0  0  0
  -18.0322  -26.0091   22.9029 H   0  0  0  0  0  0
  -19.7948  -30.7307   24.2245 H   0  0  0  0  0  0
  -17.5025  -31.6280   24.5176 H   0  0  0  0  0  0
  -15.5363  -30.3002   23.7676 H   0  0  0  0  0  0
  -15.8682  -28.0831   22.7098 H   0  0  0  0  0  0
  -24.5896  -30.7094   25.7714 H   0  0  0  0  0  0
  -24.8861  -32.2927   26.4776 H   0  0  0  0  0  0
  -25.7965  -30.8958   27.0239 H   0  0  0  0  0  0
  -26.3040  -29.6706   24.1292 H   0  0  0  0  0  0
  -27.4025  -29.7291   25.4873 H   0  0  0  0  0  0
  -27.8940  -30.4254   23.9637 H   0  0  0  0  0  0
  -27.2647  -33.3670   26.2050 H   0  0  0  0  0  0
  -28.3895  -32.6878   25.0385 H   0  0  0  0  0  0
  -28.0684  -31.8512   26.5496 H   0  0  0  0  0  0
  -28.2583  -38.0111   24.7530 H   0  0  0  0  0  0
  -28.1094  -36.2636   24.6284 H   0  0  0  0  0  0
  -27.2288  -37.1440   25.8866 H   0  0  0  0  0  0
  -20.9443  -29.8780   21.6826 H   0  0  0  0  0  0
  -26.0162  -38.2835   24.1408 H   0  0  0  0  0  0
  -30.7269  -16.3966   17.3739 H   0  0  0  0  0  0
  -29.4165  -17.5483   17.2028 H   0  0  0  0  0  0
  -30.6245  -18.9888   18.6298 H   0  0  0  0  0  0
  -31.8463  -17.7431   18.7986 H   0  0  0  0  0  0
  -29.0213  -15.1878   18.3467 H   0  0  0  0  0  0
  -28.1662  -16.5602   18.9889 H   0  0  0  0  0  0
  -31.1391  -17.5993   20.9364 H   0  0  0  0  0  0
  -31.5795  -21.6995   22.2712 H   0  0  0  0  0  0
  -31.1733  -20.0191   22.0832 H   0  0  0  0  0  0
  -30.2761  -21.0032   23.2424 H   0  0  0  0  0  0
  -26.5092  -19.5290   18.8869 H   0  0  0  0  0  0
  -28.0605  -18.7933   18.5340 H   0  0  0  0  0  0
  -27.5010  -20.0625   17.5130 H   0  0  0  0  0  0
  -29.9528  -23.5228   22.9635 H   0  0  0  0  0  0
  -29.5662  -24.8057   21.8421 H   0  0  0  0  0  0
  -31.0861  -23.9419   21.6713 H   0  0  0  0  0  0
  -26.0931  -21.6885   18.0009 H   0  0  0  0  0  0
  -27.1781  -22.9083   17.3508 H   0  0  0  0  0  0
  -26.0435  -23.2608   18.6577 H   0  0  0  0  0  0
  -28.2183  -18.3057   20.7012 H   0  0  0  0  0  0
  -29.3070  -18.6805   21.9273 H   0  0  0  0  0  0
  -26.8042  -24.6200   20.2842 H   0  0  0  0  0  0
  -27.6796  -24.8366   18.7581 H   0  0  0  0  0  0
  1 25  1  0  0  0
  1 30  2  0  0  0
  1 87  1  0  0  0
  2  3  1  0  0  0
  2 25  1  0  0  0
  2 88  1  0  0  0
  2 89  1  0  0  0
  3  4  1  0  0  0
  3 90  1  0  0  0
  3 91  1  0  0  0
  4  5  1  0  0  0
  4 92  1  0  0  0
  4 93  1  0  0  0
  5  6  1  0  0  0
  5 26  1  0  0  0
  5 94  1  0  0  0
  6 25  1  0  0  0
  6 95  1  0  0  0
  6 96  1  0  0  0
  7  8  2  0  0  0
  7 26  1  0  0  0
  7 29  1  0  0  0
  8  9  1  0  0  0
  8 22  1  0  0  0
  9 10  1  0  0  0
  9 27  2  0  0  0
 10 11  2  0  0  0
 10 15  1  0  0  0
 11 12  1  0  0  0
 11 97  1  0  0  0
 12 13  2  0  0  0
 12 98  1  0  0  0
 13 14  1  0  0  0
 13 31  1  0  0  0
 14 15  2  0  0  0
 14 99  1  0  0  0
 15100  1  0  0  0
 16 17  2  0  0  0
 16 21  1  0  0  0
 16 31  1  0  0  0
 17 18  1  0  0  0
 17101  1  0  0  0
 18 19  2  0  0  0
 18102  1  0  0  0
 19 20  1  0  0  0
 19 24  1  0  0  0
 20 21  2  0  0  0
 20103  1  0  0  0
 21 23  1  0  0  0
 22 28  1  0  0  0
 22 32  2  0  0  0
 26 27  1  0  0  0
 28104  1  0  0  0
 28105  1  0  0  0
 29106  1  0  0  0
 29107  1  0  0  0
 33 34  1  0  0  0
 33 66  1  0  0  0
 33 70  2  0  0  0
 34 36  1  0  0  0
 34 59  1  0  0  0
 34108  1  0  0  0
 35 44  2  0  0  0
 35 45  1  0  0  0
 35 68  1  0  0  0
 36 56  1  0  0  0
 36109  1  0  0  0
 37 39  1  0  0  0
 37 47  1  0  0  0
 37 66  1  0  0  0
 37110  1  0  0  0
 38 43  2  0  0  0
 38 46  1  0  0  0
 38 47  1  0  0  0
 39 64  1  0  0  0
 39 67  2  0  0  0
 40 52  1  0  0  0
 40 53  2  0  0  0
 40 58  1  0  0  0
 41111  1  0  0  0
 41112  1  0  0  0
 41113  1  0  0  0
 41 48  1  0  0  0
 42 43  1  0  0  0
 42 66  1  0  0  0
 42114  1  0  0  0
 42115  1  0  0  0
 43 44  1  0  0  0
 44116  1  0  0  0
 45 46  2  0  0  0
 45117  1  0  0  0
 46118  1  0  0  0
 47119  1  0  0  0
 47120  1  0  0  0
 48 56  1  0  0  0
 48 65  1  0  0  0
 48121  1  0  0  0
 49 50  1  0  0  0
 49 53  1  0  0  0
 49 64  1  0  0  0
 49122  1  0  0  0
 50 51  1  0  0  0
 50123  1  0  0  0
 50124  1  0  0  0
 51 52  1  0  0  0
 51125  1  0  0  0
 51126  1  0  0  0
 52127  1  0  0  0
 52128  1  0  0  0
 53 54  1  0  0  0
 54 55  2  0  0  0
 54129  1  0  0  0
 55 57  1  0  0  0
 55130  1  0  0  0
 56 69  2  0  0  0
 57 58  2  0  0  0
 57131  1  0  0  0
 58132  1  0  0  0
 59 60  1  0  0  0
 59 61  1  0  0  0
 59 62  1  0  0  0
 60133  1  0  0  0
 60134  1  0  0  0
 60135  1  0  0  0
 61136  1  0  0  0
 61137  1  0  0  0
 61138  1  0  0  0
 62139  1  0  0  0
 62140  1  0  0  0
 62141  1  0  0  0
 63 65  1  0  0  0
 63142  1  0  0  0
 63143  1  0  0  0
 63144  1  0  0  0
 64145  1  0  0  0
 65146  1  0  0  0
 68 86  1  0  0  0
 71 73  2  0  0  0
 71 75  1  0  0  0
 71 81  1  0  0  0
 72 74  1  0  0  0
 72 75  2  0  0  0
 72 82  1  0  0  0
 73 76  1  0  0  0
 73 83  1  0  0  0
 74 76  2  0  0  0
 74 84  1  0  0  0
 75 85  1  0  0  0
 76 86  1  0  0  0
 77 78  1  0  0  0
 77 79  1  0  0  0
 77147  1  0  0  0
 77148  1  0  0  0
 78 80  1  0  0  0
 78149  1  0  0  0
 78150  1  0  0  0
 79 87  1  0  0  0
 79151  1  0  0  0
 79152  1  0  0  0
 80 85  1  0  0  0
 80 87  1  0  0  0
 80153  1  0  0  0
 81154  1  0  0  0
 81155  1  0  0  0
 81156  1  0  0  0
 82157  1  0  0  0
 82158  1  0  0  0
 82159  1  0  0  0
 83160  1  0  0  0
 83161  1  0  0  0
 83162  1  0  0  0
 84163  1  0  0  0
 84164  1  0  0  0
 84165  1  0  0  0
 85166  1  0  0  0
 85167  1  0  0  0
 86168  1  0  0  0
 86169  1  0  0  0
M  ISO  4   1 100  68 101  86 101  87 100
M  END
> <chiral flag>
0

> <version>
0

> <s_m_source_file>
/data/baiqing/PycharmProjects/Reinvent-master-3.2/result/LINK_invent/BTK/process_docking_weight1_custom_sum_contain_oxygen_bond_distance_aromatic_linkinvent_7_9_3/rearranged_h_0160.sdf

> <i_m_source_file_index>
84

> <r_mmod_Potential_Energy-OPLS-2005>
735.886657714844

> <r_mmod_Stretch_Energy-OPLS-2005>
203.672607421875

> <r_mmod_Bend_Energy-OPLS-2005>
295.059143066406

> <r_mmod_Torsional_Energy-OPLS-2005>
372.187744140625

> <r_mmod_Improper_Torsional_Energy-OPLS-2005>
14.8586225509644

> <r_mmod_Van_der_Waal_Energy-OPLS-2005>
172.418579101562

> <r_mmod_Electrostatic_Energy-OPLS-2005>
-288.34521484375

> <r_mmod_Solvation_Energy-OPLS-2005>
-197.678344726562

> <b_mmod_Minimization_Converged-OPLS-2005>
0

> <r_mmod_RMS_Derivative-OPLS-2005>
1.33942377567291

$$$$
84
                    3D
 Structure written by MMmdl.
163172  0  0  1  0            999 V2000
  -30.6967  -14.6338   20.5127 C   0  0  0  0  0  0
  -30.4216  -12.3994   19.4547 C   0  0  0  0  0  0
  -29.4987  -12.5059   18.2229 C   0  0  0  0  0  0
  -28.0225  -12.3530   18.6365 C   0  0  0  0  0  0
  -27.6498  -13.2273   19.8645 C   0  0  2  0  0  0
  -28.6996  -13.0956   20.9898 C   0  0  0  0  0  0
  -25.2536  -13.8199   20.5711 C   0  0  0  0  0  0
  -24.1813  -13.0446   20.9204 C   0  0  0  0  0  0
  -24.6399  -11.6922   20.8753 C   0  0  0  0  0  0
  -23.9073  -10.4298   21.0409 C   0  0  0  0  0  0
  -24.3620   -9.4211   21.9186 C   0  0  0  0  0  0
  -23.6293   -8.2246   22.0754 C   0  0  0  0  0  0
  -22.4277   -8.0284   21.3545 C   0  0  0  0  0  0
  -21.9916   -9.0258   20.4645 C   0  0  0  0  0  0
  -22.7247  -10.2138   20.3056 C   0  0  0  0  0  0
  -21.6854   -6.0736   22.5278 C   0  0  0  0  0  0
  -21.4014   -6.5639   23.8212 C   0  0  0  0  0  0
  -21.3661   -5.6792   24.9174 C   0  0  0  0  0  0
  -21.6045   -4.3055   24.7226 C   0  0  0  0  0  0
  -21.8819   -3.8147   23.4346 C   0  0  0  0  0  0
  -21.9194   -4.6963   22.3402 C   0  0  0  0  0  0
  -22.7835  -13.5226   21.1857 C   0  0  0  0  0  0
  -22.1662   -4.2150   21.0980 F   0  0  0  0  0  0
  -21.5630   -3.4538   25.7738 F   0  0  0  0  0  0
  -30.0036  -13.4487   20.4118 N   0  0  0  0  0  0
  -26.2981  -12.9405   20.3366 N   0  0  0  0  0  0
  -25.9338  -11.6548   20.5797 N   0  0  0  0  0  0
  -22.0479  -12.8211   22.0409 N   0  0  0  0  0  0
  -25.4220  -15.1917   20.4107 N   0  0  0  0  0  0
  -31.8697  -14.6823   20.1306 O   0  0  0  0  0  0
  -21.6642   -6.8881   21.4240 O   0  0  0  0  0  0
  -22.3520  -14.5537   20.6716 O   0  0  0  0  0  0
  -24.6293  -31.8624   23.2090 C   0  0  0  0  0  0
  -25.9142  -32.4791   23.8402 C   0  0  1  0  0  0
  -27.2003  -27.3035   20.0983 C   0  0  0  0  0  0
  -25.5960  -33.8593   24.2317 N   0  0  0  0  0  0
  -23.4217  -30.4946   21.5533 C   0  0  2  0  0  0
  -24.8633  -28.9692   20.1052 C   0  0  0  0  0  0
  -22.7492  -29.4647   22.4934 C   0  0  0  0  0  0
  -18.0293  -28.1387   22.8487 C   0  0  0  0  0  0
  -24.1489  -36.7290   23.2632 C   0  0  0  0  0  0
  -25.9706  -30.7848   21.3901 C   0  0  0  0  0  0
  -26.0388  -29.4173   20.7217 C   0  0  0  0  0  0
  -27.2106  -28.5946   20.7191 C   0  0  0  0  0  0
  -26.0045  -26.9531   19.4152 C   0  0  0  0  0  0
  -24.8492  -27.7410   19.4437 C   0  0  0  0  0  0
  -23.6352  -29.8501   20.1630 C   0  0  0  0  0  0
  -25.4111  -36.3088   24.0331 C   0  0  1  0  0  0
  -20.5897  -28.3699   23.1267 C   0  0  2  0  0  0
  -20.6783  -26.9422   22.5398 C   0  0  0  0  0  0
  -19.5753  -26.6387   21.5207 C   0  0  0  0  0  0
  -18.1935  -26.7930   22.1623 C   0  0  0  0  0  0
  -19.1546  -28.8859   23.2873 C   0  0  0  0  0  0
  -18.9466  -30.1459   23.8893 C   0  0  0  0  0  0
  -17.6466  -30.6587   24.0563 C   0  0  0  0  0  0
  -25.9059  -34.9456   23.5116 C   0  0  0  0  0  0
  -16.5358  -29.9085   23.6331 C   0  0  0  0  0  0
  -16.7280  -28.6502   23.0357 C   0  0  0  0  0  0
  -26.4514  -31.6594   25.0768 C   0  0  0  0  0  0
  -25.3739  -31.3731   26.1487 C   0  0  0  0  0  0
  -27.0359  -30.3009   24.6244 C   0  0  0  0  0  0
  -27.6074  -32.4328   25.7538 C   0  0  0  0  0  0
  -27.5587  -37.1793   24.8456 C   0  0  0  0  0  0
  -21.4205  -29.3056   22.3666 N   0  0  0  0  0  0
  -26.4284  -37.3789   23.9424 N   0  0  0  0  0  0
  -24.6929  -31.0626   22.1064 N   0  0  0  0  0  0
  -23.4210  -28.8157   23.2995 O   0  0  0  0  0  0
  -28.2554  -26.3615   20.1897 O   0  0  0  0  0  0
  -26.5612  -34.8916   22.4673 O   0  0  0  0  0  0
  -23.5450  -32.1442   23.7398 O   0  0  0  0  0  0
  -29.9386  -23.3880   20.0741 C   0  0  0  0  0  0
  -28.3721  -21.1711   20.7841 C   0  0  0  0  0  0
  -30.5160  -22.0824   20.1768 C   0  0  0  0  0  0
  -28.5626  -23.6188   20.3130 C   0  0  0  0  0  0
  -29.7370  -20.9340   20.5136 C   0  0  0  0  0  0
  -27.7835  -22.4740   20.6877 C   0  0  0  0  0  0
  -29.2298  -17.7608   21.9104 C   0  0  0  0  0  0
  -29.1088  -16.2250   21.7290 C   0  0  0  0  0  0
  -30.4834  -17.1054   20.0190 C   0  0  0  0  0  0
  -29.6281  -18.3079   20.5401 C   0  0  2  0  0  0
  -31.9972  -21.9253   19.8762 C   0  0  0  0  0  0
  -25.6262  -21.5753   21.3252 C   0  0  0  0  0  0
  -27.8180  -24.9583   19.9395 C   0  0  0  0  0  0
  -30.0094  -15.8287   20.6380 N   0  0  0  0  0  0
  -30.3280  -19.6275   20.5651 N   0  0  0  0  0  0
  -26.4322  -22.6707   20.9061 O   0  0  0  0  0  0
  -31.4641  -12.4935   19.1468 H   0  0  0  0  0  0
  -30.3416  -11.4121   19.9122 H   0  0  0  0  0  0
  -29.7603  -11.7447   17.4866 H   0  0  0  0  0  0
  -29.6461  -13.4699   17.7334 H   0  0  0  0  0  0
  -27.8551  -11.3006   18.8689 H   0  0  0  0  0  0
  -27.3682  -12.5854   17.7956 H   0  0  0  0  0  0
  -27.6640  -14.2623   19.5221 H   0  0  0  0  0  0
  -28.7214  -12.0737   21.3713 H   0  0  0  0  0  0
  -28.4452  -13.7143   21.8472 H   0  0  0  0  0  0
  -25.2761   -9.5688   22.4765 H   0  0  0  0  0  0
  -24.0003   -7.4638   22.7474 H   0  0  0  0  0  0
  -21.0849   -8.8779   19.8946 H   0  0  0  0  0  0
  -22.3706  -10.9679   19.6168 H   0  0  0  0  0  0
  -21.2003   -7.6147   23.9715 H   0  0  0  0  0  0
  -21.1485   -6.0523   25.9077 H   0  0  0  0  0  0
  -22.0595   -2.7609   23.2848 H   0  0  0  0  0  0
  -22.4101  -11.9869   22.4789 H   0  0  0  0  0  0
  -21.1098  -13.1235   22.2624 H   0  0  0  0  0  0
  -24.6545  -15.8457   20.5178 H   0  0  0  0  0  0
  -26.2743  -15.6303   20.0862 H   0  0  0  0  0  0
  -26.7209  -32.5450   23.1147 H   0  0  0  0  0  0
  -25.0126  -33.9748   25.0473 H   0  0  0  0  0  0
  -22.7162  -31.3176   21.4201 H   0  0  0  0  0  0
  -23.3765  -35.9605   23.3267 H   0  0  0  0  0  0
  -24.3591  -36.8938   22.2053 H   0  0  0  0  0  0
  -23.7215  -37.6473   23.6669 H   0  0  0  0  0  0
  -26.1139  -31.5523   20.6282 H   0  0  0  0  0  0
  -26.8473  -30.8220   22.0250 H   0  0  0  0  0  0
  -28.1013  -28.9245   21.2354 H   0  0  0  0  0  0
  -25.8929  -26.0361   18.8583 H   0  0  0  0  0  0
  -23.9554  -27.3994   18.9396 H   0  0  0  0  0  0
  -23.7578  -30.6371   19.4179 H   0  0  0  0  0  0
  -22.7528  -29.2875   19.8522 H   0  0  0  0  0  0
  -25.1279  -36.1943   25.0821 H   0  0  0  0  0  0
  -20.9988  -28.3274   24.1387 H   0  0  0  0  0  0
  -20.5694  -26.2309   23.3600 H   0  0  0  0  0  0
  -21.6650  -26.7453   22.1187 H   0  0  0  0  0  0
  -19.6915  -25.6298   21.1239 H   0  0  0  0  0  0
  -19.6684  -27.3193   20.6734 H   0  0  0  0  0  0
  -17.4202  -26.6681   21.4028 H   0  0  0  0  0  0
  -18.0338  -26.0073   22.9021 H   0  0  0  0  0  0
  -19.7941  -30.7279   24.2263 H   0  0  0  0  0  0
  -17.5019  -31.6267   24.5167 H   0  0  0  0  0  0
  -15.5358  -30.2987   23.7656 H   0  0  0  0  0  0
  -15.8680  -28.0818   22.7076 H   0  0  0  0  0  0
  -24.5924  -30.7069   25.7815 H   0  0  0  0  0  0
  -24.8918  -32.2893   26.4906 H   0  0  0  0  0  0
  -25.8060  -30.8917   27.0268 H   0  0  0  0  0  0
  -26.2943  -29.6762   24.1249 H   0  0  0  0  0  0
  -27.4018  -29.7266   25.4766 H   0  0  0  0  0  0
  -27.8837  -30.4283   23.9510 H   0  0  0  0  0  0
  -27.2692  -33.3638   26.2099 H   0  0  0  0  0  0
  -28.3892  -32.6869   25.0368 H   0  0  0  0  0  0
  -28.0732  -31.8461   26.5466 H   0  0  0  0  0  0
  -28.2560  -38.0135   24.7572 H   0  0  0  0  0  0
  -28.1129  -36.2669   24.6194 H   0  0  0  0  0  0
  -27.2318  -37.1333   25.8860 H   0  0  0  0  0  0
  -20.9380  -29.8808   21.6902 H   0  0  0  0  0  0
  -26.0162  -38.2853   24.1467 H   0  0  0  0  0  0
  -30.5501  -24.2203   19.7560 H   0  0  0  0  0  0
  -27.7717  -20.3161   21.0507 H   0  0  0  0  0  0
  -30.0168  -17.9707   22.6370 H   0  0  0  0  0  0
  -28.3098  -18.2070   22.2904 H   0  0  0  0  0  0
  -28.0871  -15.9698   21.4483 H   0  0  0  0  0  0
  -29.3428  -15.7043   22.6591 H   0  0  0  0  0  0
  -31.5300  -17.2510   20.2942 H   0  0  0  0  0  0
  -30.4465  -17.0389   18.9305 H   0  0  0  0  0  0
  -28.7339  -18.3880   19.9186 H   0  0  0  0  0  0
  -32.4643  -22.8819   19.6400 H   0  0  0  0  0  0
  -32.1451  -21.2626   19.0230 H   0  0  0  0  0  0
  -32.5183  -21.5037   20.7361 H   0  0  0  0  0  0
  -24.6048  -21.9206   21.4843 H   0  0  0  0  0  0
  -25.9791  -21.1550   22.2680 H   0  0  0  0  0  0
  -25.5904  -20.7908   20.5682 H   0  0  0  0  0  0
  -26.8572  -24.8674   20.4413 H   0  0  0  0  0  0
  -27.6448  -24.8597   18.8671 H   0  0  0  0  0  0
  -31.3239  -19.5913   20.3691 H   0  0  0  0  0  0
  1 25  1  0  0  0
  1 30  2  0  0  0
  1 84  1  0  0  0
  2  3  1  0  0  0
  2 25  1  0  0  0
  2 87  1  0  0  0
  2 88  1  0  0  0
  3  4  1  0  0  0
  3 89  1  0  0  0
  3 90  1  0  0  0
  4  5  1  0  0  0
  4 91  1  0  0  0
  4 92  1  0  0  0
  5  6  1  0  0  0
  5 26  1  0  0  0
  5 93  1  0  0  0
  6 25  1  0  0  0
  6 94  1  0  0  0
  6 95  1  0  0  0
  7  8  2  0  0  0
  7 26  1  0  0  0
  7 29  1  0  0  0
  8  9  1  0  0  0
  8 22  1  0  0  0
  9 10  1  0  0  0
  9 27  2  0  0  0
 10 11  2  0  0  0
 10 15  1  0  0  0
 11 12  1  0  0  0
 11 96  1  0  0  0
 12 13  2  0  0  0
 12 97  1  0  0  0
 13 14  1  0  0  0
 13 31  1  0  0  0
 14 15  2  0  0  0
 14 98  1  0  0  0
 15 99  1  0  0  0
 16 17  2  0  0  0
 16 21  1  0  0  0
 16 31  1  0  0  0
 17 18  1  0  0  0
 17100  1  0  0  0
 18 19  2  0  0  0
 18101  1  0  0  0
 19 20  1  0  0  0
 19 24  1  0  0  0
 20 21  2  0  0  0
 20102  1  0  0  0
 21 23  1  0  0  0
 22 28  1  0  0  0
 22 32  2  0  0  0
 26 27  1  0  0  0
 28103  1  0  0  0
 28104  1  0  0  0
 29105  1  0  0  0
 29106  1  0  0  0
 33 34  1  0  0  0
 33 66  1  0  0  0
 33 70  2  0  0  0
 34 36  1  0  0  0
 34 59  1  0  0  0
 34107  1  0  0  0
 35 44  2  0  0  0
 35 45  1  0  0  0
 35 68  1  0  0  0
 36 56  1  0  0  0
 36108  1  0  0  0
 37 39  1  0  0  0
 37 47  1  0  0  0
 37 66  1  0  0  0
 37109  1  0  0  0
 38 43  2  0  0  0
 38 46  1  0  0  0
 38 47  1  0  0  0
 39 64  1  0  0  0
 39 67  2  0  0  0
 40 52  1  0  0  0
 40 53  2  0  0  0
 40 58  1  0  0  0
 41110  1  0  0  0
 41111  1  0  0  0
 41112  1  0  0  0
 41 48  1  0  0  0
 42 43  1  0  0  0
 42 66  1  0  0  0
 42113  1  0  0  0
 42114  1  0  0  0
 43 44  1  0  0  0
 44115  1  0  0  0
 45 46  2  0  0  0
 45116  1  0  0  0
 46117  1  0  0  0
 47118  1  0  0  0
 47119  1  0  0  0
 48 56  1  0  0  0
 48 65  1  0  0  0
 48120  1  0  0  0
 49 50  1  0  0  0
 49 53  1  0  0  0
 49 64  1  0  0  0
 49121  1  0  0  0
 50 51  1  0  0  0
 50122  1  0  0  0
 50123  1  0  0  0
 51 52  1  0  0  0
 51124  1  0  0  0
 51125  1  0  0  0
 52126  1  0  0  0
 52127  1  0  0  0
 53 54  1  0  0  0
 54 55  2  0  0  0
 54128  1  0  0  0
 55 57  1  0  0  0
 55129  1  0  0  0
 56 69  2  0  0  0
 57 58  2  0  0  0
 57130  1  0  0  0
 58131  1  0  0  0
 59 60  1  0  0  0
 59 61  1  0  0  0
 59 62  1  0  0  0
 60132  1  0  0  0
 60133  1  0  0  0
 60134  1  0  0  0
 61135  1  0  0  0
 61136  1  0  0  0
 61137  1  0  0  0
 62138  1  0  0  0
 62139  1  0  0  0
 62140  1  0  0  0
 63 65  1  0  0  0
 63141  1  0  0  0
 63142  1  0  0  0
 63143  1  0  0  0
 64144  1  0  0  0
 65145  1  0  0  0
 68 83  1  0  0  0
 71 73  2  0  0  0
 71 74  1  0  0  0
 71146  1  0  0  0
 72 75  2  0  0  0
 72 76  1  0  0  0
 72147  1  0  0  0
 73 75  1  0  0  0
 73 81  1  0  0  0
 74 76  2  0  0  0
 74 83  1  0  0  0
 75 85  1  0  0  0
 76 86  1  0  0  0
 77 78  1  0  0  0
 77 80  1  0  0  0
 77148  1  0  0  0
 77149  1  0  0  0
 78 84  1  0  0  0
 78150  1  0  0  0
 78151  1  0  0  0
 79 80  1  0  0  0
 79 84  1  0  0  0
 79152  1  0  0  0
 79153  1  0  0  0
 80 85  1  0  0  0
 80154  1  0  0  0
 81155  1  0  0  0
 81156  1  0  0  0
 81157  1  0  0  0
 82 86  1  0  0  0
 82158  1  0  0  0
 82159  1  0  0  0
 82160  1  0  0  0
 83161  1  0  0  0
 83162  1  0  0  0
 85163  1  0  0  0
M  ISO  4   1 100  68 101  83 101  84 100
M  END
> <chiral flag>
0

> <version>
0

> <s_m_source_file>
/data/baiqing/PycharmProjects/Reinvent-master-3.2/result/LINK_invent/BTK/process_docking_weight1_custom_sum_contain_oxygen_bond_distance_aromatic_linkinvent_7_9_3/rearranged_h_0160.sdf

> <i_m_source_file_index>
85

> <r_mmod_Potential_Energy-OPLS-2005>
280.597503662109

> <r_mmod_Stretch_Energy-OPLS-2005>
83.9127426147461

> <r_mmod_Bend_Energy-OPLS-2005>
199.065444946289

> <r_mmod_Torsional_Energy-OPLS-2005>
312.07275390625

> <r_mmod_Improper_Torsional_Energy-OPLS-2005>
15.3616304397583

> <r_mmod_Van_der_Waal_Energy-OPLS-2005>
168.977600097656

> <r_mmod_Electrostatic_Energy-OPLS-2005>
-350.590026855469

> <r_mmod_Solvation_Energy-OPLS-2005>
-209.580718994141

> <b_mmod_Minimization_Converged-OPLS-2005>
0

> <r_mmod_RMS_Derivative-OPLS-2005>
0.459395945072174

$$$$
85
                    3D
 Structure written by MMmdl.
163172  0  0  1  0            999 V2000
  -30.5117  -15.0395   20.3741 C   0  0  0  0  0  0
  -30.4390  -12.6441   19.5123 C   0  0  0  0  0  0
  -29.5374  -12.5384   18.2660 C   0  0  0  0  0  0
  -28.0674  -12.3050   18.6746 C   0  0  0  0  0  0
  -27.6169  -13.2353   19.8341 C   0  0  2  0  0  0
  -28.6635  -13.3365   20.9600 C   0  0  0  0  0  0
  -25.2500  -13.8194   20.5699 C   0  0  0  0  0  0
  -24.1763  -13.0461   20.9134 C   0  0  0  0  0  0
  -24.6334  -11.6920   20.8723 C   0  0  0  0  0  0
  -23.9027  -10.4301   21.0428 C   0  0  0  0  0  0
  -24.3578   -9.4214   21.9216 C   0  0  0  0  0  0
  -23.6240   -8.2250   22.0803 C   0  0  0  0  0  0
  -22.4236   -8.0267   21.3577 C   0  0  0  0  0  0
  -21.9848   -9.0238   20.4708 C   0  0  0  0  0  0
  -22.7189  -10.2113   20.3110 C   0  0  0  0  0  0
  -21.6815   -6.0739   22.5259 C   0  0  0  0  0  0
  -21.4021   -6.5641   23.8194 C   0  0  0  0  0  0
  -21.3652   -5.6787   24.9139 C   0  0  0  0  0  0
  -21.6011   -4.3037   24.7181 C   0  0  0  0  0  0
  -21.8846   -3.8139   23.4301 C   0  0  0  0  0  0
  -21.9187   -4.6979   22.3375 C   0  0  0  0  0  0
  -22.7820  -13.5297   21.1679 C   0  0  0  0  0  0
  -22.1666   -4.2191   21.0952 F   0  0  0  0  0  0
  -21.5564   -3.4514   25.7696 F   0  0  0  0  0  0
  -29.9169  -13.7716   20.3355 N   0  0  0  0  0  0
  -26.2854  -12.9347   20.3258 N   0  0  0  0  0  0
  -25.9287  -11.6515   20.5798 N   0  0  0  0  0  0
  -22.0442  -12.8405   22.0273 N   0  0  0  0  0  0
  -25.4182  -15.1936   20.4062 N   0  0  0  0  0  0
  -31.7426  -15.0610   20.2885 O   0  0  0  0  0  0
  -21.6607   -6.8869   21.4220 O   0  0  0  0  0  0
  -22.3544  -14.5545   20.6402 O   0  0  0  0  0  0
  -24.6500  -31.8412   23.1843 C   0  0  0  0  0  0
  -25.9282  -32.4665   23.8210 C   0  0  1  0  0  0
  -27.1950  -27.0906   20.1535 C   0  0  0  0  0  0
  -25.6019  -33.8472   24.2152 N   0  0  0  0  0  0
  -23.4512  -30.4646   21.5298 C   0  0  2  0  0  0
  -24.8977  -28.8828   20.1069 C   0  0  0  0  0  0
  -22.7586  -29.4586   22.4801 C   0  0  0  0  0  0
  -18.0315  -28.1436   22.8469 C   0  0  0  0  0  0
  -24.1499  -36.7249   23.2630 C   0  0  0  0  0  0
  -26.0114  -30.7083   21.3776 C   0  0  0  0  0  0
  -26.0803  -29.3150   20.7178 C   0  0  0  0  0  0
  -27.2353  -28.4394   20.7137 C   0  0  0  0  0  0
  -25.9836  -26.7697   19.5099 C   0  0  0  0  0  0
  -24.8642  -27.6280   19.4798 C   0  0  0  0  0  0
  -23.6755  -29.7895   20.1487 C   0  0  0  0  0  0
  -25.4140  -36.3010   24.0283 C   0  0  1  0  0  0
  -20.5940  -28.3787   23.1191 C   0  0  2  0  0  0
  -20.6793  -26.9462   22.5388 C   0  0  0  0  0  0
  -19.5733  -26.6399   21.5224 C   0  0  0  0  0  0
  -18.1930  -26.7977   22.1643 C   0  0  0  0  0  0
  -19.1583  -28.8926   23.2836 C   0  0  0  0  0  0
  -18.9488  -30.1519   23.8871 C   0  0  0  0  0  0
  -17.6485  -30.6613   24.0603 C   0  0  0  0  0  0
  -25.9112  -34.9399   23.5025 C   0  0  0  0  0  0
  -16.5377  -29.9122   23.6345 C   0  0  0  0  0  0
  -16.7314  -28.6552   23.0349 C   0  0  0  0  0  0
  -26.4600  -31.6561   25.0668 C   0  0  0  0  0  0
  -25.3780  -31.3765   26.1347 C   0  0  0  0  0  0
  -27.0412  -30.2919   24.6285 C   0  0  0  0  0  0
  -27.6108  -32.4341   25.7495 C   0  0  0  0  0  0
  -27.5577  -37.1770   24.8463 C   0  0  0  0  0  0
  -21.4287  -29.3120   22.3572 N   0  0  0  0  0  0
  -26.4285  -37.3735   23.9415 N   0  0  0  0  0  0
  -24.7262  -31.0249   22.0870 N   0  0  0  0  0  0
  -23.4237  -28.8096   23.2891 O   0  0  0  0  0  0
  -28.2292  -26.0754   20.1655 O   0  0  0  0  0  0
  -26.5681  -34.8911   22.4596 O   0  0  0  0  0  0
  -23.5619  -32.1302   23.7072 O   0  0  0  0  0  0
  -28.7857  -22.2724   17.4581 C   0  0  0  0  0  0
  -28.7888  -20.5103   19.2643 C   0  0  0  0  0  0
  -28.7006  -20.9246   17.8682 C   0  0  0  0  0  0
  -28.6801  -23.3749   18.3077 C   0  0  0  0  0  0
  -28.5840  -21.7350   20.1423 C   0  0  0  0  0  0
  -28.4657  -23.1896   19.6866 C   0  0  0  0  0  0
  -29.0466  -17.8719   18.3932 C   0  0  0  0  0  0
  -29.3794  -16.4017   18.7351 C   0  0  0  0  0  0
  -29.7911  -17.7842   20.5410 C   0  0  0  0  0  0
  -28.8330  -18.8096   19.6141 C   0  0  2  0  0  0
  -28.3414  -20.0537   16.6515 C   0  0  0  0  0  0
  -28.6608  -24.7440   17.6389 C   0  0  0  0  0  0
  -28.3790  -21.5017   21.6326 C   0  0  0  0  0  0
  -27.9620  -24.5557   20.5164 C   0  0  0  0  0  0
  -29.7370  -16.2414   20.1416 N   0  0  0  0  0  0
  -31.4735  -12.8174   19.2163 H   0  0  0  0  0  0
  -30.4252  -11.7116   20.0845 H   0  0  0  0  0  0
  -29.8971  -11.7404   17.6135 H   0  0  0  0  0  0
  -29.5978  -13.4658   17.6911 H   0  0  0  0  0  0
  -27.9590  -11.2573   18.9671 H   0  0  0  0  0  0
  -27.4170  -12.4459   17.8144 H   0  0  0  0  0  0
  -27.5272  -14.2104   19.3769 H   0  0  0  0  0  0
  -28.7933  -12.3812   21.4663 H   0  0  0  0  0  0
  -28.3456  -14.0545   21.7177 H   0  0  0  0  0  0
  -25.2754   -9.5614   22.4751 H   0  0  0  0  0  0
  -23.9924   -7.4631   22.7546 H   0  0  0  0  0  0
  -21.0761   -8.8745   19.9036 H   0  0  0  0  0  0
  -22.3653  -10.9619   19.6157 H   0  0  0  0  0  0
  -21.2075   -7.6157   23.9703 H   0  0  0  0  0  0
  -21.1416   -6.0504   25.9030 H   0  0  0  0  0  0
  -22.0648   -2.7613   23.2772 H   0  0  0  0  0  0
  -22.4054  -12.0122   22.4800 H   0  0  0  0  0  0
  -21.1121  -13.1563   22.2507 H   0  0  0  0  0  0
  -24.6514  -15.8459   20.5176 H   0  0  0  0  0  0
  -26.2738  -15.6410   20.1034 H   0  0  0  0  0  0
  -26.7342  -32.5247   23.0933 H   0  0  0  0  0  0
  -25.0149  -33.9591   25.0294 H   0  0  0  0  0  0
  -22.7493  -31.2893   21.3705 H   0  0  0  0  0  0
  -23.3762  -35.9573   23.3288 H   0  0  0  0  0  0
  -24.3553  -36.8914   22.2029 H   0  0  0  0  0  0
  -23.7230  -37.6434   23.6695 H   0  0  0  0  0  0
  -26.1621  -31.4572   20.6005 H   0  0  0  0  0  0
  -26.8844  -30.7645   22.0147 H   0  0  0  0  0  0
  -28.1464  -28.7715   21.1927 H   0  0  0  0  0  0
  -25.8775  -25.8027   19.0405 H   0  0  0  0  0  0
  -23.9625  -27.2951   18.9855 H   0  0  0  0  0  0
  -23.8101  -30.5620   19.3911 H   0  0  0  0  0  0
  -22.7848  -29.2369   19.8348 H   0  0  0  0  0  0
  -25.1323  -36.1824   25.0755 H   0  0  0  0  0  0
  -21.0035  -28.3404   24.1323 H   0  0  0  0  0  0
  -20.5693  -26.2419   23.3679 H   0  0  0  0  0  0
  -21.6644  -26.7435   22.1180 H   0  0  0  0  0  0
  -19.6886  -25.6311   21.1261 H   0  0  0  0  0  0
  -19.6665  -27.3194   20.6735 H   0  0  0  0  0  0
  -17.4193  -26.6751   21.4091 H   0  0  0  0  0  0
  -18.0347  -26.0148   22.9051 H   0  0  0  0  0  0
  -19.7969  -30.7365   24.2210 H   0  0  0  0  0  0
  -17.5033  -31.6294   24.5227 H   0  0  0  0  0  0
  -15.5396  -30.2988   23.7689 H   0  0  0  0  0  0
  -15.8729  -28.0842   22.7055 H   0  0  0  0  0  0
  -24.6008  -30.7067   25.7675 H   0  0  0  0  0  0
  -24.8928  -32.2934   26.4666 H   0  0  0  0  0  0
  -25.8055  -30.9015   27.0182 H   0  0  0  0  0  0
  -26.2987  -29.6650   24.1319 H   0  0  0  0  0  0
  -27.3985  -29.7215   25.4875 H   0  0  0  0  0  0
  -27.8945  -30.4068   23.9599 H   0  0  0  0  0  0
  -27.2694  -33.3684   26.1966 H   0  0  0  0  0  0
  -28.4009  -32.6836   25.0410 H   0  0  0  0  0  0
  -28.0695  -31.8536   26.5513 H   0  0  0  0  0  0
  -28.2580  -38.0086   24.7510 H   0  0  0  0  0  0
  -28.1084  -36.2592   24.6303 H   0  0  0  0  0  0
  -27.2279  -37.1432   25.8867 H   0  0  0  0  0  0
  -20.9509  -29.8858   21.6770 H   0  0  0  0  0  0
  -26.0151  -38.2801   24.1448 H   0  0  0  0  0  0
  -28.8204  -22.4793   16.3960 H   0  0  0  0  0  0
  -28.1690  -17.8076   17.7564 H   0  0  0  0  0  0
  -29.9071  -18.2315   17.8232 H   0  0  0  0  0  0
  -28.5476  -15.7517   18.4732 H   0  0  0  0  0  0
  -30.2057  -16.0832   18.0859 H   0  0  0  0  0  0
  -30.8295  -18.1231   20.4865 H   0  0  0  0  0  0
  -29.5109  -17.8838   21.5903 H   0  0  0  0  0  0
  -27.8197  -18.6231   19.9678 H   0  0  0  0  0  0
  -28.0534  -20.6395   15.7736 H   0  0  0  0  0  0
  -27.4309  -19.4778   16.8265 H   0  0  0  0  0  0
  -29.1659  -19.4340   16.2987 H   0  0  0  0  0  0
  -27.6771  -25.2061   17.7269 H   0  0  0  0  0  0
  -28.8659  -24.6749   16.5695 H   0  0  0  0  0  0
  -29.4217  -25.3986   18.0689 H   0  0  0  0  0  0
  -27.3806  -21.8286   21.9357 H   0  0  0  0  0  0
  -29.0989  -22.0842   22.2116 H   0  0  0  0  0  0
  -28.4872  -20.4525   21.9078 H   0  0  0  0  0  0
  -28.3050  -24.4403   21.5430 H   0  0  0  0  0  0
  -26.8802  -24.4349   20.5799 H   0  0  0  0  0  0
  1 25  1  0  0  0
  1 30  2  0  0  0
  1 85  1  0  0  0
  2  3  1  0  0  0
  2 25  1  0  0  0
  2 86  1  0  0  0
  2 87  1  0  0  0
  3  4  1  0  0  0
  3 88  1  0  0  0
  3 89  1  0  0  0
  4  5  1  0  0  0
  4 90  1  0  0  0
  4 91  1  0  0  0
  5  6  1  0  0  0
  5 26  1  0  0  0
  5 92  1  0  0  0
  6 25  1  0  0  0
  6 93  1  0  0  0
  6 94  1  0  0  0
  7  8  2  0  0  0
  7 26  1  0  0  0
  7 29  1  0  0  0
  8  9  1  0  0  0
  8 22  1  0  0  0
  9 10  1  0  0  0
  9 27  2  0  0  0
 10 11  2  0  0  0
 10 15  1  0  0  0
 11 12  1  0  0  0
 11 95  1  0  0  0
 12 13  2  0  0  0
 12 96  1  0  0  0
 13 14  1  0  0  0
 13 31  1  0  0  0
 14 15  2  0  0  0
 14 97  1  0  0  0
 15 98  1  0  0  0
 16 17  2  0  0  0
 16 21  1  0  0  0
 16 31  1  0  0  0
 17 18  1  0  0  0
 17 99  1  0  0  0
 18 19  2  0  0  0
 18100  1  0  0  0
 19 20  1  0  0  0
 19 24  1  0  0  0
 20 21  2  0  0  0
 20101  1  0  0  0
 21 23  1  0  0  0
 22 28  1  0  0  0
 22 32  2  0  0  0
 26 27  1  0  0  0
 28102  1  0  0  0
 28103  1  0  0  0
 29104  1  0  0  0
 29105  1  0  0  0
 33 34  1  0  0  0
 33 66  1  0  0  0
 33 70  2  0  0  0
 34 36  1  0  0  0
 34 59  1  0  0  0
 34106  1  0  0  0
 35 44  2  0  0  0
 35 45  1  0  0  0
 35 68  1  0  0  0
 36 56  1  0  0  0
 36107  1  0  0  0
 37 39  1  0  0  0
 37 47  1  0  0  0
 37 66  1  0  0  0
 37108  1  0  0  0
 38 43  2  0  0  0
 38 46  1  0  0  0
 38 47  1  0  0  0
 39 64  1  0  0  0
 39 67  2  0  0  0
 40 52  1  0  0  0
 40 53  2  0  0  0
 40 58  1  0  0  0
 41109  1  0  0  0
 41110  1  0  0  0
 41111  1  0  0  0
 41 48  1  0  0  0
 42 43  1  0  0  0
 42 66  1  0  0  0
 42112  1  0  0  0
 42113  1  0  0  0
 43 44  1  0  0  0
 44114  1  0  0  0
 45 46  2  0  0  0
 45115  1  0  0  0
 46116  1  0  0  0
 47117  1  0  0  0
 47118  1  0  0  0
 48 56  1  0  0  0
 48 65  1  0  0  0
 48119  1  0  0  0
 49 50  1  0  0  0
 49 53  1  0  0  0
 49 64  1  0  0  0
 49120  1  0  0  0
 50 51  1  0  0  0
 50121  1  0  0  0
 50122  1  0  0  0
 51 52  1  0  0  0
 51123  1  0  0  0
 51124  1  0  0  0
 52125  1  0  0  0
 52126  1  0  0  0
 53 54  1  0  0  0
 54 55  2  0  0  0
 54127  1  0  0  0
 55 57  1  0  0  0
 55128  1  0  0  0
 56 69  2  0  0  0
 57 58  2  0  0  0
 57129  1  0  0  0
 58130  1  0  0  0
 59 60  1  0  0  0
 59 61  1  0  0  0
 59 62  1  0  0  0
 60131  1  0  0  0
 60132  1  0  0  0
 60133  1  0  0  0
 61134  1  0  0  0
 61135  1  0  0  0
 61136  1  0  0  0
 62137  1  0  0  0
 62138  1  0  0  0
 62139  1  0  0  0
 63 65  1  0  0  0
 63140  1  0  0  0
 63141  1  0  0  0
 63142  1  0  0  0
 64143  1  0  0  0
 65144  1  0  0  0
 68 84  1  0  0  0
 71 73  2  0  0  0
 71 74  1  0  0  0
 71145  1  0  0  0
 72 73  1  0  0  0
 72 75  2  0  0  0
 72 80  1  0  0  0
 73 81  1  0  0  0
 74 76  2  0  0  0
 74 82  1  0  0  0
 75 76  1  0  0  0
 75 83  1  0  0  0
 76 84  1  0  0  0
 77 78  1  0  0  0
 77 80  1  0  0  0
 77146  1  0  0  0
 77147  1  0  0  0
 78 85  1  0  0  0
 78148  1  0  0  0
 78149  1  0  0  0
 79 80  1  0  0  0
 79 85  1  0  0  0
 79150  1  0  0  0
 79151  1  0  0  0
 80152  1  0  0  0
 81153  1  0  0  0
 81154  1  0  0  0
 81155  1  0  0  0
 82156  1  0  0  0
 82157  1  0  0  0
 82158  1  0  0  0
 83159  1  0  0  0
 83160  1  0  0  0
 83161  1  0  0  0
 84162  1  0  0  0
 84163  1  0  0  0
M  ISO  4   1 100  68 101  84 101  85 100
M  END
> <chiral flag>
0

> <version>
0

> <s_m_source_file>
/data/baiqing/PycharmProjects/Reinvent-master-3.2/result/LINK_invent/BTK/process_docking_weight1_custom_sum_contain_oxygen_bond_distance_aromatic_linkinvent_7_9_3/rearranged_h_0160.sdf

> <i_m_source_file_index>
86

> <r_mmod_Potential_Energy-OPLS-2005>
1077.00073242188

> <r_mmod_Stretch_Energy-OPLS-2005>
366.999114990234

> <r_mmod_Bend_Energy-OPLS-2005>
391.918701171875

> <r_mmod_Torsional_Energy-OPLS-2005>
389.960662841797

> <r_mmod_Improper_Torsional_Energy-OPLS-2005>
17.2890663146973

> <r_mmod_Van_der_Waal_Energy-OPLS-2005>
152.272644042969

> <r_mmod_Electrostatic_Energy-OPLS-2005>
-298.885894775391

> <r_mmod_Solvation_Energy-OPLS-2005>
-196.723907470703

> <b_mmod_Minimization_Converged-OPLS-2005>
0

> <r_mmod_RMS_Derivative-OPLS-2005>
8.26584434509277

$$$$
86
                    3D
 Structure written by MMmdl.
163172  0  0  1  0            999 V2000
  -30.5240  -14.9834   20.4240 C   0  0  0  0  0  0
  -30.4394  -12.6069   19.5299 C   0  0  0  0  0  0
  -29.5300  -12.5443   18.2784 C   0  0  0  0  0  0
  -28.0639  -12.3172   18.6865 C   0  0  0  0  0  0
  -27.6290  -13.2460   19.8488 C   0  0  2  0  0  0
  -28.6649  -13.2909   20.9967 C   0  0  0  0  0  0
  -25.2363  -13.8012   20.5576 C   0  0  0  0  0  0
  -24.1745  -13.0291   20.9279 C   0  0  0  0  0  0
  -24.6402  -11.6813   20.8825 C   0  0  0  0  0  0
  -23.9080  -10.4211   21.0443 C   0  0  0  0  0  0
  -24.3623   -9.4132   21.9216 C   0  0  0  0  0  0
  -23.6279   -8.2185   22.0772 C   0  0  0  0  0  0
  -22.4263   -8.0246   21.3549 C   0  0  0  0  0  0
  -21.9911   -9.0228   20.4655 C   0  0  0  0  0  0
  -22.7260  -10.2089   20.3071 C   0  0  0  0  0  0
  -21.6835   -6.0717   22.5284 C   0  0  0  0  0  0
  -21.4002   -6.5630   23.8209 C   0  0  0  0  0  0
  -21.3655   -5.6787   24.9178 C   0  0  0  0  0  0
  -21.6041   -4.3049   24.7228 C   0  0  0  0  0  0
  -21.8819   -3.8136   23.4349 C   0  0  0  0  0  0
  -21.9188   -4.6952   22.3403 C   0  0  0  0  0  0
  -22.7763  -13.5102   21.1879 C   0  0  0  0  0  0
  -22.1660   -4.2138   21.0981 F   0  0  0  0  0  0
  -21.5629   -3.4536   25.7742 F   0  0  0  0  0  0
  -29.9493  -13.7073   20.4181 N   0  0  0  0  0  0
  -26.2869  -12.9339   20.3254 N   0  0  0  0  0  0
  -25.9351  -11.6482   20.5828 N   0  0  0  0  0  0
  -22.0379  -12.8143   22.0433 N   0  0  0  0  0  0
  -25.3725  -15.1643   20.3414 N   0  0  0  0  0  0
  -31.6890  -15.0678   20.0243 O   0  0  0  0  0  0
  -21.6615   -6.8863   21.4243 O   0  0  0  0  0  0
  -22.3563  -14.5461   20.6739 O   0  0  0  0  0  0
  -24.6445  -31.8421   23.1856 C   0  0  0  0  0  0
  -25.9204  -32.4684   23.8250 C   0  0  1  0  0  0
  -27.2225  -27.1226   20.1550 C   0  0  0  0  0  0
  -25.5958  -33.8495   24.2157 N   0  0  0  0  0  0
  -23.4488  -30.4580   21.5329 C   0  0  2  0  0  0
  -24.8987  -28.8815   20.1113 C   0  0  0  0  0  0
  -22.7577  -29.4517   22.4870 C   0  0  0  0  0  0
  -18.0305  -28.1392   22.8462 C   0  0  0  0  0  0
  -24.1496  -36.7262   23.2641 C   0  0  0  0  0  0
  -26.0049  -30.7136   21.3826 C   0  0  0  0  0  0
  -26.0786  -29.3216   20.7265 C   0  0  0  0  0  0
  -27.2416  -28.4606   20.7259 C   0  0  0  0  0  0
  -26.0154  -26.7862   19.5019 C   0  0  0  0  0  0
  -24.8820  -27.6274   19.4820 C   0  0  0  0  0  0
  -23.6748  -29.7853   20.1527 C   0  0  0  0  0  0
  -25.4128  -36.3017   24.0299 C   0  0  1  0  0  0
  -20.5909  -28.3703   23.1243 C   0  0  2  0  0  0
  -20.6775  -26.9407   22.5403 C   0  0  0  0  0  0
  -19.5765  -26.6372   21.5201 C   0  0  0  0  0  0
  -18.1944  -26.7925   22.1607 C   0  0  0  0  0  0
  -19.1555  -28.8871   23.2835 C   0  0  0  0  0  0
  -18.9481  -30.1462   23.8861 C   0  0  0  0  0  0
  -17.6477  -30.6582   24.0559 C   0  0  0  0  0  0
  -25.9084  -34.9402   23.5036 C   0  0  0  0  0  0
  -16.5365  -29.9074   23.6330 C   0  0  0  0  0  0
  -16.7288  -28.6497   23.0347 C   0  0  0  0  0  0
  -26.4520  -31.6571   25.0708 C   0  0  0  0  0  0
  -25.3707  -31.3783   26.1409 C   0  0  0  0  0  0
  -27.0378  -30.2964   24.6276 C   0  0  0  0  0  0
  -27.6035  -32.4350   25.7513 C   0  0  0  0  0  0
  -27.5564  -37.1783   24.8458 C   0  0  0  0  0  0
  -21.4267  -29.3031   22.3628 N   0  0  0  0  0  0
  -26.4273  -37.3730   23.9411 N   0  0  0  0  0  0
  -24.7196  -31.0250   22.0896 N   0  0  0  0  0  0
  -23.4232  -28.8058   23.3007 O   0  0  0  0  0  0
  -28.2779  -26.1352   20.2249 O   0  0  0  0  0  0
  -26.5670  -34.8894   22.4617 O   0  0  0  0  0  0
  -23.5562  -32.1312   23.7068 O   0  0  0  0  0  0
  -27.0588  -20.0336   21.6529 C   0  0  0  0  0  0
  -29.4368  -20.4593   20.3397 C   0  0  0  0  0  0
  -27.7695  -18.9258   21.1498 C   0  0  0  0  0  0
  -29.0530  -19.0332   20.5885 C   0  0  0  0  0  0
  -27.5016  -21.3663   21.5025 C   0  0  0  0  0  0
  -28.6562  -21.6807   20.7310 C   0  0  0  0  0  0
  -27.0566  -17.6087   20.9715 C   0  0  0  0  0  0
  -29.6349  -17.5889   19.9699 C   0  0  2  0  0  0
  -28.5328  -17.2738   18.9094 C   0  0  2  0  0  0
  -26.6614  -22.4252   22.1926 C   0  0  0  0  0  0
  -28.4824  -18.2802   17.7411 C   0  0  0  0  0  0
  -29.0360  -23.2864   20.4723 C   0  0  0  0  0  0
  -27.9882  -24.5984   20.1685 C   0  0  0  0  0  0
  -29.7471  -16.1571   20.6827 N   0  0  0  0  0  0
  -27.1816  -17.1783   19.5521 N   0  3  0  0  0  0
  -31.4768  -12.7568   19.2255 H   0  0  0  0  0  0
  -30.4289  -11.6552   20.0630 H   0  0  0  0  0  0
  -29.8602  -11.7495   17.6085 H   0  0  0  0  0  0
  -29.6153  -13.4748   17.7164 H   0  0  0  0  0  0
  -27.9654  -11.2749   18.9952 H   0  0  0  0  0  0
  -27.4045  -12.4458   17.8275 H   0  0  0  0  0  0
  -27.5862  -14.2452   19.4186 H   0  0  0  0  0  0
  -28.7518  -12.3209   21.4889 H   0  0  0  0  0  0
  -28.3488  -13.9969   21.7647 H   0  0  0  0  0  0
  -25.2762   -9.5601   22.4806 H   0  0  0  0  0  0
  -23.9965   -7.4571   22.7498 H   0  0  0  0  0  0
  -21.0835   -8.8764   19.8965 H   0  0  0  0  0  0
  -22.3732  -10.9639   19.6182 H   0  0  0  0  0  0
  -21.1995   -7.6139   23.9710 H   0  0  0  0  0  0
  -21.1479   -6.0520   25.9076 H   0  0  0  0  0  0
  -22.0605   -2.7602   23.2854 H   0  0  0  0  0  0
  -22.3941  -11.9768   22.4790 H   0  0  0  0  0  0
  -21.1012  -13.1208   22.2610 H   0  0  0  0  0  0
  -24.6760  -15.5775   20.9542 H   0  0  0  0  0  0
  -24.9293  -15.2782   19.4353 H   0  0  0  0  0  0
  -26.7292  -32.5272   23.0998 H   0  0  0  0  0  0
  -25.0072  -33.9630   25.0276 H   0  0  0  0  0  0
  -22.7501  -31.2829   21.3772 H   0  0  0  0  0  0
  -23.3734  -35.9609   23.3285 H   0  0  0  0  0  0
  -24.3584  -36.8925   22.2057 H   0  0  0  0  0  0
  -23.7267  -37.6458   23.6706 H   0  0  0  0  0  0
  -26.1522  -31.4658   20.6062 H   0  0  0  0  0  0
  -26.8781  -30.7724   22.0205 H   0  0  0  0  0  0
  -28.1424  -28.7904   21.2248 H   0  0  0  0  0  0
  -25.9097  -25.8269   19.0187 H   0  0  0  0  0  0
  -23.9837  -27.2796   18.9917 H   0  0  0  0  0  0
  -23.8191  -30.5615   19.4003 H   0  0  0  0  0  0
  -22.7884  -29.2335   19.8353 H   0  0  0  0  0  0
  -25.1312  -36.1834   25.0778 H   0  0  0  0  0  0
  -20.9992  -28.3277   24.1371 H   0  0  0  0  0  0
  -20.5669  -26.2305   23.3612 H   0  0  0  0  0  0
  -21.6641  -26.7414   22.1208 H   0  0  0  0  0  0
  -19.6933  -25.6282   21.1245 H   0  0  0  0  0  0
  -19.6711  -27.3161   20.6719 H   0  0  0  0  0  0
  -17.4208  -26.6658   21.4017 H   0  0  0  0  0  0
  -18.0356  -26.0078   22.9019 H   0  0  0  0  0  0
  -19.7962  -30.7284   24.2213 H   0  0  0  0  0  0
  -17.5037  -31.6270   24.5160 H   0  0  0  0  0  0
  -15.5365  -30.2972   23.7693 H   0  0  0  0  0  0
  -15.8680  -28.0824   22.7068 H   0  0  0  0  0  0
  -24.5888  -30.7116   25.7751 H   0  0  0  0  0  0
  -24.8891  -32.2975   26.4751 H   0  0  0  0  0  0
  -25.7993  -30.9030   27.0240 H   0  0  0  0  0  0
  -26.2985  -29.6702   24.1264 H   0  0  0  0  0  0
  -27.3977  -29.7250   25.4842 H   0  0  0  0  0  0
  -27.8895  -30.4196   23.9583 H   0  0  0  0  0  0
  -27.2604  -33.3675   26.2001 H   0  0  0  0  0  0
  -28.3897  -32.6870   25.0389 H   0  0  0  0  0  0
  -28.0632  -31.8536   26.5515 H   0  0  0  0  0  0
  -28.2553  -38.0105   24.7497 H   0  0  0  0  0  0
  -28.1094  -36.2628   24.6292 H   0  0  0  0  0  0
  -27.2298  -37.1426   25.8867 H   0  0  0  0  0  0
  -20.9487  -29.8772   21.6820 H   0  0  0  0  0  0
  -26.0136  -38.2786   24.1427 H   0  0  0  0  0  0
  -26.1008  -19.8582   22.1266 H   0  0  0  0  0  0
  -30.3438  -20.6244   19.7762 H   0  0  0  0  0  0
  -27.4474  -16.8638   21.6630 H   0  0  0  0  0  0
  -25.9981  -17.7129   21.2127 H   0  0  0  0  0  0
  -30.5861  -17.7855   19.4738 H   0  0  0  0  0  0
  -28.7405  -16.3083   18.4444 H   0  0  0  0  0  0
  -25.9350  -22.8500   21.5011 H   0  0  0  0  0  0
  -27.2799  -23.2111   22.6242 H   0  0  0  0  0  0
  -26.0952  -21.9980   23.0203 H   0  0  0  0  0  0
  -28.1684  -19.2761   18.0576 H   0  0  0  0  0  0
  -27.7796  -17.9505   16.9733 H   0  0  0  0  0  0
  -29.4576  -18.3782   17.2640 H   0  0  0  0  0  0
  -29.7687  -23.2858   19.6655 H   0  0  0  0  0  0
  -29.6105  -23.5689   21.3537 H   0  0  0  0  0  0
  -27.1392  -24.5129   20.8348 H   0  0  0  0  0  0
  -27.5758  -24.4040   19.1791 H   0  0  0  0  0  0
  -28.9308  -15.9238   21.2233 H   0  0  0  0  0  0
  -26.5512  -17.7524   19.0181 H   0  0  0  0  0  0
  -26.8022  -16.2393   19.5273 H   0  0  0  0  0  0
  1 25  1  0  0  0
  1 30  2  0  0  0
  1 84  1  0  0  0
  2  3  1  0  0  0
  2 25  1  0  0  0
  2 86  1  0  0  0
  2 87  1  0  0  0
  3  4  1  0  0  0
  3 88  1  0  0  0
  3 89  1  0  0  0
  4  5  1  0  0  0
  4 90  1  0  0  0
  4 91  1  0  0  0
  5  6  1  0  0  0
  5 26  1  0  0  0
  5 92  1  0  0  0
  6 25  1  0  0  0
  6 93  1  0  0  0
  6 94  1  0  0  0
  7  8  2  0  0  0
  7 26  1  0  0  0
  7 29  1  0  0  0
  8  9  1  0  0  0
  8 22  1  0  0  0
  9 10  1  0  0  0
  9 27  2  0  0  0
 10 11  2  0  0  0
 10 15  1  0  0  0
 11 12  1  0  0  0
 11 95  1  0  0  0
 12 13  2  0  0  0
 12 96  1  0  0  0
 13 14  1  0  0  0
 13 31  1  0  0  0
 14 15  2  0  0  0
 14 97  1  0  0  0
 15 98  1  0  0  0
 16 17  2  0  0  0
 16 21  1  0  0  0
 16 31  1  0  0  0
 17 18  1  0  0  0
 17 99  1  0  0  0
 18 19  2  0  0  0
 18100  1  0  0  0
 19 20  1  0  0  0
 19 24  1  0  0  0
 20 21  2  0  0  0
 20101  1  0  0  0
 21 23  1  0  0  0
 22 28  1  0  0  0
 22 32  2  0  0  0
 26 27  1  0  0  0
 28102  1  0  0  0
 28103  1  0  0  0
 29104  1  0  0  0
 29105  1  0  0  0
 33 34  1  0  0  0
 33 66  1  0  0  0
 33 70  2  0  0  0
 34 36  1  0  0  0
 34 59  1  0  0  0
 34106  1  0  0  0
 35 44  2  0  0  0
 35 45  1  0  0  0
 35 68  1  0  0  0
 36 56  1  0  0  0
 36107  1  0  0  0
 37 39  1  0  0  0
 37 47  1  0  0  0
 37 66  1  0  0  0
 37108  1  0  0  0
 38 43  2  0  0  0
 38 46  1  0  0  0
 38 47  1  0  0  0
 39 64  1  0  0  0
 39 67  2  0  0  0
 40 52  1  0  0  0
 40 53  2  0  0  0
 40 58  1  0  0  0
 41109  1  0  0  0
 41110  1  0  0  0
 41111  1  0  0  0
 41 48  1  0  0  0
 42 43  1  0  0  0
 42 66  1  0  0  0
 42112  1  0  0  0
 42113  1  0  0  0
 43 44  1  0  0  0
 44114  1  0  0  0
 45 46  2  0  0  0
 45115  1  0  0  0
 46116  1  0  0  0
 47117  1  0  0  0
 47118  1  0  0  0
 48 56  1  0  0  0
 48 65  1  0  0  0
 48119  1  0  0  0
 49 50  1  0  0  0
 49 53  1  0  0  0
 49 64  1  0  0  0
 49120  1  0  0  0
 50 51  1  0  0  0
 50121  1  0  0  0
 50122  1  0  0  0
 51 52  1  0  0  0
 51123  1  0  0  0
 51124  1  0  0  0
 52125  1  0  0  0
 52126  1  0  0  0
 53 54  1  0  0  0
 54 55  2  0  0  0
 54127  1  0  0  0
 55 57  1  0  0  0
 55128  1  0  0  0
 56 69  2  0  0  0
 57 58  2  0  0  0
 57129  1  0  0  0
 58130  1  0  0  0
 59 60  1  0  0  0
 59 61  1  0  0  0
 59 62  1  0  0  0
 60131  1  0  0  0
 60132  1  0  0  0
 60133  1  0  0  0
 61134  1  0  0  0
 61135  1  0  0  0
 61136  1  0  0  0
 62137  1  0  0  0
 62138  1  0  0  0
 62139  1  0  0  0
 63 65  1  0  0  0
 63140  1  0  0  0
 63141  1  0  0  0
 63142  1  0  0  0
 64143  1  0  0  0
 65144  1  0  0  0
 68 83  1  0  0  0
 71 73  2  0  0  0
 71 75  1  0  0  0
 71145  1  0  0  0
 72 74  2  0  0  0
 72 76  1  0  0  0
 72146  1  0  0  0
 73 74  1  0  0  0
 73 77  1  0  0  0
 74 78  1  0  0  0
 75 76  2  0  0  0
 75 80  1  0  0  0
 76 82  1  0  0  0
 77 85  1  0  0  0
 77147  1  0  0  0
 77148  1  0  0  0
 78 79  1  0  0  0
 78 84  1  0  0  0
 78149  1  0  0  0
 79 81  1  0  0  0
 79 85  1  0  0  0
 79150  1  0  0  0
 80151  1  0  0  0
 80152  1  0  0  0
 80153  1  0  0  0
 81154  1  0  0  0
 81155  1  0  0  0
 81156  1  0  0  0
 82 83  1  0  0  0
 82157  1  0  0  0
 82158  1  0  0  0
 83159  1  0  0  0
 83160  1  0  0  0
 84161  1  0  0  0
 85162  1  0  0  0
 85163  1  0  0  0
M  CHG  1  85   1
M  ISO  4   1 100  68 101  83 101  84 100
M  END
> <chiral flag>
0

> <version>
0

> <s_m_source_file>
/data/baiqing/PycharmProjects/Reinvent-master-3.2/result/LINK_invent/BTK/process_docking_weight1_custom_sum_contain_oxygen_bond_distance_aromatic_linkinvent_7_9_3/rearranged_h_0160.sdf

> <i_m_source_file_index>
87

> <r_mmod_Potential_Energy-OPLS-2005>
414.746765136719

> <r_mmod_Stretch_Energy-OPLS-2005>
299.762786865234

> <r_mmod_Bend_Energy-OPLS-2005>
298.086883544922

> <r_mmod_Torsional_Energy-OPLS-2005>
328.389282226562

> <r_mmod_Improper_Torsional_Energy-OPLS-2005>
18.8068523406982

> <r_mmod_Van_der_Waal_Energy-OPLS-2005>
159.246841430664

> <r_mmod_Electrostatic_Energy-OPLS-2005>
-444.384979248047

> <r_mmod_Solvation_Energy-OPLS-2005>
-457.352325439453

> <b_mmod_Minimization_Converged-OPLS-2005>
0

> <r_mmod_RMS_Derivative-OPLS-2005>
2.55367994308472

$$$$
87
                    3D
 Structure written by MMmdl.
169178  0  0  1  0            999 V2000
  -30.6483  -14.6445   20.4872 C   0  0  0  0  0  0
  -30.4214  -12.3988   19.4577 C   0  0  0  0  0  0
  -29.4990  -12.5067   18.2234 C   0  0  0  0  0  0
  -28.0224  -12.3502   18.6362 C   0  0  0  0  0  0
  -27.6458  -13.2278   19.8601 C   0  0  2  0  0  0
  -28.6910  -13.1156   20.9928 C   0  0  0  0  0  0
  -25.2517  -13.8194   20.5681 C   0  0  0  0  0  0
  -24.1807  -13.0452   20.9200 C   0  0  0  0  0  0
  -24.6394  -11.6923   20.8767 C   0  0  0  0  0  0
  -23.9081  -10.4300   21.0418 C   0  0  0  0  0  0
  -24.3628   -9.4211   21.9193 C   0  0  0  0  0  0
  -23.6299   -8.2248   22.0759 C   0  0  0  0  0  0
  -22.4278   -8.0287   21.3551 C   0  0  0  0  0  0
  -21.9922   -9.0266   20.4653 C   0  0  0  0  0  0
  -22.7253  -10.2145   20.3066 C   0  0  0  0  0  0
  -21.6859   -6.0739   22.5279 C   0  0  0  0  0  0
  -21.4010   -6.5644   23.8210 C   0  0  0  0  0  0
  -21.3656   -5.6797   24.9175 C   0  0  0  0  0  0
  -21.6043   -4.3059   24.7227 C   0  0  0  0  0  0
  -21.8821   -3.8153   23.4347 C   0  0  0  0  0  0
  -21.9188   -4.6966   22.3400 C   0  0  0  0  0  0
  -22.7826  -13.5234   21.1865 C   0  0  0  0  0  0
  -22.1662   -4.2150   21.0982 F   0  0  0  0  0  0
  -21.5627   -3.4541   25.7744 F   0  0  0  0  0  0
  -30.0013  -13.4403   20.4176 N   0  0  0  0  0  0
  -26.2948  -12.9399   20.3317 N   0  0  0  0  0  0
  -25.9323  -11.6544   20.5783 N   0  0  0  0  0  0
  -22.0468  -12.8228   22.0408 N   0  0  0  0  0  0
  -25.4219  -15.1919   20.4041 N   0  0  0  0  0  0
  -31.8175  -14.7609   20.1114 O   0  0  0  0  0  0
  -21.6642   -6.8884   21.4242 O   0  0  0  0  0  0
  -22.3528  -14.5546   20.6712 O   0  0  0  0  0  0
  -24.6270  -31.8600   23.2025 C   0  0  0  0  0  0
  -25.9117  -32.4790   23.8358 C   0  0  1  0  0  0
  -27.2076  -27.3168   20.1330 C   0  0  0  0  0  0
  -25.5933  -33.8591   24.2296 N   0  0  0  0  0  0
  -23.4201  -30.4829   21.5465 C   0  0  2  0  0  0
  -24.8650  -28.9385   20.1077 C   0  0  0  0  0  0
  -22.7488  -29.4596   22.4947 C   0  0  0  0  0  0
  -18.0281  -28.1371   22.8464 C   0  0  0  0  0  0
  -24.1482  -36.7283   23.2645 C   0  0  0  0  0  0
  -25.9591  -30.7927   21.3718 C   0  0  0  0  0  0
  -26.0342  -29.4194   20.7145 C   0  0  0  0  0  0
  -27.2151  -28.6200   20.7157 C   0  0  0  0  0  0
  -26.0253  -26.8835   19.5026 C   0  0  0  0  0  0
  -24.8625  -27.6779   19.4887 C   0  0  0  0  0  0
  -23.6328  -29.8205   20.1598 C   0  0  0  0  0  0
  -25.4111  -36.3101   24.0338 C   0  0  1  0  0  0
  -20.5884  -28.3668   23.1277 C   0  0  2  0  0  0
  -20.6786  -26.9398   22.5409 C   0  0  0  0  0  0
  -19.5769  -26.6373   21.5204 C   0  0  0  0  0  0
  -18.1938  -26.7911   22.1598 C   0  0  0  0  0  0
  -19.1537  -28.8842   23.2858 C   0  0  0  0  0  0
  -18.9465  -30.1440   23.8878 C   0  0  0  0  0  0
  -17.6477  -30.6585   24.0548 C   0  0  0  0  0  0
  -25.9047  -34.9469   23.5121 C   0  0  0  0  0  0
  -16.5361  -29.9082   23.6342 C   0  0  0  0  0  0
  -16.7270  -28.6496   23.0351 C   0  0  0  0  0  0
  -26.4499  -31.6597   25.0725 C   0  0  0  0  0  0
  -25.3734  -31.3719   26.1456 C   0  0  0  0  0  0
  -27.0364  -30.3043   24.6146 C   0  0  0  0  0  0
  -27.6060  -32.4330   25.7497 C   0  0  0  0  0  0
  -27.5585  -37.1796   24.8469 C   0  0  0  0  0  0
  -21.4197  -29.3017   22.3682 N   0  0  0  0  0  0
  -26.4302  -37.3790   23.9414 N   0  0  0  0  0  0
  -24.6872  -31.0608   22.0981 N   0  0  0  0  0  0
  -23.4212  -28.8143   23.3029 O   0  0  0  0  0  0
  -28.2799  -26.4226   20.1757 O   0  0  0  0  0  0
  -26.5621  -34.8935   22.4687 O   0  0  0  0  0  0
  -23.5434  -32.1401   23.7351 O   0  0  0  0  0  0
  -29.7894  -23.3774   20.6584 C   0  0  0  0  0  0
  -28.4351  -23.7845   20.6589 C   0  0  0  0  0  0
  -27.4760  -22.7348   20.4611 C   0  0  0  0  0  0
  -27.8854  -21.3609   20.2788 C   0  0  0  0  0  0
  -29.2578  -20.9576   20.3449 C   0  0  0  0  0  0
  -30.2076  -22.0135   20.5177 C   0  0  0  0  0  0
  -29.3125  -18.3783   20.9770 C   0  0  0  0  0  0
  -30.8031  -19.2072   19.3176 C   0  0  0  0  0  0
  -30.3463  -17.2194   20.6306 C   0  0  2  0  0  0
  -30.7590  -17.6682   19.2110 C   0  0  2  0  0  0
  -25.9788  -23.0485   20.4490 C   0  0  0  0  0  0
  -26.8356  -20.2916   19.9689 C   0  0  0  0  0  0
  -32.5294  -22.6504   20.3639 C   0  0  0  0  0  0
  -28.0778  -25.2726   21.0799 C   0  0  0  0  0  0
  -29.6758  -19.5787   20.1687 N   0  0  0  0  0  0
  -29.9051  -15.7716   20.7335 N   0  0  0  0  0  0
  -32.0240  -17.0849   18.7412 N   0  3  0  0  0  0
  -31.5392  -21.6579   20.5973 O   0  0  0  0  0  0
  -31.4655  -12.5030   19.1574 H   0  0  0  0  0  0
  -30.3386  -11.4110   19.9128 H   0  0  0  0  0  0
  -29.7612  -11.7473   17.4854 H   0  0  0  0  0  0
  -29.6419  -13.4709   17.7319 H   0  0  0  0  0  0
  -27.8543  -11.2980   18.8674 H   0  0  0  0  0  0
  -27.3689  -12.5819   17.7938 H   0  0  0  0  0  0
  -27.6556  -14.2584   19.5064 H   0  0  0  0  0  0
  -28.7023  -12.1081   21.4116 H   0  0  0  0  0  0
  -28.4432  -13.7858   21.8174 H   0  0  0  0  0  0
  -25.2770   -9.5678   22.4771 H   0  0  0  0  0  0
  -24.0001   -7.4638   22.7480 H   0  0  0  0  0  0
  -21.0853   -8.8796   19.8958 H   0  0  0  0  0  0
  -22.3718  -10.9691   19.6178 H   0  0  0  0  0  0
  -21.2009   -7.6154   23.9716 H   0  0  0  0  0  0
  -21.1471   -6.0528   25.9078 H   0  0  0  0  0  0
  -22.0600   -2.7611   23.2852 H   0  0  0  0  0  0
  -22.4081  -11.9880   22.4784 H   0  0  0  0  0  0
  -21.1087  -13.1258   22.2618 H   0  0  0  0  0  0
  -24.6500  -15.8427   20.4989 H   0  0  0  0  0  0
  -26.2576  -15.6231   20.0323 H   0  0  0  0  0  0
  -26.7172  -32.5472   23.1096 H   0  0  0  0  0  0
  -25.0119  -33.9712   25.0473 H   0  0  0  0  0  0
  -22.7138  -31.3037   21.4089 H   0  0  0  0  0  0
  -23.3766  -35.9595   23.3325 H   0  0  0  0  0  0
  -24.3568  -36.8881   22.2059 H   0  0  0  0  0  0
  -23.7209  -37.6475   23.6653 H   0  0  0  0  0  0
  -26.0868  -31.5565   20.6036 H   0  0  0  0  0  0
  -26.8389  -30.8425   21.9999 H   0  0  0  0  0  0
  -28.1144  -28.9782   21.1974 H   0  0  0  0  0  0
  -25.9948  -25.9055   19.0431 H   0  0  0  0  0  0
  -23.9654  -27.3067   19.0107 H   0  0  0  0  0  0
  -23.7494  -30.6008   19.4072 H   0  0  0  0  0  0
  -22.7512  -29.2514   19.8592 H   0  0  0  0  0  0
  -25.1283  -36.1975   25.0835 H   0  0  0  0  0  0
  -20.9945  -28.3260   24.1404 H   0  0  0  0  0  0
  -20.5708  -26.2278   23.3603 H   0  0  0  0  0  0
  -21.6654  -26.7456   22.1193 H   0  0  0  0  0  0
  -19.6957  -25.6283   21.1239 H   0  0  0  0  0  0
  -19.6731  -27.3181   20.6737 H   0  0  0  0  0  0
  -17.4218  -26.6646   21.3991 H   0  0  0  0  0  0
  -18.0327  -26.0051   22.8989 H   0  0  0  0  0  0
  -19.7960  -30.7234   24.2250 H   0  0  0  0  0  0
  -17.5052  -31.6272   24.5141 H   0  0  0  0  0  0
  -15.5361  -30.2985   23.7692 H   0  0  0  0  0  0
  -15.8654  -28.0827   22.7075 H   0  0  0  0  0  0
  -24.5946  -30.7016   25.7803 H   0  0  0  0  0  0
  -24.8872  -32.2867   26.4856 H   0  0  0  0  0  0
  -25.8065  -30.8956   27.0258 H   0  0  0  0  0  0
  -26.2948  -29.6766   24.1193 H   0  0  0  0  0  0
  -27.4130  -29.7318   25.4628 H   0  0  0  0  0  0
  -27.8771  -30.4364   23.9332 H   0  0  0  0  0  0
  -27.2698  -33.3665   26.2018 H   0  0  0  0  0  0
  -28.3897  -32.6815   25.0333 H   0  0  0  0  0  0
  -28.0686  -31.8485   26.5455 H   0  0  0  0  0  0
  -28.2602  -38.0103   24.7546 H   0  0  0  0  0  0
  -28.1080  -36.2629   24.6263 H   0  0  0  0  0  0
  -27.2296  -37.1410   25.8872 H   0  0  0  0  0  0
  -20.9399  -29.8730   21.6866 H   0  0  0  0  0  0
  -26.0196  -38.2864   24.1430 H   0  0  0  0  0  0
  -30.5155  -24.1540   20.8395 H   0  0  0  0  0  0
  -29.3211  -18.6197   22.0411 H   0  0  0  0  0  0
  -28.3015  -18.0623   20.7198 H   0  0  0  0  0  0
  -30.7645  -19.6959   18.3435 H   0  0  0  0  0  0
  -31.7359  -19.4926   19.8036 H   0  0  0  0  0  0
  -31.2057  -17.3460   21.2938 H   0  0  0  0  0  0
  -29.9697  -17.3855   18.5118 H   0  0  0  0  0  0
  -25.7008  -24.0224   20.8354 H   0  0  0  0  0  0
  -25.4321  -22.3248   21.0551 H   0  0  0  0  0  0
  -25.5942  -22.9956   19.4300 H   0  0  0  0  0  0
  -25.9397  -20.6895   19.4962 H   0  0  0  0  0  0
  -26.5383  -19.7699   20.8782 H   0  0  0  0  0  0
  -27.2202  -19.5584   19.2602 H   0  0  0  0  0  0
  -33.5122  -22.1785   20.3441 H   0  0  0  0  0  0
  -32.5486  -23.3997   21.1546 H   0  0  0  0  0  0
  -32.3842  -23.1382   19.3993 H   0  0  0  0  0  0
  -28.7272  -25.4858   21.9296 H   0  0  0  0  0  0
  -27.0975  -25.3206   21.5502 H   0  0  0  0  0  0
  -28.9468  -15.6156   21.0045 H   0  0  0  0  0  0
  -32.8146  -17.5301   19.1686 H   0  0  0  0  0  0
  -32.1048  -17.1580   17.7427 H   0  0  0  0  0  0
  -32.0429  -16.1065   19.0123 H   0  0  0  0  0  0
  1 25  1  0  0  0
  1 30  2  0  0  0
  1 86  1  0  0  0
  2  3  1  0  0  0
  2 25  1  0  0  0
  2 89  1  0  0  0
  2 90  1  0  0  0
  3  4  1  0  0  0
  3 91  1  0  0  0
  3 92  1  0  0  0
  4  5  1  0  0  0
  4 93  1  0  0  0
  4 94  1  0  0  0
  5  6  1  0  0  0
  5 26  1  0  0  0
  5 95  1  0  0  0
  6 25  1  0  0  0
  6 96  1  0  0  0
  6 97  1  0  0  0
  7  8  2  0  0  0
  7 26  1  0  0  0
  7 29  1  0  0  0
  8  9  1  0  0  0
  8 22  1  0  0  0
  9 10  1  0  0  0
  9 27  2  0  0  0
 10 11  2  0  0  0
 10 15  1  0  0  0
 11 12  1  0  0  0
 11 98  1  0  0  0
 12 13  2  0  0  0
 12 99  1  0  0  0
 13 14  1  0  0  0
 13 31  1  0  0  0
 14 15  2  0  0  0
 14100  1  0  0  0
 15101  1  0  0  0
 16 17  2  0  0  0
 16 21  1  0  0  0
 16 31  1  0  0  0
 17 18  1  0  0  0
 17102  1  0  0  0
 18 19  2  0  0  0
 18103  1  0  0  0
 19 20  1  0  0  0
 19 24  1  0  0  0
 20 21  2  0  0  0
 20104  1  0  0  0
 21 23  1  0  0  0
 22 28  1  0  0  0
 22 32  2  0  0  0
 26 27  1  0  0  0
 28105  1  0  0  0
 28106  1  0  0  0
 29107  1  0  0  0
 29108  1  0  0  0
 33 34  1  0  0  0
 33 66  1  0  0  0
 33 70  2  0  0  0
 34 36  1  0  0  0
 34 59  1  0  0  0
 34109  1  0  0  0
 35 44  2  0  0  0
 35 45  1  0  0  0
 35 68  1  0  0  0
 36 56  1  0  0  0
 36110  1  0  0  0
 37 39  1  0  0  0
 37 47  1  0  0  0
 37 66  1  0  0  0
 37111  1  0  0  0
 38 43  2  0  0  0
 38 46  1  0  0  0
 38 47  1  0  0  0
 39 64  1  0  0  0
 39 67  2  0  0  0
 40 52  1  0  0  0
 40 53  2  0  0  0
 40 58  1  0  0  0
 41112  1  0  0  0
 41113  1  0  0  0
 41114  1  0  0  0
 41 48  1  0  0  0
 42 43  1  0  0  0
 42 66  1  0  0  0
 42115  1  0  0  0
 42116  1  0  0  0
 43 44  1  0  0  0
 44117  1  0  0  0
 45 46  2  0  0  0
 45118  1  0  0  0
 46119  1  0  0  0
 47120  1  0  0  0
 47121  1  0  0  0
 48 56  1  0  0  0
 48 65  1  0  0  0
 48122  1  0  0  0
 49 50  1  0  0  0
 49 53  1  0  0  0
 49 64  1  0  0  0
 49123  1  0  0  0
 50 51  1  0  0  0
 50124  1  0  0  0
 50125  1  0  0  0
 51 52  1  0  0  0
 51126  1  0  0  0
 51127  1  0  0  0
 52128  1  0  0  0
 52129  1  0  0  0
 53 54  1  0  0  0
 54 55  2  0  0  0
 54130  1  0  0  0
 55 57  1  0  0  0
 55131  1  0  0  0
 56 69  2  0  0  0
 57 58  2  0  0  0
 57132  1  0  0  0
 58133  1  0  0  0
 59 60  1  0  0  0
 59 61  1  0  0  0
 59 62  1  0  0  0
 60134  1  0  0  0
 60135  1  0  0  0
 60136  1  0  0  0
 61137  1  0  0  0
 61138  1  0  0  0
 61139  1  0  0  0
 62140  1  0  0  0
 62141  1  0  0  0
 62142  1  0  0  0
 63 65  1  0  0  0
 63143  1  0  0  0
 63144  1  0  0  0
 63145  1  0  0  0
 64146  1  0  0  0
 65147  1  0  0  0
 68 84  1  0  0  0
 71 72  2  0  0  0
 71 76  1  0  0  0
 71148  1  0  0  0
 72 73  1  0  0  0
 72 84  1  0  0  0
 73 74  2  0  0  0
 73 81  1  0  0  0
 74 75  1  0  0  0
 74 82  1  0  0  0
 75 76  2  0  0  0
 75 85  1  0  0  0
 76 88  1  0  0  0
 77 79  1  0  0  0
 77 85  1  0  0  0
 77149  1  0  0  0
 77150  1  0  0  0
 78 80  1  0  0  0
 78 85  1  0  0  0
 78151  1  0  0  0
 78152  1  0  0  0
 79 80  1  0  0  0
 79 86  1  0  0  0
 79153  1  0  0  0
 80 87  1  0  0  0
 80154  1  0  0  0
 81155  1  0  0  0
 81156  1  0  0  0
 81157  1  0  0  0
 82158  1  0  0  0
 82159  1  0  0  0
 82160  1  0  0  0
 83 88  1  0  0  0
 83161  1  0  0  0
 83162  1  0  0  0
 83163  1  0  0  0
 84164  1  0  0  0
 84165  1  0  0  0
 86166  1  0  0  0
 87167  1  0  0  0
 87168  1  0  0  0
 87169  1  0  0  0
M  CHG  1  87   1
M  ISO  4   1 100  68 101  84 101  86 100
M  END
> <chiral flag>
0

> <version>
0

> <s_m_source_file>
/data/baiqing/PycharmProjects/Reinvent-master-3.2/result/LINK_invent/BTK/process_docking_weight1_custom_sum_contain_oxygen_bond_distance_aromatic_linkinvent_7_9_3/rearranged_h_0160.sdf

> <i_m_source_file_index>
88

> <r_mmod_Potential_Energy-OPLS-2005>
-129.440002441406

> <r_mmod_Stretch_Energy-OPLS-2005>
88.7952651977539

> <r_mmod_Bend_Energy-OPLS-2005>
198.076187133789

> <r_mmod_Torsional_Energy-OPLS-2005>
341.868499755859

> <r_mmod_Improper_Torsional_Energy-OPLS-2005>
7.84758234024048

> <r_mmod_Van_der_Waal_Energy-OPLS-2005>
164.291915893555

> <r_mmod_Electrostatic_Energy-OPLS-2005>
-538.912109375

> <r_mmod_Solvation_Energy-OPLS-2005>
-446.379455566406

> <b_mmod_Minimization_Converged-OPLS-2005>
0

> <r_mmod_RMS_Derivative-OPLS-2005>
2.52087664604187

$$$$
88
                    3D
 Structure written by MMmdl.
161170  0  0  1  0            999 V2000
  -30.7102  -14.5102   20.4994 C   0  0  0  0  0  0
  -30.4095  -12.3136   19.4369 C   0  0  0  0  0  0
  -29.4951  -12.4892   18.2079 C   0  0  0  0  0  0
  -28.0156  -12.3500   18.6186 C   0  0  0  0  0  0
  -27.6510  -13.2169   19.8551 C   0  0  2  0  0  0
  -28.6933  -13.0654   20.9855 C   0  0  0  0  0  0
  -25.2553  -13.8179   20.5686 C   0  0  0  0  0  0
  -24.1823  -13.0437   20.9190 C   0  0  0  0  0  0
  -24.6378  -11.6913   20.8720 C   0  0  0  0  0  0
  -23.9050  -10.4295   21.0396 C   0  0  0  0  0  0
  -24.3610   -9.4217   21.9168 C   0  0  0  0  0  0
  -23.6296   -8.2243   22.0746 C   0  0  0  0  0  0
  -22.4279   -8.0268   21.3541 C   0  0  0  0  0  0
  -21.9897   -9.0245   20.4646 C   0  0  0  0  0  0
  -22.7213  -10.2129   20.3049 C   0  0  0  0  0  0
  -21.6853   -6.0730   22.5287 C   0  0  0  0  0  0
  -21.4012   -6.5635   23.8216 C   0  0  0  0  0  0
  -21.3661   -5.6789   24.9180 C   0  0  0  0  0  0
  -21.6046   -4.3050   24.7228 C   0  0  0  0  0  0
  -21.8820   -3.8139   23.4347 C   0  0  0  0  0  0
  -21.9195   -4.6959   22.3405 C   0  0  0  0  0  0
  -22.7844  -13.5236   21.1858 C   0  0  0  0  0  0
  -22.1666   -4.2147   21.0983 F   0  0  0  0  0  0
  -21.5633   -3.4533   25.7737 F   0  0  0  0  0  0
  -30.0188  -13.3402   20.4180 N   0  0  0  0  0  0
  -26.2974  -12.9366   20.3280 N   0  0  0  0  0  0
  -25.9305  -11.6520   20.5712 N   0  0  0  0  0  0
  -22.0485  -12.8251   22.0419 N   0  0  0  0  0  0
  -25.4262  -15.1899   20.4142 N   0  0  0  0  0  0
  -31.8931  -14.5898   20.1651 O   0  0  0  0  0  0
  -21.6638   -6.8874   21.4244 O   0  0  0  0  0  0
  -22.3540  -14.5537   20.6685 O   0  0  0  0  0  0
  -24.6148  -31.8666   23.2094 C   0  0  0  0  0  0
  -25.9034  -32.4819   23.8397 C   0  0  1  0  0  0
  -27.2325  -27.4145   20.1072 C   0  0  0  0  0  0
  -25.5883  -33.8624   24.2319 N   0  0  0  0  0  0
  -23.4062  -30.4878   21.5494 C   0  0  2  0  0  0
  -24.8551  -28.9474   20.1202 C   0  0  0  0  0  0
  -22.7410  -29.4641   22.4985 C   0  0  0  0  0  0
  -18.0276  -28.1386   22.8497 C   0  0  0  0  0  0
  -24.1483  -36.7310   23.2634 C   0  0  0  0  0  0
  -25.9371  -30.8232   21.3687 C   0  0  0  0  0  0
  -26.0154  -29.4523   20.7236 C   0  0  0  0  0  0
  -27.2092  -28.6908   20.7211 C   0  0  0  0  0  0
  -26.0618  -26.9309   19.4919 C   0  0  0  0  0  0
  -24.8715  -27.6843   19.5032 C   0  0  0  0  0  0
  -23.6176  -29.8160   20.1660 C   0  0  0  0  0  0
  -25.4104  -36.3116   24.0336 C   0  0  1  0  0  0
  -20.5862  -28.3661   23.1323 C   0  0  2  0  0  0
  -20.6776  -26.9396   22.5426 C   0  0  0  0  0  0
  -19.5756  -26.6392   21.5219 C   0  0  0  0  0  0
  -18.1929  -26.7937   22.1623 C   0  0  0  0  0  0
  -19.1526  -28.8840   23.2908 C   0  0  0  0  0  0
  -18.9452  -30.1450   23.8912 C   0  0  0  0  0  0
  -17.6457  -30.6593   24.0568 C   0  0  0  0  0  0
  -25.9036  -34.9480   23.5127 C   0  0  0  0  0  0
  -16.5343  -29.9097   23.6335 C   0  0  0  0  0  0
  -16.7266  -28.6514   23.0346 C   0  0  0  0  0  0
  -26.4462  -31.6605   25.0731 C   0  0  0  0  0  0
  -25.3725  -31.3746   26.1482 C   0  0  0  0  0  0
  -27.0277  -30.3037   24.6114 C   0  0  0  0  0  0
  -27.6064  -32.4316   25.7470 C   0  0  0  0  0  0
  -27.5600  -37.1789   24.8454 C   0  0  0  0  0  0
  -21.4136  -29.3031   22.3728 N   0  0  0  0  0  0
  -26.4291  -37.3795   23.9418 N   0  0  0  0  0  0
  -24.6713  -31.0736   22.1010 N   0  0  0  0  0  0
  -23.4160  -28.8190   23.3049 O   0  0  0  0  0  0
  -28.3737  -26.6443   20.0284 O   0  0  0  0  0  0
  -26.5606  -34.8934   22.4695 O   0  0  0  0  0  0
  -23.5329  -32.1443   23.7460 O   0  0  0  0  0  0
  -29.1039  -18.5214   21.9745 C   0  0  0  0  0  0
  -29.3889  -20.5320   19.9807 C   0  0  0  0  0  0
  -29.7757  -18.2361   20.7726 C   0  0  0  0  0  0
  -29.8823  -19.2222   19.7925 C   0  0  0  0  0  0
  -28.5728  -19.8264   22.1731 C   0  0  0  0  0  0
  -28.7315  -20.8535   21.1964 C   0  0  0  0  0  0
  -30.5983  -18.7096   18.5726 C   0  0  0  0  0  0
  -30.7891  -17.2021   18.8589 C   0  0  0  0  0  0
  -30.5510  -16.9791   20.3796 C   0  0  2  0  0  0
  -27.8506  -20.1351   23.4721 C   0  0  0  0  0  0
  -28.0419  -24.5438   21.4246 C   0  0  0  0  0  0
  -28.7433  -25.9198   21.2097 C   0  0  0  0  0  0
  -28.7010  -23.2802   20.7970 C   0  0  0  0  0  0
  -29.9929  -15.6419   20.6946 N   0  0  0  0  0  0
  -28.2104  -22.1105   21.4787 O   0  0  0  0  0  0
  -31.4580  -12.3892   19.1415 H   0  0  0  0  0  0
  -30.2911  -11.3171   19.8657 H   0  0  0  0  0  0
  -29.7446  -11.7514   17.4441 H   0  0  0  0  0  0
  -29.6643  -13.4673   17.7554 H   0  0  0  0  0  0
  -27.8342  -11.2979   18.8390 H   0  0  0  0  0  0
  -27.3673  -12.5990   17.7777 H   0  0  0  0  0  0
  -27.6742  -14.2528   19.5170 H   0  0  0  0  0  0
  -28.6697  -12.0554   21.3982 H   0  0  0  0  0  0
  -28.4659  -13.7367   21.8148 H   0  0  0  0  0  0
  -25.2756   -9.5705   22.4735 H   0  0  0  0  0  0
  -24.0021   -7.4637   22.7455 H   0  0  0  0  0  0
  -21.0829   -8.8749   19.8956 H   0  0  0  0  0  0
  -22.3657  -10.9664   19.6162 H   0  0  0  0  0  0
  -21.1991   -7.6143   23.9721 H   0  0  0  0  0  0
  -21.1491   -6.0514   25.9087 H   0  0  0  0  0  0
  -22.0591   -2.7602   23.2843 H   0  0  0  0  0  0
  -22.4095  -11.9929   22.4853 H   0  0  0  0  0  0
  -21.1094  -13.1284   22.2586 H   0  0  0  0  0  0
  -24.6575  -15.8420   20.5285 H   0  0  0  0  0  0
  -26.2778  -15.6361   20.0975 H   0  0  0  0  0  0
  -26.7112  -32.5514   23.1171 H   0  0  0  0  0  0
  -25.0055  -33.9800   25.0480 H   0  0  0  0  0  0
  -22.6949  -31.3046   21.4071 H   0  0  0  0  0  0
  -23.3767  -35.9617   23.3262 H   0  0  0  0  0  0
  -24.3603  -36.8956   22.2057 H   0  0  0  0  0  0
  -23.7208  -37.6494   23.6667 H   0  0  0  0  0  0
  -26.0509  -31.5843   20.5947 H   0  0  0  0  0  0
  -26.8246  -30.8798   21.9880 H   0  0  0  0  0  0
  -28.1083  -29.0787   21.1808 H   0  0  0  0  0  0
  -26.0685  -25.9664   19.0053 H   0  0  0  0  0  0
  -23.9806  -27.2912   19.0322 H   0  0  0  0  0  0
  -23.7301  -30.5876   19.4033 H   0  0  0  0  0  0
  -22.7416  -29.2356   19.8719 H   0  0  0  0  0  0
  -25.1277  -36.1974   25.0829 H   0  0  0  0  0  0
  -20.9961  -28.3229   24.1440 H   0  0  0  0  0  0
  -20.5690  -26.2263   23.3611 H   0  0  0  0  0  0
  -21.6652  -26.7471   22.1204 H   0  0  0  0  0  0
  -19.6915  -25.6302   21.1250 H   0  0  0  0  0  0
  -19.6704  -27.3223   20.6758 H   0  0  0  0  0  0
  -17.4210  -26.6698   21.4006 H   0  0  0  0  0  0
  -18.0320  -26.0079   22.9021 H   0  0  0  0  0  0
  -19.7922  -30.7272   24.2283 H   0  0  0  0  0  0
  -17.5012  -31.6275   24.5177 H   0  0  0  0  0  0
  -15.5342  -30.3002   23.7660 H   0  0  0  0  0  0
  -15.8669  -28.0849   22.7028 H   0  0  0  0  0  0
  -24.5876  -30.7115   25.7831 H   0  0  0  0  0  0
  -24.8947  -32.2924   26.4917 H   0  0  0  0  0  0
  -25.8066  -30.8922   27.0249 H   0  0  0  0  0  0
  -26.2828  -29.6799   24.1167 H   0  0  0  0  0  0
  -27.4051  -29.7257   25.4559 H   0  0  0  0  0  0
  -27.8652  -30.4351   23.9262 H   0  0  0  0  0  0
  -27.2724  -33.3623   26.2061 H   0  0  0  0  0  0
  -28.3847  -32.6859   25.0267 H   0  0  0  0  0  0
  -28.0759  -31.8435   26.5364 H   0  0  0  0  0  0
  -28.2577  -38.0130   24.7578 H   0  0  0  0  0  0
  -28.1145  -36.2675   24.6170 H   0  0  0  0  0  0
  -27.2349  -37.1293   25.8863 H   0  0  0  0  0  0
  -20.9303  -29.8726   21.6924 H   0  0  0  0  0  0
  -26.0179  -38.2860   24.1474 H   0  0  0  0  0  0
  -29.0194  -17.7649   22.7419 H   0  0  0  0  0  0
  -29.5179  -21.2637   19.1963 H   0  0  0  0  0  0
  -31.5574  -19.2186   18.4702 H   0  0  0  0  0  0
  -30.0174  -18.8816   17.6658 H   0  0  0  0  0  0
  -31.7505  -16.8249   18.5082 H   0  0  0  0  0  0
  -30.0171  -16.6655   18.3045 H   0  0  0  0  0  0
  -31.5101  -17.0739   20.8944 H   0  0  0  0  0  0
  -27.7776  -19.2541   24.1109 H   0  0  0  0  0  0
  -26.8390  -20.4883   23.2687 H   0  0  0  0  0  0
  -28.3797  -20.9129   24.0242 H   0  0  0  0  0  0
  -26.9922  -24.6015   21.1382 H   0  0  0  0  0  0
  -28.0334  -24.3788   22.5016 H   0  0  0  0  0  0
  -29.8234  -25.7728   21.1912 H   0  0  0  0  0  0
  -28.5570  -26.5536   22.0789 H   0  0  0  0  0  0
  -29.7848  -23.3275   20.9109 H   0  0  0  0  0  0
  -28.4780  -23.2354   19.7306 H   0  0  0  0  0  0
  -29.0147  -15.5663   20.9230 H   0  0  0  0  0  0
  1 25  1  0  0  0
  1 30  2  0  0  0
  1 84  1  0  0  0
  2  3  1  0  0  0
  2 25  1  0  0  0
  2 86  1  0  0  0
  2 87  1  0  0  0
  3  4  1  0  0  0
  3 88  1  0  0  0
  3 89  1  0  0  0
  4  5  1  0  0  0
  4 90  1  0  0  0
  4 91  1  0  0  0
  5  6  1  0  0  0
  5 26  1  0  0  0
  5 92  1  0  0  0
  6 25  1  0  0  0
  6 93  1  0  0  0
  6 94  1  0  0  0
  7  8  2  0  0  0
  7 26  1  0  0  0
  7 29  1  0  0  0
  8  9  1  0  0  0
  8 22  1  0  0  0
  9 10  1  0  0  0
  9 27  2  0  0  0
 10 11  2  0  0  0
 10 15  1  0  0  0
 11 12  1  0  0  0
 11 95  1  0  0  0
 12 13  2  0  0  0
 12 96  1  0  0  0
 13 14  1  0  0  0
 13 31  1  0  0  0
 14 15  2  0  0  0
 14 97  1  0  0  0
 15 98  1  0  0  0
 16 17  2  0  0  0
 16 21  1  0  0  0
 16 31  1  0  0  0
 17 18  1  0  0  0
 17 99  1  0  0  0
 18 19  2  0  0  0
 18100  1  0  0  0
 19 20  1  0  0  0
 19 24  1  0  0  0
 20 21  2  0  0  0
 20101  1  0  0  0
 21 23  1  0  0  0
 22 28  1  0  0  0
 22 32  2  0  0  0
 26 27  1  0  0  0
 28102  1  0  0  0
 28103  1  0  0  0
 29104  1  0  0  0
 29105  1  0  0  0
 33 34  1  0  0  0
 33 66  1  0  0  0
 33 70  2  0  0  0
 34 36  1  0  0  0
 34 59  1  0  0  0
 34106  1  0  0  0
 35 44  2  0  0  0
 35 45  1  0  0  0
 35 68  1  0  0  0
 36 56  1  0  0  0
 36107  1  0  0  0
 37 39  1  0  0  0
 37 47  1  0  0  0
 37 66  1  0  0  0
 37108  1  0  0  0
 38 43  2  0  0  0
 38 46  1  0  0  0
 38 47  1  0  0  0
 39 64  1  0  0  0
 39 67  2  0  0  0
 40 52  1  0  0  0
 40 53  2  0  0  0
 40 58  1  0  0  0
 41109  1  0  0  0
 41110  1  0  0  0
 41111  1  0  0  0
 41 48  1  0  0  0
 42 43  1  0  0  0
 42 66  1  0  0  0
 42112  1  0  0  0
 42113  1  0  0  0
 43 44  1  0  0  0
 44114  1  0  0  0
 45 46  2  0  0  0
 45115  1  0  0  0
 46116  1  0  0  0
 47117  1  0  0  0
 47118  1  0  0  0
 48 56  1  0  0  0
 48 65  1  0  0  0
 48119  1  0  0  0
 49 50  1  0  0  0
 49 53  1  0  0  0
 49 64  1  0  0  0
 49120  1  0  0  0
 50 51  1  0  0  0
 50121  1  0  0  0
 50122  1  0  0  0
 51 52  1  0  0  0
 51123  1  0  0  0
 51124  1  0  0  0
 52125  1  0  0  0
 52126  1  0  0  0
 53 54  1  0  0  0
 54 55  2  0  0  0
 54127  1  0  0  0
 55 57  1  0  0  0
 55128  1  0  0  0
 56 69  2  0  0  0
 57 58  2  0  0  0
 57129  1  0  0  0
 58130  1  0  0  0
 59 60  1  0  0  0
 59 61  1  0  0  0
 59 62  1  0  0  0
 60131  1  0  0  0
 60132  1  0  0  0
 60133  1  0  0  0
 61134  1  0  0  0
 61135  1  0  0  0
 61136  1  0  0  0
 62137  1  0  0  0
 62138  1  0  0  0
 62139  1  0  0  0
 63 65  1  0  0  0
 63140  1  0  0  0
 63141  1  0  0  0
 63142  1  0  0  0
 64143  1  0  0  0
 65144  1  0  0  0
 68 82  1  0  0  0
 71 73  2  0  0  0
 71 75  1  0  0  0
 71145  1  0  0  0
 72 74  2  0  0  0
 72 76  1  0  0  0
 72146  1  0  0  0
 73 74  1  0  0  0
 73 79  1  0  0  0
 74 77  1  0  0  0
 75 76  2  0  0  0
 75 80  1  0  0  0
 76 85  1  0  0  0
 77 78  1  0  0  0
 77147  1  0  0  0
 77148  1  0  0  0
 78 79  1  0  0  0
 78149  1  0  0  0
 78150  1  0  0  0
 79 84  1  0  0  0
 79151  1  0  0  0
 80152  1  0  0  0
 80153  1  0  0  0
 80154  1  0  0  0
 81 82  1  0  0  0
 81 83  1  0  0  0
 81155  1  0  0  0
 81156  1  0  0  0
 82157  1  0  0  0
 82158  1  0  0  0
 83 85  1  0  0  0
 83159  1  0  0  0
 83160  1  0  0  0
 84161  1  0  0  0
M  ISO  4   1 100  68 101  82 101  84 100
M  END
> <chiral flag>
0

> <version>
0

> <s_m_source_file>
/data/baiqing/PycharmProjects/Reinvent-master-3.2/result/LINK_invent/BTK/process_docking_weight1_custom_sum_contain_oxygen_bond_distance_aromatic_linkinvent_7_9_3/rearranged_h_0160.sdf

> <i_m_source_file_index>
89

> <r_mmod_Potential_Energy-OPLS-2005>
-33.1650085449219

> <r_mmod_Stretch_Energy-OPLS-2005>
42.6785736083984

> <r_mmod_Bend_Energy-OPLS-2005>
154.004913330078

> <r_mmod_Torsional_Energy-OPLS-2005>
243.912612915039

> <r_mmod_Improper_Torsional_Energy-OPLS-2005>
6.91681623458862

> <r_mmod_Van_der_Waal_Energy-OPLS-2005>
139.714370727539

> <r_mmod_Electrostatic_Energy-OPLS-2005>
-437.753265380859

> <r_mmod_Solvation_Energy-OPLS-2005>
-204.391891479492

> <b_mmod_Minimization_Converged-OPLS-2005>
0

> <r_mmod_RMS_Derivative-OPLS-2005>
2.00297212600708

$$$$
89
                    3D
 Structure written by MMmdl.
190200  0  0  1  0            999 V2000
  -30.6962  -14.4928   20.5263 C   0  0  0  0  0  0
  -30.4238  -12.3034   19.4370 C   0  0  0  0  0  0
  -29.5012  -12.4961   18.2146 C   0  0  0  0  0  0
  -28.0220  -12.3577   18.6244 C   0  0  0  0  0  0
  -27.6630  -13.2073   19.8729 C   0  0  2  0  0  0
  -28.7058  -13.0103   20.9996 C   0  0  0  0  0  0
  -25.2599  -13.8172   20.5674 C   0  0  0  0  0  0
  -24.1840  -13.0451   20.9169 C   0  0  0  0  0  0
  -24.6390  -11.6914   20.8726 C   0  0  0  0  0  0
  -23.9053  -10.4304   21.0403 C   0  0  0  0  0  0
  -24.3608   -9.4217   21.9181 C   0  0  0  0  0  0
  -23.6280   -8.2256   22.0756 C   0  0  0  0  0  0
  -22.4264   -8.0294   21.3548 C   0  0  0  0  0  0
  -21.9892   -9.0268   20.4649 C   0  0  0  0  0  0
  -22.7223  -10.2143   20.3059 C   0  0  0  0  0  0
  -21.6854   -6.0733   22.5275 C   0  0  0  0  0  0
  -21.4015   -6.5634   23.8208 C   0  0  0  0  0  0
  -21.3662   -5.6782   24.9166 C   0  0  0  0  0  0
  -21.6047   -4.3047   24.7220 C   0  0  0  0  0  0
  -21.8821   -3.8142   23.4339 C   0  0  0  0  0  0
  -21.9192   -4.6961   22.3393 C   0  0  0  0  0  0
  -22.7864  -13.5258   21.1831 C   0  0  0  0  0  0
  -22.1661   -4.2146   21.0971 F   0  0  0  0  0  0
  -21.5628   -3.4529   25.7734 F   0  0  0  0  0  0
  -30.0404  -13.3025   20.4473 N   0  0  0  0  0  0
  -26.3032  -12.9336   20.3352 N   0  0  0  0  0  0
  -25.9321  -11.6496   20.5761 N   0  0  0  0  0  0
  -22.0486  -12.8274   22.0390 N   0  0  0  0  0  0
  -25.4332  -15.1893   20.4077 N   0  0  0  0  0  0
  -31.8275  -14.6558   20.0638 O   0  0  0  0  0  0
  -21.6642   -6.8884   21.4238 O   0  0  0  0  0  0
  -22.3561  -14.5563   20.6670 O   0  0  0  0  0  0
  -24.6161  -31.8673   23.2104 C   0  0  0  0  0  0
  -25.9053  -32.4817   23.8402 C   0  0  1  0  0  0
  -27.2344  -27.4181   20.0901 C   0  0  0  0  0  0
  -25.5906  -33.8619   24.2330 N   0  0  0  0  0  0
  -23.4043  -30.4918   21.5521 C   0  0  2  0  0  0
  -24.8492  -28.9594   20.1144 C   0  0  0  0  0  0
  -22.7416  -29.4652   22.4988 C   0  0  0  0  0  0
  -18.0277  -28.1379   22.8491 C   0  0  0  0  0  0
  -24.1486  -36.7310   23.2635 C   0  0  0  0  0  0
  -25.9363  -30.8256   21.3692 C   0  0  0  0  0  0
  -26.0110  -29.4603   20.7135 C   0  0  0  0  0  0
  -27.2027  -28.6955   20.7026 C   0  0  0  0  0  0
  -26.0474  -26.9415   19.4809 C   0  0  0  0  0  0
  -24.8629  -27.6986   19.4980 C   0  0  0  0  0  0
  -23.6126  -29.8273   20.1656 C   0  0  0  0  0  0
  -25.4104  -36.3105   24.0337 C   0  0  1  0  0  0
  -20.5865  -28.3661   23.1312 C   0  0  2  0  0  0
  -20.6765  -26.9397   22.5414 C   0  0  0  0  0  0
  -19.5742  -26.6381   21.5214 C   0  0  0  0  0  0
  -18.1921  -26.7923   22.1625 C   0  0  0  0  0  0
  -19.1524  -28.8837   23.2897 C   0  0  0  0  0  0
  -18.9453  -30.1445   23.8904 C   0  0  0  0  0  0
  -17.6454  -30.6582   24.0564 C   0  0  0  0  0  0
  -25.9034  -34.9470   23.5128 C   0  0  0  0  0  0
  -16.5347  -29.9083   23.6328 C   0  0  0  0  0  0
  -16.7264  -28.6502   23.0347 C   0  0  0  0  0  0
  -26.4473  -31.6605   25.0736 C   0  0  0  0  0  0
  -25.3742  -31.3739   26.1497 C   0  0  0  0  0  0
  -27.0290  -30.3034   24.6135 C   0  0  0  0  0  0
  -27.6060  -32.4324   25.7484 C   0  0  0  0  0  0
  -27.5580  -37.1801   24.8459 C   0  0  0  0  0  0
  -21.4142  -29.3029   22.3722 N   0  0  0  0  0  0
  -26.4290  -37.3790   23.9409 N   0  0  0  0  0  0
  -24.6703  -31.0763   22.1018 N   0  0  0  0  0  0
  -23.4182  -28.8187   23.3032 O   0  0  0  0  0  0
  -28.4085  -26.6798   20.1191 O   0  0  0  0  0  0
  -26.5591  -34.8921   22.4688 O   0  0  0  0  0  0
  -23.5350  -32.1439   23.7489 O   0  0  0  0  0  0
  -30.6354  -24.7360   17.1490 C   0  0  0  0  0  0
  -30.7548  -25.0636   15.7724 C   0  0  0  0  0  0
  -30.0381  -24.3196   14.8043 C   0  0  0  0  0  0
  -29.2204  -23.2364   15.2114 C   0  0  0  0  0  0
  -29.0549  -22.9466   16.5924 C   0  0  0  0  0  0
  -29.8353  -23.6351   17.5715 C   0  0  0  0  0  0
  -31.3088  -25.6454   18.1814 C   0  0  0  0  0  0
  -30.9718  -25.3426   19.6458 C   0  0  0  0  0  0
  -29.1960  -17.8523   21.5063 C   0  0  0  0  0  0
  -31.3779  -17.6039   20.3215 C   0  0  0  0  0  0
  -29.1385  -19.3398   21.0582 C   0  0  0  0  0  0
  -31.2728  -19.0837   19.8671 C   0  0  0  0  0  0
  -29.9845  -16.9587   20.5206 C   0  0  1  0  0  0
  -29.6888  -24.5166   19.8257 C   0  0  1  0  0  0
  -31.6416  -26.2288   15.3224 C   0  0  0  0  0  0
  -30.1055  -24.7164   13.3274 C   0  0  0  0  0  0
  -28.5060  -22.3916   14.1557 C   0  0  0  0  0  0
  -27.9376  -21.9855   17.0015 C   0  0  0  0  0  0
  -32.0090  -21.9021   20.6064 C   0  0  0  0  0  0
  -28.3955  -25.3537   19.5562 C   0  0  0  0  0  0
  -29.7067  -21.9037   19.3928 C   0  0  0  0  0  0
  -30.5479  -21.4113   20.6205 C   0  0  1  0  0  0
  -29.7845  -23.3263   18.9600 N   0  0  0  0  0  0
  -29.9443  -15.5338   20.9428 N   0  0  0  0  0  0
  -30.4962  -19.9146   20.8342 N   0  3  1  0  0  0
  -31.4706  -12.3870   19.1385 H   0  0  0  0  0  0
  -30.3134  -11.2982   19.8460 H   0  0  0  0  0  0
  -29.7427  -11.7642   17.4420 H   0  0  0  0  0  0
  -29.6715  -13.4775   17.7701 H   0  0  0  0  0  0
  -27.8325  -11.3035   18.8270 H   0  0  0  0  0  0
  -27.3758  -12.6257   17.7881 H   0  0  0  0  0  0
  -27.7012  -14.2507   19.5596 H   0  0  0  0  0  0
  -28.6802  -11.9827   21.3652 H   0  0  0  0  0  0
  -28.4694  -13.6331   21.8639 H   0  0  0  0  0  0
  -25.2749   -9.5686   22.4749 H   0  0  0  0  0  0
  -23.9987   -7.4645   22.7474 H   0  0  0  0  0  0
  -21.0816   -8.8786   19.8959 H   0  0  0  0  0  0
  -22.3679  -10.9681   19.6168 H   0  0  0  0  0  0
  -21.2011   -7.6140   23.9707 H   0  0  0  0  0  0
  -21.1478   -6.0514   25.9067 H   0  0  0  0  0  0
  -22.0597   -2.7603   23.2845 H   0  0  0  0  0  0
  -22.4076  -11.9943   22.4815 H   0  0  0  0  0  0
  -21.1109  -13.1340   22.2583 H   0  0  0  0  0  0
  -24.6663  -15.8451   20.5134 H   0  0  0  0  0  0
  -26.2833  -15.6228   20.0710 H   0  0  0  0  0  0
  -26.7120  -32.5517   23.1161 H   0  0  0  0  0  0
  -25.0066  -33.9783   25.0480 H   0  0  0  0  0  0
  -22.6946  -31.3098   21.4143 H   0  0  0  0  0  0
  -23.3742  -35.9648   23.3308 H   0  0  0  0  0  0
  -24.3579  -36.8914   22.2047 H   0  0  0  0  0  0
  -23.7248  -37.6522   23.6643 H   0  0  0  0  0  0
  -26.0564  -31.5935   20.6036 H   0  0  0  0  0  0
  -26.8213  -30.8740   21.9914 H   0  0  0  0  0  0
  -28.0980  -29.0773   21.1733 H   0  0  0  0  0  0
  -26.0033  -25.9840   18.9846 H   0  0  0  0  0  0
  -23.9697  -27.3072   19.0310 H   0  0  0  0  0  0
  -23.7210  -30.6039   19.4075 H   0  0  0  0  0  0
  -22.7357  -29.2489   19.8690 H   0  0  0  0  0  0
  -25.1278  -36.1971   25.0829 H   0  0  0  0  0  0
  -20.9957  -28.3231   24.1433 H   0  0  0  0  0  0
  -20.5674  -26.2265   23.3598 H   0  0  0  0  0  0
  -21.6639  -26.7443   22.1207 H   0  0  0  0  0  0
  -19.6901  -25.6297   21.1230 H   0  0  0  0  0  0
  -19.6679  -27.3201   20.6753 H   0  0  0  0  0  0
  -17.4188  -26.6671   21.4033 H   0  0  0  0  0  0
  -18.0321  -26.0069   22.9023 H   0  0  0  0  0  0
  -19.7928  -30.7265   24.2272 H   0  0  0  0  0  0
  -17.5009  -31.6264   24.5161 H   0  0  0  0  0  0
  -15.5346  -30.2986   23.7649 H   0  0  0  0  0  0
  -15.8665  -28.0825   22.7055 H   0  0  0  0  0  0
  -24.5883  -30.7116   25.7848 H   0  0  0  0  0  0
  -24.8976  -32.2912   26.4967 H   0  0  0  0  0  0
  -25.8097  -30.8889   27.0241 H   0  0  0  0  0  0
  -26.2832  -29.6806   24.1178 H   0  0  0  0  0  0
  -27.4023  -29.7269   25.4608 H   0  0  0  0  0  0
  -27.8692  -30.4328   23.9309 H   0  0  0  0  0  0
  -27.2689  -33.3620   26.2082 H   0  0  0  0  0  0
  -28.3851  -32.6889   25.0294 H   0  0  0  0  0  0
  -28.0744  -31.8437   26.5379 H   0  0  0  0  0  0
  -28.2599  -38.0097   24.7515 H   0  0  0  0  0  0
  -28.1076  -36.2634   24.6272 H   0  0  0  0  0  0
  -27.2300  -37.1440   25.8862 H   0  0  0  0  0  0
  -20.9298  -29.8755   21.6949 H   0  0  0  0  0  0
  -26.0179  -38.2862   24.1429 H   0  0  0  0  0  0
  -30.9985  -26.6699   17.9733 H   0  0  0  0  0  0
  -32.3911  -25.6067   18.0545 H   0  0  0  0  0  0
  -30.9426  -26.2625   20.2304 H   0  0  0  0  0  0
  -31.8126  -24.7925   20.0540 H   0  0  0  0  0  0
  -28.1772  -17.4775   21.6155 H   0  0  0  0  0  0
  -29.6487  -17.7899   22.4976 H   0  0  0  0  0  0
  -31.9610  -17.5348   21.2401 H   0  0  0  0  0  0
  -31.9446  -17.0745   19.5556 H   0  0  0  0  0  0
  -28.6125  -19.9234   21.8145 H   0  0  0  0  0  0
  -28.5494  -19.4159   20.1441 H   0  0  0  0  0  0
  -30.8067  -19.1353   18.8825 H   0  0  0  0  0  0
  -32.2844  -19.4687   19.7444 H   0  0  0  0  0  0
  -29.4708  -16.9857   19.5572 H   0  0  0  0  0  0
  -29.6529  -24.1922   20.8667 H   0  0  0  0  0  0
  -32.4352  -26.4743   16.0248 H   0  0  0  0  0  0
  -31.0405  -27.1261   15.1707 H   0  0  0  0  0  0
  -32.1545  -26.0002   14.3881 H   0  0  0  0  0  0
  -30.2422  -25.7886   13.1921 H   0  0  0  0  0  0
  -29.1833  -24.4891   12.7943 H   0  0  0  0  0  0
  -30.9260  -24.2007   12.8290 H   0  0  0  0  0  0
  -29.1074  -22.2842   13.2530 H   0  0  0  0  0  0
  -27.5511  -22.8416   13.8815 H   0  0  0  0  0  0
  -28.3255  -21.3722   14.4960 H   0  0  0  0  0  0
  -27.1144  -21.9848   16.2881 H   0  0  0  0  0  0
  -27.4759  -22.3019   17.9351 H   0  0  0  0  0  0
  -28.3019  -20.9634   17.0994 H   0  0  0  0  0  0
  -32.0758  -22.9320   20.9384 H   0  0  0  0  0  0
  -32.4533  -21.8343   19.6129 H   0  0  0  0  0  0
  -32.6332  -21.3359   21.2986 H   0  0  0  0  0  0
  -27.5583  -24.7809   19.9568 H   0  0  0  0  0  0
  -28.2211  -25.4693   18.4858 H   0  0  0  0  0  0
  -28.6620  -21.6754   19.5968 H   0  0  0  0  0  0
  -30.0066  -21.2916   18.5430 H   0  0  0  0  0  0
  -30.0931  -21.8454   21.5123 H   0  0  0  0  0  0
  -29.0705  -15.2416   21.3561 H   0  0  0  0  0  0
  -30.9697  -19.7938   21.7174 H   0  0  0  0  0  0
  1 25  1  0  0  0
  1 30  2  0  0  0
  1 94  1  0  0  0
  2  3  1  0  0  0
  2 25  1  0  0  0
  2 96  1  0  0  0
  2 97  1  0  0  0
  3  4  1  0  0  0
  3 98  1  0  0  0
  3 99  1  0  0  0
  4  5  1  0  0  0
  4100  1  0  0  0
  4101  1  0  0  0
  5  6  1  0  0  0
  5 26  1  0  0  0
  5102  1  0  0  0
  6 25  1  0  0  0
  6103  1  0  0  0
  6104  1  0  0  0
  7  8  2  0  0  0
  7 26  1  0  0  0
  7 29  1  0  0  0
  8  9  1  0  0  0
  8 22  1  0  0  0
  9 10  1  0  0  0
  9 27  2  0  0  0
 10 11  2  0  0  0
 10 15  1  0  0  0
 11 12  1  0  0  0
 11105  1  0  0  0
 12 13  2  0  0  0
 12106  1  0  0  0
 13 14  1  0  0  0
 13 31  1  0  0  0
 14 15  2  0  0  0
 14107  1  0  0  0
 15108  1  0  0  0
 16 17  2  0  0  0
 16 21  1  0  0  0
 16 31  1  0  0  0
 17 18  1  0  0  0
 17109  1  0  0  0
 18 19  2  0  0  0
 18110  1  0  0  0
 19 20  1  0  0  0
 19 24  1  0  0  0
 20 21  2  0  0  0
 20111  1  0  0  0
 21 23  1  0  0  0
 22 28  1  0  0  0
 22 32  2  0  0  0
 26 27  1  0  0  0
 28112  1  0  0  0
 28113  1  0  0  0
 29114  1  0  0  0
 29115  1  0  0  0
 33 34  1  0  0  0
 33 66  1  0  0  0
 33 70  2  0  0  0
 34 36  1  0  0  0
 34 59  1  0  0  0
 34116  1  0  0  0
 35 44  2  0  0  0
 35 45  1  0  0  0
 35 68  1  0  0  0
 36 56  1  0  0  0
 36117  1  0  0  0
 37 39  1  0  0  0
 37 47  1  0  0  0
 37 66  1  0  0  0
 37118  1  0  0  0
 38 43  2  0  0  0
 38 46  1  0  0  0
 38 47  1  0  0  0
 39 64  1  0  0  0
 39 67  2  0  0  0
 40 52  1  0  0  0
 40 53  2  0  0  0
 40 58  1  0  0  0
 41119  1  0  0  0
 41120  1  0  0  0
 41121  1  0  0  0
 41 48  1  0  0  0
 42 43  1  0  0  0
 42 66  1  0  0  0
 42122  1  0  0  0
 42123  1  0  0  0
 43 44  1  0  0  0
 44124  1  0  0  0
 45 46  2  0  0  0
 45125  1  0  0  0
 46126  1  0  0  0
 47127  1  0  0  0
 47128  1  0  0  0
 48 56  1  0  0  0
 48 65  1  0  0  0
 48129  1  0  0  0
 49 50  1  0  0  0
 49 53  1  0  0  0
 49 64  1  0  0  0
 49130  1  0  0  0
 50 51  1  0  0  0
 50131  1  0  0  0
 50132  1  0  0  0
 51 52  1  0  0  0
 51133  1  0  0  0
 51134  1  0  0  0
 52135  1  0  0  0
 52136  1  0  0  0
 53 54  1  0  0  0
 54 55  2  0  0  0
 54137  1  0  0  0
 55 57  1  0  0  0
 55138  1  0  0  0
 56 69  2  0  0  0
 57 58  2  0  0  0
 57139  1  0  0  0
 58140  1  0  0  0
 59 60  1  0  0  0
 59 61  1  0  0  0
 59 62  1  0  0  0
 60141  1  0  0  0
 60142  1  0  0  0
 60143  1  0  0  0
 61144  1  0  0  0
 61145  1  0  0  0
 61146  1  0  0  0
 62147  1  0  0  0
 62148  1  0  0  0
 62149  1  0  0  0
 63 65  1  0  0  0
 63150  1  0  0  0
 63151  1  0  0  0
 63152  1  0  0  0
 64153  1  0  0  0
 65154  1  0  0  0
 68 90  1  0  0  0
 71 72  2  0  0  0
 71 76  1  0  0  0
 71 77  1  0  0  0
 72 73  1  0  0  0
 72 85  1  0  0  0
 73 74  2  0  0  0
 73 86  1  0  0  0
 74 75  1  0  0  0
 74 87  1  0  0  0
 75 76  2  0  0  0
 75 88  1  0  0  0
 76 93  1  0  0  0
 77 78  1  0  0  0
 77155  1  0  0  0
 77156  1  0  0  0
 78 84  1  0  0  0
 78157  1  0  0  0
 78158  1  0  0  0
 79 81  1  0  0  0
 79 83  1  0  0  0
 79159  1  0  0  0
 79160  1  0  0  0
 80 82  1  0  0  0
 80 83  1  0  0  0
 80161  1  0  0  0
 80162  1  0  0  0
 81163  1  0  0  0
 81164  1  0  0  0
 81 95  1  0  0  0
 82 95  1  0  0  0
 82165  1  0  0  0
 82166  1  0  0  0
 83 94  1  0  0  0
 83167  1  0  0  0
 84 90  1  0  0  0
 84 93  1  0  0  0
 84168  1  0  0  0
 85169  1  0  0  0
 85170  1  0  0  0
 85171  1  0  0  0
 86172  1  0  0  0
 86173  1  0  0  0
 86174  1  0  0  0
 87175  1  0  0  0
 87176  1  0  0  0
 87177  1  0  0  0
 88178  1  0  0  0
 88179  1  0  0  0
 88180  1  0  0  0
 89181  1  0  0  0
 89182  1  0  0  0
 89183  1  0  0  0
 89 92  1  0  0  0
 90184  1  0  0  0
 90185  1  0  0  0
 91 92  1  0  0  0
 91 93  1  0  0  0
 91186  1  0  0  0
 91187  1  0  0  0
 92 95  1  0  0  0
 92188  1  0  0  0
 94189  1  0  0  0
 95190  1  0  0  0
M  CHG  1  95   1
M  ISO  4   1 100  68 101  90 101  94 100
M  END
> <chiral flag>
0

> <version>
0

> <s_m_source_file>
/data/baiqing/PycharmProjects/Reinvent-master-3.2/result/LINK_invent/BTK/process_docking_weight1_custom_sum_contain_oxygen_bond_distance_aromatic_linkinvent_7_9_3/rearranged_h_0160.sdf

> <i_m_source_file_index>
90

> <r_mmod_Potential_Energy-OPLS-2005>
-37.4112091064453

> <r_mmod_Stretch_Energy-OPLS-2005>
58.2653427124023

> <r_mmod_Bend_Energy-OPLS-2005>
148.225128173828

> <r_mmod_Torsional_Energy-OPLS-2005>
294.806762695312

> <r_mmod_Improper_Torsional_Energy-OPLS-2005>
6.95487213134766

> <r_mmod_Van_der_Waal_Energy-OPLS-2005>
197.382186889648

> <r_mmod_Electrostatic_Energy-OPLS-2005>
-323.399444580078

> <r_mmod_Solvation_Energy-OPLS-2005>
-435.787811279297

> <b_mmod_Minimization_Converged-OPLS-2005>
0

> <r_mmod_RMS_Derivative-OPLS-2005>
1.6730523109436

$$$$
90
                    3D
 Structure written by MMmdl.
158167  0  0  1  0            999 V2000
  -30.6973  -14.5875   20.4902 C   0  0  0  0  0  0
  -30.4143  -12.3613   19.4511 C   0  0  0  0  0  0
  -29.4960  -12.4898   18.2193 C   0  0  0  0  0  0
  -28.0198  -12.3439   18.6345 C   0  0  0  0  0  0
  -27.6467  -13.2260   19.8572 C   0  0  2  0  0  0
  -28.6936  -13.1181   20.9877 C   0  0  0  0  0  0
  -25.2535  -13.8198   20.5710 C   0  0  0  0  0  0
  -24.1808  -13.0448   20.9193 C   0  0  0  0  0  0
  -24.6392  -11.6924   20.8748 C   0  0  0  0  0  0
  -23.9068  -10.4299   21.0406 C   0  0  0  0  0  0
  -24.3621   -9.4212   21.9183 C   0  0  0  0  0  0
  -23.6298   -8.2246   22.0753 C   0  0  0  0  0  0
  -22.4279   -8.0283   21.3544 C   0  0  0  0  0  0
  -21.9916   -9.0256   20.4647 C   0  0  0  0  0  0
  -22.7242  -10.2137   20.3057 C   0  0  0  0  0  0
  -21.6853   -6.0737   22.5279 C   0  0  0  0  0  0
  -21.4014   -6.5641   23.8212 C   0  0  0  0  0  0
  -21.3661   -5.6795   24.9175 C   0  0  0  0  0  0
  -21.6045   -4.3057   24.7225 C   0  0  0  0  0  0
  -21.8818   -3.8149   23.4346 C   0  0  0  0  0  0
  -21.9193   -4.6965   22.3402 C   0  0  0  0  0  0
  -22.7829  -13.5230   21.1858 C   0  0  0  0  0  0
  -22.1660   -4.2151   21.0979 F   0  0  0  0  0  0
  -21.5632   -3.4542   25.7740 F   0  0  0  0  0  0
  -30.0077  -13.4107   20.4043 N   0  0  0  0  0  0
  -26.2966  -12.9398   20.3333 N   0  0  0  0  0  0
  -25.9325  -11.6543   20.5777 N   0  0  0  0  0  0
  -22.0480  -12.8217   22.0416 N   0  0  0  0  0  0
  -25.4263  -15.1920   20.4151 N   0  0  0  0  0  0
  -31.8891  -14.6510   20.1732 O   0  0  0  0  0  0
  -21.6641   -6.8881   21.4241 O   0  0  0  0  0  0
  -22.3509  -14.5536   20.6711 O   0  0  0  0  0  0
  -24.6252  -31.8635   23.2083 C   0  0  0  0  0  0
  -25.9114  -32.4797   23.8391 C   0  0  1  0  0  0
  -27.2093  -27.3376   20.1017 C   0  0  0  0  0  0
  -25.5942  -33.8599   24.2312 N   0  0  0  0  0  0
  -23.4156  -30.4928   21.5517 C   0  0  2  0  0  0
  -24.8577  -28.9619   20.1087 C   0  0  0  0  0  0
  -22.7461  -29.4653   22.4954 C   0  0  0  0  0  0
  -18.0284  -28.1383   22.8495 C   0  0  0  0  0  0
  -24.1488  -36.7299   23.2634 C   0  0  0  0  0  0
  -25.9584  -30.7988   21.3795 C   0  0  0  0  0  0
  -26.0291  -29.4312   20.7162 C   0  0  0  0  0  0
  -27.2085  -28.6296   20.7085 C   0  0  0  0  0  0
  -26.0132  -26.9334   19.4556 C   0  0  0  0  0  0
  -24.8508  -27.7169   19.4712 C   0  0  0  0  0  0
  -23.6269  -29.8395   20.1632 C   0  0  0  0  0  0
  -25.4110  -36.3094   24.0331 C   0  0  1  0  0  0
  -20.5883  -28.3689   23.1289 C   0  0  2  0  0  0
  -20.6778  -26.9416   22.5409 C   0  0  0  0  0  0
  -19.5747  -26.6387   21.5217 C   0  0  0  0  0  0
  -18.1928  -26.7927   22.1633 C   0  0  0  0  0  0
  -19.1536  -28.8853   23.2887 C   0  0  0  0  0  0
  -18.9458  -30.1457   23.8901 C   0  0  0  0  0  0
  -17.6458  -30.6588   24.0568 C   0  0  0  0  0  0
  -25.9052  -34.9463   23.5117 C   0  0  0  0  0  0
  -16.5350  -29.9086   23.6333 C   0  0  0  0  0  0
  -16.7272  -28.6502   23.0358 C   0  0  0  0  0  0
  -26.4501  -31.6592   25.0749 C   0  0  0  0  0  0
  -25.3743  -31.3722   26.1483 C   0  0  0  0  0  0
  -27.0332  -30.3014   24.6191 C   0  0  0  0  0  0
  -27.6069  -32.4317   25.7508 C   0  0  0  0  0  0
  -27.5589  -37.1794   24.8456 C   0  0  0  0  0  0
  -21.4179  -29.3050   22.3688 N   0  0  0  0  0  0
  -26.4286  -37.3792   23.9423 N   0  0  0  0  0  0
  -24.6854  -31.0667   22.1032 N   0  0  0  0  0  0
  -23.4197  -28.8178   23.3013 O   0  0  0  0  0  0
  -28.3094  -26.4676   20.1699 O   0  0  0  0  0  0
  -26.5608  -34.8920   22.4674 O   0  0  0  0  0  0
  -23.5423  -32.1431   23.7421 O   0  0  0  0  0  0
  -28.4796  -22.5483   20.3669 C   0  0  0  0  0  0
  -31.1680  -22.8621   20.5693 C   0  0  0  0  0  0
  -28.9889  -23.8832   20.2555 C   0  0  0  0  0  0
  -30.3912  -24.0246   20.3580 C   0  0  0  0  0  0
  -29.3379  -21.4305   20.5605 C   0  0  0  0  0  0
  -28.9765  -17.8570   19.5270 C   0  0  0  0  0  0
  -29.6660  -18.0307   21.8584 C   0  0  0  0  0  0
  -29.7714  -16.5220   19.3945 C   0  0  0  0  0  0
  -30.4485  -16.6808   21.7218 C   0  0  0  0  0  0
  -29.5960  -18.8424   20.5430 C   0  0  0  0  0  0
  -28.0078  -25.0449   19.9158 C   0  0  0  0  0  0
  -30.6688  -21.6020   20.6631 N   0  0  0  0  0  0
  -29.9878  -15.7564   20.6512 N   0  0  0  0  0  0
  -28.8190  -20.1098   20.6532 N   0  0  0  0  0  0
  -31.1784  -25.5559   20.2015 Cl  0  0  0  0  0  0
  -31.4602  -12.4457   19.1510 H   0  0  0  0  0  0
  -30.3132  -11.3759   19.9084 H   0  0  0  0  0  0
  -29.7516  -11.7326   17.4768 H   0  0  0  0  0  0
  -29.6516  -13.4563   17.7371 H   0  0  0  0  0  0
  -27.8503  -11.2931   18.8723 H   0  0  0  0  0  0
  -27.3660  -12.5722   17.7919 H   0  0  0  0  0  0
  -27.6546  -14.2564   19.5030 H   0  0  0  0  0  0
  -28.6908  -12.1202   21.4284 H   0  0  0  0  0  0
  -28.4598  -13.8146   21.7949 H   0  0  0  0  0  0
  -25.2765   -9.5689   22.4758 H   0  0  0  0  0  0
  -24.0011   -7.4636   22.7471 H   0  0  0  0  0  0
  -21.0847   -8.8772   19.8952 H   0  0  0  0  0  0
  -22.3697  -10.9675   19.6169 H   0  0  0  0  0  0
  -21.2002   -7.6148   23.9716 H   0  0  0  0  0  0
  -21.1485   -6.0525   25.9079 H   0  0  0  0  0  0
  -22.0596   -2.7612   23.2847 H   0  0  0  0  0  0
  -22.4105  -11.9879   22.4800 H   0  0  0  0  0  0
  -21.1097  -13.1235   22.2628 H   0  0  0  0  0  0
  -24.6686  -15.8545   20.5388 H   0  0  0  0  0  0
  -26.2956  -15.6299   20.1372 H   0  0  0  0  0  0
  -26.7181  -32.5465   23.1139 H   0  0  0  0  0  0
  -25.0102  -33.9752   25.0466 H   0  0  0  0  0  0
  -22.7086  -31.3140   21.4161 H   0  0  0  0  0  0
  -23.3763  -35.9617   23.3268 H   0  0  0  0  0  0
  -24.3593  -36.8948   22.2056 H   0  0  0  0  0  0
  -23.7220  -37.6485   23.6669 H   0  0  0  0  0  0
  -26.0919  -31.5657   20.6151 H   0  0  0  0  0  0
  -26.8388  -30.8413   22.0089 H   0  0  0  0  0  0
  -28.1038  -28.9806   21.2025 H   0  0  0  0  0  0
  -25.9241  -25.9924   18.9352 H   0  0  0  0  0  0
  -23.9546  -27.3548   18.9860 H   0  0  0  0  0  0
  -23.7453  -30.6217   19.4123 H   0  0  0  0  0  0
  -22.7460  -29.2713   19.8583 H   0  0  0  0  0  0
  -25.1283  -36.1949   25.0822 H   0  0  0  0  0  0
  -20.9979  -28.3265   24.1408 H   0  0  0  0  0  0
  -20.5699  -26.2298   23.3606 H   0  0  0  0  0  0
  -21.6645  -26.7461   22.1188 H   0  0  0  0  0  0
  -19.6908  -25.6301   21.1241 H   0  0  0  0  0  0
  -19.6675  -27.3206   20.6752 H   0  0  0  0  0  0
  -17.4197  -26.6683   21.4034 H   0  0  0  0  0  0
  -18.0325  -26.0065   22.9025 H   0  0  0  0  0  0
  -19.7934  -30.7276   24.2269 H   0  0  0  0  0  0
  -17.5010  -31.6267   24.5169 H   0  0  0  0  0  0
  -15.5350  -30.2988   23.7649 H   0  0  0  0  0  0
  -15.8674  -28.0818   22.7074 H   0  0  0  0  0  0
  -24.5903  -30.7090   25.7812 H   0  0  0  0  0  0
  -24.8958  -32.2889   26.4940 H   0  0  0  0  0  0
  -25.8080  -30.8872   27.0239 H   0  0  0  0  0  0
  -26.2900  -29.6771   24.1220 H   0  0  0  0  0  0
  -27.4035  -29.7263   25.4689 H   0  0  0  0  0  0
  -27.8772  -30.4297   23.9409 H   0  0  0  0  0  0
  -27.2692  -33.3620   26.2086 H   0  0  0  0  0  0
  -28.3874  -32.6873   25.0329 H   0  0  0  0  0  0
  -28.0739  -31.8440   26.5421 H   0  0  0  0  0  0
  -28.2568  -38.0131   24.7569 H   0  0  0  0  0  0
  -28.1125  -36.2668   24.6195 H   0  0  0  0  0  0
  -27.2318  -37.1340   25.8858 H   0  0  0  0  0  0
  -20.9346  -29.8784   21.6914 H   0  0  0  0  0  0
  -26.0167  -38.2858   24.1466 H   0  0  0  0  0  0
  -27.4139  -22.3907   20.2729 H   0  0  0  0  0  0
  -32.2422  -22.9424   20.6470 H   0  0  0  0  0  0
  -27.9472  -17.6293   19.8086 H   0  0  0  0  0  0
  -28.9210  -18.3329   18.5468 H   0  0  0  0  0  0
  -30.1347  -18.6376   22.6341 H   0  0  0  0  0  0
  -28.6564  -17.8188   22.2135 H   0  0  0  0  0  0
  -30.7422  -16.7479   18.9477 H   0  0  0  0  0  0
  -29.2577  -15.8829   18.6741 H   0  0  0  0  0  0
  -30.4079  -16.1538   22.6767 H   0  0  0  0  0  0
  -31.5023  -16.9140   21.5550 H   0  0  0  0  0  0
  -30.6113  -19.0767   20.2194 H   0  0  0  0  0  0
  -27.0918  -24.7890   20.4512 H   0  0  0  0  0  0
  -27.8039  -24.9316   18.8505 H   0  0  0  0  0  0
  -27.8108  -20.0182   20.5921 H   0  0  0  0  0  0
  1 25  1  0  0  0
  1 30  2  0  0  0
  1 83  1  0  0  0
  2  3  1  0  0  0
  2 25  1  0  0  0
  2 86  1  0  0  0
  2 87  1  0  0  0
  3  4  1  0  0  0
  3 88  1  0  0  0
  3 89  1  0  0  0
  4  5  1  0  0  0
  4 90  1  0  0  0
  4 91  1  0  0  0
  5  6  1  0  0  0
  5 26  1  0  0  0
  5 92  1  0  0  0
  6 25  1  0  0  0
  6 93  1  0  0  0
  6 94  1  0  0  0
  7  8  2  0  0  0
  7 26  1  0  0  0
  7 29  1  0  0  0
  8  9  1  0  0  0
  8 22  1  0  0  0
  9 10  1  0  0  0
  9 27  2  0  0  0
 10 11  2  0  0  0
 10 15  1  0  0  0
 11 12  1  0  0  0
 11 95  1  0  0  0
 12 13  2  0  0  0
 12 96  1  0  0  0
 13 14  1  0  0  0
 13 31  1  0  0  0
 14 15  2  0  0  0
 14 97  1  0  0  0
 15 98  1  0  0  0
 16 17  2  0  0  0
 16 21  1  0  0  0
 16 31  1  0  0  0
 17 18  1  0  0  0
 17 99  1  0  0  0
 18 19  2  0  0  0
 18100  1  0  0  0
 19 20  1  0  0  0
 19 24  1  0  0  0
 20 21  2  0  0  0
 20101  1  0  0  0
 21 23  1  0  0  0
 22 28  1  0  0  0
 22 32  2  0  0  0
 26 27  1  0  0  0
 28102  1  0  0  0
 28103  1  0  0  0
 29104  1  0  0  0
 29105  1  0  0  0
 33 34  1  0  0  0
 33 66  1  0  0  0
 33 70  2  0  0  0
 34 36  1  0  0  0
 34 59  1  0  0  0
 34106  1  0  0  0
 35 44  2  0  0  0
 35 45  1  0  0  0
 35 68  1  0  0  0
 36 56  1  0  0  0
 36107  1  0  0  0
 37 39  1  0  0  0
 37 47  1  0  0  0
 37 66  1  0  0  0
 37108  1  0  0  0
 38 43  2  0  0  0
 38 46  1  0  0  0
 38 47  1  0  0  0
 39 64  1  0  0  0
 39 67  2  0  0  0
 40 52  1  0  0  0
 40 53  2  0  0  0
 40 58  1  0  0  0
 41109  1  0  0  0
 41110  1  0  0  0
 41111  1  0  0  0
 41 48  1  0  0  0
 42 43  1  0  0  0
 42 66  1  0  0  0
 42112  1  0  0  0
 42113  1  0  0  0
 43 44  1  0  0  0
 44114  1  0  0  0
 45 46  2  0  0  0
 45115  1  0  0  0
 46116  1  0  0  0
 47117  1  0  0  0
 47118  1  0  0  0
 48 56  1  0  0  0
 48 65  1  0  0  0
 48119  1  0  0  0
 49 50  1  0  0  0
 49 53  1  0  0  0
 49 64  1  0  0  0
 49120  1  0  0  0
 50 51  1  0  0  0
 50121  1  0  0  0
 50122  1  0  0  0
 51 52  1  0  0  0
 51123  1  0  0  0
 51124  1  0  0  0
 52125  1  0  0  0
 52126  1  0  0  0
 53 54  1  0  0  0
 54 55  2  0  0  0
 54127  1  0  0  0
 55 57  1  0  0  0
 55128  1  0  0  0
 56 69  2  0  0  0
 57 58  2  0  0  0
 57129  1  0  0  0
 58130  1  0  0  0
 59 60  1  0  0  0
 59 61  1  0  0  0
 59 62  1  0  0  0
 60131  1  0  0  0
 60132  1  0  0  0
 60133  1  0  0  0
 61134  1  0  0  0
 61135  1  0  0  0
 61136  1  0  0  0
 62137  1  0  0  0
 62138  1  0  0  0
 62139  1  0  0  0
 63 65  1  0  0  0
 63140  1  0  0  0
 63141  1  0  0  0
 63142  1  0  0  0
 64143  1  0  0  0
 65144  1  0  0  0
 68 81  1  0  0  0
 71 73  2  0  0  0
 71 75  1  0  0  0
 71145  1  0  0  0
 72 74  2  0  0  0
 72 82  1  0  0  0
 72146  1  0  0  0
 73 74  1  0  0  0
 73 81  1  0  0  0
 74 85  1  0  0  0
 75 82  2  0  0  0
 75 84  1  0  0  0
 76 78  1  0  0  0
 76 80  1  0  0  0
 76147  1  0  0  0
 76148  1  0  0  0
 77 79  1  0  0  0
 77 80  1  0  0  0
 77149  1  0  0  0
 77150  1  0  0  0
 78 83  1  0  0  0
 78151  1  0  0  0
 78152  1  0  0  0
 79 83  1  0  0  0
 79153  1  0  0  0
 79154  1  0  0  0
 80 84  1  0  0  0
 80155  1  0  0  0
 81156  1  0  0  0
 81157  1  0  0  0
 84158  1  0  0  0
M  ISO  4   1 100  68 101  81 101  83 100
M  END
> <chiral flag>
0

> <version>
0

> <s_m_source_file>
/data/baiqing/PycharmProjects/Reinvent-master-3.2/result/LINK_invent/BTK/process_docking_weight1_custom_sum_contain_oxygen_bond_distance_aromatic_linkinvent_7_9_3/rearranged_h_0160.sdf

> <i_m_source_file_index>
91

> <r_mmod_Potential_Energy-OPLS-2005>
86.9409790039062

> <r_mmod_Stretch_Energy-OPLS-2005>
65.0907669067383

> <r_mmod_Bend_Energy-OPLS-2005>
153.137359619141

> <r_mmod_Torsional_Energy-OPLS-2005>
319.707977294922

> <r_mmod_Improper_Torsional_Energy-OPLS-2005>
12.2988405227661

> <r_mmod_Van_der_Waal_Energy-OPLS-2005>
158.932662963867

> <r_mmod_Electrostatic_Energy-OPLS-2005>
-443.729034423828

> <r_mmod_Solvation_Energy-OPLS-2005>
-224.110168457031

> <b_mmod_Minimization_Converged-OPLS-2005>
0

> <r_mmod_RMS_Derivative-OPLS-2005>
0.416341632604599

$$$$
91
                    3D
 Structure written by MMmdl.
178187  0  0  1  0            999 V2000
  -30.6909  -14.7179   20.4790 C   0  0  0  0  0  0
  -30.4118  -12.4507   19.4905 C   0  0  0  0  0  0
  -29.5050  -12.4946   18.2417 C   0  0  0  0  0  0
  -28.0305  -12.3211   18.6469 C   0  0  0  0  0  0
  -27.6329  -13.2318   19.8356 C   0  0  2  0  0  0
  -28.6671  -13.1757   20.9702 C   0  0  0  0  0  0
  -25.2464  -13.8186   20.5601 C   0  0  0  0  0  0
  -24.1770  -13.0450   20.9178 C   0  0  0  0  0  0
  -24.6372  -11.6938   20.8773 C   0  0  0  0  0  0
  -23.9056  -10.4306   21.0438 C   0  0  0  0  0  0
  -24.3602   -9.4214   21.9205 C   0  0  0  0  0  0
  -23.6274   -8.2245   22.0763 C   0  0  0  0  0  0
  -22.4270   -8.0284   21.3538 C   0  0  0  0  0  0
  -21.9909   -9.0269   20.4651 C   0  0  0  0  0  0
  -22.7238  -10.2146   20.3066 C   0  0  0  0  0  0
  -21.6848   -6.0732   22.5278 C   0  0  0  0  0  0
  -21.4011   -6.5630   23.8217 C   0  0  0  0  0  0
  -21.3652   -5.6783   24.9177 C   0  0  0  0  0  0
  -21.6040   -4.3048   24.7232 C   0  0  0  0  0  0
  -21.8821   -3.8138   23.4354 C   0  0  0  0  0  0
  -21.9207   -4.6956   22.3415 C   0  0  0  0  0  0
  -22.7800  -13.5235   21.1879 C   0  0  0  0  0  0
  -22.1675   -4.2140   21.0988 F   0  0  0  0  0  0
  -21.5628   -3.4530   25.7747 F   0  0  0  0  0  0
  -29.9733  -13.5385   20.4057 N   0  0  0  0  0  0
  -26.2878  -12.9398   20.3195 N   0  0  0  0  0  0
  -25.9290  -11.6548   20.5749 N   0  0  0  0  0  0
  -22.0453  -12.8223   22.0437 N   0  0  0  0  0  0
  -25.4172  -15.1864   20.3923 N   0  0  0  0  0  0
  -31.8767  -14.7050   20.1520 O   0  0  0  0  0  0
  -21.6641   -6.8872   21.4229 O   0  0  0  0  0  0
  -22.3475  -14.5544   20.6758 O   0  0  0  0  0  0
  -24.6312  -31.8579   23.1988 C   0  0  0  0  0  0
  -25.9150  -32.4760   23.8344 C   0  0  1  0  0  0
  -27.2225  -27.2838   20.1100 C   0  0  0  0  0  0
  -25.5966  -33.8559   24.2288 N   0  0  0  0  0  0
  -23.4251  -30.4822   21.5441 C   0  0  2  0  0  0
  -24.8651  -28.9246   20.1127 C   0  0  0  0  0  0
  -22.7497  -29.4639   22.4934 C   0  0  0  0  0  0
  -18.0310  -28.1380   22.8456 C   0  0  0  0  0  0
  -24.1492  -36.7257   23.2644 C   0  0  0  0  0  0
  -25.9696  -30.7739   21.3747 C   0  0  0  0  0  0
  -26.0379  -29.3983   20.7133 C   0  0  0  0  0  0
  -27.2150  -28.5903   20.6980 C   0  0  0  0  0  0
  -26.0172  -26.8540   19.5095 C   0  0  0  0  0  0
  -24.8589  -27.6574   19.5059 C   0  0  0  0  0  0
  -23.6383  -29.8127   20.1607 C   0  0  0  0  0  0
  -25.4121  -36.3069   24.0340 C   0  0  1  0  0  0
  -20.5906  -28.3729   23.1263 C   0  0  2  0  0  0
  -20.6824  -26.9451   22.5408 C   0  0  0  0  0  0
  -19.5798  -26.6347   21.5230 C   0  0  0  0  0  0
  -18.1958  -26.7921   22.1593 C   0  0  0  0  0  0
  -19.1549  -28.8866   23.2857 C   0  0  0  0  0  0
  -18.9455  -30.1456   23.8899 C   0  0  0  0  0  0
  -17.6444  -30.6569   24.0560 C   0  0  0  0  0  0
  -25.9067  -34.9443   23.5113 C   0  0  0  0  0  0
  -16.5344  -29.9060   23.6312 C   0  0  0  0  0  0
  -16.7290  -28.6483   23.0322 C   0  0  0  0  0  0
  -26.4525  -31.6583   25.0733 C   0  0  0  0  0  0
  -25.3746  -31.3711   26.1447 C   0  0  0  0  0  0
  -27.0387  -30.3012   24.6210 C   0  0  0  0  0  0
  -27.6105  -32.4320   25.7465 C   0  0  0  0  0  0
  -27.5582  -37.1782   24.8477 C   0  0  0  0  0  0
  -21.4209  -29.3075   22.3658 N   0  0  0  0  0  0
  -26.4291  -37.3772   23.9420 N   0  0  0  0  0  0
  -24.6943  -31.0563   22.0947 N   0  0  0  0  0  0
  -23.4204  -28.8176   23.3025 O   0  0  0  0  0  0
  -28.3668  -26.4634   20.1654 O   0  0  0  0  0  0
  -26.5628  -34.8925   22.4676 O   0  0  0  0  0  0
  -23.5469  -32.1385   23.7307 O   0  0  0  0  0  0
  -28.4664  -17.9124   21.0205 C   0  0  0  0  0  0
  -27.0984  -18.0385   21.4257 C   0  0  0  0  0  0
  -26.6167  -17.3034   22.5442 C   0  0  0  0  0  0
  -27.4864  -16.4273   23.2365 C   0  0  0  0  0  0
  -28.7492  -16.1183   22.6811 C   0  0  0  0  0  0
  -29.1195  -16.6593   21.4165 C   0  0  0  0  0  0
  -28.7369  -20.0299   19.2277 C   0  0  0  0  0  0
  -28.0965  -21.4562   19.5104 C   0  0  0  0  0  0
  -30.0149  -21.7481   21.0264 C   0  0  0  0  0  0
  -29.2482  -19.2089   20.4720 C   0  0  2  0  0  0
  -29.6109  -20.3066   21.5620 C   0  0  2  0  0  0
  -26.1169  -18.9643   20.7109 C   0  0  0  0  0  0
  -25.1966  -17.5124   23.0843 C   0  0  0  0  0  0
  -27.0366  -15.7533   24.5376 C   0  0  0  0  0  0
  -29.7190  -15.2532   23.4973 C   0  0  0  0  0  0
  -28.6290  -20.4379   22.7427 C   0  0  0  0  0  0
  -28.4489  -23.7964   20.6091 C   0  0  0  0  0  0
  -28.4495  -25.0708   19.6232 C   0  0  0  0  0  0
  -30.1500  -15.9920   20.6242 N   0  0  0  0  0  0
  -29.0438  -22.4549   20.1094 N   0  3  2  0  0  0
  -31.4549  -12.5397   19.1822 H   0  0  0  0  0  0
  -30.3403  -11.4817   19.9858 H   0  0  0  0  0  0
  -29.7928  -11.7106   17.5407 H   0  0  0  0  0  0
  -29.6349  -13.4415   17.7174 H   0  0  0  0  0  0
  -27.8926  -11.2750   18.9243 H   0  0  0  0  0  0
  -27.3756  -12.4951   17.7941 H   0  0  0  0  0  0
  -27.6279  -14.2527   19.4521 H   0  0  0  0  0  0
  -28.7017  -12.1830   21.4207 H   0  0  0  0  0  0
  -28.3436  -13.8432   21.7535 H   0  0  0  0  0  0
  -25.2734   -9.5697   22.4795 H   0  0  0  0  0  0
  -23.9997   -7.4628   22.7475 H   0  0  0  0  0  0
  -21.0842   -8.8778   19.8945 H   0  0  0  0  0  0
  -22.3692  -10.9682   19.6183 H   0  0  0  0  0  0
  -21.1982   -7.6136   23.9716 H   0  0  0  0  0  0
  -21.1466   -6.0511   25.9083 H   0  0  0  0  0  0
  -22.0606   -2.7595   23.2865 H   0  0  0  0  0  0
  -22.4039  -11.9826   22.4727 H   0  0  0  0  0  0
  -21.1096  -13.1276   22.2718 H   0  0  0  0  0  0
  -24.6887  -15.8543   20.6099 H   0  0  0  0  0  0
  -26.3248  -15.6243   20.2855 H   0  0  0  0  0  0
  -26.7208  -32.5406   23.1075 H   0  0  0  0  0  0
  -25.0134  -33.9688   25.0450 H   0  0  0  0  0  0
  -22.7209  -31.3042   21.3977 H   0  0  0  0  0  0
  -23.3775  -35.9567   23.3309 H   0  0  0  0  0  0
  -24.3576  -36.8861   22.2053 H   0  0  0  0  0  0
  -23.7206  -37.6450   23.6648 H   0  0  0  0  0  0
  -26.1155  -31.5388   20.6111 H   0  0  0  0  0  0
  -26.8446  -30.8143   22.0124 H   0  0  0  0  0  0
  -28.1162  -28.9537   21.1681 H   0  0  0  0  0  0
  -25.9255  -25.8800   19.0584 H   0  0  0  0  0  0
  -23.9534  -27.2821   19.0500 H   0  0  0  0  0  0
  -23.7653  -30.5875   19.4025 H   0  0  0  0  0  0
  -22.7550  -29.2482   19.8562 H   0  0  0  0  0  0
  -25.1292  -36.1925   25.0828 H   0  0  0  0  0  0
  -20.9990  -28.3314   24.1383 H   0  0  0  0  0  0
  -20.5759  -26.2351   23.3620 H   0  0  0  0  0  0
  -21.6682  -26.7502   22.1200 H   0  0  0  0  0  0
  -19.6970  -25.6222   21.1350 H   0  0  0  0  0  0
  -19.6752  -27.3063   20.6689 H   0  0  0  0  0  0
  -17.4258  -26.6700   21.3949 H   0  0  0  0  0  0
  -18.0322  -26.0050   22.8979 H   0  0  0  0  0  0
  -19.7922  -30.7277   24.2281 H   0  0  0  0  0  0
  -17.4985  -31.6232   24.5183 H   0  0  0  0  0  0
  -15.5338  -30.2953   23.7619 H   0  0  0  0  0  0
  -15.8703  -28.0790   22.7040 H   0  0  0  0  0  0
  -24.5929  -30.7067   25.7743 H   0  0  0  0  0  0
  -24.8932  -32.2871   26.4888 H   0  0  0  0  0  0
  -25.8059  -30.8858   27.0212 H   0  0  0  0  0  0
  -26.2975  -29.6723   24.1266 H   0  0  0  0  0  0
  -27.4119  -29.7307   25.4726 H   0  0  0  0  0  0
  -27.8830  -30.4304   23.9431 H   0  0  0  0  0  0
  -27.2758  -33.3626   26.2051 H   0  0  0  0  0  0
  -28.3881  -32.6869   25.0252 H   0  0  0  0  0  0
  -28.0826  -31.8449   26.5345 H   0  0  0  0  0  0
  -28.2622  -38.0066   24.7531 H   0  0  0  0  0  0
  -28.1065  -36.2599   24.6302 H   0  0  0  0  0  0
  -27.2309  -37.1431   25.8887 H   0  0  0  0  0  0
  -20.9408  -29.8797   21.6856 H   0  0  0  0  0  0
  -26.0182  -38.2850   24.1429 H   0  0  0  0  0  0
  -29.6106  -20.2279   18.6026 H   0  0  0  0  0  0
  -28.1266  -19.4157   18.5697 H   0  0  0  0  0  0
  -27.2366  -21.3659   20.1692 H   0  0  0  0  0  0
  -27.7121  -21.8742   18.5805 H   0  0  0  0  0  0
  -30.9364  -21.6357   20.4526 H   0  0  0  0  0  0
  -30.2998  -22.3850   21.8645 H   0  0  0  0  0  0
  -30.2009  -18.7940   20.1390 H   0  0  0  0  0  0
  -30.5132  -19.9224   22.0398 H   0  0  0  0  0  0
  -26.4184  -19.2446   19.7146 H   0  0  0  0  0  0
  -25.8941  -19.8560   21.2958 H   0  0  0  0  0  0
  -25.1799  -18.4489   20.5068 H   0  0  0  0  0  0
  -24.4804  -17.9307   22.3845 H   0  0  0  0  0  0
  -25.2255  -18.1798   23.9447 H   0  0  0  0  0  0
  -24.7592  -16.5654   23.3983 H   0  0  0  0  0  0
  -26.6362  -14.7622   24.3219 H   0  0  0  0  0  0
  -27.8454  -15.6363   25.2561 H   0  0  0  0  0  0
  -26.2715  -16.3167   25.0694 H   0  0  0  0  0  0
  -29.8821  -15.7113   24.4717 H   0  0  0  0  0  0
  -30.7142  -15.1749   23.0709 H   0  0  0  0  0  0
  -29.3371  -14.2474   23.6710 H   0  0  0  0  0  0
  -27.6630  -20.8308   22.4301 H   0  0  0  0  0  0
  -29.0191  -21.1142   23.5031 H   0  0  0  0  0  0
  -28.4661  -19.4840   23.2427 H   0  0  0  0  0  0
  -27.4369  -23.6291   20.9770 H   0  0  0  0  0  0
  -29.0097  -24.1056   21.4910 H   0  0  0  0  0  0
  -27.7526  -24.9089   18.8035 H   0  0  0  0  0  0
  -29.4184  -25.0608   19.1236 H   0  0  0  0  0  0
  -30.7817  -16.6562   20.2034 H   0  0  0  0  0  0
  -29.6422  -22.7276   19.3428 H   0  0  0  0  0  0
  1 25  1  0  0  0
  1 30  2  0  0  0
  1 89  1  0  0  0
  2  3  1  0  0  0
  2 25  1  0  0  0
  2 91  1  0  0  0
  2 92  1  0  0  0
  3  4  1  0  0  0
  3 93  1  0  0  0
  3 94  1  0  0  0
  4  5  1  0  0  0
  4 95  1  0  0  0
  4 96  1  0  0  0
  5  6  1  0  0  0
  5 26  1  0  0  0
  5 97  1  0  0  0
  6 25  1  0  0  0
  6 98  1  0  0  0
  6 99  1  0  0  0
  7  8  2  0  0  0
  7 26  1  0  0  0
  7 29  1  0  0  0
  8  9  1  0  0  0
  8 22  1  0  0  0
  9 10  1  0  0  0
  9 27  2  0  0  0
 10 11  2  0  0  0
 10 15  1  0  0  0
 11 12  1  0  0  0
 11100  1  0  0  0
 12 13  2  0  0  0
 12101  1  0  0  0
 13 14  1  0  0  0
 13 31  1  0  0  0
 14 15  2  0  0  0
 14102  1  0  0  0
 15103  1  0  0  0
 16 17  2  0  0  0
 16 21  1  0  0  0
 16 31  1  0  0  0
 17 18  1  0  0  0
 17104  1  0  0  0
 18 19  2  0  0  0
 18105  1  0  0  0
 19 20  1  0  0  0
 19 24  1  0  0  0
 20 21  2  0  0  0
 20106  1  0  0  0
 21 23  1  0  0  0
 22 28  1  0  0  0
 22 32  2  0  0  0
 26 27  1  0  0  0
 28107  1  0  0  0
 28108  1  0  0  0
 29109  1  0  0  0
 29110  1  0  0  0
 33 34  1  0  0  0
 33 66  1  0  0  0
 33 70  2  0  0  0
 34 36  1  0  0  0
 34 59  1  0  0  0
 34111  1  0  0  0
 35 44  2  0  0  0
 35 45  1  0  0  0
 35 68  1  0  0  0
 36 56  1  0  0  0
 36112  1  0  0  0
 37 39  1  0  0  0
 37 47  1  0  0  0
 37 66  1  0  0  0
 37113  1  0  0  0
 38 43  2  0  0  0
 38 46  1  0  0  0
 38 47  1  0  0  0
 39 64  1  0  0  0
 39 67  2  0  0  0
 40 52  1  0  0  0
 40 53  2  0  0  0
 40 58  1  0  0  0
 41114  1  0  0  0
 41115  1  0  0  0
 41116  1  0  0  0
 41 48  1  0  0  0
 42 43  1  0  0  0
 42 66  1  0  0  0
 42117  1  0  0  0
 42118  1  0  0  0
 43 44  1  0  0  0
 44119  1  0  0  0
 45 46  2  0  0  0
 45120  1  0  0  0
 46121  1  0  0  0
 47122  1  0  0  0
 47123  1  0  0  0
 48 56  1  0  0  0
 48 65  1  0  0  0
 48124  1  0  0  0
 49 50  1  0  0  0
 49 53  1  0  0  0
 49 64  1  0  0  0
 49125  1  0  0  0
 50 51  1  0  0  0
 50126  1  0  0  0
 50127  1  0  0  0
 51 52  1  0  0  0
 51128  1  0  0  0
 51129  1  0  0  0
 52130  1  0  0  0
 52131  1  0  0  0
 53 54  1  0  0  0
 54 55  2  0  0  0
 54132  1  0  0  0
 55 57  1  0  0  0
 55133  1  0  0  0
 56 69  2  0  0  0
 57 58  2  0  0  0
 57134  1  0  0  0
 58135  1  0  0  0
 59 60  1  0  0  0
 59 61  1  0  0  0
 59 62  1  0  0  0
 60136  1  0  0  0
 60137  1  0  0  0
 60138  1  0  0  0
 61139  1  0  0  0
 61140  1  0  0  0
 61141  1  0  0  0
 62142  1  0  0  0
 62143  1  0  0  0
 62144  1  0  0  0
 63 65  1  0  0  0
 63145  1  0  0  0
 63146  1  0  0  0
 63147  1  0  0  0
 64148  1  0  0  0
 65149  1  0  0  0
 68 88  1  0  0  0
 71 72  2  0  0  0
 71 76  1  0  0  0
 71 80  1  0  0  0
 72 73  1  0  0  0
 72 82  1  0  0  0
 73 74  2  0  0  0
 73 83  1  0  0  0
 74 75  1  0  0  0
 74 84  1  0  0  0
 75 76  2  0  0  0
 75 85  1  0  0  0
 76 89  1  0  0  0
 77 78  1  0  0  0
 77 80  1  0  0  0
 77150  1  0  0  0
 77151  1  0  0  0
 78 90  1  0  0  0
 78152  1  0  0  0
 78153  1  0  0  0
 79 81  1  0  0  0
 79 90  1  0  0  0
 79154  1  0  0  0
 79155  1  0  0  0
 80 81  1  0  0  0
 80156  1  0  0  0
 81 86  1  0  0  0
 81157  1  0  0  0
 82158  1  0  0  0
 82159  1  0  0  0
 82160  1  0  0  0
 83161  1  0  0  0
 83162  1  0  0  0
 83163  1  0  0  0
 84164  1  0  0  0
 84165  1  0  0  0
 84166  1  0  0  0
 85167  1  0  0  0
 85168  1  0  0  0
 85169  1  0  0  0
 86170  1  0  0  0
 86171  1  0  0  0
 86172  1  0  0  0
 87 88  1  0  0  0
 87173  1  0  0  0
 87174  1  0  0  0
 87 90  1  0  0  0
 88175  1  0  0  0
 88176  1  0  0  0
 89177  1  0  0  0
 90178  1  0  0  0
M  CHG  1  90   1
M  ISO  4   1 100  68 101  88 101  89 100
M  END
> <chiral flag>
0

> <version>
0

> <s_m_source_file>
/data/baiqing/PycharmProjects/Reinvent-master-3.2/result/LINK_invent/BTK/process_docking_weight1_custom_sum_contain_oxygen_bond_distance_aromatic_linkinvent_7_9_3/rearranged_h_0160.sdf

> <i_m_source_file_index>
92

> <r_mmod_Potential_Energy-OPLS-2005>
316.885284423828

> <r_mmod_Stretch_Energy-OPLS-2005>
129.581680297852

> <r_mmod_Bend_Energy-OPLS-2005>
256.948425292969

> <r_mmod_Torsional_Energy-OPLS-2005>
410.72119140625

> <r_mmod_Improper_Torsional_Energy-OPLS-2005>
10.063946723938

> <r_mmod_Van_der_Waal_Energy-OPLS-2005>
166.638610839844

> <r_mmod_Electrostatic_Energy-OPLS-2005>
-317.483703613281

> <r_mmod_Solvation_Energy-OPLS-2005>
-412.140533447266

> <b_mmod_Minimization_Converged-OPLS-2005>
0

> <r_mmod_RMS_Derivative-OPLS-2005>
2.91414618492126

$$$$
92
                    3D
 Structure written by MMmdl.
168178  0  0  1  0            999 V2000
  -30.3804  -14.8238   20.4808 C   0  0  0  0  0  0
  -30.4141  -12.5133   19.5007 C   0  0  0  0  0  0
  -29.4977  -12.5270   18.2471 C   0  0  0  0  0  0
  -28.0242  -12.3024   18.6486 C   0  0  0  0  0  0
  -27.5979  -13.1970   19.8492 C   0  0  2  0  0  0
  -28.6067  -13.1125   20.9987 C   0  0  0  0  0  0
  -25.2088  -13.7882   20.5278 C   0  0  0  0  0  0
  -24.1537  -13.0129   20.9170 C   0  0  0  0  0  0
  -24.6272  -11.6637   20.8941 C   0  0  0  0  0  0
  -23.8992  -10.4194   21.0755 C   0  0  0  0  0  0
  -24.3669   -9.3979   21.9295 C   0  0  0  0  0  0
  -23.6376   -8.2059   22.0652 C   0  0  0  0  0  0
  -22.4287   -8.0198   21.3545 C   0  0  0  0  0  0
  -22.0071   -9.0182   20.4572 C   0  0  0  0  0  0
  -22.7351  -10.2092   20.3127 C   0  0  0  0  0  0
  -21.6752   -6.0700   22.5365 C   0  0  0  0  0  0
  -21.3804   -6.5501   23.8294 C   0  0  0  0  0  0
  -21.3584   -5.6608   24.9265 C   0  0  0  0  0  0
  -21.6084   -4.2902   24.7356 C   0  0  0  0  0  0
  -21.8859   -3.8062   23.4441 C   0  0  0  0  0  0
  -21.9194   -4.6893   22.3533 C   0  0  0  0  0  0
  -22.7791  -13.5080   21.2195 C   0  0  0  0  0  0
  -22.1644   -4.2102   21.1084 F   0  0  0  0  0  0
  -21.5797   -3.4408   25.7877 F   0  0  0  0  0  0
  -29.8990  -13.5234   20.4616 N   0  0  0  0  0  0
  -26.2555  -12.8910   20.3250 N   0  0  0  0  0  0
  -25.9050  -11.6086   20.5734 N   0  0  0  0  0  0
  -22.0311  -12.7816   22.0334 N   0  0  0  0  0  0
  -25.3250  -15.1562   20.2865 N   0  0  0  0  0  0
  -31.5817  -15.0126   20.2033 O   0  0  0  0  0  0
  -21.6435   -6.8889   21.4359 O   0  0  0  0  0  0
  -22.3418  -14.5528   20.7390 O   0  0  0  0  0  0
  -24.6308  -31.8722   23.2271 C   0  0  0  0  0  0
  -25.9213  -32.4810   23.8483 C   0  0  1  0  0  0
  -27.0410  -27.2618   20.0370 C   0  0  0  0  0  0
  -25.6039  -33.8639   24.2361 N   0  0  0  0  0  0
  -23.4139  -30.5302   21.5759 C   0  0  2  0  0  0
  -24.8196  -29.0412   20.0963 C   0  0  0  0  0  0
  -22.7477  -29.4727   22.4941 C   0  0  0  0  0  0
  -18.0308  -28.1381   22.8490 C   0  0  0  0  0  0
  -24.1501  -36.7290   23.2625 C   0  0  0  0  0  0
  -25.9767  -30.7681   21.4227 C   0  0  0  0  0  0
  -26.0141  -29.4163   20.7204 C   0  0  0  0  0  0
  -27.1448  -28.5257   20.7172 C   0  0  0  0  0  0
  -25.8774  -27.0684   19.2697 C   0  0  0  0  0  0
  -24.7559  -27.8682   19.3577 C   0  0  0  0  0  0
  -23.6127  -29.9351   20.1726 C   0  0  0  0  0  0
  -25.4127  -36.3094   24.0311 C   0  0  1  0  0  0
  -20.5901  -28.3698   23.1256 C   0  0  2  0  0  0
  -20.6798  -26.9429   22.5392 C   0  0  0  0  0  0
  -19.5774  -26.6379   21.5210 C   0  0  0  0  0  0
  -18.1948  -26.7930   22.1630 C   0  0  0  0  0  0
  -19.1547  -28.8864   23.2867 C   0  0  0  0  0  0
  -18.9469  -30.1469   23.8890 C   0  0  0  0  0  0
  -17.6465  -30.6579   24.0560 C   0  0  0  0  0  0
  -25.9070  -34.9475   23.5096 C   0  0  0  0  0  0
  -16.5356  -29.9080   23.6342 C   0  0  0  0  0  0
  -16.7298  -28.6498   23.0367 C   0  0  0  0  0  0
  -26.4537  -31.6615   25.0870 C   0  0  0  0  0  0
  -25.3714  -31.3825   26.1536 C   0  0  0  0  0  0
  -27.0372  -30.3005   24.6432 C   0  0  0  0  0  0
  -27.6088  -32.4366   25.7621 C   0  0  0  0  0  0
  -27.5584  -37.1820   24.8451 C   0  0  0  0  0  0
  -21.4213  -29.3081   22.3676 N   0  0  0  0  0  0
  -26.4307  -37.3793   23.9387 N   0  0  0  0  0  0
  -24.6960  -31.0708   22.1212 N   0  0  0  0  0  0
  -23.4232  -28.8176   23.2951 O   0  0  0  0  0  0
  -27.9137  -26.1588   20.1489 O   0  0  0  0  0  0
  -26.5621  -34.8913   22.4652 O   0  0  0  0  0  0
  -23.5491  -32.1570   23.7545 O   0  0  0  0  0  0
  -27.1798  -20.0668   20.6988 C   0  0  0  0  0  0
  -25.6799  -18.2655   21.2529 C   0  0  0  0  0  0
  -26.9759  -18.6411   20.8468 C   0  0  0  0  0  0
  -26.1513  -21.0453   20.9759 C   0  0  0  0  0  0
  -24.8625  -20.5556   21.3889 C   0  0  0  0  0  0
  -24.6079  -19.1809   21.4192 C   0  0  0  0  0  0
  -26.0856  -22.8207   19.1120 C   0  0  0  0  0  0
  -26.9474  -24.0689   18.7601 C   0  0  0  0  0  0
  -27.4637  -23.5489   21.0021 C   0  0  0  0  0  0
  -29.2935  -17.1504   19.7371 C   0  0  0  0  0  0
  -28.7402  -16.5695   21.6102 C   0  0  0  0  0  0
  -27.9838  -17.4227   20.5526 C   0  0  0  0  0  0
  -26.2771  -22.5774   20.6175 C   0  0  2  0  0  0
  -27.1783  -24.8218   20.1063 C   0  0  1  0  0  0
  -23.7051  -21.4605   21.8726 C   0  0  0  0  0  0
  -22.8688  -17.9492   22.5301 C   0  0  0  0  0  0
  -29.4176  -15.8536   20.4708 N   0  0  0  0  0  0
  -23.3033  -18.7412   21.4509 O   0  0  0  0  0  0
  -31.4371  -12.7349   19.2025 H   0  0  0  0  0  0
  -30.4253  -11.5196   19.9336 H   0  0  0  0  0  0
  -29.8174  -11.8036   17.5036 H   0  0  0  0  0  0
  -29.5813  -13.5330   17.7947 H   0  0  0  0  0  0
  -27.8746  -11.2295   18.8864 H   0  0  0  0  0  0
  -27.3573  -12.5255   17.8110 H   0  0  0  0  0  0
  -27.6054  -14.2280   19.4973 H   0  0  0  0  0  0
  -28.6498  -12.1214   21.4781 H   0  0  0  0  0  0
  -28.2585  -13.7611   21.8002 H   0  0  0  0  0  0
  -25.3058   -9.5087   22.4622 H   0  0  0  0  0  0
  -24.0068   -7.4188   22.7120 H   0  0  0  0  0  0
  -21.1140   -8.8776   19.8685 H   0  0  0  0  0  0
  -22.4124  -10.9610   19.6069 H   0  0  0  0  0  0
  -21.1432   -7.5919   23.9859 H   0  0  0  0  0  0
  -21.1371   -6.0282   25.9200 H   0  0  0  0  0  0
  -22.0695   -2.7601   23.2992 H   0  0  0  0  0  0
  -22.3764  -11.8877   22.3500 H   0  0  0  0  0  0
  -21.1065  -13.0802   22.2756 H   0  0  0  0  0  0
  -24.4959  -15.7487   20.2235 H   0  0  0  0  0  0
  -26.0641  -15.7219   20.6603 H   0  0  0  0  0  0
  -26.7263  -32.5403   23.1184 H   0  0  0  0  0  0
  -25.0189  -33.9805   25.0510 H   0  0  0  0  0  0
  -22.7084  -31.3518   21.4743 H   0  0  0  0  0  0
  -23.3774  -35.9610   23.3272 H   0  0  0  0  0  0
  -24.3596  -36.8937   22.2040 H   0  0  0  0  0  0
  -23.7235  -37.6487   23.6663 H   0  0  0  0  0  0
  -26.1587  -31.5528   20.6864 H   0  0  0  0  0  0
  -26.8413  -30.7654   22.0725 H   0  0  0  0  0  0
  -28.0293  -28.7711   21.2857 H   0  0  0  0  0  0
  -25.7106  -26.2321   18.6344 H   0  0  0  0  0  0
  -23.8571  -27.6043   18.8199 H   0  0  0  0  0  0
  -23.7487  -30.7473   19.4556 H   0  0  0  0  0  0
  -22.7137  -29.4043   19.8471 H   0  0  0  0  0  0
  -25.1304  -36.1956   25.0815 H   0  0  0  0  0  0
  -21.0015  -28.3282   24.1365 H   0  0  0  0  0  0
  -20.5734  -26.2325   23.3591 H   0  0  0  0  0  0
  -21.6663  -26.7473   22.1158 H   0  0  0  0  0  0
  -19.6928  -25.6280   21.1262 H   0  0  0  0  0  0
  -19.6688  -27.3169   20.6722 H   0  0  0  0  0  0
  -17.4212  -26.6676   21.4031 H   0  0  0  0  0  0
  -18.0348  -26.0066   22.9031 H   0  0  0  0  0  0
  -19.7945  -30.7295   24.2232 H   0  0  0  0  0  0
  -17.5019  -31.6266   24.5160 H   0  0  0  0  0  0
  -15.5362  -30.2969   23.7669 H   0  0  0  0  0  0
  -15.8685  -28.0800   22.7081 H   0  0  0  0  0  0
  -24.5915  -30.7121   25.7873 H   0  0  0  0  0  0
  -24.8843  -32.3016   26.4827 H   0  0  0  0  0  0
  -25.7969  -30.9112   27.0393 H   0  0  0  0  0  0
  -26.2999  -29.6760   24.1360 H   0  0  0  0  0  0
  -27.3871  -29.7274   25.5024 H   0  0  0  0  0  0
  -27.8962  -30.4211   23.9821 H   0  0  0  0  0  0
  -27.2706  -33.3703   26.2123 H   0  0  0  0  0  0
  -28.3927  -32.6862   25.0461 H   0  0  0  0  0  0
  -28.0706  -31.8530   26.5586 H   0  0  0  0  0  0
  -28.2585  -38.0136   24.7524 H   0  0  0  0  0  0
  -28.1105  -36.2666   24.6254 H   0  0  0  0  0  0
  -27.2303  -37.1430   25.8858 H   0  0  0  0  0  0
  -20.9322  -29.8896   21.6947 H   0  0  0  0  0  0
  -26.0171  -38.2870   24.1401 H   0  0  0  0  0  0
  -28.1229  -20.4052   20.2841 H   0  0  0  0  0  0
  -25.4267  -17.2248   21.3676 H   0  0  0  0  0  0
  -26.4094  -21.9660   18.5355 H   0  0  0  0  0  0
  -25.0256  -22.9642   18.8954 H   0  0  0  0  0  0
  -26.4655  -24.5867   17.9433 H   0  0  0  0  0  0
  -27.9046  -23.7348   18.3537 H   0  0  0  0  0  0
  -28.4255  -23.1166   20.7449 H   0  0  0  0  0  0
  -27.4728  -23.8015   22.0565 H   0  0  0  0  0  0
  -30.1186  -17.8427   19.9455 H   0  0  0  0  0  0
  -29.1089  -17.0813   18.6622 H   0  0  0  0  0  0
  -29.3765  -17.2511   22.1759 H   0  0  0  0  0  0
  -28.0290  -16.0406   22.2451 H   0  0  0  0  0  0
  -27.2417  -16.7785   20.0650 H   0  0  0  0  0  0
  -25.4357  -23.0525   21.0939 H   0  0  0  0  0  0
  -26.1864  -25.0533   20.5102 H   0  0  0  0  0  0
  -23.2421  -21.9880   21.0386 H   0  0  0  0  0  0
  -24.0334  -22.1636   22.6312 H   0  0  0  0  0  0
  -22.9051  -20.8821   22.3618 H   0  0  0  0  0  0
  -22.2516  -18.5716   23.1710 H   0  0  0  0  0  0
  -23.6706  -17.5296   23.1367 H   0  0  0  0  0  0
  -22.2320  -17.1387   22.1667 H   0  0  0  0  0  0
  1 25  1  0  0  0
  1 30  2  0  0  0
  1 87  1  0  0  0
  2  3  1  0  0  0
  2 25  1  0  0  0
  2 89  1  0  0  0
  2 90  1  0  0  0
  3  4  1  0  0  0
  3 91  1  0  0  0
  3 92  1  0  0  0
  4  5  1  0  0  0
  4 93  1  0  0  0
  4 94  1  0  0  0
  5  6  1  0  0  0
  5 26  1  0  0  0
  5 95  1  0  0  0
  6 25  1  0  0  0
  6 96  1  0  0  0
  6 97  1  0  0  0
  7  8  2  0  0  0
  7 26  1  0  0  0
  7 29  1  0  0  0
  8  9  1  0  0  0
  8 22  1  0  0  0
  9 10  1  0  0  0
  9 27  2  0  0  0
 10 11  2  0  0  0
 10 15  1  0  0  0
 11 12  1  0  0  0
 11 98  1  0  0  0
 12 13  2  0  0  0
 12 99  1  0  0  0
 13 14  1  0  0  0
 13 31  1  0  0  0
 14 15  2  0  0  0
 14100  1  0  0  0
 15101  1  0  0  0
 16 17  2  0  0  0
 16 21  1  0  0  0
 16 31  1  0  0  0
 17 18  1  0  0  0
 17102  1  0  0  0
 18 19  2  0  0  0
 18103  1  0  0  0
 19 20  1  0  0  0
 19 24  1  0  0  0
 20 21  2  0  0  0
 20104  1  0  0  0
 21 23  1  0  0  0
 22 28  1  0  0  0
 22 32  2  0  0  0
 26 27  1  0  0  0
 28105  1  0  0  0
 28106  1  0  0  0
 29107  1  0  0  0
 29108  1  0  0  0
 33 34  1  0  0  0
 33 66  1  0  0  0
 33 70  2  0  0  0
 34 36  1  0  0  0
 34 59  1  0  0  0
 34109  1  0  0  0
 35 44  2  0  0  0
 35 45  1  0  0  0
 35 68  1  0  0  0
 36 56  1  0  0  0
 36110  1  0  0  0
 37 39  1  0  0  0
 37 47  1  0  0  0
 37 66  1  0  0  0
 37111  1  0  0  0
 38 43  2  0  0  0
 38 46  1  0  0  0
 38 47  1  0  0  0
 39 64  1  0  0  0
 39 67  2  0  0  0
 40 52  1  0  0  0
 40 53  2  0  0  0
 40 58  1  0  0  0
 41112  1  0  0  0
 41113  1  0  0  0
 41114  1  0  0  0
 41 48  1  0  0  0
 42 43  1  0  0  0
 42 66  1  0  0  0
 42115  1  0  0  0
 42116  1  0  0  0
 43 44  1  0  0  0
 44117  1  0  0  0
 45 46  2  0  0  0
 45118  1  0  0  0
 46119  1  0  0  0
 47120  1  0  0  0
 47121  1  0  0  0
 48 56  1  0  0  0
 48 65  1  0  0  0
 48122  1  0  0  0
 49 50  1  0  0  0
 49 53  1  0  0  0
 49 64  1  0  0  0
 49123  1  0  0  0
 50 51  1  0  0  0
 50124  1  0  0  0
 50125  1  0  0  0
 51 52  1  0  0  0
 51126  1  0  0  0
 51127  1  0  0  0
 52128  1  0  0  0
 52129  1  0  0  0
 53 54  1  0  0  0
 54 55  2  0  0  0
 54130  1  0  0  0
 55 57  1  0  0  0
 55131  1  0  0  0
 56 69  2  0  0  0
 57 58  2  0  0  0
 57132  1  0  0  0
 58133  1  0  0  0
 59 60  1  0  0  0
 59 61  1  0  0  0
 59 62  1  0  0  0
 60134  1  0  0  0
 60135  1  0  0  0
 60136  1  0  0  0
 61137  1  0  0  0
 61138  1  0  0  0
 61139  1  0  0  0
 62140  1  0  0  0
 62141  1  0  0  0
 62142  1  0  0  0
 63 65  1  0  0  0
 63143  1  0  0  0
 63144  1  0  0  0
 63145  1  0  0  0
 64146  1  0  0  0
 65147  1  0  0  0
 68 84  1  0  0  0
 71 73  2  0  0  0
 71 74  1  0  0  0
 71148  1  0  0  0
 72 73  1  0  0  0
 72 76  2  0  0  0
 72149  1  0  0  0
 73 82  1  0  0  0
 74 75  2  0  0  0
 74 83  1  0  0  0
 75 76  1  0  0  0
 75 85  1  0  0  0
 76 88  1  0  0  0
 77 78  1  0  0  0
 77 83  1  0  0  0
 77150  1  0  0  0
 77151  1  0  0  0
 78 84  1  0  0  0
 78152  1  0  0  0
 78153  1  0  0  0
 79 83  1  0  0  0
 79 84  1  0  0  0
 79154  1  0  0  0
 79155  1  0  0  0
 80 82  1  0  0  0
 80 87  1  0  0  0
 80156  1  0  0  0
 80157  1  0  0  0
 81 82  1  0  0  0
 81 87  1  0  0  0
 81158  1  0  0  0
 81159  1  0  0  0
 82160  1  0  0  0
 83161  1  0  0  0
 84162  1  0  0  0
 85163  1  0  0  0
 85164  1  0  0  0
 85165  1  0  0  0
 86 88  1  0  0  0
 86166  1  0  0  0
 86167  1  0  0  0
 86168  1  0  0  0
M  ISO  4   1 100  68 101  84 101  87 100
M  END
> <chiral flag>
0

> <version>
0

> <s_m_source_file>
/data/baiqing/PycharmProjects/Reinvent-master-3.2/result/LINK_invent/BTK/process_docking_weight1_custom_sum_contain_oxygen_bond_distance_aromatic_linkinvent_7_9_3/rearranged_h_0160.sdf

> <i_m_source_file_index>
93

> <r_mmod_Potential_Energy-OPLS-2005>
654.920166015625

> <r_mmod_Stretch_Energy-OPLS-2005>
130.237533569336

> <r_mmod_Bend_Energy-OPLS-2005>
307.610473632812

> <r_mmod_Torsional_Energy-OPLS-2005>
384.72802734375

> <r_mmod_Improper_Torsional_Energy-OPLS-2005>
20.0053005218506

> <r_mmod_Van_der_Waal_Energy-OPLS-2005>
182.971206665039

> <r_mmod_Electrostatic_Energy-OPLS-2005>
-366.407562255859

> <r_mmod_Solvation_Energy-OPLS-2005>
-200.010604858398

> <b_mmod_Minimization_Converged-OPLS-2005>
0

> <r_mmod_RMS_Derivative-OPLS-2005>
31.086519241333

$$$$
93
                    3D
 Structure written by MMmdl.
156165  0  0  1  0            999 V2000
  -30.4637  -15.2636   20.3225 C   0  0  0  0  0  0
  -30.4421  -12.8142   19.4763 C   0  0  0  0  0  0
  -29.5237  -12.5576   18.2580 C   0  0  0  0  0  0
  -28.0800  -12.2653   18.7096 C   0  0  0  0  0  0
  -27.6094  -13.2293   19.8255 C   0  0  2  0  0  0
  -28.6640  -13.4539   20.9292 C   0  0  0  0  0  0
  -25.2359  -13.8030   20.5717 C   0  0  0  0  0  0
  -24.1710  -13.0292   20.9299 C   0  0  0  0  0  0
  -24.6349  -11.6791   20.8818 C   0  0  0  0  0  0
  -23.9030  -10.4194   21.0435 C   0  0  0  0  0  0
  -24.3588   -9.4126   21.9211 C   0  0  0  0  0  0
  -23.6255   -8.2172   22.0771 C   0  0  0  0  0  0
  -22.4243   -8.0230   21.3552 C   0  0  0  0  0  0
  -21.9873   -9.0206   20.4669 C   0  0  0  0  0  0
  -22.7208  -10.2072   20.3077 C   0  0  0  0  0  0
  -21.6834   -6.0711   22.5273 C   0  0  0  0  0  0
  -21.4016   -6.5624   23.8208 C   0  0  0  0  0  0
  -21.3659   -5.6779   24.9168 C   0  0  0  0  0  0
  -21.6039   -4.3043   24.7225 C   0  0  0  0  0  0
  -21.8815   -3.8131   23.4345 C   0  0  0  0  0  0
  -21.9175   -4.6942   22.3396 C   0  0  0  0  0  0
  -22.7737  -13.5109   21.1897 C   0  0  0  0  0  0
  -22.1648   -4.2132   21.0973 F   0  0  0  0  0  0
  -21.5628   -3.4530   25.7745 F   0  0  0  0  0  0
  -29.8735  -13.9682   20.2574 N   0  0  0  0  0  0
  -26.2813  -12.9251   20.3323 N   0  0  0  0  0  0
  -25.9285  -11.6403   20.5828 N   0  0  0  0  0  0
  -22.0357  -12.8169   22.0468 N   0  0  0  0  0  0
  -25.3801  -15.1737   20.3918 N   0  0  0  0  0  0
  -31.7031  -15.2211   20.2810 O   0  0  0  0  0  0
  -21.6600   -6.8844   21.4234 O   0  0  0  0  0  0
  -22.3458  -14.5407   20.6701 O   0  0  0  0  0  0
  -24.6581  -31.8289   23.1742 C   0  0  0  0  0  0
  -25.9277  -32.4607   23.8195 C   0  0  1  0  0  0
  -27.2308  -26.9809   20.1836 C   0  0  0  0  0  0
  -25.5960  -33.8420   24.2100 N   0  0  0  0  0  0
  -23.4715  -30.4406   21.5226 C   0  0  2  0  0  0
  -24.9307  -28.8414   20.1096 C   0  0  0  0  0  0
  -22.7648  -29.4466   22.4801 C   0  0  0  0  0  0
  -18.0318  -28.1396   22.8467 C   0  0  0  0  0  0
  -24.1509  -36.7219   23.2646 C   0  0  0  0  0  0
  -26.0377  -30.6527   21.4010 C   0  0  0  0  0  0
  -26.1099  -29.2485   20.7447 C   0  0  0  0  0  0
  -27.2545  -28.3374   20.7622 C   0  0  0  0  0  0
  -26.0252  -26.7216   19.4897 C   0  0  0  0  0  0
  -24.9110  -27.5974   19.4617 C   0  0  0  0  0  0
  -23.7102  -29.7582   20.1478 C   0  0  0  0  0  0
  -25.4142  -36.2981   24.0310 C   0  0  1  0  0  0
  -20.5940  -28.3742   23.1197 C   0  0  2  0  0  0
  -20.6796  -26.9425   22.5405 C   0  0  0  0  0  0
  -19.5772  -26.6376   21.5210 C   0  0  0  0  0  0
  -18.1954  -26.7931   22.1620 C   0  0  0  0  0  0
  -19.1574  -28.8887   23.2823 C   0  0  0  0  0  0
  -18.9483  -30.1477   23.8856 C   0  0  0  0  0  0
  -17.6476  -30.6590   24.0552 C   0  0  0  0  0  0
  -25.9095  -34.9360   23.5033 C   0  0  0  0  0  0
  -16.5370  -29.9075   23.6337 C   0  0  0  0  0  0
  -16.7300  -28.6496   23.0358 C   0  0  0  0  0  0
  -26.4542  -31.6520   25.0698 C   0  0  0  0  0  0
  -25.3679  -31.3743   26.1358 C   0  0  0  0  0  0
  -27.0419  -30.2888   24.6397 C   0  0  0  0  0  0
  -27.6071  -32.4297   25.7474 C   0  0  0  0  0  0
  -27.5588  -37.1758   24.8455 C   0  0  0  0  0  0
  -21.4315  -29.3041   22.3548 N   0  0  0  0  0  0
  -26.4291  -37.3713   23.9407 N   0  0  0  0  0  0
  -24.7425  -30.9994   22.0860 N   0  0  0  0  0  0
  -23.4209  -28.8038   23.3034 O   0  0  0  0  0  0
  -28.2291  -25.8860   20.2881 O   0  0  0  0  0  0
  -26.5710  -34.8891   22.4628 O   0  0  0  0  0  0
  -23.5665  -32.1236   23.6858 O   0  0  0  0  0  0
  -29.9988  -22.3537   20.3486 C   0  0  0  0  0  0
  -27.8675  -21.5232   20.3204 C   0  0  0  0  0  0
  -28.6200  -22.7767   20.2794 C   0  0  0  0  0  0
  -30.4690  -20.9485   20.4235 C   0  0  0  0  0  0
  -29.6296  -19.7530   20.4035 C   0  0  0  0  0  0
  -28.0208  -17.6758   18.6694 C   0  0  0  0  0  0
  -28.1757  -16.2630   18.2269 C   0  0  0  0  0  0
  -28.4190  -16.6165   19.6943 C   0  0  0  0  0  0
  -31.9713  -20.7488   20.5549 C   0  0  0  0  0  0
  -27.8820  -24.3254   20.0133 C   0  0  0  0  0  0
  -30.2621  -18.1223   20.4696 C   0  0  0  0  0  0
  -28.3045  -20.1675   20.3859 N   0  0  0  0  0  0
  -29.7522  -16.5714   20.2312 N   0  0  0  0  0  0
  -31.4509  -13.0352   19.1223 H   0  0  0  0  0  0
  -30.5327  -11.9223   20.0974 H   0  0  0  0  0  0
  -29.9082  -11.7313   17.6576 H   0  0  0  0  0  0
  -29.5308  -13.4338   17.6076 H   0  0  0  0  0  0
  -28.0504  -11.2404   19.0777 H   0  0  0  0  0  0
  -27.4001  -12.3053   17.8573 H   0  0  0  0  0  0
  -27.4887  -14.1664   19.3132 H   0  0  0  0  0  0
  -28.8628  -12.5400   21.4902 H   0  0  0  0  0  0
  -28.3073  -14.1943   21.6466 H   0  0  0  0  0  0
  -25.2729   -9.5599   22.4788 H   0  0  0  0  0  0
  -23.9961   -7.4554   22.7486 H   0  0  0  0  0  0
  -21.0803   -8.8723   19.8977 H   0  0  0  0  0  0
  -22.3674  -10.9617   19.6192 H   0  0  0  0  0  0
  -21.2031   -7.6140   23.9708 H   0  0  0  0  0  0
  -21.1495   -6.0517   25.9074 H   0  0  0  0  0  0
  -22.0600   -2.7596   23.2835 H   0  0  0  0  0  0
  -22.3937  -11.9870   22.4947 H   0  0  0  0  0  0
  -21.0975  -13.1246   22.2615 H   0  0  0  0  0  0
  -24.5784  -15.7923   20.4514 H   0  0  0  0  0  0
  -26.1770  -15.5996   19.9407 H   0  0  0  0  0  0
  -26.7351  -32.5170   23.0922 H   0  0  0  0  0  0
  -25.0014  -33.9499   25.0185 H   0  0  0  0  0  0
  -22.7834  -31.2711   21.3538 H   0  0  0  0  0  0
  -23.3790  -35.9529   23.3261 H   0  0  0  0  0  0
  -24.3605  -36.8905   22.2072 H   0  0  0  0  0  0
  -23.7249  -37.6393   23.6722 H   0  0  0  0  0  0
  -26.2146  -31.4010   20.6270 H   0  0  0  0  0  0
  -26.8988  -30.7061   22.0553 H   0  0  0  0  0  0
  -28.1422  -28.6437   21.2980 H   0  0  0  0  0  0
  -25.9003  -25.7746   18.9863 H   0  0  0  0  0  0
  -24.0165  -27.2838   18.9425 H   0  0  0  0  0  0
  -23.8555  -30.5267   19.3883 H   0  0  0  0  0  0
  -22.8240  -29.2036   19.8341 H   0  0  0  0  0  0
  -25.1340  -36.1791   25.0802 H   0  0  0  0  0  0
  -21.0020  -28.3352   24.1325 H   0  0  0  0  0  0
  -20.5678  -26.2355   23.3639 H   0  0  0  0  0  0
  -21.6665  -26.7415   22.1214 H   0  0  0  0  0  0
  -19.6941  -25.6276   21.1265 H   0  0  0  0  0  0
  -19.6715  -27.3167   20.6722 H   0  0  0  0  0  0
  -17.4223  -26.6664   21.4028 H   0  0  0  0  0  0
  -18.0364  -26.0080   22.9026 H   0  0  0  0  0  0
  -19.7955  -30.7301   24.2220 H   0  0  0  0  0  0
  -17.5026  -31.6267   24.5160 H   0  0  0  0  0  0
  -15.5365  -30.2963   23.7680 H   0  0  0  0  0  0
  -15.8702  -28.0795   22.7104 H   0  0  0  0  0  0
  -24.5890  -30.7061   25.7654 H   0  0  0  0  0  0
  -24.8826  -32.2924   26.4681 H   0  0  0  0  0  0
  -25.7924  -30.8973   27.0199 H   0  0  0  0  0  0
  -26.3059  -29.6572   24.1405 H   0  0  0  0  0  0
  -27.3955  -29.7247   25.5036 H   0  0  0  0  0  0
  -27.9012  -30.4066   23.9792 H   0  0  0  0  0  0
  -27.2684  -33.3646   26.1952 H   0  0  0  0  0  0
  -28.3924  -32.6764   25.0312 H   0  0  0  0  0  0
  -28.0689  -31.8468   26.5457 H   0  0  0  0  0  0
  -28.2565  -38.0093   24.7544 H   0  0  0  0  0  0
  -28.1126  -36.2624   24.6227 H   0  0  0  0  0  0
  -27.2308  -37.1337   25.8854 H   0  0  0  0  0  0
  -20.9560  -29.8717   21.6667 H   0  0  0  0  0  0
  -26.0151  -38.2777   24.1407 H   0  0  0  0  0  0
  -30.7419  -23.1384   20.3350 H   0  0  0  0  0  0
  -26.7917  -21.6068   20.2762 H   0  0  0  0  0  0
  -27.0085  -18.0725   18.7274 H   0  0  0  0  0  0
  -28.7538  -18.3651   18.2587 H   0  0  0  0  0  0
  -29.0365  -16.0330   17.6043 H   0  0  0  0  0  0
  -27.2449  -15.7889   17.9192 H   0  0  0  0  0  0
  -27.6460  -16.3777   20.4163 H   0  0  0  0  0  0
  -32.4943  -21.6977   20.6769 H   0  0  0  0  0  0
  -32.3822  -20.2527   19.6745 H   0  0  0  0  0  0
  -32.1985  -20.1396   21.4301 H   0  0  0  0  0  0
  -26.8958  -24.1981   20.4589 H   0  0  0  0  0  0
  -27.6983  -24.3054   18.9394 H   0  0  0  0  0  0
  -30.7542  -18.0750   21.4405 H   0  0  0  0  0  0
  -31.0885  -18.1771   19.7598 H   0  0  0  0  0  0
  1 25  1  0  0  0
  1 30  2  0  0  0
  1 83  1  0  0  0
  2  3  1  0  0  0
  2 25  1  0  0  0
  2 84  1  0  0  0
  2 85  1  0  0  0
  3  4  1  0  0  0
  3 86  1  0  0  0
  3 87  1  0  0  0
  4  5  1  0  0  0
  4 88  1  0  0  0
  4 89  1  0  0  0
  5  6  1  0  0  0
  5 26  1  0  0  0
  5 90  1  0  0  0
  6 25  1  0  0  0
  6 91  1  0  0  0
  6 92  1  0  0  0
  7  8  2  0  0  0
  7 26  1  0  0  0
  7 29  1  0  0  0
  8  9  1  0  0  0
  8 22  1  0  0  0
  9 10  1  0  0  0
  9 27  2  0  0  0
 10 11  2  0  0  0
 10 15  1  0  0  0
 11 12  1  0  0  0
 11 93  1  0  0  0
 12 13  2  0  0  0
 12 94  1  0  0  0
 13 14  1  0  0  0
 13 31  1  0  0  0
 14 15  2  0  0  0
 14 95  1  0  0  0
 15 96  1  0  0  0
 16 17  2  0  0  0
 16 21  1  0  0  0
 16 31  1  0  0  0
 17 18  1  0  0  0
 17 97  1  0  0  0
 18 19  2  0  0  0
 18 98  1  0  0  0
 19 20  1  0  0  0
 19 24  1  0  0  0
 20 21  2  0  0  0
 20 99  1  0  0  0
 21 23  1  0  0  0
 22 28  1  0  0  0
 22 32  2  0  0  0
 26 27  1  0  0  0
 28100  1  0  0  0
 28101  1  0  0  0
 29102  1  0  0  0
 29103  1  0  0  0
 33 34  1  0  0  0
 33 66  1  0  0  0
 33 70  2  0  0  0
 34 36  1  0  0  0
 34 59  1  0  0  0
 34104  1  0  0  0
 35 44  2  0  0  0
 35 45  1  0  0  0
 35 68  1  0  0  0
 36 56  1  0  0  0
 36105  1  0  0  0
 37 39  1  0  0  0
 37 47  1  0  0  0
 37 66  1  0  0  0
 37106  1  0  0  0
 38 43  2  0  0  0
 38 46  1  0  0  0
 38 47  1  0  0  0
 39 64  1  0  0  0
 39 67  2  0  0  0
 40 52  1  0  0  0
 40 53  2  0  0  0
 40 58  1  0  0  0
 41107  1  0  0  0
 41108  1  0  0  0
 41109  1  0  0  0
 41 48  1  0  0  0
 42 43  1  0  0  0
 42 66  1  0  0  0
 42110  1  0  0  0
 42111  1  0  0  0
 43 44  1  0  0  0
 44112  1  0  0  0
 45 46  2  0  0  0
 45113  1  0  0  0
 46114  1  0  0  0
 47115  1  0  0  0
 47116  1  0  0  0
 48 56  1  0  0  0
 48 65  1  0  0  0
 48117  1  0  0  0
 49 50  1  0  0  0
 49 53  1  0  0  0
 49 64  1  0  0  0
 49118  1  0  0  0
 50 51  1  0  0  0
 50119  1  0  0  0
 50120  1  0  0  0
 51 52  1  0  0  0
 51121  1  0  0  0
 51122  1  0  0  0
 52123  1  0  0  0
 52124  1  0  0  0
 53 54  1  0  0  0
 54 55  2  0  0  0
 54125  1  0  0  0
 55 57  1  0  0  0
 55126  1  0  0  0
 56 69  2  0  0  0
 57 58  2  0  0  0
 57127  1  0  0  0
 58128  1  0  0  0
 59 60  1  0  0  0
 59 61  1  0  0  0
 59 62  1  0  0  0
 60129  1  0  0  0
 60130  1  0  0  0
 60131  1  0  0  0
 61132  1  0  0  0
 61133  1  0  0  0
 61134  1  0  0  0
 62135  1  0  0  0
 62136  1  0  0  0
 62137  1  0  0  0
 63 65  1  0  0  0
 63138  1  0  0  0
 63139  1  0  0  0
 63140  1  0  0  0
 64141  1  0  0  0
 65142  1  0  0  0
 68 80  1  0  0  0
 71 73  2  0  0  0
 71 74  1  0  0  0
 71143  1  0  0  0
 72 73  1  0  0  0
 72 82  2  0  0  0
 72144  1  0  0  0
 73 80  1  0  0  0
 74 75  2  0  0  0
 74 79  1  0  0  0
 75 81  1  0  0  0
 75 82  1  0  0  0
 76 77  1  0  0  0
 76 78  1  0  0  0
 76145  1  0  0  0
 76146  1  0  0  0
 77 78  1  0  0  0
 77147  1  0  0  0
 77148  1  0  0  0
 78 83  1  0  0  0
 78149  1  0  0  0
 79150  1  0  0  0
 79151  1  0  0  0
 79152  1  0  0  0
 80153  1  0  0  0
 80154  1  0  0  0
 81 83  1  0  0  0
 81155  1  0  0  0
 81156  1  0  0  0
M  ISO  4   1 100  68 101  80 101  83 100
M  END
> <chiral flag>
0

> <version>
0

> <s_m_source_file>
/data/baiqing/PycharmProjects/Reinvent-master-3.2/result/LINK_invent/BTK/process_docking_weight1_custom_sum_contain_oxygen_bond_distance_aromatic_linkinvent_7_9_3/rearranged_h_0160.sdf

> <i_m_source_file_index>
94

> <r_mmod_Potential_Energy-OPLS-2005>
1136.50085449219

> <r_mmod_Stretch_Energy-OPLS-2005>
468.68505859375

> <r_mmod_Bend_Energy-OPLS-2005>
439.930908203125

> <r_mmod_Torsional_Energy-OPLS-2005>
353.218780517578

> <r_mmod_Improper_Torsional_Energy-OPLS-2005>
6.08258771896362

> <r_mmod_Van_der_Waal_Energy-OPLS-2005>
138.481079101562

> <r_mmod_Electrostatic_Energy-OPLS-2005>
-489.082092285156

> <r_mmod_Solvation_Energy-OPLS-2005>
-214.882827758789

> <b_mmod_Minimization_Converged-OPLS-2005>
0

> <r_mmod_RMS_Derivative-OPLS-2005>
2.4967839717865

$$$$
94
                    3D
 Structure written by MMmdl.
169178  0  0  1  0            999 V2000
  -30.7098  -14.5453   20.5781 C   0  0  0  0  0  0
  -30.4172  -12.3593   19.4371 C   0  0  0  0  0  0
  -29.4857  -12.4839   18.2137 C   0  0  0  0  0  0
  -28.0217  -12.2940   18.6463 C   0  0  0  0  0  0
  -27.6465  -13.1912   19.8527 C   0  0  2  0  0  0
  -28.6890  -13.0611   20.9867 C   0  0  0  0  0  0
  -25.2607  -13.8155   20.5702 C   0  0  0  0  0  0
  -24.1846  -13.0481   20.9220 C   0  0  0  0  0  0
  -24.6348  -11.6930   20.8768 C   0  0  0  0  0  0
  -23.9031  -10.4325   21.0426 C   0  0  0  0  0  0
  -24.3607   -9.4234   21.9160 C   0  0  0  0  0  0
  -23.6267   -8.2290   22.0745 C   0  0  0  0  0  0
  -22.4240   -8.0341   21.3564 C   0  0  0  0  0  0
  -21.9884   -9.0318   20.4647 C   0  0  0  0  0  0
  -22.7229  -10.2176   20.3048 C   0  0  0  0  0  0
  -21.6859   -6.0801   22.5331 C   0  0  0  0  0  0
  -21.4037   -6.5679   23.8277 C   0  0  0  0  0  0
  -21.3609   -5.6795   24.9225 C   0  0  0  0  0  0
  -21.6026   -4.3074   24.7243 C   0  0  0  0  0  0
  -21.8812   -3.8190   23.4348 C   0  0  0  0  0  0
  -21.9185   -4.7023   22.3430 C   0  0  0  0  0  0
  -22.7880  -13.5325   21.1832 C   0  0  0  0  0  0
  -22.1640   -4.2221   21.0998 F   0  0  0  0  0  0
  -21.5551   -3.4520   25.7731 F   0  0  0  0  0  0
  -30.0091  -13.3818   20.4247 N   0  0  0  0  0  0
  -26.2963  -12.9245   20.3331 N   0  0  0  0  0  0
  -25.9266  -11.6444   20.5808 N   0  0  0  0  0  0
  -22.0469  -12.8365   22.0366 N   0  0  0  0  0  0
  -25.4384  -15.1861   20.4074 N   0  0  0  0  0  0
  -31.8565  -14.6632   20.1326 O   0  0  0  0  0  0
  -21.6609   -6.8940   21.4293 O   0  0  0  0  0  0
  -22.3604  -14.5648   20.6665 O   0  0  0  0  0  0
  -24.6176  -31.8628   23.2061 C   0  0  0  0  0  0
  -25.9082  -32.4790   23.8354 C   0  0  1  0  0  0
  -27.2424  -27.3703   20.1282 C   0  0  0  0  0  0
  -25.5939  -33.8576   24.2314 N   0  0  0  0  0  0
  -23.4090  -30.4841   21.5470 C   0  0  2  0  0  0
  -24.8649  -28.9468   20.1141 C   0  0  0  0  0  0
  -22.7414  -29.4615   22.4970 C   0  0  0  0  0  0
  -18.0270  -28.1390   22.8466 C   0  0  0  0  0  0
  -24.1512  -36.7262   23.2633 C   0  0  0  0  0  0
  -25.9437  -30.8167   21.3682 C   0  0  0  0  0  0
  -26.0262  -29.4436   20.7174 C   0  0  0  0  0  0
  -27.2126  -28.6649   20.7218 C   0  0  0  0  0  0
  -26.0660  -26.9250   19.4772 C   0  0  0  0  0  0
  -24.8846  -27.6890   19.4884 C   0  0  0  0  0  0
  -23.6247  -29.8139   20.1619 C   0  0  0  0  0  0
  -25.4130  -36.3061   24.0320 C   0  0  1  0  0  0
  -20.5862  -28.3653   23.1335 C   0  0  2  0  0  0
  -20.6782  -26.9390   22.5437 C   0  0  0  0  0  0
  -19.5774  -26.6377   21.5221 C   0  0  0  0  0  0
  -18.1937  -26.7932   22.1606 C   0  0  0  0  0  0
  -19.1515  -28.8834   23.2894 C   0  0  0  0  0  0
  -18.9443  -30.1448   23.8898 C   0  0  0  0  0  0
  -17.6440  -30.6591   24.0551 C   0  0  0  0  0  0
  -25.9039  -34.9433   23.5083 C   0  0  0  0  0  0
  -16.5330  -29.9081   23.6360 C   0  0  0  0  0  0
  -16.7251  -28.6504   23.0349 C   0  0  0  0  0  0
  -26.4512  -31.6567   25.0685 C   0  0  0  0  0  0
  -25.3802  -31.3657   26.1443 C   0  0  0  0  0  0
  -27.0368  -30.3017   24.6081 C   0  0  0  0  0  0
  -27.6110  -32.4261   25.7442 C   0  0  0  0  0  0
  -27.5584  -37.1796   24.8464 C   0  0  0  0  0  0
  -21.4142  -29.2994   22.3719 N   0  0  0  0  0  0
  -26.4311  -37.3760   23.9383 N   0  0  0  0  0  0
  -24.6752  -31.0670   22.0988 N   0  0  0  0  0  0
  -23.4144  -28.8165   23.3055 O   0  0  0  0  0  0
  -28.3919  -26.5810   20.2128 O   0  0  0  0  0  0
  -26.5577  -34.8877   22.4642 O   0  0  0  0  0  0
  -23.5361  -32.1410   23.7418 O   0  0  0  0  0  0
  -33.2146  -22.5537   20.4298 C   0  0  0  0  0  0
  -32.2948  -20.4927   21.2858 C   0  0  0  0  0  0
  -33.4087  -21.2837   20.9811 C   0  0  0  0  0  0
  -31.9133  -23.0619   20.2280 C   0  0  0  0  0  0
  -30.7650  -22.3057   20.6425 C   0  0  0  0  0  0
  -30.9694  -20.9436   21.0880 C   0  0  0  0  0  0
  -30.5491  -17.8494   22.4684 C   0  0  0  0  0  0
  -28.9059  -17.8954   20.7126 C   0  0  0  0  0  0
  -30.8910  -16.3467   22.2448 C   0  0  0  0  0  0
  -29.0210  -16.3436   20.5272 C   0  0  0  0  0  0
  -30.1829  -18.6033   21.1677 C   0  0  0  0  0  0
  -34.8078  -20.7399   21.1816 C   0  0  0  0  0  0
  -31.8290  -24.3730   19.4484 C   0  0  0  0  0  0
  -29.1763  -24.2574   21.0038 C   0  0  0  0  0  0
  -28.3089  -25.1287   20.0236 C   0  0  0  0  0  0
  -30.1114  -15.6059   21.2174 N   0  0  0  0  0  0
  -29.4567  -22.8566   20.5656 N   0  0  0  0  0  0
  -29.9241  -20.0432   21.3166 O   0  0  0  0  0  0
  -30.3342  -11.3649   19.8822 H   0  0  0  0  0  0
  -31.4570  -12.4618   19.1281 H   0  0  0  0  0  0
  -29.7473  -11.7402   17.4602 H   0  0  0  0  0  0
  -29.6067  -13.4624   17.7479 H   0  0  0  0  0  0
  -27.9056  -11.2424   18.9168 H   0  0  0  0  0  0
  -27.3426  -12.4706   17.8105 H   0  0  0  0  0  0
  -27.6538  -14.2074   19.4666 H   0  0  0  0  0  0
  -28.6991  -12.0426   21.3814 H   0  0  0  0  0  0
  -28.4326  -13.7088   21.8248 H   0  0  0  0  0  0
  -25.2758   -9.5718   22.4707 H   0  0  0  0  0  0
  -23.9989   -7.4693   22.7477 H   0  0  0  0  0  0
  -21.0798   -8.8888   19.8933 H   0  0  0  0  0  0
  -22.3734  -10.9737   19.6150 H   0  0  0  0  0  0
  -21.2086   -7.6190   23.9844 H   0  0  0  0  0  0
  -21.1373   -6.0488   25.9125 H   0  0  0  0  0  0
  -22.0601   -2.7664   23.2861 H   0  0  0  0  0  0
  -22.3976  -12.0003   22.4767 H   0  0  0  0  0  0
  -21.1132  -13.1516   22.2552 H   0  0  0  0  0  0
  -24.6874  -15.8545   20.5330 H   0  0  0  0  0  0
  -26.2972  -15.6178   20.0876 H   0  0  0  0  0  0
  -26.7139  -32.5491   23.1095 H   0  0  0  0  0  0
  -25.0207  -33.9717   25.0535 H   0  0  0  0  0  0
  -22.6987  -31.3025   21.4043 H   0  0  0  0  0  0
  -23.3762  -35.9607   23.3300 H   0  0  0  0  0  0
  -24.3613  -36.8870   22.2051 H   0  0  0  0  0  0
  -23.7279  -37.6468   23.6640 H   0  0  0  0  0  0
  -26.0634  -31.5833   20.5991 H   0  0  0  0  0  0
  -26.8248  -30.8664   21.9971 H   0  0  0  0  0  0
  -28.1013  -29.0405   21.2098 H   0  0  0  0  0  0
  -26.0389  -25.9807   18.9548 H   0  0  0  0  0  0
  -23.9927  -27.3060   19.0091 H   0  0  0  0  0  0
  -23.7344  -30.5893   19.4035 H   0  0  0  0  0  0
  -22.7510  -29.2357   19.8621 H   0  0  0  0  0  0
  -25.1333  -36.1893   25.0818 H   0  0  0  0  0  0
  -20.9944  -28.3207   24.1459 H   0  0  0  0  0  0
  -20.5753  -26.2218   23.3591 H   0  0  0  0  0  0
  -21.6648  -26.7488   22.1197 H   0  0  0  0  0  0
  -19.6951  -25.6288   21.1243 H   0  0  0  0  0  0
  -19.6752  -27.3201   20.6762 H   0  0  0  0  0  0
  -17.4232  -26.6674   21.3983 H   0  0  0  0  0  0
  -18.0321  -26.0074   22.9004 H   0  0  0  0  0  0
  -19.7902  -30.7287   24.2249 H   0  0  0  0  0  0
  -17.4979  -31.6281   24.5139 H   0  0  0  0  0  0
  -15.5323  -30.2976   23.7693 H   0  0  0  0  0  0
  -15.8648  -28.0835   22.7064 H   0  0  0  0  0  0
  -24.5990  -30.6997   25.7754 H   0  0  0  0  0  0
  -24.8987  -32.2818   26.4876 H   0  0  0  0  0  0
  -25.8179  -30.8824   27.0192 H   0  0  0  0  0  0
  -26.2934  -29.6731   24.1189 H   0  0  0  0  0  0
  -27.4216  -29.7272   25.4509 H   0  0  0  0  0  0
  -27.8692  -30.4326   23.9171 H   0  0  0  0  0  0
  -27.2774  -33.3563   26.2029 H   0  0  0  0  0  0
  -28.3919  -32.6804   25.0269 H   0  0  0  0  0  0
  -28.0785  -31.8381   26.5350 H   0  0  0  0  0  0
  -28.2614  -38.0091   24.7509 H   0  0  0  0  0  0
  -28.1083  -36.2619   24.6315 H   0  0  0  0  0  0
  -27.2283  -37.1462   25.8867 H   0  0  0  0  0  0
  -20.9297  -29.8633   21.6878 H   0  0  0  0  0  0
  -26.0170  -38.2809   24.1433 H   0  0  0  0  0  0
  -34.0819  -23.1259   20.1283 H   0  0  0  0  0  0
  -32.4905  -19.5104   21.6787 H   0  0  0  0  0  0
  -31.3717  -18.3131   23.0081 H   0  0  0  0  0  0
  -29.7039  -17.9087   23.1525 H   0  0  0  0  0  0
  -28.1276  -18.1007   21.4517 H   0  0  0  0  0  0
  -28.5495  -18.3469   19.7909 H   0  0  0  0  0  0
  -31.9606  -16.2712   22.0357 H   0  0  0  0  0  0
  -30.7543  -15.8175   23.1900 H   0  0  0  0  0  0
  -28.0820  -15.9201   20.8773 H   0  0  0  0  0  0
  -29.0619  -16.1405   19.4557 H   0  0  0  0  0  0
  -30.9479  -18.4381   20.4035 H   0  0  0  0  0  0
  -35.3426  -20.6905   20.2307 H   0  0  0  0  0  0
  -34.7918  -19.7361   21.6101 H   0  0  0  0  0  0
  -35.3697  -21.3838   21.8608 H   0  0  0  0  0  0
  -31.7663  -25.2538   20.0879 H   0  0  0  0  0  0
  -30.9763  -24.3614   18.7701 H   0  0  0  0  0  0
  -32.7153  -24.5086   18.8248 H   0  0  0  0  0  0
  -30.0911  -24.7767   21.2686 H   0  0  0  0  0  0
  -28.6307  -24.2023   21.9472 H   0  0  0  0  0  0
  -27.2924  -24.7560   20.1389 H   0  0  0  0  0  0
  -28.5940  -24.9145   18.9938 H   0  0  0  0  0  0
  -28.7482  -22.1865   20.8531 H   0  0  0  0  0  0
  1 25  1  0  0  0
  1 30  2  0  0  0
  1 86  1  0  0  0
  2  3  1  0  0  0
  2 25  1  0  0  0
  2 89  1  0  0  0
  2 90  1  0  0  0
  3  4  1  0  0  0
  3 91  1  0  0  0
  3 92  1  0  0  0
  4  5  1  0  0  0
  4 93  1  0  0  0
  4 94  1  0  0  0
  5  6  1  0  0  0
  5 26  1  0  0  0
  5 95  1  0  0  0
  6 25  1  0  0  0
  6 96  1  0  0  0
  6 97  1  0  0  0
  7  8  2  0  0  0
  7 26  1  0  0  0
  7 29  1  0  0  0
  8  9  1  0  0  0
  8 22  1  0  0  0
  9 10  1  0  0  0
  9 27  2  0  0  0
 10 11  2  0  0  0
 10 15  1  0  0  0
 11 12  1  0  0  0
 11 98  1  0  0  0
 12 13  2  0  0  0
 12 99  1  0  0  0
 13 14  1  0  0  0
 13 31  1  0  0  0
 14 15  2  0  0  0
 14100  1  0  0  0
 15101  1  0  0  0
 16 17  2  0  0  0
 16 21  1  0  0  0
 16 31  1  0  0  0
 17 18  1  0  0  0
 17102  1  0  0  0
 18 19  2  0  0  0
 18103  1  0  0  0
 19 20  1  0  0  0
 19 24  1  0  0  0
 20 21  2  0  0  0
 20104  1  0  0  0
 21 23  1  0  0  0
 22 28  1  0  0  0
 22 32  2  0  0  0
 26 27  1  0  0  0
 28105  1  0  0  0
 28106  1  0  0  0
 29107  1  0  0  0
 29108  1  0  0  0
 33 34  1  0  0  0
 33 66  1  0  0  0
 33 70  2  0  0  0
 34 36  1  0  0  0
 34 59  1  0  0  0
 34109  1  0  0  0
 35 44  2  0  0  0
 35 45  1  0  0  0
 35 68  1  0  0  0
 36 56  1  0  0  0
 36110  1  0  0  0
 37 39  1  0  0  0
 37 47  1  0  0  0
 37 66  1  0  0  0
 37111  1  0  0  0
 38 43  2  0  0  0
 38 46  1  0  0  0
 38 47  1  0  0  0
 39 64  1  0  0  0
 39 67  2  0  0  0
 40 52  1  0  0  0
 40 53  2  0  0  0
 40 58  1  0  0  0
 41112  1  0  0  0
 41113  1  0  0  0
 41114  1  0  0  0
 41 48  1  0  0  0
 42 43  1  0  0  0
 42 66  1  0  0  0
 42115  1  0  0  0
 42116  1  0  0  0
 43 44  1  0  0  0
 44117  1  0  0  0
 45 46  2  0  0  0
 45118  1  0  0  0
 46119  1  0  0  0
 47120  1  0  0  0
 47121  1  0  0  0
 48 56  1  0  0  0
 48 65  1  0  0  0
 48122  1  0  0  0
 49 50  1  0  0  0
 49 53  1  0  0  0
 49 64  1  0  0  0
 49123  1  0  0  0
 50 51  1  0  0  0
 50124  1  0  0  0
 50125  1  0  0  0
 51 52  1  0  0  0
 51126  1  0  0  0
 51127  1  0  0  0
 52128  1  0  0  0
 52129  1  0  0  0
 53 54  1  0  0  0
 54 55  2  0  0  0
 54130  1  0  0  0
 55 57  1  0  0  0
 55131  1  0  0  0
 56 69  2  0  0  0
 57 58  2  0  0  0
 57132  1  0  0  0
 58133  1  0  0  0
 59 60  1  0  0  0
 59 61  1  0  0  0
 59 62  1  0  0  0
 60134  1  0  0  0
 60135  1  0  0  0
 60136  1  0  0  0
 61137  1  0  0  0
 61138  1  0  0  0
 61139  1  0  0  0
 62140  1  0  0  0
 62141  1  0  0  0
 62142  1  0  0  0
 63 65  1  0  0  0
 63143  1  0  0  0
 63144  1  0  0  0
 63145  1  0  0  0
 64146  1  0  0  0
 65147  1  0  0  0
 68 85  1  0  0  0
 71 73  2  0  0  0
 71 74  1  0  0  0
 71148  1  0  0  0
 72 73  1  0  0  0
 72 76  2  0  0  0
 72149  1  0  0  0
 73 82  1  0  0  0
 74 75  2  0  0  0
 74 83  1  0  0  0
 75 76  1  0  0  0
 75 87  1  0  0  0
 76 88  1  0  0  0
 77 79  1  0  0  0
 77 81  1  0  0  0
 77150  1  0  0  0
 77151  1  0  0  0
 78 80  1  0  0  0
 78 81  1  0  0  0
 78152  1  0  0  0
 78153  1  0  0  0
 79 86  1  0  0  0
 79154  1  0  0  0
 79155  1  0  0  0
 80 86  1  0  0  0
 80156  1  0  0  0
 80157  1  0  0  0
 81 88  1  0  0  0
 81158  1  0  0  0
 82159  1  0  0  0
 82160  1  0  0  0
 82161  1  0  0  0
 83162  1  0  0  0
 83163  1  0  0  0
 83164  1  0  0  0
 84 85  1  0  0  0
 84 87  1  0  0  0
 84165  1  0  0  0
 84166  1  0  0  0
 85167  1  0  0  0
 85168  1  0  0  0
 87169  1  0  0  0
M  ISO  4   1 100  68 101  85 101  86 100
M  END
> <chiral flag>
0

> <version>
0

> <s_m_source_file>
/data/baiqing/PycharmProjects/Reinvent-master-3.2/result/LINK_invent/BTK/process_docking_weight1_custom_sum_contain_oxygen_bond_distance_aromatic_linkinvent_7_9_3/rearranged_h_0160.sdf

> <i_m_source_file_index>
95

> <r_mmod_Potential_Energy-OPLS-2005>
246.724182128906

> <r_mmod_Stretch_Energy-OPLS-2005>
71.3807754516602

> <r_mmod_Bend_Energy-OPLS-2005>
151.573471069336

> <r_mmod_Torsional_Energy-OPLS-2005>
343.544982910156

> <r_mmod_Improper_Torsional_Energy-OPLS-2005>
7.32465696334839

> <r_mmod_Van_der_Waal_Energy-OPLS-2005>
171.515274047852

> <r_mmod_Electrostatic_Energy-OPLS-2005>
-318.410308837891

> <r_mmod_Solvation_Energy-OPLS-2005>
-209.966522216797

> <b_mmod_Minimization_Converged-OPLS-2005>
0

> <r_mmod_RMS_Derivative-OPLS-2005>
5.68543529510498

$$$$
95
                    3D
 Structure written by MMmdl.
172181  0  0  1  0            999 V2000
  -30.5491  -14.7383   20.4629 C   0  0  0  0  0  0
  -30.4451  -12.4477   19.4648 C   0  0  0  0  0  0
  -29.5129  -12.5180   18.2329 C   0  0  0  0  0  0
  -28.0371  -12.3379   18.6437 C   0  0  0  0  0  0
  -27.6475  -13.2183   19.8601 C   0  0  2  0  0  0
  -28.6912  -13.1016   20.9925 C   0  0  0  0  0  0
  -25.2538  -13.8160   20.5696 C   0  0  0  0  0  0
  -24.1814  -13.0429   20.9200 C   0  0  0  0  0  0
  -24.6388  -11.6896   20.8753 C   0  0  0  0  0  0
  -23.9065  -10.4282   21.0417 C   0  0  0  0  0  0
  -24.3619   -9.4196   21.9196 C   0  0  0  0  0  0
  -23.6291   -8.2234   22.0767 C   0  0  0  0  0  0
  -22.4276   -8.0276   21.3548 C   0  0  0  0  0  0
  -21.9913   -9.0251   20.4648 C   0  0  0  0  0  0
  -22.7241  -10.2129   20.3061 C   0  0  0  0  0  0
  -21.6849   -6.0738   22.5282 C   0  0  0  0  0  0
  -21.4013   -6.5646   23.8213 C   0  0  0  0  0  0
  -21.3658   -5.6802   24.9178 C   0  0  0  0  0  0
  -21.6050   -4.3065   24.7229 C   0  0  0  0  0  0
  -21.8817   -3.8152   23.4351 C   0  0  0  0  0  0
  -21.9190   -4.6967   22.3406 C   0  0  0  0  0  0
  -22.7834  -13.5216   21.1863 C   0  0  0  0  0  0
  -22.1661   -4.2151   21.0986 F   0  0  0  0  0  0
  -21.5622   -3.4548   25.7741 F   0  0  0  0  0  0
  -29.9941  -13.4791   20.4249 N   0  0  0  0  0  0
  -26.2960  -12.9340   20.3303 N   0  0  0  0  0  0
  -25.9312  -11.6497   20.5759 N   0  0  0  0  0  0
  -22.0493  -12.8196   22.0417 N   0  0  0  0  0  0
  -25.4246  -15.1887   20.4105 N   0  0  0  0  0  0
  -31.7242  -14.9133   20.1232 O   0  0  0  0  0  0
  -21.6635   -6.8879   21.4241 O   0  0  0  0  0  0
  -22.3516  -14.5523   20.6714 O   0  0  0  0  0  0
  -24.6309  -31.8538   23.1972 C   0  0  0  0  0  0
  -25.9140  -32.4742   23.8313 C   0  0  1  0  0  0
  -27.2199  -27.2647   20.1244 C   0  0  0  0  0  0
  -25.5935  -33.8547   24.2235 N   0  0  0  0  0  0
  -23.4262  -30.4762   21.5401 C   0  0  2  0  0  0
  -24.8705  -28.9174   20.1096 C   0  0  0  0  0  0
  -22.7481  -29.4603   22.4908 C   0  0  0  0  0  0
  -18.0282  -28.1389   22.8481 C   0  0  0  0  0  0
  -24.1491  -36.7293   23.2639 C   0  0  0  0  0  0
  -25.9701  -30.7677   21.3739 C   0  0  0  0  0  0
  -26.0411  -29.3901   20.7152 C   0  0  0  0  0  0
  -27.2163  -28.5754   20.7100 C   0  0  0  0  0  0
  -26.0247  -26.8512   19.4973 C   0  0  0  0  0  0
  -24.8661  -27.6559   19.4922 C   0  0  0  0  0  0
  -23.6435  -29.8074   20.1564 C   0  0  0  0  0  0
  -25.4117  -36.3064   24.0318 C   0  0  1  0  0  0
  -20.5887  -28.3703   23.1272 C   0  0  2  0  0  0
  -20.6775  -26.9426   22.5406 C   0  0  0  0  0  0
  -19.5758  -26.6384   21.5204 C   0  0  0  0  0  0
  -18.1932  -26.7932   22.1614 C   0  0  0  0  0  0
  -19.1536  -28.8858   23.2872 C   0  0  0  0  0  0
  -18.9464  -30.1457   23.8896 C   0  0  0  0  0  0
  -17.6467  -30.6595   24.0558 C   0  0  0  0  0  0
  -25.9057  -34.9437   23.5079 C   0  0  0  0  0  0
  -16.5356  -29.9094   23.6330 C   0  0  0  0  0  0
  -16.7271  -28.6505   23.0361 C   0  0  0  0  0  0
  -26.4509  -31.6579   25.0713 C   0  0  0  0  0  0
  -25.3724  -31.3734   26.1425 C   0  0  0  0  0  0
  -27.0370  -30.2999   24.6209 C   0  0  0  0  0  0
  -27.6043  -32.4331   25.7507 C   0  0  0  0  0  0
  -27.5581  -37.1798   24.8457 C   0  0  0  0  0  0
  -21.4188  -29.3051   22.3652 N   0  0  0  0  0  0
  -26.4288  -37.3768   23.9405 N   0  0  0  0  0  0
  -24.6951  -31.0504   22.0945 N   0  0  0  0  0  0
  -23.4184  -28.8155   23.3014 O   0  0  0  0  0  0
  -28.3438  -26.4129   20.1883 O   0  0  0  0  0  0
  -26.5635  -34.8921   22.4653 O   0  0  0  0  0  0
  -23.5466  -32.1368   23.7273 O   0  0  0  0  0  0
  -29.2509  -20.2374   20.5122 C   0  0  0  0  0  0
  -29.4084  -19.4242   19.3363 C   0  0  0  0  0  0
  -29.2681  -19.4917   21.7439 C   0  0  0  0  0  0
  -29.6549  -17.9943   19.3912 C   0  0  0  0  0  0
  -29.4270  -18.0512   21.7934 C   0  0  0  0  0  0
  -29.6747  -17.2635   20.6235 C   0  0  0  0  0  0
  -27.6105  -22.4378   20.5035 C   0  0  0  0  0  0
  -29.8710  -22.7824   19.5479 C   0  0  0  0  0  0
  -27.5028  -23.9935   20.8155 C   0  0  0  0  0  0
  -29.7520  -24.3319   19.8561 C   0  0  0  0  0  0
  -29.0634  -21.8561   20.5219 C   0  0  2  0  0  0
  -28.3094  -24.9451   19.8629 C   0  0  2  0  0  0
  -29.2668  -20.0921   17.9716 C   0  0  0  0  0  0
  -29.0928  -20.2830   23.0461 C   0  0  0  0  0  0
  -29.8414  -17.2275   18.0839 C   0  0  0  0  0  0
  -30.6508  -17.2782   23.8903 C   0  0  0  0  0  0
  -29.3164  -17.3117   23.1339 C   0  0  0  0  0  0
  -29.6614  -15.7747   20.7104 N   0  0  0  0  0  0
  -31.4822  -12.5986   19.1617 H   0  0  0  0  0  0
  -30.4075  -11.4584   19.9230 H   0  0  0  0  0  0
  -29.7918  -11.7575   17.5025 H   0  0  0  0  0  0
  -29.6377  -13.4819   17.7362 H   0  0  0  0  0  0
  -27.8879  -11.2852   18.8889 H   0  0  0  0  0  0
  -27.3800  -12.5492   17.7988 H   0  0  0  0  0  0
  -27.6527  -14.2476   19.5022 H   0  0  0  0  0  0
  -28.7246  -12.0829   21.3809 H   0  0  0  0  0  0
  -28.4230  -13.7321   21.8413 H   0  0  0  0  0  0
  -25.2771   -9.5666   22.4770 H   0  0  0  0  0  0
  -24.0000   -7.4622   22.7486 H   0  0  0  0  0  0
  -21.0848   -8.8768   19.8945 H   0  0  0  0  0  0
  -22.3710  -10.9671   19.6170 H   0  0  0  0  0  0
  -21.2015   -7.6159   23.9713 H   0  0  0  0  0  0
  -21.1481   -6.0540   25.9080 H   0  0  0  0  0  0
  -22.0600   -2.7614   23.2853 H   0  0  0  0  0  0
  -22.4118  -11.9844   22.4783 H   0  0  0  0  0  0
  -21.1112  -13.1202   22.2639 H   0  0  0  0  0  0
  -24.6544  -15.8398   20.5173 H   0  0  0  0  0  0
  -26.2658  -15.6303   20.0617 H   0  0  0  0  0  0
  -26.7200  -32.5390   23.1048 H   0  0  0  0  0  0
  -25.0058  -33.9674   25.0365 H   0  0  0  0  0  0
  -22.7239  -31.2996   21.3929 H   0  0  0  0  0  0
  -23.3755  -35.9624   23.3278 H   0  0  0  0  0  0
  -24.3579  -36.8950   22.2059 H   0  0  0  0  0  0
  -23.7248  -37.6484   23.6691 H   0  0  0  0  0  0
  -26.1063  -31.5286   20.6046 H   0  0  0  0  0  0
  -26.8490  -30.8159   22.0052 H   0  0  0  0  0  0
  -28.1157  -28.9317   21.1928 H   0  0  0  0  0  0
  -25.9590  -25.8833   19.0241 H   0  0  0  0  0  0
  -23.9662  -27.2859   19.0212 H   0  0  0  0  0  0
  -23.7749  -30.5842   19.4021 H   0  0  0  0  0  0
  -22.7596  -29.2460   19.8484 H   0  0  0  0  0  0
  -25.1300  -36.1897   25.0811 H   0  0  0  0  0  0
  -20.9975  -28.3284   24.1397 H   0  0  0  0  0  0
  -20.5673  -26.2314   23.3603 H   0  0  0  0  0  0
  -21.6650  -26.7452   22.1212 H   0  0  0  0  0  0
  -19.6931  -25.6289   21.1249 H   0  0  0  0  0  0
  -19.6707  -27.3177   20.6720 H   0  0  0  0  0  0
  -17.4207  -26.6677   21.4014 H   0  0  0  0  0  0
  -18.0344  -26.0067   22.9003 H   0  0  0  0  0  0
  -19.7940  -30.7262   24.2282 H   0  0  0  0  0  0
  -17.5028  -31.6282   24.5157 H   0  0  0  0  0  0
  -15.5361  -30.3010   23.7651 H   0  0  0  0  0  0
  -15.8665  -28.0822   22.7104 H   0  0  0  0  0  0
  -24.5898  -30.7084   25.7758 H   0  0  0  0  0  0
  -24.8920  -32.2908   26.4837 H   0  0  0  0  0  0
  -25.8038  -30.8921   27.0209 H   0  0  0  0  0  0
  -26.2967  -29.6727   24.1229 H   0  0  0  0  0  0
  -27.4050  -29.7284   25.4739 H   0  0  0  0  0  0
  -27.8842  -30.4284   23.9467 H   0  0  0  0  0  0
  -27.2629  -33.3628   26.2077 H   0  0  0  0  0  0
  -28.3877  -32.6892   25.0361 H   0  0  0  0  0  0
  -28.0687  -31.8458   26.5439 H   0  0  0  0  0  0
  -28.2574  -38.0118   24.7524 H   0  0  0  0  0  0
  -28.1100  -36.2646   24.6257 H   0  0  0  0  0  0
  -27.2295  -37.1412   25.8858 H   0  0  0  0  0  0
  -20.9365  -29.8782   21.6866 H   0  0  0  0  0  0
  -26.0160  -38.2839   24.1414 H   0  0  0  0  0  0
  -27.1493  -22.2299   19.5376 H   0  0  0  0  0  0
  -27.0079  -21.8990   21.2348 H   0  0  0  0  0  0
  -30.9238  -22.5000   19.5868 H   0  0  0  0  0  0
  -29.5592  -22.6431   18.5164 H   0  0  0  0  0  0
  -27.8409  -24.1600   21.8390 H   0  0  0  0  0  0
  -26.4517  -24.2820   20.8080 H   0  0  0  0  0  0
  -30.3566  -24.8792   19.1329 H   0  0  0  0  0  0
  -30.2116  -24.5251   20.8260 H   0  0  0  0  0  0
  -29.4716  -22.1740   21.4762 H   0  0  0  0  0  0
  -27.9124  -24.8370   18.8531 H   0  0  0  0  0  0
  -28.4832  -20.8467   17.9949 H   0  0  0  0  0  0
  -28.9645  -19.4129   17.1773 H   0  0  0  0  0  0
  -30.2059  -20.5566   17.6719 H   0  0  0  0  0  0
  -28.1740  -20.8683   23.0154 H   0  0  0  0  0  0
  -29.9326  -20.9629   23.1869 H   0  0  0  0  0  0
  -29.0516  -19.7049   23.9623 H   0  0  0  0  0  0
  -30.5524  -17.7432   17.4382 H   0  0  0  0  0  0
  -28.8922  -17.1339   17.5556 H   0  0  0  0  0  0
  -30.2355  -16.2251   18.2178 H   0  0  0  0  0  0
  -30.5480  -16.7462   24.8363 H   0  0  0  0  0  0
  -31.0158  -18.2818   24.1100 H   0  0  0  0  0  0
  -31.4161  -16.7676   23.3043 H   0  0  0  0  0  0
  -28.9686  -16.2896   22.9984 H   0  0  0  0  0  0
  -28.5222  -17.7323   23.7479 H   0  0  0  0  0  0
  -28.7814  -15.4143   21.0444 H   0  0  0  0  0  0
  1 25  1  0  0  0
  1 30  2  0  0  0
  1 88  1  0  0  0
  2  3  1  0  0  0
  2 25  1  0  0  0
  2 89  1  0  0  0
  2 90  1  0  0  0
  3  4  1  0  0  0
  3 91  1  0  0  0
  3 92  1  0  0  0
  4  5  1  0  0  0
  4 93  1  0  0  0
  4 94  1  0  0  0
  5  6  1  0  0  0
  5 26  1  0  0  0
  5 95  1  0  0  0
  6 25  1  0  0  0
  6 96  1  0  0  0
  6 97  1  0  0  0
  7  8  2  0  0  0
  7 26  1  0  0  0
  7 29  1  0  0  0
  8  9  1  0  0  0
  8 22  1  0  0  0
  9 10  1  0  0  0
  9 27  2  0  0  0
 10 11  2  0  0  0
 10 15  1  0  0  0
 11 12  1  0  0  0
 11 98  1  0  0  0
 12 13  2  0  0  0
 12 99  1  0  0  0
 13 14  1  0  0  0
 13 31  1  0  0  0
 14 15  2  0  0  0
 14100  1  0  0  0
 15101  1  0  0  0
 16 17  2  0  0  0
 16 21  1  0  0  0
 16 31  1  0  0  0
 17 18  1  0  0  0
 17102  1  0  0  0
 18 19  2  0  0  0
 18103  1  0  0  0
 19 20  1  0  0  0
 19 24  1  0  0  0
 20 21  2  0  0  0
 20104  1  0  0  0
 21 23  1  0  0  0
 22 28  1  0  0  0
 22 32  2  0  0  0
 26 27  1  0  0  0
 28105  1  0  0  0
 28106  1  0  0  0
 29107  1  0  0  0
 29108  1  0  0  0
 33 34  1  0  0  0
 33 66  1  0  0  0
 33 70  2  0  0  0
 34 36  1  0  0  0
 34 59  1  0  0  0
 34109  1  0  0  0
 35 44  2  0  0  0
 35 45  1  0  0  0
 35 68  1  0  0  0
 36 56  1  0  0  0
 36110  1  0  0  0
 37 39  1  0  0  0
 37 47  1  0  0  0
 37 66  1  0  0  0
 37111  1  0  0  0
 38 43  2  0  0  0
 38 46  1  0  0  0
 38 47  1  0  0  0
 39 64  1  0  0  0
 39 67  2  0  0  0
 40 52  1  0  0  0
 40 53  2  0  0  0
 40 58  1  0  0  0
 41112  1  0  0  0
 41113  1  0  0  0
 41114  1  0  0  0
 41 48  1  0  0  0
 42 43  1  0  0  0
 42 66  1  0  0  0
 42115  1  0  0  0
 42116  1  0  0  0
 43 44  1  0  0  0
 44117  1  0  0  0
 45 46  2  0  0  0
 45118  1  0  0  0
 46119  1  0  0  0
 47120  1  0  0  0
 47121  1  0  0  0
 48 56  1  0  0  0
 48 65  1  0  0  0
 48122  1  0  0  0
 49 50  1  0  0  0
 49 53  1  0  0  0
 49 64  1  0  0  0
 49123  1  0  0  0
 50 51  1  0  0  0
 50124  1  0  0  0
 50125  1  0  0  0
 51 52  1  0  0  0
 51126  1  0  0  0
 51127  1  0  0  0
 52128  1  0  0  0
 52129  1  0  0  0
 53 54  1  0  0  0
 54 55  2  0  0  0
 54130  1  0  0  0
 55 57  1  0  0  0
 55131  1  0  0  0
 56 69  2  0  0  0
 57 58  2  0  0  0
 57132  1  0  0  0
 58133  1  0  0  0
 59 60  1  0  0  0
 59 61  1  0  0  0
 59 62  1  0  0  0
 60134  1  0  0  0
 60135  1  0  0  0
 60136  1  0  0  0
 61137  1  0  0  0
 61138  1  0  0  0
 61139  1  0  0  0
 62140  1  0  0  0
 62141  1  0  0  0
 62142  1  0  0  0
 63 65  1  0  0  0
 63143  1  0  0  0
 63144  1  0  0  0
 63145  1  0  0  0
 64146  1  0  0  0
 65147  1  0  0  0
 68 82  1  0  0  0
 71 72  2  0  0  0
 71 73  1  0  0  0
 71 81  1  0  0  0
 72 74  1  0  0  0
 72 83  1  0  0  0
 73 75  2  0  0  0
 73 84  1  0  0  0
 74 76  2  0  0  0
 74 85  1  0  0  0
 75 76  1  0  0  0
 75 87  1  0  0  0
 76 88  1  0  0  0
 77 79  1  0  0  0
 77 81  1  0  0  0
 77148  1  0  0  0
 77149  1  0  0  0
 78 80  1  0  0  0
 78 81  1  0  0  0
 78150  1  0  0  0
 78151  1  0  0  0
 79 82  1  0  0  0
 79152  1  0  0  0
 79153  1  0  0  0
 80 82  1  0  0  0
 80154  1  0  0  0
 80155  1  0  0  0
 81156  1  0  0  0
 82157  1  0  0  0
 83158  1  0  0  0
 83159  1  0  0  0
 83160  1  0  0  0
 84161  1  0  0  0
 84162  1  0  0  0
 84163  1  0  0  0
 85164  1  0  0  0
 85165  1  0  0  0
 85166  1  0  0  0
 86 87  1  0  0  0
 86167  1  0  0  0
 86168  1  0  0  0
 86169  1  0  0  0
 87170  1  0  0  0
 87171  1  0  0  0
 88172  1  0  0  0
M  ISO  4   1 100  68 101  82 101  88 100
M  END
> <chiral flag>
0

> <version>
0

> <s_m_source_file>
/data/baiqing/PycharmProjects/Reinvent-master-3.2/result/LINK_invent/BTK/process_docking_weight1_custom_sum_contain_oxygen_bond_distance_aromatic_linkinvent_7_9_3/rearranged_h_0160.sdf

> <i_m_source_file_index>
96

> <r_mmod_Potential_Energy-OPLS-2005>
184.51953125

> <r_mmod_Stretch_Energy-OPLS-2005>
126.729156494141

> <r_mmod_Bend_Energy-OPLS-2005>
186.587036132812

> <r_mmod_Torsional_Energy-OPLS-2005>
253.031539916992

> <r_mmod_Improper_Torsional_Energy-OPLS-2005>
6.29037094116211

> <r_mmod_Van_der_Waal_Energy-OPLS-2005>
159.296371459961

> <r_mmod_Electrostatic_Energy-OPLS-2005>
-430.046661376953

> <r_mmod_Solvation_Energy-OPLS-2005>
-198.333831787109

> <b_mmod_Minimization_Converged-OPLS-2005>
0

> <r_mmod_RMS_Derivative-OPLS-2005>
1.31978797912598

$$$$
96
                    3D
 Structure written by MMmdl.
179189  0  0  1  0            999 V2000
  -30.6906  -14.6301   20.4658 C   0  0  0  0  0  0
  -30.4131  -12.3860   19.4529 C   0  0  0  0  0  0
  -29.4938  -12.4828   18.2195 C   0  0  0  0  0  0
  -28.0211  -12.3294   18.6417 C   0  0  0  0  0  0
  -27.6417  -13.2313   19.8478 C   0  0  2  0  0  0
  -28.6890  -13.1547   20.9791 C   0  0  0  0  0  0
  -25.2512  -13.8214   20.5700 C   0  0  0  0  0  0
  -24.1800  -13.0449   20.9207 C   0  0  0  0  0  0
  -24.6388  -11.6924   20.8749 C   0  0  0  0  0  0
  -23.9065  -10.4296   21.0410 C   0  0  0  0  0  0
  -24.3616   -9.4210   21.9187 C   0  0  0  0  0  0
  -23.6290   -8.2242   22.0756 C   0  0  0  0  0  0
  -22.4274   -8.0278   21.3540 C   0  0  0  0  0  0
  -21.9913   -9.0255   20.4643 C   0  0  0  0  0  0
  -22.7241  -10.2135   20.3055 C   0  0  0  0  0  0
  -21.6854   -6.0725   22.5274 C   0  0  0  0  0  0
  -21.4015   -6.5635   23.8206 C   0  0  0  0  0  0
  -21.3657   -5.6789   24.9173 C   0  0  0  0  0  0
  -21.6050   -4.3053   24.7226 C   0  0  0  0  0  0
  -21.8819   -3.8140   23.4347 C   0  0  0  0  0  0
  -21.9193   -4.6953   22.3403 C   0  0  0  0  0  0
  -22.7820  -13.5227   21.1873 C   0  0  0  0  0  0
  -22.1661   -4.2135   21.0976 F   0  0  0  0  0  0
  -21.5631   -3.4537   25.7740 F   0  0  0  0  0  0
  -29.9952  -13.4533   20.3848 N   0  0  0  0  0  0
  -26.2938  -12.9424   20.3302 N   0  0  0  0  0  0
  -25.9320  -11.6562   20.5772 N   0  0  0  0  0  0
  -22.0470  -12.8196   22.0425 N   0  0  0  0  0  0
  -25.4235  -15.1929   20.4122 N   0  0  0  0  0  0
  -31.8985  -14.6485   20.2096 O   0  0  0  0  0  0
  -21.6638   -6.8868   21.4233 O   0  0  0  0  0  0
  -22.3493  -14.5530   20.6731 O   0  0  0  0  0  0
  -24.6269  -31.8632   23.2066 C   0  0  0  0  0  0
  -25.9131  -32.4787   23.8380 C   0  0  1  0  0  0
  -27.2040  -27.3106   20.1069 C   0  0  0  0  0  0
  -25.5952  -33.8591   24.2298 N   0  0  0  0  0  0
  -23.4180  -30.4898   21.5520 C   0  0  2  0  0  0
  -24.8594  -28.9571   20.1052 C   0  0  0  0  0  0
  -22.7479  -29.4636   22.4966 C   0  0  0  0  0  0
  -18.0281  -28.1358   22.8475 C   0  0  0  0  0  0
  -24.1496  -36.7285   23.2638 C   0  0  0  0  0  0
  -25.9621  -30.7870   21.3835 C   0  0  0  0  0  0
  -26.0318  -29.4166   20.7207 C   0  0  0  0  0  0
  -27.2049  -28.6026   20.7211 C   0  0  0  0  0  0
  -26.0173  -26.9360   19.4274 C   0  0  0  0  0  0
  -24.8550  -27.7211   19.4495 C   0  0  0  0  0  0
  -23.6284  -29.8361   20.1633 C   0  0  0  0  0  0
  -25.4120  -36.3086   24.0326 C   0  0  1  0  0  0
  -20.5884  -28.3684   23.1264 C   0  0  2  0  0  0
  -20.6781  -26.9405   22.5396 C   0  0  0  0  0  0
  -19.5762  -26.6372   21.5195 C   0  0  0  0  0  0
  -18.1934  -26.7905   22.1603 C   0  0  0  0  0  0
  -19.1533  -28.8833   23.2865 C   0  0  0  0  0  0
  -18.9469  -30.1433   23.8886 C   0  0  0  0  0  0
  -17.6475  -30.6575   24.0548 C   0  0  0  0  0  0
  -25.9060  -34.9461   23.5111 C   0  0  0  0  0  0
  -16.5358  -29.9065   23.6337 C   0  0  0  0  0  0
  -16.7270  -28.6476   23.0352 C   0  0  0  0  0  0
  -26.4514  -31.6588   25.0748 C   0  0  0  0  0  0
  -25.3722  -31.3715   26.1450 C   0  0  0  0  0  0
  -27.0365  -30.3017   24.6198 C   0  0  0  0  0  0
  -27.6067  -32.4340   25.7514 C   0  0  0  0  0  0
  -27.5579  -37.1803   24.8465 C   0  0  0  0  0  0
  -21.4191  -29.3041   22.3679 N   0  0  0  0  0  0
  -26.4301  -37.3770   23.9400 N   0  0  0  0  0  0
  -24.6881  -31.0636   22.1029 N   0  0  0  0  0  0
  -23.4206  -28.8169   23.3045 O   0  0  0  0  0  0
  -28.2863  -26.4111   20.1953 O   0  0  0  0  0  0
  -26.5624  -34.8922   22.4673 O   0  0  0  0  0  0
  -23.5436  -32.1448   23.7388 O   0  0  0  0  0  0
  -25.0669  -21.6613   23.4078 C   0  0  0  0  0  0
  -27.1041  -21.9738   24.6804 C   0  0  0  0  0  0
  -27.1608  -22.2151   22.2314 C   0  0  0  0  0  0
  -25.7309  -21.6872   24.6431 C   0  0  0  0  0  0
  -25.7623  -21.9237   22.2108 C   0  0  0  0  0  0
  -27.8263  -22.2397   23.4972 C   0  0  0  0  0  0
  -29.5222  -17.9822   19.0347 C   0  0  0  0  0  0
  -29.0056  -18.0208   21.3999 C   0  0  0  0  0  0
  -30.3831  -16.7036   19.2480 C   0  0  0  0  0  0
  -29.7880  -16.6599   21.5933 C   0  0  0  0  0  0
  -29.5771  -22.6965   19.7908 C   0  0  0  0  0  0
  -27.8900  -22.4925   20.8982 C   0  0  1  0  0  0
  -29.5142  -18.9440   20.2489 C   0  0  0  0  0  0
  -28.7477  -23.7540   20.5876 C   0  0  2  0  0  0
  -24.9730  -21.4140   25.9254 C   0  0  0  0  0  0
  -24.9436  -21.8983   20.9257 C   0  0  0  0  0  0
  -29.3034  -22.5637   23.6789 C   0  0  0  0  0  0
  -28.6584  -20.2638   19.9466 C   0  0  0  0  0  0
  -28.0001  -24.9780   19.9149 C   0  0  0  0  0  0
  -29.9864  -15.8201   20.3792 N   0  0  0  0  0  0
  -29.0210  -21.5847   20.6130 N   0  3  1  0  0  0
  -31.4569  -12.4745   19.1472 H   0  0  0  0  0  0
  -30.3227  -11.4081   19.9277 H   0  0  0  0  0  0
  -29.7547  -11.7116   17.4933 H   0  0  0  0  0  0
  -29.6413  -13.4404   17.7173 H   0  0  0  0  0  0
  -27.8692  -11.2824   18.9056 H   0  0  0  0  0  0
  -27.3607  -12.5274   17.7973 H   0  0  0  0  0  0
  -27.6425  -14.2560   19.4742 H   0  0  0  0  0  0
  -28.6953  -12.1667   21.4419 H   0  0  0  0  0  0
  -28.4480  -13.8676   21.7692 H   0  0  0  0  0  0
  -25.2756   -9.5680   22.4772 H   0  0  0  0  0  0
  -23.9992   -7.4631   22.7479 H   0  0  0  0  0  0
  -21.0846   -8.8770   19.8947 H   0  0  0  0  0  0
  -22.3699  -10.9670   19.6166 H   0  0  0  0  0  0
  -21.2007   -7.6142   23.9704 H   0  0  0  0  0  0
  -21.1486   -6.0521   25.9071 H   0  0  0  0  0  0
  -22.0603   -2.7598   23.2853 H   0  0  0  0  0  0
  -22.4084  -11.9839   22.4781 H   0  0  0  0  0  0
  -21.1090  -13.1211   22.2652 H   0  0  0  0  0  0
  -24.6633  -15.8539   20.5246 H   0  0  0  0  0  0
  -26.2886  -15.6278   20.1156 H   0  0  0  0  0  0
  -26.7188  -32.5456   23.1114 H   0  0  0  0  0  0
  -25.0119  -33.9732   25.0459 H   0  0  0  0  0  0
  -22.7119  -31.3119   21.4165 H   0  0  0  0  0  0
  -23.3766  -35.9607   23.3309 H   0  0  0  0  0  0
  -24.3590  -36.8907   22.2053 H   0  0  0  0  0  0
  -23.7248  -37.6485   23.6658 H   0  0  0  0  0  0
  -26.0991  -31.5535   20.6194 H   0  0  0  0  0  0
  -26.8401  -30.8274   22.0161 H   0  0  0  0  0  0
  -28.0961  -28.9434   21.2298 H   0  0  0  0  0  0
  -25.9397  -26.0127   18.8733 H   0  0  0  0  0  0
  -23.9632  -27.3680   18.9493 H   0  0  0  0  0  0
  -23.7448  -30.6189   19.4134 H   0  0  0  0  0  0
  -22.7467  -29.2679   19.8615 H   0  0  0  0  0  0
  -25.1299  -36.1948   25.0816 H   0  0  0  0  0  0
  -20.9958  -28.3259   24.1391 H   0  0  0  0  0  0
  -20.5690  -26.2288   23.3598 H   0  0  0  0  0  0
  -21.6647  -26.7441   22.1189 H   0  0  0  0  0  0
  -19.6943  -25.6287   21.1221 H   0  0  0  0  0  0
  -19.6699  -27.3186   20.6725 H   0  0  0  0  0  0
  -17.4208  -26.6652   21.3997 H   0  0  0  0  0  0
  -18.0325  -26.0030   22.8983 H   0  0  0  0  0  0
  -19.7953  -30.7226   24.2259 H   0  0  0  0  0  0
  -17.5041  -31.6256   24.5145 H   0  0  0  0  0  0
  -15.5364  -30.2966   23.7669 H   0  0  0  0  0  0
  -15.8663  -28.0796   22.7081 H   0  0  0  0  0  0
  -24.5927  -30.7035   25.7769 H   0  0  0  0  0  0
  -24.8861  -32.2865   26.4848 H   0  0  0  0  0  0
  -25.8035  -30.8924   27.0243 H   0  0  0  0  0  0
  -26.2941  -29.6764   24.1222 H   0  0  0  0  0  0
  -27.4065  -29.7289   25.4711 H   0  0  0  0  0  0
  -27.8813  -30.4316   23.9425 H   0  0  0  0  0  0
  -27.2671  -33.3661   26.2043 H   0  0  0  0  0  0
  -28.3883  -32.6870   25.0335 H   0  0  0  0  0  0
  -28.0704  -31.8486   26.5462 H   0  0  0  0  0  0
  -28.2593  -38.0102   24.7513 H   0  0  0  0  0  0
  -28.1081  -36.2638   24.6300 H   0  0  0  0  0  0
  -27.2285  -37.1444   25.8862 H   0  0  0  0  0  0
  -20.9369  -29.8771   21.6887 H   0  0  0  0  0  0
  -26.0198  -38.2845   24.1408 H   0  0  0  0  0  0
  -24.0073  -21.4433   23.3835 H   0  0  0  0  0  0
  -27.6061  -21.9973   25.6386 H   0  0  0  0  0  0
  -28.5004  -17.6889   18.7868 H   0  0  0  0  0  0
  -29.8997  -18.5097   18.1572 H   0  0  0  0  0  0
  -29.0199  -18.5750   22.3398 H   0  0  0  0  0  0
  -27.9545  -17.7840   21.2211 H   0  0  0  0  0  0
  -31.4214  -17.0151   19.3844 H   0  0  0  0  0  0
  -30.3662  -16.1216   18.3245 H   0  0  0  0  0  0
  -29.2717  -16.0640   22.3473 H   0  0  0  0  0  0
  -30.7702  -16.8807   22.0152 H   0  0  0  0  0  0
  -30.6576  -22.8065   19.8876 H   0  0  0  0  0  0
  -29.2875  -22.6425   18.7395 H   0  0  0  0  0  0
  -27.1944  -22.3925   20.0648 H   0  0  0  0  0  0
  -30.5448  -19.2388   20.4497 H   0  0  0  0  0  0
  -29.3075  -24.0712   21.4645 H   0  0  0  0  0  0
  -23.8989  -21.5374   25.7840 H   0  0  0  0  0  0
  -25.2846  -22.0991   26.7142 H   0  0  0  0  0  0
  -25.1572  -20.3942   26.2628 H   0  0  0  0  0  0
  -23.8914  -21.6873   21.1230 H   0  0  0  0  0  0
  -25.3012  -21.1259   20.2438 H   0  0  0  0  0  0
  -24.9843  -22.8644   20.4211 H   0  0  0  0  0  0
  -29.6595  -22.2144   24.6492 H   0  0  0  0  0  0
  -29.4603  -23.6425   23.6597 H   0  0  0  0  0  0
  -29.9473  -22.0929   22.9416 H   0  0  0  0  0  0
  -27.6190  -20.0370   20.1856 H   0  0  0  0  0  0
  -28.6558  -20.4432   18.8704 H   0  0  0  0  0  0
  -26.9701  -24.7965   20.2189 H   0  0  0  0  0  0
  -28.0147  -24.8524   18.8308 H   0  0  0  0  0  0
  -29.5546  -21.4458   21.4565 H   0  0  0  0  0  0
  1 25  1  0  0  0
  1 30  2  0  0  0
  1 90  1  0  0  0
  2  3  1  0  0  0
  2 25  1  0  0  0
  2 92  1  0  0  0
  2 93  1  0  0  0
  3  4  1  0  0  0
  3 94  1  0  0  0
  3 95  1  0  0  0
  4  5  1  0  0  0
  4 96  1  0  0  0
  4 97  1  0  0  0
  5  6  1  0  0  0
  5 26  1  0  0  0
  5 98  1  0  0  0
  6 25  1  0  0  0
  6 99  1  0  0  0
  6100  1  0  0  0
  7  8  2  0  0  0
  7 26  1  0  0  0
  7 29  1  0  0  0
  8  9  1  0  0  0
  8 22  1  0  0  0
  9 10  1  0  0  0
  9 27  2  0  0  0
 10 11  2  0  0  0
 10 15  1  0  0  0
 11 12  1  0  0  0
 11101  1  0  0  0
 12 13  2  0  0  0
 12102  1  0  0  0
 13 14  1  0  0  0
 13 31  1  0  0  0
 14 15  2  0  0  0
 14103  1  0  0  0
 15104  1  0  0  0
 16 17  2  0  0  0
 16 21  1  0  0  0
 16 31  1  0  0  0
 17 18  1  0  0  0
 17105  1  0  0  0
 18 19  2  0  0  0
 18106  1  0  0  0
 19 20  1  0  0  0
 19 24  1  0  0  0
 20 21  2  0  0  0
 20107  1  0  0  0
 21 23  1  0  0  0
 22 28  1  0  0  0
 22 32  2  0  0  0
 26 27  1  0  0  0
 28108  1  0  0  0
 28109  1  0  0  0
 29110  1  0  0  0
 29111  1  0  0  0
 33 34  1  0  0  0
 33 66  1  0  0  0
 33 70  2  0  0  0
 34 36  1  0  0  0
 34 59  1  0  0  0
 34112  1  0  0  0
 35 44  2  0  0  0
 35 45  1  0  0  0
 35 68  1  0  0  0
 36 56  1  0  0  0
 36113  1  0  0  0
 37 39  1  0  0  0
 37 47  1  0  0  0
 37 66  1  0  0  0
 37114  1  0  0  0
 38 43  2  0  0  0
 38 46  1  0  0  0
 38 47  1  0  0  0
 39 64  1  0  0  0
 39 67  2  0  0  0
 40 52  1  0  0  0
 40 53  2  0  0  0
 40 58  1  0  0  0
 41115  1  0  0  0
 41116  1  0  0  0
 41117  1  0  0  0
 41 48  1  0  0  0
 42 43  1  0  0  0
 42 66  1  0  0  0
 42118  1  0  0  0
 42119  1  0  0  0
 43 44  1  0  0  0
 44120  1  0  0  0
 45 46  2  0  0  0
 45121  1  0  0  0
 46122  1  0  0  0
 47123  1  0  0  0
 47124  1  0  0  0
 48 56  1  0  0  0
 48 65  1  0  0  0
 48125  1  0  0  0
 49 50  1  0  0  0
 49 53  1  0  0  0
 49 64  1  0  0  0
 49126  1  0  0  0
 50 51  1  0  0  0
 50127  1  0  0  0
 50128  1  0  0  0
 51 52  1  0  0  0
 51129  1  0  0  0
 51130  1  0  0  0
 52131  1  0  0  0
 52132  1  0  0  0
 53 54  1  0  0  0
 54 55  2  0  0  0
 54133  1  0  0  0
 55 57  1  0  0  0
 55134  1  0  0  0
 56 69  2  0  0  0
 57 58  2  0  0  0
 57135  1  0  0  0
 58136  1  0  0  0
 59 60  1  0  0  0
 59 61  1  0  0  0
 59 62  1  0  0  0
 60137  1  0  0  0
 60138  1  0  0  0
 60139  1  0  0  0
 61140  1  0  0  0
 61141  1  0  0  0
 61142  1  0  0  0
 62143  1  0  0  0
 62144  1  0  0  0
 62145  1  0  0  0
 63 65  1  0  0  0
 63146  1  0  0  0
 63147  1  0  0  0
 63148  1  0  0  0
 64149  1  0  0  0
 65150  1  0  0  0
 68 89  1  0  0  0
 71 74  2  0  0  0
 71 75  1  0  0  0
 71151  1  0  0  0
 72 74  1  0  0  0
 72 76  2  0  0  0
 72152  1  0  0  0
 73 75  2  0  0  0
 73 76  1  0  0  0
 73 82  1  0  0  0
 74 85  1  0  0  0
 75 86  1  0  0  0
 76 87  1  0  0  0
 77 79  1  0  0  0
 77 83  1  0  0  0
 77153  1  0  0  0
 77154  1  0  0  0
 78 80  1  0  0  0
 78 83  1  0  0  0
 78155  1  0  0  0
 78156  1  0  0  0
 79 90  1  0  0  0
 79157  1  0  0  0
 79158  1  0  0  0
 80 90  1  0  0  0
 80159  1  0  0  0
 80160  1  0  0  0
 81 84  1  0  0  0
 81 91  1  0  0  0
 81161  1  0  0  0
 81162  1  0  0  0
 82 84  1  0  0  0
 82 91  1  0  0  0
 82163  1  0  0  0
 83 88  1  0  0  0
 83164  1  0  0  0
 84 89  1  0  0  0
 84165  1  0  0  0
 85166  1  0  0  0
 85167  1  0  0  0
 85168  1  0  0  0
 86169  1  0  0  0
 86170  1  0  0  0
 86171  1  0  0  0
 87172  1  0  0  0
 87173  1  0  0  0
 87174  1  0  0  0
 88175  1  0  0  0
 88176  1  0  0  0
 88 91  1  0  0  0
 89177  1  0  0  0
 89178  1  0  0  0
 91179  1  0  0  0
M  CHG  1  91   1
M  ISO  4   1 100  68 101  89 101  90 100
M  END
> <chiral flag>
0

> <version>
0

> <s_m_source_file>
/data/baiqing/PycharmProjects/Reinvent-master-3.2/result/LINK_invent/BTK/process_docking_weight1_custom_sum_contain_oxygen_bond_distance_aromatic_linkinvent_7_9_3/rearranged_h_0160.sdf

> <i_m_source_file_index>
97

> <r_mmod_Potential_Energy-OPLS-2005>
232.192459106445

> <r_mmod_Stretch_Energy-OPLS-2005>
87.8215408325195

> <r_mmod_Bend_Energy-OPLS-2005>
187.554840087891

> <r_mmod_Torsional_Energy-OPLS-2005>
358.503326416016

> <r_mmod_Improper_Torsional_Energy-OPLS-2005>
17.7787628173828

> <r_mmod_Van_der_Waal_Energy-OPLS-2005>
159.927352905273

> <r_mmod_Electrostatic_Energy-OPLS-2005>
-212.439758300781

> <r_mmod_Solvation_Energy-OPLS-2005>
-429.22509765625

> <b_mmod_Minimization_Converged-OPLS-2005>
0

> <r_mmod_RMS_Derivative-OPLS-2005>
1.86294329166412

$$$$
97
                    3D
 Structure written by MMmdl.
163172  0  0  1  0            999 V2000
  -30.4911  -15.0549   20.4241 C   0  0  0  0  0  0
  -30.4350  -12.6603   19.5286 C   0  0  0  0  0  0
  -29.5274  -12.5502   18.2810 C   0  0  0  0  0  0
  -28.0658  -12.3107   18.6999 C   0  0  0  0  0  0
  -27.6208  -13.2630   19.8402 C   0  0  2  0  0  0
  -28.6514  -13.3309   20.9852 C   0  0  0  0  0  0
  -25.2397  -13.8227   20.5753 C   0  0  0  0  0  0
  -24.1759  -13.0433   20.9271 C   0  0  0  0  0  0
  -24.6437  -11.6927   20.8862 C   0  0  0  0  0  0
  -23.9170  -10.4289   21.0482 C   0  0  0  0  0  0
  -24.3713   -9.4173   21.9239 C   0  0  0  0  0  0
  -23.6350   -8.2228   22.0817 C   0  0  0  0  0  0
  -22.4330   -8.0319   21.3598 C   0  0  0  0  0  0
  -22.0019   -9.0286   20.4689 C   0  0  0  0  0  0
  -22.7377  -10.2138   20.3081 C   0  0  0  0  0  0
  -21.6847   -6.0813   22.5336 C   0  0  0  0  0  0
  -21.4020   -6.5714   23.8278 C   0  0  0  0  0  0
  -21.3615   -5.6857   24.9224 C   0  0  0  0  0  0
  -21.6002   -4.3120   24.7271 C   0  0  0  0  0  0
  -21.8805   -3.8225   23.4396 C   0  0  0  0  0  0
  -21.9177   -4.7040   22.3459 C   0  0  0  0  0  0
  -22.7734  -13.5147   21.1871 C   0  0  0  0  0  0
  -22.1627   -4.2232   21.1018 F   0  0  0  0  0  0
  -21.5602   -3.4582   25.7772 F   0  0  0  0  0  0
  -29.9104  -13.7774   20.3832 N   0  0  0  0  0  0
  -26.2814  -12.9498   20.3268 N   0  0  0  0  0  0
  -25.9347  -11.6602   20.5808 N   0  0  0  0  0  0
  -22.0383  -12.8112   22.0421 N   0  0  0  0  0  0
  -25.4085  -15.1976   20.4228 N   0  0  0  0  0  0
  -31.6846  -15.0870   20.0878 O   0  0  0  0  0  0
  -21.6635   -6.8964   21.4312 O   0  0  0  0  0  0
  -22.3400  -14.5424   20.6701 O   0  0  0  0  0  0
  -24.6510  -31.8440   23.1850 C   0  0  0  0  0  0
  -25.9279  -32.4681   23.8257 C   0  0  1  0  0  0
  -27.2000  -27.1046   20.1408 C   0  0  0  0  0  0
  -25.6013  -33.8488   24.2181 N   0  0  0  0  0  0
  -23.4525  -30.4651   21.5329 C   0  0  2  0  0  0
  -24.8960  -28.8883   20.1129 C   0  0  0  0  0  0
  -22.7609  -29.4549   22.4851 C   0  0  0  0  0  0
  -18.0306  -28.1376   22.8456 C   0  0  0  0  0  0
  -24.1479  -36.7265   23.2636 C   0  0  0  0  0  0
  -26.0146  -30.7047   21.3895 C   0  0  0  0  0  0
  -26.0794  -29.3125   20.7316 C   0  0  0  0  0  0
  -27.2370  -28.4399   20.7282 C   0  0  0  0  0  0
  -25.9937  -26.7995   19.4773 C   0  0  0  0  0  0
  -24.8708  -27.6430   19.4695 C   0  0  0  0  0  0
  -23.6772  -29.7961   20.1516 C   0  0  0  0  0  0
  -25.4089  -36.3024   24.0347 C   0  0  1  0  0  0
  -20.5922  -28.3714   23.1175 C   0  0  2  0  0  0
  -20.6770  -26.9396   22.5369 C   0  0  0  0  0  0
  -19.5722  -26.6363   21.5186 C   0  0  0  0  0  0
  -18.1895  -26.7908   22.1600 C   0  0  0  0  0  0
  -19.1562  -28.8870   23.2801 C   0  0  0  0  0  0
  -18.9508  -30.1463   23.8818 C   0  0  0  0  0  0
  -17.6500  -30.6573   24.0532 C   0  0  0  0  0  0
  -25.9088  -34.9420   23.5068 C   0  0  0  0  0  0
  -16.5395  -29.9084   23.6301 C   0  0  0  0  0  0
  -16.7288  -28.6510   23.0327 C   0  0  0  0  0  0
  -26.4564  -31.6577   25.0732 C   0  0  0  0  0  0
  -25.3761  -31.3785   26.1444 C   0  0  0  0  0  0
  -27.0474  -30.2970   24.6364 C   0  0  0  0  0  0
  -27.6037  -32.4427   25.7536 C   0  0  0  0  0  0
  -27.5559  -37.1733   24.8434 C   0  0  0  0  0  0
  -21.4301  -29.3092   22.3629 N   0  0  0  0  0  0
  -26.4222  -37.3770   23.9479 N   0  0  0  0  0  0
  -24.7256  -31.0273   22.0900 N   0  0  0  0  0  0
  -23.4264  -28.8051   23.2957 O   0  0  0  0  0  0
  -28.2213  -26.0788   20.1626 O   0  0  0  0  0  0
  -26.5648  -34.8948   22.4630 O   0  0  0  0  0  0
  -23.5611  -32.1378   23.7030 O   0  0  0  0  0  0
  -30.3266  -20.8787   19.1138 C   0  0  0  0  0  0
  -29.2586  -20.5589   19.9844 C   0  0  0  0  0  0
  -30.5729  -22.1885   18.6210 C   0  0  0  0  0  0
  -28.4644  -21.7695   20.3694 C   0  0  0  0  0  0
  -29.7680  -23.3089   18.9797 C   0  0  0  0  0  0
  -28.7256  -23.1925   19.9422 C   0  0  0  0  0  0
  -28.8397  -18.3597   21.7116 C   0  0  0  0  0  0
  -28.8568  -16.7661   21.6063 C   0  0  0  0  0  0
  -30.0002  -17.6779   19.8097 C   0  0  0  0  0  0
  -29.0169  -18.9208   20.2852 C   0  0  2  0  0  0
  -31.7348  -22.3589   17.6457 C   0  0  0  0  0  0
  -27.2175  -21.5172   21.2075 C   0  0  0  0  0  0
  -29.9887  -24.6411   18.2591 C   0  0  0  0  0  0
  -27.8575  -24.5566   20.3739 C   0  0  0  0  0  0
  -29.7380  -16.2985   20.4946 N   0  0  0  0  0  0
  -31.4674  -12.8292   19.2122 H   0  0  0  0  0  0
  -30.4534  -11.7222   20.0867 H   0  0  0  0  0  0
  -29.8719  -11.7499   17.6262 H   0  0  0  0  0  0
  -29.5932  -13.4732   17.7028 H   0  0  0  0  0  0
  -27.9909  -11.2777   19.0404 H   0  0  0  0  0  0
  -27.4044  -12.4046   17.8368 H   0  0  0  0  0  0
  -27.5693  -14.2541   19.3887 H   0  0  0  0  0  0
  -28.7593  -12.3589   21.4686 H   0  0  0  0  0  0
  -28.3303  -14.0335   21.7564 H   0  0  0  0  0  0
  -25.2858   -9.5608   22.4831 H   0  0  0  0  0  0
  -24.0047   -7.4619   22.7509 H   0  0  0  0  0  0
  -21.0975   -8.8800   19.8992 H   0  0  0  0  0  0
  -22.3861  -10.9685   19.6199 H   0  0  0  0  0  0
  -21.2038   -7.6230   23.9808 H   0  0  0  0  0  0
  -21.1417   -6.0600   25.9131 H   0  0  0  0  0  0
  -22.0629   -2.7689   23.2880 H   0  0  0  0  0  0
  -22.3969  -11.9796   22.4874 H   0  0  0  0  0  0
  -21.1008  -13.1162   22.2601 H   0  0  0  0  0  0
  -24.6563  -15.8646   20.5557 H   0  0  0  0  0  0
  -26.2673  -15.6375   20.1192 H   0  0  0  0  0  0
  -26.7350  -32.5227   23.0981 H   0  0  0  0  0  0
  -25.0220  -33.9576   25.0364 H   0  0  0  0  0  0
  -22.7553  -31.2907   21.3704 H   0  0  0  0  0  0
  -23.3805  -35.9529   23.3213 H   0  0  0  0  0  0
  -24.3540  -36.8993   22.2053 H   0  0  0  0  0  0
  -23.7196  -37.6420   23.6751 H   0  0  0  0  0  0
  -26.1699  -31.4538   20.6138 H   0  0  0  0  0  0
  -26.8912  -30.7529   22.0230 H   0  0  0  0  0  0
  -28.1388  -28.7630   21.2291 H   0  0  0  0  0  0
  -25.8783  -25.8611   18.9602 H   0  0  0  0  0  0
  -23.9788  -27.3012   18.9637 H   0  0  0  0  0  0
  -23.8248  -30.5742   19.4010 H   0  0  0  0  0  0
  -22.7909  -29.2485   19.8234 H   0  0  0  0  0  0
  -25.1235  -36.1804   25.0836 H   0  0  0  0  0  0
  -20.9988  -28.3301   24.1304 H   0  0  0  0  0  0
  -20.5572  -26.2352   23.3625 H   0  0  0  0  0  0
  -21.6628  -26.7309   22.1187 H   0  0  0  0  0  0
  -19.6893  -25.6277   21.1208 H   0  0  0  0  0  0
  -19.6645  -27.3177   20.6717 H   0  0  0  0  0  0
  -17.4157  -26.6692   21.4006 H   0  0  0  0  0  0
  -18.0275  -26.0014   22.8951 H   0  0  0  0  0  0
  -19.7997  -30.7271   24.2168 H   0  0  0  0  0  0
  -17.5071  -31.6205   24.5202 H   0  0  0  0  0  0
  -15.5391  -30.2966   23.7694 H   0  0  0  0  0  0
  -15.8683  -28.0820   22.7081 H   0  0  0  0  0  0
  -24.5901  -30.7142   25.7840 H   0  0  0  0  0  0
  -24.8988  -32.2973   26.4861 H   0  0  0  0  0  0
  -25.8065  -30.8983   27.0236 H   0  0  0  0  0  0
  -26.3131  -29.6652   24.1346 H   0  0  0  0  0  0
  -27.4083  -29.7276   25.4947 H   0  0  0  0  0  0
  -27.9032  -30.4256   23.9733 H   0  0  0  0  0  0
  -27.2575  -33.3778   26.1971 H   0  0  0  0  0  0
  -28.3925  -32.6951   25.0436 H   0  0  0  0  0  0
  -28.0650  -31.8670   26.5567 H   0  0  0  0  0  0
  -28.2464  -38.0126   24.7601 H   0  0  0  0  0  0
  -28.1172  -36.2669   24.6102 H   0  0  0  0  0  0
  -27.2280  -37.1155   25.8820 H   0  0  0  0  0  0
  -20.9572  -29.8981   21.6907 H   0  0  0  0  0  0
  -26.0086  -38.2821   24.1587 H   0  0  0  0  0  0
  -30.9610  -20.0774   18.7578 H   0  0  0  0  0  0
  -29.6694  -18.6911   22.3377 H   0  0  0  0  0  0
  -27.9322  -18.7270   22.1966 H   0  0  0  0  0  0
  -27.8450  -16.4069   21.4019 H   0  0  0  0  0  0
  -29.1445  -16.3389   22.5705 H   0  0  0  0  0  0
  -31.0403  -17.9365   20.0219 H   0  0  0  0  0  0
  -29.9308  -17.5569   18.7267 H   0  0  0  0  0  0
  -28.0608  -18.7375   19.7890 H   0  0  0  0  0  0
  -32.4442  -21.5407   17.7474 H   0  0  0  0  0  0
  -32.2993  -23.2767   17.8333 H   0  0  0  0  0  0
  -31.3719  -22.3642   16.6154 H   0  0  0  0  0  0
  -26.5295  -20.8754   20.6542 H   0  0  0  0  0  0
  -26.6878  -22.4425   21.4337 H   0  0  0  0  0  0
  -27.4504  -21.0201   22.1479 H   0  0  0  0  0  0
  -30.4438  -24.5265   17.2749 H   0  0  0  0  0  0
  -30.6241  -25.2932   18.8550 H   0  0  0  0  0  0
  -29.0401  -25.1359   18.0605 H   0  0  0  0  0  0
  -27.7345  -24.4807   21.4558 H   0  0  0  0  0  0
  -26.8622  -24.3615   19.9800 H   0  0  0  0  0  0
  1 25  1  0  0  0
  1 30  2  0  0  0
  1 85  1  0  0  0
  2  3  1  0  0  0
  2 25  1  0  0  0
  2 86  1  0  0  0
  2 87  1  0  0  0
  3  4  1  0  0  0
  3 88  1  0  0  0
  3 89  1  0  0  0
  4  5  1  0  0  0
  4 90  1  0  0  0
  4 91  1  0  0  0
  5  6  1  0  0  0
  5 26  1  0  0  0
  5 92  1  0  0  0
  6 25  1  0  0  0
  6 93  1  0  0  0
  6 94  1  0  0  0
  7  8  2  0  0  0
  7 26  1  0  0  0
  7 29  1  0  0  0
  8  9  1  0  0  0
  8 22  1  0  0  0
  9 10  1  0  0  0
  9 27  2  0  0  0
 10 11  2  0  0  0
 10 15  1  0  0  0
 11 12  1  0  0  0
 11 95  1  0  0  0
 12 13  2  0  0  0
 12 96  1  0  0  0
 13 14  1  0  0  0
 13 31  1  0  0  0
 14 15  2  0  0  0
 14 97  1  0  0  0
 15 98  1  0  0  0
 16 17  2  0  0  0
 16 21  1  0  0  0
 16 31  1  0  0  0
 17 18  1  0  0  0
 17 99  1  0  0  0
 18 19  2  0  0  0
 18100  1  0  0  0
 19 20  1  0  0  0
 19 24  1  0  0  0
 20 21  2  0  0  0
 20101  1  0  0  0
 21 23  1  0  0  0
 22 28  1  0  0  0
 22 32  2  0  0  0
 26 27  1  0  0  0
 28102  1  0  0  0
 28103  1  0  0  0
 29104  1  0  0  0
 29105  1  0  0  0
 33 34  1  0  0  0
 33 66  1  0  0  0
 33 70  2  0  0  0
 34 36  1  0  0  0
 34 59  1  0  0  0
 34106  1  0  0  0
 35 44  2  0  0  0
 35 45  1  0  0  0
 35 68  1  0  0  0
 36 56  1  0  0  0
 36107  1  0  0  0
 37 39  1  0  0  0
 37 47  1  0  0  0
 37 66  1  0  0  0
 37108  1  0  0  0
 38 43  2  0  0  0
 38 46  1  0  0  0
 38 47  1  0  0  0
 39 64  1  0  0  0
 39 67  2  0  0  0
 40 52  1  0  0  0
 40 53  2  0  0  0
 40 58  1  0  0  0
 41109  1  0  0  0
 41110  1  0  0  0
 41111  1  0  0  0
 41 48  1  0  0  0
 42 43  1  0  0  0
 42 66  1  0  0  0
 42112  1  0  0  0
 42113  1  0  0  0
 43 44  1  0  0  0
 44114  1  0  0  0
 45 46  2  0  0  0
 45115  1  0  0  0
 46116  1  0  0  0
 47117  1  0  0  0
 47118  1  0  0  0
 48 56  1  0  0  0
 48 65  1  0  0  0
 48119  1  0  0  0
 49 50  1  0  0  0
 49 53  1  0  0  0
 49 64  1  0  0  0
 49120  1  0  0  0
 50 51  1  0  0  0
 50121  1  0  0  0
 50122  1  0  0  0
 51 52  1  0  0  0
 51123  1  0  0  0
 51124  1  0  0  0
 52125  1  0  0  0
 52126  1  0  0  0
 53 54  1  0  0  0
 54 55  2  0  0  0
 54127  1  0  0  0
 55 57  1  0  0  0
 55128  1  0  0  0
 56 69  2  0  0  0
 57 58  2  0  0  0
 57129  1  0  0  0
 58130  1  0  0  0
 59 60  1  0  0  0
 59 61  1  0  0  0
 59 62  1  0  0  0
 60131  1  0  0  0
 60132  1  0  0  0
 60133  1  0  0  0
 61134  1  0  0  0
 61135  1  0  0  0
 61136  1  0  0  0
 62137  1  0  0  0
 62138  1  0  0  0
 62139  1  0  0  0
 63 65  1  0  0  0
 63140  1  0  0  0
 63141  1  0  0  0
 63142  1  0  0  0
 64143  1  0  0  0
 65144  1  0  0  0
 68 84  1  0  0  0
 71 72  2  0  0  0
 71 73  1  0  0  0
 71145  1  0  0  0
 72 74  1  0  0  0
 72 80  1  0  0  0
 73 75  2  0  0  0
 73 81  1  0  0  0
 74 76  2  0  0  0
 74 82  1  0  0  0
 75 76  1  0  0  0
 75 83  1  0  0  0
 76 84  1  0  0  0
 77 78  1  0  0  0
 77 80  1  0  0  0
 77146  1  0  0  0
 77147  1  0  0  0
 78 85  1  0  0  0
 78148  1  0  0  0
 78149  1  0  0  0
 79 80  1  0  0  0
 79 85  1  0  0  0
 79150  1  0  0  0
 79151  1  0  0  0
 80152  1  0  0  0
 81153  1  0  0  0
 81154  1  0  0  0
 81155  1  0  0  0
 82156  1  0  0  0
 82157  1  0  0  0
 82158  1  0  0  0
 83159  1  0  0  0
 83160  1  0  0  0
 83161  1  0  0  0
 84162  1  0  0  0
 84163  1  0  0  0
M  ISO  4   1 100  68 101  84 101  85 100
M  END
> <chiral flag>
0

> <version>
0

> <s_m_source_file>
/data/baiqing/PycharmProjects/Reinvent-master-3.2/result/LINK_invent/BTK/process_docking_weight1_custom_sum_contain_oxygen_bond_distance_aromatic_linkinvent_7_9_3/rearranged_h_0160.sdf

> <i_m_source_file_index>
98

> <r_mmod_Potential_Energy-OPLS-2005>
834.662414550781

> <r_mmod_Stretch_Energy-OPLS-2005>
303.807983398438

> <r_mmod_Bend_Energy-OPLS-2005>
307.864990234375

> <r_mmod_Torsional_Energy-OPLS-2005>
328.7666015625

> <r_mmod_Improper_Torsional_Energy-OPLS-2005>
11.3018178939819

> <r_mmod_Van_der_Waal_Energy-OPLS-2005>
131.47688293457

> <r_mmod_Electrostatic_Energy-OPLS-2005>
-301.815032958984

> <r_mmod_Solvation_Energy-OPLS-2005>
-198.253890991211

> <b_mmod_Minimization_Converged-OPLS-2005>
0

> <r_mmod_RMS_Derivative-OPLS-2005>
6.36697673797607

$$$$
98
                    3D
 Structure written by MMmdl.
158167  0  0  1  0            999 V2000
  -30.6137  -14.7675   20.4568 C   0  0  0  0  0  0
  -30.4311  -12.4719   19.4737 C   0  0  0  0  0  0
  -29.5094  -12.5142   18.2358 C   0  0  0  0  0  0
  -28.0380  -12.3296   18.6532 C   0  0  0  0  0  0
  -27.6395  -13.2356   19.8487 C   0  0  2  0  0  0
  -28.6847  -13.1885   20.9836 C   0  0  0  0  0  0
  -25.2501  -13.8201   20.5707 C   0  0  0  0  0  0
  -24.1794  -13.0438   20.9201 C   0  0  0  0  0  0
  -24.6393  -11.6920   20.8739 C   0  0  0  0  0  0
  -23.9075  -10.4293   21.0400 C   0  0  0  0  0  0
  -24.3623   -9.4209   21.9179 C   0  0  0  0  0  0
  -23.6296   -8.2246   22.0752 C   0  0  0  0  0  0
  -22.4278   -8.0283   21.3543 C   0  0  0  0  0  0
  -21.9913   -9.0258   20.4645 C   0  0  0  0  0  0
  -22.7244  -10.2136   20.3051 C   0  0  0  0  0  0
  -21.6856   -6.0737   22.5278 C   0  0  0  0  0  0
  -21.4014   -6.5639   23.8212 C   0  0  0  0  0  0
  -21.3658   -5.6790   24.9172 C   0  0  0  0  0  0
  -21.6045   -4.3053   24.7222 C   0  0  0  0  0  0
  -21.8820   -3.8145   23.4343 C   0  0  0  0  0  0
  -21.9193   -4.6964   22.3399 C   0  0  0  0  0  0
  -22.7815  -13.5217   21.1862 C   0  0  0  0  0  0
  -22.1663   -4.2149   21.0976 F   0  0  0  0  0  0
  -21.5627   -3.4534   25.7734 F   0  0  0  0  0  0
  -29.9824  -13.5421   20.3958 N   0  0  0  0  0  0
  -26.2929  -12.9419   20.3290 N   0  0  0  0  0  0
  -25.9327  -11.6556   20.5752 N   0  0  0  0  0  0
  -22.0465  -12.8208   22.0422 N   0  0  0  0  0  0
  -25.4195  -15.1924   20.4160 N   0  0  0  0  0  0
  -31.8053  -14.8491   20.1456 O   0  0  0  0  0  0
  -21.6642   -6.8880   21.4241 O   0  0  0  0  0  0
  -22.3498  -14.5522   20.6711 O   0  0  0  0  0  0
  -24.6339  -31.8525   23.1958 C   0  0  0  0  0  0
  -25.9159  -32.4735   23.8310 C   0  0  1  0  0  0
  -27.2221  -27.2388   20.1177 C   0  0  0  0  0  0
  -25.5946  -33.8537   24.2230 N   0  0  0  0  0  0
  -23.4313  -30.4751   21.5398 C   0  0  2  0  0  0
  -24.8775  -28.9195   20.1063 C   0  0  0  0  0  0
  -22.7514  -29.4590   22.4898 C   0  0  0  0  0  0
  -18.0294  -28.1392   22.8480 C   0  0  0  0  0  0
  -24.1486  -36.7263   23.2638 C   0  0  0  0  0  0
  -25.9797  -30.7572   21.3794 C   0  0  0  0  0  0
  -26.0501  -29.3791   20.7170 C   0  0  0  0  0  0
  -27.2202  -28.5498   20.7145 C   0  0  0  0  0  0
  -26.0154  -26.8460   19.4942 C   0  0  0  0  0  0
  -24.8666  -27.6617   19.4864 C   0  0  0  0  0  0
  -23.6492  -29.8088   20.1558 C   0  0  0  0  0  0
  -25.4115  -36.3053   24.0323 C   0  0  1  0  0  0
  -20.5899  -28.3701   23.1264 C   0  0  2  0  0  0
  -20.6779  -26.9415   22.5411 C   0  0  0  0  0  0
  -19.5758  -26.6384   21.5211 C   0  0  0  0  0  0
  -18.1936  -26.7934   22.1616 C   0  0  0  0  0  0
  -19.1548  -28.8864   23.2865 C   0  0  0  0  0  0
  -18.9468  -30.1464   23.8882 C   0  0  0  0  0  0
  -17.6467  -30.6590   24.0562 C   0  0  0  0  0  0
  -25.9064  -34.9429   23.5080 C   0  0  0  0  0  0
  -16.5358  -29.9083   23.6339 C   0  0  0  0  0  0
  -16.7281  -28.6505   23.0356 C   0  0  0  0  0  0
  -26.4510  -31.6578   25.0717 C   0  0  0  0  0  0
  -25.3722  -31.3758   26.1436 C   0  0  0  0  0  0
  -27.0356  -30.2981   24.6241 C   0  0  0  0  0  0
  -27.6056  -32.4328   25.7493 C   0  0  0  0  0  0
  -27.5583  -37.1776   24.8455 C   0  0  0  0  0  0
  -21.4218  -29.3039   22.3644 N   0  0  0  0  0  0
  -26.4278  -37.3766   23.9424 N   0  0  0  0  0  0
  -24.7009  -31.0473   22.0940 N   0  0  0  0  0  0
  -23.4203  -28.8137   23.3012 O   0  0  0  0  0  0
  -28.3192  -26.3407   20.2169 O   0  0  0  0  0  0
  -26.5635  -34.8915   22.4649 O   0  0  0  0  0  0
  -23.5487  -32.1358   23.7244 O   0  0  0  0  0  0
  -29.8818  -22.8863   19.9589 C   0  0  0  0  0  0
  -27.5332  -22.7343   20.2753 C   0  0  0  0  0  0
  -28.6319  -23.5831   19.9734 C   0  0  0  0  0  0
  -30.0333  -21.4666   20.1969 C   0  0  0  0  0  0
  -27.6663  -21.3195   20.5102 C   0  0  0  0  0  0
  -28.9110  -20.6115   20.4563 C   0  0  0  0  0  0
  -30.3936  -17.1637   21.4150 C   0  0  0  0  0  0
  -29.1353  -16.7856   19.7913 C   0  0  0  0  0  0
  -29.8077  -18.0974   20.3120 C   0  0  0  0  0  0
  -31.4402  -20.8998   20.1851 C   0  0  0  0  0  0
  -26.4078  -20.5234   20.8050 C   0  0  0  0  0  0
  -28.4521  -25.0797   19.4017 C   0  0  0  0  0  0
  -29.8808  -15.9177   20.7558 N   0  0  0  0  0  0
  -28.8840  -19.1991   20.7372 O   0  0  0  0  0  0
  -31.4718  -12.5958   19.1697 H   0  0  0  0  0  0
  -30.3781  -11.4987   19.9642 H   0  0  0  0  0  0
  -29.7969  -11.7410   17.5220 H   0  0  0  0  0  0
  -29.6286  -13.4682   17.7195 H   0  0  0  0  0  0
  -27.9041  -11.2818   18.9249 H   0  0  0  0  0  0
  -27.3774  -12.5098   17.8044 H   0  0  0  0  0  0
  -27.6279  -14.2536   19.4603 H   0  0  0  0  0  0
  -28.7249  -12.1985   21.4401 H   0  0  0  0  0  0
  -28.4166  -13.8861   21.7789 H   0  0  0  0  0  0
  -25.2770   -9.5686   22.4751 H   0  0  0  0  0  0
  -24.0005   -7.4638   22.7471 H   0  0  0  0  0  0
  -21.0844   -8.8778   19.8952 H   0  0  0  0  0  0
  -22.3703  -10.9673   19.6157 H   0  0  0  0  0  0
  -21.2008   -7.6149   23.9714 H   0  0  0  0  0  0
  -21.1478   -6.0519   25.9075 H   0  0  0  0  0  0
  -22.0599   -2.7609   23.2840 H   0  0  0  0  0  0
  -22.4085  -11.9867   22.4803 H   0  0  0  0  0  0
  -21.1084  -13.1234   22.2636 H   0  0  0  0  0  0
  -24.6574  -15.8501   20.5382 H   0  0  0  0  0  0
  -26.2846  -15.6336   20.1340 H   0  0  0  0  0  0
  -26.7223  -32.5367   23.1044 H   0  0  0  0  0  0
  -25.0099  -33.9665   25.0381 H   0  0  0  0  0  0
  -22.7290  -31.2985   21.3934 H   0  0  0  0  0  0
  -23.3766  -35.9575   23.3272 H   0  0  0  0  0  0
  -24.3584  -36.8915   22.2058 H   0  0  0  0  0  0
  -23.7212  -37.6443   23.6682 H   0  0  0  0  0  0
  -26.1265  -31.5197   20.6131 H   0  0  0  0  0  0
  -26.8540  -30.8007   22.0174 H   0  0  0  0  0  0
  -28.1157  -28.8962   21.2111 H   0  0  0  0  0  0
  -25.9011  -25.8715   19.0483 H   0  0  0  0  0  0
  -23.9627  -27.2978   19.0171 H   0  0  0  0  0  0
  -23.7736  -30.5848   19.3996 H   0  0  0  0  0  0
  -22.7664  -29.2435   19.8515 H   0  0  0  0  0  0
  -25.1295  -36.1885   25.0814 H   0  0  0  0  0  0
  -20.9992  -28.3281   24.1386 H   0  0  0  0  0  0
  -20.5673  -26.2309   23.3616 H   0  0  0  0  0  0
  -21.6648  -26.7433   22.1211 H   0  0  0  0  0  0
  -19.6919  -25.6291   21.1247 H   0  0  0  0  0  0
  -19.6706  -27.3188   20.6736 H   0  0  0  0  0  0
  -17.4210  -26.6686   21.4013 H   0  0  0  0  0  0
  -18.0331  -26.0077   22.9013 H   0  0  0  0  0  0
  -19.7945  -30.7285   24.2240 H   0  0  0  0  0  0
  -17.5024  -31.6268   24.5167 H   0  0  0  0  0  0
  -15.5358  -30.2980   23.7679 H   0  0  0  0  0  0
  -15.8680  -28.0823   22.7078 H   0  0  0  0  0  0
  -24.5891  -30.7110   25.7775 H   0  0  0  0  0  0
  -24.8921  -32.2942   26.4826 H   0  0  0  0  0  0
  -25.8028  -30.8961   27.0233 H   0  0  0  0  0  0
  -26.2948  -29.6723   24.1249 H   0  0  0  0  0  0
  -27.3996  -29.7259   25.4784 H   0  0  0  0  0  0
  -27.8849  -30.4235   23.9520 H   0  0  0  0  0  0
  -27.2660  -33.3645   26.2032 H   0  0  0  0  0  0
  -28.3886  -32.6862   25.0332 H   0  0  0  0  0  0
  -28.0700  -31.8476   26.5439 H   0  0  0  0  0  0
  -28.2565  -38.0110   24.7560 H   0  0  0  0  0  0
  -28.1114  -36.2644   24.6202 H   0  0  0  0  0  0
  -27.2316  -37.1331   25.8860 H   0  0  0  0  0  0
  -20.9408  -29.8745   21.6832 H   0  0  0  0  0  0
  -26.0148  -38.2827   24.1469 H   0  0  0  0  0  0
  -30.7649  -23.4601   19.7141 H   0  0  0  0  0  0
  -26.5452  -23.1736   20.2743 H   0  0  0  0  0  0
  -29.9496  -17.3418   22.3948 H   0  0  0  0  0  0
  -31.4812  -17.2249   21.4816 H   0  0  0  0  0  0
  -29.3610  -16.5845   18.7427 H   0  0  0  0  0  0
  -28.0574  -16.7773   19.9515 H   0  0  0  0  0  0
  -30.5703  -18.4235   19.6067 H   0  0  0  0  0  0
  -32.1847  -21.6864   20.3098 H   0  0  0  0  0  0
  -31.6439  -20.3992   19.2388 H   0  0  0  0  0  0
  -31.5792  -20.1905   21.0011 H   0  0  0  0  0  0
  -25.5144  -21.1473   20.7769 H   0  0  0  0  0  0
  -26.4710  -20.0689   21.7940 H   0  0  0  0  0  0
  -26.2835  -19.7255   20.0722 H   0  0  0  0  0  0
  -27.7084  -25.0249   18.6115 H   0  0  0  0  0  0
  -29.3661  -25.2570   18.8344 H   0  0  0  0  0  0
  1 25  1  0  0  0
  1 30  2  0  0  0
  1 83  1  0  0  0
  2  3  1  0  0  0
  2 25  1  0  0  0
  2 85  1  0  0  0
  2 86  1  0  0  0
  3  4  1  0  0  0
  3 87  1  0  0  0
  3 88  1  0  0  0
  4  5  1  0  0  0
  4 89  1  0  0  0
  4 90  1  0  0  0
  5  6  1  0  0  0
  5 26  1  0  0  0
  5 91  1  0  0  0
  6 25  1  0  0  0
  6 92  1  0  0  0
  6 93  1  0  0  0
  7  8  2  0  0  0
  7 26  1  0  0  0
  7 29  1  0  0  0
  8  9  1  0  0  0
  8 22  1  0  0  0
  9 10  1  0  0  0
  9 27  2  0  0  0
 10 11  2  0  0  0
 10 15  1  0  0  0
 11 12  1  0  0  0
 11 94  1  0  0  0
 12 13  2  0  0  0
 12 95  1  0  0  0
 13 14  1  0  0  0
 13 31  1  0  0  0
 14 15  2  0  0  0
 14 96  1  0  0  0
 15 97  1  0  0  0
 16 17  2  0  0  0
 16 21  1  0  0  0
 16 31  1  0  0  0
 17 18  1  0  0  0
 17 98  1  0  0  0
 18 19  2  0  0  0
 18 99  1  0  0  0
 19 20  1  0  0  0
 19 24  1  0  0  0
 20 21  2  0  0  0
 20100  1  0  0  0
 21 23  1  0  0  0
 22 28  1  0  0  0
 22 32  2  0  0  0
 26 27  1  0  0  0
 28101  1  0  0  0
 28102  1  0  0  0
 29103  1  0  0  0
 29104  1  0  0  0
 33 34  1  0  0  0
 33 66  1  0  0  0
 33 70  2  0  0  0
 34 36  1  0  0  0
 34 59  1  0  0  0
 34105  1  0  0  0
 35 44  2  0  0  0
 35 45  1  0  0  0
 35 68  1  0  0  0
 36 56  1  0  0  0
 36106  1  0  0  0
 37 39  1  0  0  0
 37 47  1  0  0  0
 37 66  1  0  0  0
 37107  1  0  0  0
 38 43  2  0  0  0
 38 46  1  0  0  0
 38 47  1  0  0  0
 39 64  1  0  0  0
 39 67  2  0  0  0
 40 52  1  0  0  0
 40 53  2  0  0  0
 40 58  1  0  0  0
 41108  1  0  0  0
 41109  1  0  0  0
 41110  1  0  0  0
 41 48  1  0  0  0
 42 43  1  0  0  0
 42 66  1  0  0  0
 42111  1  0  0  0
 42112  1  0  0  0
 43 44  1  0  0  0
 44113  1  0  0  0
 45 46  2  0  0  0
 45114  1  0  0  0
 46115  1  0  0  0
 47116  1  0  0  0
 47117  1  0  0  0
 48 56  1  0  0  0
 48 65  1  0  0  0
 48118  1  0  0  0
 49 50  1  0  0  0
 49 53  1  0  0  0
 49 64  1  0  0  0
 49119  1  0  0  0
 50 51  1  0  0  0
 50120  1  0  0  0
 50121  1  0  0  0
 51 52  1  0  0  0
 51122  1  0  0  0
 51123  1  0  0  0
 52124  1  0  0  0
 52125  1  0  0  0
 53 54  1  0  0  0
 54 55  2  0  0  0
 54126  1  0  0  0
 55 57  1  0  0  0
 55127  1  0  0  0
 56 69  2  0  0  0
 57 58  2  0  0  0
 57128  1  0  0  0
 58129  1  0  0  0
 59 60  1  0  0  0
 59 61  1  0  0  0
 59 62  1  0  0  0
 60130  1  0  0  0
 60131  1  0  0  0
 60132  1  0  0  0
 61133  1  0  0  0
 61134  1  0  0  0
 61135  1  0  0  0
 62136  1  0  0  0
 62137  1  0  0  0
 62138  1  0  0  0
 63 65  1  0  0  0
 63139  1  0  0  0
 63140  1  0  0  0
 63141  1  0  0  0
 64142  1  0  0  0
 65143  1  0  0  0
 68 82  1  0  0  0
 71 73  2  0  0  0
 71 74  1  0  0  0
 71144  1  0  0  0
 72 73  1  0  0  0
 72 75  2  0  0  0
 72145  1  0  0  0
 73 82  1  0  0  0
 74 76  2  0  0  0
 74 80  1  0  0  0
 75 76  1  0  0  0
 75 81  1  0  0  0
 76 84  1  0  0  0
 77 79  1  0  0  0
 77 83  1  0  0  0
 77146  1  0  0  0
 77147  1  0  0  0
 78 79  1  0  0  0
 78 83  1  0  0  0
 78148  1  0  0  0
 78149  1  0  0  0
 79 84  1  0  0  0
 79150  1  0  0  0
 80151  1  0  0  0
 80152  1  0  0  0
 80153  1  0  0  0
 81154  1  0  0  0
 81155  1  0  0  0
 81156  1  0  0  0
 82157  1  0  0  0
 82158  1  0  0  0
M  ISO  4   1 100  68 101  82 101  83 100
M  END
> <chiral flag>
0

> <version>
0

> <s_m_source_file>
/data/baiqing/PycharmProjects/Reinvent-master-3.2/result/LINK_invent/BTK/process_docking_weight1_custom_sum_contain_oxygen_bond_distance_aromatic_linkinvent_7_9_3/rearranged_h_0160.sdf

> <i_m_source_file_index>
99

> <r_mmod_Potential_Energy-OPLS-2005>
309.610931396484

> <r_mmod_Stretch_Energy-OPLS-2005>
125.917518615723

> <r_mmod_Bend_Energy-OPLS-2005>
226.592956542969

> <r_mmod_Torsional_Energy-OPLS-2005>
296.214630126953

> <r_mmod_Improper_Torsional_Energy-OPLS-2005>
10.8061647415161

> <r_mmod_Van_der_Waal_Energy-OPLS-2005>
132.038619995117

> <r_mmod_Electrostatic_Energy-OPLS-2005>
-372.277130126953

> <r_mmod_Solvation_Energy-OPLS-2005>
-207.72900390625

> <b_mmod_Minimization_Converged-OPLS-2005>
0

> <r_mmod_RMS_Derivative-OPLS-2005>
0.68391877412796

$$$$
99
                    3D
 Structure written by MMmdl.
173183  0  0  1  0            999 V2000
  -30.6250  -14.6861   20.4489 C   0  0  0  0  0  0
  -30.4274  -12.4121   19.4654 C   0  0  0  0  0  0
  -29.5048  -12.4937   18.2304 C   0  0  0  0  0  0
  -28.0286  -12.3348   18.6430 C   0  0  0  0  0  0
  -27.6430  -13.2251   19.8550 C   0  0  2  0  0  0
  -28.6891  -13.1354   20.9875 C   0  0  0  0  0  0
  -25.2530  -13.8158   20.5790 C   0  0  0  0  0  0
  -24.1802  -13.0412   20.9238 C   0  0  0  0  0  0
  -24.6382  -11.6894   20.8741 C   0  0  0  0  0  0
  -23.9059  -10.4277   21.0398 C   0  0  0  0  0  0
  -24.3612   -9.4196   21.9178 C   0  0  0  0  0  0
  -23.6288   -8.2234   22.0752 C   0  0  0  0  0  0
  -22.4270   -8.0273   21.3544 C   0  0  0  0  0  0
  -21.9903   -9.0244   20.4645 C   0  0  0  0  0  0
  -22.7231  -10.2122   20.3051 C   0  0  0  0  0  0
  -21.6849   -6.0730   22.5278 C   0  0  0  0  0  0
  -21.4011   -6.5636   23.8210 C   0  0  0  0  0  0
  -21.3661   -5.6790   24.9174 C   0  0  0  0  0  0
  -21.6048   -4.3053   24.7226 C   0  0  0  0  0  0
  -21.8821   -3.8143   23.4348 C   0  0  0  0  0  0
  -21.9192   -4.6959   22.3402 C   0  0  0  0  0  0
  -22.7826  -13.5213   21.1878 C   0  0  0  0  0  0
  -22.1662   -4.2145   21.0980 F   0  0  0  0  0  0
  -21.5631   -3.4538   25.7738 F   0  0  0  0  0  0
  -29.9959  -13.4673   20.4064 N   0  0  0  0  0  0
  -26.2938  -12.9368   20.3295 N   0  0  0  0  0  0
  -25.9306  -11.6512   20.5731 N   0  0  0  0  0  0
  -22.0460  -12.8203   22.0423 N   0  0  0  0  0  0
  -25.4205  -15.1877   20.4375 N   0  0  0  0  0  0
  -31.8105  -14.7901   20.1238 O   0  0  0  0  0  0
  -21.6636   -6.8871   21.4239 O   0  0  0  0  0  0
  -22.3522  -14.5516   20.6716 O   0  0  0  0  0  0
  -24.6259  -31.8569   23.1988 C   0  0  0  0  0  0
  -25.9103  -32.4761   23.8327 C   0  0  1  0  0  0
  -27.2303  -27.3057   20.1219 C   0  0  0  0  0  0
  -25.5914  -33.8563   24.2254 N   0  0  0  0  0  0
  -23.4205  -30.4768   21.5408 C   0  0  2  0  0  0
  -24.8681  -28.9230   20.1082 C   0  0  0  0  0  0
  -22.7470  -29.4604   22.4930 C   0  0  0  0  0  0
  -18.0283  -28.1385   22.8490 C   0  0  0  0  0  0
  -24.1488  -36.7290   23.2641 C   0  0  0  0  0  0
  -25.9596  -30.7823   21.3708 C   0  0  0  0  0  0
  -26.0325  -29.4067   20.7158 C   0  0  0  0  0  0
  -27.2117  -28.6071   20.7144 C   0  0  0  0  0  0
  -26.0479  -26.8728   19.4852 C   0  0  0  0  0  0
  -24.8781  -27.6627   19.4845 C   0  0  0  0  0  0
  -23.6350  -29.8039   20.1575 C   0  0  0  0  0  0
  -25.4113  -36.3074   24.0326 C   0  0  1  0  0  0
  -20.5881  -28.3686   23.1287 C   0  0  2  0  0  0
  -20.6769  -26.9407   22.5418 C   0  0  0  0  0  0
  -19.5747  -26.6381   21.5218 C   0  0  0  0  0  0
  -18.1925  -26.7929   22.1623 C   0  0  0  0  0  0
  -19.1535  -28.8853   23.2883 C   0  0  0  0  0  0
  -18.9459  -30.1457   23.8897 C   0  0  0  0  0  0
  -17.6459  -30.6587   24.0566 C   0  0  0  0  0  0
  -25.9051  -34.9443   23.5095 C   0  0  0  0  0  0
  -16.5350  -29.9086   23.6332 C   0  0  0  0  0  0
  -16.7270  -28.6503   23.0354 C   0  0  0  0  0  0
  -26.4489  -31.6587   25.0711 C   0  0  0  0  0  0
  -25.3723  -31.3730   26.1441 C   0  0  0  0  0  0
  -27.0342  -30.3011   24.6182 C   0  0  0  0  0  0
  -27.6045  -32.4332   25.7480 C   0  0  0  0  0  0
  -27.5580  -37.1793   24.8459 C   0  0  0  0  0  0
  -21.4182  -29.3035   22.3677 N   0  0  0  0  0  0
  -26.4287  -37.3773   23.9411 N   0  0  0  0  0  0
  -24.6874  -31.0566   22.0938 N   0  0  0  0  0  0
  -23.4190  -28.8155   23.3022 O   0  0  0  0  0  0
  -28.3720  -26.4946   20.2070 O   0  0  0  0  0  0
  -26.5628  -34.8915   22.4667 O   0  0  0  0  0  0
  -23.5422  -32.1373   23.7315 O   0  0  0  0  0  0
  -26.8350  -17.7740   18.6587 C   0  0  0  0  0  0
  -25.8104  -17.1481   17.9221 C   0  0  0  0  0  0
  -28.4629  -16.2639   17.6614 C   0  0  0  0  0  0
  -28.1716  -17.3303   18.5399 C   0  0  0  0  0  0
  -26.1066  -16.0697   17.0643 C   0  0  0  0  0  0
  -27.4395  -15.6337   16.9292 C   0  0  0  0  0  0
  -29.8973  -24.5830   20.0134 C   0  0  0  0  0  0
  -27.6047  -23.9757   20.5314 C   0  0  0  0  0  0
  -29.8185  -18.3693   21.3059 C   0  0  0  0  0  0
  -30.1901  -23.1041   19.5862 C   0  0  0  0  0  0
  -27.8973  -22.4786   20.0758 C   0  0  0  0  0  0
  -29.3254  -18.0119   19.2705 C   0  0  1  0  0  0
  -29.1483  -19.2714   20.2075 C   0  0  2  0  0  0
  -30.2194  -17.2505   20.2996 C   0  0  2  0  0  0
  -28.4428  -25.0693   19.7858 C   0  0  1  0  0  0
  -24.9953  -15.3761   16.3029 C   0  0  0  0  0  0
  -29.7234  -20.6596   19.6646 C   0  0  0  0  0  0
  -29.8478  -15.8113   20.6214 N   0  0  0  0  0  0
  -29.3295  -22.0418   20.2145 N   0  3  1  0  0  0
  -27.7411  -14.6076   16.0990 F   0  0  0  0  0  0
  -31.4700  -12.5247   19.1631 H   0  0  0  0  0  0
  -30.3568  -11.4312   19.9374 H   0  0  0  0  0  0
  -29.7741  -11.7247   17.5051 H   0  0  0  0  0  0
  -29.6463  -13.4502   17.7259 H   0  0  0  0  0  0
  -27.8716  -11.2849   18.8922 H   0  0  0  0  0  0
  -27.3740  -12.5456   17.7967 H   0  0  0  0  0  0
  -27.6416  -14.2516   19.4923 H   0  0  0  0  0  0
  -28.7088  -12.1339   21.4198 H   0  0  0  0  0  0
  -28.4370  -13.8151   21.8030 H   0  0  0  0  0  0
  -25.2758   -9.5674   22.4749 H   0  0  0  0  0  0
  -23.9996   -7.4628   22.7474 H   0  0  0  0  0  0
  -21.0833   -8.8763   19.8953 H   0  0  0  0  0  0
  -22.3690  -10.9662   19.6160 H   0  0  0  0  0  0
  -21.2000   -7.6144   23.9710 H   0  0  0  0  0  0
  -21.1483   -6.0523   25.9076 H   0  0  0  0  0  0
  -22.0600   -2.7605   23.2849 H   0  0  0  0  0  0
  -22.4076  -11.9863   22.4808 H   0  0  0  0  0  0
  -21.1077  -13.1226   22.2622 H   0  0  0  0  0  0
  -24.6287  -15.8148   20.5160 H   0  0  0  0  0  0
  -26.2125  -15.6183   19.9774 H   0  0  0  0  0  0
  -26.7170  -32.5422   23.1072 H   0  0  0  0  0  0
  -25.0057  -33.9706   25.0397 H   0  0  0  0  0  0
  -22.7153  -31.2973   21.3938 H   0  0  0  0  0  0
  -23.3752  -35.9619   23.3289 H   0  0  0  0  0  0
  -24.3579  -36.8930   22.2058 H   0  0  0  0  0  0
  -23.7235  -37.6483   23.6678 H   0  0  0  0  0  0
  -26.0915  -31.5432   20.6004 H   0  0  0  0  0  0
  -26.8402  -30.8336   21.9996 H   0  0  0  0  0  0
  -28.1049  -28.9716   21.2020 H   0  0  0  0  0  0
  -26.0079  -25.9105   18.9978 H   0  0  0  0  0  0
  -23.9852  -27.2876   19.0035 H   0  0  0  0  0  0
  -23.7510  -30.5764   19.3966 H   0  0  0  0  0  0
  -22.7558  -29.2297   19.8597 H   0  0  0  0  0  0
  -25.1295  -36.1921   25.0818 H   0  0  0  0  0  0
  -20.9977  -28.3264   24.1406 H   0  0  0  0  0  0
  -20.5666  -26.2297   23.3618 H   0  0  0  0  0  0
  -21.6638  -26.7430   22.1216 H   0  0  0  0  0  0
  -19.6906  -25.6293   21.1247 H   0  0  0  0  0  0
  -19.6688  -27.3193   20.6748 H   0  0  0  0  0  0
  -17.4198  -26.6687   21.4020 H   0  0  0  0  0  0
  -18.0312  -26.0067   22.9013 H   0  0  0  0  0  0
  -19.7935  -30.7274   24.2265 H   0  0  0  0  0  0
  -17.5012  -31.6266   24.5169 H   0  0  0  0  0  0
  -15.5351  -30.2988   23.7655 H   0  0  0  0  0  0
  -15.8669  -28.0823   22.7069 H   0  0  0  0  0  0
  -24.5899  -30.7075   25.7774 H   0  0  0  0  0  0
  -24.8913  -32.2899   26.4858 H   0  0  0  0  0  0
  -25.8049  -30.8917   27.0221 H   0  0  0  0  0  0
  -26.2923  -29.6749   24.1214 H   0  0  0  0  0  0
  -27.4044  -29.7281   25.4694 H   0  0  0  0  0  0
  -27.8786  -30.4296   23.9406 H   0  0  0  0  0  0
  -27.2651  -33.3629   26.2057 H   0  0  0  0  0  0
  -28.3852  -32.6900   25.0307 H   0  0  0  0  0  0
  -28.0721  -31.8463   26.5395 H   0  0  0  0  0  0
  -28.2584  -38.0103   24.7526 H   0  0  0  0  0  0
  -28.1090  -36.2636   24.6260 H   0  0  0  0  0  0
  -27.2302  -37.1414   25.8862 H   0  0  0  0  0  0
  -20.9361  -29.8753   21.6883 H   0  0  0  0  0  0
  -26.0166  -38.2843   24.1425 H   0  0  0  0  0  0
  -26.5656  -18.5988   19.3005 H   0  0  0  0  0  0
  -24.7913  -17.4933   18.0299 H   0  0  0  0  0  0
  -29.4817  -15.9243   17.5422 H   0  0  0  0  0  0
  -30.5758  -25.2408   19.4694 H   0  0  0  0  0  0
  -30.1559  -24.7050   21.0661 H   0  0  0  0  0  0
  -27.7825  -24.0598   21.6042 H   0  0  0  0  0  0
  -26.5420  -24.1753   20.4002 H   0  0  0  0  0  0
  -29.0995  -18.0257   22.0510 H   0  0  0  0  0  0
  -30.6738  -18.8381   21.7943 H   0  0  0  0  0  0
  -31.2366  -22.8844   19.8017 H   0  0  0  0  0  0
  -30.0886  -23.0378   18.5016 H   0  0  0  0  0  0
  -27.5965  -22.3616   19.0337 H   0  0  0  0  0  0
  -27.2689  -21.7964   20.6489 H   0  0  0  0  0  0
  -29.9907  -18.3147   18.4592 H   0  0  0  0  0  0
  -28.1077  -19.3912   20.4990 H   0  0  0  0  0  0
  -31.2717  -17.3616   20.0296 H   0  0  0  0  0  0
  -28.2200  -25.0245   18.7186 H   0  0  0  0  0  0
  -24.1216  -16.0204   16.2041 H   0  0  0  0  0  0
  -24.6945  -14.4685   16.8267 H   0  0  0  0  0  0
  -25.3243  -15.0999   15.3007 H   0  0  0  0  0  0
  -29.5135  -20.7017   18.5947 H   0  0  0  0  0  0
  -30.8109  -20.5964   19.7220 H   0  0  0  0  0  0
  -28.8791  -15.6415   20.8444 H   0  0  0  0  0  0
  -29.5451  -22.0299   21.2009 H   0  0  0  0  0  0
  1 25  1  0  0  0
  1 30  2  0  0  0
  1 88  1  0  0  0
  2  3  1  0  0  0
  2 25  1  0  0  0
  2 91  1  0  0  0
  2 92  1  0  0  0
  3  4  1  0  0  0
  3 93  1  0  0  0
  3 94  1  0  0  0
  4  5  1  0  0  0
  4 95  1  0  0  0
  4 96  1  0  0  0
  5  6  1  0  0  0
  5 26  1  0  0  0
  5 97  1  0  0  0
  6 25  1  0  0  0
  6 98  1  0  0  0
  6 99  1  0  0  0
  7  8  2  0  0  0
  7 26  1  0  0  0
  7 29  1  0  0  0
  8  9  1  0  0  0
  8 22  1  0  0  0
  9 10  1  0  0  0
  9 27  2  0  0  0
 10 11  2  0  0  0
 10 15  1  0  0  0
 11 12  1  0  0  0
 11100  1  0  0  0
 12 13  2  0  0  0
 12101  1  0  0  0
 13 14  1  0  0  0
 13 31  1  0  0  0
 14 15  2  0  0  0
 14102  1  0  0  0
 15103  1  0  0  0
 16 17  2  0  0  0
 16 21  1  0  0  0
 16 31  1  0  0  0
 17 18  1  0  0  0
 17104  1  0  0  0
 18 19  2  0  0  0
 18105  1  0  0  0
 19 20  1  0  0  0
 19 24  1  0  0  0
 20 21  2  0  0  0
 20106  1  0  0  0
 21 23  1  0  0  0
 22 28  1  0  0  0
 22 32  2  0  0  0
 26 27  1  0  0  0
 28107  1  0  0  0
 28108  1  0  0  0
 29109  1  0  0  0
 29110  1  0  0  0
 33 34  1  0  0  0
 33 66  1  0  0  0
 33 70  2  0  0  0
 34 36  1  0  0  0
 34 59  1  0  0  0
 34111  1  0  0  0
 35 44  2  0  0  0
 35 45  1  0  0  0
 35 68  1  0  0  0
 36 56  1  0  0  0
 36112  1  0  0  0
 37 39  1  0  0  0
 37 47  1  0  0  0
 37 66  1  0  0  0
 37113  1  0  0  0
 38 43  2  0  0  0
 38 46  1  0  0  0
 38 47  1  0  0  0
 39 64  1  0  0  0
 39 67  2  0  0  0
 40 52  1  0  0  0
 40 53  2  0  0  0
 40 58  1  0  0  0
 41114  1  0  0  0
 41115  1  0  0  0
 41116  1  0  0  0
 41 48  1  0  0  0
 42 43  1  0  0  0
 42 66  1  0  0  0
 42117  1  0  0  0
 42118  1  0  0  0
 43 44  1  0  0  0
 44119  1  0  0  0
 45 46  2  0  0  0
 45120  1  0  0  0
 46121  1  0  0  0
 47122  1  0  0  0
 47123  1  0  0  0
 48 56  1  0  0  0
 48 65  1  0  0  0
 48124  1  0  0  0
 49 50  1  0  0  0
 49 53  1  0  0  0
 49 64  1  0  0  0
 49125  1  0  0  0
 50 51  1  0  0  0
 50126  1  0  0  0
 50127  1  0  0  0
 51 52  1  0  0  0
 51128  1  0  0  0
 51129  1  0  0  0
 52130  1  0  0  0
 52131  1  0  0  0
 53 54  1  0  0  0
 54 55  2  0  0  0
 54132  1  0  0  0
 55 57  1  0  0  0
 55133  1  0  0  0
 56 69  2  0  0  0
 57 58  2  0  0  0
 57134  1  0  0  0
 58135  1  0  0  0
 59 60  1  0  0  0
 59 61  1  0  0  0
 59 62  1  0  0  0
 60136  1  0  0  0
 60137  1  0  0  0
 60138  1  0  0  0
 61139  1  0  0  0
 61140  1  0  0  0
 61141  1  0  0  0
 62142  1  0  0  0
 62143  1  0  0  0
 62144  1  0  0  0
 63 65  1  0  0  0
 63145  1  0  0  0
 63146  1  0  0  0
 63147  1  0  0  0
 64148  1  0  0  0
 65149  1  0  0  0
 68 85  1  0  0  0
 71 72  2  0  0  0
 71 74  1  0  0  0
 71150  1  0  0  0
 72 75  1  0  0  0
 72151  1  0  0  0
 73 74  2  0  0  0
 73 76  1  0  0  0
 73152  1  0  0  0
 74 82  1  0  0  0
 75 76  2  0  0  0
 75 86  1  0  0  0
 76 90  1  0  0  0
 77 80  1  0  0  0
 77 85  1  0  0  0
 77153  1  0  0  0
 77154  1  0  0  0
 78 81  1  0  0  0
 78 85  1  0  0  0
 78155  1  0  0  0
 78156  1  0  0  0
 79 83  1  0  0  0
 79 84  1  0  0  0
 79157  1  0  0  0
 79158  1  0  0  0
 80 89  1  0  0  0
 80159  1  0  0  0
 80160  1  0  0  0
 81 89  1  0  0  0
 81161  1  0  0  0
 81162  1  0  0  0
 82 83  1  0  0  0
 82 84  1  0  0  0
 82163  1  0  0  0
 83 87  1  0  0  0
 83164  1  0  0  0
 84 88  1  0  0  0
 84165  1  0  0  0
 85166  1  0  0  0
 86167  1  0  0  0
 86168  1  0  0  0
 86169  1  0  0  0
 87170  1  0  0  0
 87171  1  0  0  0
 87 89  1  0  0  0
 88172  1  0  0  0
 89173  1  0  0  0
M  CHG  1  89   1
M  ISO  4   1 100  68 101  85 101  88 100
M  END
> <chiral flag>
0

> <version>
0

> <s_m_source_file>
/data/baiqing/PycharmProjects/Reinvent-master-3.2/result/LINK_invent/BTK/process_docking_weight1_custom_sum_contain_oxygen_bond_distance_aromatic_linkinvent_7_9_3/rearranged_h_0160.sdf

> <i_m_source_file_index>
100

> <r_mmod_Potential_Energy-OPLS-2005>
13.5950212478638

> <r_mmod_Stretch_Energy-OPLS-2005>
90.5774841308594

> <r_mmod_Bend_Energy-OPLS-2005>
192.176620483398

> <r_mmod_Torsional_Energy-OPLS-2005>
271.382751464844

> <r_mmod_Improper_Torsional_Energy-OPLS-2005>
6.71861600875854

> <r_mmod_Van_der_Waal_Energy-OPLS-2005>
118.751586914062

> <r_mmod_Electrostatic_Energy-OPLS-2005>
-277.776702880859

> <r_mmod_Solvation_Energy-OPLS-2005>
-448.976257324219

> <b_mmod_Minimization_Converged-OPLS-2005>
0

> <r_mmod_RMS_Derivative-OPLS-2005>
0.443793207406998

$$$$
