0
                    3D
 Structure written by MMmdl.
152160  0  0  1  0            999 V2000
  -30.4388  -15.2743   20.3777 C   0  0  0  0  0  0
  -30.4331  -12.8119   19.5352 C   0  0  0  0  0  0
  -29.5396  -12.5954   18.2864 C   0  0  0  0  0  0
  -28.0865  -12.3122   18.7070 C   0  0  0  0  0  0
  -27.6110  -13.2805   19.8202 C   0  0  2  0  0  0
  -28.6412  -13.4560   20.9585 C   0  0  0  0  0  0
  -25.2379  -13.8254   20.5722 C   0  0  0  0  0  0
  -24.1728  -13.0448   20.9236 C   0  0  0  0  0  0
  -24.6399  -11.6942   20.8753 C   0  0  0  0  0  0
  -23.9102  -10.4291   21.0391 C   0  0  0  0  0  0
  -24.3652   -9.4200   21.9173 C   0  0  0  0  0  0
  -23.6301   -8.2237   22.0745 C   0  0  0  0  0  0
  -22.4267   -8.0287   21.3544 C   0  0  0  0  0  0
  -21.9917   -9.0275   20.4656 C   0  0  0  0  0  0
  -22.7270  -10.2130   20.3048 C   0  0  0  0  0  0
  -21.6860   -6.0732   22.5280 C   0  0  0  0  0  0
  -21.4041   -6.5635   23.8216 C   0  0  0  0  0  0
  -21.3647   -5.6783   24.9174 C   0  0  0  0  0  0
  -21.6030   -4.3044   24.7218 C   0  0  0  0  0  0
  -21.8825   -3.8142   23.4341 C   0  0  0  0  0  0
  -21.9193   -4.6962   22.3404 C   0  0  0  0  0  0
  -22.7746  -13.5211   21.1889 C   0  0  0  0  0  0
  -22.1656   -4.2154   21.0972 F   0  0  0  0  0  0
  -21.5609   -3.4524   25.7730 F   0  0  0  0  0  0
  -29.8764  -13.9635   20.3409 N   0  0  0  0  0  0
  -26.2812  -12.9541   20.3185 N   0  0  0  0  0  0
  -25.9334  -11.6647   20.5699 N   0  0  0  0  0  0
  -22.0398  -12.8212   22.0460 N   0  0  0  0  0  0
  -25.4013  -15.1987   20.4138 N   0  0  0  0  0  0
  -31.6566  -15.2710   20.1445 O   0  0  0  0  0  0
  -21.6638   -6.8875   21.4239 O   0  0  0  0  0  0
  -22.3432  -14.5504   20.6715 O   0  0  0  0  0  0
  -24.6659  -31.8223   23.1665 C   0  0  0  0  0  0
  -25.9323  -32.4586   23.8156 C   0  0  1  0  0  0
  -27.2193  -26.9008   20.1939 C   0  0  0  0  0  0
  -25.5971  -33.8398   24.2066 N   0  0  0  0  0  0
  -23.4807  -30.4317   21.5177 C   0  0  2  0  0  0
  -24.9324  -28.8065   20.1181 C   0  0  0  0  0  0
  -22.7682  -29.4443   22.4781 C   0  0  0  0  0  0
  -18.0334  -28.1394   22.8475 C   0  0  0  0  0  0
  -24.1495  -36.7210   23.2649 C   0  0  0  0  0  0
  -26.0502  -30.6204   21.3962 C   0  0  0  0  0  0
  -26.1187  -29.2046   20.7477 C   0  0  0  0  0  0
  -27.2564  -28.2760   20.7545 C   0  0  0  0  0  0
  -26.0023  -26.6566   19.5195 C   0  0  0  0  0  0
  -24.9013  -27.5522   19.4850 C   0  0  0  0  0  0
  -23.7196  -29.7383   20.1480 C   0  0  0  0  0  0
  -25.4133  -36.2968   24.0299 C   0  0  1  0  0  0
  -20.5967  -28.3750   23.1186 C   0  0  2  0  0  0
  -20.6793  -26.9425   22.5405 C   0  0  0  0  0  0
  -19.5763  -26.6365   21.5216 C   0  0  0  0  0  0
  -18.1954  -26.7931   22.1635 C   0  0  0  0  0  0
  -19.1600  -28.8897   23.2823 C   0  0  0  0  0  0
  -18.9494  -30.1482   23.8849 C   0  0  0  0  0  0
  -17.6485  -30.6585   24.0556 C   0  0  0  0  0  0
  -25.9102  -34.9350   23.5009 C   0  0  0  0  0  0
  -16.5378  -29.9062   23.6335 C   0  0  0  0  0  0
  -16.7319  -28.6490   23.0353 C   0  0  0  0  0  0
  -26.4541  -31.6532   25.0697 C   0  0  0  0  0  0
  -25.3651  -31.3788   26.1343 C   0  0  0  0  0  0
  -27.0422  -30.2903   24.6425 C   0  0  0  0  0  0
  -27.6043  -32.4336   25.7496 C   0  0  0  0  0  0
  -27.5572  -37.1763   24.8460 C   0  0  0  0  0  0
  -21.4352  -29.3046   22.3530 N   0  0  0  0  0  0
  -26.4278  -37.3704   23.9409 N   0  0  0  0  0  0
  -24.7545  -30.9871   22.0807 N   0  0  0  0  0  0
  -23.4217  -28.8020   23.3040 O   0  0  0  0  0  0
  -28.2416  -25.8061   20.2444 O   0  0  0  0  0  0
  -26.5726  -34.8889   22.4619 O   0  0  0  0  0  0
  -23.5719  -32.1195   23.6739 O   0  0  0  0  0  0
  -31.0219  -21.1156   19.7291 C   0  0  0  0  0  0
  -31.8840  -22.0217   19.1325 C   0  0  0  0  0  0
  -29.6644  -21.3803   20.0356 C   0  0  0  0  0  0
  -29.2780  -22.9339   19.8468 C   0  0  0  0  0  0
  -30.2320  -23.6178   19.0158 C   0  0  0  0  0  0
  -29.9334  -24.9056   18.2562 C   0  0  0  0  0  0
  -29.0910  -19.7766   20.4390 C   0  0  0  0  0  0
  -28.0736  -24.1413   20.2457 C   0  0  0  0  0  0
  -30.0048  -18.1938   20.2772 C   0  0  0  0  0  0
  -31.4730  -23.2093   18.7134 N   0  0  0  0  0  0
  -29.6846  -16.5551   20.4734 N   0  0  0  0  0  0
  -31.4616  -12.9976   19.2211 H   0  0  0  0  0  0
  -30.4768  -11.9027   20.1371 H   0  0  0  0  0  0
  -29.9270  -11.7808   17.6742 H   0  0  0  0  0  0
  -29.5712  -13.4884   17.6608 H   0  0  0  0  0  0
  -28.0413  -11.2861   19.0726 H   0  0  0  0  0  0
  -27.4241  -12.3599   17.8412 H   0  0  0  0  0  0
  -27.5276  -14.2484   19.3251 H   0  0  0  0  0  0
  -28.8043  -12.5209   21.4964 H   0  0  0  0  0  0
  -28.2774  -14.1772   21.6916 H   0  0  0  0  0  0
  -25.2791   -9.5662   22.4762 H   0  0  0  0  0  0
  -23.9999   -7.4612   22.7456 H   0  0  0  0  0  0
  -21.0832   -8.8809   19.8972 H   0  0  0  0  0  0
  -22.3726  -10.9677   19.6154 H   0  0  0  0  0  0
  -21.2067   -7.6144   23.9729 H   0  0  0  0  0  0
  -21.1456   -6.0501   25.9072 H   0  0  0  0  0  0
  -22.0616   -2.7602   23.2836 H   0  0  0  0  0  0
  -22.4008  -11.9884   22.4863 H   0  0  0  0  0  0
  -21.1014  -13.1236   22.2670 H   0  0  0  0  0  0
  -24.6276  -15.8456   20.5079 H   0  0  0  0  0  0
  -26.2374  -15.6365   20.0499 H   0  0  0  0  0  0
  -26.7407  -32.5113   23.0877 H   0  0  0  0  0  0
  -24.9990  -33.9473   25.0128 H   0  0  0  0  0  0
  -22.7970  -31.2649   21.3434 H   0  0  0  0  0  0
  -23.3766  -35.9530   23.3272 H   0  0  0  0  0  0
  -24.3579  -36.8901   22.2073 H   0  0  0  0  0  0
  -23.7246  -37.6386   23.6731 H   0  0  0  0  0  0
  -26.2272  -31.3561   20.6100 H   0  0  0  0  0  0
  -26.9126  -30.6866   22.0473 H   0  0  0  0  0  0
  -28.1587  -28.5849   21.2639 H   0  0  0  0  0  0
  -25.8711  -25.7019   19.0310 H   0  0  0  0  0  0
  -23.9984  -27.2372   18.9823 H   0  0  0  0  0  0
  -23.8751  -30.5009   19.3846 H   0  0  0  0  0  0
  -22.8272  -29.1922   19.8370 H   0  0  0  0  0  0
  -25.1335  -36.1757   25.0787 H   0  0  0  0  0  0
  -21.0072  -28.3348   24.1305 H   0  0  0  0  0  0
  -20.5650  -26.2372   23.3650 H   0  0  0  0  0  0
  -21.6656  -26.7363   22.1235 H   0  0  0  0  0  0
  -19.6912  -25.6262   21.1279 H   0  0  0  0  0  0
  -19.6692  -27.3147   20.6721 H   0  0  0  0  0  0
  -17.4221  -26.6690   21.4039 H   0  0  0  0  0  0
  -18.0343  -26.0078   22.9034 H   0  0  0  0  0  0
  -19.7963  -30.7330   24.2186 H   0  0  0  0  0  0
  -17.5019  -31.6261   24.5165 H   0  0  0  0  0  0
  -15.5370  -30.2935   23.7670 H   0  0  0  0  0  0
  -15.8731  -28.0784   22.7063 H   0  0  0  0  0  0
  -24.5831  -30.7155   25.7628 H   0  0  0  0  0  0
  -24.8829  -32.2981   26.4674 H   0  0  0  0  0  0
  -25.7847  -30.8995   27.0193 H   0  0  0  0  0  0
  -26.3072  -29.6592   24.1418 H   0  0  0  0  0  0
  -27.3936  -29.7266   25.5074 H   0  0  0  0  0  0
  -27.9025  -30.4089   23.9840 H   0  0  0  0  0  0
  -27.2624  -33.3664   26.1989 H   0  0  0  0  0  0
  -28.3886  -32.6857   25.0350 H   0  0  0  0  0  0
  -28.0674  -31.8524   26.5477 H   0  0  0  0  0  0
  -28.2566  -38.0080   24.7511 H   0  0  0  0  0  0
  -28.1094  -36.2611   24.6268 H   0  0  0  0  0  0
  -27.2299  -37.1386   25.8865 H   0  0  0  0  0  0
  -20.9594  -29.8752   21.6682 H   0  0  0  0  0  0
  -26.0125  -38.2769   24.1392 H   0  0  0  0  0  0
  -31.4736  -20.1559   19.9095 H   0  0  0  0  0  0
  -32.9012  -21.7429   18.8934 H   0  0  0  0  0  0
  -28.8958  -24.9552   17.9242 H   0  0  0  0  0  0
  -30.5285  -24.9698   17.3437 H   0  0  0  0  0  0
  -30.1825  -25.7810   18.8531 H   0  0  0  0  0  0
  -28.1701  -19.6571   19.8696 H   0  0  0  0  0  0
  -28.7657  -19.8402   21.4769 H   0  0  0  0  0  0
  -27.7453  -23.8864   21.2543 H   0  0  0  0  0  0
  -27.2131  -23.9128   19.6181 H   0  0  0  0  0  0
  -30.8948  -18.3177   20.8957 H   0  0  0  0  0  0
  -30.3833  -18.2227   19.2547 H   0  0  0  0  0  0
  -28.7043  -16.3829   20.6492 H   0  0  0  0  0  0
  1 25  1  0  0  0
  1 30  2  0  0  0
  1 81  1  0  0  0
  2  3  1  0  0  0
  2 25  1  0  0  0
  2 82  1  0  0  0
  2 83  1  0  0  0
  3  4  1  0  0  0
  3 84  1  0  0  0
  3 85  1  0  0  0
  4  5  1  0  0  0
  4 86  1  0  0  0
  4 87  1  0  0  0
  5  6  1  0  0  0
  5 26  1  0  0  0
  5 88  1  0  0  0
  6 25  1  0  0  0
  6 89  1  0  0  0
  6 90  1  0  0  0
  7  8  2  0  0  0
  7 26  1  0  0  0
  7 29  1  0  0  0
  8  9  1  0  0  0
  8 22  1  0  0  0
  9 10  1  0  0  0
  9 27  2  0  0  0
 10 11  2  0  0  0
 10 15  1  0  0  0
 11 12  1  0  0  0
 11 91  1  0  0  0
 12 13  2  0  0  0
 12 92  1  0  0  0
 13 14  1  0  0  0
 13 31  1  0  0  0
 14 15  2  0  0  0
 14 93  1  0  0  0
 15 94  1  0  0  0
 16 17  2  0  0  0
 16 21  1  0  0  0
 16 31  1  0  0  0
 17 18  1  0  0  0
 17 95  1  0  0  0
 18 19  2  0  0  0
 18 96  1  0  0  0
 19 20  1  0  0  0
 19 24  1  0  0  0
 20 21  2  0  0  0
 20 97  1  0  0  0
 21 23  1  0  0  0
 22 28  1  0  0  0
 22 32  2  0  0  0
 26 27  1  0  0  0
 28 98  1  0  0  0
 28 99  1  0  0  0
 29100  1  0  0  0
 29101  1  0  0  0
 33 34  1  0  0  0
 33 66  1  0  0  0
 33 70  2  0  0  0
 34 36  1  0  0  0
 34 59  1  0  0  0
 34102  1  0  0  0
 35 44  2  0  0  0
 35 45  1  0  0  0
 35 68  1  0  0  0
 36 56  1  0  0  0
 36103  1  0  0  0
 37 39  1  0  0  0
 37 47  1  0  0  0
 37 66  1  0  0  0
 37104  1  0  0  0
 38 43  2  0  0  0
 38 46  1  0  0  0
 38 47  1  0  0  0
 39 64  1  0  0  0
 39 67  2  0  0  0
 40 52  1  0  0  0
 40 53  2  0  0  0
 40 58  1  0  0  0
 41105  1  0  0  0
 41106  1  0  0  0
 41107  1  0  0  0
 41 48  1  0  0  0
 42 43  1  0  0  0
 42 66  1  0  0  0
 42108  1  0  0  0
 42109  1  0  0  0
 43 44  1  0  0  0
 44110  1  0  0  0
 45 46  2  0  0  0
 45111  1  0  0  0
 46112  1  0  0  0
 47113  1  0  0  0
 47114  1  0  0  0
 48 56  1  0  0  0
 48 65  1  0  0  0
 48115  1  0  0  0
 49 50  1  0  0  0
 49 53  1  0  0  0
 49 64  1  0  0  0
 49116  1  0  0  0
 50 51  1  0  0  0
 50117  1  0  0  0
 50118  1  0  0  0
 51 52  1  0  0  0
 51119  1  0  0  0
 51120  1  0  0  0
 52121  1  0  0  0
 52122  1  0  0  0
 53 54  1  0  0  0
 54 55  2  0  0  0
 54123  1  0  0  0
 55 57  1  0  0  0
 55124  1  0  0  0
 56 69  2  0  0  0
 57 58  2  0  0  0
 57125  1  0  0  0
 58126  1  0  0  0
 59 60  1  0  0  0
 59 61  1  0  0  0
 59 62  1  0  0  0
 60127  1  0  0  0
 60128  1  0  0  0
 60129  1  0  0  0
 61130  1  0  0  0
 61131  1  0  0  0
 61132  1  0  0  0
 62133  1  0  0  0
 62134  1  0  0  0
 62135  1  0  0  0
 63 65  1  0  0  0
 63136  1  0  0  0
 63137  1  0  0  0
 63138  1  0  0  0
 64139  1  0  0  0
 65140  1  0  0  0
 68 78  1  0  0  0
 71 72  2  0  0  0
 71 73  1  0  0  0
 71141  1  0  0  0
 72 80  1  0  0  0
 72142  1  0  0  0
 73 74  2  0  0  0
 73 77  1  0  0  0
 74 75  1  0  0  0
 74 78  1  0  0  0
 75 76  1  0  0  0
 75 80  2  0  0  0
 76143  1  0  0  0
 76144  1  0  0  0
 76145  1  0  0  0
 77 79  1  0  0  0
 77146  1  0  0  0
 77147  1  0  0  0
 78148  1  0  0  0
 78149  1  0  0  0
 79 81  1  0  0  0
 79150  1  0  0  0
 79151  1  0  0  0
 81152  1  0  0  0
M  ISO  4   1 100  68 101  78 101  81 100
M  END
> <chiral flag>
0

> <version>
0

> <s_m_source_file>
/data/baiqing/PycharmProjects/Reinvent-master-3.2/result/LINK_invent/BTK/process_docking_weight1_custom_sum_contain_oxygen_bond_distance_aromatic_linkinvent_7_9_3/rearranged_h_0084.sdf

> <i_m_source_file_index>
1

> <r_mmod_Potential_Energy-OPLS-2005>
1372.60729980469

> <r_mmod_Stretch_Energy-OPLS-2005>
687.18798828125

> <r_mmod_Bend_Energy-OPLS-2005>
523.82763671875

> <r_mmod_Torsional_Energy-OPLS-2005>
243.979843139648

> <r_mmod_Improper_Torsional_Energy-OPLS-2005>
4.42045640945435

> <r_mmod_Van_der_Waal_Energy-OPLS-2005>
147.060623168945

> <r_mmod_Electrostatic_Energy-OPLS-2005>
-473.782592773438

> <r_mmod_Solvation_Energy-OPLS-2005>
-233.309204101562

> <b_mmod_Minimization_Converged-OPLS-2005>
0

> <r_mmod_RMS_Derivative-OPLS-2005>
2.97441434860229

$$$$
1
                    3D
 Structure written by MMmdl.
166174  0  0  1  0            999 V2000
  -30.7823  -14.3365   20.6726 C   0  0  0  0  0  0
  -30.4046  -12.2680   19.3985 C   0  0  0  0  0  0
  -29.4820  -12.5274   18.1967 C   0  0  0  0  0  0
  -28.0020  -12.4069   18.6089 C   0  0  0  0  0  0
  -27.6668  -13.2140   19.8926 C   0  0  2  0  0  0
  -28.7050  -12.9404   21.0018 C   0  0  0  0  0  0
  -25.2578  -13.8175   20.5704 C   0  0  0  0  0  0
  -24.1843  -13.0431   20.9183 C   0  0  0  0  0  0
  -24.6416  -11.6902   20.8743 C   0  0  0  0  0  0
  -23.9082  -10.4277   21.0387 C   0  0  0  0  0  0
  -24.3635   -9.4188   21.9153 C   0  0  0  0  0  0
  -23.6309   -8.2225   22.0740 C   0  0  0  0  0  0
  -22.4283   -8.0260   21.3526 C   0  0  0  0  0  0
  -21.9911   -9.0236   20.4630 C   0  0  0  0  0  0
  -22.7249  -10.2113   20.3028 C   0  0  0  0  0  0
  -21.6866   -6.0713   22.5284 C   0  0  0  0  0  0
  -21.4023   -6.5623   23.8219 C   0  0  0  0  0  0
  -21.3665   -5.6767   24.9187 C   0  0  0  0  0  0
  -21.6059   -4.3028   24.7245 C   0  0  0  0  0  0
  -21.8825   -3.8125   23.4370 C   0  0  0  0  0  0
  -21.9194   -4.6934   22.3416 C   0  0  0  0  0  0
  -22.7852  -13.5184   21.1865 C   0  0  0  0  0  0
  -22.1648   -4.2124   21.0989 F   0  0  0  0  0  0
  -21.5646   -3.4509   25.7756 F   0  0  0  0  0  0
  -30.0459  -13.2186   20.4571 N   0  0  0  0  0  0
  -26.3056  -12.9371   20.3474 N   0  0  0  0  0  0
  -25.9348  -11.6514   20.5822 N   0  0  0  0  0  0
  -22.0525  -12.8126   22.0431 N   0  0  0  0  0  0
  -25.4238  -15.1895   20.4099 N   0  0  0  0  0  0
  -31.8180  -14.5868   20.0532 O   0  0  0  0  0  0
  -21.6653   -6.8845   21.4239 O   0  0  0  0  0  0
  -22.3484  -14.5460   20.6696 O   0  0  0  0  0  0
  -24.6079  -31.8725   23.2145 C   0  0  0  0  0  0
  -25.8994  -32.4855   23.8420 C   0  0  1  0  0  0
  -27.2388  -27.5034   20.0828 C   0  0  0  0  0  0
  -25.5871  -33.8652   24.2355 N   0  0  0  0  0  0
  -23.3939  -30.4925   21.5539 C   0  0  2  0  0  0
  -24.8429  -28.9669   20.1156 C   0  0  0  0  0  0
  -22.7377  -29.4638   22.5029 C   0  0  0  0  0  0
  -18.0258  -28.1352   22.8490 C   0  0  0  0  0  0
  -24.1486  -36.7312   23.2642 C   0  0  0  0  0  0
  -25.9142  -30.8607   21.3548 C   0  0  0  0  0  0
  -25.9963  -29.4978   20.7080 C   0  0  0  0  0  0
  -27.2008  -28.7698   20.6939 C   0  0  0  0  0  0
  -26.0802  -26.9709   19.4863 C   0  0  0  0  0  0
  -24.8748  -27.6979   19.5057 C   0  0  0  0  0  0
  -23.6005  -29.8246   20.1674 C   0  0  0  0  0  0
  -25.4107  -36.3137   24.0351 C   0  0  1  0  0  0
  -20.5854  -28.3619   23.1345 C   0  0  2  0  0  0
  -20.6754  -26.9363   22.5429 C   0  0  0  0  0  0
  -19.5739  -26.6368   21.5209 C   0  0  0  0  0  0
  -18.1910  -26.7903   22.1612 C   0  0  0  0  0  0
  -19.1510  -28.8800   23.2920 C   0  0  0  0  0  0
  -18.9441  -30.1408   23.8932 C   0  0  0  0  0  0
  -17.6452  -30.6569   24.0551 C   0  0  0  0  0  0
  -25.9028  -34.9499   23.5147 C   0  0  0  0  0  0
  -16.5343  -29.9077   23.6314 C   0  0  0  0  0  0
  -16.7252  -28.6491   23.0339 C   0  0  0  0  0  0
  -26.4454  -31.6616   25.0706 C   0  0  0  0  0  0
  -25.3720  -31.3701   26.1442 C   0  0  0  0  0  0
  -27.0279  -30.3087   24.5991 C   0  0  0  0  0  0
  -27.6039  -32.4326   25.7464 C   0  0  0  0  0  0
  -27.5588  -37.1813   24.8463 C   0  0  0  0  0  0
  -21.4116  -29.2999   22.3784 N   0  0  0  0  0  0
  -26.4301  -37.3814   23.9417 N   0  0  0  0  0  0
  -24.6566  -31.0873   22.1011 N   0  0  0  0  0  0
  -23.4180  -28.8186   23.3053 O   0  0  0  0  0  0
  -28.3939  -26.7790   20.0736 O   0  0  0  0  0  0
  -26.5593  -34.8937   22.4711 O   0  0  0  0  0  0
  -23.5282  -32.1445   23.7570 O   0  0  0  0  0  0
  -29.4859  -21.7241   20.4143 C   0  0  0  0  0  0
  -30.1667  -22.8593   19.9435 C   0  0  0  0  0  0
  -30.2072  -20.5231   20.5515 C   0  0  0  0  0  0
  -31.5336  -22.7139   19.6143 C   0  0  0  0  0  0
  -32.3718  -23.8599   19.0791 C   0  0  0  0  0  0
  -28.0142  -19.2562   21.0424 C   0  0  0  0  0  0
  -29.4276  -24.1752   19.8576 C   0  0  0  0  0  0
  -29.6868  -25.0495   21.0919 C   0  0  0  0  0  0
  -31.3346  -17.3996   21.1071 C   0  0  0  0  0  0
  -30.0976  -17.9774   20.3904 C   0  0  0  0  0  0
  -31.0228  -16.3196   22.1681 C   0  0  0  0  0  0
  -28.5794  -26.0780   21.2940 C   0  0  0  0  0  0
  -29.5575  -19.2409   21.0973 C   0  0  1  0  0  0
  -31.5348  -20.4708   20.2631 N   0  0  0  0  0  0
  -32.1818  -21.5362   19.7806 N   0  0  0  0  0  0
  -30.3308  -15.1432   21.6412 N   0  0  0  0  0  0
  -31.4518  -12.3416   19.0980 H   0  0  0  0  0  0
  -30.2795  -11.2466   19.7603 H   0  0  0  0  0  0
  -29.7057  -11.8265   17.3918 H   0  0  0  0  0  0
  -29.6763  -13.5249   17.7975 H   0  0  0  0  0  0
  -27.7784  -11.3498   18.7641 H   0  0  0  0  0  0
  -27.3598  -12.7284   17.7890 H   0  0  0  0  0  0
  -27.7304  -14.2733   19.6395 H   0  0  0  0  0  0
  -28.6575  -11.8921   21.3013 H   0  0  0  0  0  0
  -28.4694  -13.5063   21.9026 H   0  0  0  0  0  0
  -25.2800   -9.5659   22.4697 H   0  0  0  0  0  0
  -24.0030   -7.4614   22.7443 H   0  0  0  0  0  0
  -21.0858   -8.8749   19.8924 H   0  0  0  0  0  0
  -22.3725  -10.9633   19.6116 H   0  0  0  0  0  0
  -21.1994   -7.6118   23.9722 H   0  0  0  0  0  0
  -21.1496   -6.0492   25.9089 H   0  0  0  0  0  0
  -22.0600   -2.7586   23.2892 H   0  0  0  0  0  0
  -22.4193  -11.9797   22.4800 H   0  0  0  0  0  0
  -21.1124  -13.1094   22.2660 H   0  0  0  0  0  0
  -24.6539  -15.8401   20.5227 H   0  0  0  0  0  0
  -26.2770  -15.6354   20.0976 H   0  0  0  0  0  0
  -26.7072  -32.5614   23.1215 H   0  0  0  0  0  0
  -25.0054  -33.9835   25.0517 H   0  0  0  0  0  0
  -22.6780  -31.3057   21.4178 H   0  0  0  0  0  0
  -23.3762  -35.9626   23.3306 H   0  0  0  0  0  0
  -24.3590  -36.8907   22.2052 H   0  0  0  0  0  0
  -23.7200  -37.6510   23.6636 H   0  0  0  0  0  0
  -26.0065  -31.6285   20.5842 H   0  0  0  0  0  0
  -26.8097  -30.9252   21.9603 H   0  0  0  0  0  0
  -28.0969  -29.1767   21.1420 H   0  0  0  0  0  0
  -26.1160  -25.9968   19.0166 H   0  0  0  0  0  0
  -23.9878  -27.2790   19.0485 H   0  0  0  0  0  0
  -23.7048  -30.6014   19.4094 H   0  0  0  0  0  0
  -22.7278  -29.2392   19.8721 H   0  0  0  0  0  0
  -25.1286  -36.2028   25.0849 H   0  0  0  0  0  0
  -20.9925  -28.3154   24.1469 H   0  0  0  0  0  0
  -20.5636  -26.2209   23.3606 H   0  0  0  0  0  0
  -21.6627  -26.7404   22.1230 H   0  0  0  0  0  0
  -19.6902  -25.6279   21.1226 H   0  0  0  0  0  0
  -19.6699  -27.3193   20.6756 H   0  0  0  0  0  0
  -17.4191  -26.6647   21.4010 H   0  0  0  0  0  0
  -18.0308  -26.0036   22.9001 H   0  0  0  0  0  0
  -19.7921  -30.7202   24.2332 H   0  0  0  0  0  0
  -17.5009  -31.6254   24.5138 H   0  0  0  0  0  0
  -15.5346  -30.2997   23.7604 H   0  0  0  0  0  0
  -15.8644  -28.0820   22.7040 H   0  0  0  0  0  0
  -24.5874  -30.7087   25.7750 H   0  0  0  0  0  0
  -24.8931  -32.2856   26.4923 H   0  0  0  0  0  0
  -25.8044  -30.8820   27.0181 H   0  0  0  0  0  0
  -26.2797  -29.6858   24.1066 H   0  0  0  0  0  0
  -27.4147  -29.7299   25.4391 H   0  0  0  0  0  0
  -27.8584  -30.4479   23.9060 H   0  0  0  0  0  0
  -27.2665  -33.3623   26.2067 H   0  0  0  0  0  0
  -28.3823  -32.6888   25.0262 H   0  0  0  0  0  0
  -28.0722  -31.8423   26.5350 H   0  0  0  0  0  0
  -28.2603  -38.0118   24.7550 H   0  0  0  0  0  0
  -28.1093  -36.2655   24.6257 H   0  0  0  0  0  0
  -27.2313  -37.1422   25.8867 H   0  0  0  0  0  0
  -20.9258  -29.8747   21.7047 H   0  0  0  0  0  0
  -26.0198  -38.2893   24.1438 H   0  0  0  0  0  0
  -28.4431  -21.7910   20.6818 H   0  0  0  0  0  0
  -32.5679  -24.5867   19.8646 H   0  0  0  0  0  0
  -31.8667  -24.3673   18.2588 H   0  0  0  0  0  0
  -33.3326  -23.5084   18.7018 H   0  0  0  0  0  0
  -27.5988  -20.0235   21.6963 H   0  0  0  0  0  0
  -27.5997  -18.3063   21.3781 H   0  0  0  0  0  0
  -27.6474  -19.4351   20.0319 H   0  0  0  0  0  0
  -28.3607  -23.9572   19.7787 H   0  0  0  0  0  0
  -29.6855  -24.7064   18.9405 H   0  0  0  0  0  0
  -30.6586  -25.5394   21.0190 H   0  0  0  0  0  0
  -29.7247  -24.4243   21.9866 H   0  0  0  0  0  0
  -31.8985  -18.1997   21.5873 H   0  0  0  0  0  0
  -32.0207  -17.0087   20.3575 H   0  0  0  0  0  0
  -29.3322  -17.2073   20.3201 H   0  0  0  0  0  0
  -30.3388  -18.2184   19.3540 H   0  0  0  0  0  0
  -30.4137  -16.7453   22.9656 H   0  0  0  0  0  0
  -31.9511  -15.9882   22.6369 H   0  0  0  0  0  0
  -28.8344  -26.7663   22.1006 H   0  0  0  0  0  0
  -27.6609  -25.5645   21.5831 H   0  0  0  0  0  0
  -29.8149  -19.1873   22.1548 H   0  0  0  0  0  0
  -29.4864  -14.8545   22.1125 H   0  0  0  0  0  0
  1 25  1  0  0  0
  1 30  2  0  0  0
  1 86  1  0  0  0
  2  3  1  0  0  0
  2 25  1  0  0  0
  2 87  1  0  0  0
  2 88  1  0  0  0
  3  4  1  0  0  0
  3 89  1  0  0  0
  3 90  1  0  0  0
  4  5  1  0  0  0
  4 91  1  0  0  0
  4 92  1  0  0  0
  5  6  1  0  0  0
  5 26  1  0  0  0
  5 93  1  0  0  0
  6 25  1  0  0  0
  6 94  1  0  0  0
  6 95  1  0  0  0
  7  8  2  0  0  0
  7 26  1  0  0  0
  7 29  1  0  0  0
  8  9  1  0  0  0
  8 22  1  0  0  0
  9 10  1  0  0  0
  9 27  2  0  0  0
 10 11  2  0  0  0
 10 15  1  0  0  0
 11 12  1  0  0  0
 11 96  1  0  0  0
 12 13  2  0  0  0
 12 97  1  0  0  0
 13 14  1  0  0  0
 13 31  1  0  0  0
 14 15  2  0  0  0
 14 98  1  0  0  0
 15 99  1  0  0  0
 16 17  2  0  0  0
 16 21  1  0  0  0
 16 31  1  0  0  0
 17 18  1  0  0  0
 17100  1  0  0  0
 18 19  2  0  0  0
 18101  1  0  0  0
 19 20  1  0  0  0
 19 24  1  0  0  0
 20 21  2  0  0  0
 20102  1  0  0  0
 21 23  1  0  0  0
 22 28  1  0  0  0
 22 32  2  0  0  0
 26 27  1  0  0  0
 28103  1  0  0  0
 28104  1  0  0  0
 29105  1  0  0  0
 29106  1  0  0  0
 33 34  1  0  0  0
 33 66  1  0  0  0
 33 70  2  0  0  0
 34 36  1  0  0  0
 34 59  1  0  0  0
 34107  1  0  0  0
 35 44  2  0  0  0
 35 45  1  0  0  0
 35 68  1  0  0  0
 36 56  1  0  0  0
 36108  1  0  0  0
 37 39  1  0  0  0
 37 47  1  0  0  0
 37 66  1  0  0  0
 37109  1  0  0  0
 38 43  2  0  0  0
 38 46  1  0  0  0
 38 47  1  0  0  0
 39 64  1  0  0  0
 39 67  2  0  0  0
 40 52  1  0  0  0
 40 53  2  0  0  0
 40 58  1  0  0  0
 41110  1  0  0  0
 41111  1  0  0  0
 41112  1  0  0  0
 41 48  1  0  0  0
 42 43  1  0  0  0
 42 66  1  0  0  0
 42113  1  0  0  0
 42114  1  0  0  0
 43 44  1  0  0  0
 44115  1  0  0  0
 45 46  2  0  0  0
 45116  1  0  0  0
 46117  1  0  0  0
 47118  1  0  0  0
 47119  1  0  0  0
 48 56  1  0  0  0
 48 65  1  0  0  0
 48120  1  0  0  0
 49 50  1  0  0  0
 49 53  1  0  0  0
 49 64  1  0  0  0
 49121  1  0  0  0
 50 51  1  0  0  0
 50122  1  0  0  0
 50123  1  0  0  0
 51 52  1  0  0  0
 51124  1  0  0  0
 51125  1  0  0  0
 52126  1  0  0  0
 52127  1  0  0  0
 53 54  1  0  0  0
 54 55  2  0  0  0
 54128  1  0  0  0
 55 57  1  0  0  0
 55129  1  0  0  0
 56 69  2  0  0  0
 57 58  2  0  0  0
 57130  1  0  0  0
 58131  1  0  0  0
 59 60  1  0  0  0
 59 61  1  0  0  0
 59 62  1  0  0  0
 60132  1  0  0  0
 60133  1  0  0  0
 60134  1  0  0  0
 61135  1  0  0  0
 61136  1  0  0  0
 61137  1  0  0  0
 62138  1  0  0  0
 62139  1  0  0  0
 62140  1  0  0  0
 63 65  1  0  0  0
 63141  1  0  0  0
 63142  1  0  0  0
 63143  1  0  0  0
 64144  1  0  0  0
 65145  1  0  0  0
 68 82  1  0  0  0
 71 72  2  0  0  0
 71 73  1  0  0  0
 71146  1  0  0  0
 72 74  1  0  0  0
 72 77  1  0  0  0
 73 83  1  0  0  0
 73 84  2  0  0  0
 74 75  1  0  0  0
 74 85  2  0  0  0
 75147  1  0  0  0
 75148  1  0  0  0
 75149  1  0  0  0
 76150  1  0  0  0
 76151  1  0  0  0
 76152  1  0  0  0
 76 83  1  0  0  0
 77 78  1  0  0  0
 77153  1  0  0  0
 77154  1  0  0  0
 78 82  1  0  0  0
 78155  1  0  0  0
 78156  1  0  0  0
 79 80  1  0  0  0
 79 81  1  0  0  0
 79157  1  0  0  0
 79158  1  0  0  0
 80 83  1  0  0  0
 80159  1  0  0  0
 80160  1  0  0  0
 81 86  1  0  0  0
 81161  1  0  0  0
 81162  1  0  0  0
 82163  1  0  0  0
 82164  1  0  0  0
 83165  1  0  0  0
 84 85  1  0  0  0
 86166  1  0  0  0
M  ISO  4   1 100  68 101  82 101  86 100
M  END
> <chiral flag>
0

> <version>
0

> <s_m_source_file>
/data/baiqing/PycharmProjects/Reinvent-master-3.2/result/LINK_invent/BTK/process_docking_weight1_custom_sum_contain_oxygen_bond_distance_aromatic_linkinvent_7_9_3/rearranged_h_0084.sdf

> <i_m_source_file_index>
2

> <r_mmod_Potential_Energy-OPLS-2005>
-55.4400367736816

> <r_mmod_Stretch_Energy-OPLS-2005>
32.5106887817383

> <r_mmod_Bend_Energy-OPLS-2005>
92.4876708984375

> <r_mmod_Torsional_Energy-OPLS-2005>
242.178573608398

> <r_mmod_Improper_Torsional_Energy-OPLS-2005>
1.93586421012878

> <r_mmod_Van_der_Waal_Energy-OPLS-2005>
167.837371826172

> <r_mmod_Electrostatic_Energy-OPLS-2005>
-370.964630126953

> <r_mmod_Solvation_Energy-OPLS-2005>
-228.426193237305

> <b_mmod_Minimization_Converged-OPLS-2005>
0

> <r_mmod_RMS_Derivative-OPLS-2005>
3.37376856803894

$$$$
2
                    3D
 Structure written by MMmdl.
160168  0  0  1  0            999 V2000
  -30.6974  -14.3963   20.6495 C   0  0  0  0  0  0
  -30.3837  -12.2827   19.4195 C   0  0  0  0  0  0
  -29.4644  -12.5152   18.2028 C   0  0  0  0  0  0
  -27.9855  -12.3500   18.6036 C   0  0  0  0  0  0
  -27.6397  -13.1857   19.8623 C   0  0  2  0  0  0
  -28.6562  -12.9526   20.9941 C   0  0  0  0  0  0
  -25.2493  -13.8138   20.5648 C   0  0  0  0  0  0
  -24.1751  -13.0497   20.9140 C   0  0  0  0  0  0
  -24.6242  -11.6919   20.8719 C   0  0  0  0  0  0
  -23.8966  -10.4317   21.0423 C   0  0  0  0  0  0
  -24.3598   -9.4236   21.9185 C   0  0  0  0  0  0
  -23.6316   -8.2251   22.0721 C   0  0  0  0  0  0
  -22.4279   -8.0285   21.3527 C   0  0  0  0  0  0
  -21.9913   -9.0239   20.4604 C   0  0  0  0  0  0
  -22.7185  -10.2145   20.3018 C   0  0  0  0  0  0
  -21.6890   -6.0759   22.5294 C   0  0  0  0  0  0
  -21.4021   -6.5653   23.8218 C   0  0  0  0  0  0
  -21.3666   -5.6805   24.9173 C   0  0  0  0  0  0
  -21.6048   -4.3061   24.7230 C   0  0  0  0  0  0
  -21.8805   -3.8171   23.4340 C   0  0  0  0  0  0
  -21.9189   -4.6984   22.3409 C   0  0  0  0  0  0
  -22.7767  -13.5247   21.1892 C   0  0  0  0  0  0
  -22.1657   -4.2163   21.0992 F   0  0  0  0  0  0
  -21.5636   -3.4542   25.7749 F   0  0  0  0  0  0
  -30.0071  -13.2403   20.4669 N   0  0  0  0  0  0
  -26.2831  -12.9242   20.3225 N   0  0  0  0  0  0
  -25.9102  -11.6400   20.5633 N   0  0  0  0  0  0
  -22.0546  -12.8190   22.0460 N   0  0  0  0  0  0
  -25.4337  -15.1906   20.4102 N   0  0  0  0  0  0
  -31.7451  -14.6779   20.0567 O   0  0  0  0  0  0
  -21.6633   -6.8910   21.4243 O   0  0  0  0  0  0
  -22.3401  -14.5599   20.6807 O   0  0  0  0  0  0
  -24.6222  -31.8547   23.1960 C   0  0  0  0  0  0
  -25.9171  -32.4699   23.8279 C   0  0  1  0  0  0
  -27.3093  -27.4590   20.0682 C   0  0  0  0  0  0
  -25.6048  -33.8503   24.2212 N   0  0  0  0  0  0
  -23.4106  -30.4684   21.5334 C   0  0  2  0  0  0
  -24.8692  -28.9078   20.1340 C   0  0  0  0  0  0
  -22.7377  -29.4607   22.4871 C   0  0  0  0  0  0
  -18.0289  -28.1298   22.8279 C   0  0  0  0  0  0
  -24.1523  -36.7258   23.2639 C   0  0  0  0  0  0
  -25.9490  -30.7982   21.3812 C   0  0  0  0  0  0
  -26.0275  -29.4521   20.7026 C   0  0  0  0  0  0
  -27.2447  -28.7428   20.6506 C   0  0  0  0  0  0
  -26.1233  -26.8914   19.5516 C   0  0  0  0  0  0
  -24.9096  -27.6093   19.5837 C   0  0  0  0  0  0
  -23.6294  -29.7808   20.1582 C   0  0  0  0  0  0
  -25.4161  -36.3041   24.0309 C   0  0  1  0  0  0
  -20.5806  -28.3821   23.1264 C   0  0  2  0  0  0
  -20.6883  -26.9652   22.5231 C   0  0  0  0  0  0
  -19.5899  -26.6405   21.5063 C   0  0  0  0  0  0
  -18.2005  -26.7896   22.1319 C   0  0  0  0  0  0
  -19.1434  -28.8857   23.2773 C   0  0  0  0  0  0
  -18.9291  -30.1441   23.8817 C   0  0  0  0  0  0
  -17.6238  -30.6460   24.0471 C   0  0  0  0  0  0
  -25.9097  -34.9418   23.5060 C   0  0  0  0  0  0
  -16.5223  -29.8858   23.6131 C   0  0  0  0  0  0
  -16.7253  -28.6307   23.0083 C   0  0  0  0  0  0
  -26.4521  -31.6596   25.0731 C   0  0  0  0  0  0
  -25.3730  -31.3833   26.1424 C   0  0  0  0  0  0
  -27.0447  -30.2982   24.6468 C   0  0  0  0  0  0
  -27.6047  -32.4391   25.7545 C   0  0  0  0  0  0
  -27.5575  -37.1790   24.8457 C   0  0  0  0  0  0
  -21.4055  -29.3338   22.3822 N   0  0  0  0  0  0
  -26.4292  -37.3791   23.9379 N   0  0  0  0  0  0
  -24.6763  -31.0550   22.0932 N   0  0  0  0  0  0
  -23.4140  -28.7981   23.2783 O   0  0  0  0  0  0
  -28.5395  -26.8338   20.0370 O   0  0  0  0  0  0
  -26.5621  -34.8878   22.4591 O   0  0  0  0  0  0
  -23.5396  -32.1376   23.7261 O   0  0  0  0  0  0
  -28.4536  -19.8810   21.9490 C   0  0  0  0  0  0
  -28.4924  -21.1502   22.5755 C   0  0  0  0  0  0
  -29.1584  -18.8053   22.5396 C   0  0  0  0  0  0
  -29.2204  -21.2107   23.7961 C   0  0  0  0  0  0
  -29.3268  -22.4835   24.6172 C   0  0  0  0  0  0
  -27.6945  -22.3395   21.9928 C   0  0  0  0  0  0
  -29.0859  -17.4031   21.9407 C   0  0  0  0  0  0
  -28.2486  -23.0376   20.7065 C   0  0  0  0  0  0
  -28.2330  -24.5951   20.8122 C   0  0  0  0  0  0
  -30.4199  -16.6490   21.7192 C   0  0  0  0  0  0
  -28.6886  -25.4742   19.6223 C   0  0  0  0  0  0
  -29.8078  -18.9417   23.7242 N   0  0  0  0  0  0
  -29.8404  -20.1290   24.3349 N   0  0  0  0  0  0
  -30.1138  -15.2368   21.5027 N   0  0  0  0  0  0
  -31.4306  -12.3716   19.1276 H   0  0  0  0  0  0
  -30.2596  -11.2691   19.8047 H   0  0  0  0  0  0
  -29.7128  -11.8153   17.4044 H   0  0  0  0  0  0
  -29.6128  -13.5179   17.8018 H   0  0  0  0  0  0
  -27.7945  -11.2928   18.7887 H   0  0  0  0  0  0
  -27.3310  -12.6300   17.7741 H   0  0  0  0  0  0
  -27.6945  -14.2306   19.5681 H   0  0  0  0  0  0
  -28.6091  -11.9116   21.3170 H   0  0  0  0  0  0
  -28.3473  -13.5400   21.8655 H   0  0  0  0  0  0
  -25.2769   -9.5746   22.4681 H   0  0  0  0  0  0
  -24.0091   -7.4625   22.7395 H   0  0  0  0  0  0
  -21.0877   -8.8717   19.8874 H   0  0  0  0  0  0
  -22.3680  -10.9659   19.6077 H   0  0  0  0  0  0
  -21.2000   -7.6150   23.9736 H   0  0  0  0  0  0
  -21.1508   -6.0527   25.9094 H   0  0  0  0  0  0
  -22.0577   -2.7617   23.2837 H   0  0  0  0  0  0
  -22.4238  -11.9832   22.4764 H   0  0  0  0  0  0
  -21.1104  -13.1014   22.2676 H   0  0  0  0  0  0
  -24.6916  -15.8682   20.5370 H   0  0  0  0  0  0
  -26.3006  -15.6164   20.1192 H   0  0  0  0  0  0
  -26.7255  -32.5221   23.1006 H   0  0  0  0  0  0
  -25.0337  -33.9713   25.0446 H   0  0  0  0  0  0
  -22.7050  -31.2903   21.3802 H   0  0  0  0  0  0
  -23.3798  -35.9591   23.3343 H   0  0  0  0  0  0
  -24.3582  -36.8794   22.2027 H   0  0  0  0  0  0
  -23.7227  -37.6465   23.6617 H   0  0  0  0  0  0
  -26.1476  -31.5954   20.6659 H   0  0  0  0  0  0
  -26.7956  -30.7666   22.0550 H   0  0  0  0  0  0
  -28.1489  -29.1946   21.0416 H   0  0  0  0  0  0
  -26.1173  -25.8946   19.1371 H   0  0  0  0  0  0
  -24.0228  -27.1254   19.2065 H   0  0  0  0  0  0
  -23.7679  -30.5657   19.4117 H   0  0  0  0  0  0
  -22.7527  -29.2204   19.8225 H   0  0  0  0  0  0
  -25.1336  -36.1912   25.0803 H   0  0  0  0  0  0
  -20.9781  -28.3340   24.1433 H   0  0  0  0  0  0
  -20.6182  -26.2478   23.3386 H   0  0  0  0  0  0
  -21.6741  -26.8093   22.0840 H   0  0  0  0  0  0
  -19.7259  -25.6328   21.1141 H   0  0  0  0  0  0
  -19.6842  -27.3138   20.6530 H   0  0  0  0  0  0
  -17.4356  -26.6647   21.3647 H   0  0  0  0  0  0
  -18.0294  -25.9974   22.8561 H   0  0  0  0  0  0
  -19.7721  -30.7363   24.2118 H   0  0  0  0  0  0
  -17.4685  -31.6189   24.4989 H   0  0  0  0  0  0
  -15.5209  -30.2627   23.7519 H   0  0  0  0  0  0
  -15.8720  -28.0495   22.6689 H   0  0  0  0  0  0
  -24.5885  -30.7251   25.7675 H   0  0  0  0  0  0
  -24.9021  -32.3066   26.4821 H   0  0  0  0  0  0
  -25.7984  -30.8952   27.0203 H   0  0  0  0  0  0
  -26.3144  -29.6626   24.1455 H   0  0  0  0  0  0
  -27.3925  -29.7376   25.5154 H   0  0  0  0  0  0
  -27.9126  -30.4142   23.9978 H   0  0  0  0  0  0
  -27.2631  -33.3649   26.2214 H   0  0  0  0  0  0
  -28.3876  -32.6999   25.0413 H   0  0  0  0  0  0
  -28.0799  -31.8503   26.5404 H   0  0  0  0  0  0
  -28.2597  -38.0095   24.7502 H   0  0  0  0  0  0
  -28.1060  -36.2578   24.6344 H   0  0  0  0  0  0
  -27.2243  -37.1501   25.8858 H   0  0  0  0  0  0
  -20.9236  -29.9585   21.7518 H   0  0  0  0  0  0
  -26.0164  -38.2861   24.1421 H   0  0  0  0  0  0
  -27.8549  -19.7060   21.0662 H   0  0  0  0  0  0
  -28.4150  -22.6452   25.1960 H   0  0  0  0  0  0
  -29.4875  -23.3291   23.9543 H   0  0  0  0  0  0
  -30.1642  -22.4405   25.3117 H   0  0  0  0  0  0
  -27.4981  -23.0825   22.7664 H   0  0  0  0  0  0
  -26.6983  -21.9562   21.7619 H   0  0  0  0  0  0
  -28.6169  -17.4841   20.9595 H   0  0  0  0  0  0
  -28.3923  -16.8003   22.5305 H   0  0  0  0  0  0
  -29.2462  -22.6779   20.4554 H   0  0  0  0  0  0
  -27.6211  -22.7299   19.8654 H   0  0  0  0  0  0
  -28.8265  -24.9223   21.6711 H   0  0  0  0  0  0
  -27.2116  -24.8994   21.0297 H   0  0  0  0  0  0
  -31.0831  -16.7058   22.5849 H   0  0  0  0  0  0
  -30.9524  -17.0606   20.8565 H   0  0  0  0  0  0
  -28.1904  -25.2690   18.6715 H   0  0  0  0  0  0
  -29.7575  -25.3603   19.4326 H   0  0  0  0  0  0
  -29.3041  -14.8728   21.9808 H   0  0  0  0  0  0
  1 25  1  0  0  0
  1 30  2  0  0  0
  1 84  1  0  0  0
  2  3  1  0  0  0
  2 25  1  0  0  0
  2 85  1  0  0  0
  2 86  1  0  0  0
  3  4  1  0  0  0
  3 87  1  0  0  0
  3 88  1  0  0  0
  4  5  1  0  0  0
  4 89  1  0  0  0
  4 90  1  0  0  0
  5  6  1  0  0  0
  5 26  1  0  0  0
  5 91  1  0  0  0
  6 25  1  0  0  0
  6 92  1  0  0  0
  6 93  1  0  0  0
  7  8  2  0  0  0
  7 26  1  0  0  0
  7 29  1  0  0  0
  8  9  1  0  0  0
  8 22  1  0  0  0
  9 10  1  0  0  0
  9 27  2  0  0  0
 10 11  2  0  0  0
 10 15  1  0  0  0
 11 12  1  0  0  0
 11 94  1  0  0  0
 12 13  2  0  0  0
 12 95  1  0  0  0
 13 14  1  0  0  0
 13 31  1  0  0  0
 14 15  2  0  0  0
 14 96  1  0  0  0
 15 97  1  0  0  0
 16 17  2  0  0  0
 16 21  1  0  0  0
 16 31  1  0  0  0
 17 18  1  0  0  0
 17 98  1  0  0  0
 18 19  2  0  0  0
 18 99  1  0  0  0
 19 20  1  0  0  0
 19 24  1  0  0  0
 20 21  2  0  0  0
 20100  1  0  0  0
 21 23  1  0  0  0
 22 28  1  0  0  0
 22 32  2  0  0  0
 26 27  1  0  0  0
 28101  1  0  0  0
 28102  1  0  0  0
 29103  1  0  0  0
 29104  1  0  0  0
 33 34  1  0  0  0
 33 66  1  0  0  0
 33 70  2  0  0  0
 34 36  1  0  0  0
 34 59  1  0  0  0
 34105  1  0  0  0
 35 44  2  0  0  0
 35 45  1  0  0  0
 35 68  1  0  0  0
 36 56  1  0  0  0
 36106  1  0  0  0
 37 39  1  0  0  0
 37 47  1  0  0  0
 37 66  1  0  0  0
 37107  1  0  0  0
 38 43  2  0  0  0
 38 46  1  0  0  0
 38 47  1  0  0  0
 39 64  1  0  0  0
 39 67  2  0  0  0
 40 52  1  0  0  0
 40 53  2  0  0  0
 40 58  1  0  0  0
 41108  1  0  0  0
 41109  1  0  0  0
 41110  1  0  0  0
 41 48  1  0  0  0
 42 43  1  0  0  0
 42 66  1  0  0  0
 42111  1  0  0  0
 42112  1  0  0  0
 43 44  1  0  0  0
 44113  1  0  0  0
 45 46  2  0  0  0
 45114  1  0  0  0
 46115  1  0  0  0
 47116  1  0  0  0
 47117  1  0  0  0
 48 56  1  0  0  0
 48 65  1  0  0  0
 48118  1  0  0  0
 49 50  1  0  0  0
 49 53  1  0  0  0
 49 64  1  0  0  0
 49119  1  0  0  0
 50 51  1  0  0  0
 50120  1  0  0  0
 50121  1  0  0  0
 51 52  1  0  0  0
 51122  1  0  0  0
 51123  1  0  0  0
 52124  1  0  0  0
 52125  1  0  0  0
 53 54  1  0  0  0
 54 55  2  0  0  0
 54126  1  0  0  0
 55 57  1  0  0  0
 55127  1  0  0  0
 56 69  2  0  0  0
 57 58  2  0  0  0
 57128  1  0  0  0
 58129  1  0  0  0
 59 60  1  0  0  0
 59 61  1  0  0  0
 59 62  1  0  0  0
 60130  1  0  0  0
 60131  1  0  0  0
 60132  1  0  0  0
 61133  1  0  0  0
 61134  1  0  0  0
 61135  1  0  0  0
 62136  1  0  0  0
 62137  1  0  0  0
 62138  1  0  0  0
 63 65  1  0  0  0
 63139  1  0  0  0
 63140  1  0  0  0
 63141  1  0  0  0
 64142  1  0  0  0
 65143  1  0  0  0
 68 81  1  0  0  0
 71 72  2  0  0  0
 71 73  1  0  0  0
 71144  1  0  0  0
 72 74  1  0  0  0
 72 76  1  0  0  0
 73 77  1  0  0  0
 73 82  2  0  0  0
 74 75  1  0  0  0
 74 83  2  0  0  0
 75145  1  0  0  0
 75146  1  0  0  0
 75147  1  0  0  0
 76 78  1  0  0  0
 76148  1  0  0  0
 76149  1  0  0  0
 77 80  1  0  0  0
 77150  1  0  0  0
 77151  1  0  0  0
 78 79  1  0  0  0
 78152  1  0  0  0
 78153  1  0  0  0
 79 81  1  0  0  0
 79154  1  0  0  0
 79155  1  0  0  0
 80 84  1  0  0  0
 80156  1  0  0  0
 80157  1  0  0  0
 81158  1  0  0  0
 81159  1  0  0  0
 82 83  1  0  0  0
 84160  1  0  0  0
M  ISO  4   1 100  68 101  81 101  84 100
M  END
> <chiral flag>
0

> <version>
0

> <s_m_source_file>
/data/baiqing/PycharmProjects/Reinvent-master-3.2/result/LINK_invent/BTK/process_docking_weight1_custom_sum_contain_oxygen_bond_distance_aromatic_linkinvent_7_9_3/rearranged_h_0084.sdf

> <i_m_source_file_index>
3

> <r_mmod_Potential_Energy-OPLS-2005>
-63.7096710205078

> <r_mmod_Stretch_Energy-OPLS-2005>
40.9448585510254

> <r_mmod_Bend_Energy-OPLS-2005>
124.013847351074

> <r_mmod_Torsional_Energy-OPLS-2005>
194.544784545898

> <r_mmod_Improper_Torsional_Energy-OPLS-2005>
2.84557819366455

> <r_mmod_Van_der_Waal_Energy-OPLS-2005>
155.89372253418

> <r_mmod_Electrostatic_Energy-OPLS-2005>
-362.266174316406

> <r_mmod_Solvation_Energy-OPLS-2005>
-237.586776733398

> <b_mmod_Minimization_Converged-OPLS-2005>
0

> <r_mmod_RMS_Derivative-OPLS-2005>
12.7380485534668

$$$$
3
                    3D
 Structure written by MMmdl.
160168  0  0  1  0            999 V2000
  -30.6976  -14.3931   20.6402 C   0  0  0  0  0  0
  -30.4217  -12.2843   19.3862 C   0  0  0  0  0  0
  -29.4877  -12.5340   18.1849 C   0  0  0  0  0  0
  -28.0066  -12.3995   18.5997 C   0  0  0  0  0  0
  -27.6690  -13.1949   19.8888 C   0  0  2  0  0  0
  -28.7075  -12.8899   20.9909 C   0  0  0  0  0  0
  -25.2620  -13.8139   20.5699 C   0  0  0  0  0  0
  -24.1859  -13.0443   20.9193 C   0  0  0  0  0  0
  -24.6369  -11.6888   20.8692 C   0  0  0  0  0  0
  -23.9024  -10.4299   21.0387 C   0  0  0  0  0  0
  -24.3601   -9.4229   21.9161 C   0  0  0  0  0  0
  -23.6289   -8.2254   22.0733 C   0  0  0  0  0  0
  -22.4264   -8.0272   21.3538 C   0  0  0  0  0  0
  -21.9897   -9.0236   20.4626 C   0  0  0  0  0  0
  -22.7206  -10.2128   20.3028 C   0  0  0  0  0  0
  -21.6855   -6.0722   22.5275 C   0  0  0  0  0  0
  -21.4018   -6.5630   23.8209 C   0  0  0  0  0  0
  -21.3666   -5.6787   24.9175 C   0  0  0  0  0  0
  -21.6052   -4.3050   24.7239 C   0  0  0  0  0  0
  -21.8811   -3.8133   23.4361 C   0  0  0  0  0  0
  -21.9203   -4.6947   22.3412 C   0  0  0  0  0  0
  -22.7881  -13.5225   21.1907 C   0  0  0  0  0  0
  -22.1658   -4.2127   21.0992 F   0  0  0  0  0  0
  -21.5654   -3.4531   25.7758 F   0  0  0  0  0  0
  -30.0436  -13.2174   20.4549 N   0  0  0  0  0  0
  -26.3054  -12.9272   20.3412 N   0  0  0  0  0  0
  -25.9297  -11.6434   20.5737 N   0  0  0  0  0  0
  -22.0507  -12.8180   22.0435 N   0  0  0  0  0  0
  -25.4360  -15.1856   20.4151 N   0  0  0  0  0  0
  -31.7644  -14.6824   20.0875 O   0  0  0  0  0  0
  -21.6640   -6.8860   21.4230 O   0  0  0  0  0  0
  -22.3560  -14.5536   20.6767 O   0  0  0  0  0  0
  -24.6113  -31.8648   23.2075 C   0  0  0  0  0  0
  -25.9006  -32.4791   23.8381 C   0  0  1  0  0  0
  -27.2546  -27.4555   20.0845 C   0  0  0  0  0  0
  -25.5881  -33.8606   24.2300 N   0  0  0  0  0  0
  -23.4027  -30.4922   21.5403 C   0  0  2  0  0  0
  -24.8519  -28.9524   20.1165 C   0  0  0  0  0  0
  -22.7395  -29.4709   22.4917 C   0  0  0  0  0  0
  -18.0339  -28.1378   22.8436 C   0  0  0  0  0  0
  -24.1509  -36.7316   23.2639 C   0  0  0  0  0  0
  -25.9300  -30.8440   21.3533 C   0  0  0  0  0  0
  -26.0107  -29.4783   20.7015 C   0  0  0  0  0  0
  -27.2123  -28.7375   20.6762 C   0  0  0  0  0  0
  -26.0660  -26.9260   19.5275 C   0  0  0  0  0  0
  -24.8741  -27.6772   19.5297 C   0  0  0  0  0  0
  -23.6111  -29.8143   20.1606 C   0  0  0  0  0  0
  -25.4115  -36.3096   24.0337 C   0  0  1  0  0  0
  -20.5893  -28.3761   23.1389 C   0  0  2  0  0  0
  -20.6781  -26.9461   22.5573 C   0  0  0  0  0  0
  -19.5963  -26.6611   21.5130 C   0  0  0  0  0  0
  -18.2082  -26.7987   22.1436 C   0  0  0  0  0  0
  -19.1539  -28.8871   23.2929 C   0  0  0  0  0  0
  -18.9414  -30.1490   23.8899 C   0  0  0  0  0  0
  -17.6389  -30.6587   24.0487 C   0  0  0  0  0  0
  -25.9041  -34.9461   23.5117 C   0  0  0  0  0  0
  -16.5324  -29.9026   23.6228 C   0  0  0  0  0  0
  -16.7302  -28.6472   23.0233 C   0  0  0  0  0  0
  -26.4455  -31.6576   25.0700 C   0  0  0  0  0  0
  -25.3748  -31.3714   26.1474 C   0  0  0  0  0  0
  -27.0328  -30.3028   24.6097 C   0  0  0  0  0  0
  -27.6009  -32.4296   25.7488 C   0  0  0  0  0  0
  -27.5574  -37.1811   24.8460 C   0  0  0  0  0  0
  -21.4126  -29.3128   22.3742 N   0  0  0  0  0  0
  -26.4285  -37.3767   23.9409 N   0  0  0  0  0  0
  -24.6664  -31.0827   22.0915 N   0  0  0  0  0  0
  -23.4183  -28.8237   23.2959 O   0  0  0  0  0  0
  -28.4719  -26.8047   20.0549 O   0  0  0  0  0  0
  -26.5587  -34.8914   22.4661 O   0  0  0  0  0  0
  -23.5304  -32.1325   23.7495 O   0  0  0  0  0  0
  -28.9072  -19.0331   23.4108 C   0  0  0  0  0  0
  -28.8412  -20.0954   21.4458 C   0  0  0  0  0  0
  -28.9446  -18.8442   22.0017 C   0  0  0  0  0  0
  -28.7510  -20.3619   23.6754 C   0  0  0  0  0  0
  -28.6426  -21.0619   24.9972 C   0  0  0  0  0  0
  -29.0268  -17.5030   21.3042 C   0  0  0  0  0  0
  -28.3931  -23.0717   20.9290 C   0  0  0  0  0  0
  -28.1679  -24.6004   21.0224 C   0  0  0  0  0  0
  -28.5552  -22.4856   22.3456 C   0  0  0  0  0  0
  -30.2888  -16.6765   21.6501 C   0  0  0  0  0  0
  -28.5559  -25.4069   19.7732 C   0  0  0  0  0  0
  -28.7030  -21.0339   22.4621 N   0  0  0  0  0  0
  -30.0327  -15.2555   21.4165 N   0  0  0  0  0  0
  -31.4657  -12.3903   19.0863 H   0  0  0  0  0  0
  -30.3174  -11.2549   19.7334 H   0  0  0  0  0  0
  -29.7124  -11.8313   17.3826 H   0  0  0  0  0  0
  -29.6718  -13.5268   17.7670 H   0  0  0  0  0  0
  -27.7948  -11.3413   18.7528 H   0  0  0  0  0  0
  -27.3591  -12.7191   17.7828 H   0  0  0  0  0  0
  -27.7380  -14.2557   19.6489 H   0  0  0  0  0  0
  -28.6796  -11.8292   21.2499 H   0  0  0  0  0  0
  -28.4603  -13.4072   21.9192 H   0  0  0  0  0  0
  -25.2733   -9.5733   22.4755 H   0  0  0  0  0  0
  -24.0005   -7.4653   22.7449 H   0  0  0  0  0  0
  -21.0831   -8.8733   19.8931 H   0  0  0  0  0  0
  -22.3625  -10.9667   19.6156 H   0  0  0  0  0  0
  -21.1964   -7.6128   23.9707 H   0  0  0  0  0  0
  -21.1516   -6.0516   25.9086 H   0  0  0  0  0  0
  -22.0584   -2.7589   23.2867 H   0  0  0  0  0  0
  -22.4074  -11.9803   22.4796 H   0  0  0  0  0  0
  -21.1132  -13.1215   22.2642 H   0  0  0  0  0  0
  -24.6764  -15.8456   20.5391 H   0  0  0  0  0  0
  -26.2953  -15.6251   20.1123 H   0  0  0  0  0  0
  -26.7038  -32.5546   23.1115 H   0  0  0  0  0  0
  -25.0079  -33.9789   25.0484 H   0  0  0  0  0  0
  -22.6949  -31.3104   21.3877 H   0  0  0  0  0  0
  -23.3735  -35.9684   23.3295 H   0  0  0  0  0  0
  -24.3604  -36.8934   22.2054 H   0  0  0  0  0  0
  -23.7320  -37.6546   23.6655 H   0  0  0  0  0  0
  -26.0467  -31.6176   20.5920 H   0  0  0  0  0  0
  -26.8155  -30.8948   21.9776 H   0  0  0  0  0  0
  -28.1155  -29.1518   21.1049 H   0  0  0  0  0  0
  -26.0412  -25.9429   19.0822 H   0  0  0  0  0  0
  -23.9777  -27.2672   19.0849 H   0  0  0  0  0  0
  -23.7130  -30.5795   19.3882 H   0  0  0  0  0  0
  -22.7377  -29.2240   19.8772 H   0  0  0  0  0  0
  -25.1296  -36.1934   25.0824 H   0  0  0  0  0  0
  -21.0057  -28.3359   24.1473 H   0  0  0  0  0  0
  -20.5425  -26.2366   23.3758 H   0  0  0  0  0  0
  -21.6707  -26.7432   22.1581 H   0  0  0  0  0  0
  -19.7279  -25.6688   21.0785 H   0  0  0  0  0  0
  -19.6975  -27.3686   20.6897 H   0  0  0  0  0  0
  -17.4465  -26.6807   21.3723 H   0  0  0  0  0  0
  -18.0481  -26.0050   22.8748 H   0  0  0  0  0  0
  -19.7855  -30.7353   24.2248 H   0  0  0  0  0  0
  -17.4882  -31.6256   24.5075 H   0  0  0  0  0  0
  -15.5290  -30.2872   23.7462 H   0  0  0  0  0  0
  -15.8740  -28.0804   22.6797 H   0  0  0  0  0  0
  -24.5880  -30.7070   25.7872 H   0  0  0  0  0  0
  -24.8977  -32.2904   26.4911 H   0  0  0  0  0  0
  -25.8118  -30.8906   27.0238 H   0  0  0  0  0  0
  -26.2929  -29.6743   24.1119 H   0  0  0  0  0  0
  -27.4088  -29.7276   25.4575 H   0  0  0  0  0  0
  -27.8733  -30.4339   23.9263 H   0  0  0  0  0  0
  -27.2588  -33.3554   26.2116 H   0  0  0  0  0  0
  -28.3836  -32.6905   25.0351 H   0  0  0  0  0  0
  -28.0654  -31.8393   26.5398 H   0  0  0  0  0  0
  -28.2580  -38.0111   24.7482 H   0  0  0  0  0  0
  -28.1077  -36.2640   24.6295 H   0  0  0  0  0  0
  -27.2300  -37.1480   25.8863 H   0  0  0  0  0  0
  -20.9220  -29.8811   21.6970 H   0  0  0  0  0  0
  -26.0163  -38.2853   24.1330 H   0  0  0  0  0  0
  -28.9720  -18.2661   24.1717 H   0  0  0  0  0  0
  -28.8336  -20.4005   20.4061 H   0  0  0  0  0  0
  -28.8551  -20.3725   25.8145 H   0  0  0  0  0  0
  -27.6410  -21.4626   25.1589 H   0  0  0  0  0  0
  -29.3558  -21.8837   25.0777 H   0  0  0  0  0  0
  -28.9492  -17.6392   20.2241 H   0  0  0  0  0  0
  -28.1335  -16.9517   21.6036 H   0  0  0  0  0  0
  -27.5551  -22.6021   20.4101 H   0  0  0  0  0  0
  -29.2865  -22.8555   20.3424 H   0  0  0  0  0  0
  -28.7604  -24.9918   21.8516 H   0  0  0  0  0  0
  -27.1302  -24.8021   21.2864 H   0  0  0  0  0  0
  -27.7025  -22.7860   22.9580 H   0  0  0  0  0  0
  -29.4388  -22.9331   22.8019 H   0  0  0  0  0  0
  -30.5378  -16.7782   22.7071 H   0  0  0  0  0  0
  -31.1528  -17.0378   21.0888 H   0  0  0  0  0  0
  -27.9989  -25.1165   18.8822 H   0  0  0  0  0  0
  -29.6021  -25.2038   19.5419 H   0  0  0  0  0  0
  -29.1933  -14.8813   21.8349 H   0  0  0  0  0  0
  1 25  1  0  0  0
  1 30  2  0  0  0
  1 83  1  0  0  0
  2  3  1  0  0  0
  2 25  1  0  0  0
  2 84  1  0  0  0
  2 85  1  0  0  0
  3  4  1  0  0  0
  3 86  1  0  0  0
  3 87  1  0  0  0
  4  5  1  0  0  0
  4 88  1  0  0  0
  4 89  1  0  0  0
  5  6  1  0  0  0
  5 26  1  0  0  0
  5 90  1  0  0  0
  6 25  1  0  0  0
  6 91  1  0  0  0
  6 92  1  0  0  0
  7  8  2  0  0  0
  7 26  1  0  0  0
  7 29  1  0  0  0
  8  9  1  0  0  0
  8 22  1  0  0  0
  9 10  1  0  0  0
  9 27  2  0  0  0
 10 11  2  0  0  0
 10 15  1  0  0  0
 11 12  1  0  0  0
 11 93  1  0  0  0
 12 13  2  0  0  0
 12 94  1  0  0  0
 13 14  1  0  0  0
 13 31  1  0  0  0
 14 15  2  0  0  0
 14 95  1  0  0  0
 15 96  1  0  0  0
 16 17  2  0  0  0
 16 21  1  0  0  0
 16 31  1  0  0  0
 17 18  1  0  0  0
 17 97  1  0  0  0
 18 19  2  0  0  0
 18 98  1  0  0  0
 19 20  1  0  0  0
 19 24  1  0  0  0
 20 21  2  0  0  0
 20 99  1  0  0  0
 21 23  1  0  0  0
 22 28  1  0  0  0
 22 32  2  0  0  0
 26 27  1  0  0  0
 28100  1  0  0  0
 28101  1  0  0  0
 29102  1  0  0  0
 29103  1  0  0  0
 33 34  1  0  0  0
 33 66  1  0  0  0
 33 70  2  0  0  0
 34 36  1  0  0  0
 34 59  1  0  0  0
 34104  1  0  0  0
 35 44  2  0  0  0
 35 45  1  0  0  0
 35 68  1  0  0  0
 36 56  1  0  0  0
 36105  1  0  0  0
 37 39  1  0  0  0
 37 47  1  0  0  0
 37 66  1  0  0  0
 37106  1  0  0  0
 38 43  2  0  0  0
 38 46  1  0  0  0
 38 47  1  0  0  0
 39 64  1  0  0  0
 39 67  2  0  0  0
 40 52  1  0  0  0
 40 53  2  0  0  0
 40 58  1  0  0  0
 41107  1  0  0  0
 41108  1  0  0  0
 41109  1  0  0  0
 41 48  1  0  0  0
 42 43  1  0  0  0
 42 66  1  0  0  0
 42110  1  0  0  0
 42111  1  0  0  0
 43 44  1  0  0  0
 44112  1  0  0  0
 45 46  2  0  0  0
 45113  1  0  0  0
 46114  1  0  0  0
 47115  1  0  0  0
 47116  1  0  0  0
 48 56  1  0  0  0
 48 65  1  0  0  0
 48117  1  0  0  0
 49 50  1  0  0  0
 49 53  1  0  0  0
 49 64  1  0  0  0
 49118  1  0  0  0
 50 51  1  0  0  0
 50119  1  0  0  0
 50120  1  0  0  0
 51 52  1  0  0  0
 51121  1  0  0  0
 51122  1  0  0  0
 52123  1  0  0  0
 52124  1  0  0  0
 53 54  1  0  0  0
 54 55  2  0  0  0
 54125  1  0  0  0
 55 57  1  0  0  0
 55126  1  0  0  0
 56 69  2  0  0  0
 57 58  2  0  0  0
 57127  1  0  0  0
 58128  1  0  0  0
 59 60  1  0  0  0
 59 61  1  0  0  0
 59 62  1  0  0  0
 60129  1  0  0  0
 60130  1  0  0  0
 60131  1  0  0  0
 61132  1  0  0  0
 61133  1  0  0  0
 61134  1  0  0  0
 62135  1  0  0  0
 62136  1  0  0  0
 62137  1  0  0  0
 63 65  1  0  0  0
 63138  1  0  0  0
 63139  1  0  0  0
 63140  1  0  0  0
 64141  1  0  0  0
 65142  1  0  0  0
 68 81  1  0  0  0
 71 73  1  0  0  0
 71 74  2  0  0  0
 71143  1  0  0  0
 72 73  2  0  0  0
 72 82  1  0  0  0
 72144  1  0  0  0
 73 76  1  0  0  0
 74 75  1  0  0  0
 74 82  1  0  0  0
 75145  1  0  0  0
 75146  1  0  0  0
 75147  1  0  0  0
 76 80  1  0  0  0
 76148  1  0  0  0
 76149  1  0  0  0
 77 78  1  0  0  0
 77 79  1  0  0  0
 77150  1  0  0  0
 77151  1  0  0  0
 78 81  1  0  0  0
 78152  1  0  0  0
 78153  1  0  0  0
 79 82  1  0  0  0
 79154  1  0  0  0
 79155  1  0  0  0
 80 83  1  0  0  0
 80156  1  0  0  0
 80157  1  0  0  0
 81158  1  0  0  0
 81159  1  0  0  0
 83160  1  0  0  0
M  ISO  4   1 100  68 101  81 101  83 100
M  END
> <chiral flag>
0

> <version>
0

> <s_m_source_file>
/data/baiqing/PycharmProjects/Reinvent-master-3.2/result/LINK_invent/BTK/process_docking_weight1_custom_sum_contain_oxygen_bond_distance_aromatic_linkinvent_7_9_3/rearranged_h_0084.sdf

> <i_m_source_file_index>
4

> <r_mmod_Potential_Energy-OPLS-2005>
-115.149047851562

> <r_mmod_Stretch_Energy-OPLS-2005>
32.6220664978027

> <r_mmod_Bend_Energy-OPLS-2005>
108.704452514648

> <r_mmod_Torsional_Energy-OPLS-2005>
203.120330810547

> <r_mmod_Improper_Torsional_Energy-OPLS-2005>
2.49875426292419

> <r_mmod_Van_der_Waal_Energy-OPLS-2005>
130.73844909668

> <r_mmod_Electrostatic_Energy-OPLS-2005>
-391.666961669922

> <r_mmod_Solvation_Energy-OPLS-2005>
-210.78141784668

> <b_mmod_Minimization_Converged-OPLS-2005>
0

> <r_mmod_RMS_Derivative-OPLS-2005>
4.5924220085144

$$$$
4
                    3D
 Structure written by MMmdl.
159167  0  0  1  0            999 V2000
  -30.6070  -14.7413   20.4322 C   0  0  0  0  0  0
  -30.4299  -12.4348   19.4920 C   0  0  0  0  0  0
  -29.5192  -12.5035   18.2439 C   0  0  0  0  0  0
  -28.0422  -12.3278   18.6482 C   0  0  0  0  0  0
  -27.6486  -13.2261   19.8547 C   0  0  2  0  0  0
  -28.6902  -13.1734   21.0012 C   0  0  0  0  0  0
  -25.2574  -13.8146   20.5712 C   0  0  0  0  0  0
  -24.1861  -13.0415   20.9148 C   0  0  0  0  0  0
  -24.6470  -11.6879   20.8722 C   0  0  0  0  0  0
  -23.9159  -10.4271   21.0399 C   0  0  0  0  0  0
  -24.3733   -9.4190   21.9192 C   0  0  0  0  0  0
  -23.6377   -8.2269   22.0778 C   0  0  0  0  0  0
  -22.4331   -8.0306   21.3566 C   0  0  0  0  0  0
  -22.0012   -9.0266   20.4642 C   0  0  0  0  0  0
  -22.7349  -10.2155   20.3062 C   0  0  0  0  0  0
  -21.6838   -6.0781   22.5296 C   0  0  0  0  0  0
  -21.3969   -6.5648   23.8226 C   0  0  0  0  0  0
  -21.3671   -5.6787   24.9161 C   0  0  0  0  0  0
  -21.6067   -4.3076   24.7178 C   0  0  0  0  0  0
  -21.8820   -3.8186   23.4278 C   0  0  0  0  0  0
  -21.9210   -4.7041   22.3394 C   0  0  0  0  0  0
  -22.7879  -13.5224   21.1781 C   0  0  0  0  0  0
  -22.1664   -4.2231   21.0946 F   0  0  0  0  0  0
  -21.5693   -3.4565   25.7672 F   0  0  0  0  0  0
  -29.9978  -13.5029   20.4239 N   0  0  0  0  0  0
  -26.2996  -12.9392   20.3304 N   0  0  0  0  0  0
  -25.9407  -11.6540   20.5795 N   0  0  0  0  0  0
  -22.0610  -12.8226   22.0355 N   0  0  0  0  0  0
  -25.4147  -15.1892   20.4068 N   0  0  0  0  0  0
  -31.7686  -14.8606   20.0361 O   0  0  0  0  0  0
  -21.6680   -6.8953   21.4252 O   0  0  0  0  0  0
  -22.3564  -14.5578   20.6644 O   0  0  0  0  0  0
  -24.6319  -31.8466   23.1961 C   0  0  0  0  0  0
  -25.9107  -32.4710   23.8330 C   0  0  1  0  0  0
  -27.2529  -27.3042   20.1129 C   0  0  0  0  0  0
  -25.5914  -33.8532   24.2203 N   0  0  0  0  0  0
  -23.4309  -30.4746   21.5251 C   0  0  2  0  0  0
  -24.8901  -28.9155   20.1026 C   0  0  0  0  0  0
  -22.7515  -29.4637   22.4811 C   0  0  0  0  0  0
  -18.0304  -28.1507   22.8475 C   0  0  0  0  0  0
  -24.1514  -36.7321   23.2677 C   0  0  0  0  0  0
  -25.9741  -30.7677   21.3781 C   0  0  0  0  0  0
  -26.0509  -29.3917   20.7242 C   0  0  0  0  0  0
  -27.2365  -28.5960   20.7175 C   0  0  0  0  0  0
  -26.0805  -26.8849   19.4536 C   0  0  0  0  0  0
  -24.9121  -27.6706   19.4485 C   0  0  0  0  0  0
  -23.6564  -29.7904   20.1433 C   0  0  0  0  0  0
  -25.4107  -36.3005   24.0322 C   0  0  1  0  0  0
  -20.5908  -28.3749   23.1260 C   0  0  2  0  0  0
  -20.6802  -26.9460   22.5405 C   0  0  0  0  0  0
  -19.5752  -26.6414   21.5251 C   0  0  0  0  0  0
  -18.1929  -26.8070   22.1614 C   0  0  0  0  0  0
  -19.1570  -28.8922   23.2904 C   0  0  0  0  0  0
  -18.9476  -30.1545   23.8881 C   0  0  0  0  0  0
  -17.6480  -30.6664   24.0597 C   0  0  0  0  0  0
  -25.8988  -34.9366   23.5020 C   0  0  0  0  0  0
  -16.5370  -29.9163   23.6374 C   0  0  0  0  0  0
  -16.7286  -28.6654   23.0289 C   0  0  0  0  0  0
  -26.4450  -31.6621   25.0740 C   0  0  0  0  0  0
  -25.3704  -31.3781   26.1493 C   0  0  0  0  0  0
  -27.0406  -30.3116   24.6205 C   0  0  0  0  0  0
  -27.6005  -32.4418   25.7450 C   0  0  0  0  0  0
  -27.5558  -37.1770   24.8429 C   0  0  0  0  0  0
  -21.4188  -29.3125   22.3648 N   0  0  0  0  0  0
  -26.4255  -37.3698   23.9406 N   0  0  0  0  0  0
  -24.6982  -31.0480   22.0905 N   0  0  0  0  0  0
  -23.4214  -28.8134   23.2919 O   0  0  0  0  0  0
  -28.3857  -26.4737   20.0654 O   0  0  0  0  0  0
  -26.5533  -34.8912   22.4590 O   0  0  0  0  0  0
  -23.5437  -32.1231   23.7269 O   0  0  0  0  0  0
  -29.5294  -23.9664   18.7699 C   0  0  0  0  0  0
  -30.0338  -22.8342   18.0964 C   0  0  0  0  0  0
  -28.7575  -22.4943   20.5389 C   0  0  0  0  0  0
  -28.8772  -23.8420   20.0068 C   0  0  0  0  0  0
  -29.8942  -21.5179   18.6042 C   0  0  0  0  0  0
  -29.2347  -21.2903   19.8636 C   0  0  0  0  0  0
  -30.4531  -20.3911   17.7292 C   0  0  0  0  0  0
  -28.0104  -19.8065   21.6800 C   0  0  0  0  0  0
  -28.3434  -25.1460   20.7446 C   0  0  0  0  0  0
  -30.0230  -18.6557   20.5499 C   0  0  0  0  0  0
  -29.7893  -17.1862   19.8995 C   0  0  0  0  0  0
  -28.8869  -19.8051   20.3840 C   0  0  2  0  0  0
  -29.8112  -15.8514   20.6514 N   0  0  0  0  0  0
  -31.4793  -12.5208   19.2094 H   0  0  0  0  0  0
  -30.3346  -11.4557   19.9628 H   0  0  0  0  0  0
  -29.7998  -11.7302   17.5275 H   0  0  0  0  0  0
  -29.6474  -13.4623   17.7389 H   0  0  0  0  0  0
  -27.8938  -11.2743   18.8932 H   0  0  0  0  0  0
  -27.3847  -12.5228   17.7965 H   0  0  0  0  0  0
  -27.6393  -14.2452   19.4683 H   0  0  0  0  0  0
  -28.7235  -12.1916   21.4761 H   0  0  0  0  0  0
  -28.4232  -13.8809   21.7864 H   0  0  0  0  0  0
  -25.2881   -9.5716   22.4745 H   0  0  0  0  0  0
  -24.0113   -7.4681   22.7480 H   0  0  0  0  0  0
  -21.0999   -8.8703   19.8905 H   0  0  0  0  0  0
  -22.3749  -10.9692   19.6193 H   0  0  0  0  0  0
  -21.1860   -7.6116   23.9748 H   0  0  0  0  0  0
  -21.1521   -6.0480   25.9058 H   0  0  0  0  0  0
  -22.0616   -2.7665   23.2702 H   0  0  0  0  0  0
  -22.4212  -11.9795   22.4620 H   0  0  0  0  0  0
  -21.1215  -13.1219   22.2650 H   0  0  0  0  0  0
  -24.6214  -15.8150   20.4683 H   0  0  0  0  0  0
  -26.2761  -15.6637   20.1718 H   0  0  0  0  0  0
  -26.7141  -32.5300   23.1039 H   0  0  0  0  0  0
  -25.0246  -33.9699   25.0467 H   0  0  0  0  0  0
  -22.7360  -31.3029   21.3523 H   0  0  0  0  0  0
  -23.3741  -35.9690   23.3235 H   0  0  0  0  0  0
  -24.3601  -36.9057   22.2104 H   0  0  0  0  0  0
  -23.7305  -37.6530   23.6762 H   0  0  0  0  0  0
  -26.1109  -31.5148   20.5986 H   0  0  0  0  0  0
  -26.8634  -30.8174   21.9920 H   0  0  0  0  0  0
  -28.1339  -28.9628   21.1875 H   0  0  0  0  0  0
  -26.0805  -25.9448   18.9172 H   0  0  0  0  0  0
  -24.0319  -27.3172   18.9262 H   0  0  0  0  0  0
  -23.7933  -30.5486   19.3731 H   0  0  0  0  0  0
  -22.7852  -29.2109   19.8279 H   0  0  0  0  0  0
  -25.1322  -36.1803   25.0807 H   0  0  0  0  0  0
  -21.0010  -28.3315   24.1386 H   0  0  0  0  0  0
  -20.5685  -26.2382   23.3645 H   0  0  0  0  0  0
  -21.6651  -26.7504   22.1143 H   0  0  0  0  0  0
  -19.6875  -25.6282   21.1351 H   0  0  0  0  0  0
  -19.6736  -27.3173   20.6749 H   0  0  0  0  0  0
  -17.4196  -26.6861   21.3999 H   0  0  0  0  0  0
  -18.0250  -26.0254   22.9010 H   0  0  0  0  0  0
  -19.7938  -30.7424   24.2219 H   0  0  0  0  0  0
  -17.4991  -31.6344   24.5232 H   0  0  0  0  0  0
  -15.5348  -30.3036   23.7781 H   0  0  0  0  0  0
  -15.8685  -28.1008   22.6919 H   0  0  0  0  0  0
  -24.5878  -30.7113   25.7831 H   0  0  0  0  0  0
  -24.8923  -32.2983   26.4867 H   0  0  0  0  0  0
  -25.8041  -30.8990   27.0281 H   0  0  0  0  0  0
  -26.2996  -29.6753   24.1329 H   0  0  0  0  0  0
  -27.4364  -29.7463   25.4656 H   0  0  0  0  0  0
  -27.8712  -30.4619   23.9313 H   0  0  0  0  0  0
  -27.2642  -33.3817   26.1845 H   0  0  0  0  0  0
  -28.3835  -32.6795   25.0235 H   0  0  0  0  0  0
  -28.0612  -31.8660   26.5474 H   0  0  0  0  0  0
  -28.2463  -38.0168   24.7460 H   0  0  0  0  0  0
  -28.1178  -36.2652   24.6229 H   0  0  0  0  0  0
  -27.2278  -37.1342   25.8846 H   0  0  0  0  0  0
  -20.9348  -29.8993   21.6959 H   0  0  0  0  0  0
  -26.0128  -38.2792   24.1408 H   0  0  0  0  0  0
  -29.6619  -24.9430   18.3233 H   0  0  0  0  0  0
  -30.5343  -22.9955   17.1465 H   0  0  0  0  0  0
  -28.2635  -22.3844   21.4940 H   0  0  0  0  0  0
  -30.6184  -20.6900   16.6854 H   0  0  0  0  0  0
  -29.7729  -19.5402   17.7008 H   0  0  0  0  0  0
  -31.4294  -20.0596   18.0915 H   0  0  0  0  0  0
  -27.1004  -20.3997   21.5621 H   0  0  0  0  0  0
  -28.5485  -20.1868   22.5561 H   0  0  0  0  0  0
  -27.6741  -18.8052   21.9514 H   0  0  0  0  0  0
  -28.9691  -25.2696   21.6336 H   0  0  0  0  0  0
  -27.3350  -24.9558   21.1194 H   0  0  0  0  0  0
  -30.9234  -19.0457   20.0698 H   0  0  0  0  0  0
  -30.3309  -18.5823   21.5939 H   0  0  0  0  0  0
  -30.4677  -17.0944   19.0492 H   0  0  0  0  0  0
  -28.8029  -17.2214   19.4372 H   0  0  0  0  0  0
  -28.2242  -19.4496   19.5895 H   0  0  0  0  0  0
  -28.9089  -15.5940   21.0191 H   0  0  0  0  0  0
  1 25  1  0  0  0
  1 30  2  0  0  0
  1 83  1  0  0  0
  2  3  1  0  0  0
  2 25  1  0  0  0
  2 84  1  0  0  0
  2 85  1  0  0  0
  3  4  1  0  0  0
  3 86  1  0  0  0
  3 87  1  0  0  0
  4  5  1  0  0  0
  4 88  1  0  0  0
  4 89  1  0  0  0
  5  6  1  0  0  0
  5 26  1  0  0  0
  5 90  1  0  0  0
  6 25  1  0  0  0
  6 91  1  0  0  0
  6 92  1  0  0  0
  7  8  2  0  0  0
  7 26  1  0  0  0
  7 29  1  0  0  0
  8  9  1  0  0  0
  8 22  1  0  0  0
  9 10  1  0  0  0
  9 27  2  0  0  0
 10 11  2  0  0  0
 10 15  1  0  0  0
 11 12  1  0  0  0
 11 93  1  0  0  0
 12 13  2  0  0  0
 12 94  1  0  0  0
 13 14  1  0  0  0
 13 31  1  0  0  0
 14 15  2  0  0  0
 14 95  1  0  0  0
 15 96  1  0  0  0
 16 17  2  0  0  0
 16 21  1  0  0  0
 16 31  1  0  0  0
 17 18  1  0  0  0
 17 97  1  0  0  0
 18 19  2  0  0  0
 18 98  1  0  0  0
 19 20  1  0  0  0
 19 24  1  0  0  0
 20 21  2  0  0  0
 20 99  1  0  0  0
 21 23  1  0  0  0
 22 28  1  0  0  0
 22 32  2  0  0  0
 26 27  1  0  0  0
 28100  1  0  0  0
 28101  1  0  0  0
 29102  1  0  0  0
 29103  1  0  0  0
 33 34  1  0  0  0
 33 66  1  0  0  0
 33 70  2  0  0  0
 34 36  1  0  0  0
 34 59  1  0  0  0
 34104  1  0  0  0
 35 44  2  0  0  0
 35 45  1  0  0  0
 35 68  1  0  0  0
 36 56  1  0  0  0
 36105  1  0  0  0
 37 39  1  0  0  0
 37 47  1  0  0  0
 37 66  1  0  0  0
 37106  1  0  0  0
 38 43  2  0  0  0
 38 46  1  0  0  0
 38 47  1  0  0  0
 39 64  1  0  0  0
 39 67  2  0  0  0
 40 52  1  0  0  0
 40 53  2  0  0  0
 40 58  1  0  0  0
 41107  1  0  0  0
 41108  1  0  0  0
 41109  1  0  0  0
 41 48  1  0  0  0
 42 43  1  0  0  0
 42 66  1  0  0  0
 42110  1  0  0  0
 42111  1  0  0  0
 43 44  1  0  0  0
 44112  1  0  0  0
 45 46  2  0  0  0
 45113  1  0  0  0
 46114  1  0  0  0
 47115  1  0  0  0
 47116  1  0  0  0
 48 56  1  0  0  0
 48 65  1  0  0  0
 48117  1  0  0  0
 49 50  1  0  0  0
 49 53  1  0  0  0
 49 64  1  0  0  0
 49118  1  0  0  0
 50 51  1  0  0  0
 50119  1  0  0  0
 50120  1  0  0  0
 51 52  1  0  0  0
 51121  1  0  0  0
 51122  1  0  0  0
 52123  1  0  0  0
 52124  1  0  0  0
 53 54  1  0  0  0
 54 55  2  0  0  0
 54125  1  0  0  0
 55 57  1  0  0  0
 55126  1  0  0  0
 56 69  2  0  0  0
 57 58  2  0  0  0
 57127  1  0  0  0
 58128  1  0  0  0
 59 60  1  0  0  0
 59 61  1  0  0  0
 59 62  1  0  0  0
 60129  1  0  0  0
 60130  1  0  0  0
 60131  1  0  0  0
 61132  1  0  0  0
 61133  1  0  0  0
 61134  1  0  0  0
 62135  1  0  0  0
 62136  1  0  0  0
 62137  1  0  0  0
 63 65  1  0  0  0
 63138  1  0  0  0
 63139  1  0  0  0
 63140  1  0  0  0
 64141  1  0  0  0
 65142  1  0  0  0
 68 79  1  0  0  0
 71 72  2  0  0  0
 71 74  1  0  0  0
 71143  1  0  0  0
 72 75  1  0  0  0
 72144  1  0  0  0
 73 74  2  0  0  0
 73 76  1  0  0  0
 73145  1  0  0  0
 74 79  1  0  0  0
 75 76  2  0  0  0
 75 77  1  0  0  0
 76 82  1  0  0  0
 77146  1  0  0  0
 77147  1  0  0  0
 77148  1  0  0  0
 78149  1  0  0  0
 78150  1  0  0  0
 78151  1  0  0  0
 78 82  1  0  0  0
 79152  1  0  0  0
 79153  1  0  0  0
 80 81  1  0  0  0
 80 82  1  0  0  0
 80154  1  0  0  0
 80155  1  0  0  0
 81 83  1  0  0  0
 81156  1  0  0  0
 81157  1  0  0  0
 82158  1  0  0  0
 83159  1  0  0  0
M  ISO  4   1 100  68 101  79 101  83 100
M  END
> <chiral flag>
0

> <version>
0

> <s_m_source_file>
/data/baiqing/PycharmProjects/Reinvent-master-3.2/result/LINK_invent/BTK/process_docking_weight1_custom_sum_contain_oxygen_bond_distance_aromatic_linkinvent_7_9_3/rearranged_h_0084.sdf

> <i_m_source_file_index>
5

> <r_mmod_Potential_Energy-OPLS-2005>
208.830535888672

> <r_mmod_Stretch_Energy-OPLS-2005>
125.420776367188

> <r_mmod_Bend_Energy-OPLS-2005>
172.509826660156

> <r_mmod_Torsional_Energy-OPLS-2005>
274.146820068359

> <r_mmod_Improper_Torsional_Energy-OPLS-2005>
8.79734516143799

> <r_mmod_Van_der_Waal_Energy-OPLS-2005>
131.865844726562

> <r_mmod_Electrostatic_Energy-OPLS-2005>
-370.614776611328

> <r_mmod_Solvation_Energy-OPLS-2005>
-206.202484130859

> <b_mmod_Minimization_Converged-OPLS-2005>
0

> <r_mmod_RMS_Derivative-OPLS-2005>
11.4190082550049

$$$$
5
                    3D
 Structure written by MMmdl.
164172  0  0  1  0            999 V2000
  -30.5192  -14.9953   20.3932 C   0  0  0  0  0  0
  -30.4457  -12.6236   19.4797 C   0  0  0  0  0  0
  -29.5178  -12.5078   18.2479 C   0  0  0  0  0  0
  -28.0561  -12.2903   18.6815 C   0  0  0  0  0  0
  -27.6256  -13.2449   19.8243 C   0  0  2  0  0  0
  -28.6719  -13.3021   20.9560 C   0  0  0  0  0  0
  -25.2480  -13.8208   20.5715 C   0  0  0  0  0  0
  -24.1785  -13.0442   20.9250 C   0  0  0  0  0  0
  -24.6403  -11.6922   20.8780 C   0  0  0  0  0  0
  -23.9087  -10.4295   21.0426 C   0  0  0  0  0  0
  -24.3637   -9.4201   21.9199 C   0  0  0  0  0  0
  -23.6308   -8.2238   22.0749 C   0  0  0  0  0  0
  -22.4290   -8.0281   21.3540 C   0  0  0  0  0  0
  -21.9936   -9.0261   20.4640 C   0  0  0  0  0  0
  -22.7273  -10.2134   20.3062 C   0  0  0  0  0  0
  -21.6852   -6.0745   22.5278 C   0  0  0  0  0  0
  -21.4005   -6.5644   23.8212 C   0  0  0  0  0  0
  -21.3648   -5.6798   24.9173 C   0  0  0  0  0  0
  -21.6046   -4.3061   24.7224 C   0  0  0  0  0  0
  -21.8826   -3.8156   23.4345 C   0  0  0  0  0  0
  -21.9194   -4.6972   22.3405 C   0  0  0  0  0  0
  -22.7811  -13.5212   21.1893 C   0  0  0  0  0  0
  -22.1667   -4.2164   21.0983 F   0  0  0  0  0  0
  -21.5622   -3.4543   25.7731 F   0  0  0  0  0  0
  -29.9339  -13.7288   20.3391 N   0  0  0  0  0  0
  -26.2880  -12.9431   20.3207 N   0  0  0  0  0  0
  -25.9326  -11.6566   20.5737 N   0  0  0  0  0  0
  -22.0457  -12.8182   22.0431 N   0  0  0  0  0  0
  -25.4194  -15.1933   20.4120 N   0  0  0  0  0  0
  -31.7365  -15.0532   20.1918 O   0  0  0  0  0  0
  -21.6638   -6.8890   21.4241 O   0  0  0  0  0  0
  -22.3493  -14.5525   20.6742 O   0  0  0  0  0  0
  -24.6455  -31.8423   23.1812 C   0  0  0  0  0  0
  -25.9229  -32.4669   23.8204 C   0  0  1  0  0  0
  -27.2099  -27.1013   20.1309 C   0  0  0  0  0  0
  -25.5985  -33.8474   24.2138 N   0  0  0  0  0  0
  -23.4463  -30.4616   21.5297 C   0  0  2  0  0  0
  -24.8871  -28.8782   20.1061 C   0  0  0  0  0  0
  -22.7562  -29.4568   22.4853 C   0  0  0  0  0  0
  -18.0306  -28.1416   22.8496 C   0  0  0  0  0  0
  -24.1474  -36.7196   23.2643 C   0  0  0  0  0  0
  -26.0039  -30.7051   21.3765 C   0  0  0  0  0  0
  -26.0696  -29.3126   20.7167 C   0  0  0  0  0  0
  -27.2267  -28.4411   20.7112 C   0  0  0  0  0  0
  -25.9837  -26.7636   19.5192 C   0  0  0  0  0  0
  -24.8569  -27.6151   19.4971 C   0  0  0  0  0  0
  -23.6673  -29.7865   20.1496 C   0  0  0  0  0  0
  -25.4116  -36.3003   24.0317 C   0  0  1  0  0  0
  -20.5925  -28.3730   23.1238 C   0  0  2  0  0  0
  -20.6801  -26.9446   22.5400 C   0  0  0  0  0  0
  -19.5770  -26.6399   21.5213 C   0  0  0  0  0  0
  -18.1944  -26.7969   22.1620 C   0  0  0  0  0  0
  -19.1574  -28.8895   23.2854 C   0  0  0  0  0  0
  -18.9501  -30.1503   23.8865 C   0  0  0  0  0  0
  -17.6500  -30.6615   24.0574 C   0  0  0  0  0  0
  -25.9090  -34.9392   23.5036 C   0  0  0  0  0  0
  -16.5382  -29.9112   23.6370 C   0  0  0  0  0  0
  -16.7296  -28.6533   23.0385 C   0  0  0  0  0  0
  -26.4536  -31.6567   25.0671 C   0  0  0  0  0  0
  -25.3696  -31.3781   26.1349 C   0  0  0  0  0  0
  -27.0401  -30.2971   24.6253 C   0  0  0  0  0  0
  -27.6070  -32.4312   25.7487 C   0  0  0  0  0  0
  -27.5549  -37.1757   24.8480 C   0  0  0  0  0  0
  -21.4265  -29.3048   22.3603 N   0  0  0  0  0  0
  -26.4255  -37.3742   23.9439 N   0  0  0  0  0  0
  -24.7188  -31.0250   22.0837 N   0  0  0  0  0  0
  -23.4209  -28.8140   23.3024 O   0  0  0  0  0  0
  -28.2863  -26.1311   20.2214 O   0  0  0  0  0  0
  -26.5660  -34.8922   22.4603 O   0  0  0  0  0  0
  -23.5578  -32.1322   23.7036 O   0  0  0  0  0  0
  -28.3601  -23.1488   21.7447 C   0  0  0  0  0  0
  -28.8831  -21.8834   19.7769 C   0  0  0  0  0  0
  -28.5711  -23.2235   20.3568 C   0  0  0  0  0  0
  -28.4545  -21.9165   22.4396 C   0  0  0  0  0  0
  -28.9923  -20.6082   20.5415 C   0  0  0  0  0  0
  -27.8327  -24.5462   18.1821 C   0  0  0  0  0  0
  -29.2605  -21.3280   24.7939 C   0  0  0  0  0  0
  -26.7995  -21.1130   24.1727 C   0  0  0  0  0  0
  -29.1695  -18.9880   18.4835 C   0  0  0  0  0  0
  -30.0109  -17.7471   20.6243 C   0  0  0  0  0  0
  -28.4479  -24.6937   19.5855 C   0  0  2  0  0  0
  -28.1133  -21.8700   23.9267 C   0  0  0  0  0  0
  -29.0545  -19.0197   20.0137 C   0  0  1  0  0  0
  -28.7541  -20.7161   21.8670 N   0  0  0  0  0  0
  -29.7223  -16.1815   20.4646 N   0  0  0  0  0  0
  -31.4691  -12.8080   19.1493 H   0  0  0  0  0  0
  -30.4733  -11.6864   20.0363 H   0  0  0  0  0  0
  -29.8419  -11.6822   17.6126 H   0  0  0  0  0  0
  -29.5931  -13.4100   17.6391 H   0  0  0  0  0  0
  -27.9718  -11.2570   19.0197 H   0  0  0  0  0  0
  -27.3855  -12.3847   17.8266 H   0  0  0  0  0  0
  -27.5782  -14.2367   19.3731 H   0  0  0  0  0  0
  -28.7793  -12.3330   21.4458 H   0  0  0  0  0  0
  -28.3653  -14.0111   21.7268 H   0  0  0  0  0  0
  -25.2782   -9.5660   22.4775 H   0  0  0  0  0  0
  -24.0013   -7.4616   22.7457 H   0  0  0  0  0  0
  -21.0873   -8.8799   19.8932 H   0  0  0  0  0  0
  -22.3760  -10.9682   19.6163 H   0  0  0  0  0  0
  -21.1994   -7.6149   23.9721 H   0  0  0  0  0  0
  -21.1456   -6.0521   25.9077 H   0  0  0  0  0  0
  -22.0615   -2.7617   23.2843 H   0  0  0  0  0  0
  -22.4091  -11.9852   22.4821 H   0  0  0  0  0  0
  -21.1061  -13.1165   22.2614 H   0  0  0  0  0  0
  -24.6572  -15.8528   20.5268 H   0  0  0  0  0  0
  -26.2630  -15.6245   20.0592 H   0  0  0  0  0  0
  -26.7290  -32.5257   23.0915 H   0  0  0  0  0  0
  -25.0185  -33.9565   25.0324 H   0  0  0  0  0  0
  -22.7502  -31.2890   21.3762 H   0  0  0  0  0  0
  -23.3765  -35.9498   23.3302 H   0  0  0  0  0  0
  -24.3541  -36.8825   22.2057 H   0  0  0  0  0  0
  -23.7208  -37.6380   23.6672 H   0  0  0  0  0  0
  -26.1592  -31.4598   20.6042 H   0  0  0  0  0  0
  -26.8749  -30.7540   22.0175 H   0  0  0  0  0  0
  -28.1278  -28.7760   21.2041 H   0  0  0  0  0  0
  -25.8353  -25.7838   19.1025 H   0  0  0  0  0  0
  -23.9422  -27.2609   19.0412 H   0  0  0  0  0  0
  -23.8013  -30.5603   19.3921 H   0  0  0  0  0  0
  -22.7772  -29.2346   19.8415 H   0  0  0  0  0  0
  -25.1310  -36.1793   25.0808 H   0  0  0  0  0  0
  -21.0017  -28.3322   24.1355 H   0  0  0  0  0  0
  -20.5725  -26.2346   23.3612 H   0  0  0  0  0  0
  -21.6669  -26.7469   22.1188 H   0  0  0  0  0  0
  -19.6925  -25.6306   21.1252 H   0  0  0  0  0  0
  -19.6713  -27.3212   20.6756 H   0  0  0  0  0  0
  -17.4227  -26.6740   21.4005 H   0  0  0  0  0  0
  -18.0329  -26.0112   22.9019 H   0  0  0  0  0  0
  -19.7978  -30.7346   24.2181 H   0  0  0  0  0  0
  -17.5058  -31.6294   24.5190 H   0  0  0  0  0  0
  -15.5389  -30.3014   23.7716 H   0  0  0  0  0  0
  -15.8693  -28.0839   22.7123 H   0  0  0  0  0  0
  -24.5901  -30.7095   25.7686 H   0  0  0  0  0  0
  -24.8841  -32.2967   26.4645 H   0  0  0  0  0  0
  -25.7961  -30.9057   27.0209 H   0  0  0  0  0  0
  -26.3022  -29.6705   24.1231 H   0  0  0  0  0  0
  -27.4011  -29.7256   25.4819 H   0  0  0  0  0  0
  -27.8929  -30.4233   23.9581 H   0  0  0  0  0  0
  -27.2685  -33.3651   26.1974 H   0  0  0  0  0  0
  -28.3961  -32.6787   25.0376 H   0  0  0  0  0  0
  -28.0637  -31.8469   26.5485 H   0  0  0  0  0  0
  -28.2587  -38.0042   24.7539 H   0  0  0  0  0  0
  -28.1026  -36.2575   24.6294 H   0  0  0  0  0  0
  -27.2251  -37.1382   25.8880 H   0  0  0  0  0  0
  -20.9458  -29.8710   21.6748 H   0  0  0  0  0  0
  -26.0094  -38.2790   24.1495 H   0  0  0  0  0  0
  -28.0963  -24.0524   22.2789 H   0  0  0  0  0  0
  -29.0137  -21.8276   18.7052 H   0  0  0  0  0  0
  -28.4261  -23.8601   17.5776 H   0  0  0  0  0  0
  -27.8112  -25.4973   17.6484 H   0  0  0  0  0  0
  -26.8260  -24.1319   18.2155 H   0  0  0  0  0  0
  -30.1609  -21.9281   24.6714 H   0  0  0  0  0  0
  -29.5086  -20.2985   24.5390 H   0  0  0  0  0  0
  -28.9880  -21.3478   25.8499 H   0  0  0  0  0  0
  -25.9841  -21.5635   23.6064 H   0  0  0  0  0  0
  -26.5272  -21.1281   25.2282 H   0  0  0  0  0  0
  -26.8761  -20.0706   23.8619 H   0  0  0  0  0  0
  -28.3684  -19.5604   18.0162 H   0  0  0  0  0  0
  -29.1034  -17.9661   18.1086 H   0  0  0  0  0  0
  -30.1202  -19.4066   18.1522 H   0  0  0  0  0  0
  -30.0476  -17.8997   21.7027 H   0  0  0  0  0  0
  -31.0354  -17.9209   20.2928 H   0  0  0  0  0  0
  -29.5042  -24.8029   19.3374 H   0  0  0  0  0  0
  -27.9468  -22.8973   24.2545 H   0  0  0  0  0  0
  -28.0377  -18.6863   20.2249 H   0  0  0  0  0  0
  -28.7372  -15.9662   20.5057 H   0  0  0  0  0  0
  1 25  1  0  0  0
  1 30  2  0  0  0
  1 85  1  0  0  0
  2  3  1  0  0  0
  2 25  1  0  0  0
  2 86  1  0  0  0
  2 87  1  0  0  0
  3  4  1  0  0  0
  3 88  1  0  0  0
  3 89  1  0  0  0
  4  5  1  0  0  0
  4 90  1  0  0  0
  4 91  1  0  0  0
  5  6  1  0  0  0
  5 26  1  0  0  0
  5 92  1  0  0  0
  6 25  1  0  0  0
  6 93  1  0  0  0
  6 94  1  0  0  0
  7  8  2  0  0  0
  7 26  1  0  0  0
  7 29  1  0  0  0
  8  9  1  0  0  0
  8 22  1  0  0  0
  9 10  1  0  0  0
  9 27  2  0  0  0
 10 11  2  0  0  0
 10 15  1  0  0  0
 11 12  1  0  0  0
 11 95  1  0  0  0
 12 13  2  0  0  0
 12 96  1  0  0  0
 13 14  1  0  0  0
 13 31  1  0  0  0
 14 15  2  0  0  0
 14 97  1  0  0  0
 15 98  1  0  0  0
 16 17  2  0  0  0
 16 21  1  0  0  0
 16 31  1  0  0  0
 17 18  1  0  0  0
 17 99  1  0  0  0
 18 19  2  0  0  0
 18100  1  0  0  0
 19 20  1  0  0  0
 19 24  1  0  0  0
 20 21  2  0  0  0
 20101  1  0  0  0
 21 23  1  0  0  0
 22 28  1  0  0  0
 22 32  2  0  0  0
 26 27  1  0  0  0
 28102  1  0  0  0
 28103  1  0  0  0
 29104  1  0  0  0
 29105  1  0  0  0
 33 34  1  0  0  0
 33 66  1  0  0  0
 33 70  2  0  0  0
 34 36  1  0  0  0
 34 59  1  0  0  0
 34106  1  0  0  0
 35 44  2  0  0  0
 35 45  1  0  0  0
 35 68  1  0  0  0
 36 56  1  0  0  0
 36107  1  0  0  0
 37 39  1  0  0  0
 37 47  1  0  0  0
 37 66  1  0  0  0
 37108  1  0  0  0
 38 43  2  0  0  0
 38 46  1  0  0  0
 38 47  1  0  0  0
 39 64  1  0  0  0
 39 67  2  0  0  0
 40 52  1  0  0  0
 40 53  2  0  0  0
 40 58  1  0  0  0
 41109  1  0  0  0
 41110  1  0  0  0
 41111  1  0  0  0
 41 48  1  0  0  0
 42 43  1  0  0  0
 42 66  1  0  0  0
 42112  1  0  0  0
 42113  1  0  0  0
 43 44  1  0  0  0
 44114  1  0  0  0
 45 46  2  0  0  0
 45115  1  0  0  0
 46116  1  0  0  0
 47117  1  0  0  0
 47118  1  0  0  0
 48 56  1  0  0  0
 48 65  1  0  0  0
 48119  1  0  0  0
 49 50  1  0  0  0
 49 53  1  0  0  0
 49 64  1  0  0  0
 49120  1  0  0  0
 50 51  1  0  0  0
 50121  1  0  0  0
 50122  1  0  0  0
 51 52  1  0  0  0
 51123  1  0  0  0
 51124  1  0  0  0
 52125  1  0  0  0
 52126  1  0  0  0
 53 54  1  0  0  0
 54 55  2  0  0  0
 54127  1  0  0  0
 55 57  1  0  0  0
 55128  1  0  0  0
 56 69  2  0  0  0
 57 58  2  0  0  0
 57129  1  0  0  0
 58130  1  0  0  0
 59 60  1  0  0  0
 59 61  1  0  0  0
 59 62  1  0  0  0
 60131  1  0  0  0
 60132  1  0  0  0
 60133  1  0  0  0
 61134  1  0  0  0
 61135  1  0  0  0
 61136  1  0  0  0
 62137  1  0  0  0
 62138  1  0  0  0
 62139  1  0  0  0
 63 65  1  0  0  0
 63140  1  0  0  0
 63141  1  0  0  0
 63142  1  0  0  0
 64143  1  0  0  0
 65144  1  0  0  0
 68 81  1  0  0  0
 71 73  2  0  0  0
 71 74  1  0  0  0
 71145  1  0  0  0
 72 73  1  0  0  0
 72 75  2  0  0  0
 72146  1  0  0  0
 73 81  1  0  0  0
 74 82  1  0  0  0
 74 84  2  0  0  0
 75 83  1  0  0  0
 75 84  1  0  0  0
 76147  1  0  0  0
 76148  1  0  0  0
 76149  1  0  0  0
 76 81  1  0  0  0
 77150  1  0  0  0
 77151  1  0  0  0
 77152  1  0  0  0
 77 82  1  0  0  0
 78 82  1  0  0  0
 78153  1  0  0  0
 78154  1  0  0  0
 78155  1  0  0  0
 79156  1  0  0  0
 79157  1  0  0  0
 79158  1  0  0  0
 79 83  1  0  0  0
 80 83  1  0  0  0
 80 85  1  0  0  0
 80159  1  0  0  0
 80160  1  0  0  0
 81161  1  0  0  0
 82162  1  0  0  0
 83163  1  0  0  0
 85164  1  0  0  0
M  ISO  4   1 100  68 101  81 101  85 100
M  END
> <chiral flag>
0

> <version>
0

> <s_m_source_file>
/data/baiqing/PycharmProjects/Reinvent-master-3.2/result/LINK_invent/BTK/process_docking_weight1_custom_sum_contain_oxygen_bond_distance_aromatic_linkinvent_7_9_3/rearranged_h_0084.sdf

> <i_m_source_file_index>
6

> <r_mmod_Potential_Energy-OPLS-2005>
386.218505859375

> <r_mmod_Stretch_Energy-OPLS-2005>
295.942779541016

> <r_mmod_Bend_Energy-OPLS-2005>
310.148284912109

> <r_mmod_Torsional_Energy-OPLS-2005>
209.537857055664

> <r_mmod_Improper_Torsional_Energy-OPLS-2005>
6.09380435943604

> <r_mmod_Van_der_Waal_Energy-OPLS-2005>
127.706924438477

> <r_mmod_Electrostatic_Energy-OPLS-2005>
-574.658203125

> <r_mmod_Solvation_Energy-OPLS-2005>
-213.3076171875

> <b_mmod_Minimization_Converged-OPLS-2005>
0

> <r_mmod_RMS_Derivative-OPLS-2005>
2.63468313217163

$$$$
6
                    3D
 Structure written by MMmdl.
159167  0  0  1  0            999 V2000
  -30.6778  -14.5490   20.6008 C   0  0  0  0  0  0
  -30.4346  -12.3612   19.4397 C   0  0  0  0  0  0
  -29.5031  -12.5151   18.2172 C   0  0  0  0  0  0
  -28.0237  -12.3617   18.6225 C   0  0  0  0  0  0
  -27.6587  -13.2109   19.8668 C   0  0  2  0  0  0
  -28.6949  -13.0051   20.9903 C   0  0  0  0  0  0
  -25.2582  -13.8163   20.5681 C   0  0  0  0  0  0
  -24.1833  -13.0435   20.9174 C   0  0  0  0  0  0
  -24.6389  -11.6903   20.8720 C   0  0  0  0  0  0
  -23.9054  -10.4292   21.0383 C   0  0  0  0  0  0
  -24.3606   -9.4220   21.9171 C   0  0  0  0  0  0
  -23.6290   -8.2252   22.0747 C   0  0  0  0  0  0
  -22.4274   -8.0278   21.3537 C   0  0  0  0  0  0
  -21.9901   -9.0245   20.4638 C   0  0  0  0  0  0
  -22.7219  -10.2130   20.3042 C   0  0  0  0  0  0
  -21.6855   -6.0738   22.5281 C   0  0  0  0  0  0
  -21.4012   -6.5639   23.8214 C   0  0  0  0  0  0
  -21.3659   -5.6791   24.9176 C   0  0  0  0  0  0
  -21.6042   -4.3055   24.7222 C   0  0  0  0  0  0
  -21.8822   -3.8149   23.4345 C   0  0  0  0  0  0
  -21.9191   -4.6968   22.3404 C   0  0  0  0  0  0
  -22.7854  -13.5231   21.1849 C   0  0  0  0  0  0
  -22.1664   -4.2159   21.0981 F   0  0  0  0  0  0
  -21.5626   -3.4538   25.7732 F   0  0  0  0  0  0
  -30.0256  -13.3501   20.4571 N   0  0  0  0  0  0
  -26.3009  -12.9340   20.3309 N   0  0  0  0  0  0
  -25.9313  -11.6498   20.5725 N   0  0  0  0  0  0
  -22.0499  -12.8221   22.0410 N   0  0  0  0  0  0
  -25.4315  -15.1881   20.4127 N   0  0  0  0  0  0
  -31.7534  -14.7707   20.0352 O   0  0  0  0  0  0
  -21.6637   -6.8877   21.4244 O   0  0  0  0  0  0
  -22.3538  -14.5537   20.6696 O   0  0  0  0  0  0
  -24.6219  -31.8646   23.2054 C   0  0  0  0  0  0
  -25.9090  -32.4795   23.8371 C   0  0  1  0  0  0
  -27.2276  -27.3724   20.0984 C   0  0  0  0  0  0
  -25.5931  -33.8596   24.2306 N   0  0  0  0  0  0
  -23.4105  -30.4907   21.5482 C   0  0  2  0  0  0
  -24.8559  -28.9528   20.1117 C   0  0  0  0  0  0
  -22.7451  -29.4655   22.4951 C   0  0  0  0  0  0
  -18.0283  -28.1373   22.8474 C   0  0  0  0  0  0
  -24.1494  -36.7298   23.2634 C   0  0  0  0  0  0
  -25.9487  -30.8113   21.3679 C   0  0  0  0  0  0
  -26.0237  -29.4431   20.7093 C   0  0  0  0  0  0
  -27.2116  -28.6646   20.6948 C   0  0  0  0  0  0
  -26.0348  -26.9178   19.4873 C   0  0  0  0  0  0
  -24.8606  -27.6918   19.4953 C   0  0  0  0  0  0
  -23.6206  -29.8261   20.1634 C   0  0  0  0  0  0
  -25.4118  -36.3097   24.0335 C   0  0  1  0  0  0
  -20.5883  -28.3672   23.1295 C   0  0  2  0  0  0
  -20.6787  -26.9399   22.5410 C   0  0  0  0  0  0
  -19.5772  -26.6377   21.5205 C   0  0  0  0  0  0
  -18.1940  -26.7919   22.1602 C   0  0  0  0  0  0
  -19.1533  -28.8835   23.2874 C   0  0  0  0  0  0
  -18.9461  -30.1440   23.8887 C   0  0  0  0  0  0
  -17.6463  -30.6574   24.0561 C   0  0  0  0  0  0
  -25.9058  -34.9466   23.5117 C   0  0  0  0  0  0
  -16.5353  -29.9073   23.6328 C   0  0  0  0  0  0
  -16.7273  -28.6496   23.0338 C   0  0  0  0  0  0
  -26.4497  -31.6580   25.0714 C   0  0  0  0  0  0
  -25.3723  -31.3698   26.1435 C   0  0  0  0  0  0
  -27.0343  -30.3026   24.6114 C   0  0  0  0  0  0
  -27.6093  -32.4299   25.7451 C   0  0  0  0  0  0
  -27.5596  -37.1789   24.8465 C   0  0  0  0  0  0
  -21.4173  -29.3035   22.3690 N   0  0  0  0  0  0
  -26.4304  -37.3783   23.9414 N   0  0  0  0  0  0
  -24.6793  -31.0705   22.0975 N   0  0  0  0  0  0
  -23.4201  -28.8183   23.3003 O   0  0  0  0  0  0
  -28.3720  -26.5754   20.1274 O   0  0  0  0  0  0
  -26.5615  -34.8919   22.4681 O   0  0  0  0  0  0
  -23.5403  -32.1419   23.7430 O   0  0  0  0  0  0
  -29.0326  -21.8973   18.3536 C   0  0  0  0  0  0
  -29.1208  -20.6032   17.7776 C   0  0  0  0  0  0
  -29.2710  -21.7092   19.6875 C   0  0  0  0  0  0
  -29.8624  -15.5050   22.7068 C   0  0  0  0  0  0
  -29.2541  -22.7603   20.7901 C   0  0  0  0  0  0
  -29.4511  -24.2787   20.3996 C   0  0  0  0  0  0
  -30.4866  -18.1119   20.9099 C   0  0  0  0  0  0
  -29.7897  -19.5262   21.0686 C   0  0  0  0  0  0
  -29.5769  -16.8580   20.6464 C   0  0  0  0  0  0
  -28.1903  -25.1277   20.0357 C   0  0  0  0  0  0
  -29.3997  -19.6717   18.6744 N   0  0  0  0  0  0
  -29.5122  -20.3253   19.8547 N   0  0  0  0  0  0
  -30.0041  -15.5516   21.2465 N   0  0  0  0  0  0
  -31.4761  -12.4825   19.1362 H   0  0  0  0  0  0
  -30.3662  -11.3524   19.8514 H   0  0  0  0  0  0
  -29.7577  -11.7765   17.4555 H   0  0  0  0  0  0
  -29.6601  -13.4932   17.7603 H   0  0  0  0  0  0
  -27.8424  -11.3064   18.8305 H   0  0  0  0  0  0
  -27.3750  -12.6210   17.7852 H   0  0  0  0  0  0
  -27.6980  -14.2573   19.5623 H   0  0  0  0  0  0
  -28.6928  -11.9666   21.3263 H   0  0  0  0  0  0
  -28.4075  -13.5876   21.8622 H   0  0  0  0  0  0
  -25.2751   -9.5706   22.4740 H   0  0  0  0  0  0
  -24.0006   -7.4645   22.7466 H   0  0  0  0  0  0
  -21.0835   -8.8744   19.8944 H   0  0  0  0  0  0
  -22.3662  -10.9658   19.6150 H   0  0  0  0  0  0
  -21.2006   -7.6148   23.9723 H   0  0  0  0  0  0
  -21.1476   -6.0518   25.9077 H   0  0  0  0  0  0
  -22.0601   -2.7613   23.2837 H   0  0  0  0  0  0
  -22.4103  -11.9882   22.4799 H   0  0  0  0  0  0
  -21.1122  -13.1243   22.2603 H   0  0  0  0  0  0
  -24.6713  -15.8489   20.5278 H   0  0  0  0  0  0
  -26.2938  -15.6260   20.1126 H   0  0  0  0  0  0
  -26.7148  -32.5476   23.1111 H   0  0  0  0  0  0
  -25.0115  -33.9753   25.0474 H   0  0  0  0  0  0
  -22.7015  -31.3090   21.4077 H   0  0  0  0  0  0
  -23.3774  -35.9613   23.3288 H   0  0  0  0  0  0
  -24.3589  -36.8937   22.2053 H   0  0  0  0  0  0
  -23.7233  -37.6488   23.6665 H   0  0  0  0  0  0
  -26.0763  -31.5770   20.6008 H   0  0  0  0  0  0
  -26.8323  -30.8581   21.9936 H   0  0  0  0  0  0
  -28.1099  -29.0392   21.1658 H   0  0  0  0  0  0
  -25.9833  -25.9577   18.9978 H   0  0  0  0  0  0
  -23.9641  -27.3100   19.0269 H   0  0  0  0  0  0
  -23.7273  -30.6025   19.4052 H   0  0  0  0  0  0
  -22.7426  -29.2488   19.8664 H   0  0  0  0  0  0
  -25.1285  -36.1963   25.0828 H   0  0  0  0  0  0
  -20.9967  -28.3247   24.1421 H   0  0  0  0  0  0
  -20.5707  -26.2267   23.3595 H   0  0  0  0  0  0
  -21.6651  -26.7455   22.1187 H   0  0  0  0  0  0
  -19.6946  -25.6289   21.1229 H   0  0  0  0  0  0
  -19.6732  -27.3193   20.6745 H   0  0  0  0  0  0
  -17.4218  -26.6673   21.3991 H   0  0  0  0  0  0
  -18.0331  -26.0047   22.8989 H   0  0  0  0  0  0
  -19.7940  -30.7250   24.2260 H   0  0  0  0  0  0
  -17.5022  -31.6259   24.5160 H   0  0  0  0  0  0
  -15.5354  -30.2972   23.7667 H   0  0  0  0  0  0
  -15.8676  -28.0828   22.7049 H   0  0  0  0  0  0
  -24.5934  -30.7010   25.7750 H   0  0  0  0  0  0
  -24.8846  -32.2835   26.4834 H   0  0  0  0  0  0
  -25.8025  -30.8895   27.0227 H   0  0  0  0  0  0
  -26.2899  -29.6736   24.1215 H   0  0  0  0  0  0
  -27.4180  -29.7316   25.4576 H   0  0  0  0  0  0
  -27.8693  -30.4353   23.9233 H   0  0  0  0  0  0
  -27.2789  -33.3657   26.1968 H   0  0  0  0  0  0
  -28.3909  -32.6761   25.0246 H   0  0  0  0  0  0
  -28.0733  -31.8432   26.5386 H   0  0  0  0  0  0
  -28.2595  -38.0104   24.7552 H   0  0  0  0  0  0
  -28.1114  -36.2641   24.6247 H   0  0  0  0  0  0
  -27.2313  -37.1395   25.8866 H   0  0  0  0  0  0
  -20.9345  -29.8748   21.6897 H   0  0  0  0  0  0
  -26.0201  -38.2862   24.1417 H   0  0  0  0  0  0
  -28.8091  -22.8284   17.8538 H   0  0  0  0  0  0
  -28.9838  -20.3174   16.7442 H   0  0  0  0  0  0
  -28.8371  -15.7289   23.0041 H   0  0  0  0  0  0
  -30.5176  -16.2302   23.1876 H   0  0  0  0  0  0
  -30.1209  -14.5278   23.1209 H   0  0  0  0  0  0
  -30.0490  -22.5093   21.4919 H   0  0  0  0  0  0
  -28.3334  -22.6540   21.3645 H   0  0  0  0  0  0
  -30.2143  -24.3772   19.6262 H   0  0  0  0  0  0
  -29.8783  -24.7613   21.2784 H   0  0  0  0  0  0
  -31.0276  -17.9438   21.8396 H   0  0  0  0  0  0
  -31.2675  -18.1667   20.1503 H   0  0  0  0  0  0
  -30.4406  -20.1392   21.6924 H   0  0  0  0  0  0
  -28.8614  -19.4267   21.6321 H   0  0  0  0  0  0
  -29.4485  -16.7360   19.5693 H   0  0  0  0  0  0
  -28.5752  -17.0686   21.0229 H   0  0  0  0  0  0
  -27.3781  -24.8327   20.7025 H   0  0  0  0  0  0
  -27.8831  -24.8635   19.0234 H   0  0  0  0  0  0
  1 25  1  0  0  0
  1 30  2  0  0  0
  1 83  1  0  0  0
  2  3  1  0  0  0
  2 25  1  0  0  0
  2 84  1  0  0  0
  2 85  1  0  0  0
  3  4  1  0  0  0
  3 86  1  0  0  0
  3 87  1  0  0  0
  4  5  1  0  0  0
  4 88  1  0  0  0
  4 89  1  0  0  0
  5  6  1  0  0  0
  5 26  1  0  0  0
  5 90  1  0  0  0
  6 25  1  0  0  0
  6 91  1  0  0  0
  6 92  1  0  0  0
  7  8  2  0  0  0
  7 26  1  0  0  0
  7 29  1  0  0  0
  8  9  1  0  0  0
  8 22  1  0  0  0
  9 10  1  0  0  0
  9 27  2  0  0  0
 10 11  2  0  0  0
 10 15  1  0  0  0
 11 12  1  0  0  0
 11 93  1  0  0  0
 12 13  2  0  0  0
 12 94  1  0  0  0
 13 14  1  0  0  0
 13 31  1  0  0  0
 14 15  2  0  0  0
 14 95  1  0  0  0
 15 96  1  0  0  0
 16 17  2  0  0  0
 16 21  1  0  0  0
 16 31  1  0  0  0
 17 18  1  0  0  0
 17 97  1  0  0  0
 18 19  2  0  0  0
 18 98  1  0  0  0
 19 20  1  0  0  0
 19 24  1  0  0  0
 20 21  2  0  0  0
 20 99  1  0  0  0
 21 23  1  0  0  0
 22 28  1  0  0  0
 22 32  2  0  0  0
 26 27  1  0  0  0
 28100  1  0  0  0
 28101  1  0  0  0
 29102  1  0  0  0
 29103  1  0  0  0
 33 34  1  0  0  0
 33 66  1  0  0  0
 33 70  2  0  0  0
 34 36  1  0  0  0
 34 59  1  0  0  0
 34104  1  0  0  0
 35 44  2  0  0  0
 35 45  1  0  0  0
 35 68  1  0  0  0
 36 56  1  0  0  0
 36105  1  0  0  0
 37 39  1  0  0  0
 37 47  1  0  0  0
 37 66  1  0  0  0
 37106  1  0  0  0
 38 43  2  0  0  0
 38 46  1  0  0  0
 38 47  1  0  0  0
 39 64  1  0  0  0
 39 67  2  0  0  0
 40 52  1  0  0  0
 40 53  2  0  0  0
 40 58  1  0  0  0
 41107  1  0  0  0
 41108  1  0  0  0
 41109  1  0  0  0
 41 48  1  0  0  0
 42 43  1  0  0  0
 42 66  1  0  0  0
 42110  1  0  0  0
 42111  1  0  0  0
 43 44  1  0  0  0
 44112  1  0  0  0
 45 46  2  0  0  0
 45113  1  0  0  0
 46114  1  0  0  0
 47115  1  0  0  0
 47116  1  0  0  0
 48 56  1  0  0  0
 48 65  1  0  0  0
 48117  1  0  0  0
 49 50  1  0  0  0
 49 53  1  0  0  0
 49 64  1  0  0  0
 49118  1  0  0  0
 50 51  1  0  0  0
 50119  1  0  0  0
 50120  1  0  0  0
 51 52  1  0  0  0
 51121  1  0  0  0
 51122  1  0  0  0
 52123  1  0  0  0
 52124  1  0  0  0
 53 54  1  0  0  0
 54 55  2  0  0  0
 54125  1  0  0  0
 55 57  1  0  0  0
 55126  1  0  0  0
 56 69  2  0  0  0
 57 58  2  0  0  0
 57127  1  0  0  0
 58128  1  0  0  0
 59 60  1  0  0  0
 59 61  1  0  0  0
 59 62  1  0  0  0
 60129  1  0  0  0
 60130  1  0  0  0
 60131  1  0  0  0
 61132  1  0  0  0
 61133  1  0  0  0
 61134  1  0  0  0
 62135  1  0  0  0
 62136  1  0  0  0
 62137  1  0  0  0
 63 65  1  0  0  0
 63138  1  0  0  0
 63139  1  0  0  0
 63140  1  0  0  0
 64141  1  0  0  0
 65142  1  0  0  0
 68 80  1  0  0  0
 71 72  1  0  0  0
 71 73  2  0  0  0
 71143  1  0  0  0
 72 81  2  0  0  0
 72144  1  0  0  0
 73 75  1  0  0  0
 73 82  1  0  0  0
 74 83  1  0  0  0
 74145  1  0  0  0
 74146  1  0  0  0
 74147  1  0  0  0
 75 76  1  0  0  0
 75148  1  0  0  0
 75149  1  0  0  0
 76 80  1  0  0  0
 76150  1  0  0  0
 76151  1  0  0  0
 77 78  1  0  0  0
 77 79  1  0  0  0
 77152  1  0  0  0
 77153  1  0  0  0
 78 82  1  0  0  0
 78154  1  0  0  0
 78155  1  0  0  0
 79 83  1  0  0  0
 79156  1  0  0  0
 79157  1  0  0  0
 80158  1  0  0  0
 80159  1  0  0  0
 81 82  1  0  0  0
M  ISO  4   1 100  68 101  80 101  83 100
M  END
> <chiral flag>
0

> <version>
0

> <s_m_source_file>
/data/baiqing/PycharmProjects/Reinvent-master-3.2/result/LINK_invent/BTK/process_docking_weight1_custom_sum_contain_oxygen_bond_distance_aromatic_linkinvent_7_9_3/rearranged_h_0084.sdf

> <i_m_source_file_index>
7

> <r_mmod_Potential_Energy-OPLS-2005>
130.868621826172

> <r_mmod_Stretch_Energy-OPLS-2005>
59.9733924865723

> <r_mmod_Bend_Energy-OPLS-2005>
121.999282836914

> <r_mmod_Torsional_Energy-OPLS-2005>
309.325317382812

> <r_mmod_Improper_Torsional_Energy-OPLS-2005>
4.14961290359497

> <r_mmod_Van_der_Waal_Energy-OPLS-2005>
124.582527160645

> <r_mmod_Electrostatic_Energy-OPLS-2005>
-304.522125244141

> <r_mmod_Solvation_Energy-OPLS-2005>
-209.464797973633

> <b_mmod_Minimization_Converged-OPLS-2005>
0

> <r_mmod_RMS_Derivative-OPLS-2005>
1.79603981971741

$$$$
7
                    3D
 Structure written by MMmdl.
175183  0  0  1  0            999 V2000
  -30.6401  -14.7031   20.4627 C   0  0  0  0  0  0
  -30.4240  -12.4282   19.4729 C   0  0  0  0  0  0
  -29.5041  -12.5102   18.2354 C   0  0  0  0  0  0
  -28.0287  -12.3461   18.6461 C   0  0  0  0  0  0
  -27.6436  -13.2353   19.8584 C   0  0  2  0  0  0
  -28.6891  -13.1577   20.9932 C   0  0  0  0  0  0
  -25.2511  -13.8204   20.5730 C   0  0  0  0  0  0
  -24.1801  -13.0436   20.9223 C   0  0  0  0  0  0
  -24.6403  -11.6923   20.8760 C   0  0  0  0  0  0
  -23.9076  -10.4291   21.0413 C   0  0  0  0  0  0
  -24.3628   -9.4202   21.9188 C   0  0  0  0  0  0
  -23.6302   -8.2237   22.0751 C   0  0  0  0  0  0
  -22.4287   -8.0275   21.3531 C   0  0  0  0  0  0
  -21.9927   -9.0254   20.4640 C   0  0  0  0  0  0
  -22.7251  -10.2134   20.3052 C   0  0  0  0  0  0
  -21.6858   -6.0735   22.5273 C   0  0  0  0  0  0
  -21.4013   -6.5639   23.8205 C   0  0  0  0  0  0
  -21.3658   -5.6793   24.9165 C   0  0  0  0  0  0
  -21.6044   -4.3056   24.7224 C   0  0  0  0  0  0
  -21.8818   -3.8143   23.4344 C   0  0  0  0  0  0
  -21.9189   -4.6959   22.3398 C   0  0  0  0  0  0
  -22.7811  -13.5203   21.1877 C   0  0  0  0  0  0
  -22.1666   -4.2136   21.0979 F   0  0  0  0  0  0
  -21.5627   -3.4551   25.7746 F   0  0  0  0  0  0
  -29.9955  -13.4895   20.4128 N   0  0  0  0  0  0
  -26.2953  -12.9431   20.3346 N   0  0  0  0  0  0
  -25.9338  -11.6562   20.5778 N   0  0  0  0  0  0
  -22.0473  -12.8178   22.0438 N   0  0  0  0  0  0
  -25.4184  -15.1930   20.4123 N   0  0  0  0  0  0
  -31.8212  -14.7895   20.1206 O   0  0  0  0  0  0
  -21.6637   -6.8885   21.4237 O   0  0  0  0  0  0
  -22.3485  -14.5509   20.6734 O   0  0  0  0  0  0
  -24.6308  -31.8564   23.2010 C   0  0  0  0  0  0
  -25.9140  -32.4759   23.8342 C   0  0  1  0  0  0
  -27.2196  -27.2674   20.1057 C   0  0  0  0  0  0
  -25.5942  -33.8567   24.2264 N   0  0  0  0  0  0
  -23.4266  -30.4815   21.5450 C   0  0  2  0  0  0
  -24.8724  -28.9365   20.1072 C   0  0  0  0  0  0
  -22.7498  -29.4605   22.4914 C   0  0  0  0  0  0
  -18.0290  -28.1387   22.8482 C   0  0  0  0  0  0
  -24.1491  -36.7278   23.2638 C   0  0  0  0  0  0
  -25.9740  -30.7684   21.3844 C   0  0  0  0  0  0
  -26.0445  -29.3943   20.7199 C   0  0  0  0  0  0
  -27.2154  -28.5691   20.7160 C   0  0  0  0  0  0
  -26.0149  -26.8804   19.4704 C   0  0  0  0  0  0
  -24.8631  -27.6869   19.4761 C   0  0  0  0  0  0
  -23.6438  -29.8224   20.1587 C   0  0  0  0  0  0
  -25.4122  -36.3069   24.0321 C   0  0  1  0  0  0
  -20.5896  -28.3695   23.1269 C   0  0  2  0  0  0
  -20.6783  -26.9413   22.5411 C   0  0  0  0  0  0
  -19.5758  -26.6381   21.5213 C   0  0  0  0  0  0
  -18.1934  -26.7929   22.1620 C   0  0  0  0  0  0
  -19.1545  -28.8858   23.2870 C   0  0  0  0  0  0
  -18.9466  -30.1460   23.8888 C   0  0  0  0  0  0
  -17.6465  -30.6589   24.0560 C   0  0  0  0  0  0
  -25.9063  -34.9440   23.5097 C   0  0  0  0  0  0
  -16.5356  -29.9087   23.6331 C   0  0  0  0  0  0
  -16.7277  -28.6504   23.0352 C   0  0  0  0  0  0
  -26.4501  -31.6582   25.0732 C   0  0  0  0  0  0
  -25.3714  -31.3746   26.1445 C   0  0  0  0  0  0
  -27.0349  -30.2991   24.6239 C   0  0  0  0  0  0
  -27.6053  -32.4320   25.7509 C   0  0  0  0  0  0
  -27.5582  -37.1801   24.8464 C   0  0  0  0  0  0
  -21.4203  -29.3044   22.3661 N   0  0  0  0  0  0
  -26.4297  -37.3772   23.9404 N   0  0  0  0  0  0
  -24.6958  -31.0533   22.0992 N   0  0  0  0  0  0
  -23.4201  -28.8147   23.3010 O   0  0  0  0  0  0
  -28.3227  -26.3818   20.2074 O   0  0  0  0  0  0
  -26.5632  -34.8914   22.4661 O   0  0  0  0  0  0
  -23.5459  -32.1391   23.7301 O   0  0  0  0  0  0
  -28.9109  -22.4061   19.5172 C   0  0  0  0  0  0
  -28.9089  -23.7356   20.1108 C   0  0  0  0  0  0
  -29.4978  -21.4371   20.3216 C   0  0  0  0  0  0
  -29.4246  -23.5017   21.3633 C   0  0  0  0  0  0
  -29.6122  -24.5069   22.4605 C   0  0  0  0  0  0
  -29.4908  -24.5155   17.1059 C   0  0  0  0  0  0
  -32.5855  -20.5388   23.6192 C   0  0  0  0  0  0
  -32.6878  -22.8398   22.5756 C   0  0  0  0  0  0
  -27.9732  -18.3513   20.3218 C   0  0  0  0  0  0
  -29.9739  -19.9589   19.9962 C   0  0  0  0  0  0
  -29.3694  -25.5172   18.2646 C   0  0  0  0  0  0
  -30.4551  -21.5408   22.6570 C   0  0  0  0  0  0
  -30.3344  -17.2686   20.2901 C   0  0  0  0  0  0
  -28.4384  -25.1056   19.4276 C   0  0  2  0  0  0
  -31.9993  -21.4653   22.5439 C   0  0  0  0  0  0
  -29.4524  -18.5783   20.6592 C   0  0  2  0  0  0
  -29.8071  -22.1427   21.4904 N   0  0  0  0  0  0
  -29.8972  -15.8536   20.6555 N   0  0  0  0  0  0
  -31.4671  -12.5319   19.1702 H   0  0  0  0  0  0
  -30.3491  -11.4480   19.9458 H   0  0  0  0  0  0
  -29.7766  -11.7458   17.5066 H   0  0  0  0  0  0
  -29.6427  -13.4701   17.7359 H   0  0  0  0  0  0
  -27.8712  -11.2966   18.8924 H   0  0  0  0  0  0
  -27.3731  -12.5606   17.8016 H   0  0  0  0  0  0
  -27.6430  -14.2609   19.4899 H   0  0  0  0  0  0
  -28.7128  -12.1615   21.4365 H   0  0  0  0  0  0
  -28.4360  -13.8447   21.8035 H   0  0  0  0  0  0
  -25.2771   -9.5671   22.4765 H   0  0  0  0  0  0
  -23.9998   -7.4625   22.7464 H   0  0  0  0  0  0
  -21.0866   -8.8783   19.8950 H   0  0  0  0  0  0
  -22.3711  -10.9683   19.6173 H   0  0  0  0  0  0
  -21.2015   -7.6152   23.9713 H   0  0  0  0  0  0
  -21.1485   -6.0523   25.9072 H   0  0  0  0  0  0
  -22.0602   -2.7608   23.2850 H   0  0  0  0  0  0
  -22.4120  -11.9836   22.4797 H   0  0  0  0  0  0
  -21.1088  -13.1162   22.2677 H   0  0  0  0  0  0
  -24.6476  -15.8429   20.5173 H   0  0  0  0  0  0
  -26.2576  -15.6323   20.0573 H   0  0  0  0  0  0
  -26.7201  -32.5406   23.1078 H   0  0  0  0  0  0
  -25.0083  -33.9702   25.0405 H   0  0  0  0  0  0
  -22.7223  -31.3038   21.4023 H   0  0  0  0  0  0
  -23.3762  -35.9604   23.3297 H   0  0  0  0  0  0
  -24.3577  -36.8908   22.2053 H   0  0  0  0  0  0
  -23.7234  -37.6473   23.6671 H   0  0  0  0  0  0
  -26.1196  -31.5339   20.6209 H   0  0  0  0  0  0
  -26.8490  -30.8094   22.0214 H   0  0  0  0  0  0
  -28.1096  -28.9122   21.2182 H   0  0  0  0  0  0
  -25.8841  -25.9292   18.9854 H   0  0  0  0  0  0
  -23.9627  -27.3275   18.9972 H   0  0  0  0  0  0
  -23.7696  -30.6022   19.4062 H   0  0  0  0  0  0
  -22.7616  -29.2580   19.8506 H   0  0  0  0  0  0
  -25.1305  -36.1919   25.0817 H   0  0  0  0  0  0
  -20.9978  -28.3278   24.1393 H   0  0  0  0  0  0
  -20.5684  -26.2305   23.3612 H   0  0  0  0  0  0
  -21.6651  -26.7448   22.1204 H   0  0  0  0  0  0
  -19.6925  -25.6289   21.1247 H   0  0  0  0  0  0
  -19.6698  -27.3182   20.6733 H   0  0  0  0  0  0
  -17.4206  -26.6669   21.4021 H   0  0  0  0  0  0
  -18.0341  -26.0074   22.9016 H   0  0  0  0  0  0
  -19.7945  -30.7278   24.2250 H   0  0  0  0  0  0
  -17.5025  -31.6270   24.5163 H   0  0  0  0  0  0
  -15.5359  -30.2989   23.7668 H   0  0  0  0  0  0
  -15.8672  -28.0824   22.7075 H   0  0  0  0  0  0
  -24.5883  -30.7102   25.7768 H   0  0  0  0  0  0
  -24.8908  -32.2923   26.4852 H   0  0  0  0  0  0
  -25.8014  -30.8927   27.0234 H   0  0  0  0  0  0
  -26.2941  -29.6739   24.1241 H   0  0  0  0  0  0
  -27.3985  -29.7261   25.4777 H   0  0  0  0  0  0
  -27.8842  -30.4249   23.9522 H   0  0  0  0  0  0
  -27.2664  -33.3633   26.2068 H   0  0  0  0  0  0
  -28.3883  -32.6859   25.0349 H   0  0  0  0  0  0
  -28.0702  -31.8451   26.5444 H   0  0  0  0  0  0
  -28.2598  -38.0099   24.7514 H   0  0  0  0  0  0
  -28.1077  -36.2628   24.6293 H   0  0  0  0  0  0
  -27.2295  -37.1456   25.8865 H   0  0  0  0  0  0
  -20.9387  -29.8767   21.6862 H   0  0  0  0  0  0
  -26.0171  -38.2846   24.1406 H   0  0  0  0  0  0
  -28.5736  -22.1911   18.5126 H   0  0  0  0  0  0
  -29.9363  -25.4639   22.0519 H   0  0  0  0  0  0
  -30.3605  -24.2141   23.1920 H   0  0  0  0  0  0
  -28.6754  -24.6752   22.9925 H   0  0  0  0  0  0
  -30.0227  -24.9623   16.2657 H   0  0  0  0  0  0
  -28.5099  -24.2007   16.7493 H   0  0  0  0  0  0
  -30.0511  -23.6284   17.3987 H   0  0  0  0  0  0
  -33.6665  -20.4407   23.5102 H   0  0  0  0  0  0
  -32.1615  -19.5367   23.5448 H   0  0  0  0  0  0
  -32.3837  -20.9125   24.6233 H   0  0  0  0  0  0
  -33.7671  -22.7440   22.4570 H   0  0  0  0  0  0
  -32.5083  -23.3549   23.5193 H   0  0  0  0  0  0
  -32.3334  -23.4796   21.7670 H   0  0  0  0  0  0
  -27.8325  -18.2083   19.2504 H   0  0  0  0  0  0
  -27.3680  -19.2072   20.6236 H   0  0  0  0  0  0
  -27.5750  -17.4753   20.8331 H   0  0  0  0  0  0
  -31.0558  -19.9453   20.1117 H   0  0  0  0  0  0
  -29.8517  -19.8306   18.9206 H   0  0  0  0  0  0
  -29.0070  -26.4576   17.8477 H   0  0  0  0  0  0
  -30.3637  -25.7310   18.6589 H   0  0  0  0  0  0
  -30.1563  -22.0686   23.5624 H   0  0  0  0  0  0
  -30.0458  -20.5413   22.7838 H   0  0  0  0  0  0
  -31.3359  -17.4136   20.6986 H   0  0  0  0  0  0
  -30.4724  -17.2633   19.2073 H   0  0  0  0  0  0
  -27.4978  -24.8144   18.9804 H   0  0  0  0  0  0
  -32.2498  -21.0185   21.5835 H   0  0  0  0  0  0
  -29.5166  -18.6843   21.7410 H   0  0  0  0  0  0
  -28.9291  -15.7262   20.9102 H   0  0  0  0  0  0
  1 25  1  0  0  0
  1 30  2  0  0  0
  1 88  1  0  0  0
  2  3  1  0  0  0
  2 25  1  0  0  0
  2 89  1  0  0  0
  2 90  1  0  0  0
  3  4  1  0  0  0
  3 91  1  0  0  0
  3 92  1  0  0  0
  4  5  1  0  0  0
  4 93  1  0  0  0
  4 94  1  0  0  0
  5  6  1  0  0  0
  5 26  1  0  0  0
  5 95  1  0  0  0
  6 25  1  0  0  0
  6 96  1  0  0  0
  6 97  1  0  0  0
  7  8  2  0  0  0
  7 26  1  0  0  0
  7 29  1  0  0  0
  8  9  1  0  0  0
  8 22  1  0  0  0
  9 10  1  0  0  0
  9 27  2  0  0  0
 10 11  2  0  0  0
 10 15  1  0  0  0
 11 12  1  0  0  0
 11 98  1  0  0  0
 12 13  2  0  0  0
 12 99  1  0  0  0
 13 14  1  0  0  0
 13 31  1  0  0  0
 14 15  2  0  0  0
 14100  1  0  0  0
 15101  1  0  0  0
 16 17  2  0  0  0
 16 21  1  0  0  0
 16 31  1  0  0  0
 17 18  1  0  0  0
 17102  1  0  0  0
 18 19  2  0  0  0
 18103  1  0  0  0
 19 20  1  0  0  0
 19 24  1  0  0  0
 20 21  2  0  0  0
 20104  1  0  0  0
 21 23  1  0  0  0
 22 28  1  0  0  0
 22 32  2  0  0  0
 26 27  1  0  0  0
 28105  1  0  0  0
 28106  1  0  0  0
 29107  1  0  0  0
 29108  1  0  0  0
 33 34  1  0  0  0
 33 66  1  0  0  0
 33 70  2  0  0  0
 34 36  1  0  0  0
 34 59  1  0  0  0
 34109  1  0  0  0
 35 44  2  0  0  0
 35 45  1  0  0  0
 35 68  1  0  0  0
 36 56  1  0  0  0
 36110  1  0  0  0
 37 39  1  0  0  0
 37 47  1  0  0  0
 37 66  1  0  0  0
 37111  1  0  0  0
 38 43  2  0  0  0
 38 46  1  0  0  0
 38 47  1  0  0  0
 39 64  1  0  0  0
 39 67  2  0  0  0
 40 52  1  0  0  0
 40 53  2  0  0  0
 40 58  1  0  0  0
 41112  1  0  0  0
 41113  1  0  0  0
 41114  1  0  0  0
 41 48  1  0  0  0
 42 43  1  0  0  0
 42 66  1  0  0  0
 42115  1  0  0  0
 42116  1  0  0  0
 43 44  1  0  0  0
 44117  1  0  0  0
 45 46  2  0  0  0
 45118  1  0  0  0
 46119  1  0  0  0
 47120  1  0  0  0
 47121  1  0  0  0
 48 56  1  0  0  0
 48 65  1  0  0  0
 48122  1  0  0  0
 49 50  1  0  0  0
 49 53  1  0  0  0
 49 64  1  0  0  0
 49123  1  0  0  0
 50 51  1  0  0  0
 50124  1  0  0  0
 50125  1  0  0  0
 51 52  1  0  0  0
 51126  1  0  0  0
 51127  1  0  0  0
 52128  1  0  0  0
 52129  1  0  0  0
 53 54  1  0  0  0
 54 55  2  0  0  0
 54130  1  0  0  0
 55 57  1  0  0  0
 55131  1  0  0  0
 56 69  2  0  0  0
 57 58  2  0  0  0
 57132  1  0  0  0
 58133  1  0  0  0
 59 60  1  0  0  0
 59 61  1  0  0  0
 59 62  1  0  0  0
 60134  1  0  0  0
 60135  1  0  0  0
 60136  1  0  0  0
 61137  1  0  0  0
 61138  1  0  0  0
 61139  1  0  0  0
 62140  1  0  0  0
 62141  1  0  0  0
 62142  1  0  0  0
 63 65  1  0  0  0
 63143  1  0  0  0
 63144  1  0  0  0
 63145  1  0  0  0
 64146  1  0  0  0
 65147  1  0  0  0
 68 84  1  0  0  0
 71 72  1  0  0  0
 71 73  2  0  0  0
 71148  1  0  0  0
 72 74  2  0  0  0
 72 84  1  0  0  0
 73 80  1  0  0  0
 73 87  1  0  0  0
 74 75  1  0  0  0
 74 87  1  0  0  0
 75149  1  0  0  0
 75150  1  0  0  0
 75151  1  0  0  0
 76 81  1  0  0  0
 76152  1  0  0  0
 76153  1  0  0  0
 76154  1  0  0  0
 77155  1  0  0  0
 77156  1  0  0  0
 77157  1  0  0  0
 77 85  1  0  0  0
 78 85  1  0  0  0
 78158  1  0  0  0
 78159  1  0  0  0
 78160  1  0  0  0
 79161  1  0  0  0
 79162  1  0  0  0
 79163  1  0  0  0
 79 86  1  0  0  0
 80 86  1  0  0  0
 80164  1  0  0  0
 80165  1  0  0  0
 81166  1  0  0  0
 81167  1  0  0  0
 81 84  1  0  0  0
 82 85  1  0  0  0
 82 87  1  0  0  0
 82168  1  0  0  0
 82169  1  0  0  0
 83 86  1  0  0  0
 83 88  1  0  0  0
 83170  1  0  0  0
 83171  1  0  0  0
 84172  1  0  0  0
 85173  1  0  0  0
 86174  1  0  0  0
 88175  1  0  0  0
M  ISO  4   1 100  68 101  84 101  88 100
M  END
> <chiral flag>
0

> <version>
0

> <s_m_source_file>
/data/baiqing/PycharmProjects/Reinvent-master-3.2/result/LINK_invent/BTK/process_docking_weight1_custom_sum_contain_oxygen_bond_distance_aromatic_linkinvent_7_9_3/rearranged_h_0084.sdf

> <i_m_source_file_index>
8

> <r_mmod_Potential_Energy-OPLS-2005>
167.639709472656

> <r_mmod_Stretch_Energy-OPLS-2005>
117.060150146484

> <r_mmod_Bend_Energy-OPLS-2005>
188.660247802734

> <r_mmod_Torsional_Energy-OPLS-2005>
240.598236083984

> <r_mmod_Improper_Torsional_Energy-OPLS-2005>
7.14584636688232

> <r_mmod_Van_der_Waal_Energy-OPLS-2005>
113.139556884766

> <r_mmod_Electrostatic_Energy-OPLS-2005>
-377.156341552734

> <r_mmod_Solvation_Energy-OPLS-2005>
-197.186080932617

> <b_mmod_Minimization_Converged-OPLS-2005>
0

> <r_mmod_RMS_Derivative-OPLS-2005>
1.65719878673553

$$$$
8
                    3D
 Structure written by MMmdl.
162170  0  0  1  0            999 V2000
  -30.6727  -14.5103   20.5358 C   0  0  0  0  0  0
  -30.4179  -12.3229   19.4194 C   0  0  0  0  0  0
  -29.4855  -12.5109   18.2044 C   0  0  0  0  0  0
  -28.0096  -12.3556   18.6202 C   0  0  0  0  0  0
  -27.6544  -13.2042   19.8705 C   0  0  2  0  0  0
  -28.6974  -13.0073   20.9918 C   0  0  0  0  0  0
  -25.2568  -13.8145   20.5661 C   0  0  0  0  0  0
  -24.1819  -13.0440   20.9149 C   0  0  0  0  0  0
  -24.6361  -11.6896   20.8718 C   0  0  0  0  0  0
  -23.9021  -10.4294   21.0400 C   0  0  0  0  0  0
  -24.3601   -9.4220   21.9176 C   0  0  0  0  0  0
  -23.6291   -8.2253   22.0741 C   0  0  0  0  0  0
  -22.4276   -8.0275   21.3538 C   0  0  0  0  0  0
  -21.9905   -9.0231   20.4636 C   0  0  0  0  0  0
  -22.7198  -10.2126   20.3051 C   0  0  0  0  0  0
  -21.6842   -6.0738   22.5273 C   0  0  0  0  0  0
  -21.3999   -6.5642   23.8209 C   0  0  0  0  0  0
  -21.3675   -5.6795   24.9167 C   0  0  0  0  0  0
  -21.6046   -4.3051   24.7217 C   0  0  0  0  0  0
  -21.8826   -3.8154   23.4326 C   0  0  0  0  0  0
  -21.9199   -4.6973   22.3396 C   0  0  0  0  0  0
  -22.7849  -13.5242   21.1827 C   0  0  0  0  0  0
  -22.1661   -4.2162   21.0969 F   0  0  0  0  0  0
  -21.5665   -3.4541   25.7734 F   0  0  0  0  0  0
  -30.0191  -13.3196   20.4289 N   0  0  0  0  0  0
  -26.2987  -12.9303   20.3359 N   0  0  0  0  0  0
  -25.9283  -11.6464   20.5766 N   0  0  0  0  0  0
  -22.0486  -12.8233   22.0382 N   0  0  0  0  0  0
  -25.4346  -15.1857   20.4057 N   0  0  0  0  0  0
  -31.8314  -14.6615   20.1425 O   0  0  0  0  0  0
  -21.6633   -6.8873   21.4238 O   0  0  0  0  0  0
  -22.3534  -14.5549   20.6673 O   0  0  0  0  0  0
  -24.6211  -31.8653   23.2133 C   0  0  0  0  0  0
  -25.9094  -32.4805   23.8428 C   0  0  1  0  0  0
  -27.2142  -27.3843   20.0915 C   0  0  0  0  0  0
  -25.5940  -33.8611   24.2335 N   0  0  0  0  0  0
  -23.4097  -30.4967   21.5532 C   0  0  2  0  0  0
  -24.8515  -28.9704   20.1102 C   0  0  0  0  0  0
  -22.7439  -29.4654   22.4942 C   0  0  0  0  0  0
  -18.0280  -28.1365   22.8486 C   0  0  0  0  0  0
  -24.1492  -36.7295   23.2639 C   0  0  0  0  0  0
  -25.9500  -30.8150   21.3803 C   0  0  0  0  0  0
  -26.0213  -29.4543   20.7099 C   0  0  0  0  0  0
  -27.2075  -28.6724   20.6930 C   0  0  0  0  0  0
  -26.0209  -26.9486   19.4625 C   0  0  0  0  0  0
  -24.8489  -27.7183   19.4836 C   0  0  0  0  0  0
  -23.6207  -29.8462   20.1633 C   0  0  0  0  0  0
  -25.4117  -36.3099   24.0334 C   0  0  1  0  0  0
  -20.5875  -28.3669   23.1283 C   0  0  2  0  0  0
  -20.6764  -26.9392   22.5411 C   0  0  0  0  0  0
  -19.5746  -26.6361   21.5209 C   0  0  0  0  0  0
  -18.1922  -26.7918   22.1611 C   0  0  0  0  0  0
  -19.1534  -28.8829   23.2890 C   0  0  0  0  0  0
  -18.9462  -30.1433   23.8909 C   0  0  0  0  0  0
  -17.6465  -30.6578   24.0558 C   0  0  0  0  0  0
  -25.9051  -34.9465   23.5119 C   0  0  0  0  0  0
  -16.5353  -29.9082   23.6320 C   0  0  0  0  0  0
  -16.7270  -28.6488   23.0362 C   0  0  0  0  0  0
  -26.4502  -31.6607   25.0782 C   0  0  0  0  0  0
  -25.3766  -31.3730   26.1529 C   0  0  0  0  0  0
  -27.0342  -30.3031   24.6226 C   0  0  0  0  0  0
  -27.6050  -32.4356   25.7551 C   0  0  0  0  0  0
  -27.5588  -37.1811   24.8460 C   0  0  0  0  0  0
  -21.4154  -29.3046   22.3688 N   0  0  0  0  0  0
  -26.4298  -37.3786   23.9407 N   0  0  0  0  0  0
  -24.6778  -31.0748   22.1046 N   0  0  0  0  0  0
  -23.4194  -28.8164   23.2974 O   0  0  0  0  0  0
  -28.3399  -26.5622   20.1465 O   0  0  0  0  0  0
  -26.5593  -34.8910   22.4674 O   0  0  0  0  0  0
  -23.5387  -32.1421   23.7498 O   0  0  0  0  0  0
  -30.2321  -19.3123   17.4994 C   0  0  0  0  0  0
  -30.2053  -20.5992   18.0958 C   0  0  0  0  0  0
  -29.7928  -20.3770   19.3882 C   0  0  0  0  0  0
  -30.5732  -21.8965   17.4217 C   0  0  0  0  0  0
  -29.2588  -24.2477   21.9879 C   0  0  0  0  0  0
  -29.5953  -21.4322   20.4668 C   0  0  0  0  0  0
  -28.6700  -22.6392   20.0798 C   0  0  0  0  0  0
  -29.3361  -18.0974   20.6656 C   0  0  0  0  0  0
  -30.4069  -16.9818   20.9509 C   0  0  0  0  0  0
  -28.1074  -25.1418   19.9090 C   0  0  0  0  0  0
  -29.1219  -24.0953   20.4659 C   0  0  1  0  0  0
  -29.9028  -18.3603   18.3480 N   0  0  0  0  0  0
  -29.6789  -18.9789   19.5316 N   0  0  0  0  0  0
  -29.9309  -15.5725   20.9299 N   0  0  0  0  0  0
  -31.4606  -12.4296   19.1122 H   0  0  0  0  0  0
  -30.3272  -11.3124   19.8209 H   0  0  0  0  0  0
  -29.7316  -11.7962   17.4180 H   0  0  0  0  0  0
  -29.6396  -13.5032   17.7768 H   0  0  0  0  0  0
  -27.8257  -11.2984   18.8180 H   0  0  0  0  0  0
  -27.3547  -12.6232   17.7906 H   0  0  0  0  0  0
  -27.6941  -14.2474   19.5594 H   0  0  0  0  0  0
  -28.6791  -11.9751   21.3438 H   0  0  0  0  0  0
  -28.4616  -13.6182   21.8644 H   0  0  0  0  0  0
  -25.2762   -9.5714   22.4725 H   0  0  0  0  0  0
  -24.0027   -7.4645   22.7447 H   0  0  0  0  0  0
  -21.0856   -8.8718   19.8924 H   0  0  0  0  0  0
  -22.3646  -10.9657   19.6154 H   0  0  0  0  0  0
  -21.1948   -7.6142   23.9711 H   0  0  0  0  0  0
  -21.1506   -6.0521   25.9079 H   0  0  0  0  0  0
  -22.0595   -2.7618   23.2818 H   0  0  0  0  0  0
  -22.4111  -11.9918   22.4793 H   0  0  0  0  0  0
  -21.1098  -13.1245   22.2570 H   0  0  0  0  0  0
  -24.6693  -15.8450   20.4895 H   0  0  0  0  0  0
  -26.2932  -15.6158   20.0866 H   0  0  0  0  0  0
  -26.7158  -32.5478   23.1172 H   0  0  0  0  0  0
  -25.0160  -33.9776   25.0525 H   0  0  0  0  0  0
  -22.7018  -31.3182   21.4199 H   0  0  0  0  0  0
  -23.3757  -35.9623   23.3304 H   0  0  0  0  0  0
  -24.3582  -36.8909   22.2052 H   0  0  0  0  0  0
  -23.7244  -37.6497   23.6656 H   0  0  0  0  0  0
  -26.0976  -31.5932   20.6301 H   0  0  0  0  0  0
  -26.8229  -30.8391   22.0205 H   0  0  0  0  0  0
  -28.1061  -29.0434   21.1662 H   0  0  0  0  0  0
  -25.9551  -26.0001   18.9526 H   0  0  0  0  0  0
  -23.9524  -27.3398   19.0121 H   0  0  0  0  0  0
  -23.7448  -30.6315   19.4168 H   0  0  0  0  0  0
  -22.7390  -29.2818   19.8528 H   0  0  0  0  0  0
  -25.1299  -36.1957   25.0825 H   0  0  0  0  0  0
  -20.9988  -28.3247   24.1398 H   0  0  0  0  0  0
  -20.5638  -26.2288   23.3617 H   0  0  0  0  0  0
  -21.6640  -26.7404   22.1231 H   0  0  0  0  0  0
  -19.6902  -25.6266   21.1260 H   0  0  0  0  0  0
  -19.6696  -27.3151   20.6727 H   0  0  0  0  0  0
  -17.4202  -26.6684   21.4007 H   0  0  0  0  0  0
  -18.0305  -26.0051   22.8992 H   0  0  0  0  0  0
  -19.7939  -30.7238   24.2300 H   0  0  0  0  0  0
  -17.5023  -31.6269   24.5142 H   0  0  0  0  0  0
  -15.5355  -30.2993   23.7626 H   0  0  0  0  0  0
  -15.8673  -28.0803   22.7090 H   0  0  0  0  0  0
  -24.5942  -30.7062   25.7896 H   0  0  0  0  0  0
  -24.8965  -32.2889   26.4983 H   0  0  0  0  0  0
  -25.8137  -30.8922   27.0290 H   0  0  0  0  0  0
  -26.2920  -29.6795   24.1230 H   0  0  0  0  0  0
  -27.4011  -29.7277   25.4738 H   0  0  0  0  0  0
  -27.8808  -30.4310   23.9475 H   0  0  0  0  0  0
  -27.2634  -33.3637   26.2143 H   0  0  0  0  0  0
  -28.3859  -32.6952   25.0395 H   0  0  0  0  0  0
  -28.0723  -31.8493   26.5470 H   0  0  0  0  0  0
  -28.2592  -38.0122   24.7520 H   0  0  0  0  0  0
  -28.1101  -36.2653   24.6269 H   0  0  0  0  0  0
  -27.2308  -37.1441   25.8862 H   0  0  0  0  0  0
  -20.9302  -29.8825   21.6964 H   0  0  0  0  0  0
  -26.0178  -38.2856   24.1420 H   0  0  0  0  0  0
  -30.4958  -19.0423   16.4862 H   0  0  0  0  0  0
  -31.2922  -21.7449   16.6165 H   0  0  0  0  0  0
  -31.0279  -22.6010   18.1187 H   0  0  0  0  0  0
  -29.7074  -22.3909   16.9794 H   0  0  0  0  0  0
  -30.0430  -23.6046   22.3852 H   0  0  0  0  0  0
  -28.3257  -23.9929   22.4927 H   0  0  0  0  0  0
  -29.5113  -25.2737   22.2598 H   0  0  0  0  0  0
  -30.5790  -21.8158   20.7329 H   0  0  0  0  0  0
  -29.2177  -20.9740   21.3801 H   0  0  0  0  0  0
  -27.6767  -22.4454   20.4885 H   0  0  0  0  0  0
  -28.5116  -22.6307   19.0030 H   0  0  0  0  0  0
  -29.2011  -18.7108   21.5564 H   0  0  0  0  0  0
  -28.3583  -17.6583   20.4635 H   0  0  0  0  0  0
  -30.8404  -17.1578   21.9350 H   0  0  0  0  0  0
  -31.2431  -17.1014   20.2587 H   0  0  0  0  0  0
  -27.1498  -24.8540   20.3479 H   0  0  0  0  0  0
  -28.0206  -24.9984   18.8306 H   0  0  0  0  0  0
  -30.0953  -24.2861   20.0100 H   0  0  0  0  0  0
  -28.9755  -15.3928   21.1994 H   0  0  0  0  0  0
  1 25  1  0  0  0
  1 30  2  0  0  0
  1 84  1  0  0  0
  2  3  1  0  0  0
  2 25  1  0  0  0
  2 85  1  0  0  0
  2 86  1  0  0  0
  3  4  1  0  0  0
  3 87  1  0  0  0
  3 88  1  0  0  0
  4  5  1  0  0  0
  4 89  1  0  0  0
  4 90  1  0  0  0
  5  6  1  0  0  0
  5 26  1  0  0  0
  5 91  1  0  0  0
  6 25  1  0  0  0
  6 92  1  0  0  0
  6 93  1  0  0  0
  7  8  2  0  0  0
  7 26  1  0  0  0
  7 29  1  0  0  0
  8  9  1  0  0  0
  8 22  1  0  0  0
  9 10  1  0  0  0
  9 27  2  0  0  0
 10 11  2  0  0  0
 10 15  1  0  0  0
 11 12  1  0  0  0
 11 94  1  0  0  0
 12 13  2  0  0  0
 12 95  1  0  0  0
 13 14  1  0  0  0
 13 31  1  0  0  0
 14 15  2  0  0  0
 14 96  1  0  0  0
 15 97  1  0  0  0
 16 17  2  0  0  0
 16 21  1  0  0  0
 16 31  1  0  0  0
 17 18  1  0  0  0
 17 98  1  0  0  0
 18 19  2  0  0  0
 18 99  1  0  0  0
 19 20  1  0  0  0
 19 24  1  0  0  0
 20 21  2  0  0  0
 20100  1  0  0  0
 21 23  1  0  0  0
 22 28  1  0  0  0
 22 32  2  0  0  0
 26 27  1  0  0  0
 28101  1  0  0  0
 28102  1  0  0  0
 29103  1  0  0  0
 29104  1  0  0  0
 33 34  1  0  0  0
 33 66  1  0  0  0
 33 70  2  0  0  0
 34 36  1  0  0  0
 34 59  1  0  0  0
 34105  1  0  0  0
 35 44  2  0  0  0
 35 45  1  0  0  0
 35 68  1  0  0  0
 36 56  1  0  0  0
 36106  1  0  0  0
 37 39  1  0  0  0
 37 47  1  0  0  0
 37 66  1  0  0  0
 37107  1  0  0  0
 38 43  2  0  0  0
 38 46  1  0  0  0
 38 47  1  0  0  0
 39 64  1  0  0  0
 39 67  2  0  0  0
 40 52  1  0  0  0
 40 53  2  0  0  0
 40 58  1  0  0  0
 41108  1  0  0  0
 41109  1  0  0  0
 41110  1  0  0  0
 41 48  1  0  0  0
 42 43  1  0  0  0
 42 66  1  0  0  0
 42111  1  0  0  0
 42112  1  0  0  0
 43 44  1  0  0  0
 44113  1  0  0  0
 45 46  2  0  0  0
 45114  1  0  0  0
 46115  1  0  0  0
 47116  1  0  0  0
 47117  1  0  0  0
 48 56  1  0  0  0
 48 65  1  0  0  0
 48118  1  0  0  0
 49 50  1  0  0  0
 49 53  1  0  0  0
 49 64  1  0  0  0
 49119  1  0  0  0
 50 51  1  0  0  0
 50120  1  0  0  0
 50121  1  0  0  0
 51 52  1  0  0  0
 51122  1  0  0  0
 51123  1  0  0  0
 52124  1  0  0  0
 52125  1  0  0  0
 53 54  1  0  0  0
 54 55  2  0  0  0
 54126  1  0  0  0
 55 57  1  0  0  0
 55127  1  0  0  0
 56 69  2  0  0  0
 57 58  2  0  0  0
 57128  1  0  0  0
 58129  1  0  0  0
 59 60  1  0  0  0
 59 61  1  0  0  0
 59 62  1  0  0  0
 60130  1  0  0  0
 60131  1  0  0  0
 60132  1  0  0  0
 61133  1  0  0  0
 61134  1  0  0  0
 61135  1  0  0  0
 62136  1  0  0  0
 62137  1  0  0  0
 62138  1  0  0  0
 63 65  1  0  0  0
 63139  1  0  0  0
 63140  1  0  0  0
 63141  1  0  0  0
 64142  1  0  0  0
 65143  1  0  0  0
 68 80  1  0  0  0
 71 72  1  0  0  0
 71 82  2  0  0  0
 71144  1  0  0  0
 72 73  2  0  0  0
 72 74  1  0  0  0
 73 76  1  0  0  0
 73 83  1  0  0  0
 74145  1  0  0  0
 74146  1  0  0  0
 74147  1  0  0  0
 75148  1  0  0  0
 75149  1  0  0  0
 75150  1  0  0  0
 75 81  1  0  0  0
 76 77  1  0  0  0
 76151  1  0  0  0
 76152  1  0  0  0
 77 81  1  0  0  0
 77153  1  0  0  0
 77154  1  0  0  0
 78 79  1  0  0  0
 78 83  1  0  0  0
 78155  1  0  0  0
 78156  1  0  0  0
 79 84  1  0  0  0
 79157  1  0  0  0
 79158  1  0  0  0
 80 81  1  0  0  0
 80159  1  0  0  0
 80160  1  0  0  0
 81161  1  0  0  0
 82 83  1  0  0  0
 84162  1  0  0  0
M  ISO  4   1 100  68 101  80 101  84 100
M  END
> <chiral flag>
0

> <version>
0

> <s_m_source_file>
/data/baiqing/PycharmProjects/Reinvent-master-3.2/result/LINK_invent/BTK/process_docking_weight1_custom_sum_contain_oxygen_bond_distance_aromatic_linkinvent_7_9_3/rearranged_h_0084.sdf

> <i_m_source_file_index>
9

> <r_mmod_Potential_Energy-OPLS-2005>
-28.4293270111084

> <r_mmod_Stretch_Energy-OPLS-2005>
50.2219543457031

> <r_mmod_Bend_Energy-OPLS-2005>
114.281639099121

> <r_mmod_Torsional_Energy-OPLS-2005>
233.860809326172

> <r_mmod_Improper_Torsional_Energy-OPLS-2005>
4.03784894943237

> <r_mmod_Van_der_Waal_Energy-OPLS-2005>
133.556289672852

> <r_mmod_Electrostatic_Energy-OPLS-2005>
-365.859313964844

> <r_mmod_Solvation_Energy-OPLS-2005>
-222.822509765625

> <b_mmod_Minimization_Converged-OPLS-2005>
0

> <r_mmod_RMS_Derivative-OPLS-2005>
2.53748774528503

$$$$
9
                    3D
 Structure written by MMmdl.
164172  0  0  1  0            999 V2000
  -30.7217  -14.4321   20.6077 C   0  0  0  0  0  0
  -30.4180  -12.2876   19.4198 C   0  0  0  0  0  0
  -29.5077  -12.5407   18.2010 C   0  0  0  0  0  0
  -28.0210  -12.4151   18.6004 C   0  0  0  0  0  0
  -27.6649  -13.2186   19.8816 C   0  0  2  0  0  0
  -28.7012  -12.9577   20.9968 C   0  0  0  0  0  0
  -25.2580  -13.8193   20.5636 C   0  0  0  0  0  0
  -24.1798  -13.0455   20.9110 C   0  0  0  0  0  0
  -24.6363  -11.6933   20.8632 C   0  0  0  0  0  0
  -23.8996  -10.4322   21.0364 C   0  0  0  0  0  0
  -24.3570   -9.4250   21.9166 C   0  0  0  0  0  0
  -23.6283   -8.2273   22.0749 C   0  0  0  0  0  0
  -22.4263   -8.0272   21.3540 C   0  0  0  0  0  0
  -21.9864   -9.0226   20.4642 C   0  0  0  0  0  0
  -22.7160  -10.2131   20.3044 C   0  0  0  0  0  0
  -21.6867   -6.0693   22.5267 C   0  0  0  0  0  0
  -21.3980   -6.5584   23.8193 C   0  0  0  0  0  0
  -21.3695   -5.6759   24.9158 C   0  0  0  0  0  0
  -21.6069   -4.3020   24.7241 C   0  0  0  0  0  0
  -21.8809   -3.8102   23.4355 C   0  0  0  0  0  0
  -21.9176   -4.6917   22.3388 C   0  0  0  0  0  0
  -22.7832  -13.5277   21.1781 C   0  0  0  0  0  0
  -22.1656   -4.2084   21.0991 F   0  0  0  0  0  0
  -21.5711   -3.4516   25.7765 F   0  0  0  0  0  0
  -30.0394  -13.2608   20.4591 N   0  0  0  0  0  0
  -26.3023  -12.9359   20.3338 N   0  0  0  0  0  0
  -25.9289  -11.6503   20.5640 N   0  0  0  0  0  0
  -22.0427  -12.8296   22.0361 N   0  0  0  0  0  0
  -25.4362  -15.1902   20.4064 N   0  0  0  0  0  0
  -31.8141  -14.6421   20.0774 O   0  0  0  0  0  0
  -21.6662   -6.8833   21.4223 O   0  0  0  0  0  0
  -22.3510  -14.5567   20.6638 O   0  0  0  0  0  0
  -24.6121  -31.8707   23.2121 C   0  0  0  0  0  0
  -25.9019  -32.4841   23.8388 C   0  0  1  0  0  0
  -27.2376  -27.4753   20.0350 C   0  0  0  0  0  0
  -25.5862  -33.8628   24.2326 N   0  0  0  0  0  0
  -23.3978  -30.4934   21.5556 C   0  0  2  0  0  0
  -24.8418  -28.9647   20.1236 C   0  0  0  0  0  0
  -22.7397  -29.4655   22.5031 C   0  0  0  0  0  0
  -18.0262  -28.1394   22.8492 C   0  0  0  0  0  0
  -24.1486  -36.7340   23.2639 C   0  0  0  0  0  0
  -25.9243  -30.8403   21.3640 C   0  0  0  0  0  0
  -26.0018  -29.4726   20.7204 C   0  0  0  0  0  0
  -27.2012  -28.7274   20.6896 C   0  0  0  0  0  0
  -26.0479  -26.9642   19.4742 C   0  0  0  0  0  0
  -24.8553  -27.7038   19.5093 C   0  0  0  0  0  0
  -23.6030  -29.8263   20.1722 C   0  0  0  0  0  0
  -25.4105  -36.3121   24.0339 C   0  0  1  0  0  0
  -20.5844  -28.3653   23.1370 C   0  0  2  0  0  0
  -20.6754  -26.9408   22.5443 C   0  0  0  0  0  0
  -19.5733  -26.6406   21.5225 C   0  0  0  0  0  0
  -18.1904  -26.7949   22.1624 C   0  0  0  0  0  0
  -19.1509  -28.8838   23.2925 C   0  0  0  0  0  0
  -18.9443  -30.1453   23.8926 C   0  0  0  0  0  0
  -17.6447  -30.6594   24.0578 C   0  0  0  0  0  0
  -25.9020  -34.9481   23.5135 C   0  0  0  0  0  0
  -16.5332  -29.9097   23.6333 C   0  0  0  0  0  0
  -16.7250  -28.6529   23.0332 C   0  0  0  0  0  0
  -26.4462  -31.6604   25.0701 C   0  0  0  0  0  0
  -25.3744  -31.3698   26.1467 C   0  0  0  0  0  0
  -27.0274  -30.3047   24.6030 C   0  0  0  0  0  0
  -27.6047  -32.4324   25.7452 C   0  0  0  0  0  0
  -27.5573  -37.1844   24.8471 C   0  0  0  0  0  0
  -21.4128  -29.3009   22.3775 N   0  0  0  0  0  0
  -26.4314  -37.3794   23.9378 N   0  0  0  0  0  0
  -24.6638  -31.0811   22.1022 N   0  0  0  0  0  0
  -23.4183  -28.8216   23.3086 O   0  0  0  0  0  0
  -28.4305  -26.8038   19.9187 O   0  0  0  0  0  0
  -26.5600  -34.8933   22.4706 O   0  0  0  0  0  0
  -23.5335  -32.1440   23.7532 O   0  0  0  0  0  0
  -29.2560  -20.2691   20.0758 C   0  0  0  0  0  0
  -31.0854  -18.9708   19.2267 C   0  0  0  0  0  0
  -29.9489  -19.0339   20.0544 C   0  0  0  0  0  0
  -29.6892  -21.3512   19.2744 C   0  0  0  0  0  0
  -30.8894  -21.1843   18.5386 C   0  0  0  0  0  0
  -31.5174  -22.2611   17.6675 C   0  0  0  0  0  0
  -28.3824  -18.0655   21.8688 C   0  0  0  0  0  0
  -28.7344  -22.5393   19.0916 C   0  0  0  0  0  0
  -29.2776  -23.9784   19.2487 C   0  0  0  0  0  0
  -28.5115  -24.9320   18.3111 C   0  0  0  0  0  0
  -30.5017  -16.8182   21.3541 C   0  0  0  0  0  0
  -28.7925  -26.4224   18.5818 C   0  0  0  0  0  0
  -29.4146  -17.7659   20.7609 C   0  0  1  0  0  0
  -31.5665  -20.0177   18.5286 N   0  0  0  0  0  0
  -30.0842  -15.4054   21.2852 N   0  0  0  0  0  0
  -31.4663  -12.3693   19.1331 H   0  0  0  0  0  0
  -30.2825  -11.2684   19.7905 H   0  0  0  0  0  0
  -29.7410  -11.8468   17.3917 H   0  0  0  0  0  0
  -29.7094  -13.5386   17.8053 H   0  0  0  0  0  0
  -27.7974  -11.3614   18.7651 H   0  0  0  0  0  0
  -27.3884  -12.7421   17.7747 H   0  0  0  0  0  0
  -27.7174  -14.2731   19.6173 H   0  0  0  0  0  0
  -28.6597  -11.9095   21.2976 H   0  0  0  0  0  0
  -28.4687  -13.5289   21.8935 H   0  0  0  0  0  0
  -25.2712   -9.5749   22.4722 H   0  0  0  0  0  0
  -23.9982   -7.4649   22.7477 H   0  0  0  0  0  0
  -21.0797   -8.8722   19.8970 H   0  0  0  0  0  0
  -22.3585  -10.9651   19.6169 H   0  0  0  0  0  0
  -21.1922   -7.6092   23.9658 H   0  0  0  0  0  0
  -21.1576   -6.0501   25.9060 H   0  0  0  0  0  0
  -22.0561   -2.7552   23.2885 H   0  0  0  0  0  0
  -22.3978  -12.0044   22.4924 H   0  0  0  0  0  0
  -21.1048  -13.1398   22.2490 H   0  0  0  0  0  0
  -24.6831  -15.8640   20.5072 H   0  0  0  0  0  0
  -26.3066  -15.6144   20.1067 H   0  0  0  0  0  0
  -26.7082  -32.5556   23.1150 H   0  0  0  0  0  0
  -24.9951  -33.9774   25.0424 H   0  0  0  0  0  0
  -22.6829  -31.3074   21.4158 H   0  0  0  0  0  0
  -23.3702  -35.9730   23.3389 H   0  0  0  0  0  0
  -24.3562  -36.8858   22.2039 H   0  0  0  0  0  0
  -23.7333  -37.6605   23.6602 H   0  0  0  0  0  0
  -26.0234  -31.6013   20.5874 H   0  0  0  0  0  0
  -26.8178  -30.9008   21.9731 H   0  0  0  0  0  0
  -28.1075  -29.1278   21.1248 H   0  0  0  0  0  0
  -26.0118  -26.0067   18.9850 H   0  0  0  0  0  0
  -23.9615  -27.3079   19.0446 H   0  0  0  0  0  0
  -23.6998  -30.5925   19.4024 H   0  0  0  0  0  0
  -22.7322  -29.2325   19.8895 H   0  0  0  0  0  0
  -25.1306  -36.1989   25.0849 H   0  0  0  0  0  0
  -20.9903  -28.3211   24.1498 H   0  0  0  0  0  0
  -20.5672  -26.2256   23.3608 H   0  0  0  0  0  0
  -21.6632  -26.7464   22.1226 H   0  0  0  0  0  0
  -19.6893  -25.6318   21.1239 H   0  0  0  0  0  0
  -19.6699  -27.3238   20.6771 H   0  0  0  0  0  0
  -17.4191  -26.6708   21.4011 H   0  0  0  0  0  0
  -18.0290  -26.0094   22.9020 H   0  0  0  0  0  0
  -19.7917  -30.7275   24.2306 H   0  0  0  0  0  0
  -17.4996  -31.6280   24.5181 H   0  0  0  0  0  0
  -15.5342  -30.3015   23.7639 H   0  0  0  0  0  0
  -15.8647  -28.0875   22.7002 H   0  0  0  0  0  0
  -24.5892  -30.7075   25.7798 H   0  0  0  0  0  0
  -24.8968  -32.2856   26.4959 H   0  0  0  0  0  0
  -25.8123  -30.8823   27.0183 H   0  0  0  0  0  0
  -26.2773  -29.6814   24.1146 H   0  0  0  0  0  0
  -27.4112  -29.7286   25.4453 H   0  0  0  0  0  0
  -27.8586  -30.4355   23.9100 H   0  0  0  0  0  0
  -27.2644  -33.3583   26.2093 H   0  0  0  0  0  0
  -28.3813  -32.6954   25.0258 H   0  0  0  0  0  0
  -28.0754  -31.8408   26.5306 H   0  0  0  0  0  0
  -28.2667  -38.0061   24.7409 H   0  0  0  0  0  0
  -28.0997  -36.2597   24.6441 H   0  0  0  0  0  0
  -27.2275  -37.1666   25.8873 H   0  0  0  0  0  0
  -20.9298  -29.8703   21.6956 H   0  0  0  0  0  0
  -26.0206  -38.2890   24.1309 H   0  0  0  0  0  0
  -28.3427  -20.3784   20.6390 H   0  0  0  0  0  0
  -31.6266  -18.0509   19.0793 H   0  0  0  0  0  0
  -32.1791  -22.8844   18.2721 H   0  0  0  0  0  0
  -30.7754  -22.9000   17.1931 H   0  0  0  0  0  0
  -32.1187  -21.8326   16.8628 H   0  0  0  0  0  0
  -28.8201  -18.6828   22.6521 H   0  0  0  0  0  0
  -28.0317  -17.1514   22.3527 H   0  0  0  0  0  0
  -27.5014  -18.5720   21.4831 H   0  0  0  0  0  0
  -27.8824  -22.4401   19.7708 H   0  0  0  0  0  0
  -28.3048  -22.4163   18.0965 H   0  0  0  0  0  0
  -30.3368  -24.0752   19.0209 H   0  0  0  0  0  0
  -29.1883  -24.2911   20.2888 H   0  0  0  0  0  0
  -27.4464  -24.7219   18.3630 H   0  0  0  0  0  0
  -28.7663  -24.6993   17.2751 H   0  0  0  0  0  0
  -31.4713  -16.9476   20.8777 H   0  0  0  0  0  0
  -30.6893  -17.0739   22.3972 H   0  0  0  0  0  0
  -28.2893  -27.0411   17.8331 H   0  0  0  0  0  0
  -29.8566  -26.6170   18.4402 H   0  0  0  0  0  0
  -28.8953  -17.2258   19.9629 H   0  0  0  0  0  0
  -29.1883  -15.1721   21.6820 H   0  0  0  0  0  0
  1 25  1  0  0  0
  1 30  2  0  0  0
  1 85  1  0  0  0
  2  3  1  0  0  0
  2 25  1  0  0  0
  2 86  1  0  0  0
  2 87  1  0  0  0
  3  4  1  0  0  0
  3 88  1  0  0  0
  3 89  1  0  0  0
  4  5  1  0  0  0
  4 90  1  0  0  0
  4 91  1  0  0  0
  5  6  1  0  0  0
  5 26  1  0  0  0
  5 92  1  0  0  0
  6 25  1  0  0  0
  6 93  1  0  0  0
  6 94  1  0  0  0
  7  8  2  0  0  0
  7 26  1  0  0  0
  7 29  1  0  0  0
  8  9  1  0  0  0
  8 22  1  0  0  0
  9 10  1  0  0  0
  9 27  2  0  0  0
 10 11  2  0  0  0
 10 15  1  0  0  0
 11 12  1  0  0  0
 11 95  1  0  0  0
 12 13  2  0  0  0
 12 96  1  0  0  0
 13 14  1  0  0  0
 13 31  1  0  0  0
 14 15  2  0  0  0
 14 97  1  0  0  0
 15 98  1  0  0  0
 16 17  2  0  0  0
 16 21  1  0  0  0
 16 31  1  0  0  0
 17 18  1  0  0  0
 17 99  1  0  0  0
 18 19  2  0  0  0
 18100  1  0  0  0
 19 20  1  0  0  0
 19 24  1  0  0  0
 20 21  2  0  0  0
 20101  1  0  0  0
 21 23  1  0  0  0
 22 28  1  0  0  0
 22 32  2  0  0  0
 26 27  1  0  0  0
 28102  1  0  0  0
 28103  1  0  0  0
 29104  1  0  0  0
 29105  1  0  0  0
 33 34  1  0  0  0
 33 66  1  0  0  0
 33 70  2  0  0  0
 34 36  1  0  0  0
 34 59  1  0  0  0
 34106  1  0  0  0
 35 44  2  0  0  0
 35 45  1  0  0  0
 35 68  1  0  0  0
 36 56  1  0  0  0
 36107  1  0  0  0
 37 39  1  0  0  0
 37 47  1  0  0  0
 37 66  1  0  0  0
 37108  1  0  0  0
 38 43  2  0  0  0
 38 46  1  0  0  0
 38 47  1  0  0  0
 39 64  1  0  0  0
 39 67  2  0  0  0
 40 52  1  0  0  0
 40 53  2  0  0  0
 40 58  1  0  0  0
 41109  1  0  0  0
 41110  1  0  0  0
 41111  1  0  0  0
 41 48  1  0  0  0
 42 43  1  0  0  0
 42 66  1  0  0  0
 42112  1  0  0  0
 42113  1  0  0  0
 43 44  1  0  0  0
 44114  1  0  0  0
 45 46  2  0  0  0
 45115  1  0  0  0
 46116  1  0  0  0
 47117  1  0  0  0
 47118  1  0  0  0
 48 56  1  0  0  0
 48 65  1  0  0  0
 48119  1  0  0  0
 49 50  1  0  0  0
 49 53  1  0  0  0
 49 64  1  0  0  0
 49120  1  0  0  0
 50 51  1  0  0  0
 50121  1  0  0  0
 50122  1  0  0  0
 51 52  1  0  0  0
 51123  1  0  0  0
 51124  1  0  0  0
 52125  1  0  0  0
 52126  1  0  0  0
 53 54  1  0  0  0
 54 55  2  0  0  0
 54127  1  0  0  0
 55 57  1  0  0  0
 55128  1  0  0  0
 56 69  2  0  0  0
 57 58  2  0  0  0
 57129  1  0  0  0
 58130  1  0  0  0
 59 60  1  0  0  0
 59 61  1  0  0  0
 59 62  1  0  0  0
 60131  1  0  0  0
 60132  1  0  0  0
 60133  1  0  0  0
 61134  1  0  0  0
 61135  1  0  0  0
 61136  1  0  0  0
 62137  1  0  0  0
 62138  1  0  0  0
 62139  1  0  0  0
 63 65  1  0  0  0
 63140  1  0  0  0
 63141  1  0  0  0
 63142  1  0  0  0
 64143  1  0  0  0
 65144  1  0  0  0
 68 82  1  0  0  0
 71 73  2  0  0  0
 71 74  1  0  0  0
 71145  1  0  0  0
 72 73  1  0  0  0
 72 84  2  0  0  0
 72146  1  0  0  0
 73 83  1  0  0  0
 74 75  2  0  0  0
 74 78  1  0  0  0
 75 76  1  0  0  0
 75 84  1  0  0  0
 76147  1  0  0  0
 76148  1  0  0  0
 76149  1  0  0  0
 77150  1  0  0  0
 77151  1  0  0  0
 77152  1  0  0  0
 77 83  1  0  0  0
 78 79  1  0  0  0
 78153  1  0  0  0
 78154  1  0  0  0
 79 80  1  0  0  0
 79155  1  0  0  0
 79156  1  0  0  0
 80 82  1  0  0  0
 80157  1  0  0  0
 80158  1  0  0  0
 81 83  1  0  0  0
 81 85  1  0  0  0
 81159  1  0  0  0
 81160  1  0  0  0
 82161  1  0  0  0
 82162  1  0  0  0
 83163  1  0  0  0
 85164  1  0  0  0
M  ISO  4   1 100  68 101  82 101  85 100
M  END
> <chiral flag>
0

> <version>
0

> <s_m_source_file>
/data/baiqing/PycharmProjects/Reinvent-master-3.2/result/LINK_invent/BTK/process_docking_weight1_custom_sum_contain_oxygen_bond_distance_aromatic_linkinvent_7_9_3/rearranged_h_0084.sdf

> <i_m_source_file_index>
10

> <r_mmod_Potential_Energy-OPLS-2005>
-230.001419067383

> <r_mmod_Stretch_Energy-OPLS-2005>
38.4243583679199

> <r_mmod_Bend_Energy-OPLS-2005>
106.191123962402

> <r_mmod_Torsional_Energy-OPLS-2005>
237.539031982422

> <r_mmod_Improper_Torsional_Energy-OPLS-2005>
4.38527774810791

> <r_mmod_Van_der_Waal_Energy-OPLS-2005>
169.228530883789

> <r_mmod_Electrostatic_Energy-OPLS-2005>
-572.249694824219

> <r_mmod_Solvation_Energy-OPLS-2005>
-224.189239501953

> <b_mmod_Minimization_Converged-OPLS-2005>
0

> <r_mmod_RMS_Derivative-OPLS-2005>
5.93672466278076

$$$$
10
                    3D
 Structure written by MMmdl.
168176  0  0  1  0            999 V2000
  -30.6236  -14.7226   20.5235 C   0  0  0  0  0  0
  -30.4311  -12.4515   19.4759 C   0  0  0  0  0  0
  -29.5146  -12.5312   18.2345 C   0  0  0  0  0  0
  -28.0362  -12.3586   18.6348 C   0  0  0  0  0  0
  -27.6451  -13.2336   19.8572 C   0  0  2  0  0  0
  -28.6829  -13.1220   20.9923 C   0  0  0  0  0  0
  -25.2501  -13.8190   20.5688 C   0  0  0  0  0  0
  -24.1793  -13.0412   20.9172 C   0  0  0  0  0  0
  -24.6398  -11.6895   20.8719 C   0  0  0  0  0  0
  -23.9083  -10.4265   21.0397 C   0  0  0  0  0  0
  -24.3637   -9.4190   21.9178 C   0  0  0  0  0  0
  -23.6310   -8.2231   22.0746 C   0  0  0  0  0  0
  -22.4290   -8.0269   21.3534 C   0  0  0  0  0  0
  -21.9928   -9.0236   20.4627 C   0  0  0  0  0  0
  -22.7252  -10.2112   20.3041 C   0  0  0  0  0  0
  -21.6846   -6.0742   22.5285 C   0  0  0  0  0  0
  -21.4009   -6.5648   23.8218 C   0  0  0  0  0  0
  -21.3672   -5.6797   24.9181 C   0  0  0  0  0  0
  -21.6056   -4.3062   24.7242 C   0  0  0  0  0  0
  -21.8818   -3.8156   23.4357 C   0  0  0  0  0  0
  -21.9188   -4.6974   22.3414 C   0  0  0  0  0  0
  -22.7808  -13.5181   21.1857 C   0  0  0  0  0  0
  -22.1650   -4.2157   21.0990 F   0  0  0  0  0  0
  -21.5635   -3.4552   25.7757 F   0  0  0  0  0  0
  -29.9934  -13.4958   20.4363 N   0  0  0  0  0  0
  -26.2941  -12.9401   20.3279 N   0  0  0  0  0  0
  -25.9332  -11.6533   20.5733 N   0  0  0  0  0  0
  -22.0477  -12.8154   22.0422 N   0  0  0  0  0  0
  -25.4188  -15.1923   20.4165 N   0  0  0  0  0  0
  -31.7536  -14.8569   20.0391 O   0  0  0  0  0  0
  -21.6635   -6.8878   21.4242 O   0  0  0  0  0  0
  -22.3479  -14.5472   20.6699 O   0  0  0  0  0  0
  -24.6309  -31.8564   23.1991 C   0  0  0  0  0  0
  -25.9136  -32.4763   23.8340 C   0  0  1  0  0  0
  -27.2222  -27.2688   20.1209 C   0  0  0  0  0  0
  -25.5930  -33.8570   24.2265 N   0  0  0  0  0  0
  -23.4284  -30.4777   21.5439 C   0  0  2  0  0  0
  -24.8756  -28.9288   20.1129 C   0  0  0  0  0  0
  -22.7498  -29.4601   22.4923 C   0  0  0  0  0  0
  -18.0297  -28.1396   22.8494 C   0  0  0  0  0  0
  -24.1486  -36.7274   23.2642 C   0  0  0  0  0  0
  -25.9748  -30.7720   21.3802 C   0  0  0  0  0  0
  -26.0493  -29.3962   20.7172 C   0  0  0  0  0  0
  -27.2259  -28.5809   20.7072 C   0  0  0  0  0  0
  -26.0188  -26.8665   19.4960 C   0  0  0  0  0  0
  -24.8661  -27.6729   19.4899 C   0  0  0  0  0  0
  -23.6462  -29.8134   20.1602 C   0  0  0  0  0  0
  -25.4116  -36.3073   24.0322 C   0  0  1  0  0  0
  -20.5900  -28.3704   23.1275 C   0  0  2  0  0  0
  -20.6798  -26.9423   22.5418 C   0  0  0  0  0  0
  -19.5764  -26.6386   21.5233 C   0  0  0  0  0  0
  -18.1936  -26.7943   22.1631 C   0  0  0  0  0  0
  -19.1545  -28.8870   23.2881 C   0  0  0  0  0  0
  -18.9466  -30.1474   23.8902 C   0  0  0  0  0  0
  -17.6456  -30.6600   24.0562 C   0  0  0  0  0  0
  -25.9055  -34.9442   23.5091 C   0  0  0  0  0  0
  -16.5350  -29.9094   23.6333 C   0  0  0  0  0  0
  -16.7277  -28.6508   23.0365 C   0  0  0  0  0  0
  -26.4496  -31.6606   25.0746 C   0  0  0  0  0  0
  -25.3700  -31.3762   26.1443 C   0  0  0  0  0  0
  -27.0375  -30.3032   24.6271 C   0  0  0  0  0  0
  -27.6028  -32.4363   25.7535 C   0  0  0  0  0  0
  -27.5574  -37.1795   24.8454 C   0  0  0  0  0  0
  -21.4210  -29.3044   22.3662 N   0  0  0  0  0  0
  -26.4286  -37.3775   23.9399 N   0  0  0  0  0  0
  -24.6970  -31.0520   22.0971 N   0  0  0  0  0  0
  -23.4193  -28.8138   23.3021 O   0  0  0  0  0  0
  -28.3272  -26.3869   20.1619 O   0  0  0  0  0  0
  -26.5620  -34.8905   22.4662 O   0  0  0  0  0  0
  -23.5457  -32.1382   23.7281 O   0  0  0  0  0  0
  -29.8546  -21.2292   20.7069 C   0  0  0  0  0  0
  -29.0280  -22.2565   20.2418 C   0  0  0  0  0  0
  -27.9314  -21.4593   19.7566 C   0  0  0  0  0  0
  -24.2548  -22.7356   19.6516 C   0  0  0  0  0  0
  -30.3137  -24.1187   19.1315 C   0  0  0  0  0  0
  -29.9728  -24.1897   21.5981 C   0  0  0  0  0  0
  -29.7450  -15.9467   22.4238 C   0  0  0  0  0  0
  -26.6330  -21.9239   19.1511 C   0  0  0  0  0  0
  -25.5730  -22.2036   20.2303 C   0  0  0  0  0  0
  -29.7453  -18.5887   21.0800 C   0  0  0  0  0  0
  -29.7556  -17.1926   20.2430 C   0  0  0  0  0  0
  -28.0929  -24.9052   20.0517 C   0  0  0  0  0  0
  -29.3007  -23.8425   20.2569 C   0  0  0  0  0  0
  -28.1003  -20.1309   19.9303 N   0  0  0  0  0  0
  -29.3109  -19.9419   20.5097 N   0  0  0  0  0  0
  -29.9110  -15.8372   20.9691 N   0  0  0  0  0  0
  -31.4753  -12.5704   19.1788 H   0  0  0  0  0  0
  -30.3619  -11.4637   19.9343 H   0  0  0  0  0  0
  -29.7960  -11.7677   17.5071 H   0  0  0  0  0  0
  -29.6519  -13.4929   17.7353 H   0  0  0  0  0  0
  -27.8762  -11.3041   18.8625 H   0  0  0  0  0  0
  -27.3893  -12.5831   17.7854 H   0  0  0  0  0  0
  -27.6499  -14.2683   19.5101 H   0  0  0  0  0  0
  -28.7109  -12.1034   21.3819 H   0  0  0  0  0  0
  -28.3901  -13.7527   21.8305 H   0  0  0  0  0  0
  -25.2800   -9.5677   22.4741 H   0  0  0  0  0  0
  -24.0032   -7.4633   22.7462 H   0  0  0  0  0  0
  -21.0855   -8.8724   19.8950 H   0  0  0  0  0  0
  -22.3690  -10.9638   19.6138 H   0  0  0  0  0  0
  -21.1980   -7.6153   23.9721 H   0  0  0  0  0  0
  -21.1501   -6.0537   25.9085 H   0  0  0  0  0  0
  -22.0589   -2.7618   23.2858 H   0  0  0  0  0  0
  -22.4155  -11.9864   22.4868 H   0  0  0  0  0  0
  -21.1075  -13.1135   22.2596 H   0  0  0  0  0  0
  -24.6565  -15.8482   20.5438 H   0  0  0  0  0  0
  -26.2816  -15.6381   20.1317 H   0  0  0  0  0  0
  -26.7209  -32.5417   23.1086 H   0  0  0  0  0  0
  -25.0080  -33.9715   25.0412 H   0  0  0  0  0  0
  -22.7263  -31.2999   21.3966 H   0  0  0  0  0  0
  -23.3770  -35.9586   23.3294 H   0  0  0  0  0  0
  -24.3572  -36.8913   22.2057 H   0  0  0  0  0  0
  -23.7204  -37.6451   23.6688 H   0  0  0  0  0  0
  -26.1162  -31.5401   20.6183 H   0  0  0  0  0  0
  -26.8495  -30.8166   22.0179 H   0  0  0  0  0  0
  -28.1241  -28.9370   21.1931 H   0  0  0  0  0  0
  -25.9325  -25.9046   19.0144 H   0  0  0  0  0  0
  -23.9670  -27.3116   19.0098 H   0  0  0  0  0  0
  -23.7699  -30.5896   19.4041 H   0  0  0  0  0  0
  -22.7678  -29.2429   19.8519 H   0  0  0  0  0  0
  -25.1304  -36.1929   25.0816 H   0  0  0  0  0  0
  -20.9989  -28.3304   24.1395 H   0  0  0  0  0  0
  -20.5744  -26.2313   23.3626 H   0  0  0  0  0  0
  -21.6655  -26.7473   22.1170 H   0  0  0  0  0  0
  -19.6923  -25.6293   21.1267 H   0  0  0  0  0  0
  -19.6700  -27.3203   20.6767 H   0  0  0  0  0  0
  -17.4208  -26.6712   21.4025 H   0  0  0  0  0  0
  -18.0310  -26.0089   22.9029 H   0  0  0  0  0  0
  -19.7934  -30.7301   24.2273 H   0  0  0  0  0  0
  -17.5002  -31.6274   24.5163 H   0  0  0  0  0  0
  -15.5351  -30.2989   23.7653 H   0  0  0  0  0  0
  -15.8684  -28.0817   22.7088 H   0  0  0  0  0  0
  -24.5859  -30.7151   25.7732 H   0  0  0  0  0  0
  -24.8922  -32.2948   26.4870 H   0  0  0  0  0  0
  -25.7972  -30.8901   27.0226 H   0  0  0  0  0  0
  -26.3000  -29.6763   24.1251 H   0  0  0  0  0  0
  -27.3999  -29.7307   25.4821 H   0  0  0  0  0  0
  -27.8890  -30.4308   23.9581 H   0  0  0  0  0  0
  -27.2616  -33.3663   26.2102 H   0  0  0  0  0  0
  -28.3853  -32.6933   25.0383 H   0  0  0  0  0  0
  -28.0703  -31.8516   26.5470 H   0  0  0  0  0  0
  -28.2562  -38.0123   24.7534 H   0  0  0  0  0  0
  -28.1097  -36.2643   24.6254 H   0  0  0  0  0  0
  -27.2285  -37.1400   25.8854 H   0  0  0  0  0  0
  -20.9424  -29.8741   21.6827 H   0  0  0  0  0  0
  -26.0164  -38.2842   24.1441 H   0  0  0  0  0  0
  -30.8075  -21.3164   21.2086 H   0  0  0  0  0  0
  -23.5496  -22.9770   20.4483 H   0  0  0  0  0  0
  -23.7849  -21.9947   19.0040 H   0  0  0  0  0  0
  -24.4129  -23.6395   19.0626 H   0  0  0  0  0  0
  -31.2248  -23.5313   19.2568 H   0  0  0  0  0  0
  -30.6028  -25.1707   19.1105 H   0  0  0  0  0  0
  -29.8979  -23.8709   18.1533 H   0  0  0  0  0  0
  -30.8993  -23.6340   21.7431 H   0  0  0  0  0  0
  -29.3156  -23.9673   22.4389 H   0  0  0  0  0  0
  -30.2300  -25.2481   21.6510 H   0  0  0  0  0  0
  -30.4641  -16.6541   22.8391 H   0  0  0  0  0  0
  -29.9087  -15.0060   22.9522 H   0  0  0  0  0  0
  -28.7388  -16.2879   22.6726 H   0  0  0  0  0  0
  -26.2480  -21.1703   18.4622 H   0  0  0  0  0  0
  -26.7930  -22.8065   18.5357 H   0  0  0  0  0  0
  -25.3807  -21.2898   20.7942 H   0  0  0  0  0  0
  -25.9634  -22.9192   20.9547 H   0  0  0  0  0  0
  -30.7526  -18.7269   21.4721 H   0  0  0  0  0  0
  -29.1169  -18.4559   21.9594 H   0  0  0  0  0  0
  -30.5318  -17.2635   19.4802 H   0  0  0  0  0  0
  -28.8193  -17.1238   19.6878 H   0  0  0  0  0  0
  -27.3047  -24.6621   20.7635 H   0  0  0  0  0  0
  -27.6919  -24.7276   19.0562 H   0  0  0  0  0  0
  1 25  1  0  0  0
  1 30  2  0  0  0
  1 86  1  0  0  0
  2  3  1  0  0  0
  2 25  1  0  0  0
  2 87  1  0  0  0
  2 88  1  0  0  0
  3  4  1  0  0  0
  3 89  1  0  0  0
  3 90  1  0  0  0
  4  5  1  0  0  0
  4 91  1  0  0  0
  4 92  1  0  0  0
  5  6  1  0  0  0
  5 26  1  0  0  0
  5 93  1  0  0  0
  6 25  1  0  0  0
  6 94  1  0  0  0
  6 95  1  0  0  0
  7  8  2  0  0  0
  7 26  1  0  0  0
  7 29  1  0  0  0
  8  9  1  0  0  0
  8 22  1  0  0  0
  9 10  1  0  0  0
  9 27  2  0  0  0
 10 11  2  0  0  0
 10 15  1  0  0  0
 11 12  1  0  0  0
 11 96  1  0  0  0
 12 13  2  0  0  0
 12 97  1  0  0  0
 13 14  1  0  0  0
 13 31  1  0  0  0
 14 15  2  0  0  0
 14 98  1  0  0  0
 15 99  1  0  0  0
 16 17  2  0  0  0
 16 21  1  0  0  0
 16 31  1  0  0  0
 17 18  1  0  0  0
 17100  1  0  0  0
 18 19  2  0  0  0
 18101  1  0  0  0
 19 20  1  0  0  0
 19 24  1  0  0  0
 20 21  2  0  0  0
 20102  1  0  0  0
 21 23  1  0  0  0
 22 28  1  0  0  0
 22 32  2  0  0  0
 26 27  1  0  0  0
 28103  1  0  0  0
 28104  1  0  0  0
 29105  1  0  0  0
 29106  1  0  0  0
 33 34  1  0  0  0
 33 66  1  0  0  0
 33 70  2  0  0  0
 34 36  1  0  0  0
 34 59  1  0  0  0
 34107  1  0  0  0
 35 44  2  0  0  0
 35 45  1  0  0  0
 35 68  1  0  0  0
 36 56  1  0  0  0
 36108  1  0  0  0
 37 39  1  0  0  0
 37 47  1  0  0  0
 37 66  1  0  0  0
 37109  1  0  0  0
 38 43  2  0  0  0
 38 46  1  0  0  0
 38 47  1  0  0  0
 39 64  1  0  0  0
 39 67  2  0  0  0
 40 52  1  0  0  0
 40 53  2  0  0  0
 40 58  1  0  0  0
 41110  1  0  0  0
 41111  1  0  0  0
 41112  1  0  0  0
 41 48  1  0  0  0
 42 43  1  0  0  0
 42 66  1  0  0  0
 42113  1  0  0  0
 42114  1  0  0  0
 43 44  1  0  0  0
 44115  1  0  0  0
 45 46  2  0  0  0
 45116  1  0  0  0
 46117  1  0  0  0
 47118  1  0  0  0
 47119  1  0  0  0
 48 56  1  0  0  0
 48 65  1  0  0  0
 48120  1  0  0  0
 49 50  1  0  0  0
 49 53  1  0  0  0
 49 64  1  0  0  0
 49121  1  0  0  0
 50 51  1  0  0  0
 50122  1  0  0  0
 50123  1  0  0  0
 51 52  1  0  0  0
 51124  1  0  0  0
 51125  1  0  0  0
 52126  1  0  0  0
 52127  1  0  0  0
 53 54  1  0  0  0
 54 55  2  0  0  0
 54128  1  0  0  0
 55 57  1  0  0  0
 55129  1  0  0  0
 56 69  2  0  0  0
 57 58  2  0  0  0
 57130  1  0  0  0
 58131  1  0  0  0
 59 60  1  0  0  0
 59 61  1  0  0  0
 59 62  1  0  0  0
 60132  1  0  0  0
 60133  1  0  0  0
 60134  1  0  0  0
 61135  1  0  0  0
 61136  1  0  0  0
 61137  1  0  0  0
 62138  1  0  0  0
 62139  1  0  0  0
 62140  1  0  0  0
 63 65  1  0  0  0
 63141  1  0  0  0
 63142  1  0  0  0
 63143  1  0  0  0
 64144  1  0  0  0
 65145  1  0  0  0
 68 82  1  0  0  0
 71 72  2  0  0  0
 71 85  1  0  0  0
 71146  1  0  0  0
 72 73  1  0  0  0
 72 83  1  0  0  0
 73 78  1  0  0  0
 73 84  2  0  0  0
 74 79  1  0  0  0
 74147  1  0  0  0
 74148  1  0  0  0
 74149  1  0  0  0
 75150  1  0  0  0
 75151  1  0  0  0
 75152  1  0  0  0
 75 83  1  0  0  0
 76 83  1  0  0  0
 76153  1  0  0  0
 76154  1  0  0  0
 76155  1  0  0  0
 77 86  1  0  0  0
 77156  1  0  0  0
 77157  1  0  0  0
 77158  1  0  0  0
 78 79  1  0  0  0
 78159  1  0  0  0
 78160  1  0  0  0
 79161  1  0  0  0
 79162  1  0  0  0
 80 81  1  0  0  0
 80 85  1  0  0  0
 80163  1  0  0  0
 80164  1  0  0  0
 81 86  1  0  0  0
 81165  1  0  0  0
 81166  1  0  0  0
 82 83  1  0  0  0
 82167  1  0  0  0
 82168  1  0  0  0
 84 85  1  0  0  0
M  ISO  4   1 100  68 101  82 101  86 100
M  END
> <chiral flag>
0

> <version>
0

> <s_m_source_file>
/data/baiqing/PycharmProjects/Reinvent-master-3.2/result/LINK_invent/BTK/process_docking_weight1_custom_sum_contain_oxygen_bond_distance_aromatic_linkinvent_7_9_3/rearranged_h_0084.sdf

> <i_m_source_file_index>
11

> <r_mmod_Potential_Energy-OPLS-2005>
281.517913818359

> <r_mmod_Stretch_Energy-OPLS-2005>
129.203369140625

> <r_mmod_Bend_Energy-OPLS-2005>
179.696350097656

> <r_mmod_Torsional_Energy-OPLS-2005>
291.304626464844

> <r_mmod_Improper_Torsional_Energy-OPLS-2005>
7.27355194091797

> <r_mmod_Van_der_Waal_Energy-OPLS-2005>
115.501014709473

> <r_mmod_Electrostatic_Energy-OPLS-2005>
-316.512451171875

> <r_mmod_Solvation_Energy-OPLS-2005>
-199.054092407227

> <b_mmod_Minimization_Converged-OPLS-2005>
0

> <r_mmod_RMS_Derivative-OPLS-2005>
2.79459738731384

$$$$
11
                    3D
 Structure written by MMmdl.
152160  0  0  1  0            999 V2000
  -30.4939  -14.9575   20.4433 C   0  0  0  0  0  0
  -30.4573  -12.5898   19.4966 C   0  0  0  0  0  0
  -29.5305  -12.5423   18.2566 C   0  0  0  0  0  0
  -28.0624  -12.3172   18.6699 C   0  0  0  0  0  0
  -27.6371  -13.2384   19.8409 C   0  0  2  0  0  0
  -28.6794  -13.2379   20.9797 C   0  0  0  0  0  0
  -25.2504  -13.8191   20.5683 C   0  0  0  0  0  0
  -24.1805  -13.0432   20.9211 C   0  0  0  0  0  0
  -24.6408  -11.6914   20.8740 C   0  0  0  0  0  0
  -23.9084  -10.4293   21.0406 C   0  0  0  0  0  0
  -24.3633   -9.4207   21.9185 C   0  0  0  0  0  0
  -23.6301   -8.2245   22.0757 C   0  0  0  0  0  0
  -22.4284   -8.0285   21.3547 C   0  0  0  0  0  0
  -21.9921   -9.0260   20.4649 C   0  0  0  0  0  0
  -22.7255  -10.2137   20.3056 C   0  0  0  0  0  0
  -21.6856   -6.0734   22.5280 C   0  0  0  0  0  0
  -21.4017   -6.5639   23.8212 C   0  0  0  0  0  0
  -21.3659   -5.6792   24.9175 C   0  0  0  0  0  0
  -21.6043   -4.3054   24.7226 C   0  0  0  0  0  0
  -21.8821   -3.8146   23.4347 C   0  0  0  0  0  0
  -21.9195   -4.6962   22.3403 C   0  0  0  0  0  0
  -22.7826  -13.5212   21.1868 C   0  0  0  0  0  0
  -22.1662   -4.2147   21.0981 F   0  0  0  0  0  0
  -21.5630   -3.4539   25.7740 F   0  0  0  0  0  0
  -29.9634  -13.6650   20.4042 N   0  0  0  0  0  0
  -26.2922  -12.9401   20.3224 N   0  0  0  0  0  0
  -25.9338  -11.6541   20.5711 N   0  0  0  0  0  0
  -22.0474  -12.8202   22.0424 N   0  0  0  0  0  0
  -25.4188  -15.1919   20.4097 N   0  0  0  0  0  0
  -31.6728  -15.0782   20.0812 O   0  0  0  0  0  0
  -21.6645   -6.8884   21.4246 O   0  0  0  0  0  0
  -22.3509  -14.5518   20.6716 O   0  0  0  0  0  0
  -24.6448  -31.8430   23.1874 C   0  0  0  0  0  0
  -25.9214  -32.4692   23.8267 C   0  0  1  0  0  0
  -27.2228  -27.1283   20.1467 C   0  0  0  0  0  0
  -25.5960  -33.8499   24.2189 N   0  0  0  0  0  0
  -23.4488  -30.4622   21.5329 C   0  0  2  0  0  0
  -24.8993  -28.8863   20.1108 C   0  0  0  0  0  0
  -22.7571  -29.4547   22.4850 C   0  0  0  0  0  0
  -18.0310  -28.1398   22.8472 C   0  0  0  0  0  0
  -24.1495  -36.7250   23.2640 C   0  0  0  0  0  0
  -26.0063  -30.7127   21.3883 C   0  0  0  0  0  0
  -26.0776  -29.3236   20.7288 C   0  0  0  0  0  0
  -27.2395  -28.4613   20.7289 C   0  0  0  0  0  0
  -26.0163  -26.7953   19.4904 C   0  0  0  0  0  0
  -24.8820  -27.6357   19.4764 C   0  0  0  0  0  0
  -23.6759  -29.7893   20.1535 C   0  0  0  0  0  0
  -25.4130  -36.3030   24.0312 C   0  0  1  0  0  0
  -20.5922  -28.3731   23.1226 C   0  0  2  0  0  0
  -20.6796  -26.9432   22.5400 C   0  0  0  0  0  0
  -19.5772  -26.6384   21.5209 C   0  0  0  0  0  0
  -18.1953  -26.7936   22.1619 C   0  0  0  0  0  0
  -19.1565  -28.8883   23.2841 C   0  0  0  0  0  0
  -18.9480  -30.1477   23.8870 C   0  0  0  0  0  0
  -17.6476  -30.6592   24.0561 C   0  0  0  0  0  0
  -25.9079  -34.9404   23.5060 C   0  0  0  0  0  0
  -16.5368  -29.9083   23.6338 C   0  0  0  0  0  0
  -16.7294  -28.6504   23.0356 C   0  0  0  0  0  0
  -26.4536  -31.6560   25.0711 C   0  0  0  0  0  0
  -25.3713  -31.3747   26.1398 C   0  0  0  0  0  0
  -27.0406  -30.2955   24.6303 C   0  0  0  0  0  0
  -27.6067  -32.4326   25.7497 C   0  0  0  0  0  0
  -27.5582  -37.1781   24.8464 C   0  0  0  0  0  0
  -21.4263  -29.3052   22.3591 N   0  0  0  0  0  0
  -26.4294  -37.3743   23.9405 N   0  0  0  0  0  0
  -24.7199  -31.0274   22.0912 N   0  0  0  0  0  0
  -23.4206  -28.8095   23.3008 O   0  0  0  0  0  0
  -28.2752  -26.1379   20.2166 O   0  0  0  0  0  0
  -26.5664  -34.8899   22.4639 O   0  0  0  0  0  0
  -23.5564  -32.1313   23.7085 O   0  0  0  0  0  0
  -28.7503  -18.9710   20.6409 C   0  0  0  0  0  0
  -29.6968  -17.9117   20.5102 C   0  0  0  0  0  0
  -30.5287  -19.9841   19.8975 C   0  0  0  0  0  0
  -31.5024  -20.9848   19.3705 C   0  0  0  0  0  0
  -29.6015  -16.2997   20.8784 C   0  0  0  0  0  0
  -28.9837  -23.2619   20.3299 C   0  0  0  0  0  0
  -28.4699  -21.6623   20.1184 C   0  0  0  0  0  0
  -27.9939  -24.6101   20.0391 C   0  0  0  0  0  0
  -29.2579  -20.2540   20.2717 N   0  0  0  0  0  0
  -30.7819  -18.6434   20.0505 N   0  3  0  0  0  0
  -31.4880  -12.7649   19.1847 H   0  0  0  0  0  0
  -30.4638  -11.6274   20.0112 H   0  0  0  0  0  0
  -29.8520  -11.7570   17.5719 H   0  0  0  0  0  0
  -29.6133  -13.4803   17.7055 H   0  0  0  0  0  0
  -27.9593  -11.2730   18.9674 H   0  0  0  0  0  0
  -27.4003  -12.4564   17.8146 H   0  0  0  0  0  0
  -27.6070  -14.2432   19.4208 H   0  0  0  0  0  0
  -28.7640  -12.2488   21.4322 H   0  0  0  0  0  0
  -28.3717  -13.9117   21.7804 H   0  0  0  0  0  0
  -25.2784   -9.5674   22.4752 H   0  0  0  0  0  0
  -24.0009   -7.4636   22.7479 H   0  0  0  0  0  0
  -21.0850   -8.8781   19.8957 H   0  0  0  0  0  0
  -22.3719  -10.9674   19.6158 H   0  0  0  0  0  0
  -21.2013   -7.6148   23.9716 H   0  0  0  0  0  0
  -21.1477   -6.0521   25.9078 H   0  0  0  0  0  0
  -22.0601   -2.7607   23.2849 H   0  0  0  0  0  0
  -22.4092  -11.9867   22.4813 H   0  0  0  0  0  0
  -21.1092  -13.1226   22.2630 H   0  0  0  0  0  0
  -24.6472  -15.8421   20.5146 H   0  0  0  0  0  0
  -26.2545  -15.6299   20.0453 H   0  0  0  0  0  0
  -26.7275  -32.5291   23.0987 H   0  0  0  0  0  0
  -25.0090  -33.9621   25.0325 H   0  0  0  0  0  0
  -22.7518  -31.2885   21.3770 H   0  0  0  0  0  0
  -23.3768  -35.9570   23.3284 H   0  0  0  0  0  0
  -24.3577  -36.8903   22.2057 H   0  0  0  0  0  0
  -23.7240  -37.6437   23.6690 H   0  0  0  0  0  0
  -26.1653  -31.4660   20.6155 H   0  0  0  0  0  0
  -26.8754  -30.7620   22.0328 H   0  0  0  0  0  0
  -28.1364  -28.7915   21.2336 H   0  0  0  0  0  0
  -25.9132  -25.8405   18.9981 H   0  0  0  0  0  0
  -23.9827  -27.2954   18.9815 H   0  0  0  0  0  0
  -23.8127  -30.5628   19.3971 H   0  0  0  0  0  0
  -22.7907  -29.2309   19.8437 H   0  0  0  0  0  0
  -25.1318  -36.1861   25.0805 H   0  0  0  0  0  0
  -21.0019  -28.3329   24.1345 H   0  0  0  0  0  0
  -20.5701  -26.2342   23.3621 H   0  0  0  0  0  0
  -21.6661  -26.7444   22.1194 H   0  0  0  0  0  0
  -19.6938  -25.6289   21.1257 H   0  0  0  0  0  0
  -19.6715  -27.3177   20.6725 H   0  0  0  0  0  0
  -17.4223  -26.6680   21.4022 H   0  0  0  0  0  0
  -18.0356  -26.0086   22.9024 H   0  0  0  0  0  0
  -19.7955  -30.7304   24.2227 H   0  0  0  0  0  0
  -17.5028  -31.6270   24.5166 H   0  0  0  0  0  0
  -15.5369  -30.2978   23.7678 H   0  0  0  0  0  0
  -15.8694  -28.0818   22.7084 H   0  0  0  0  0  0
  -24.5897  -30.7101   25.7701 H   0  0  0  0  0  0
  -24.8899  -32.2927   26.4775 H   0  0  0  0  0  0
  -25.7984  -30.8941   27.0207 H   0  0  0  0  0  0
  -26.3027  -29.6666   24.1311 H   0  0  0  0  0  0
  -27.4014  -29.7271   25.4885 H   0  0  0  0  0  0
  -27.8935  -30.4188   23.9626 H   0  0  0  0  0  0
  -27.2666  -33.3642   26.2029 H   0  0  0  0  0  0
  -28.3900  -32.6862   25.0341 H   0  0  0  0  0  0
  -28.0709  -31.8482   26.5450 H   0  0  0  0  0  0
  -28.2585  -38.0092   24.7519 H   0  0  0  0  0  0
  -28.1095  -36.2621   24.6286 H   0  0  0  0  0  0
  -27.2293  -37.1412   25.8865 H   0  0  0  0  0  0
  -20.9477  -29.8750   21.6755 H   0  0  0  0  0  0
  -26.0162  -38.2810   24.1415 H   0  0  0  0  0  0
  -27.7230  -18.8911   20.9716 H   0  0  0  0  0  0
  -31.0651  -21.4677   18.4968 H   0  0  0  0  0  0
  -32.4249  -20.4770   19.0903 H   0  0  0  0  0  0
  -31.7026  -21.7194   20.1501 H   0  0  0  0  0  0
  -28.5786  -16.0323   20.6220 H   0  0  0  0  0  0
  -29.6137  -16.2614   21.9669 H   0  0  0  0  0  0
  -29.8754  -23.3981   19.7189 H   0  0  0  0  0  0
  -29.3368  -23.3443   21.3578 H   0  0  0  0  0  0
  -28.0660  -21.6202   19.1067 H   0  0  0  0  0  0
  -27.5935  -21.5502   20.7566 H   0  0  0  0  0  0
  -27.0836  -24.4216   20.6093 H   0  0  0  0  0  0
  -27.6954  -24.5059   18.9959 H   0  0  0  0  0  0
  -31.6828  -18.2289   19.8376 H   0  0  0  0  0  0
  1 25  1  0  0  0
  1 30  2  0  0  0
  1 75  1  0  0  0
  2  3  1  0  0  0
  2 25  1  0  0  0
  2 81  1  0  0  0
  2 82  1  0  0  0
  3  4  1  0  0  0
  3 83  1  0  0  0
  3 84  1  0  0  0
  4  5  1  0  0  0
  4 85  1  0  0  0
  4 86  1  0  0  0
  5  6  1  0  0  0
  5 26  1  0  0  0
  5 87  1  0  0  0
  6 25  1  0  0  0
  6 88  1  0  0  0
  6 89  1  0  0  0
  7  8  2  0  0  0
  7 26  1  0  0  0
  7 29  1  0  0  0
  8  9  1  0  0  0
  8 22  1  0  0  0
  9 10  1  0  0  0
  9 27  2  0  0  0
 10 11  2  0  0  0
 10 15  1  0  0  0
 11 12  1  0  0  0
 11 90  1  0  0  0
 12 13  2  0  0  0
 12 91  1  0  0  0
 13 14  1  0  0  0
 13 31  1  0  0  0
 14 15  2  0  0  0
 14 92  1  0  0  0
 15 93  1  0  0  0
 16 17  2  0  0  0
 16 21  1  0  0  0
 16 31  1  0  0  0
 17 18  1  0  0  0
 17 94  1  0  0  0
 18 19  2  0  0  0
 18 95  1  0  0  0
 19 20  1  0  0  0
 19 24  1  0  0  0
 20 21  2  0  0  0
 20 96  1  0  0  0
 21 23  1  0  0  0
 22 28  1  0  0  0
 22 32  2  0  0  0
 26 27  1  0  0  0
 28 97  1  0  0  0
 28 98  1  0  0  0
 29 99  1  0  0  0
 29100  1  0  0  0
 33 34  1  0  0  0
 33 66  1  0  0  0
 33 70  2  0  0  0
 34 36  1  0  0  0
 34 59  1  0  0  0
 34101  1  0  0  0
 35 44  2  0  0  0
 35 45  1  0  0  0
 35 68  1  0  0  0
 36 56  1  0  0  0
 36102  1  0  0  0
 37 39  1  0  0  0
 37 47  1  0  0  0
 37 66  1  0  0  0
 37103  1  0  0  0
 38 43  2  0  0  0
 38 46  1  0  0  0
 38 47  1  0  0  0
 39 64  1  0  0  0
 39 67  2  0  0  0
 40 52  1  0  0  0
 40 53  2  0  0  0
 40 58  1  0  0  0
 41104  1  0  0  0
 41105  1  0  0  0
 41106  1  0  0  0
 41 48  1  0  0  0
 42 43  1  0  0  0
 42 66  1  0  0  0
 42107  1  0  0  0
 42108  1  0  0  0
 43 44  1  0  0  0
 44109  1  0  0  0
 45 46  2  0  0  0
 45110  1  0  0  0
 46111  1  0  0  0
 47112  1  0  0  0
 47113  1  0  0  0
 48 56  1  0  0  0
 48 65  1  0  0  0
 48114  1  0  0  0
 49 50  1  0  0  0
 49 53  1  0  0  0
 49 64  1  0  0  0
 49115  1  0  0  0
 50 51  1  0  0  0
 50116  1  0  0  0
 50117  1  0  0  0
 51 52  1  0  0  0
 51118  1  0  0  0
 51119  1  0  0  0
 52120  1  0  0  0
 52121  1  0  0  0
 53 54  1  0  0  0
 54 55  2  0  0  0
 54122  1  0  0  0
 55 57  1  0  0  0
 55123  1  0  0  0
 56 69  2  0  0  0
 57 58  2  0  0  0
 57124  1  0  0  0
 58125  1  0  0  0
 59 60  1  0  0  0
 59 61  1  0  0  0
 59 62  1  0  0  0
 60126  1  0  0  0
 60127  1  0  0  0
 60128  1  0  0  0
 61129  1  0  0  0
 61130  1  0  0  0
 61131  1  0  0  0
 62132  1  0  0  0
 62133  1  0  0  0
 62134  1  0  0  0
 63 65  1  0  0  0
 63135  1  0  0  0
 63136  1  0  0  0
 63137  1  0  0  0
 64138  1  0  0  0
 65139  1  0  0  0
 68 78  1  0  0  0
 71 72  2  0  0  0
 71 79  1  0  0  0
 71140  1  0  0  0
 72 75  1  0  0  0
 72 80  1  0  0  0
 73 74  1  0  0  0
 73 79  1  0  0  0
 73 80  2  0  0  0
 74141  1  0  0  0
 74142  1  0  0  0
 74143  1  0  0  0
 75144  1  0  0  0
 75145  1  0  0  0
 76 77  1  0  0  0
 76 78  1  0  0  0
 76146  1  0  0  0
 76147  1  0  0  0
 77 79  1  0  0  0
 77148  1  0  0  0
 77149  1  0  0  0
 78150  1  0  0  0
 78151  1  0  0  0
 80152  1  0  0  0
M  CHG  1  80   1
M  ISO  4   1 100  68 101  75 100  78 101
M  END
> <chiral flag>
0

> <version>
0

> <s_m_source_file>
/data/baiqing/PycharmProjects/Reinvent-master-3.2/result/LINK_invent/BTK/process_docking_weight1_custom_sum_contain_oxygen_bond_distance_aromatic_linkinvent_7_9_3/rearranged_h_0084.sdf

> <i_m_source_file_index>
12

> <r_mmod_Potential_Energy-OPLS-2005>
516.321350097656

> <r_mmod_Stretch_Energy-OPLS-2005>
273.909820556641

> <r_mmod_Bend_Energy-OPLS-2005>
288.565368652344

> <r_mmod_Torsional_Energy-OPLS-2005>
185.130722045898

> <r_mmod_Improper_Torsional_Energy-OPLS-2005>
3.40031981468201

> <r_mmod_Van_der_Waal_Energy-OPLS-2005>
107.846313476562

> <r_mmod_Electrostatic_Energy-OPLS-2005>
-134.115386962891

> <r_mmod_Solvation_Energy-OPLS-2005>
-406.709014892578

> <b_mmod_Minimization_Converged-OPLS-2005>
0

> <r_mmod_RMS_Derivative-OPLS-2005>
0.677713990211487

$$$$
12
                    3D
 Structure written by MMmdl.
158166  0  0  1  0            999 V2000
  -30.4107  -15.3116   20.3727 C   0  0  0  0  0  0
  -30.4435  -12.8516   19.4966 C   0  0  0  0  0  0
  -29.5327  -12.5768   18.2734 C   0  0  0  0  0  0
  -28.0863  -12.2893   18.7159 C   0  0  0  0  0  0
  -27.6073  -13.2740   19.8106 C   0  0  2  0  0  0
  -28.6476  -13.4705   20.9312 C   0  0  0  0  0  0
  -25.2394  -13.8238   20.5756 C   0  0  0  0  0  0
  -24.1747  -13.0428   20.9257 C   0  0  0  0  0  0
  -24.6402  -11.6925   20.8761 C   0  0  0  0  0  0
  -23.9100  -10.4286   21.0406 C   0  0  0  0  0  0
  -24.3640   -9.4198   21.9184 C   0  0  0  0  0  0
  -23.6300   -8.2241   22.0757 C   0  0  0  0  0  0
  -22.4283   -8.0284   21.3546 C   0  0  0  0  0  0
  -21.9927   -9.0262   20.4647 C   0  0  0  0  0  0
  -22.7272  -10.2132   20.3054 C   0  0  0  0  0  0
  -21.6853   -6.0738   22.5277 C   0  0  0  0  0  0
  -21.4018   -6.5640   23.8209 C   0  0  0  0  0  0
  -21.3660   -5.6791   24.9170 C   0  0  0  0  0  0
  -21.6044   -4.3053   24.7220 C   0  0  0  0  0  0
  -21.8820   -3.8147   23.4342 C   0  0  0  0  0  0
  -21.9194   -4.6964   22.3397 C   0  0  0  0  0  0
  -22.7764  -13.5182   21.1904 C   0  0  0  0  0  0
  -22.1661   -4.2150   21.0975 F   0  0  0  0  0  0
  -21.5628   -3.4538   25.7734 F   0  0  0  0  0  0
  -29.8583  -13.9998   20.2794 N   0  0  0  0  0  0
  -26.2812  -12.9507   20.3194 N   0  0  0  0  0  0
  -25.9336  -11.6614   20.5708 N   0  0  0  0  0  0
  -22.0420  -12.8165   22.0456 N   0  0  0  0  0  0
  -25.4017  -15.1977   20.4227 N   0  0  0  0  0  0
  -31.6478  -15.3102   20.2966 O   0  0  0  0  0  0
  -21.6641   -6.8883   21.4239 O   0  0  0  0  0  0
  -22.3443  -14.5481   20.6739 O   0  0  0  0  0  0
  -24.6672  -31.8221   23.1696 C   0  0  0  0  0  0
  -25.9341  -32.4579   23.8166 C   0  0  1  0  0  0
  -27.2092  -26.8799   20.1959 C   0  0  0  0  0  0
  -25.5999  -33.8392   24.2070 N   0  0  0  0  0  0
  -23.4817  -30.4345   21.5226 C   0  0  2  0  0  0
  -24.9300  -28.8105   20.1288 C   0  0  0  0  0  0
  -22.7679  -29.4436   22.4793 C   0  0  0  0  0  0
  -18.0322  -28.1413   22.8456 C   0  0  0  0  0  0
  -24.1494  -36.7204   23.2645 C   0  0  0  0  0  0
  -26.0547  -30.6118   21.4078 C   0  0  0  0  0  0
  -26.1177  -29.1934   20.7636 C   0  0  0  0  0  0
  -27.2517  -28.2538   20.7671 C   0  0  0  0  0  0
  -25.9923  -26.6741   19.5037 C   0  0  0  0  0  0
  -24.8942  -27.5699   19.4799 C   0  0  0  0  0  0
  -23.7236  -29.7488   20.1519 C   0  0  0  0  0  0
  -25.4134  -36.2958   24.0295 C   0  0  1  0  0  0
  -20.5949  -28.3759   23.1181 C   0  0  2  0  0  0
  -20.6802  -26.9436   22.5403 C   0  0  0  0  0  0
  -19.5772  -26.6378   21.5217 C   0  0  0  0  0  0
  -18.1954  -26.7945   22.1620 C   0  0  0  0  0  0
  -19.1582  -28.8906   23.2805 C   0  0  0  0  0  0
  -18.9495  -30.1496   23.8841 C   0  0  0  0  0  0
  -17.6488  -30.6600   24.0550 C   0  0  0  0  0  0
  -25.9107  -34.9343   23.5004 C   0  0  0  0  0  0
  -16.5379  -29.9086   23.6341 C   0  0  0  0  0  0
  -16.7304  -28.6509   23.0353 C   0  0  0  0  0  0
  -26.4570  -31.6534   25.0710 C   0  0  0  0  0  0
  -25.3681  -31.3800   26.1356 C   0  0  0  0  0  0
  -27.0468  -30.2892   24.6473 C   0  0  0  0  0  0
  -27.6054  -32.4354   25.7519 C   0  0  0  0  0  0
  -27.5566  -37.1757   24.8461 C   0  0  0  0  0  0
  -21.4347  -29.3055   22.3537 N   0  0  0  0  0  0
  -26.4274  -37.3702   23.9407 N   0  0  0  0  0  0
  -24.7568  -30.9839   22.0867 N   0  0  0  0  0  0
  -23.4214  -28.7989   23.3030 O   0  0  0  0  0  0
  -28.2653  -25.8133   20.1048 O   0  0  0  0  0  0
  -26.5712  -34.8884   22.4599 O   0  0  0  0  0  0
  -23.5734  -32.1224   23.6758 O   0  0  0  0  0  0
  -26.8427  -22.9279   19.2522 C   0  0  0  0  0  0
  -26.0247  -21.9649   18.6614 C   0  0  0  0  0  0
  -28.0338  -22.6483   19.9537 C   0  0  0  0  0  0
  -26.3779  -20.6294   18.7732 C   0  0  0  0  0  0
  -28.3750  -21.0781   19.9846 C   0  0  0  0  0  0
  -25.5151  -19.5452   18.1632 C   0  0  0  0  0  0
  -30.5464  -20.6407   21.2616 C   0  0  0  0  0  0
  -30.4029  -19.7939   18.9283 C   0  0  0  0  0  0
  -28.4789  -24.2145   20.5894 C   0  0  0  0  0  0
  -29.5917  -18.1752   20.8655 C   0  0  0  0  0  0
  -29.6357  -19.9090   20.2586 C   0  0  0  0  0  0
  -27.4908  -20.2344   19.3991 N   0  0  0  0  0  0
  -29.6180  -16.5759   20.3242 N   0  0  0  0  0  0
  -31.4508  -13.0873   19.1500 H   0  0  0  0  0  0
  -30.5443  -11.9608   20.1189 H   0  0  0  0  0  0
  -29.9202  -11.7420   17.6879 H   0  0  0  0  0  0
  -29.5440  -13.4451   17.6130 H   0  0  0  0  0  0
  -28.0589  -11.2715   19.1067 H   0  0  0  0  0  0
  -27.4114  -12.3060   17.8592 H   0  0  0  0  0  0
  -27.5102  -14.2323   19.2983 H   0  0  0  0  0  0
  -28.8397  -12.5420   21.4706 H   0  0  0  0  0  0
  -28.2833  -14.1907   21.6655 H   0  0  0  0  0  0
  -25.2783   -9.5668   22.4765 H   0  0  0  0  0  0
  -23.9999   -7.4635   22.7485 H   0  0  0  0  0  0
  -21.0855   -8.8792   19.8956 H   0  0  0  0  0  0
  -22.3734  -10.9674   19.6164 H   0  0  0  0  0  0
  -21.2013   -7.6148   23.9712 H   0  0  0  0  0  0
  -21.1482   -6.0521   25.9072 H   0  0  0  0  0  0
  -22.0598   -2.7609   23.2840 H   0  0  0  0  0  0
  -22.4051  -11.9835   22.4847 H   0  0  0  0  0  0
  -21.1035  -13.1181   22.2662 H   0  0  0  0  0  0
  -24.6327  -15.8463   20.5522 H   0  0  0  0  0  0
  -26.2478  -15.6481   20.1024 H   0  0  0  0  0  0
  -26.7411  -32.5099   23.0878 H   0  0  0  0  0  0
  -25.0083  -33.9469   25.0179 H   0  0  0  0  0  0
  -22.7979  -31.2682   21.3503 H   0  0  0  0  0  0
  -23.3766  -35.9523   23.3269 H   0  0  0  0  0  0
  -24.3571  -36.8896   22.2068 H   0  0  0  0  0  0
  -23.7242  -37.6378   23.6732 H   0  0  0  0  0  0
  -26.2353  -31.3446   20.6200 H   0  0  0  0  0  0
  -26.9157  -30.6752   22.0612 H   0  0  0  0  0  0
  -28.1627  -28.5619   21.2604 H   0  0  0  0  0  0
  -25.8515  -25.7733   18.9368 H   0  0  0  0  0  0
  -24.0013  -27.2779   18.9436 H   0  0  0  0  0  0
  -23.8887  -30.5169   19.3950 H   0  0  0  0  0  0
  -22.8307  -29.2104   19.8282 H   0  0  0  0  0  0
  -25.1330  -36.1748   25.0785 H   0  0  0  0  0  0
  -21.0026  -28.3370   24.1307 H   0  0  0  0  0  0
  -20.5699  -26.2374   23.3646 H   0  0  0  0  0  0
  -21.6660  -26.7422   22.1197 H   0  0  0  0  0  0
  -19.6938  -25.6278   21.1273 H   0  0  0  0  0  0
  -19.6712  -27.3169   20.6730 H   0  0  0  0  0  0
  -17.4227  -26.6684   21.4024 H   0  0  0  0  0  0
  -18.0332  -26.0115   22.9037 H   0  0  0  0  0  0
  -19.7976  -30.7317   24.2190 H   0  0  0  0  0  0
  -17.5045  -31.6271   24.5165 H   0  0  0  0  0  0
  -15.5375  -30.2964   23.7711 H   0  0  0  0  0  0
  -15.8703  -28.0815   22.7090 H   0  0  0  0  0  0
  -24.5891  -30.7119   25.7666 H   0  0  0  0  0  0
  -24.8835  -32.3003   26.4626 H   0  0  0  0  0  0
  -25.7898  -30.9078   27.0236 H   0  0  0  0  0  0
  -26.3141  -29.6559   24.1457 H   0  0  0  0  0  0
  -27.3955  -29.7270   25.5147 H   0  0  0  0  0  0
  -27.9104  -30.4059   23.9919 H   0  0  0  0  0  0
  -27.2619  -33.3713   26.1937 H   0  0  0  0  0  0
  -28.3943  -32.6822   25.0402 H   0  0  0  0  0  0
  -28.0627  -31.8587   26.5568 H   0  0  0  0  0  0
  -28.2550  -38.0083   24.7518 H   0  0  0  0  0  0
  -28.1094  -36.2610   24.6273 H   0  0  0  0  0  0
  -27.2283  -37.1374   25.8863 H   0  0  0  0  0  0
  -20.9612  -29.8754   21.6666 H   0  0  0  0  0  0
  -26.0116  -38.2753   24.1438 H   0  0  0  0  0  0
  -26.5177  -23.9433   19.1732 H   0  0  0  0  0  0
  -25.1217  -22.2585   18.1424 H   0  0  0  0  0  0
  -24.5107  -19.5793   18.5858 H   0  0  0  0  0  0
  -25.9240  -18.5508   18.3447 H   0  0  0  0  0  0
  -25.4357  -19.6874   17.0853 H   0  0  0  0  0  0
  -30.8061  -21.6387   20.9074 H   0  0  0  0  0  0
  -31.4829  -20.1114   21.4361 H   0  0  0  0  0  0
  -30.0437  -20.7577   22.2217 H   0  0  0  0  0  0
  -30.6982  -20.7734   18.5514 H   0  0  0  0  0  0
  -29.7860  -19.3219   18.1630 H   0  0  0  0  0  0
  -31.3044  -19.1907   19.0371 H   0  0  0  0  0  0
  -29.5592  -24.1336   20.7110 H   0  0  0  0  0  0
  -28.0996  -24.1997   21.6114 H   0  0  0  0  0  0
  -28.7809  -18.1783   21.5943 H   0  0  0  0  0  0
  -30.4778  -18.1217   21.4972 H   0  0  0  0  0  0
  -28.6731  -16.3171   20.0817 H   0  0  0  0  0  0
  1 25  1  0  0  0
  1 30  2  0  0  0
  1 83  1  0  0  0
  2  3  1  0  0  0
  2 25  1  0  0  0
  2 84  1  0  0  0
  2 85  1  0  0  0
  3  4  1  0  0  0
  3 86  1  0  0  0
  3 87  1  0  0  0
  4  5  1  0  0  0
  4 88  1  0  0  0
  4 89  1  0  0  0
  5  6  1  0  0  0
  5 26  1  0  0  0
  5 90  1  0  0  0
  6 25  1  0  0  0
  6 91  1  0  0  0
  6 92  1  0  0  0
  7  8  2  0  0  0
  7 26  1  0  0  0
  7 29  1  0  0  0
  8  9  1  0  0  0
  8 22  1  0  0  0
  9 10  1  0  0  0
  9 27  2  0  0  0
 10 11  2  0  0  0
 10 15  1  0  0  0
 11 12  1  0  0  0
 11 93  1  0  0  0
 12 13  2  0  0  0
 12 94  1  0  0  0
 13 14  1  0  0  0
 13 31  1  0  0  0
 14 15  2  0  0  0
 14 95  1  0  0  0
 15 96  1  0  0  0
 16 17  2  0  0  0
 16 21  1  0  0  0
 16 31  1  0  0  0
 17 18  1  0  0  0
 17 97  1  0  0  0
 18 19  2  0  0  0
 18 98  1  0  0  0
 19 20  1  0  0  0
 19 24  1  0  0  0
 20 21  2  0  0  0
 20 99  1  0  0  0
 21 23  1  0  0  0
 22 28  1  0  0  0
 22 32  2  0  0  0
 26 27  1  0  0  0
 28100  1  0  0  0
 28101  1  0  0  0
 29102  1  0  0  0
 29103  1  0  0  0
 33 34  1  0  0  0
 33 66  1  0  0  0
 33 70  2  0  0  0
 34 36  1  0  0  0
 34 59  1  0  0  0
 34104  1  0  0  0
 35 44  2  0  0  0
 35 45  1  0  0  0
 35 68  1  0  0  0
 36 56  1  0  0  0
 36105  1  0  0  0
 37 39  1  0  0  0
 37 47  1  0  0  0
 37 66  1  0  0  0
 37106  1  0  0  0
 38 43  2  0  0  0
 38 46  1  0  0  0
 38 47  1  0  0  0
 39 64  1  0  0  0
 39 67  2  0  0  0
 40 52  1  0  0  0
 40 53  2  0  0  0
 40 58  1  0  0  0
 41107  1  0  0  0
 41108  1  0  0  0
 41109  1  0  0  0
 41 48  1  0  0  0
 42 43  1  0  0  0
 42 66  1  0  0  0
 42110  1  0  0  0
 42111  1  0  0  0
 43 44  1  0  0  0
 44112  1  0  0  0
 45 46  2  0  0  0
 45113  1  0  0  0
 46114  1  0  0  0
 47115  1  0  0  0
 47116  1  0  0  0
 48 56  1  0  0  0
 48 65  1  0  0  0
 48117  1  0  0  0
 49 50  1  0  0  0
 49 53  1  0  0  0
 49 64  1  0  0  0
 49118  1  0  0  0
 50 51  1  0  0  0
 50119  1  0  0  0
 50120  1  0  0  0
 51 52  1  0  0  0
 51121  1  0  0  0
 51122  1  0  0  0
 52123  1  0  0  0
 52124  1  0  0  0
 53 54  1  0  0  0
 54 55  2  0  0  0
 54125  1  0  0  0
 55 57  1  0  0  0
 55126  1  0  0  0
 56 69  2  0  0  0
 57 58  2  0  0  0
 57127  1  0  0  0
 58128  1  0  0  0
 59 60  1  0  0  0
 59 61  1  0  0  0
 59 62  1  0  0  0
 60129  1  0  0  0
 60130  1  0  0  0
 60131  1  0  0  0
 61132  1  0  0  0
 61133  1  0  0  0
 61134  1  0  0  0
 62135  1  0  0  0
 62136  1  0  0  0
 62137  1  0  0  0
 63 65  1  0  0  0
 63138  1  0  0  0
 63139  1  0  0  0
 63140  1  0  0  0
 64141  1  0  0  0
 65142  1  0  0  0
 68 79  1  0  0  0
 71 72  2  0  0  0
 71 73  1  0  0  0
 71143  1  0  0  0
 72 74  1  0  0  0
 72144  1  0  0  0
 73 75  2  0  0  0
 73 79  1  0  0  0
 74 76  1  0  0  0
 74 82  2  0  0  0
 75 81  1  0  0  0
 75 82  1  0  0  0
 76145  1  0  0  0
 76146  1  0  0  0
 76147  1  0  0  0
 77148  1  0  0  0
 77149  1  0  0  0
 77150  1  0  0  0
 77 81  1  0  0  0
 78 81  1  0  0  0
 78151  1  0  0  0
 78152  1  0  0  0
 78153  1  0  0  0
 79154  1  0  0  0
 79155  1  0  0  0
 80 81  1  0  0  0
 80 83  1  0  0  0
 80156  1  0  0  0
 80157  1  0  0  0
 83158  1  0  0  0
M  ISO  4   1 100  68 101  79 101  83 100
M  END
> <chiral flag>
0

> <version>
0

> <s_m_source_file>
/data/baiqing/PycharmProjects/Reinvent-master-3.2/result/LINK_invent/BTK/process_docking_weight1_custom_sum_contain_oxygen_bond_distance_aromatic_linkinvent_7_9_3/rearranged_h_0084.sdf

> <i_m_source_file_index>
13

> <r_mmod_Potential_Energy-OPLS-2005>
1522.66284179688

> <r_mmod_Stretch_Energy-OPLS-2005>
692.82958984375

> <r_mmod_Bend_Energy-OPLS-2005>
675.686340332031

> <r_mmod_Torsional_Energy-OPLS-2005>
275.481018066406

> <r_mmod_Improper_Torsional_Energy-OPLS-2005>
7.9605917930603

> <r_mmod_Van_der_Waal_Energy-OPLS-2005>
125.562492370605

> <r_mmod_Electrostatic_Energy-OPLS-2005>
-544.387817382812

> <r_mmod_Solvation_Energy-OPLS-2005>
-214.945098876953

> <b_mmod_Minimization_Converged-OPLS-2005>
0

> <r_mmod_RMS_Derivative-OPLS-2005>
0.8362957239151

$$$$
13
                    3D
 Structure written by MMmdl.
168176  0  0  1  0            999 V2000
  -30.7653  -14.5475   20.3504 C   0  0  0  0  0  0
  -30.4011  -12.3153   19.4174 C   0  0  0  0  0  0
  -29.4736  -12.4156   18.1930 C   0  0  0  0  0  0
  -27.9950  -12.3291   18.6251 C   0  0  0  0  0  0
  -27.6349  -13.2060   19.8579 C   0  0  2  0  0  0
  -28.7161  -13.1570   20.9604 C   0  0  0  0  0  0
  -25.2517  -13.8089   20.5904 C   0  0  0  0  0  0
  -24.1780  -13.0346   20.9307 C   0  0  0  0  0  0
  -24.6365  -11.6846   20.8817 C   0  0  0  0  0  0
  -23.9035  -10.4251   21.0419 C   0  0  0  0  0  0
  -24.3611   -9.4208   21.9203 C   0  0  0  0  0  0
  -23.6308   -8.2236   22.0769 C   0  0  0  0  0  0
  -22.4291   -8.0275   21.3551 C   0  0  0  0  0  0
  -21.9904   -9.0240   20.4663 C   0  0  0  0  0  0
  -22.7213  -10.2120   20.3076 C   0  0  0  0  0  0
  -21.6853   -6.0778   22.5292 C   0  0  0  0  0  0
  -21.4010   -6.5680   23.8230 C   0  0  0  0  0  0
  -21.3650   -5.6816   24.9179 C   0  0  0  0  0  0
  -21.6034   -4.3080   24.7208 C   0  0  0  0  0  0
  -21.8826   -3.8193   23.4323 C   0  0  0  0  0  0
  -21.9209   -4.7017   22.3394 C   0  0  0  0  0  0
  -22.7831  -13.5196   21.1904 C   0  0  0  0  0  0
  -22.1683   -4.2230   21.0960 F   0  0  0  0  0  0
  -21.5603   -3.4541   25.7706 F   0  0  0  0  0  0
  -30.0208  -13.4033   20.3291 N   0  0  0  0  0  0
  -26.2941  -12.9254   20.3529 N   0  0  0  0  0  0
  -25.9312  -11.6423   20.5926 N   0  0  0  0  0  0
  -22.0445  -12.8171   22.0423 N   0  0  0  0  0  0
  -25.4061  -15.1814   20.4464 N   0  0  0  0  0  0
  -31.9879  -14.5144   20.2119 O   0  0  0  0  0  0
  -21.6644   -6.8899   21.4248 O   0  0  0  0  0  0
  -22.3556  -14.5528   20.6782 O   0  0  0  0  0  0
  -24.6167  -31.8653   23.2059 C   0  0  0  0  0  0
  -25.9064  -32.4779   23.8383 C   0  0  1  0  0  0
  -27.2457  -27.4340   20.1034 C   0  0  0  0  0  0
  -25.5930  -33.8572   24.2314 N   0  0  0  0  0  0
  -23.4087  -30.4816   21.5457 C   0  0  2  0  0  0
  -24.8577  -28.9428   20.1187 C   0  0  0  0  0  0
  -22.7444  -29.4601   22.4971 C   0  0  0  0  0  0
  -18.0264  -28.1339   22.8436 C   0  0  0  0  0  0
  -24.1486  -36.7306   23.2639 C   0  0  0  0  0  0
  -25.9336  -30.8348   21.3546 C   0  0  0  0  0  0
  -26.0158  -29.4640   20.7123 C   0  0  0  0  0  0
  -27.2143  -28.7157   20.6962 C   0  0  0  0  0  0
  -26.0723  -26.9192   19.5117 C   0  0  0  0  0  0
  -24.8808  -27.6698   19.5174 C   0  0  0  0  0  0
  -23.6206  -29.8096   20.1615 C   0  0  0  0  0  0
  -25.4108  -36.3064   24.0329 C   0  0  1  0  0  0
  -20.5864  -28.3623   23.1298 C   0  0  2  0  0  0
  -20.6739  -26.9357   22.5384 C   0  0  0  0  0  0
  -19.5722  -26.6341   21.5159 C   0  0  0  0  0  0
  -18.1911  -26.7864   22.1574 C   0  0  0  0  0  0
  -19.1517  -28.8799   23.2851 C   0  0  0  0  0  0
  -18.9452  -30.1407   23.8859 C   0  0  0  0  0  0
  -17.6446  -30.6540   24.0537 C   0  0  0  0  0  0
  -25.9034  -34.9435   23.5111 C   0  0  0  0  0  0
  -16.5336  -29.9048   23.6282 C   0  0  0  0  0  0
  -16.7258  -28.6471   23.0285 C   0  0  0  0  0  0
  -26.4487  -31.6579   25.0708 C   0  0  0  0  0  0
  -25.3723  -31.3709   26.1440 C   0  0  0  0  0  0
  -27.0352  -30.3036   24.6077 C   0  0  0  0  0  0
  -27.6078  -32.4325   25.7434 C   0  0  0  0  0  0
  -27.5577  -37.1798   24.8456 C   0  0  0  0  0  0
  -21.4159  -29.3012   22.3733 N   0  0  0  0  0  0
  -26.4289  -37.3759   23.9397 N   0  0  0  0  0  0
  -24.6716  -31.0775   22.0944 N   0  0  0  0  0  0
  -23.4181  -28.8127   23.3031 O   0  0  0  0  0  0
  -28.4089  -26.7002   20.0885 O   0  0  0  0  0  0
  -26.5563  -34.8883   22.4641 O   0  0  0  0  0  0
  -23.5355  -32.1406   23.7437 O   0  0  0  0  0  0
  -28.6999  -20.2930   22.4691 C   0  0  0  0  0  0
  -28.7726  -19.0760   23.1799 C   0  0  0  0  0  0
  -30.0204  -19.3133   20.6806 C   0  0  0  0  0  0
  -29.3007  -20.4160   21.1961 C   0  0  0  0  0  0
  -29.4500  -17.9635   22.6365 C   0  0  0  0  0  0
  -30.0971  -18.0858   21.3828 C   0  0  0  0  0  0
  -29.4646  -16.6502   23.4051 C   0  0  0  0  0  0
  -28.0713  -16.8443   19.3141 C   0  0  0  0  0  0
  -30.2064  -16.7615   17.8854 C   0  0  0  0  0  0
  -29.1711  -21.6810   20.3349 C   0  0  0  0  0  0
  -30.9065  -16.9264   20.7918 C   0  0  0  0  0  0
  -28.6730  -22.9655   21.0456 C   0  0  0  0  0  0
  -28.6258  -24.2169   20.1342 C   0  0  0  0  0  0
  -28.4104  -25.5307   20.9223 C   0  0  0  0  0  0
  -29.3847  -16.1009   19.0169 C   0  0  0  0  0  0
  -30.1433  -15.7642   20.2562 N   0  0  0  0  0  0
  -31.4422  -12.3752   19.0954 H   0  0  0  0  0  0
  -30.2901  -11.3476   19.9073 H   0  0  0  0  0  0
  -29.6920  -11.6086   17.4930 H   0  0  0  0  0  0
  -29.6637  -13.3325   17.6379 H   0  0  0  0  0  0
  -27.7946  -11.2826   18.8534 H   0  0  0  0  0  0
  -27.3433  -12.5807   17.7880 H   0  0  0  0  0  0
  -27.5779  -14.2217   19.5026 H   0  0  0  0  0  0
  -28.7202  -12.1930   21.4692 H   0  0  0  0  0  0
  -28.5117  -13.9091   21.7224 H   0  0  0  0  0  0
  -25.2763   -9.5730   22.4759 H   0  0  0  0  0  0
  -24.0064   -7.4650   22.7489 H   0  0  0  0  0  0
  -21.0842   -8.8756   19.8972 H   0  0  0  0  0  0
  -22.3683  -10.9672   19.6196 H   0  0  0  0  0  0
  -21.1997   -7.6195   23.9740 H   0  0  0  0  0  0
  -21.1449   -6.0546   25.9078 H   0  0  0  0  0  0
  -22.0608   -2.7664   23.2778 H   0  0  0  0  0  0
  -22.4061  -11.9829   22.4799 H   0  0  0  0  0  0
  -21.1070  -13.1208   22.2619 H   0  0  0  0  0  0
  -24.6333  -15.8172   20.6132 H   0  0  0  0  0  0
  -26.2624  -15.6507   20.1823 H   0  0  0  0  0  0
  -26.7143  -32.5492   23.1167 H   0  0  0  0  0  0
  -25.0123  -33.9703   25.0487 H   0  0  0  0  0  0
  -22.6970  -31.2948   21.4030 H   0  0  0  0  0  0
  -23.3685  -35.9703   23.3304 H   0  0  0  0  0  0
  -24.3612  -36.8926   22.2063 H   0  0  0  0  0  0
  -23.7289  -37.6529   23.6658 H   0  0  0  0  0  0
  -26.0344  -31.5934   20.5758 H   0  0  0  0  0  0
  -26.8262  -30.9031   21.9671 H   0  0  0  0  0  0
  -28.1116  -29.1134   21.1479 H   0  0  0  0  0  0
  -26.0862  -25.9446   19.0416 H   0  0  0  0  0  0
  -23.9905  -27.2654   19.0560 H   0  0  0  0  0  0
  -23.7405  -30.5813   19.4016 H   0  0  0  0  0  0
  -22.7443  -29.2319   19.8584 H   0  0  0  0  0  0
  -25.1283  -36.1935   25.0825 H   0  0  0  0  0  0
  -20.9947  -28.3180   24.1420 H   0  0  0  0  0  0
  -20.5605  -26.2249   23.3583 H   0  0  0  0  0  0
  -21.6623  -26.7355   22.1225 H   0  0  0  0  0  0
  -19.6885  -25.6245   21.1190 H   0  0  0  0  0  0
  -19.6669  -27.3151   20.6684 H   0  0  0  0  0  0
  -17.4187  -26.6581   21.3982 H   0  0  0  0  0  0
  -18.0339  -26.0003   22.8978 H   0  0  0  0  0  0
  -19.7945  -30.7194   24.2272 H   0  0  0  0  0  0
  -17.4999  -31.6204   24.5135 H   0  0  0  0  0  0
  -15.5336  -30.2924   23.7607 H   0  0  0  0  0  0
  -15.8656  -28.0784   22.6995 H   0  0  0  0  0  0
  -24.5887  -30.7065   25.7780 H   0  0  0  0  0  0
  -24.8890  -32.2882   26.4817 H   0  0  0  0  0  0
  -25.8050  -30.8907   27.0236 H   0  0  0  0  0  0
  -26.2915  -29.6732   24.1198 H   0  0  0  0  0  0
  -27.4217  -29.7321   25.4536 H   0  0  0  0  0  0
  -27.8691  -30.4389   23.9188 H   0  0  0  0  0  0
  -27.2718  -33.3637   26.2010 H   0  0  0  0  0  0
  -28.3869  -32.6891   25.0240 H   0  0  0  0  0  0
  -28.0775  -31.8443   26.5327 H   0  0  0  0  0  0
  -28.2578  -38.0111   24.7488 H   0  0  0  0  0  0
  -28.1088  -36.2629   24.6297 H   0  0  0  0  0  0
  -27.2292  -37.1479   25.8862 H   0  0  0  0  0  0
  -20.9359  -29.8819   21.7011 H   0  0  0  0  0  0
  -26.0132  -38.2818   24.1415 H   0  0  0  0  0  0
  -28.1602  -21.1176   22.9095 H   0  0  0  0  0  0
  -28.2859  -18.9899   24.1413 H   0  0  0  0  0  0
  -30.4954  -19.4117   19.7158 H   0  0  0  0  0  0
  -28.8337  -16.6846   24.2929 H   0  0  0  0  0  0
  -30.4781  -16.3923   23.7170 H   0  0  0  0  0  0
  -29.0782  -15.8506   22.7786 H   0  0  0  0  0  0
  -27.6724  -16.5717   20.2908 H   0  0  0  0  0  0
  -27.3170  -16.6247   18.5595 H   0  0  0  0  0  0
  -28.2016  -17.9258   19.3128 H   0  0  0  0  0  0
  -29.6488  -16.7490   16.9467 H   0  0  0  0  0  0
  -31.1322  -16.2171   17.7000 H   0  0  0  0  0  0
  -30.4603  -17.8038   18.0822 H   0  0  0  0  0  0
  -28.5096  -21.4406   19.4993 H   0  0  0  0  0  0
  -30.1446  -21.8866   19.8893 H   0  0  0  0  0  0
  -31.5830  -16.6013   21.5820 H   0  0  0  0  0  0
  -31.5839  -17.3192   20.0319 H   0  0  0  0  0  0
  -27.6749  -22.7883   21.4479 H   0  0  0  0  0  0
  -29.3234  -23.1735   21.8969 H   0  0  0  0  0  0
  -27.8373  -24.0962   19.3887 H   0  0  0  0  0  0
  -29.5664  -24.2926   19.5889 H   0  0  0  0  0  0
  -29.2343  -25.6512   21.6277 H   0  0  0  0  0  0
  -27.5047  -25.4457   21.5273 H   0  0  0  0  0  0
  -29.0934  -15.1724   18.5438 H   0  0  0  0  0  0
  1 25  1  0  0  0
  1 30  2  0  0  0
  1 86  1  0  0  0
  2  3  1  0  0  0
  2 25  1  0  0  0
  2 87  1  0  0  0
  2 88  1  0  0  0
  3  4  1  0  0  0
  3 89  1  0  0  0
  3 90  1  0  0  0
  4  5  1  0  0  0
  4 91  1  0  0  0
  4 92  1  0  0  0
  5  6  1  0  0  0
  5 26  1  0  0  0
  5 93  1  0  0  0
  6 25  1  0  0  0
  6 94  1  0  0  0
  6 95  1  0  0  0
  7  8  2  0  0  0
  7 26  1  0  0  0
  7 29  1  0  0  0
  8  9  1  0  0  0
  8 22  1  0  0  0
  9 10  1  0  0  0
  9 27  2  0  0  0
 10 11  2  0  0  0
 10 15  1  0  0  0
 11 12  1  0  0  0
 11 96  1  0  0  0
 12 13  2  0  0  0
 12 97  1  0  0  0
 13 14  1  0  0  0
 13 31  1  0  0  0
 14 15  2  0  0  0
 14 98  1  0  0  0
 15 99  1  0  0  0
 16 17  2  0  0  0
 16 21  1  0  0  0
 16 31  1  0  0  0
 17 18  1  0  0  0
 17100  1  0  0  0
 18 19  2  0  0  0
 18101  1  0  0  0
 19 20  1  0  0  0
 19 24  1  0  0  0
 20 21  2  0  0  0
 20102  1  0  0  0
 21 23  1  0  0  0
 22 28  1  0  0  0
 22 32  2  0  0  0
 26 27  1  0  0  0
 28103  1  0  0  0
 28104  1  0  0  0
 29105  1  0  0  0
 29106  1  0  0  0
 33 34  1  0  0  0
 33 66  1  0  0  0
 33 70  2  0  0  0
 34 36  1  0  0  0
 34 59  1  0  0  0
 34107  1  0  0  0
 35 44  2  0  0  0
 35 45  1  0  0  0
 35 68  1  0  0  0
 36 56  1  0  0  0
 36108  1  0  0  0
 37 39  1  0  0  0
 37 47  1  0  0  0
 37 66  1  0  0  0
 37109  1  0  0  0
 38 43  2  0  0  0
 38 46  1  0  0  0
 38 47  1  0  0  0
 39 64  1  0  0  0
 39 67  2  0  0  0
 40 52  1  0  0  0
 40 53  2  0  0  0
 40 58  1  0  0  0
 41110  1  0  0  0
 41111  1  0  0  0
 41112  1  0  0  0
 41 48  1  0  0  0
 42 43  1  0  0  0
 42 66  1  0  0  0
 42113  1  0  0  0
 42114  1  0  0  0
 43 44  1  0  0  0
 44115  1  0  0  0
 45 46  2  0  0  0
 45116  1  0  0  0
 46117  1  0  0  0
 47118  1  0  0  0
 47119  1  0  0  0
 48 56  1  0  0  0
 48 65  1  0  0  0
 48120  1  0  0  0
 49 50  1  0  0  0
 49 53  1  0  0  0
 49 64  1  0  0  0
 49121  1  0  0  0
 50 51  1  0  0  0
 50122  1  0  0  0
 50123  1  0  0  0
 51 52  1  0  0  0
 51124  1  0  0  0
 51125  1  0  0  0
 52126  1  0  0  0
 52127  1  0  0  0
 53 54  1  0  0  0
 54 55  2  0  0  0
 54128  1  0  0  0
 55 57  1  0  0  0
 55129  1  0  0  0
 56 69  2  0  0  0
 57 58  2  0  0  0
 57130  1  0  0  0
 58131  1  0  0  0
 59 60  1  0  0  0
 59 61  1  0  0  0
 59 62  1  0  0  0
 60132  1  0  0  0
 60133  1  0  0  0
 60134  1  0  0  0
 61135  1  0  0  0
 61136  1  0  0  0
 61137  1  0  0  0
 62138  1  0  0  0
 62139  1  0  0  0
 62140  1  0  0  0
 63 65  1  0  0  0
 63141  1  0  0  0
 63142  1  0  0  0
 63143  1  0  0  0
 64144  1  0  0  0
 65145  1  0  0  0
 68 84  1  0  0  0
 71 72  2  0  0  0
 71 74  1  0  0  0
 71146  1  0  0  0
 72 75  1  0  0  0
 72147  1  0  0  0
 73 74  2  0  0  0
 73 76  1  0  0  0
 73148  1  0  0  0
 74 80  1  0  0  0
 75 76  2  0  0  0
 75 77  1  0  0  0
 76 81  1  0  0  0
 77149  1  0  0  0
 77150  1  0  0  0
 77151  1  0  0  0
 78152  1  0  0  0
 78153  1  0  0  0
 78154  1  0  0  0
 78 85  1  0  0  0
 79 85  1  0  0  0
 79155  1  0  0  0
 79156  1  0  0  0
 79157  1  0  0  0
 80 82  1  0  0  0
 80158  1  0  0  0
 80159  1  0  0  0
 81 86  1  0  0  0
 81160  1  0  0  0
 81161  1  0  0  0
 82 83  1  0  0  0
 82162  1  0  0  0
 82163  1  0  0  0
 83 84  1  0  0  0
 83164  1  0  0  0
 83165  1  0  0  0
 84166  1  0  0  0
 84167  1  0  0  0
 85 86  1  0  0  0
 85168  1  0  0  0
M  ISO  4   1 100  68 101  84 101  86 100
M  END
> <chiral flag>
0

> <version>
0

> <s_m_source_file>
/data/baiqing/PycharmProjects/Reinvent-master-3.2/result/LINK_invent/BTK/process_docking_weight1_custom_sum_contain_oxygen_bond_distance_aromatic_linkinvent_7_9_3/rearranged_h_0084.sdf

> <i_m_source_file_index>
14

> <r_mmod_Potential_Energy-OPLS-2005>
234.681350708008

> <r_mmod_Stretch_Energy-OPLS-2005>
43.7156753540039

> <r_mmod_Bend_Energy-OPLS-2005>
117.193489074707

> <r_mmod_Torsional_Energy-OPLS-2005>
334.590972900391

> <r_mmod_Improper_Torsional_Energy-OPLS-2005>
9.2860279083252

> <r_mmod_Van_der_Waal_Energy-OPLS-2005>
151.676162719727

> <r_mmod_Electrostatic_Energy-OPLS-2005>
-288.906372070312

> <r_mmod_Solvation_Energy-OPLS-2005>
-176.046676635742

> <b_mmod_Minimization_Converged-OPLS-2005>
0

> <r_mmod_RMS_Derivative-OPLS-2005>
4.58531713485718

$$$$
14
                    3D
 Structure written by MMmdl.
166174  0  0  1  0            999 V2000
  -30.5797  -14.7790   20.4735 C   0  0  0  0  0  0
  -30.4472  -12.4854   19.4657 C   0  0  0  0  0  0
  -29.5164  -12.5142   18.2330 C   0  0  0  0  0  0
  -28.0423  -12.3253   18.6447 C   0  0  0  0  0  0
  -27.6402  -13.2265   19.8414 C   0  0  2  0  0  0
  -28.6858  -13.1648   20.9751 C   0  0  0  0  0  0
  -25.2510  -13.8189   20.5677 C   0  0  0  0  0  0
  -24.1800  -13.0443   20.9200 C   0  0  0  0  0  0
  -24.6384  -11.6915   20.8733 C   0  0  0  0  0  0
  -23.9058  -10.4294   21.0404 C   0  0  0  0  0  0
  -24.3624   -9.4218   21.9171 C   0  0  0  0  0  0
  -23.6305   -8.2248   22.0739 C   0  0  0  0  0  0
  -22.4280   -8.0281   21.3545 C   0  0  0  0  0  0
  -21.9910   -9.0251   20.4639 C   0  0  0  0  0  0
  -22.7230  -10.2131   20.3045 C   0  0  0  0  0  0
  -21.6856   -6.0740   22.5278 C   0  0  0  0  0  0
  -21.4017   -6.5638   23.8216 C   0  0  0  0  0  0
  -21.3665   -5.6790   24.9175 C   0  0  0  0  0  0
  -21.6052   -4.3052   24.7218 C   0  0  0  0  0  0
  -21.8824   -3.8148   23.4340 C   0  0  0  0  0  0
  -21.9199   -4.6964   22.3399 C   0  0  0  0  0  0
  -22.7820  -13.5223   21.1869 C   0  0  0  0  0  0
  -22.1663   -4.2154   21.0970 F   0  0  0  0  0  0
  -21.5634   -3.4539   25.7737 F   0  0  0  0  0  0
  -29.9814  -13.5391   20.3937 N   0  0  0  0  0  0
  -26.2920  -12.9373   20.3214 N   0  0  0  0  0  0
  -25.9310  -11.6531   20.5711 N   0  0  0  0  0  0
  -22.0458  -12.8220   22.0432 N   0  0  0  0  0  0
  -25.4194  -15.1919   20.4091 N   0  0  0  0  0  0
  -31.7832  -14.8941   20.2304 O   0  0  0  0  0  0
  -21.6651   -6.8877   21.4237 O   0  0  0  0  0  0
  -22.3508  -14.5522   20.6708 O   0  0  0  0  0  0
  -24.6336  -31.8519   23.1958 C   0  0  0  0  0  0
  -25.9139  -32.4736   23.8330 C   0  0  1  0  0  0
  -27.2346  -27.2355   20.1393 C   0  0  0  0  0  0
  -25.5927  -33.8541   24.2246 N   0  0  0  0  0  0
  -23.4337  -30.4707   21.5380 C   0  0  2  0  0  0
  -24.8846  -28.9081   20.1155 C   0  0  0  0  0  0
  -22.7525  -29.4579   22.4897 C   0  0  0  0  0  0
  -18.0300  -28.1411   22.8482 C   0  0  0  0  0  0
  -24.1481  -36.7275   23.2640 C   0  0  0  0  0  0
  -25.9809  -30.7569   21.3785 C   0  0  0  0  0  0
  -26.0568  -29.3757   20.7218 C   0  0  0  0  0  0
  -27.2333  -28.5545   20.7169 C   0  0  0  0  0  0
  -26.0332  -26.8343   19.5135 C   0  0  0  0  0  0
  -24.8796  -27.6458   19.4995 C   0  0  0  0  0  0
  -23.6561  -29.7991   20.1572 C   0  0  0  0  0  0
  -25.4104  -36.3051   24.0323 C   0  0  1  0  0  0
  -20.5908  -28.3715   23.1265 C   0  0  2  0  0  0
  -20.6784  -26.9427   22.5410 C   0  0  0  0  0  0
  -19.5754  -26.6394   21.5218 C   0  0  0  0  0  0
  -18.1940  -26.7953   22.1634 C   0  0  0  0  0  0
  -19.1555  -28.8879   23.2875 C   0  0  0  0  0  0
  -18.9470  -30.1481   23.8895 C   0  0  0  0  0  0
  -17.6464  -30.6605   24.0565 C   0  0  0  0  0  0
  -25.9051  -34.9430   23.5091 C   0  0  0  0  0  0
  -16.5357  -29.9095   23.6336 C   0  0  0  0  0  0
  -16.7284  -28.6518   23.0350 C   0  0  0  0  0  0
  -26.4495  -31.6582   25.0741 C   0  0  0  0  0  0
  -25.3688  -31.3771   26.1450 C   0  0  0  0  0  0
  -27.0352  -30.2991   24.6265 C   0  0  0  0  0  0
  -27.6066  -32.4321   25.7506 C   0  0  0  0  0  0
  -27.5576  -37.1778   24.8459 C   0  0  0  0  0  0
  -21.4231  -29.3047   22.3643 N   0  0  0  0  0  0
  -26.4276  -37.3753   23.9421 N   0  0  0  0  0  0
  -24.7018  -31.0451   22.0940 N   0  0  0  0  0  0
  -23.4201  -28.8121   23.3016 O   0  0  0  0  0  0
  -28.3468  -26.3515   20.1742 O   0  0  0  0  0  0
  -26.5630  -34.8906   22.4661 O   0  0  0  0  0  0
  -23.5479  -32.1357   23.7216 O   0  0  0  0  0  0
  -31.3474  -18.0224   18.9754 C   0  0  0  0  0  0
  -31.6053  -19.0354   18.0332 C   0  0  0  0  0  0
  -30.3490  -18.4022   19.8230 C   0  0  0  0  0  0
  -30.7306  -20.0497   18.2994 C   0  0  0  0  0  0
  -32.6307  -18.9649   16.9297 C   0  0  0  0  0  0
  -30.5324  -21.2561   17.4425 C   0  0  0  0  0  0
  -30.2969  -24.5210   21.4506 C   0  0  0  0  0  0
  -30.3085  -24.1041   19.0279 C   0  0  0  0  0  0
  -29.8703  -17.3886   20.9163 C   0  0  0  0  0  0
  -29.4768  -22.2532   20.7343 C   0  0  0  0  0  0
  -29.0155  -20.8404   20.0247 C   0  0  0  0  0  0
  -28.1712  -24.8402   20.1922 C   0  0  0  0  0  0
  -29.4859  -23.8721   20.3017 C   0  0  0  0  0  0
  -30.0128  -19.7928   19.4809 N   0  0  0  0  0  0
  -29.7396  -15.8751   20.6356 N   0  0  0  0  0  0
  -31.4800  -12.6467   19.1541 H   0  0  0  0  0  0
  -30.4250  -11.5101   19.9534 H   0  0  0  0  0  0
  -29.8107  -11.7446   17.5203 H   0  0  0  0  0  0
  -29.6310  -13.4679   17.7173 H   0  0  0  0  0  0
  -27.9053  -11.2762   18.9106 H   0  0  0  0  0  0
  -27.3878  -12.5131   17.7920 H   0  0  0  0  0  0
  -27.6293  -14.2445   19.4545 H   0  0  0  0  0  0
  -28.7342  -12.1648   21.4079 H   0  0  0  0  0  0
  -28.4106  -13.8412   21.7858 H   0  0  0  0  0  0
  -25.2762   -9.5725   22.4747 H   0  0  0  0  0  0
  -24.0037   -7.4648   22.7461 H   0  0  0  0  0  0
  -21.0836   -8.8754   19.8952 H   0  0  0  0  0  0
  -22.3662  -10.9672   19.6167 H   0  0  0  0  0  0
  -21.1994   -7.6147   23.9721 H   0  0  0  0  0  0
  -21.1485   -6.0514   25.9085 H   0  0  0  0  0  0
  -22.0597   -2.7604   23.2832 H   0  0  0  0  0  0
  -22.4072  -11.9906   22.4850 H   0  0  0  0  0  0
  -21.1074  -13.1260   22.2622 H   0  0  0  0  0  0
  -24.6437  -15.8388   20.5078 H   0  0  0  0  0  0
  -26.2535  -15.6348   20.0479 H   0  0  0  0  0  0
  -26.7217  -32.5376   23.1087 H   0  0  0  0  0  0
  -25.0037  -33.9681   25.0366 H   0  0  0  0  0  0
  -22.7305  -31.2930   21.3874 H   0  0  0  0  0  0
  -23.3752  -35.9600   23.3268 H   0  0  0  0  0  0
  -24.3584  -36.8935   22.2068 H   0  0  0  0  0  0
  -23.7228  -37.6457   23.6693 H   0  0  0  0  0  0
  -26.1199  -31.5139   20.6059 H   0  0  0  0  0  0
  -26.8583  -30.8112   22.0124 H   0  0  0  0  0  0
  -28.1319  -28.9111   21.2003 H   0  0  0  0  0  0
  -25.9603  -25.8690   19.0363 H   0  0  0  0  0  0
  -23.9813  -27.2782   19.0237 H   0  0  0  0  0  0
  -23.7873  -30.5752   19.4022 H   0  0  0  0  0  0
  -22.7744  -29.2351   19.8482 H   0  0  0  0  0  0
  -25.1282  -36.1889   25.0813 H   0  0  0  0  0  0
  -21.0006  -28.3297   24.1381 H   0  0  0  0  0  0
  -20.5696  -26.2315   23.3612 H   0  0  0  0  0  0
  -21.6644  -26.7451   22.1189 H   0  0  0  0  0  0
  -19.6909  -25.6296   21.1268 H   0  0  0  0  0  0
  -19.6708  -27.3185   20.6732 H   0  0  0  0  0  0
  -17.4204  -26.6700   21.4048 H   0  0  0  0  0  0
  -18.0348  -26.0112   22.9048 H   0  0  0  0  0  0
  -19.7938  -30.7313   24.2265 H   0  0  0  0  0  0
  -17.5007  -31.6285   24.5162 H   0  0  0  0  0  0
  -15.5353  -30.2992   23.7662 H   0  0  0  0  0  0
  -15.8691  -28.0837   22.7059 H   0  0  0  0  0  0
  -24.5849  -30.7143   25.7770 H   0  0  0  0  0  0
  -24.8891  -32.2954   26.4853 H   0  0  0  0  0  0
  -25.7960  -30.8954   27.0254 H   0  0  0  0  0  0
  -26.2962  -29.6740   24.1244 H   0  0  0  0  0  0
  -27.3967  -29.7271   25.4823 H   0  0  0  0  0  0
  -27.8865  -30.4273   23.9574 H   0  0  0  0  0  0
  -27.2707  -33.3647   26.2070 H   0  0  0  0  0  0
  -28.3885  -32.6840   25.0321 H   0  0  0  0  0  0
  -28.0727  -31.8445   26.5434 H   0  0  0  0  0  0
  -28.2556  -38.0108   24.7518 H   0  0  0  0  0  0
  -28.1106  -36.2635   24.6249 H   0  0  0  0  0  0
  -27.2307  -37.1379   25.8863 H   0  0  0  0  0  0
  -20.9418  -29.8751   21.6837 H   0  0  0  0  0  0
  -26.0149  -38.2817   24.1449 H   0  0  0  0  0  0
  -31.8538  -17.0689   19.0143 H   0  0  0  0  0  0
  -33.0253  -17.9521   16.8379 H   0  0  0  0  0  0
  -33.4651  -19.6337   17.1457 H   0  0  0  0  0  0
  -32.2032  -19.2455   15.9668 H   0  0  0  0  0  0
  -30.5954  -20.9922   16.3876 H   0  0  0  0  0  0
  -31.3119  -21.9907   17.6266 H   0  0  0  0  0  0
  -29.5496  -21.6998   17.5701 H   0  0  0  0  0  0
  -31.2792  -24.0626   21.5749 H   0  0  0  0  0  0
  -29.7734  -24.4338   22.4036 H   0  0  0  0  0  0
  -30.4762  -25.5841   21.2839 H   0  0  0  0  0  0
  -31.2843  -23.6232   19.0904 H   0  0  0  0  0  0
  -30.4956  -25.1673   18.8677 H   0  0  0  0  0  0
  -29.7821  -23.7571   18.1434 H   0  0  0  0  0  0
  -28.8989  -17.7193   21.2853 H   0  0  0  0  0  0
  -30.5375  -17.4873   21.7747 H   0  0  0  0  0  0
  -30.4874  -22.0197   21.0713 H   0  0  0  0  0  0
  -28.9067  -22.2555   21.6640 H   0  0  0  0  0  0
  -28.2777  -21.0469   19.2502 H   0  0  0  0  0  0
  -28.4428  -20.3009   20.7801 H   0  0  0  0  0  0
  -27.5083  -24.6068   21.0265 H   0  0  0  0  0  0
  -27.6337  -24.5370   19.2944 H   0  0  0  0  0  0
  -28.7812  -15.5726   20.7094 H   0  0  0  0  0  0
  1 25  1  0  0  0
  1 30  2  0  0  0
  1 85  1  0  0  0
  2  3  1  0  0  0
  2 25  1  0  0  0
  2 86  1  0  0  0
  2 87  1  0  0  0
  3  4  1  0  0  0
  3 88  1  0  0  0
  3 89  1  0  0  0
  4  5  1  0  0  0
  4 90  1  0  0  0
  4 91  1  0  0  0
  5  6  1  0  0  0
  5 26  1  0  0  0
  5 92  1  0  0  0
  6 25  1  0  0  0
  6 93  1  0  0  0
  6 94  1  0  0  0
  7  8  2  0  0  0
  7 26  1  0  0  0
  7 29  1  0  0  0
  8  9  1  0  0  0
  8 22  1  0  0  0
  9 10  1  0  0  0
  9 27  2  0  0  0
 10 11  2  0  0  0
 10 15  1  0  0  0
 11 12  1  0  0  0
 11 95  1  0  0  0
 12 13  2  0  0  0
 12 96  1  0  0  0
 13 14  1  0  0  0
 13 31  1  0  0  0
 14 15  2  0  0  0
 14 97  1  0  0  0
 15 98  1  0  0  0
 16 17  2  0  0  0
 16 21  1  0  0  0
 16 31  1  0  0  0
 17 18  1  0  0  0
 17 99  1  0  0  0
 18 19  2  0  0  0
 18100  1  0  0  0
 19 20  1  0  0  0
 19 24  1  0  0  0
 20 21  2  0  0  0
 20101  1  0  0  0
 21 23  1  0  0  0
 22 28  1  0  0  0
 22 32  2  0  0  0
 26 27  1  0  0  0
 28102  1  0  0  0
 28103  1  0  0  0
 29104  1  0  0  0
 29105  1  0  0  0
 33 34  1  0  0  0
 33 66  1  0  0  0
 33 70  2  0  0  0
 34 36  1  0  0  0
 34 59  1  0  0  0
 34106  1  0  0  0
 35 44  2  0  0  0
 35 45  1  0  0  0
 35 68  1  0  0  0
 36 56  1  0  0  0
 36107  1  0  0  0
 37 39  1  0  0  0
 37 47  1  0  0  0
 37 66  1  0  0  0
 37108  1  0  0  0
 38 43  2  0  0  0
 38 46  1  0  0  0
 38 47  1  0  0  0
 39 64  1  0  0  0
 39 67  2  0  0  0
 40 52  1  0  0  0
 40 53  2  0  0  0
 40 58  1  0  0  0
 41109  1  0  0  0
 41110  1  0  0  0
 41111  1  0  0  0
 41 48  1  0  0  0
 42 43  1  0  0  0
 42 66  1  0  0  0
 42112  1  0  0  0
 42113  1  0  0  0
 43 44  1  0  0  0
 44114  1  0  0  0
 45 46  2  0  0  0
 45115  1  0  0  0
 46116  1  0  0  0
 47117  1  0  0  0
 47118  1  0  0  0
 48 56  1  0  0  0
 48 65  1  0  0  0
 48119  1  0  0  0
 49 50  1  0  0  0
 49 53  1  0  0  0
 49 64  1  0  0  0
 49120  1  0  0  0
 50 51  1  0  0  0
 50121  1  0  0  0
 50122  1  0  0  0
 51 52  1  0  0  0
 51123  1  0  0  0
 51124  1  0  0  0
 52125  1  0  0  0
 52126  1  0  0  0
 53 54  1  0  0  0
 54 55  2  0  0  0
 54127  1  0  0  0
 55 57  1  0  0  0
 55128  1  0  0  0
 56 69  2  0  0  0
 57 58  2  0  0  0
 57129  1  0  0  0
 58130  1  0  0  0
 59 60  1  0  0  0
 59 61  1  0  0  0
 59 62  1  0  0  0
 60131  1  0  0  0
 60132  1  0  0  0
 60133  1  0  0  0
 61134  1  0  0  0
 61135  1  0  0  0
 61136  1  0  0  0
 62137  1  0  0  0
 62138  1  0  0  0
 62139  1  0  0  0
 63 65  1  0  0  0
 63140  1  0  0  0
 63141  1  0  0  0
 63142  1  0  0  0
 64143  1  0  0  0
 65144  1  0  0  0
 68 82  1  0  0  0
 71 72  1  0  0  0
 71 73  2  0  0  0
 71145  1  0  0  0
 72 74  2  0  0  0
 72 75  1  0  0  0
 73 79  1  0  0  0
 73 84  1  0  0  0
 74 76  1  0  0  0
 74 84  1  0  0  0
 75146  1  0  0  0
 75147  1  0  0  0
 75148  1  0  0  0
 76149  1  0  0  0
 76150  1  0  0  0
 76151  1  0  0  0
 77152  1  0  0  0
 77153  1  0  0  0
 77154  1  0  0  0
 77 83  1  0  0  0
 78 83  1  0  0  0
 78155  1  0  0  0
 78156  1  0  0  0
 78157  1  0  0  0
 79 85  1  0  0  0
 79158  1  0  0  0
 79159  1  0  0  0
 80 81  1  0  0  0
 80 83  1  0  0  0
 80160  1  0  0  0
 80161  1  0  0  0
 81 84  1  0  0  0
 81162  1  0  0  0
 81163  1  0  0  0
 82 83  1  0  0  0
 82164  1  0  0  0
 82165  1  0  0  0
 85166  1  0  0  0
M  ISO  4   1 100  68 101  82 101  85 100
M  END
> <chiral flag>
0

> <version>
0

> <s_m_source_file>
/data/baiqing/PycharmProjects/Reinvent-master-3.2/result/LINK_invent/BTK/process_docking_weight1_custom_sum_contain_oxygen_bond_distance_aromatic_linkinvent_7_9_3/rearranged_h_0084.sdf

> <i_m_source_file_index>
15

> <r_mmod_Potential_Energy-OPLS-2005>
279.701416015625

> <r_mmod_Stretch_Energy-OPLS-2005>
172.329696655273

> <r_mmod_Bend_Energy-OPLS-2005>
292.691040039062

> <r_mmod_Torsional_Energy-OPLS-2005>
239.955856323242

> <r_mmod_Improper_Torsional_Energy-OPLS-2005>
5.39133930206299

> <r_mmod_Van_der_Waal_Energy-OPLS-2005>
117.948028564453

> <r_mmod_Electrostatic_Energy-OPLS-2005>
-433.718566894531

> <r_mmod_Solvation_Energy-OPLS-2005>
-215.629348754883

> <b_mmod_Minimization_Converged-OPLS-2005>
0

> <r_mmod_RMS_Derivative-OPLS-2005>
2.30313849449158

$$$$
15
                    3D
 Structure written by MMmdl.
178186  0  0  1  0            999 V2000
  -30.5896  -14.5867   20.5217 C   0  0  0  0  0  0
  -30.4485  -12.3849   19.3969 C   0  0  0  0  0  0
  -29.4851  -12.5283   18.1925 C   0  0  0  0  0  0
  -28.0134  -12.3555   18.6140 C   0  0  0  0  0  0
  -27.6612  -13.1837   19.8798 C   0  0  2  0  0  0
  -28.7226  -12.9599   20.9912 C   0  0  0  0  0  0
  -25.2637  -13.7942   20.5855 C   0  0  0  0  0  0
  -24.1857  -13.0362   20.9298 C   0  0  0  0  0  0
  -24.6316  -11.6757   20.8766 C   0  0  0  0  0  0
  -23.8983  -10.4201   21.0364 C   0  0  0  0  0  0
  -24.3505   -9.4097   21.9155 C   0  0  0  0  0  0
  -23.6139   -8.2170   22.0709 C   0  0  0  0  0  0
  -22.4149   -8.0200   21.3500 C   0  0  0  0  0  0
  -21.9813   -9.0182   20.4621 C   0  0  0  0  0  0
  -22.7157  -10.2042   20.3025 C   0  0  0  0  0  0
  -21.6773   -6.0625   22.5305 C   0  0  0  0  0  0
  -21.3966   -6.5536   23.8249 C   0  0  0  0  0  0
  -21.3667   -5.6709   24.9247 C   0  0  0  0  0  0
  -21.6090   -4.2985   24.7325 C   0  0  0  0  0  0
  -21.8812   -3.8040   23.4456 C   0  0  0  0  0  0
  -21.9143   -4.6840   22.3483 C   0  0  0  0  0  0
  -22.7880  -13.5234   21.1941 C   0  0  0  0  0  0
  -22.1606   -4.2009   21.1070 F   0  0  0  0  0  0
  -21.5703   -3.4476   25.7852 F   0  0  0  0  0  0
  -30.0317  -13.3417   20.4354 N   0  0  0  0  0  0
  -26.3041  -12.9105   20.3460 N   0  0  0  0  0  0
  -25.9246  -11.6273   20.5769 N   0  0  0  0  0  0
  -22.0363  -12.8262   22.0375 N   0  0  0  0  0  0
  -25.4501  -15.1689   20.4373 N   0  0  0  0  0  0
  -31.7011  -14.8515   20.0410 O   0  0  0  0  0  0
  -21.6594   -6.8741   21.4214 O   0  0  0  0  0  0
  -22.3689  -14.5625   20.6784 O   0  0  0  0  0  0
  -24.6200  -31.8621   23.2053 C   0  0  0  0  0  0
  -25.9058  -32.4756   23.8362 C   0  0  1  0  0  0
  -27.2518  -27.3573   20.1212 C   0  0  0  0  0  0
  -25.5878  -33.8571   24.2255 N   0  0  0  0  0  0
  -23.4227  -30.4805   21.5374 C   0  0  2  0  0  0
  -24.8696  -28.9263   20.1197 C   0  0  0  0  0  0
  -22.7462  -29.4686   22.4938 C   0  0  0  0  0  0
  -18.0365  -28.1303   22.8296 C   0  0  0  0  0  0
  -24.1475  -36.7297   23.2662 C   0  0  0  0  0  0
  -25.9580  -30.7855   21.3767 C   0  0  0  0  0  0
  -26.0267  -29.4125   20.7329 C   0  0  0  0  0  0
  -27.2143  -28.6377   20.7324 C   0  0  0  0  0  0
  -26.0668  -26.8971   19.4984 C   0  0  0  0  0  0
  -24.8886  -27.6682   19.4968 C   0  0  0  0  0  0
  -23.6406  -29.7995   20.1599 C   0  0  0  0  0  0
  -25.4113  -36.3099   24.0362 C   0  0  1  0  0  0
  -20.5962  -28.3662   23.1187 C   0  0  2  0  0  0
  -20.6907  -26.9404   22.5109 C   0  0  0  0  0  0
  -19.5904  -26.6511   21.4905 C   0  0  0  0  0  0
  -18.2110  -26.7925   22.1328 C   0  0  0  0  0  0
  -19.1590  -28.8734   23.2801 C   0  0  0  0  0  0
  -18.9473  -30.1305   23.8881 C   0  0  0  0  0  0
  -17.6445  -30.6383   24.0533 C   0  0  0  0  0  0
  -25.9041  -34.9451   23.5117 C   0  0  0  0  0  0
  -16.5399  -29.8927   23.6238 C   0  0  0  0  0  0
  -16.7355  -28.6411   23.0135 C   0  0  0  0  0  0
  -26.4467  -31.6593   25.0728 C   0  0  0  0  0  0
  -25.3724  -31.3698   26.1449 C   0  0  0  0  0  0
  -27.0326  -30.3041   24.6170 C   0  0  0  0  0  0
  -27.6008  -32.4391   25.7449 C   0  0  0  0  0  0
  -27.5568  -37.1833   24.8478 C   0  0  0  0  0  0
  -21.4159  -29.3127   22.3628 N   0  0  0  0  0  0
  -26.4289  -37.3804   23.9417 N   0  0  0  0  0  0
  -24.6838  -31.0680   22.0945 N   0  0  0  0  0  0
  -23.4199  -28.8168   23.2985 O   0  0  0  0  0  0
  -28.4387  -26.6259   20.1664 O   0  0  0  0  0  0
  -26.5625  -34.8952   22.4669 O   0  0  0  0  0  0
  -23.5375  -32.1421   23.7390 O   0  0  0  0  0  0
  -29.5959  -19.5910   22.9534 C   0  0  0  0  0  0
  -29.6539  -18.2127   22.6366 C   0  0  0  0  0  0
  -29.3631  -20.3528   21.8390 C   0  0  0  0  0  0
  -29.4081  -18.1103   21.2900 C   0  0  0  0  0  0
  -29.9386  -17.1327   23.6477 C   0  0  0  0  0  0
  -30.3632  -22.3636   22.9478 C   0  0  0  0  0  0
  -24.7937  -21.1979   19.4913 C   0  0  0  0  0  0
  -25.9265  -20.4691   21.5298 C   0  0  0  0  0  0
  -25.3702  -18.7870   19.7491 C   0  0  0  0  0  0
  -29.4213  -16.8678   20.3848 C   0  0  0  0  0  0
  -29.2018  -24.3751   20.9581 C   0  0  0  0  0  0
  -29.5747  -22.8655   20.6490 C   0  0  0  0  0  0
  -27.1981  -20.5211   19.3124 C   0  0  0  0  0  0
  -28.5080  -19.6841   19.4866 C   0  0  0  0  0  0
  -28.5120  -25.2113   19.8361 C   0  0  0  0  0  0
  -29.3306  -21.9106   21.8890 C   0  0  1  0  0  0
  -25.8561  -20.2136   20.0266 C   0  0  0  0  0  0
  -29.0382  -19.4121   20.8344 N   0  0  0  0  0  0
  -29.7312  -15.5390   20.9713 N   0  0  0  0  0  0
  -31.4768  -12.5580   19.0686 H   0  0  0  0  0  0
  -30.4320  -11.3657   19.7849 H   0  0  0  0  0  0
  -29.7370  -11.7963   17.4263 H   0  0  0  0  0  0
  -29.6132  -13.5037   17.7119 H   0  0  0  0  0  0
  -27.8321  -11.2922   18.7849 H   0  0  0  0  0  0
  -27.3460  -12.6484   17.8028 H   0  0  0  0  0  0
  -27.6984  -14.2355   19.5817 H   0  0  0  0  0  0
  -28.7556  -11.9144   21.2989 H   0  0  0  0  0  0
  -28.4744  -13.5174   21.8973 H   0  0  0  0  0  0
  -25.2583   -9.5577   22.4834 H   0  0  0  0  0  0
  -23.9794   -7.4515   22.7388 H   0  0  0  0  0  0
  -21.0765   -8.8700   19.8872 H   0  0  0  0  0  0
  -22.3565  -10.9604   19.6191 H   0  0  0  0  0  0
  -21.1922   -7.6035   23.9742 H   0  0  0  0  0  0
  -21.1499   -6.0444   25.9159 H   0  0  0  0  0  0
  -22.0569   -2.7481   23.3058 H   0  0  0  0  0  0
  -22.3779  -11.9917   22.4984 H   0  0  0  0  0  0
  -21.0969  -13.1337   22.2469 H   0  0  0  0  0  0
  -24.7066  -15.8251   20.6428 H   0  0  0  0  0  0
  -26.3437  -15.6117   20.2645 H   0  0  0  0  0  0
  -26.7109  -32.5465   23.1101 H   0  0  0  0  0  0
  -24.9984  -33.9665   25.0368 H   0  0  0  0  0  0
  -22.7233  -31.3018   21.3755 H   0  0  0  0  0  0
  -23.3724  -35.9631   23.3341 H   0  0  0  0  0  0
  -24.3593  -36.8883   22.2074 H   0  0  0  0  0  0
  -23.7203  -37.6522   23.6637 H   0  0  0  0  0  0
  -26.1053  -31.5279   20.5931 H   0  0  0  0  0  0
  -26.8346  -30.8424   22.0063 H   0  0  0  0  0  0
  -28.0969  -29.0164   21.2197 H   0  0  0  0  0  0
  -26.0122  -25.9392   19.0083 H   0  0  0  0  0  0
  -24.0067  -27.2762   19.0115 H   0  0  0  0  0  0
  -23.7744  -30.5548   19.3830 H   0  0  0  0  0  0
  -22.7727  -29.2081   19.8635 H   0  0  0  0  0  0
  -25.1270  -36.1992   25.0868 H   0  0  0  0  0  0
  -21.0129  -28.3096   24.1288 H   0  0  0  0  0  0
  -20.5972  -26.2026   23.3076 H   0  0  0  0  0  0
  -21.6732  -26.7626   22.0689 H   0  0  0  0  0  0
  -19.7226  -25.6599   21.0625 H   0  0  0  0  0  0
  -19.6713  -27.3486   20.6577 H   0  0  0  0  0  0
  -17.4460  -26.6793   21.3662 H   0  0  0  0  0  0
  -18.0707  -25.9857   22.8571 H   0  0  0  0  0  0
  -19.7958  -30.7099   24.2239 H   0  0  0  0  0  0
  -17.5007  -31.6035   24.5130 H   0  0  0  0  0  0
  -15.5405  -30.2755   23.7612 H   0  0  0  0  0  0
  -15.8781  -28.0767   22.6738 H   0  0  0  0  0  0
  -24.5932  -30.6992   25.7785 H   0  0  0  0  0  0
  -24.8845  -32.2840   26.4869 H   0  0  0  0  0  0
  -25.8108  -30.8911   27.0197 H   0  0  0  0  0  0
  -26.2894  -29.6788   24.1212 H   0  0  0  0  0  0
  -27.4047  -29.7324   25.4662 H   0  0  0  0  0  0
  -27.8733  -30.4323   23.9358 H   0  0  0  0  0  0
  -27.2568  -33.3670   26.2020 H   0  0  0  0  0  0
  -28.3774  -32.7029   25.0256 H   0  0  0  0  0  0
  -28.0708  -31.8551   26.5358 H   0  0  0  0  0  0
  -28.2635  -38.0089   24.7515 H   0  0  0  0  0  0
  -28.1032  -36.2635   24.6309 H   0  0  0  0  0  0
  -27.2311  -37.1495   25.8895 H   0  0  0  0  0  0
  -20.9313  -29.8993   21.6987 H   0  0  0  0  0  0
  -26.0175  -38.2891   24.1396 H   0  0  0  0  0  0
  -29.7332  -19.9828   23.9477 H   0  0  0  0  0  0
  -29.9060  -17.5393   24.6628 H   0  0  0  0  0  0
  -30.9161  -16.6933   23.4630 H   0  0  0  0  0  0
  -29.1962  -16.3397   23.5841 H   0  0  0  0  0  0
  -30.0613  -22.0893   23.9537 H   0  0  0  0  0  0
  -30.5603  -23.4298   22.9701 H   0  0  0  0  0  0
  -31.3260  -21.8953   22.7547 H   0  0  0  0  0  0
  -23.8405  -21.0902   20.0178 H   0  0  0  0  0  0
  -24.5950  -21.0629   18.4323 H   0  0  0  0  0  0
  -25.1101  -22.2299   19.6281 H   0  0  0  0  0  0
  -24.9248  -20.5304   21.9498 H   0  0  0  0  0  0
  -26.3935  -21.4294   21.7234 H   0  0  0  0  0  0
  -26.4818  -19.6995   22.0646 H   0  0  0  0  0  0
  -24.3742  -18.6295   20.1632 H   0  0  0  0  0  0
  -26.0345  -18.0377   20.1792 H   0  0  0  0  0  0
  -25.2903  -18.5951   18.6756 H   0  0  0  0  0  0
  -28.4050  -16.7226   20.0096 H   0  0  0  0  0  0
  -30.0372  -17.0483   19.5051 H   0  0  0  0  0  0
  -30.0944  -24.9178   21.2720 H   0  0  0  0  0  0
  -28.5619  -24.3939   21.8395 H   0  0  0  0  0  0
  -30.6175  -22.8190   20.3337 H   0  0  0  0  0  0
  -29.0413  -22.5571   19.7681 H   0  0  0  0  0  0
  -27.3893  -21.5650   19.5009 H   0  0  0  0  0  0
  -26.9962  -20.4987   18.2430 H   0  0  0  0  0  0
  -29.3087  -20.1637   18.9190 H   0  0  0  0  0  0
  -28.2941  -18.7432   18.9808 H   0  0  0  0  0  0
  -27.5519  -24.7562   19.6213 H   0  0  0  0  0  0
  -29.1230  -25.1138   18.9362 H   0  0  0  0  0  0
  -28.3517  -22.1677   22.2978 H   0  0  0  0  0  0
  -28.9351  -15.1488   21.4560 H   0  0  0  0  0  0
  1 25  1  0  0  0
  1 30  2  0  0  0
  1 89  1  0  0  0
  2  3  1  0  0  0
  2 25  1  0  0  0
  2 90  1  0  0  0
  2 91  1  0  0  0
  3  4  1  0  0  0
  3 92  1  0  0  0
  3 93  1  0  0  0
  4  5  1  0  0  0
  4 94  1  0  0  0
  4 95  1  0  0  0
  5  6  1  0  0  0
  5 26  1  0  0  0
  5 96  1  0  0  0
  6 25  1  0  0  0
  6 97  1  0  0  0
  6 98  1  0  0  0
  7  8  2  0  0  0
  7 26  1  0  0  0
  7 29  1  0  0  0
  8  9  1  0  0  0
  8 22  1  0  0  0
  9 10  1  0  0  0
  9 27  2  0  0  0
 10 11  2  0  0  0
 10 15  1  0  0  0
 11 12  1  0  0  0
 11 99  1  0  0  0
 12 13  2  0  0  0
 12100  1  0  0  0
 13 14  1  0  0  0
 13 31  1  0  0  0
 14 15  2  0  0  0
 14101  1  0  0  0
 15102  1  0  0  0
 16 17  2  0  0  0
 16 21  1  0  0  0
 16 31  1  0  0  0
 17 18  1  0  0  0
 17103  1  0  0  0
 18 19  2  0  0  0
 18104  1  0  0  0
 19 20  1  0  0  0
 19 24  1  0  0  0
 20 21  2  0  0  0
 20105  1  0  0  0
 21 23  1  0  0  0
 22 28  1  0  0  0
 22 32  2  0  0  0
 26 27  1  0  0  0
 28106  1  0  0  0
 28107  1  0  0  0
 29108  1  0  0  0
 29109  1  0  0  0
 33 34  1  0  0  0
 33 66  1  0  0  0
 33 70  2  0  0  0
 34 36  1  0  0  0
 34 59  1  0  0  0
 34110  1  0  0  0
 35 44  2  0  0  0
 35 45  1  0  0  0
 35 68  1  0  0  0
 36 56  1  0  0  0
 36111  1  0  0  0
 37 39  1  0  0  0
 37 47  1  0  0  0
 37 66  1  0  0  0
 37112  1  0  0  0
 38 43  2  0  0  0
 38 46  1  0  0  0
 38 47  1  0  0  0
 39 64  1  0  0  0
 39 67  2  0  0  0
 40 52  1  0  0  0
 40 53  2  0  0  0
 40 58  1  0  0  0
 41113  1  0  0  0
 41114  1  0  0  0
 41115  1  0  0  0
 41 48  1  0  0  0
 42 43  1  0  0  0
 42 66  1  0  0  0
 42116  1  0  0  0
 42117  1  0  0  0
 43 44  1  0  0  0
 44118  1  0  0  0
 45 46  2  0  0  0
 45119  1  0  0  0
 46120  1  0  0  0
 47121  1  0  0  0
 47122  1  0  0  0
 48 56  1  0  0  0
 48 65  1  0  0  0
 48123  1  0  0  0
 49 50  1  0  0  0
 49 53  1  0  0  0
 49 64  1  0  0  0
 49124  1  0  0  0
 50 51  1  0  0  0
 50125  1  0  0  0
 50126  1  0  0  0
 51 52  1  0  0  0
 51127  1  0  0  0
 51128  1  0  0  0
 52129  1  0  0  0
 52130  1  0  0  0
 53 54  1  0  0  0
 54 55  2  0  0  0
 54131  1  0  0  0
 55 57  1  0  0  0
 55132  1  0  0  0
 56 69  2  0  0  0
 57 58  2  0  0  0
 57133  1  0  0  0
 58134  1  0  0  0
 59 60  1  0  0  0
 59 61  1  0  0  0
 59 62  1  0  0  0
 60135  1  0  0  0
 60136  1  0  0  0
 60137  1  0  0  0
 61138  1  0  0  0
 61139  1  0  0  0
 61140  1  0  0  0
 62141  1  0  0  0
 62142  1  0  0  0
 62143  1  0  0  0
 63 65  1  0  0  0
 63144  1  0  0  0
 63145  1  0  0  0
 63146  1  0  0  0
 64147  1  0  0  0
 65148  1  0  0  0
 68 85  1  0  0  0
 71 72  1  0  0  0
 71 73  2  0  0  0
 71149  1  0  0  0
 72 74  2  0  0  0
 72 75  1  0  0  0
 73 86  1  0  0  0
 73 88  1  0  0  0
 74 80  1  0  0  0
 74 88  1  0  0  0
 75150  1  0  0  0
 75151  1  0  0  0
 75152  1  0  0  0
 76153  1  0  0  0
 76154  1  0  0  0
 76155  1  0  0  0
 76 86  1  0  0  0
 77156  1  0  0  0
 77157  1  0  0  0
 77158  1  0  0  0
 77 87  1  0  0  0
 78 87  1  0  0  0
 78159  1  0  0  0
 78160  1  0  0  0
 78161  1  0  0  0
 79 87  1  0  0  0
 79162  1  0  0  0
 79163  1  0  0  0
 79164  1  0  0  0
 80 89  1  0  0  0
 80165  1  0  0  0
 80166  1  0  0  0
 81 82  1  0  0  0
 81 85  1  0  0  0
 81167  1  0  0  0
 81168  1  0  0  0
 82 86  1  0  0  0
 82169  1  0  0  0
 82170  1  0  0  0
 83 84  1  0  0  0
 83 87  1  0  0  0
 83171  1  0  0  0
 83172  1  0  0  0
 84 88  1  0  0  0
 84173  1  0  0  0
 84174  1  0  0  0
 85175  1  0  0  0
 85176  1  0  0  0
 86177  1  0  0  0
 89178  1  0  0  0
M  ISO  4   1 100  68 101  85 101  89 100
M  END
> <chiral flag>
0

> <version>
0

> <s_m_source_file>
/data/baiqing/PycharmProjects/Reinvent-master-3.2/result/LINK_invent/BTK/process_docking_weight1_custom_sum_contain_oxygen_bond_distance_aromatic_linkinvent_7_9_3/rearranged_h_0084.sdf

> <i_m_source_file_index>
16

> <r_mmod_Potential_Energy-OPLS-2005>
62.6603088378906

> <r_mmod_Stretch_Energy-OPLS-2005>
68.608512878418

> <r_mmod_Bend_Energy-OPLS-2005>
200.657867431641

> <r_mmod_Torsional_Energy-OPLS-2005>
261.026000976562

> <r_mmod_Improper_Torsional_Energy-OPLS-2005>
8.71549892425537

> <r_mmod_Van_der_Waal_Energy-OPLS-2005>
129.116851806641

> <r_mmod_Electrostatic_Energy-OPLS-2005>
-441.389587402344

> <r_mmod_Solvation_Energy-OPLS-2005>
-200.667282104492

> <b_mmod_Minimization_Converged-OPLS-2005>
0

> <r_mmod_RMS_Derivative-OPLS-2005>
12.199330329895

$$$$
16
                    3D
 Structure written by MMmdl.
163171  0  0  1  0            999 V2000
  -30.7002  -14.4655   20.5905 C   0  0  0  0  0  0
  -30.4249  -12.3136   19.4109 C   0  0  0  0  0  0
  -29.4903  -12.5035   18.1988 C   0  0  0  0  0  0
  -28.0125  -12.3629   18.6150 C   0  0  0  0  0  0
  -27.6604  -13.2035   19.8713 C   0  0  2  0  0  0
  -28.7022  -12.9784   20.9886 C   0  0  0  0  0  0
  -25.2588  -13.8152   20.5675 C   0  0  0  0  0  0
  -24.1838  -13.0438   20.9178 C   0  0  0  0  0  0
  -24.6386  -11.6901   20.8737 C   0  0  0  0  0  0
  -23.9054  -10.4291   21.0404 C   0  0  0  0  0  0
  -24.3607   -9.4208   21.9184 C   0  0  0  0  0  0
  -23.6287   -8.2242   22.0753 C   0  0  0  0  0  0
  -22.4269   -8.0278   21.3542 C   0  0  0  0  0  0
  -21.9904   -9.0250   20.4641 C   0  0  0  0  0  0
  -22.7229  -10.2134   20.3052 C   0  0  0  0  0  0
  -21.6851   -6.0732   22.5280 C   0  0  0  0  0  0
  -21.4010   -6.5637   23.8214 C   0  0  0  0  0  0
  -21.3660   -5.6790   24.9173 C   0  0  0  0  0  0
  -21.6043   -4.3053   24.7224 C   0  0  0  0  0  0
  -21.8822   -3.8146   23.4344 C   0  0  0  0  0  0
  -21.9193   -4.6961   22.3399 C   0  0  0  0  0  0
  -22.7864  -13.5243   21.1843 C   0  0  0  0  0  0
  -22.1664   -4.2148   21.0977 F   0  0  0  0  0  0
  -21.5629   -3.4538   25.7736 F   0  0  0  0  0  0
  -30.0300  -13.2924   20.4346 N   0  0  0  0  0  0
  -26.3014  -12.9316   20.3348 N   0  0  0  0  0  0
  -25.9310  -11.6482   20.5754 N   0  0  0  0  0  0
  -22.0498  -12.8231   22.0394 N   0  0  0  0  0  0
  -25.4328  -15.1867   20.4075 N   0  0  0  0  0  0
  -31.8254  -14.6647   20.1244 O   0  0  0  0  0  0
  -21.6637   -6.8872   21.4239 O   0  0  0  0  0  0
  -22.3559  -14.5551   20.6693 O   0  0  0  0  0  0
  -24.6163  -31.8668   23.2102 C   0  0  0  0  0  0
  -25.9064  -32.4815   23.8390 C   0  0  1  0  0  0
  -27.2326  -27.4334   20.0945 C   0  0  0  0  0  0
  -25.5927  -33.8612   24.2326 N   0  0  0  0  0  0
  -23.4043  -30.4895   21.5494 C   0  0  2  0  0  0
  -24.8518  -28.9519   20.1157 C   0  0  0  0  0  0
  -22.7421  -29.4647   22.4982 C   0  0  0  0  0  0
  -18.0279  -28.1355   22.8469 C   0  0  0  0  0  0
  -24.1500  -36.7294   23.2636 C   0  0  0  0  0  0
  -25.9327  -30.8308   21.3642 C   0  0  0  0  0  0
  -26.0118  -29.4636   20.7135 C   0  0  0  0  0  0
  -27.2097  -28.7099   20.7034 C   0  0  0  0  0  0
  -26.0613  -26.9329   19.4959 C   0  0  0  0  0  0
  -24.8704  -27.6846   19.5056 C   0  0  0  0  0  0
  -23.6137  -29.8196   20.1642 C   0  0  0  0  0  0
  -25.4120  -36.3096   24.0330 C   0  0  1  0  0  0
  -20.5869  -28.3655   23.1304 C   0  0  2  0  0  0
  -20.6785  -26.9387   22.5409 C   0  0  0  0  0  0
  -19.5772  -26.6372   21.5196 C   0  0  0  0  0  0
  -18.1939  -26.7904   22.1595 C   0  0  0  0  0  0
  -19.1525  -28.8820   23.2887 C   0  0  0  0  0  0
  -18.9459  -30.1427   23.8896 C   0  0  0  0  0  0
  -17.6462  -30.6564   24.0552 C   0  0  0  0  0  0
  -25.9043  -34.9465   23.5122 C   0  0  0  0  0  0
  -16.5353  -29.9061   23.6314 C   0  0  0  0  0  0
  -16.7270  -28.6483   23.0320 C   0  0  0  0  0  0
  -26.4484  -31.6598   25.0719 C   0  0  0  0  0  0
  -25.3751  -31.3715   26.1473 C   0  0  0  0  0  0
  -27.0332  -30.3053   24.6082 C   0  0  0  0  0  0
  -27.6046  -32.4327   25.7491 C   0  0  0  0  0  0
  -27.5585  -37.1807   24.8464 C   0  0  0  0  0  0
  -21.4151  -29.3022   22.3712 N   0  0  0  0  0  0
  -26.4304  -37.3775   23.9398 N   0  0  0  0  0  0
  -24.6688  -31.0767   22.0998 N   0  0  0  0  0  0
  -23.4190  -28.8199   23.3030 O   0  0  0  0  0  0
  -28.3732  -26.6630   20.0547 O   0  0  0  0  0  0
  -26.5586  -34.8916   22.4670 O   0  0  0  0  0  0
  -23.5356  -32.1425   23.7499 O   0  0  0  0  0  0
  -29.2274  -21.1267   20.5592 C   0  0  0  0  0  0
  -28.9802  -19.7845   20.7765 C   0  0  0  0  0  0
  -28.1324  -20.9597   22.4782 C   0  0  0  0  0  0
  -27.4641  -21.2545   23.7835 C   0  0  0  0  0  0
  -29.7859  -26.2547   21.9077 C   0  0  0  0  0  0
  -29.2916  -18.5426   19.9754 C   0  0  0  0  0  0
  -30.5948  -17.8143   20.3919 C   0  0  0  0  0  0
  -28.6298  -24.2738   20.7088 C   0  0  0  0  0  0
  -28.7644  -23.2903   21.9047 C   0  0  0  0  0  0
  -30.5114  -16.7893   21.5572 C   0  0  0  0  0  0
  -28.5357  -25.7653   21.1625 C   0  0  2  0  0  0
  -28.6871  -21.8316   21.6147 N   0  0  0  0  0  0
  -28.3016  -19.7359   21.9652 N   0  3  0  0  0  0
  -30.0096  -15.4520   21.1947 N   0  0  0  0  0  0
  -31.4667  -12.4255   19.1045 H   0  0  0  0  0  0
  -30.3388  -11.3011   19.8080 H   0  0  0  0  0  0
  -29.7286  -11.7746   17.4229 H   0  0  0  0  0  0
  -29.6553  -13.4866   17.7553 H   0  0  0  0  0  0
  -27.8248  -11.3072   18.8132 H   0  0  0  0  0  0
  -27.3599  -12.6360   17.7850 H   0  0  0  0  0  0
  -27.7062  -14.2515   19.5754 H   0  0  0  0  0  0
  -28.6824  -11.9393   21.3199 H   0  0  0  0  0  0
  -28.4611  -13.5678   21.8738 H   0  0  0  0  0  0
  -25.2755   -9.5686   22.4757 H   0  0  0  0  0  0
  -23.9999   -7.4632   22.7472 H   0  0  0  0  0  0
  -21.0840   -8.8764   19.8944 H   0  0  0  0  0  0
  -22.3689  -10.9669   19.6160 H   0  0  0  0  0  0
  -21.2002   -7.6150   23.9713 H   0  0  0  0  0  0
  -21.1478   -6.0522   25.9075 H   0  0  0  0  0  0
  -22.0600   -2.7609   23.2845 H   0  0  0  0  0  0
  -22.4109  -11.9891   22.4779 H   0  0  0  0  0  0
  -21.1114  -13.1258   22.2581 H   0  0  0  0  0  0
  -24.6647  -15.8416   20.5031 H   0  0  0  0  0  0
  -26.2804  -15.6183   20.0624 H   0  0  0  0  0  0
  -26.7135  -32.5533   23.1146 H   0  0  0  0  0  0
  -25.0151  -33.9770   25.0525 H   0  0  0  0  0  0
  -22.6937  -31.3065   21.4084 H   0  0  0  0  0  0
  -23.3758  -35.9633   23.3312 H   0  0  0  0  0  0
  -24.3604  -36.8892   22.2051 H   0  0  0  0  0  0
  -23.7262  -37.6502   23.6647 H   0  0  0  0  0  0
  -26.0468  -31.5976   20.5968 H   0  0  0  0  0  0
  -26.8203  -30.8846   21.9827 H   0  0  0  0  0  0
  -28.1086  -29.1014   21.1613 H   0  0  0  0  0  0
  -26.0736  -25.9608   19.0232 H   0  0  0  0  0  0
  -23.9800  -27.2837   19.0408 H   0  0  0  0  0  0
  -23.7218  -30.5942   19.4038 H   0  0  0  0  0  0
  -22.7381  -29.2390   19.8689 H   0  0  0  0  0  0
  -25.1300  -36.1947   25.0821 H   0  0  0  0  0  0
  -20.9963  -28.3231   24.1423 H   0  0  0  0  0  0
  -20.5695  -26.2256   23.3597 H   0  0  0  0  0  0
  -21.6656  -26.7438   22.1193 H   0  0  0  0  0  0
  -19.6944  -25.6289   21.1212 H   0  0  0  0  0  0
  -19.6718  -27.3196   20.6737 H   0  0  0  0  0  0
  -17.4211  -26.6644   21.3989 H   0  0  0  0  0  0
  -18.0336  -26.0047   22.8992 H   0  0  0  0  0  0
  -19.7942  -30.7229   24.2273 H   0  0  0  0  0  0
  -17.5017  -31.6241   24.5162 H   0  0  0  0  0  0
  -15.5350  -30.2956   23.7650 H   0  0  0  0  0  0
  -15.8673  -28.0820   22.7003 H   0  0  0  0  0  0
  -24.5919  -30.7054   25.7830 H   0  0  0  0  0  0
  -24.8944  -32.2879   26.4911 H   0  0  0  0  0  0
  -25.8112  -30.8907   27.0240 H   0  0  0  0  0  0
  -26.2885  -29.6803   24.1140 H   0  0  0  0  0  0
  -27.4134  -29.7287   25.4525 H   0  0  0  0  0  0
  -27.8698  -30.4387   23.9217 H   0  0  0  0  0  0
  -27.2645  -33.3612   26.2082 H   0  0  0  0  0  0
  -28.3852  -32.6912   25.0325 H   0  0  0  0  0  0
  -28.0712  -31.8448   26.5400 H   0  0  0  0  0  0
  -28.2597  -38.0108   24.7506 H   0  0  0  0  0  0
  -28.1083  -36.2638   24.6295 H   0  0  0  0  0  0
  -27.2301  -37.1451   25.8867 H   0  0  0  0  0  0
  -20.9318  -29.8723   21.6918 H   0  0  0  0  0  0
  -26.0191  -38.2847   24.1403 H   0  0  0  0  0  0
  -29.7456  -21.6175   19.7456 H   0  0  0  0  0  0
  -28.1814  -21.7464   24.4398 H   0  0  0  0  0  0
  -27.1322  -20.3194   24.2340 H   0  0  0  0  0  0
  -26.6046  -21.8994   23.6034 H   0  0  0  0  0  0
  -29.9512  -25.7041   22.8326 H   0  0  0  0  0  0
  -29.6855  -27.3060   22.1774 H   0  0  0  0  0  0
  -30.6787  -26.1547   21.2915 H   0  0  0  0  0  0
  -29.3817  -18.8465   18.9319 H   0  0  0  0  0  0
  -28.4446  -17.8567   20.0099 H   0  0  0  0  0  0
  -31.3495  -18.5667   20.6255 H   0  0  0  0  0  0
  -30.9854  -17.2936   19.5168 H   0  0  0  0  0  0
  -27.7323  -24.0227   20.1420 H   0  0  0  0  0  0
  -29.4694  -24.1463   20.0259 H   0  0  0  0  0  0
  -27.9845  -23.5357   22.6251 H   0  0  0  0  0  0
  -29.7140  -23.4483   22.4154 H   0  0  0  0  0  0
  -29.9036  -17.1892   22.3692 H   0  0  0  0  0  0
  -31.5100  -16.6639   21.9802 H   0  0  0  0  0  0
  -27.6862  -25.8530   21.8445 H   0  0  0  0  0  0
  -27.9632  -18.8879   22.4057 H   0  0  0  0  0  0
  -29.0829  -15.2070   21.5125 H   0  0  0  0  0  0
  1 25  1  0  0  0
  1 30  2  0  0  0
  1 84  1  0  0  0
  2  3  1  0  0  0
  2 25  1  0  0  0
  2 85  1  0  0  0
  2 86  1  0  0  0
  3  4  1  0  0  0
  3 87  1  0  0  0
  3 88  1  0  0  0
  4  5  1  0  0  0
  4 89  1  0  0  0
  4 90  1  0  0  0
  5  6  1  0  0  0
  5 26  1  0  0  0
  5 91  1  0  0  0
  6 25  1  0  0  0
  6 92  1  0  0  0
  6 93  1  0  0  0
  7  8  2  0  0  0
  7 26  1  0  0  0
  7 29  1  0  0  0
  8  9  1  0  0  0
  8 22  1  0  0  0
  9 10  1  0  0  0
  9 27  2  0  0  0
 10 11  2  0  0  0
 10 15  1  0  0  0
 11 12  1  0  0  0
 11 94  1  0  0  0
 12 13  2  0  0  0
 12 95  1  0  0  0
 13 14  1  0  0  0
 13 31  1  0  0  0
 14 15  2  0  0  0
 14 96  1  0  0  0
 15 97  1  0  0  0
 16 17  2  0  0  0
 16 21  1  0  0  0
 16 31  1  0  0  0
 17 18  1  0  0  0
 17 98  1  0  0  0
 18 19  2  0  0  0
 18 99  1  0  0  0
 19 20  1  0  0  0
 19 24  1  0  0  0
 20 21  2  0  0  0
 20100  1  0  0  0
 21 23  1  0  0  0
 22 28  1  0  0  0
 22 32  2  0  0  0
 26 27  1  0  0  0
 28101  1  0  0  0
 28102  1  0  0  0
 29103  1  0  0  0
 29104  1  0  0  0
 33 34  1  0  0  0
 33 66  1  0  0  0
 33 70  2  0  0  0
 34 36  1  0  0  0
 34 59  1  0  0  0
 34105  1  0  0  0
 35 44  2  0  0  0
 35 45  1  0  0  0
 35 68  1  0  0  0
 36 56  1  0  0  0
 36106  1  0  0  0
 37 39  1  0  0  0
 37 47  1  0  0  0
 37 66  1  0  0  0
 37107  1  0  0  0
 38 43  2  0  0  0
 38 46  1  0  0  0
 38 47  1  0  0  0
 39 64  1  0  0  0
 39 67  2  0  0  0
 40 52  1  0  0  0
 40 53  2  0  0  0
 40 58  1  0  0  0
 41108  1  0  0  0
 41109  1  0  0  0
 41110  1  0  0  0
 41 48  1  0  0  0
 42 43  1  0  0  0
 42 66  1  0  0  0
 42111  1  0  0  0
 42112  1  0  0  0
 43 44  1  0  0  0
 44113  1  0  0  0
 45 46  2  0  0  0
 45114  1  0  0  0
 46115  1  0  0  0
 47116  1  0  0  0
 47117  1  0  0  0
 48 56  1  0  0  0
 48 65  1  0  0  0
 48118  1  0  0  0
 49 50  1  0  0  0
 49 53  1  0  0  0
 49 64  1  0  0  0
 49119  1  0  0  0
 50 51  1  0  0  0
 50120  1  0  0  0
 50121  1  0  0  0
 51 52  1  0  0  0
 51122  1  0  0  0
 51123  1  0  0  0
 52124  1  0  0  0
 52125  1  0  0  0
 53 54  1  0  0  0
 54 55  2  0  0  0
 54126  1  0  0  0
 55 57  1  0  0  0
 55127  1  0  0  0
 56 69  2  0  0  0
 57 58  2  0  0  0
 57128  1  0  0  0
 58129  1  0  0  0
 59 60  1  0  0  0
 59 61  1  0  0  0
 59 62  1  0  0  0
 60130  1  0  0  0
 60131  1  0  0  0
 60132  1  0  0  0
 61133  1  0  0  0
 61134  1  0  0  0
 61135  1  0  0  0
 62136  1  0  0  0
 62137  1  0  0  0
 62138  1  0  0  0
 63 65  1  0  0  0
 63139  1  0  0  0
 63140  1  0  0  0
 63141  1  0  0  0
 64142  1  0  0  0
 65143  1  0  0  0
 68 81  1  0  0  0
 71 72  2  0  0  0
 71 82  1  0  0  0
 71144  1  0  0  0
 72 76  1  0  0  0
 72 83  1  0  0  0
 73 74  1  0  0  0
 73 82  1  0  0  0
 73 83  2  0  0  0
 74145  1  0  0  0
 74146  1  0  0  0
 74147  1  0  0  0
 75148  1  0  0  0
 75149  1  0  0  0
 75150  1  0  0  0
 75 81  1  0  0  0
 76 77  1  0  0  0
 76151  1  0  0  0
 76152  1  0  0  0
 77 80  1  0  0  0
 77153  1  0  0  0
 77154  1  0  0  0
 78 79  1  0  0  0
 78 81  1  0  0  0
 78155  1  0  0  0
 78156  1  0  0  0
 79 82  1  0  0  0
 79157  1  0  0  0
 79158  1  0  0  0
 80 84  1  0  0  0
 80159  1  0  0  0
 80160  1  0  0  0
 81161  1  0  0  0
 83162  1  0  0  0
 84163  1  0  0  0
M  CHG  1  83   1
M  ISO  4   1 100  68 101  81 101  84 100
M  END
> <chiral flag>
0

> <version>
0

> <s_m_source_file>
/data/baiqing/PycharmProjects/Reinvent-master-3.2/result/LINK_invent/BTK/process_docking_weight1_custom_sum_contain_oxygen_bond_distance_aromatic_linkinvent_7_9_3/rearranged_h_0084.sdf

> <i_m_source_file_index>
17

> <r_mmod_Potential_Energy-OPLS-2005>
-124.040000915527

> <r_mmod_Stretch_Energy-OPLS-2005>
37.1738548278809

> <r_mmod_Bend_Energy-OPLS-2005>
99.4931640625

> <r_mmod_Torsional_Energy-OPLS-2005>
250.129486083984

> <r_mmod_Improper_Torsional_Energy-OPLS-2005>
3.1354033946991

> <r_mmod_Van_der_Waal_Energy-OPLS-2005>
118.896827697754

> <r_mmod_Electrostatic_Energy-OPLS-2005>
-221.395263671875

> <r_mmod_Solvation_Energy-OPLS-2005>
-423.614166259766

> <b_mmod_Minimization_Converged-OPLS-2005>
0

> <r_mmod_RMS_Derivative-OPLS-2005>
1.37952268123627

$$$$
17
                    3D
 Structure written by MMmdl.
160168  0  0  1  0            999 V2000
  -30.6047  -14.7649   20.4349 C   0  0  0  0  0  0
  -30.4333  -12.4671   19.4606 C   0  0  0  0  0  0
  -29.5035  -12.4960   18.2282 C   0  0  0  0  0  0
  -28.0327  -12.3183   18.6514 C   0  0  0  0  0  0
  -27.6378  -13.2313   19.8425 C   0  0  2  0  0  0
  -28.6875  -13.1854   20.9738 C   0  0  0  0  0  0
  -25.2498  -13.8200   20.5705 C   0  0  0  0  0  0
  -24.1801  -13.0435   20.9225 C   0  0  0  0  0  0
  -24.6400  -11.6929   20.8771 C   0  0  0  0  0  0
  -23.9084  -10.4296   21.0423 C   0  0  0  0  0  0
  -24.3633   -9.4211   21.9194 C   0  0  0  0  0  0
  -23.6313   -8.2244   22.0751 C   0  0  0  0  0  0
  -22.4291   -8.0287   21.3544 C   0  0  0  0  0  0
  -21.9931   -9.0261   20.4646 C   0  0  0  0  0  0
  -22.7261  -10.2142   20.3064 C   0  0  0  0  0  0
  -21.6852   -6.0746   22.5283 C   0  0  0  0  0  0
  -21.4011   -6.5649   23.8219 C   0  0  0  0  0  0
  -21.3654   -5.6798   24.9181 C   0  0  0  0  0  0
  -21.6043   -4.3062   24.7232 C   0  0  0  0  0  0
  -21.8819   -3.8159   23.4350 C   0  0  0  0  0  0
  -21.9195   -4.6973   22.3408 C   0  0  0  0  0  0
  -22.7818  -13.5222   21.1896 C   0  0  0  0  0  0
  -22.1665   -4.2166   21.0987 F   0  0  0  0  0  0
  -21.5625   -3.4546   25.7740 F   0  0  0  0  0  0
  -29.9818  -13.5385   20.3770 N   0  0  0  0  0  0
  -26.2924  -12.9408   20.3287 N   0  0  0  0  0  0
  -25.9329  -11.6555   20.5778 N   0  0  0  0  0  0
  -22.0480  -12.8183   22.0447 N   0  0  0  0  0  0
  -25.4169  -15.1922   20.4113 N   0  0  0  0  0  0
  -31.8066  -14.8547   20.1715 O   0  0  0  0  0  0
  -21.6643   -6.8893   21.4248 O   0  0  0  0  0  0
  -22.3505  -14.5527   20.6764 O   0  0  0  0  0  0
  -24.6303  -31.8561   23.2039 C   0  0  0  0  0  0
  -25.9143  -32.4756   23.8360 C   0  0  1  0  0  0
  -27.2128  -27.2684   20.1043 C   0  0  0  0  0  0
  -25.5946  -33.8560   24.2289 N   0  0  0  0  0  0
  -23.4259  -30.4813   21.5489 C   0  0  2  0  0  0
  -24.8682  -28.9320   20.1088 C   0  0  0  0  0  0
  -22.7497  -29.4591   22.4940 C   0  0  0  0  0  0
  -18.0277  -28.1372   22.8469 C   0  0  0  0  0  0
  -24.1480  -36.7298   23.2634 C   0  0  0  0  0  0
  -25.9715  -30.7663   21.3849 C   0  0  0  0  0  0
  -26.0407  -29.3906   20.7217 C   0  0  0  0  0  0
  -27.2133  -28.5685   20.7142 C   0  0  0  0  0  0
  -26.0188  -26.8867   19.4495 C   0  0  0  0  0  0
  -24.8614  -27.6872   19.4639 C   0  0  0  0  0  0
  -23.6425  -29.8234   20.1623 C   0  0  0  0  0  0
  -25.4105  -36.3072   24.0319 C   0  0  1  0  0  0
  -20.5888  -28.3683   23.1267 C   0  0  2  0  0  0
  -20.6770  -26.9409   22.5412 C   0  0  0  0  0  0
  -19.5757  -26.6378   21.5198 C   0  0  0  0  0  0
  -18.1929  -26.7922   22.1602 C   0  0  0  0  0  0
  -19.1530  -28.8842   23.2858 C   0  0  0  0  0  0
  -18.9458  -30.1444   23.8876 C   0  0  0  0  0  0
  -17.6460  -30.6574   24.0551 C   0  0  0  0  0  0
  -25.9052  -34.9431   23.5106 C   0  0  0  0  0  0
  -16.5352  -29.9075   23.6317 C   0  0  0  0  0  0
  -16.7269  -28.6495   23.0336 C   0  0  0  0  0  0
  -26.4525  -31.6564   25.0742 C   0  0  0  0  0  0
  -25.3742  -31.3698   26.1465 C   0  0  0  0  0  0
  -27.0383  -30.2975   24.6240 C   0  0  0  0  0  0
  -27.6080  -32.4317   25.7504 C   0  0  0  0  0  0
  -27.5591  -37.1794   24.8455 C   0  0  0  0  0  0
  -21.4205  -29.3038   22.3666 N   0  0  0  0  0  0
  -26.4288  -37.3774   23.9416 N   0  0  0  0  0  0
  -24.6954  -31.0518   22.1026 N   0  0  0  0  0  0
  -23.4191  -28.8116   23.3039 O   0  0  0  0  0  0
  -28.3081  -26.3746   20.1657 O   0  0  0  0  0  0
  -26.5627  -34.8902   22.4679 O   0  0  0  0  0  0
  -23.5462  -32.1392   23.7349 O   0  0  0  0  0  0
  -27.2684  -21.5785   21.3967 C   0  0  0  0  0  0
  -28.3843  -21.0983   20.6711 C   0  0  0  0  0  0
  -26.4537  -20.6859   22.1055 C   0  0  0  0  0  0
  -28.5846  -19.6262   20.7254 C   0  0  0  0  0  0
  -25.2598  -21.1829   22.8910 C   0  0  0  0  0  0
  -30.6286  -19.3771   19.1639 C   0  0  0  0  0  0
  -29.1520  -22.2483   19.9020 C   0  0  0  0  0  0
  -29.1055  -23.7975   20.4223 C   0  0  0  0  0  0
  -30.2285  -17.3758   20.7802 C   0  0  0  0  0  0
  -28.1197  -24.9220   19.8245 C   0  0  0  0  0  0
  -29.5508  -18.6186   19.9525 C   0  0  1  0  0  0
  -26.6869  -19.3606   22.1246 N   0  0  0  0  0  0
  -27.7133  -18.8618   21.4384 N   0  0  0  0  0  0
  -29.8242  -15.9044   20.5896 N   0  0  0  0  0  0
  -31.4704  -12.6003   19.1485 H   0  0  0  0  0  0
  -30.3908  -11.4977   19.9595 H   0  0  0  0  0  0
  -29.7842  -11.7108   17.5248 H   0  0  0  0  0  0
  -29.6211  -13.4407   17.6951 H   0  0  0  0  0  0
  -27.8977  -11.2726   18.9311 H   0  0  0  0  0  0
  -27.3694  -12.4933   17.8037 H   0  0  0  0  0  0
  -27.6243  -14.2473   19.4463 H   0  0  0  0  0  0
  -28.7313  -12.1959   21.4312 H   0  0  0  0  0  0
  -28.4238  -13.8812   21.7716 H   0  0  0  0  0  0
  -25.2771   -9.5682   22.4774 H   0  0  0  0  0  0
  -24.0020   -7.4629   22.7461 H   0  0  0  0  0  0
  -21.0863   -8.8793   19.8942 H   0  0  0  0  0  0
  -22.3728  -10.9691   19.6179 H   0  0  0  0  0  0
  -21.1995   -7.6161   23.9732 H   0  0  0  0  0  0
  -21.1471   -6.0528   25.9088 H   0  0  0  0  0  0
  -22.0599   -2.7627   23.2854 H   0  0  0  0  0  0
  -22.4115  -11.9837   22.4804 H   0  0  0  0  0  0
  -21.1099  -13.1193   22.2684 H   0  0  0  0  0  0
  -24.6520  -15.8459   20.5393 H   0  0  0  0  0  0
  -26.2668  -15.6430   20.0997 H   0  0  0  0  0  0
  -26.7199  -32.5405   23.1092 H   0  0  0  0  0  0
  -25.0050  -33.9672   25.0403 H   0  0  0  0  0  0
  -22.7218  -31.3035   21.4126 H   0  0  0  0  0  0
  -23.3740  -35.9635   23.3272 H   0  0  0  0  0  0
  -24.3571  -36.8969   22.2063 H   0  0  0  0  0  0
  -23.7245  -37.6488   23.6678 H   0  0  0  0  0  0
  -26.1095  -31.5302   20.6182 H   0  0  0  0  0  0
  -26.8481  -30.8159   22.0186 H   0  0  0  0  0  0
  -28.1095  -28.9107   21.2121 H   0  0  0  0  0  0
  -25.9458  -25.9496   18.9187 H   0  0  0  0  0  0
  -23.9653  -27.3349   18.9711 H   0  0  0  0  0  0
  -23.7742  -30.6065   19.4157 H   0  0  0  0  0  0
  -22.7554  -29.2679   19.8515 H   0  0  0  0  0  0
  -25.1288  -36.1916   25.0813 H   0  0  0  0  0  0
  -20.9959  -28.3288   24.1390 H   0  0  0  0  0  0
  -20.5670  -26.2309   23.3623 H   0  0  0  0  0  0
  -21.6638  -26.7439   22.1211 H   0  0  0  0  0  0
  -19.6915  -25.6279   21.1236 H   0  0  0  0  0  0
  -19.6679  -27.3165   20.6707 H   0  0  0  0  0  0
  -17.4203  -26.6642   21.4002 H   0  0  0  0  0  0
  -18.0327  -26.0061   22.8998 H   0  0  0  0  0  0
  -19.7947  -30.7247   24.2254 H   0  0  0  0  0  0
  -17.5025  -31.6249   24.5167 H   0  0  0  0  0  0
  -15.5354  -30.2965   23.7657 H   0  0  0  0  0  0
  -15.8674  -28.0813   22.7052 H   0  0  0  0  0  0
  -24.5920  -30.7042   25.7795 H   0  0  0  0  0  0
  -24.8899  -32.2841   26.4891 H   0  0  0  0  0  0
  -25.8058  -30.8878   27.0243 H   0  0  0  0  0  0
  -26.2967  -29.6699   24.1284 H   0  0  0  0  0  0
  -27.4075  -29.7278   25.4775 H   0  0  0  0  0  0
  -27.8838  -30.4247   23.9486 H   0  0  0  0  0  0
  -27.2698  -33.3633   26.2040 H   0  0  0  0  0  0
  -28.3884  -32.6848   25.0322 H   0  0  0  0  0  0
  -28.0733  -31.8466   26.5437 H   0  0  0  0  0  0
  -28.2572  -38.0132   24.7567 H   0  0  0  0  0  0
  -28.1133  -36.2666   24.6193 H   0  0  0  0  0  0
  -27.2316  -37.1362   25.8860 H   0  0  0  0  0  0
  -20.9394  -29.8812   21.6905 H   0  0  0  0  0  0
  -26.0164  -38.2844   24.1448 H   0  0  0  0  0  0
  -27.0040  -22.6257   21.4055 H   0  0  0  0  0  0
  -24.7172  -21.9408   22.3251 H   0  0  0  0  0  0
  -25.5930  -21.6250   23.8300 H   0  0  0  0  0  0
  -24.5657  -20.3745   23.1177 H   0  0  0  0  0  0
  -30.1787  -20.0496   18.4345 H   0  0  0  0  0  0
  -31.2741  -18.6984   18.6074 H   0  0  0  0  0  0
  -31.2626  -19.9639   19.8284 H   0  0  0  0  0  0
  -28.8697  -22.2134   18.8498 H   0  0  0  0  0  0
  -30.2031  -21.9657   19.9258 H   0  0  0  0  0  0
  -30.1007  -24.1904   20.2112 H   0  0  0  0  0  0
  -29.0464  -23.8081   21.5104 H   0  0  0  0  0  0
  -30.1312  -17.5938   21.8440 H   0  0  0  0  0  0
  -31.3053  -17.4171   20.6112 H   0  0  0  0  0  0
  -28.1568  -24.8563   18.7357 H   0  0  0  0  0  0
  -27.1171  -24.6102   20.1153 H   0  0  0  0  0  0
  -28.9151  -18.1592   19.1945 H   0  0  0  0  0  0
  -28.8382  -15.7214   20.7011 H   0  0  0  0  0  0
  1 25  1  0  0  0
  1 30  2  0  0  0
  1 84  1  0  0  0
  2  3  1  0  0  0
  2 25  1  0  0  0
  2 85  1  0  0  0
  2 86  1  0  0  0
  3  4  1  0  0  0
  3 87  1  0  0  0
  3 88  1  0  0  0
  4  5  1  0  0  0
  4 89  1  0  0  0
  4 90  1  0  0  0
  5  6  1  0  0  0
  5 26  1  0  0  0
  5 91  1  0  0  0
  6 25  1  0  0  0
  6 92  1  0  0  0
  6 93  1  0  0  0
  7  8  2  0  0  0
  7 26  1  0  0  0
  7 29  1  0  0  0
  8  9  1  0  0  0
  8 22  1  0  0  0
  9 10  1  0  0  0
  9 27  2  0  0  0
 10 11  2  0  0  0
 10 15  1  0  0  0
 11 12  1  0  0  0
 11 94  1  0  0  0
 12 13  2  0  0  0
 12 95  1  0  0  0
 13 14  1  0  0  0
 13 31  1  0  0  0
 14 15  2  0  0  0
 14 96  1  0  0  0
 15 97  1  0  0  0
 16 17  2  0  0  0
 16 21  1  0  0  0
 16 31  1  0  0  0
 17 18  1  0  0  0
 17 98  1  0  0  0
 18 19  2  0  0  0
 18 99  1  0  0  0
 19 20  1  0  0  0
 19 24  1  0  0  0
 20 21  2  0  0  0
 20100  1  0  0  0
 21 23  1  0  0  0
 22 28  1  0  0  0
 22 32  2  0  0  0
 26 27  1  0  0  0
 28101  1  0  0  0
 28102  1  0  0  0
 29103  1  0  0  0
 29104  1  0  0  0
 33 34  1  0  0  0
 33 66  1  0  0  0
 33 70  2  0  0  0
 34 36  1  0  0  0
 34 59  1  0  0  0
 34105  1  0  0  0
 35 44  2  0  0  0
 35 45  1  0  0  0
 35 68  1  0  0  0
 36 56  1  0  0  0
 36106  1  0  0  0
 37 39  1  0  0  0
 37 47  1  0  0  0
 37 66  1  0  0  0
 37107  1  0  0  0
 38 43  2  0  0  0
 38 46  1  0  0  0
 38 47  1  0  0  0
 39 64  1  0  0  0
 39 67  2  0  0  0
 40 52  1  0  0  0
 40 53  2  0  0  0
 40 58  1  0  0  0
 41108  1  0  0  0
 41109  1  0  0  0
 41110  1  0  0  0
 41 48  1  0  0  0
 42 43  1  0  0  0
 42 66  1  0  0  0
 42111  1  0  0  0
 42112  1  0  0  0
 43 44  1  0  0  0
 44113  1  0  0  0
 45 46  2  0  0  0
 45114  1  0  0  0
 46115  1  0  0  0
 47116  1  0  0  0
 47117  1  0  0  0
 48 56  1  0  0  0
 48 65  1  0  0  0
 48118  1  0  0  0
 49 50  1  0  0  0
 49 53  1  0  0  0
 49 64  1  0  0  0
 49119  1  0  0  0
 50 51  1  0  0  0
 50120  1  0  0  0
 50121  1  0  0  0
 51 52  1  0  0  0
 51122  1  0  0  0
 51123  1  0  0  0
 52124  1  0  0  0
 52125  1  0  0  0
 53 54  1  0  0  0
 54 55  2  0  0  0
 54126  1  0  0  0
 55 57  1  0  0  0
 55127  1  0  0  0
 56 69  2  0  0  0
 57 58  2  0  0  0
 57128  1  0  0  0
 58129  1  0  0  0
 59 60  1  0  0  0
 59 61  1  0  0  0
 59 62  1  0  0  0
 60130  1  0  0  0
 60131  1  0  0  0
 60132  1  0  0  0
 61133  1  0  0  0
 61134  1  0  0  0
 61135  1  0  0  0
 62136  1  0  0  0
 62137  1  0  0  0
 62138  1  0  0  0
 63 65  1  0  0  0
 63139  1  0  0  0
 63140  1  0  0  0
 63141  1  0  0  0
 64142  1  0  0  0
 65143  1  0  0  0
 68 80  1  0  0  0
 71 72  2  0  0  0
 71 73  1  0  0  0
 71144  1  0  0  0
 72 74  1  0  0  0
 72 77  1  0  0  0
 73 75  1  0  0  0
 73 82  2  0  0  0
 74 81  1  0  0  0
 74 83  2  0  0  0
 75145  1  0  0  0
 75146  1  0  0  0
 75147  1  0  0  0
 76148  1  0  0  0
 76149  1  0  0  0
 76150  1  0  0  0
 76 81  1  0  0  0
 77 78  1  0  0  0
 77151  1  0  0  0
 77152  1  0  0  0
 78 80  1  0  0  0
 78153  1  0  0  0
 78154  1  0  0  0
 79 81  1  0  0  0
 79 84  1  0  0  0
 79155  1  0  0  0
 79156  1  0  0  0
 80157  1  0  0  0
 80158  1  0  0  0
 81159  1  0  0  0
 82 83  1  0  0  0
 84160  1  0  0  0
M  ISO  4   1 100  68 101  80 101  84 100
M  END
> <chiral flag>
0

> <version>
0

> <s_m_source_file>
/data/baiqing/PycharmProjects/Reinvent-master-3.2/result/LINK_invent/BTK/process_docking_weight1_custom_sum_contain_oxygen_bond_distance_aromatic_linkinvent_7_9_3/rearranged_h_0084.sdf

> <i_m_source_file_index>
18

> <r_mmod_Potential_Energy-OPLS-2005>
223.185256958008

> <r_mmod_Stretch_Energy-OPLS-2005>
138.474624633789

> <r_mmod_Bend_Energy-OPLS-2005>
215.06901550293

> <r_mmod_Torsional_Energy-OPLS-2005>
231.629150390625

> <r_mmod_Improper_Torsional_Energy-OPLS-2005>
4.86488056182861

> <r_mmod_Van_der_Waal_Energy-OPLS-2005>
144.29182434082

> <r_mmod_Electrostatic_Energy-OPLS-2005>
-379.086730957031

> <r_mmod_Solvation_Energy-OPLS-2005>
-223.398651123047

> <b_mmod_Minimization_Converged-OPLS-2005>
0

> <r_mmod_RMS_Derivative-OPLS-2005>
2.4397087097168

$$$$
18
                    3D
 Structure written by MMmdl.
167175  0  0  1  0            999 V2000
  -30.6553  -14.5487   20.4989 C   0  0  0  0  0  0
  -30.4393  -12.3159   19.4822 C   0  0  0  0  0  0
  -29.5142  -12.4397   18.2509 C   0  0  0  0  0  0
  -28.0231  -12.3438   18.6423 C   0  0  0  0  0  0
  -27.6472  -13.2174   19.8680 C   0  0  2  0  0  0
  -28.6836  -13.0466   21.0020 C   0  0  0  0  0  0
  -25.2338  -13.8069   20.5302 C   0  0  0  0  0  0
  -24.1681  -13.0387   20.9170 C   0  0  0  0  0  0
  -24.6284  -11.6890   20.8795 C   0  0  0  0  0  0
  -23.8952  -10.4277   21.0461 C   0  0  0  0  0  0
  -24.3506   -9.4199   21.9226 C   0  0  0  0  0  0
  -23.6246   -8.2192   22.0740 C   0  0  0  0  0  0
  -22.4247   -8.0192   21.3486 C   0  0  0  0  0  0
  -21.9838   -9.0185   20.4619 C   0  0  0  0  0  0
  -22.7119  -10.2101   20.3099 C   0  0  0  0  0  0
  -21.6847   -6.0678   22.5293 C   0  0  0  0  0  0
  -21.3977   -6.5601   23.8208 C   0  0  0  0  0  0
  -21.3671   -5.6757   24.9184 C   0  0  0  0  0  0
  -21.6075   -4.3032   24.7259 C   0  0  0  0  0  0
  -21.8812   -3.8086   23.4402 C   0  0  0  0  0  0
  -21.9196   -4.6904   22.3433 C   0  0  0  0  0  0
  -22.7702  -13.5222   21.1933 C   0  0  0  0  0  0
  -22.1647   -4.2060   21.1026 F   0  0  0  0  0  0
  -21.5705   -3.4540   25.7801 F   0  0  0  0  0  0
  -30.0155  -13.3439   20.4473 N   0  0  0  0  0  0
  -26.2895  -12.9325   20.3329 N   0  0  0  0  0  0
  -25.9248  -11.6499   20.5911 N   0  0  0  0  0  0
  -22.0356  -12.8221   22.0558 N   0  0  0  0  0  0
  -25.3881  -15.1608   20.2910 N   0  0  0  0  0  0
  -31.8258  -14.6849   20.1386 O   0  0  0  0  0  0
  -21.6623   -6.8793   21.4219 O   0  0  0  0  0  0
  -22.3379  -14.5497   20.6770 O   0  0  0  0  0  0
  -24.6349  -31.8655   23.2090 C   0  0  0  0  0  0
  -25.9151  -32.4836   23.8457 C   0  0  1  0  0  0
  -27.2736  -27.3687   20.1054 C   0  0  0  0  0  0
  -25.5952  -33.8617   24.2351 N   0  0  0  0  0  0
  -23.4511  -30.4837   21.5564 C   0  0  2  0  0  0
  -24.8892  -28.9340   20.1230 C   0  0  0  0  0  0
  -22.7797  -29.4777   22.5151 C   0  0  0  0  0  0
  -17.9920  -28.1175   22.8829 C   0  0  0  0  0  0
  -24.1497  -36.7333   23.2637 C   0  0  0  0  0  0
  -25.9734  -30.8043   21.3809 C   0  0  0  0  0  0
  -26.0503  -29.4296   20.7299 C   0  0  0  0  0  0
  -27.2369  -28.6487   20.7266 C   0  0  0  0  0  0
  -26.0922  -26.9380   19.4509 C   0  0  0  0  0  0
  -24.9063  -27.6879   19.4807 C   0  0  0  0  0  0
  -23.6562  -29.8056   20.1735 C   0  0  0  0  0  0
  -25.4106  -36.3099   24.0335 C   0  0  1  0  0  0
  -20.4762  -28.4630   22.7693 C   0  0  2  0  0  0
  -20.6892  -26.9640   22.5245 C   0  0  0  0  0  0
  -19.5424  -26.4521   21.6283 C   0  0  0  0  0  0
  -18.1517  -26.7449   22.2240 C   0  0  0  0  0  0
  -19.1138  -28.9000   23.2482 C   0  0  0  0  0  0
  -18.9291  -30.1523   23.8720 C   0  0  0  0  0  0
  -17.6276  -30.6451   24.0822 C   0  0  0  0  0  0
  -25.9041  -34.9465   23.5100 C   0  0  0  0  0  0
  -16.5151  -29.8843   23.6838 C   0  0  0  0  0  0
  -16.6959  -28.6146   23.1026 C   0  0  0  0  0  0
  -26.4511  -31.6633   25.0804 C   0  0  0  0  0  0
  -25.3747  -31.3766   26.1525 C   0  0  0  0  0  0
  -27.0326  -30.3051   24.6236 C   0  0  0  0  0  0
  -27.6085  -32.4336   25.7605 C   0  0  0  0  0  0
  -27.5574  -37.1814   24.8455 C   0  0  0  0  0  0
  -21.4568  -29.4512   22.3924 N   0  0  0  0  0  0
  -26.4284  -37.3781   23.9403 N   0  0  0  0  0  0
  -24.7062  -31.0697   22.1065 N   0  0  0  0  0  0
  -23.4233  -28.7525   23.2746 O   0  0  0  0  0  0
  -28.4264  -26.5691   20.1594 O   0  0  0  0  0  0
  -26.5582  -34.8910   22.4659 O   0  0  0  0  0  0
  -23.5474  -32.1405   23.7383 O   0  0  0  0  0  0
  -26.7797  -20.4090   20.4325 C   0  0  0  0  0  0
  -28.1274  -20.1164   20.7433 C   0  0  0  0  0  0
  -28.3882  -18.7936   21.2568 C   0  0  0  0  0  0
  -27.2617  -18.0437   21.7229 C   0  0  0  0  0  0
  -25.9516  -18.5105   21.4251 C   0  0  0  0  0  0
  -27.4225  -16.8187   22.6193 C   0  0  0  0  0  0
  -23.7283  -18.7098   22.6803 C   0  0  0  0  0  0
  -29.1748  -21.2648   20.5669 C   0  0  0  0  0  0
  -29.8133  -18.1873   21.3284 C   0  0  0  0  0  0
  -24.6438  -17.8233   21.8233 C   0  0  0  0  0  0
  -28.5257  -22.6574   20.1969 C   0  0  0  0  0  0
  -29.2618  -24.0344   20.3034 C   0  0  0  0  0  0
  -30.1579  -17.0329   20.3129 C   0  0  0  0  0  0
  -28.3248  -25.1703   19.7312 C   0  0  0  0  0  0
  -25.7392  -19.6259   20.7193 N   0  0  0  0  0  0
  -29.8615  -15.6293   20.7215 N   0  0  0  0  0  0
  -31.4807  -12.4338   19.1745 H   0  0  0  0  0  0
  -30.3861  -11.3227   19.9303 H   0  0  0  0  0  0
  -29.7493  -11.6638   17.5226 H   0  0  0  0  0  0
  -29.7176  -13.3897   17.7615 H   0  0  0  0  0  0
  -27.7995  -11.2999   18.8669 H   0  0  0  0  0  0
  -27.3960  -12.5974   17.7863 H   0  0  0  0  0  0
  -27.6676  -14.2551   19.5292 H   0  0  0  0  0  0
  -28.6487  -12.0178   21.3595 H   0  0  0  0  0  0
  -28.4395  -13.6697   21.8661 H   0  0  0  0  0  0
  -25.2631   -9.5756   22.4799 H   0  0  0  0  0  0
  -23.9987   -7.4577   22.7443 H   0  0  0  0  0  0
  -21.0778   -8.8664   19.8914 H   0  0  0  0  0  0
  -22.3508  -10.9615   19.6214 H   0  0  0  0  0  0
  -21.1851   -7.6077   23.9699 H   0  0  0  0  0  0
  -21.1545   -6.0482   25.9097 H   0  0  0  0  0  0
  -22.0575   -2.7553   23.2927 H   0  0  0  0  0  0
  -22.3836  -11.9805   22.4887 H   0  0  0  0  0  0
  -21.1003  -13.1284   22.2882 H   0  0  0  0  0  0
  -24.5621  -15.7179   20.1066 H   0  0  0  0  0  0
  -26.2093  -15.5293   19.8341 H   0  0  0  0  0  0
  -26.7251  -32.5509   23.1262 H   0  0  0  0  0  0
  -25.0159  -33.9780   25.0530 H   0  0  0  0  0  0
  -22.7498  -31.3064   21.3980 H   0  0  0  0  0  0
  -23.3716  -35.9706   23.3295 H   0  0  0  0  0  0
  -24.3631  -36.8924   22.2057 H   0  0  0  0  0  0
  -23.7280  -37.6550   23.6649 H   0  0  0  0  0  0
  -26.0892  -31.5623   20.6056 H   0  0  0  0  0  0
  -26.8636  -30.8723   21.9967 H   0  0  0  0  0  0
  -28.1232  -29.0161   21.2274 H   0  0  0  0  0  0
  -26.0599  -26.0118   18.8982 H   0  0  0  0  0  0
  -24.0207  -27.3061   18.9896 H   0  0  0  0  0  0
  -23.7771  -30.5738   19.4133 H   0  0  0  0  0  0
  -22.7817  -29.2253   19.8750 H   0  0  0  0  0  0
  -25.1270  -36.1967   25.0827 H   0  0  0  0  0  0
  -20.1545  -28.6798   21.7482 H   0  0  0  0  0  0
  -21.6502  -26.7728   22.0474 H   0  0  0  0  0  0
  -20.6959  -26.4298   23.4735 H   0  0  0  0  0  0
  -19.6451  -25.3817   21.4574 H   0  0  0  0  0  0
  -19.6112  -26.9077   20.6367 H   0  0  0  0  0  0
  -17.3894  -26.6272   21.4502 H   0  0  0  0  0  0
  -17.9384  -26.0064   23.0004 H   0  0  0  0  0  0
  -19.7754  -30.7695   24.1393 H   0  0  0  0  0  0
  -17.4718  -31.6136   24.5346 H   0  0  0  0  0  0
  -15.5156  -30.2657   23.8396 H   0  0  0  0  0  0
  -15.8286  -28.0335   22.8196 H   0  0  0  0  0  0
  -24.5939  -30.7101   25.7849 H   0  0  0  0  0  0
  -24.8952  -32.2927   26.4977 H   0  0  0  0  0  0
  -25.8095  -30.8932   27.0286 H   0  0  0  0  0  0
  -26.2885  -29.6837   24.1244 H   0  0  0  0  0  0
  -27.3976  -29.7283   25.4752 H   0  0  0  0  0  0
  -27.8787  -30.4327   23.9485 H   0  0  0  0  0  0
  -27.2723  -33.3620   26.2250 H   0  0  0  0  0  0
  -28.3923  -32.6912   25.0467 H   0  0  0  0  0  0
  -28.0752  -31.8409   26.5481 H   0  0  0  0  0  0
  -28.2554  -38.0139   24.7471 H   0  0  0  0  0  0
  -28.1087  -36.2645   24.6294 H   0  0  0  0  0  0
  -27.2302  -37.1495   25.8861 H   0  0  0  0  0  0
  -21.0858  -30.1797   21.7959 H   0  0  0  0  0  0
  -26.0150  -38.2843   24.1403 H   0  0  0  0  0  0
  -26.4596  -21.3199   19.9525 H   0  0  0  0  0  0
  -28.4440  -16.4678   22.7459 H   0  0  0  0  0  0
  -26.8192  -15.9759   22.2910 H   0  0  0  0  0  0
  -27.0667  -17.0858   23.6129 H   0  0  0  0  0  0
  -22.8257  -18.1646   22.9564 H   0  0  0  0  0  0
  -23.4142  -19.6035   22.1357 H   0  0  0  0  0  0
  -24.2407  -19.0356   23.5838 H   0  0  0  0  0  0
  -29.8918  -20.9834   19.7939 H   0  0  0  0  0  0
  -29.7436  -21.3648   21.4966 H   0  0  0  0  0  0
  -30.0576  -17.8777   22.3416 H   0  0  0  0  0  0
  -30.5001  -19.0060   21.1183 H   0  0  0  0  0  0
  -24.7963  -16.8901   22.3584 H   0  0  0  0  0  0
  -24.1046  -17.5531   20.9113 H   0  0  0  0  0  0
  -27.6718  -22.7989   20.8568 H   0  0  0  0  0  0
  -28.1293  -22.5730   19.1831 H   0  0  0  0  0  0
  -30.1991  -23.9907   19.7443 H   0  0  0  0  0  0
  -29.5177  -24.2156   21.3496 H   0  0  0  0  0  0
  -29.6886  -17.2336   19.3452 H   0  0  0  0  0  0
  -31.2302  -17.1049   20.1214 H   0  0  0  0  0  0
  -27.3225  -24.8051   19.9556 H   0  0  0  0  0  0
  -28.4118  -25.1610   18.6440 H   0  0  0  0  0  0
  -28.9055  -15.4372   20.9810 H   0  0  0  0  0  0
  1 25  1  0  0  0
  1 30  2  0  0  0
  1 86  1  0  0  0
  2  3  1  0  0  0
  2 25  1  0  0  0
  2 87  1  0  0  0
  2 88  1  0  0  0
  3  4  1  0  0  0
  3 89  1  0  0  0
  3 90  1  0  0  0
  4  5  1  0  0  0
  4 91  1  0  0  0
  4 92  1  0  0  0
  5  6  1  0  0  0
  5 26  1  0  0  0
  5 93  1  0  0  0
  6 25  1  0  0  0
  6 94  1  0  0  0
  6 95  1  0  0  0
  7  8  2  0  0  0
  7 26  1  0  0  0
  7 29  1  0  0  0
  8  9  1  0  0  0
  8 22  1  0  0  0
  9 10  1  0  0  0
  9 27  2  0  0  0
 10 11  2  0  0  0
 10 15  1  0  0  0
 11 12  1  0  0  0
 11 96  1  0  0  0
 12 13  2  0  0  0
 12 97  1  0  0  0
 13 14  1  0  0  0
 13 31  1  0  0  0
 14 15  2  0  0  0
 14 98  1  0  0  0
 15 99  1  0  0  0
 16 17  2  0  0  0
 16 21  1  0  0  0
 16 31  1  0  0  0
 17 18  1  0  0  0
 17100  1  0  0  0
 18 19  2  0  0  0
 18101  1  0  0  0
 19 20  1  0  0  0
 19 24  1  0  0  0
 20 21  2  0  0  0
 20102  1  0  0  0
 21 23  1  0  0  0
 22 28  1  0  0  0
 22 32  2  0  0  0
 26 27  1  0  0  0
 28103  1  0  0  0
 28104  1  0  0  0
 29105  1  0  0  0
 29106  1  0  0  0
 33 34  1  0  0  0
 33 66  1  0  0  0
 33 70  2  0  0  0
 34 36  1  0  0  0
 34 59  1  0  0  0
 34107  1  0  0  0
 35 44  2  0  0  0
 35 45  1  0  0  0
 35 68  1  0  0  0
 36 56  1  0  0  0
 36108  1  0  0  0
 37 39  1  0  0  0
 37 47  1  0  0  0
 37 66  1  0  0  0
 37109  1  0  0  0
 38 43  2  0  0  0
 38 46  1  0  0  0
 38 47  1  0  0  0
 39 64  1  0  0  0
 39 67  2  0  0  0
 40 52  1  0  0  0
 40 53  2  0  0  0
 40 58  1  0  0  0
 41110  1  0  0  0
 41111  1  0  0  0
 41112  1  0  0  0
 41 48  1  0  0  0
 42 43  1  0  0  0
 42 66  1  0  0  0
 42113  1  0  0  0
 42114  1  0  0  0
 43 44  1  0  0  0
 44115  1  0  0  0
 45 46  2  0  0  0
 45116  1  0  0  0
 46117  1  0  0  0
 47118  1  0  0  0
 47119  1  0  0  0
 48 56  1  0  0  0
 48 65  1  0  0  0
 48120  1  0  0  0
 49 50  1  0  0  0
 49 53  1  0  0  0
 49 64  1  0  0  0
 49121  1  0  0  0
 50 51  1  0  0  0
 50122  1  0  0  0
 50123  1  0  0  0
 51 52  1  0  0  0
 51124  1  0  0  0
 51125  1  0  0  0
 52126  1  0  0  0
 52127  1  0  0  0
 53 54  1  0  0  0
 54 55  2  0  0  0
 54128  1  0  0  0
 55 57  1  0  0  0
 55129  1  0  0  0
 56 69  2  0  0  0
 57 58  2  0  0  0
 57130  1  0  0  0
 58131  1  0  0  0
 59 60  1  0  0  0
 59 61  1  0  0  0
 59 62  1  0  0  0
 60132  1  0  0  0
 60133  1  0  0  0
 60134  1  0  0  0
 61135  1  0  0  0
 61136  1  0  0  0
 61137  1  0  0  0
 62138  1  0  0  0
 62139  1  0  0  0
 62140  1  0  0  0
 63 65  1  0  0  0
 63141  1  0  0  0
 63142  1  0  0  0
 63143  1  0  0  0
 64144  1  0  0  0
 65145  1  0  0  0
 68 84  1  0  0  0
 71 72  2  0  0  0
 71 85  1  0  0  0
 71146  1  0  0  0
 72 73  1  0  0  0
 72 78  1  0  0  0
 73 74  2  0  0  0
 73 79  1  0  0  0
 74 75  1  0  0  0
 74 76  1  0  0  0
 75 80  1  0  0  0
 75 85  2  0  0  0
 76147  1  0  0  0
 76148  1  0  0  0
 76149  1  0  0  0
 77 80  1  0  0  0
 77150  1  0  0  0
 77151  1  0  0  0
 77152  1  0  0  0
 78 81  1  0  0  0
 78153  1  0  0  0
 78154  1  0  0  0
 79 83  1  0  0  0
 79155  1  0  0  0
 79156  1  0  0  0
 80157  1  0  0  0
 80158  1  0  0  0
 81 82  1  0  0  0
 81159  1  0  0  0
 81160  1  0  0  0
 82 84  1  0  0  0
 82161  1  0  0  0
 82162  1  0  0  0
 83 86  1  0  0  0
 83163  1  0  0  0
 83164  1  0  0  0
 84165  1  0  0  0
 84166  1  0  0  0
 86167  1  0  0  0
M  ISO  4   1 100  68 101  84 101  86 100
M  END
> <chiral flag>
0

> <version>
0

> <s_m_source_file>
/data/baiqing/PycharmProjects/Reinvent-master-3.2/result/LINK_invent/BTK/process_docking_weight1_custom_sum_contain_oxygen_bond_distance_aromatic_linkinvent_7_9_3/rearranged_h_0084.sdf

> <i_m_source_file_index>
19

> <r_mmod_Potential_Energy-OPLS-2005>
62.5752410888672

> <r_mmod_Stretch_Energy-OPLS-2005>
63.7563018798828

> <r_mmod_Bend_Energy-OPLS-2005>
244.899017333984

> <r_mmod_Torsional_Energy-OPLS-2005>
247.618072509766

> <r_mmod_Improper_Torsional_Energy-OPLS-2005>
10.5895090103149

> <r_mmod_Van_der_Waal_Energy-OPLS-2005>
175.628875732422

> <r_mmod_Electrostatic_Energy-OPLS-2005>
-518.370361328125

> <r_mmod_Solvation_Energy-OPLS-2005>
-217.856185913086

> <b_mmod_Minimization_Converged-OPLS-2005>
0

> <r_mmod_RMS_Derivative-OPLS-2005>
7.54232597351074

$$$$
19
                    3D
 Structure written by MMmdl.
193201  0  0  1  0            999 V2000
  -30.8487  -14.2623   20.7255 C   0  0  0  0  0  0
  -30.3976  -12.2548   19.3821 C   0  0  0  0  0  0
  -29.4684  -12.5125   18.1854 C   0  0  0  0  0  0
  -28.0006  -12.3475   18.6108 C   0  0  0  0  0  0
  -27.6599  -13.1741   19.8736 C   0  0  2  0  0  0
  -28.7038  -12.9603   20.9967 C   0  0  0  0  0  0
  -25.2607  -13.8053   20.5688 C   0  0  0  0  0  0
  -24.1833  -13.0389   20.9180 C   0  0  0  0  0  0
  -24.6349  -11.6841   20.8744 C   0  0  0  0  0  0
  -23.9003  -10.4263   21.0419 C   0  0  0  0  0  0
  -24.3577   -9.4187   21.9194 C   0  0  0  0  0  0
  -23.6266   -8.2218   22.0759 C   0  0  0  0  0  0
  -22.4249   -8.0263   21.3548 C   0  0  0  0  0  0
  -21.9877   -9.0226   20.4646 C   0  0  0  0  0  0
  -22.7187  -10.2106   20.3056 C   0  0  0  0  0  0
  -21.6841   -6.0716   22.5282 C   0  0  0  0  0  0
  -21.4007   -6.5624   23.8211 C   0  0  0  0  0  0
  -21.3654   -5.6785   24.9175 C   0  0  0  0  0  0
  -21.6042   -4.3051   24.7231 C   0  0  0  0  0  0
  -21.8821   -3.8136   23.4359 C   0  0  0  0  0  0
  -21.9188   -4.6947   22.3410 C   0  0  0  0  0  0
  -22.7869  -13.5242   21.1846 C   0  0  0  0  0  0
  -22.1665   -4.2133   21.0990 F   0  0  0  0  0  0
  -21.5628   -3.4537   25.7743 F   0  0  0  0  0  0
  -30.0578  -13.1954   20.4586 N   0  0  0  0  0  0
  -26.3015  -12.9162   20.3382 N   0  0  0  0  0  0
  -25.9262  -11.6363   20.5779 N   0  0  0  0  0  0
  -22.0488  -12.8239   22.0379 N   0  0  0  0  0  0
  -25.4342  -15.1764   20.4131 N   0  0  0  0  0  0
  -31.8038  -14.5905   20.0187 O   0  0  0  0  0  0
  -21.6626   -6.8853   21.4245 O   0  0  0  0  0  0
  -22.3577  -14.5558   20.6689 O   0  0  0  0  0  0
  -24.6053  -31.8726   23.2171 C   0  0  0  0  0  0
  -25.8990  -32.4844   23.8417 C   0  0  1  0  0  0
  -27.2475  -27.5069   20.0702 C   0  0  0  0  0  0
  -25.5862  -33.8645   24.2334 N   0  0  0  0  0  0
  -23.3889  -30.4942   21.5554 C   0  0  2  0  0  0
  -24.8327  -28.9627   20.1229 C   0  0  0  0  0  0
  -22.7378  -29.4657   22.5058 C   0  0  0  0  0  0
  -18.0256  -28.1386   22.8460 C   0  0  0  0  0  0
  -24.1486  -36.7316   23.2637 C   0  0  0  0  0  0
  -25.9089  -30.8559   21.3588 C   0  0  0  0  0  0
  -25.9849  -29.4924   20.7116 C   0  0  0  0  0  0
  -27.1872  -28.7663   20.6898 C   0  0  0  0  0  0
  -26.0704  -26.9569   19.5065 C   0  0  0  0  0  0
  -24.8642  -27.6876   19.5272 C   0  0  0  0  0  0
  -23.5930  -29.8244   20.1701 C   0  0  0  0  0  0
  -25.4117  -36.3123   24.0334 C   0  0  1  0  0  0
  -20.5837  -28.3634   23.1374 C   0  0  2  0  0  0
  -20.6753  -26.9387   22.5455 C   0  0  0  0  0  0
  -19.5749  -26.6395   21.5238 C   0  0  0  0  0  0
  -18.1909  -26.7935   22.1605 C   0  0  0  0  0  0
  -19.1499  -28.8837   23.2898 C   0  0  0  0  0  0
  -18.9440  -30.1439   23.8912 C   0  0  0  0  0  0
  -17.6447  -30.6580   24.0573 C   0  0  0  0  0  0
  -25.9045  -34.9487   23.5137 C   0  0  0  0  0  0
  -16.5333  -29.9082   23.6334 C   0  0  0  0  0  0
  -16.7252  -28.6515   23.0325 C   0  0  0  0  0  0
  -26.4454  -31.6616   25.0722 C   0  0  0  0  0  0
  -25.3736  -31.3701   26.1480 C   0  0  0  0  0  0
  -27.0298  -30.3095   24.6038 C   0  0  0  0  0  0
  -27.6042  -32.4348   25.7465 C   0  0  0  0  0  0
  -27.5592  -37.1804   24.8458 C   0  0  0  0  0  0
  -21.4123  -29.2999   22.3794 N   0  0  0  0  0  0
  -26.4304  -37.3800   23.9407 N   0  0  0  0  0  0
  -24.6514  -31.0880   22.1033 N   0  0  0  0  0  0
  -23.4183  -28.8219   23.3087 O   0  0  0  0  0  0
  -28.4961  -26.9404   20.0203 O   0  0  0  0  0  0
  -26.5603  -34.8915   22.4693 O   0  0  0  0  0  0
  -23.5269  -32.1455   23.7598 O   0  0  0  0  0  0
  -29.1460  -20.9046   21.3449 C   0  0  0  0  0  0
  -29.3471  -20.2431   20.0863 C   0  0  0  0  0  0
  -29.0640  -19.9381   22.3039 C   0  0  0  0  0  0
  -29.3460  -18.8931   20.3231 C   0  0  0  0  0  0
  -28.8044  -20.1541   23.7736 C   0  0  0  0  0  0
  -28.4625  -16.6766   19.3046 C   0  0  0  0  0  0
  -30.8676  -17.4473   18.8625 C   0  0  0  0  0  0
  -26.9885  -21.5063   15.7689 C   0  0  0  0  0  0
  -28.7127  -23.1138   16.6537 C   0  0  0  0  0  0
  -30.1918  -16.3864   24.5675 C   0  0  0  0  0  0
  -31.5427  -18.1904   23.4770 C   0  0  0  0  0  0
  -29.0028  -22.3719   21.6972 C   0  0  0  0  0  0
  -29.5121  -20.8418   18.6972 C   0  0  0  0  0  0
  -29.0583  -23.3391   20.5243 C   0  0  0  0  0  0
  -28.1757  -20.9663   17.9316 C   0  0  0  0  0  0
  -28.6426  -24.7545   20.8733 C   0  0  0  0  0  0
  -29.2394  -17.4377   22.4768 C   0  0  0  0  0  0
  -31.3957  -15.9728   22.4224 C   0  0  0  0  0  0
  -28.6788  -25.6098   19.6121 C   0  0  0  0  0  0
  -29.4357  -17.8475   19.2253 C   0  0  0  0  0  0
  -28.3058  -21.6358   16.5489 C   0  0  0  0  0  0
  -30.5697  -17.0171   23.2114 C   0  0  0  0  0  0
  -29.2500  -18.6921   21.7115 N   0  0  0  0  0  0
  -30.6067  -14.8625   21.8945 N   0  0  0  0  0  0
  -31.4425  -12.3265   19.0741 H   0  0  0  0  0  0
  -30.2697  -11.2326   19.7440 H   0  0  0  0  0  0
  -29.7002  -11.8192   17.3751 H   0  0  0  0  0  0
  -29.6357  -13.5171   17.7920 H   0  0  0  0  0  0
  -27.8244  -11.2878   18.8012 H   0  0  0  0  0  0
  -27.3373  -12.6223   17.7898 H   0  0  0  0  0  0
  -27.6882  -14.2071   19.5588 H   0  0  0  0  0  0
  -28.6504  -11.9374   21.3728 H   0  0  0  0  0  0
  -28.4563  -13.5990   21.8440 H   0  0  0  0  0  0
  -25.2719   -9.5667   22.4773 H   0  0  0  0  0  0
  -23.9965   -7.4612   22.7484 H   0  0  0  0  0  0
  -21.0801   -8.8744   19.8962 H   0  0  0  0  0  0
  -22.3651  -10.9648   19.6171 H   0  0  0  0  0  0
  -21.1999   -7.6130   23.9705 H   0  0  0  0  0  0
  -21.1474   -6.0520   25.9072 H   0  0  0  0  0  0
  -22.0603   -2.7602   23.2863 H   0  0  0  0  0  0
  -22.4078  -11.9884   22.4747 H   0  0  0  0  0  0
  -21.1117  -13.1295   22.2581 H   0  0  0  0  0  0
  -24.6680  -15.8303   20.5271 H   0  0  0  0  0  0
  -26.2911  -15.6167   20.1070 H   0  0  0  0  0  0
  -26.7039  -32.5586   23.1168 H   0  0  0  0  0  0
  -25.0011  -33.9831   25.0468 H   0  0  0  0  0  0
  -22.6719  -31.3061   21.4194 H   0  0  0  0  0  0
  -23.3759  -35.9640   23.3317 H   0  0  0  0  0  0
  -24.3570  -36.8940   22.2048 H   0  0  0  0  0  0
  -23.7244  -37.6520   23.6654 H   0  0  0  0  0  0
  -26.0086  -31.6224   20.5885 H   0  0  0  0  0  0
  -26.8011  -30.9117   21.9717 H   0  0  0  0  0  0
  -28.0823  -29.1787   21.1336 H   0  0  0  0  0  0
  -26.0568  -25.9904   19.0285 H   0  0  0  0  0  0
  -23.9730  -27.2707   19.0782 H   0  0  0  0  0  0
  -23.6924  -30.5968   19.4062 H   0  0  0  0  0  0
  -22.7197  -29.2381   19.8795 H   0  0  0  0  0  0
  -25.1294  -36.1989   25.0831 H   0  0  0  0  0  0
  -20.9881  -28.3172   24.1514 H   0  0  0  0  0  0
  -20.5712  -26.2224   23.3619 H   0  0  0  0  0  0
  -21.6616  -26.7487   22.1219 H   0  0  0  0  0  0
  -19.6926  -25.6328   21.1224 H   0  0  0  0  0  0
  -19.6709  -27.3235   20.6800 H   0  0  0  0  0  0
  -17.4212  -26.6723   21.3968 H   0  0  0  0  0  0
  -18.0240  -26.0097   22.9005 H   0  0  0  0  0  0
  -19.7922  -30.7239   24.2297 H   0  0  0  0  0  0
  -17.5004  -31.6265   24.5161 H   0  0  0  0  0  0
  -15.5322  -30.2973   23.7683 H   0  0  0  0  0  0
  -15.8662  -28.0852   22.7004 H   0  0  0  0  0  0
  -24.5940  -30.7023   25.7814 H   0  0  0  0  0  0
  -24.8879  -32.2837   26.4914 H   0  0  0  0  0  0
  -25.8097  -30.8890   27.0240 H   0  0  0  0  0  0
  -26.2814  -29.6847   24.1169 H   0  0  0  0  0  0
  -27.4202  -29.7356   25.4449 H   0  0  0  0  0  0
  -27.8565  -30.4482   23.9084 H   0  0  0  0  0  0
  -27.2681  -33.3650   26.2060 H   0  0  0  0  0  0
  -28.3816  -32.6931   25.0265 H   0  0  0  0  0  0
  -28.0739  -31.8474   26.5362 H   0  0  0  0  0  0
  -28.2597  -38.0107   24.7515 H   0  0  0  0  0  0
  -28.1085  -36.2636   24.6253 H   0  0  0  0  0  0
  -27.2294  -37.1439   25.8854 H   0  0  0  0  0  0
  -20.9302  -29.8704   21.6995 H   0  0  0  0  0  0
  -26.0195  -38.2879   24.1416 H   0  0  0  0  0  0
  -29.4961  -20.8937   24.1780 H   0  0  0  0  0  0
  -28.9099  -19.2634   24.3887 H   0  0  0  0  0  0
  -27.7953  -20.5340   23.9313 H   0  0  0  0  0  0
  -27.4635  -17.0165   19.5773 H   0  0  0  0  0  0
  -28.7975  -15.9326   20.0092 H   0  0  0  0  0  0
  -28.3885  -16.1717   18.3400 H   0  0  0  0  0  0
  -31.4303  -18.2935   18.4690 H   0  0  0  0  0  0
  -30.8819  -16.6637   18.1042 H   0  0  0  0  0  0
  -31.4099  -17.0904   19.7268 H   0  0  0  0  0  0
  -27.0615  -21.9590   14.7793 H   0  0  0  0  0  0
  -26.1695  -21.9963   16.2967 H   0  0  0  0  0  0
  -26.7141  -20.4604   15.6299 H   0  0  0  0  0  0
  -28.8261  -23.5636   15.6671 H   0  0  0  0  0  0
  -29.6649  -23.2428   17.1674 H   0  0  0  0  0  0
  -27.9607  -23.6864   17.1952 H   0  0  0  0  0  0
  -29.6340  -17.0840   25.1929 H   0  0  0  0  0  0
  -31.0776  -16.0922   25.1310 H   0  0  0  0  0  0
  -29.5735  -15.4978   24.4401 H   0  0  0  0  0  0
  -31.1320  -18.9391   24.1490 H   0  0  0  0  0  0
  -31.8267  -18.6933   22.5503 H   0  0  0  0  0  0
  -32.4662  -17.8369   23.9390 H   0  0  0  0  0  0
  -29.7767  -22.6354   22.4194 H   0  0  0  0  0  0
  -28.0483  -22.4904   22.2135 H   0  0  0  0  0  0
  -30.1947  -20.2237   18.1168 H   0  0  0  0  0  0
  -30.0479  -21.7793   18.7530 H   0  0  0  0  0  0
  -28.3787  -23.0048   19.7482 H   0  0  0  0  0  0
  -30.0686  -23.3647   20.1196 H   0  0  0  0  0  0
  -27.4373  -21.4999   18.5285 H   0  0  0  0  0  0
  -27.7484  -19.9725   17.7992 H   0  0  0  0  0  0
  -29.3270  -25.1626   21.6176 H   0  0  0  0  0  0
  -27.6435  -24.7708   21.3116 H   0  0  0  0  0  0
  -28.4410  -17.5372   23.2106 H   0  0  0  0  0  0
  -28.8329  -16.6374   21.8830 H   0  0  0  0  0  0
  -32.1661  -15.5415   23.0640 H   0  0  0  0  0  0
  -31.9541  -16.4731   21.6356 H   0  0  0  0  0  0
  -27.9840  -25.2712   18.8484 H   0  0  0  0  0  0
  -29.6655  -25.5521   19.1519 H   0  0  0  0  0  0
  -29.0804  -18.3206   18.3137 H   0  0  0  0  0  0
  -29.0773  -21.1081   15.9850 H   0  0  0  0  0  0
  -29.8575  -14.4954   22.4605 H   0  0  0  0  0  0
  1 25  1  0  0  0
  1 30  2  0  0  0
  1 94  1  0  0  0
  2  3  1  0  0  0
  2 25  1  0  0  0
  2 95  1  0  0  0
  2 96  1  0  0  0
  3  4  1  0  0  0
  3 97  1  0  0  0
  3 98  1  0  0  0
  4  5  1  0  0  0
  4 99  1  0  0  0
  4100  1  0  0  0
  5  6  1  0  0  0
  5 26  1  0  0  0
  5101  1  0  0  0
  6 25  1  0  0  0
  6102  1  0  0  0
  6103  1  0  0  0
  7  8  2  0  0  0
  7 26  1  0  0  0
  7 29  1  0  0  0
  8  9  1  0  0  0
  8 22  1  0  0  0
  9 10  1  0  0  0
  9 27  2  0  0  0
 10 11  2  0  0  0
 10 15  1  0  0  0
 11 12  1  0  0  0
 11104  1  0  0  0
 12 13  2  0  0  0
 12105  1  0  0  0
 13 14  1  0  0  0
 13 31  1  0  0  0
 14 15  2  0  0  0
 14106  1  0  0  0
 15107  1  0  0  0
 16 17  2  0  0  0
 16 21  1  0  0  0
 16 31  1  0  0  0
 17 18  1  0  0  0
 17108  1  0  0  0
 18 19  2  0  0  0
 18109  1  0  0  0
 19 20  1  0  0  0
 19 24  1  0  0  0
 20 21  2  0  0  0
 20110  1  0  0  0
 21 23  1  0  0  0
 22 28  1  0  0  0
 22 32  2  0  0  0
 26 27  1  0  0  0
 28111  1  0  0  0
 28112  1  0  0  0
 29113  1  0  0  0
 29114  1  0  0  0
 33 34  1  0  0  0
 33 66  1  0  0  0
 33 70  2  0  0  0
 34 36  1  0  0  0
 34 59  1  0  0  0
 34115  1  0  0  0
 35 44  2  0  0  0
 35 45  1  0  0  0
 35 68  1  0  0  0
 36 56  1  0  0  0
 36116  1  0  0  0
 37 39  1  0  0  0
 37 47  1  0  0  0
 37 66  1  0  0  0
 37117  1  0  0  0
 38 43  2  0  0  0
 38 46  1  0  0  0
 38 47  1  0  0  0
 39 64  1  0  0  0
 39 67  2  0  0  0
 40 52  1  0  0  0
 40 53  2  0  0  0
 40 58  1  0  0  0
 41118  1  0  0  0
 41119  1  0  0  0
 41120  1  0  0  0
 41 48  1  0  0  0
 42 43  1  0  0  0
 42 66  1  0  0  0
 42121  1  0  0  0
 42122  1  0  0  0
 43 44  1  0  0  0
 44123  1  0  0  0
 45 46  2  0  0  0
 45124  1  0  0  0
 46125  1  0  0  0
 47126  1  0  0  0
 47127  1  0  0  0
 48 56  1  0  0  0
 48 65  1  0  0  0
 48128  1  0  0  0
 49 50  1  0  0  0
 49 53  1  0  0  0
 49 64  1  0  0  0
 49129  1  0  0  0
 50 51  1  0  0  0
 50130  1  0  0  0
 50131  1  0  0  0
 51 52  1  0  0  0
 51132  1  0  0  0
 51133  1  0  0  0
 52134  1  0  0  0
 52135  1  0  0  0
 53 54  1  0  0  0
 54 55  2  0  0  0
 54136  1  0  0  0
 55 57  1  0  0  0
 55137  1  0  0  0
 56 69  2  0  0  0
 57 58  2  0  0  0
 57138  1  0  0  0
 58139  1  0  0  0
 59 60  1  0  0  0
 59 61  1  0  0  0
 59 62  1  0  0  0
 60140  1  0  0  0
 60141  1  0  0  0
 60142  1  0  0  0
 61143  1  0  0  0
 61144  1  0  0  0
 61145  1  0  0  0
 62146  1  0  0  0
 62147  1  0  0  0
 62148  1  0  0  0
 63 65  1  0  0  0
 63149  1  0  0  0
 63150  1  0  0  0
 63151  1  0  0  0
 64152  1  0  0  0
 65153  1  0  0  0
 68 89  1  0  0  0
 71 72  1  0  0  0
 71 73  2  0  0  0
 71 82  1  0  0  0
 72 74  2  0  0  0
 72 83  1  0  0  0
 73 75  1  0  0  0
 73 93  1  0  0  0
 74 90  1  0  0  0
 74 93  1  0  0  0
 75154  1  0  0  0
 75155  1  0  0  0
 75156  1  0  0  0
 76157  1  0  0  0
 76158  1  0  0  0
 76159  1  0  0  0
 76 90  1  0  0  0
 77 90  1  0  0  0
 77160  1  0  0  0
 77161  1  0  0  0
 77162  1  0  0  0
 78163  1  0  0  0
 78164  1  0  0  0
 78165  1  0  0  0
 78 91  1  0  0  0
 79 91  1  0  0  0
 79166  1  0  0  0
 79167  1  0  0  0
 79168  1  0  0  0
 80169  1  0  0  0
 80170  1  0  0  0
 80171  1  0  0  0
 80 92  1  0  0  0
 81 92  1  0  0  0
 81172  1  0  0  0
 81173  1  0  0  0
 81174  1  0  0  0
 82 84  1  0  0  0
 82175  1  0  0  0
 82176  1  0  0  0
 83 85  1  0  0  0
 83177  1  0  0  0
 83178  1  0  0  0
 84 86  1  0  0  0
 84179  1  0  0  0
 84180  1  0  0  0
 85 91  1  0  0  0
 85181  1  0  0  0
 85182  1  0  0  0
 86 89  1  0  0  0
 86183  1  0  0  0
 86184  1  0  0  0
 87 92  1  0  0  0
 87 93  1  0  0  0
 87185  1  0  0  0
 87186  1  0  0  0
 88 92  1  0  0  0
 88 94  1  0  0  0
 88187  1  0  0  0
 88188  1  0  0  0
 89189  1  0  0  0
 89190  1  0  0  0
 90191  1  0  0  0
 91192  1  0  0  0
 94193  1  0  0  0
M  ISO  4   1 100  68 101  89 101  94 100
M  END
> <chiral flag>
0

> <version>
0

> <s_m_source_file>
/data/baiqing/PycharmProjects/Reinvent-master-3.2/result/LINK_invent/BTK/process_docking_weight1_custom_sum_contain_oxygen_bond_distance_aromatic_linkinvent_7_9_3/rearranged_h_0084.sdf

> <i_m_source_file_index>
20

> <r_mmod_Potential_Energy-OPLS-2005>
-47.9537963867188

> <r_mmod_Stretch_Energy-OPLS-2005>
37.5469360351562

> <r_mmod_Bend_Energy-OPLS-2005>
159.494262695312

> <r_mmod_Torsional_Energy-OPLS-2005>
232.903762817383

> <r_mmod_Improper_Torsional_Energy-OPLS-2005>
2.93985366821289

> <r_mmod_Van_der_Waal_Energy-OPLS-2005>
146.725769042969

> <r_mmod_Electrostatic_Energy-OPLS-2005>
-458.058441162109

> <r_mmod_Solvation_Energy-OPLS-2005>
-183.840103149414

> <b_mmod_Minimization_Converged-OPLS-2005>
0

> <r_mmod_RMS_Derivative-OPLS-2005>
2.54200077056885

$$$$
20
                    3D
 Structure written by MMmdl.
161169  0  0  1  0            999 V2000
  -30.6608  -14.5147   20.5752 C   0  0  0  0  0  0
  -30.4224  -12.3343   19.4268 C   0  0  0  0  0  0
  -29.4939  -12.5163   18.2073 C   0  0  0  0  0  0
  -28.0156  -12.3629   18.6136 C   0  0  0  0  0  0
  -27.6523  -13.2085   19.8630 C   0  0  2  0  0  0
  -28.6882  -12.9952   20.9874 C   0  0  0  0  0  0
  -25.2541  -13.8143   20.5683 C   0  0  0  0  0  0
  -24.1805  -13.0424   20.9157 C   0  0  0  0  0  0
  -24.6361  -11.6876   20.8713 C   0  0  0  0  0  0
  -23.9033  -10.4281   21.0402 C   0  0  0  0  0  0
  -24.3594   -9.4205   21.9189 C   0  0  0  0  0  0
  -23.6275   -8.2238   22.0761 C   0  0  0  0  0  0
  -22.4270   -8.0277   21.3543 C   0  0  0  0  0  0
  -21.9883   -9.0237   20.4645 C   0  0  0  0  0  0
  -22.7198  -10.2120   20.3048 C   0  0  0  0  0  0
  -21.6836   -6.0731   22.5289 C   0  0  0  0  0  0
  -21.4006   -6.5637   23.8217 C   0  0  0  0  0  0
  -21.3662   -5.6797   24.9179 C   0  0  0  0  0  0
  -21.6034   -4.3055   24.7235 C   0  0  0  0  0  0
  -21.8810   -3.8146   23.4353 C   0  0  0  0  0  0
  -21.9177   -4.6960   22.3412 C   0  0  0  0  0  0
  -22.7821  -13.5221   21.1833 C   0  0  0  0  0  0
  -22.1657   -4.2144   21.0986 F   0  0  0  0  0  0
  -21.5617   -3.4552   25.7751 F   0  0  0  0  0  0
  -30.0179  -13.3197   20.4421 N   0  0  0  0  0  0
  -26.2963  -12.9307   20.3268 N   0  0  0  0  0  0
  -25.9273  -11.6468   20.5653 N   0  0  0  0  0  0
  -22.0489  -12.8221   22.0397 N   0  0  0  0  0  0
  -25.4286  -15.1857   20.4165 N   0  0  0  0  0  0
  -31.7941  -14.7125   20.1285 O   0  0  0  0  0  0
  -21.6628   -6.8878   21.4249 O   0  0  0  0  0  0
  -22.3497  -14.5541   20.6692 O   0  0  0  0  0  0
  -24.6189  -31.8639   23.2108 C   0  0  0  0  0  0
  -25.9073  -32.4797   23.8404 C   0  0  1  0  0  0
  -27.2203  -27.3966   20.0971 C   0  0  0  0  0  0
  -25.5919  -33.8602   24.2328 N   0  0  0  0  0  0
  -23.4059  -30.4906   21.5532 C   0  0  2  0  0  0
  -24.8498  -28.9459   20.1264 C   0  0  0  0  0  0
  -22.7425  -29.4648   22.4998 C   0  0  0  0  0  0
  -18.0282  -28.1405   22.8496 C   0  0  0  0  0  0
  -24.1494  -36.7318   23.2633 C   0  0  0  0  0  0
  -25.9406  -30.8178   21.3670 C   0  0  0  0  0  0
  -26.0144  -29.4452   20.7228 C   0  0  0  0  0  0
  -27.2074  -28.6788   20.7038 C   0  0  0  0  0  0
  -26.0409  -26.9176   19.4961 C   0  0  0  0  0  0
  -24.8582  -27.6809   19.5120 C   0  0  0  0  0  0
  -23.6150  -29.8200   20.1703 C   0  0  0  0  0  0
  -25.4116  -36.3089   24.0330 C   0  0  1  0  0  0
  -20.5876  -28.3645   23.1305 C   0  0  2  0  0  0
  -20.6836  -26.9425   22.5327 C   0  0  0  0  0  0
  -19.5744  -26.6359   21.5214 C   0  0  0  0  0  0
  -18.1907  -26.7971   22.1598 C   0  0  0  0  0  0
  -19.1545  -28.8839   23.2927 C   0  0  0  0  0  0
  -18.9483  -30.1407   23.9017 C   0  0  0  0  0  0
  -17.6493  -30.6574   24.0653 C   0  0  0  0  0  0
  -25.9037  -34.9452   23.5114 C   0  0  0  0  0  0
  -16.5383  -29.9109   23.6385 C   0  0  0  0  0  0
  -16.7282  -28.6528   23.0390 C   0  0  0  0  0  0
  -26.4490  -31.6586   25.0744 C   0  0  0  0  0  0
  -25.3761  -31.3695   26.1495 C   0  0  0  0  0  0
  -27.0306  -30.3027   24.6109 C   0  0  0  0  0  0
  -27.6054  -32.4318   25.7511 C   0  0  0  0  0  0
  -27.5586  -37.1815   24.8467 C   0  0  0  0  0  0
  -21.4147  -29.3022   22.3739 N   0  0  0  0  0  0
  -26.4292  -37.3793   23.9395 N   0  0  0  0  0  0
  -24.6753  -31.0730   22.1016 N   0  0  0  0  0  0
  -23.4199  -28.8194   23.3040 O   0  0  0  0  0  0
  -28.3778  -26.6543   19.9645 O   0  0  0  0  0  0
  -26.5615  -34.8901   22.4678 O   0  0  0  0  0  0
  -23.5387  -32.1396   23.7504 O   0  0  0  0  0  0
  -26.9469  -21.6704   20.6745 C   0  0  0  0  0  0
  -28.8872  -23.0762   20.4484 C   0  0  0  0  0  0
  -28.3217  -21.7735   20.3991 C   0  0  0  0  0  0
  -26.2086  -22.8320   20.9659 C   0  0  0  0  0  0
  -28.0698  -24.2088   20.7301 C   0  0  0  0  0  0
  -23.8746  -22.2683   20.1217 C   0  0  0  0  0  0
  -29.1196  -20.5214   19.9788 C   0  0  0  0  0  0
  -24.7344  -22.7331   21.3040 C   0  0  0  0  0  0
  -28.6646  -25.6256   20.9388 C   0  0  0  0  0  0
  -29.3263  -19.3927   21.0420 C   0  0  0  0  0  0
  -29.5846  -17.9698   20.4421 C   0  0  0  0  0  0
  -30.2730  -16.9268   21.3826 C   0  0  0  0  0  0
  -26.7480  -24.0699   20.9751 N   0  0  0  0  0  0
  -29.9195  -15.5114   21.1114 N   0  0  0  0  0  0
  -31.4684  -12.4459   19.1306 H   0  0  0  0  0  0
  -30.3226  -11.3263   19.8297 H   0  0  0  0  0  0
  -29.7447  -11.7915   17.4324 H   0  0  0  0  0  0
  -29.6513  -13.5024   17.7686 H   0  0  0  0  0  0
  -27.8331  -11.3055   18.8067 H   0  0  0  0  0  0
  -27.3675  -12.6328   17.7815 H   0  0  0  0  0  0
  -27.6894  -14.2553   19.5587 H   0  0  0  0  0  0
  -28.6685  -11.9569   21.3218 H   0  0  0  0  0  0
  -28.4323  -13.5904   21.8648 H   0  0  0  0  0  0
  -25.2743   -9.5645   22.4762 H   0  0  0  0  0  0
  -23.9973   -7.4607   22.7471 H   0  0  0  0  0  0
  -21.0816   -8.8717   19.8957 H   0  0  0  0  0  0
  -22.3651  -10.9643   19.6146 H   0  0  0  0  0  0
  -21.2021   -7.6156   23.9703 H   0  0  0  0  0  0
  -21.1496   -6.0552   25.9075 H   0  0  0  0  0  0
  -22.0594   -2.7616   23.2855 H   0  0  0  0  0  0
  -22.4149  -11.9873   22.4729 H   0  0  0  0  0  0
  -21.1122  -13.1237   22.2700 H   0  0  0  0  0  0
  -24.6560  -15.8366   20.5064 H   0  0  0  0  0  0
  -26.2823  -15.6234   20.0939 H   0  0  0  0  0  0
  -26.7135  -32.5499   23.1157 H   0  0  0  0  0  0
  -25.0071  -33.9778   25.0471 H   0  0  0  0  0  0
  -22.6952  -31.3087   21.4139 H   0  0  0  0  0  0
  -23.3733  -35.9676   23.3315 H   0  0  0  0  0  0
  -24.3588  -36.8927   22.2045 H   0  0  0  0  0  0
  -23.7273  -37.6534   23.6651 H   0  0  0  0  0  0
  -26.0575  -31.5761   20.5930 H   0  0  0  0  0  0
  -26.8312  -30.8763   21.9821 H   0  0  0  0  0  0
  -28.1172  -29.0706   21.1374 H   0  0  0  0  0  0
  -26.0445  -25.9567   18.9997 H   0  0  0  0  0  0
  -23.9647  -27.2963   19.0423 H   0  0  0  0  0  0
  -23.7272  -30.5945   19.4102 H   0  0  0  0  0  0
  -22.7371  -29.2434   19.8711 H   0  0  0  0  0  0
  -25.1290  -36.1948   25.0831 H   0  0  0  0  0  0
  -20.9988  -28.3167   24.1416 H   0  0  0  0  0  0
  -20.5966  -26.2239   23.3491 H   0  0  0  0  0  0
  -21.6674  -26.7626   22.0953 H   0  0  0  0  0  0
  -19.6846  -25.6235   21.1336 H   0  0  0  0  0  0
  -19.6679  -27.3117   20.6702 H   0  0  0  0  0  0
  -17.4202  -26.6851   21.3961 H   0  0  0  0  0  0
  -18.0174  -26.0071   22.8923 H   0  0  0  0  0  0
  -19.7971  -30.7155   24.2480 H   0  0  0  0  0  0
  -17.5059  -31.6246   24.5290 H   0  0  0  0  0  0
  -15.5392  -30.3041   23.7673 H   0  0  0  0  0  0
  -15.8659  -28.0885   22.7088 H   0  0  0  0  0  0
  -24.5925  -30.7047   25.7845 H   0  0  0  0  0  0
  -24.8964  -32.2849   26.4961 H   0  0  0  0  0  0
  -25.8128  -30.8852   27.0230 H   0  0  0  0  0  0
  -26.2838  -29.6815   24.1153 H   0  0  0  0  0  0
  -27.4059  -29.7236   25.4551 H   0  0  0  0  0  0
  -27.8684  -30.4349   23.9265 H   0  0  0  0  0  0
  -27.2648  -33.3591   26.2122 H   0  0  0  0  0  0
  -28.3845  -32.6928   25.0343 H   0  0  0  0  0  0
  -28.0728  -31.8419   26.5398 H   0  0  0  0  0  0
  -28.2601  -38.0111   24.7483 H   0  0  0  0  0  0
  -28.1072  -36.2635   24.6310 H   0  0  0  0  0  0
  -27.2298  -37.1489   25.8870 H   0  0  0  0  0  0
  -20.9288  -29.8723   21.6964 H   0  0  0  0  0  0
  -26.0172  -38.2866   24.1386 H   0  0  0  0  0  0
  -26.4512  -20.7082   20.6535 H   0  0  0  0  0  0
  -29.9437  -23.2131   20.2753 H   0  0  0  0  0  0
  -22.8335  -22.1732   20.4269 H   0  0  0  0  0  0
  -24.2018  -21.2976   19.7455 H   0  0  0  0  0  0
  -23.9175  -22.9850   19.3036 H   0  0  0  0  0  0
  -30.0934  -20.8354   19.6005 H   0  0  0  0  0  0
  -28.5911  -20.1074   19.1180 H   0  0  0  0  0  0
  -24.3728  -23.7030   21.6505 H   0  0  0  0  0  0
  -24.6208  -22.0461   22.1434 H   0  0  0  0  0  0
  -29.7503  -25.5294   20.9544 H   0  0  0  0  0  0
  -28.3983  -25.9799   21.9346 H   0  0  0  0  0  0
  -30.1317  -19.6908   21.7141 H   0  0  0  0  0  0
  -28.4355  -19.3124   21.6642 H   0  0  0  0  0  0
  -28.6219  -17.5834   20.1012 H   0  0  0  0  0  0
  -30.2007  -18.0806   19.5493 H   0  0  0  0  0  0
  -31.3563  -17.0557   21.3522 H   0  0  0  0  0  0
  -29.9831  -17.1354   22.4147 H   0  0  0  0  0  0
  -28.9978  -15.2339   21.4104 H   0  0  0  0  0  0
  1 25  1  0  0  0
  1 30  2  0  0  0
  1 84  1  0  0  0
  2  3  1  0  0  0
  2 25  1  0  0  0
  2 85  1  0  0  0
  2 86  1  0  0  0
  3  4  1  0  0  0
  3 87  1  0  0  0
  3 88  1  0  0  0
  4  5  1  0  0  0
  4 89  1  0  0  0
  4 90  1  0  0  0
  5  6  1  0  0  0
  5 26  1  0  0  0
  5 91  1  0  0  0
  6 25  1  0  0  0
  6 92  1  0  0  0
  6 93  1  0  0  0
  7  8  2  0  0  0
  7 26  1  0  0  0
  7 29  1  0  0  0
  8  9  1  0  0  0
  8 22  1  0  0  0
  9 10  1  0  0  0
  9 27  2  0  0  0
 10 11  2  0  0  0
 10 15  1  0  0  0
 11 12  1  0  0  0
 11 94  1  0  0  0
 12 13  2  0  0  0
 12 95  1  0  0  0
 13 14  1  0  0  0
 13 31  1  0  0  0
 14 15  2  0  0  0
 14 96  1  0  0  0
 15 97  1  0  0  0
 16 17  2  0  0  0
 16 21  1  0  0  0
 16 31  1  0  0  0
 17 18  1  0  0  0
 17 98  1  0  0  0
 18 19  2  0  0  0
 18 99  1  0  0  0
 19 20  1  0  0  0
 19 24  1  0  0  0
 20 21  2  0  0  0
 20100  1  0  0  0
 21 23  1  0  0  0
 22 28  1  0  0  0
 22 32  2  0  0  0
 26 27  1  0  0  0
 28101  1  0  0  0
 28102  1  0  0  0
 29103  1  0  0  0
 29104  1  0  0  0
 33 34  1  0  0  0
 33 66  1  0  0  0
 33 70  2  0  0  0
 34 36  1  0  0  0
 34 59  1  0  0  0
 34105  1  0  0  0
 35 44  2  0  0  0
 35 45  1  0  0  0
 35 68  1  0  0  0
 36 56  1  0  0  0
 36106  1  0  0  0
 37 39  1  0  0  0
 37 47  1  0  0  0
 37 66  1  0  0  0
 37107  1  0  0  0
 38 43  2  0  0  0
 38 46  1  0  0  0
 38 47  1  0  0  0
 39 64  1  0  0  0
 39 67  2  0  0  0
 40 52  1  0  0  0
 40 53  2  0  0  0
 40 58  1  0  0  0
 41108  1  0  0  0
 41109  1  0  0  0
 41110  1  0  0  0
 41 48  1  0  0  0
 42 43  1  0  0  0
 42 66  1  0  0  0
 42111  1  0  0  0
 42112  1  0  0  0
 43 44  1  0  0  0
 44113  1  0  0  0
 45 46  2  0  0  0
 45114  1  0  0  0
 46115  1  0  0  0
 47116  1  0  0  0
 47117  1  0  0  0
 48 56  1  0  0  0
 48 65  1  0  0  0
 48118  1  0  0  0
 49 50  1  0  0  0
 49 53  1  0  0  0
 49 64  1  0  0  0
 49119  1  0  0  0
 50 51  1  0  0  0
 50120  1  0  0  0
 50121  1  0  0  0
 51 52  1  0  0  0
 51122  1  0  0  0
 51123  1  0  0  0
 52124  1  0  0  0
 52125  1  0  0  0
 53 54  1  0  0  0
 54 55  2  0  0  0
 54126  1  0  0  0
 55 57  1  0  0  0
 55127  1  0  0  0
 56 69  2  0  0  0
 57 58  2  0  0  0
 57128  1  0  0  0
 58129  1  0  0  0
 59 60  1  0  0  0
 59 61  1  0  0  0
 59 62  1  0  0  0
 60130  1  0  0  0
 60131  1  0  0  0
 60132  1  0  0  0
 61133  1  0  0  0
 61134  1  0  0  0
 61135  1  0  0  0
 62136  1  0  0  0
 62137  1  0  0  0
 62138  1  0  0  0
 63 65  1  0  0  0
 63139  1  0  0  0
 63140  1  0  0  0
 63141  1  0  0  0
 64142  1  0  0  0
 65143  1  0  0  0
 68 79  1  0  0  0
 71 73  2  0  0  0
 71 74  1  0  0  0
 71144  1  0  0  0
 72 73  1  0  0  0
 72 75  2  0  0  0
 72145  1  0  0  0
 73 77  1  0  0  0
 74 78  1  0  0  0
 74 83  2  0  0  0
 75 79  1  0  0  0
 75 83  1  0  0  0
 76 78  1  0  0  0
 76146  1  0  0  0
 76147  1  0  0  0
 76148  1  0  0  0
 77 80  1  0  0  0
 77149  1  0  0  0
 77150  1  0  0  0
 78151  1  0  0  0
 78152  1  0  0  0
 79153  1  0  0  0
 79154  1  0  0  0
 80 81  1  0  0  0
 80155  1  0  0  0
 80156  1  0  0  0
 81 82  1  0  0  0
 81157  1  0  0  0
 81158  1  0  0  0
 82 84  1  0  0  0
 82159  1  0  0  0
 82160  1  0  0  0
 84161  1  0  0  0
M  ISO  4   1 100  68 101  79 101  84 100
M  END
> <chiral flag>
0

> <version>
0

> <s_m_source_file>
/data/baiqing/PycharmProjects/Reinvent-master-3.2/result/LINK_invent/BTK/process_docking_weight1_custom_sum_contain_oxygen_bond_distance_aromatic_linkinvent_7_9_3/rearranged_h_0084.sdf

> <i_m_source_file_index>
21

> <r_mmod_Potential_Energy-OPLS-2005>
-168.006500244141

> <r_mmod_Stretch_Energy-OPLS-2005>
45.7680320739746

> <r_mmod_Bend_Energy-OPLS-2005>
108.820243835449

> <r_mmod_Torsional_Energy-OPLS-2005>
233.88037109375

> <r_mmod_Improper_Torsional_Energy-OPLS-2005>
4.13229608535767

> <r_mmod_Van_der_Waal_Energy-OPLS-2005>
137.278869628906

> <r_mmod_Electrostatic_Energy-OPLS-2005>
-499.049774169922

> <r_mmod_Solvation_Energy-OPLS-2005>
-216.707946777344

> <b_mmod_Minimization_Converged-OPLS-2005>
0

> <r_mmod_RMS_Derivative-OPLS-2005>
4.24454021453857

$$$$
21
                    3D
 Structure written by MMmdl.
166174  0  0  1  0            999 V2000
  -30.5440  -14.9813   20.4244 C   0  0  0  0  0  0
  -30.4415  -12.6117   19.5172 C   0  0  0  0  0  0
  -29.5268  -12.5440   18.2710 C   0  0  0  0  0  0
  -28.0602  -12.3265   18.6853 C   0  0  0  0  0  0
  -27.6323  -13.2574   19.8481 C   0  0  2  0  0  0
  -28.6718  -13.3013   20.9910 C   0  0  0  0  0  0
  -25.2449  -13.8212   20.5733 C   0  0  0  0  0  0
  -24.1786  -13.0434   20.9246 C   0  0  0  0  0  0
  -24.6416  -11.6928   20.8775 C   0  0  0  0  0  0
  -23.9097  -10.4301   21.0432 C   0  0  0  0  0  0
  -24.3653   -9.4203   21.9190 C   0  0  0  0  0  0
  -23.6319   -8.2242   22.0754 C   0  0  0  0  0  0
  -22.4290   -8.0291   21.3553 C   0  0  0  0  0  0
  -21.9946   -9.0265   20.4649 C   0  0  0  0  0  0
  -22.7282  -10.2142   20.3063 C   0  0  0  0  0  0
  -21.6853   -6.0744   22.5286 C   0  0  0  0  0  0
  -21.4005   -6.5650   23.8217 C   0  0  0  0  0  0
  -21.3659   -5.6802   24.9182 C   0  0  0  0  0  0
  -21.6046   -4.3065   24.7230 C   0  0  0  0  0  0
  -21.8824   -3.8156   23.4355 C   0  0  0  0  0  0
  -21.9197   -4.6974   22.3410 C   0  0  0  0  0  0
  -22.7799  -13.5187   21.1914 C   0  0  0  0  0  0
  -22.1663   -4.2161   21.0984 F   0  0  0  0  0  0
  -21.5642   -3.4548   25.7742 F   0  0  0  0  0  0
  -29.9518  -13.7151   20.4017 N   0  0  0  0  0  0
  -26.2907  -12.9483   20.3294 N   0  0  0  0  0  0
  -25.9350  -11.6602   20.5766 N   0  0  0  0  0  0
  -22.0471  -12.8147   22.0460 N   0  0  0  0  0  0
  -25.4063  -15.1929   20.4102 N   0  0  0  0  0  0
  -31.7259  -15.0419   20.0720 O   0  0  0  0  0  0
  -21.6649   -6.8889   21.4246 O   0  0  0  0  0  0
  -22.3475  -14.5496   20.6772 O   0  0  0  0  0  0
  -24.6456  -31.8429   23.1863 C   0  0  0  0  0  0
  -25.9209  -32.4702   23.8274 C   0  0  1  0  0  0
  -27.2144  -27.1040   20.1652 C   0  0  0  0  0  0
  -25.5934  -33.8510   24.2181 N   0  0  0  0  0  0
  -23.4523  -30.4587   21.5349 C   0  0  2  0  0  0
  -24.9023  -28.8816   20.1166 C   0  0  0  0  0  0
  -22.7587  -29.4529   22.4880 C   0  0  0  0  0  0
  -18.0311  -28.1401   22.8486 C   0  0  0  0  0  0
  -24.1486  -36.7242   23.2645 C   0  0  0  0  0  0
  -26.0105  -30.7060   21.3917 C   0  0  0  0  0  0
  -26.0816  -29.3140   20.7360 C   0  0  0  0  0  0
  -27.2394  -28.4425   20.7409 C   0  0  0  0  0  0
  -26.0064  -26.7850   19.5037 C   0  0  0  0  0  0
  -24.8784  -27.6318   19.4846 C   0  0  0  0  0  0
  -23.6795  -29.7844   20.1575 C   0  0  0  0  0  0
  -25.4125  -36.3040   24.0317 C   0  0  1  0  0  0
  -20.5923  -28.3723   23.1243 C   0  0  2  0  0  0
  -20.6795  -26.9423   22.5418 C   0  0  0  0  0  0
  -19.5766  -26.6379   21.5233 C   0  0  0  0  0  0
  -18.1944  -26.7942   22.1635 C   0  0  0  0  0  0
  -19.1567  -28.8887   23.2847 C   0  0  0  0  0  0
  -18.9478  -30.1486   23.8870 C   0  0  0  0  0  0
  -17.6473  -30.6600   24.0559 C   0  0  0  0  0  0
  -25.9076  -34.9416   23.5062 C   0  0  0  0  0  0
  -16.5362  -29.9084   23.6350 C   0  0  0  0  0  0
  -16.7290  -28.6502   23.0377 C   0  0  0  0  0  0
  -26.4512  -31.6589   25.0735 C   0  0  0  0  0  0
  -25.3667  -31.3794   26.1407 C   0  0  0  0  0  0
  -27.0383  -30.2985   24.6345 C   0  0  0  0  0  0
  -27.6048  -32.4357   25.7514 C   0  0  0  0  0  0
  -27.5580  -37.1773   24.8463 C   0  0  0  0  0  0
  -21.4283  -29.3029   22.3605 N   0  0  0  0  0  0
  -26.4287  -37.3758   23.9413 N   0  0  0  0  0  0
  -24.7232  -31.0236   22.0933 N   0  0  0  0  0  0
  -23.4203  -28.8097   23.3067 O   0  0  0  0  0  0
  -28.2549  -26.0933   20.2324 O   0  0  0  0  0  0
  -26.5673  -34.8915   22.4647 O   0  0  0  0  0  0
  -23.5559  -32.1329   23.7043 O   0  0  0  0  0  0
  -26.7827  -21.7354   20.5531 C   0  0  0  0  0  0
  -26.1990  -20.5467   20.8626 C   0  0  0  0  0  0
  -27.2767  -19.6164   21.0302 C   0  0  0  0  0  0
  -28.4745  -20.2101   20.6747 C   0  0  0  0  0  0
  -27.1660  -18.1877   21.5219 C   0  0  0  0  0  0
  -24.0356  -20.7903   19.6276 C   0  0  0  0  0  0
  -24.1561  -21.3911   22.0663 C   0  0  0  0  0  0
  -24.1620  -19.0078   21.3527 C   0  0  0  0  0  0
  -29.7883  -19.2337   20.6538 C   0  0  0  0  0  0
  -28.8473  -23.1190   20.3714 C   0  0  0  0  0  0
  -29.9217  -17.6446   20.0064 C   0  0  0  0  0  0
  -27.9115  -24.5579   20.2502 C   0  0  0  0  0  0
  -24.6688  -20.4147   20.9839 C   0  0  0  0  0  0
  -28.1644  -21.6859   20.5275 N   0  0  0  0  0  0
  -29.7867  -16.1785   20.6253 N   0  0  0  0  0  0
  -31.4749  -12.7644   19.2018 H   0  0  0  0  0  0
  -30.4371  -11.6626   20.0548 H   0  0  0  0  0  0
  -29.8482  -11.7415   17.6065 H   0  0  0  0  0  0
  -29.6134  -13.4687   17.6990 H   0  0  0  0  0  0
  -27.9550  -11.2854   18.9892 H   0  0  0  0  0  0
  -27.3999  -12.4624   17.8280 H   0  0  0  0  0  0
  -27.5919  -14.2580   19.4167 H   0  0  0  0  0  0
  -28.7637  -12.3338   21.4861 H   0  0  0  0  0  0
  -28.3643  -14.0128   21.7592 H   0  0  0  0  0  0
  -25.2798   -9.5673   22.4766 H   0  0  0  0  0  0
  -24.0042   -7.4619   22.7451 H   0  0  0  0  0  0
  -21.0894   -8.8787   19.8933 H   0  0  0  0  0  0
  -22.3751  -10.9690   19.6183 H   0  0  0  0  0  0
  -21.1978   -7.6155   23.9721 H   0  0  0  0  0  0
  -21.1472   -6.0532   25.9085 H   0  0  0  0  0  0
  -22.0598   -2.7620   23.2848 H   0  0  0  0  0  0
  -22.4125  -11.9817   22.4833 H   0  0  0  0  0  0
  -21.1074  -13.1108   22.2668 H   0  0  0  0  0  0
  -24.6279  -15.8339   20.5084 H   0  0  0  0  0  0
  -26.2368  -15.6275   20.0326 H   0  0  0  0  0  0
  -26.7280  -32.5300   23.1006 H   0  0  0  0  0  0
  -25.0030  -33.9636   25.0293 H   0  0  0  0  0  0
  -22.7558  -31.2844   21.3761 H   0  0  0  0  0  0
  -23.3783  -35.9537   23.3282 H   0  0  0  0  0  0
  -24.3554  -36.8905   22.2060 H   0  0  0  0  0  0
  -23.7209  -37.6415   23.6698 H   0  0  0  0  0  0
  -26.1658  -31.4570   20.6162 H   0  0  0  0  0  0
  -26.8815  -30.7586   22.0343 H   0  0  0  0  0  0
  -28.1355  -28.7647   21.2516 H   0  0  0  0  0  0
  -25.8855  -25.8364   19.0069 H   0  0  0  0  0  0
  -23.9774  -27.2964   18.9897 H   0  0  0  0  0  0
  -23.8087  -30.5538   19.3957 H   0  0  0  0  0  0
  -22.7973  -29.2181   19.8543 H   0  0  0  0  0  0
  -25.1312  -36.1867   25.0811 H   0  0  0  0  0  0
  -20.9999  -28.3312   24.1370 H   0  0  0  0  0  0
  -20.5716  -26.2325   23.3633 H   0  0  0  0  0  0
  -21.6653  -26.7438   22.1195 H   0  0  0  0  0  0
  -19.6920  -25.6284   21.1276 H   0  0  0  0  0  0
  -19.6709  -27.3181   20.6758 H   0  0  0  0  0  0
  -17.4215  -26.6711   21.4033 H   0  0  0  0  0  0
  -18.0312  -26.0093   22.9037 H   0  0  0  0  0  0
  -19.7948  -30.7321   24.2221 H   0  0  0  0  0  0
  -17.5018  -31.6281   24.5155 H   0  0  0  0  0  0
  -15.5357  -30.2971   23.7707 H   0  0  0  0  0  0
  -15.8689  -28.0808   22.7117 H   0  0  0  0  0  0
  -24.5840  -30.7166   25.7694 H   0  0  0  0  0  0
  -24.8857  -32.2985   26.4769 H   0  0  0  0  0  0
  -25.7905  -30.8984   27.0232 H   0  0  0  0  0  0
  -26.3023  -29.6715   24.1303 H   0  0  0  0  0  0
  -27.3930  -29.7283   25.4942 H   0  0  0  0  0  0
  -27.8953  -30.4224   23.9721 H   0  0  0  0  0  0
  -27.2658  -33.3686   26.2031 H   0  0  0  0  0  0
  -28.3882  -32.6879   25.0352 H   0  0  0  0  0  0
  -28.0690  -31.8524   26.5476 H   0  0  0  0  0  0
  -28.2580  -38.0090   24.7536 H   0  0  0  0  0  0
  -28.1098  -36.2618   24.6264 H   0  0  0  0  0  0
  -27.2284  -37.1382   25.8863 H   0  0  0  0  0  0
  -20.9512  -29.8676   21.6718 H   0  0  0  0  0  0
  -26.0155  -38.2820   24.1452 H   0  0  0  0  0  0
  -26.2583  -22.6619   20.3836 H   0  0  0  0  0  0
  -26.9719  -17.5092   20.6923 H   0  0  0  0  0  0
  -26.3967  -18.0666   22.2765 H   0  0  0  0  0  0
  -28.0769  -17.8705   22.0268 H   0  0  0  0  0  0
  -24.2834  -21.8093   19.3275 H   0  0  0  0  0  0
  -22.9475  -20.7264   19.6603 H   0  0  0  0  0  0
  -24.3777  -20.1212   18.8370 H   0  0  0  0  0  0
  -24.3980  -22.4283   21.8349 H   0  0  0  0  0  0
  -24.5908  -21.1673   23.0417 H   0  0  0  0  0  0
  -23.0721  -21.3380   22.1759 H   0  0  0  0  0  0
  -24.5535  -18.2437   20.6806 H   0  0  0  0  0  0
  -23.0757  -18.9526   21.2878 H   0  0  0  0  0  0
  -24.4086  -18.7437   22.3807 H   0  0  0  0  0  0
  -30.1925  -19.2003   21.6659 H   0  0  0  0  0  0
  -30.5401  -19.8086   20.1103 H   0  0  0  0  0  0
  -29.5105  -23.2325   21.2291 H   0  0  0  0  0  0
  -29.5033  -23.0674   19.5022 H   0  0  0  0  0  0
  -30.9489  -17.6218   19.6389 H   0  0  0  0  0  0
  -29.3287  -17.6340   19.0920 H   0  0  0  0  0  0
  -27.1974  -24.4984   21.0722 H   0  0  0  0  0  0
  -27.3359  -24.3886   19.3418 H   0  0  0  0  0  0
  -28.8700  -15.9894   21.0010 H   0  0  0  0  0  0
  1 25  1  0  0  0
  1 30  2  0  0  0
  1 85  1  0  0  0
  2  3  1  0  0  0
  2 25  1  0  0  0
  2 86  1  0  0  0
  2 87  1  0  0  0
  3  4  1  0  0  0
  3 88  1  0  0  0
  3 89  1  0  0  0
  4  5  1  0  0  0
  4 90  1  0  0  0
  4 91  1  0  0  0
  5  6  1  0  0  0
  5 26  1  0  0  0
  5 92  1  0  0  0
  6 25  1  0  0  0
  6 93  1  0  0  0
  6 94  1  0  0  0
  7  8  2  0  0  0
  7 26  1  0  0  0
  7 29  1  0  0  0
  8  9  1  0  0  0
  8 22  1  0  0  0
  9 10  1  0  0  0
  9 27  2  0  0  0
 10 11  2  0  0  0
 10 15  1  0  0  0
 11 12  1  0  0  0
 11 95  1  0  0  0
 12 13  2  0  0  0
 12 96  1  0  0  0
 13 14  1  0  0  0
 13 31  1  0  0  0
 14 15  2  0  0  0
 14 97  1  0  0  0
 15 98  1  0  0  0
 16 17  2  0  0  0
 16 21  1  0  0  0
 16 31  1  0  0  0
 17 18  1  0  0  0
 17 99  1  0  0  0
 18 19  2  0  0  0
 18100  1  0  0  0
 19 20  1  0  0  0
 19 24  1  0  0  0
 20 21  2  0  0  0
 20101  1  0  0  0
 21 23  1  0  0  0
 22 28  1  0  0  0
 22 32  2  0  0  0
 26 27  1  0  0  0
 28102  1  0  0  0
 28103  1  0  0  0
 29104  1  0  0  0
 29105  1  0  0  0
 33 34  1  0  0  0
 33 66  1  0  0  0
 33 70  2  0  0  0
 34 36  1  0  0  0
 34 59  1  0  0  0
 34106  1  0  0  0
 35 44  2  0  0  0
 35 45  1  0  0  0
 35 68  1  0  0  0
 36 56  1  0  0  0
 36107  1  0  0  0
 37 39  1  0  0  0
 37 47  1  0  0  0
 37 66  1  0  0  0
 37108  1  0  0  0
 38 43  2  0  0  0
 38 46  1  0  0  0
 38 47  1  0  0  0
 39 64  1  0  0  0
 39 67  2  0  0  0
 40 52  1  0  0  0
 40 53  2  0  0  0
 40 58  1  0  0  0
 41109  1  0  0  0
 41110  1  0  0  0
 41111  1  0  0  0
 41 48  1  0  0  0
 42 43  1  0  0  0
 42 66  1  0  0  0
 42112  1  0  0  0
 42113  1  0  0  0
 43 44  1  0  0  0
 44114  1  0  0  0
 45 46  2  0  0  0
 45115  1  0  0  0
 46116  1  0  0  0
 47117  1  0  0  0
 47118  1  0  0  0
 48 56  1  0  0  0
 48 65  1  0  0  0
 48119  1  0  0  0
 49 50  1  0  0  0
 49 53  1  0  0  0
 49 64  1  0  0  0
 49120  1  0  0  0
 50 51  1  0  0  0
 50121  1  0  0  0
 50122  1  0  0  0
 51 52  1  0  0  0
 51123  1  0  0  0
 51124  1  0  0  0
 52125  1  0  0  0
 52126  1  0  0  0
 53 54  1  0  0  0
 54 55  2  0  0  0
 54127  1  0  0  0
 55 57  1  0  0  0
 55128  1  0  0  0
 56 69  2  0  0  0
 57 58  2  0  0  0
 57129  1  0  0  0
 58130  1  0  0  0
 59 60  1  0  0  0
 59 61  1  0  0  0
 59 62  1  0  0  0
 60131  1  0  0  0
 60132  1  0  0  0
 60133  1  0  0  0
 61134  1  0  0  0
 61135  1  0  0  0
 61136  1  0  0  0
 62137  1  0  0  0
 62138  1  0  0  0
 62139  1  0  0  0
 63 65  1  0  0  0
 63140  1  0  0  0
 63141  1  0  0  0
 63142  1  0  0  0
 64143  1  0  0  0
 65144  1  0  0  0
 68 82  1  0  0  0
 71 72  2  0  0  0
 71 84  1  0  0  0
 71145  1  0  0  0
 72 73  1  0  0  0
 72 83  1  0  0  0
 73 74  2  0  0  0
 73 75  1  0  0  0
 74 79  1  0  0  0
 74 84  1  0  0  0
 75146  1  0  0  0
 75147  1  0  0  0
 75148  1  0  0  0
 76149  1  0  0  0
 76150  1  0  0  0
 76151  1  0  0  0
 76 83  1  0  0  0
 77 83  1  0  0  0
 77152  1  0  0  0
 77153  1  0  0  0
 77154  1  0  0  0
 78 83  1  0  0  0
 78155  1  0  0  0
 78156  1  0  0  0
 78157  1  0  0  0
 79 81  1  0  0  0
 79158  1  0  0  0
 79159  1  0  0  0
 80 82  1  0  0  0
 80 84  1  0  0  0
 80160  1  0  0  0
 80161  1  0  0  0
 81 85  1  0  0  0
 81162  1  0  0  0
 81163  1  0  0  0
 82164  1  0  0  0
 82165  1  0  0  0
 85166  1  0  0  0
M  ISO  4   1 100  68 101  82 101  85 100
M  END
> <chiral flag>
0

> <version>
0

> <s_m_source_file>
/data/baiqing/PycharmProjects/Reinvent-master-3.2/result/LINK_invent/BTK/process_docking_weight1_custom_sum_contain_oxygen_bond_distance_aromatic_linkinvent_7_9_3/rearranged_h_0084.sdf

> <i_m_source_file_index>
22

> <r_mmod_Potential_Energy-OPLS-2005>
667.2236328125

> <r_mmod_Stretch_Energy-OPLS-2005>
329.870483398438

> <r_mmod_Bend_Energy-OPLS-2005>
378.972137451172

> <r_mmod_Torsional_Energy-OPLS-2005>
252.569152832031

> <r_mmod_Improper_Torsional_Energy-OPLS-2005>
6.3007173538208

> <r_mmod_Van_der_Waal_Energy-OPLS-2005>
123.415023803711

> <r_mmod_Electrostatic_Energy-OPLS-2005>
-434.799133300781

> <r_mmod_Solvation_Energy-OPLS-2005>
-208.067901611328

> <b_mmod_Minimization_Converged-OPLS-2005>
0

> <r_mmod_RMS_Derivative-OPLS-2005>
1.88034212589264

$$$$
22
                    3D
 Structure written by MMmdl.
167175  0  0  1  0            999 V2000
  -30.5881  -14.7785   20.3806 C   0  0  0  0  0  0
  -30.4349  -12.4410   19.4743 C   0  0  0  0  0  0
  -29.5099  -12.4312   18.2381 C   0  0  0  0  0  0
  -28.0294  -12.3013   18.6555 C   0  0  0  0  0  0
  -27.6366  -13.2135   19.8525 C   0  0  2  0  0  0
  -28.6967  -13.1673   20.9704 C   0  0  0  0  0  0
  -25.2533  -13.8174   20.5769 C   0  0  0  0  0  0
  -24.1782  -13.0428   20.9220 C   0  0  0  0  0  0
  -24.6360  -11.6898   20.8774 C   0  0  0  0  0  0
  -23.9052  -10.4267   21.0425 C   0  0  0  0  0  0
  -24.3638   -9.4173   21.9170 C   0  0  0  0  0  0
  -23.6319   -8.2210   22.0733 C   0  0  0  0  0  0
  -22.4284   -8.0254   21.3536 C   0  0  0  0  0  0
  -21.9912   -9.0226   20.4644 C   0  0  0  0  0  0
  -22.7237  -10.2108   20.3051 C   0  0  0  0  0  0
  -21.6846   -6.0705   22.5268 C   0  0  0  0  0  0
  -21.3990   -6.5602   23.8199 C   0  0  0  0  0  0
  -21.3664   -5.6765   24.9172 C   0  0  0  0  0  0
  -21.6064   -4.3031   24.7225 C   0  0  0  0  0  0
  -21.8841   -3.8117   23.4344 C   0  0  0  0  0  0
  -21.9203   -4.6935   22.3397 C   0  0  0  0  0  0
  -22.7818  -13.5224   21.1884 C   0  0  0  0  0  0
  -22.1665   -4.2121   21.0972 F   0  0  0  0  0  0
  -21.5682   -3.4506   25.7739 F   0  0  0  0  0  0
  -29.9743  -13.5404   20.3540 N   0  0  0  0  0  0
  -26.2932  -12.9305   20.3406 N   0  0  0  0  0  0
  -25.9291  -11.6480   20.5857 N   0  0  0  0  0  0
  -22.0492  -12.8173   22.0448 N   0  0  0  0  0  0
  -25.4338  -15.1873   20.4218 N   0  0  0  0  0  0
  -31.8120  -14.8385   20.2164 O   0  0  0  0  0  0
  -21.6638   -6.8843   21.4224 O   0  0  0  0  0  0
  -22.3498  -14.5534   20.6761 O   0  0  0  0  0  0
  -24.6317  -31.8538   23.1949 C   0  0  0  0  0  0
  -25.9139  -32.4735   23.8309 C   0  0  1  0  0  0
  -27.2412  -27.2561   20.1363 C   0  0  0  0  0  0
  -25.5936  -33.8544   24.2249 N   0  0  0  0  0  0
  -23.4306  -30.4687   21.5412 C   0  0  2  0  0  0
  -24.8820  -28.9043   20.1185 C   0  0  0  0  0  0
  -22.7503  -29.4582   22.4957 C   0  0  0  0  0  0
  -18.0288  -28.1399   22.8490 C   0  0  0  0  0  0
  -24.1483  -36.7253   23.2650 C   0  0  0  0  0  0
  -25.9745  -30.7636   21.3750 C   0  0  0  0  0  0
  -26.0530  -29.3824   20.7206 C   0  0  0  0  0  0
  -27.2366  -28.5747   20.7094 C   0  0  0  0  0  0
  -26.0453  -26.8391   19.5155 C   0  0  0  0  0  0
  -24.8831  -27.6408   19.5048 C   0  0  0  0  0  0
  -23.6481  -29.7881   20.1632 C   0  0  0  0  0  0
  -25.4115  -36.3053   24.0337 C   0  0  1  0  0  0
  -20.5890  -28.3700   23.1291 C   0  0  2  0  0  0
  -20.6777  -26.9417   22.5442 C   0  0  0  0  0  0
  -19.5762  -26.6384   21.5239 C   0  0  0  0  0  0
  -18.1929  -26.7949   22.1616 C   0  0  0  0  0  0
  -19.1540  -28.8874   23.2876 C   0  0  0  0  0  0
  -18.9457  -30.1472   23.8888 C   0  0  0  0  0  0
  -17.6459  -30.6594   24.0567 C   0  0  0  0  0  0
  -25.9062  -34.9428   23.5094 C   0  0  0  0  0  0
  -16.5348  -29.9087   23.6344 C   0  0  0  0  0  0
  -16.7273  -28.6502   23.0366 C   0  0  0  0  0  0
  -26.4513  -31.6571   25.0708 C   0  0  0  0  0  0
  -25.3726  -31.3719   26.1418 C   0  0  0  0  0  0
  -27.0379  -30.2985   24.6217 C   0  0  0  0  0  0
  -27.6079  -32.4316   25.7461 C   0  0  0  0  0  0
  -27.5583  -37.1769   24.8461 C   0  0  0  0  0  0
  -21.4225  -29.3027   22.3674 N   0  0  0  0  0  0
  -26.4279  -37.3762   23.9421 N   0  0  0  0  0  0
  -24.6980  -31.0474   22.0921 N   0  0  0  0  0  0
  -23.4187  -28.8166   23.3111 O   0  0  0  0  0  0
  -28.3622  -26.3915   20.1244 O   0  0  0  0  0  0
  -26.5637  -34.8914   22.4667 O   0  0  0  0  0  0
  -23.5465  -32.1375   23.7226 O   0  0  0  0  0  0
  -29.7481  -21.4818   17.9110 C   0  0  0  0  0  0
  -30.3127  -20.6806   16.9062 C   0  0  0  0  0  0
  -29.5666  -21.0254   19.2459 C   0  0  0  0  0  0
  -30.7030  -19.3824   17.2454 C   0  0  0  0  0  0
  -29.9340  -19.6036   19.4689 C   0  0  0  0  0  0
  -30.5302  -21.2468   15.5096 C   0  0  0  0  0  0
  -31.3791  -18.4363   16.2662 C   0  0  0  0  0  0
  -29.2395  -16.7830   22.3807 C   0  0  0  0  0  0
  -29.5052  -16.0971   18.6506 C   0  0  0  0  0  0
  -29.0347  -22.1668   20.2447 C   0  0  0  0  0  0
  -29.9952  -18.6805   20.7623 C   0  0  0  0  0  0
  -28.9252  -23.7299   19.7175 C   0  0  0  0  0  0
  -28.2424  -24.9457   20.5523 C   0  0  0  0  0  0
  -29.3608  -17.1541   20.8857 C   0  0  1  0  0  0
  -30.5196  -18.8976   18.4790 N   0  0  0  0  0  0
  -29.8073  -15.9106   20.0781 N   0  0  0  0  0  0
  -31.4777  -12.5467   19.1773 H   0  0  0  0  0  0
  -30.3774  -11.4844   19.9961 H   0  0  0  0  0  0
  -29.7795  -11.6010   17.5854 H   0  0  0  0  0  0
  -29.6707  -13.3272   17.6434 H   0  0  0  0  0  0
  -27.8728  -11.2579   18.9349 H   0  0  0  0  0  0
  -27.3702  -12.4809   17.8038 H   0  0  0  0  0  0
  -27.6064  -14.2283   19.4721 H   0  0  0  0  0  0
  -28.7581  -12.1694   21.4081 H   0  0  0  0  0  0
  -28.4452  -13.8409   21.7847 H   0  0  0  0  0  0
  -25.2811   -9.5626   22.4725 H   0  0  0  0  0  0
  -24.0037   -7.4582   22.7419 H   0  0  0  0  0  0
  -21.0850   -8.8726   19.8957 H   0  0  0  0  0  0
  -22.3696  -10.9636   19.6157 H   0  0  0  0  0  0
  -21.1917   -7.6101   23.9699 H   0  0  0  0  0  0
  -21.1499   -6.0478   25.9074 H   0  0  0  0  0  0
  -22.0631   -2.7577   23.2858 H   0  0  0  0  0  0
  -22.4143  -11.9802   22.4759 H   0  0  0  0  0  0
  -21.1135  -13.1184   22.2765 H   0  0  0  0  0  0
  -24.6935  -15.8671   20.5605 H   0  0  0  0  0  0
  -26.3206  -15.6116   20.1814 H   0  0  0  0  0  0
  -26.7207  -32.5391   23.1060 H   0  0  0  0  0  0
  -25.0101  -33.9681   25.0398 H   0  0  0  0  0  0
  -22.7266  -31.2889   21.3868 H   0  0  0  0  0  0
  -23.3775  -35.9552   23.3288 H   0  0  0  0  0  0
  -24.3587  -36.8898   22.2069 H   0  0  0  0  0  0
  -23.7192  -37.6426   23.6691 H   0  0  0  0  0  0
  -26.1151  -31.5222   20.6046 H   0  0  0  0  0  0
  -26.8497  -30.8137   22.0101 H   0  0  0  0  0  0
  -28.1388  -28.9456   21.1741 H   0  0  0  0  0  0
  -26.0049  -25.8718   19.0348 H   0  0  0  0  0  0
  -23.9886  -27.2682   19.0264 H   0  0  0  0  0  0
  -23.7602  -30.5558   19.3970 H   0  0  0  0  0  0
  -22.7702  -29.2098   19.8691 H   0  0  0  0  0  0
  -25.1296  -36.1900   25.0830 H   0  0  0  0  0  0
  -20.9966  -28.3285   24.1417 H   0  0  0  0  0  0
  -20.5683  -26.2314   23.3656 H   0  0  0  0  0  0
  -21.6644  -26.7454   22.1220 H   0  0  0  0  0  0
  -19.6925  -25.6288   21.1284 H   0  0  0  0  0  0
  -19.6730  -27.3189   20.6768 H   0  0  0  0  0  0
  -17.4230  -26.6741   21.3983 H   0  0  0  0  0  0
  -18.0286  -26.0074   22.8981 H   0  0  0  0  0  0
  -19.7940  -30.7302   24.2248 H   0  0  0  0  0  0
  -17.5007  -31.6281   24.5167 H   0  0  0  0  0  0
  -15.5346  -30.2980   23.7689 H   0  0  0  0  0  0
  -15.8667  -28.0813   22.7098 H   0  0  0  0  0  0
  -24.5936  -30.7037   25.7728 H   0  0  0  0  0  0
  -24.8885  -32.2883   26.4800 H   0  0  0  0  0  0
  -25.8033  -30.8926   27.0216 H   0  0  0  0  0  0
  -26.2972  -29.6701   24.1260 H   0  0  0  0  0  0
  -27.4070  -29.7286   25.4754 H   0  0  0  0  0  0
  -27.8841  -30.4257   23.9464 H   0  0  0  0  0  0
  -27.2701  -33.3625   26.2027 H   0  0  0  0  0  0
  -28.3875  -32.6861   25.0267 H   0  0  0  0  0  0
  -28.0766  -31.8452   26.5371 H   0  0  0  0  0  0
  -28.2578  -38.0087   24.7542 H   0  0  0  0  0  0
  -28.1101  -36.2626   24.6236 H   0  0  0  0  0  0
  -27.2321  -37.1344   25.8867 H   0  0  0  0  0  0
  -20.9444  -29.8661   21.6784 H   0  0  0  0  0  0
  -26.0163  -38.2827   24.1461 H   0  0  0  0  0  0
  -29.4973  -22.4839   17.6105 H   0  0  0  0  0  0
  -29.9238  -22.1356   15.3346 H   0  0  0  0  0  0
  -30.2690  -20.5166   14.7440 H   0  0  0  0  0  0
  -31.5758  -21.5256   15.3749 H   0  0  0  0  0  0
  -31.8624  -18.9701   15.4485 H   0  0  0  0  0  0
  -30.6587  -17.7345   15.8399 H   0  0  0  0  0  0
  -32.1557  -17.8622   16.7749 H   0  0  0  0  0  0
  -28.7196  -17.5653   22.9347 H   0  0  0  0  0  0
  -30.2099  -16.6379   22.8593 H   0  0  0  0  0  0
  -28.6490  -15.8802   22.5312 H   0  0  0  0  0  0
  -30.4170  -16.2633   18.0783 H   0  0  0  0  0  0
  -28.8380  -16.9404   18.4701 H   0  0  0  0  0  0
  -28.9974  -15.2514   18.2039 H   0  0  0  0  0  0
  -29.6855  -22.1521   21.1205 H   0  0  0  0  0  0
  -28.0537  -21.8563   20.6059 H   0  0  0  0  0  0
  -29.5516  -19.2865   21.5535 H   0  0  0  0  0  0
  -31.0469  -18.6194   21.0465 H   0  0  0  0  0  0
  -28.3642  -23.7300   18.7846 H   0  0  0  0  0  0
  -29.9383  -24.0479   19.4648 H   0  0  0  0  0  0
  -28.6833  -24.9194   21.5487 H   0  0  0  0  0  0
  -27.1938  -24.6923   20.7110 H   0  0  0  0  0  0
  -28.3195  -17.2892   20.5875 H   0  0  0  0  0  0
  1 25  1  0  0  0
  1 30  2  0  0  0
  1 86  1  0  0  0
  2  3  1  0  0  0
  2 25  1  0  0  0
  2 87  1  0  0  0
  2 88  1  0  0  0
  3  4  1  0  0  0
  3 89  1  0  0  0
  3 90  1  0  0  0
  4  5  1  0  0  0
  4 91  1  0  0  0
  4 92  1  0  0  0
  5  6  1  0  0  0
  5 26  1  0  0  0
  5 93  1  0  0  0
  6 25  1  0  0  0
  6 94  1  0  0  0
  6 95  1  0  0  0
  7  8  2  0  0  0
  7 26  1  0  0  0
  7 29  1  0  0  0
  8  9  1  0  0  0
  8 22  1  0  0  0
  9 10  1  0  0  0
  9 27  2  0  0  0
 10 11  2  0  0  0
 10 15  1  0  0  0
 11 12  1  0  0  0
 11 96  1  0  0  0
 12 13  2  0  0  0
 12 97  1  0  0  0
 13 14  1  0  0  0
 13 31  1  0  0  0
 14 15  2  0  0  0
 14 98  1  0  0  0
 15 99  1  0  0  0
 16 17  2  0  0  0
 16 21  1  0  0  0
 16 31  1  0  0  0
 17 18  1  0  0  0
 17100  1  0  0  0
 18 19  2  0  0  0
 18101  1  0  0  0
 19 20  1  0  0  0
 19 24  1  0  0  0
 20 21  2  0  0  0
 20102  1  0  0  0
 21 23  1  0  0  0
 22 28  1  0  0  0
 22 32  2  0  0  0
 26 27  1  0  0  0
 28103  1  0  0  0
 28104  1  0  0  0
 29105  1  0  0  0
 29106  1  0  0  0
 33 34  1  0  0  0
 33 66  1  0  0  0
 33 70  2  0  0  0
 34 36  1  0  0  0
 34 59  1  0  0  0
 34107  1  0  0  0
 35 44  2  0  0  0
 35 45  1  0  0  0
 35 68  1  0  0  0
 36 56  1  0  0  0
 36108  1  0  0  0
 37 39  1  0  0  0
 37 47  1  0  0  0
 37 66  1  0  0  0
 37109  1  0  0  0
 38 43  2  0  0  0
 38 46  1  0  0  0
 38 47  1  0  0  0
 39 64  1  0  0  0
 39 67  2  0  0  0
 40 52  1  0  0  0
 40 53  2  0  0  0
 40 58  1  0  0  0
 41110  1  0  0  0
 41111  1  0  0  0
 41112  1  0  0  0
 41 48  1  0  0  0
 42 43  1  0  0  0
 42 66  1  0  0  0
 42113  1  0  0  0
 42114  1  0  0  0
 43 44  1  0  0  0
 44115  1  0  0  0
 45 46  2  0  0  0
 45116  1  0  0  0
 46117  1  0  0  0
 47118  1  0  0  0
 47119  1  0  0  0
 48 56  1  0  0  0
 48 65  1  0  0  0
 48120  1  0  0  0
 49 50  1  0  0  0
 49 53  1  0  0  0
 49 64  1  0  0  0
 49121  1  0  0  0
 50 51  1  0  0  0
 50122  1  0  0  0
 50123  1  0  0  0
 51 52  1  0  0  0
 51124  1  0  0  0
 51125  1  0  0  0
 52126  1  0  0  0
 52127  1  0  0  0
 53 54  1  0  0  0
 54 55  2  0  0  0
 54128  1  0  0  0
 55 57  1  0  0  0
 55129  1  0  0  0
 56 69  2  0  0  0
 57 58  2  0  0  0
 57130  1  0  0  0
 58131  1  0  0  0
 59 60  1  0  0  0
 59 61  1  0  0  0
 59 62  1  0  0  0
 60132  1  0  0  0
 60133  1  0  0  0
 60134  1  0  0  0
 61135  1  0  0  0
 61136  1  0  0  0
 61137  1  0  0  0
 62138  1  0  0  0
 62139  1  0  0  0
 62140  1  0  0  0
 63 65  1  0  0  0
 63141  1  0  0  0
 63142  1  0  0  0
 63143  1  0  0  0
 64144  1  0  0  0
 65145  1  0  0  0
 68 83  1  0  0  0
 71 72  2  0  0  0
 71 73  1  0  0  0
 71146  1  0  0  0
 72 74  1  0  0  0
 72 76  1  0  0  0
 73 75  2  0  0  0
 73 80  1  0  0  0
 74 77  1  0  0  0
 74 85  2  0  0  0
 75 81  1  0  0  0
 75 85  1  0  0  0
 76147  1  0  0  0
 76148  1  0  0  0
 76149  1  0  0  0
 77150  1  0  0  0
 77151  1  0  0  0
 77152  1  0  0  0
 78153  1  0  0  0
 78154  1  0  0  0
 78155  1  0  0  0
 78 84  1  0  0  0
 79 86  1  0  0  0
 79156  1  0  0  0
 79157  1  0  0  0
 79158  1  0  0  0
 80 82  1  0  0  0
 80159  1  0  0  0
 80160  1  0  0  0
 81 84  1  0  0  0
 81161  1  0  0  0
 81162  1  0  0  0
 82 83  1  0  0  0
 82163  1  0  0  0
 82164  1  0  0  0
 83165  1  0  0  0
 83166  1  0  0  0
 84 86  1  0  0  0
 84167  1  0  0  0
M  ISO  4   1 100  68 101  83 101  86 100
M  END
> <chiral flag>
0

> <version>
0

> <s_m_source_file>
/data/baiqing/PycharmProjects/Reinvent-master-3.2/result/LINK_invent/BTK/process_docking_weight1_custom_sum_contain_oxygen_bond_distance_aromatic_linkinvent_7_9_3/rearranged_h_0084.sdf

> <i_m_source_file_index>
23

> <r_mmod_Potential_Energy-OPLS-2005>
391.976654052734

> <r_mmod_Stretch_Energy-OPLS-2005>
167.824569702148

> <r_mmod_Bend_Energy-OPLS-2005>
257.594329833984

> <r_mmod_Torsional_Energy-OPLS-2005>
326.736358642578

> <r_mmod_Improper_Torsional_Energy-OPLS-2005>
17.1089344024658

> <r_mmod_Van_der_Waal_Energy-OPLS-2005>
143.33659362793

> <r_mmod_Electrostatic_Energy-OPLS-2005>
-408.837860107422

> <r_mmod_Solvation_Energy-OPLS-2005>
-207.326889038086

> <b_mmod_Minimization_Converged-OPLS-2005>
0

> <r_mmod_RMS_Derivative-OPLS-2005>
4.05626583099365

$$$$
23
                    3D
 Structure written by MMmdl.
167175  0  0  1  0            999 V2000
  -30.6741  -14.4897   20.5185 C   0  0  0  0  0  0
  -30.4366  -12.2899   19.4354 C   0  0  0  0  0  0
  -29.5059  -12.4553   18.2152 C   0  0  0  0  0  0
  -28.0210  -12.3567   18.6234 C   0  0  0  0  0  0
  -27.6675  -13.1922   19.8838 C   0  0  2  0  0  0
  -28.7149  -12.9811   21.0022 C   0  0  0  0  0  0
  -25.2647  -13.8135   20.5690 C   0  0  0  0  0  0
  -24.1872  -13.0420   20.9150 C   0  0  0  0  0  0
  -24.6419  -11.6892   20.8748 C   0  0  0  0  0  0
  -23.9088  -10.4285   21.0416 C   0  0  0  0  0  0
  -24.3630   -9.4206   21.9188 C   0  0  0  0  0  0
  -23.6287   -8.2260   22.0776 C   0  0  0  0  0  0
  -22.4283   -8.0299   21.3547 C   0  0  0  0  0  0
  -21.9918   -9.0283   20.4654 C   0  0  0  0  0  0
  -22.7261  -10.2152   20.3067 C   0  0  0  0  0  0
  -21.6861   -6.0746   22.5276 C   0  0  0  0  0  0
  -21.4017   -6.5661   23.8208 C   0  0  0  0  0  0
  -21.3639   -5.6819   24.9171 C   0  0  0  0  0  0
  -21.6031   -4.3082   24.7229 C   0  0  0  0  0  0
  -21.8822   -3.8155   23.4355 C   0  0  0  0  0  0
  -21.9195   -4.6962   22.3406 C   0  0  0  0  0  0
  -22.7891  -13.5220   21.1794 C   0  0  0  0  0  0
  -22.1670   -4.2148   21.0984 F   0  0  0  0  0  0
  -21.5611   -3.4576   25.7734 F   0  0  0  0  0  0
  -30.0423  -13.2869   20.4390 N   0  0  0  0  0  0
  -26.3074  -12.9267   20.3444 N   0  0  0  0  0  0
  -25.9346  -11.6448   20.5822 N   0  0  0  0  0  0
  -22.0567  -12.8190   22.0370 N   0  0  0  0  0  0
  -25.4397  -15.1851   20.4096 N   0  0  0  0  0  0
  -31.8204  -14.6850   20.1065 O   0  0  0  0  0  0
  -21.6642   -6.8889   21.4233 O   0  0  0  0  0  0
  -22.3563  -14.5511   20.6633 O   0  0  0  0  0  0
  -24.6135  -31.8685   23.2105 C   0  0  0  0  0  0
  -25.9021  -32.4837   23.8411 C   0  0  1  0  0  0
  -27.2508  -27.4619   20.0915 C   0  0  0  0  0  0
  -25.5887  -33.8633   24.2348 N   0  0  0  0  0  0
  -23.4039  -30.4869   21.5515 C   0  0  2  0  0  0
  -24.8537  -28.9491   20.1231 C   0  0  0  0  0  0
  -22.7423  -29.4645   22.5018 C   0  0  0  0  0  0
  -18.0269  -28.1382   22.8500 C   0  0  0  0  0  0
  -24.1486  -36.7330   23.2638 C   0  0  0  0  0  0
  -25.9288  -30.8411   21.3591 C   0  0  0  0  0  0
  -26.0107  -29.4735   20.7138 C   0  0  0  0  0  0
  -27.2148  -28.7363   20.6944 C   0  0  0  0  0  0
  -26.0797  -26.9392   19.5042 C   0  0  0  0  0  0
  -24.8805  -27.6793   19.5169 C   0  0  0  0  0  0
  -23.6129  -29.8120   20.1687 C   0  0  0  0  0  0
  -25.4108  -36.3127   24.0343 C   0  0  1  0  0  0
  -20.5862  -28.3656   23.1343 C   0  0  2  0  0  0
  -20.6756  -26.9395   22.5423 C   0  0  0  0  0  0
  -19.5730  -26.6387   21.5223 C   0  0  0  0  0  0
  -18.1912  -26.7929   22.1630 C   0  0  0  0  0  0
  -19.1517  -28.8839   23.2919 C   0  0  0  0  0  0
  -18.9438  -30.1451   23.8923 C   0  0  0  0  0  0
  -17.6436  -30.6584   24.0574 C   0  0  0  0  0  0
  -25.9030  -34.9488   23.5146 C   0  0  0  0  0  0
  -16.5334  -29.9084   23.6321 C   0  0  0  0  0  0
  -16.7261  -28.6505   23.0346 C   0  0  0  0  0  0
  -26.4454  -31.6610   25.0732 C   0  0  0  0  0  0
  -25.3732  -31.3665   26.1483 C   0  0  0  0  0  0
  -27.0283  -30.3072   24.6064 C   0  0  0  0  0  0
  -27.6040  -32.4321   25.7490 C   0  0  0  0  0  0
  -27.5592  -37.1814   24.8462 C   0  0  0  0  0  0
  -21.4150  -29.3023   22.3762 N   0  0  0  0  0  0
  -26.4300  -37.3807   23.9416 N   0  0  0  0  0  0
  -24.6671  -31.0794   22.0996 N   0  0  0  0  0  0
  -23.4189  -28.8190   23.3066 O   0  0  0  0  0  0
  -28.4274  -26.7586   20.0233 O   0  0  0  0  0  0
  -26.5593  -34.8926   22.4703 O   0  0  0  0  0  0
  -23.5327  -32.1422   23.7502 O   0  0  0  0  0  0
  -31.7172  -22.2106   20.1746 C   0  0  0  0  0  0
  -29.5979  -21.0685   20.3338 C   0  0  0  0  0  0
  -30.3768  -22.2100   20.6031 C   0  0  0  0  0  0
  -32.2108  -21.0846   19.4865 C   0  0  0  0  0  0
  -30.1647  -19.9914   19.6219 C   0  0  0  0  0  0
  -33.6382  -21.0474   18.9827 C   0  0  0  0  0  0
  -28.8541  -19.3565   17.6179 C   0  0  0  0  0  0
  -28.8207  -16.4837   18.3699 C   0  0  0  0  0  0
  -29.7615  -23.4238   21.2859 C   0  0  0  0  0  0
  -29.4582  -24.5784   20.3079 C   0  0  0  0  0  0
  -30.0460  -16.9562   20.6088 C   0  0  0  0  0  0
  -28.5199  -25.6425   20.9057 C   0  0  0  0  0  0
  -29.2494  -18.9109   19.0449 C   0  0  1  0  0  0
  -29.7670  -17.4311   19.1425 C   0  0  2  0  0  0
  -31.4498  -20.0058   19.1990 N   0  0  0  0  0  0
  -29.8643  -15.5107   20.8537 N   0  0  0  0  0  0
  -31.4788  -12.3951   19.1298 H   0  0  0  0  0  0
  -30.3458  -11.2839   19.8492 H   0  0  0  0  0  0
  -29.7323  -11.6879   17.4730 H   0  0  0  0  0  0
  -29.7028  -13.4075   17.7237 H   0  0  0  0  0  0
  -27.8011  -11.3046   18.8067 H   0  0  0  0  0  0
  -27.3863  -12.6554   17.7879 H   0  0  0  0  0  0
  -27.7010  -14.2369   19.5885 H   0  0  0  0  0  0
  -28.6976  -11.9498   21.3572 H   0  0  0  0  0  0
  -28.4886  -13.5910   21.8776 H   0  0  0  0  0  0
  -25.2784   -9.5686   22.4743 H   0  0  0  0  0  0
  -23.9982   -7.4683   22.7539 H   0  0  0  0  0  0
  -21.0849   -8.8845   19.8952 H   0  0  0  0  0  0
  -22.3737  -10.9724   19.6202 H   0  0  0  0  0  0
  -21.2025   -7.6176   23.9685 H   0  0  0  0  0  0
  -21.1450   -6.0569   25.9062 H   0  0  0  0  0  0
  -22.0597   -2.7619   23.2874 H   0  0  0  0  0  0
  -22.4208  -11.9818   22.4662 H   0  0  0  0  0  0
  -21.1221  -13.1230   22.2679 H   0  0  0  0  0  0
  -24.6750  -15.8428   20.5087 H   0  0  0  0  0  0
  -26.2906  -15.6165   20.0739 H   0  0  0  0  0  0
  -26.7113  -32.5566   23.1198 H   0  0  0  0  0  0
  -25.0040  -33.9801   25.0496 H   0  0  0  0  0  0
  -22.6911  -31.3016   21.4080 H   0  0  0  0  0  0
  -23.3756  -35.9650   23.3279 H   0  0  0  0  0  0
  -24.3585  -36.8971   22.2057 H   0  0  0  0  0  0
  -23.7221  -37.6518   23.6672 H   0  0  0  0  0  0
  -26.0307  -31.6015   20.5834 H   0  0  0  0  0  0
  -26.8219  -30.9051   21.9700 H   0  0  0  0  0  0
  -28.1153  -29.1432   21.1319 H   0  0  0  0  0  0
  -26.1035  -25.9697   19.0255 H   0  0  0  0  0  0
  -23.9921  -27.2703   19.0546 H   0  0  0  0  0  0
  -23.7193  -30.5818   19.4034 H   0  0  0  0  0  0
  -22.7397  -29.2247   19.8783 H   0  0  0  0  0  0
  -25.1271  -36.2001   25.0836 H   0  0  0  0  0  0
  -20.9945  -28.3206   24.1471 H   0  0  0  0  0  0
  -20.5673  -26.2255   23.3596 H   0  0  0  0  0  0
  -21.6627  -26.7429   22.1226 H   0  0  0  0  0  0
  -19.6882  -25.6305   21.1241 H   0  0  0  0  0  0
  -19.6669  -27.3208   20.6766 H   0  0  0  0  0  0
  -17.4181  -26.6700   21.4032 H   0  0  0  0  0  0
  -18.0280  -26.0069   22.9017 H   0  0  0  0  0  0
  -19.7905  -30.7270   24.2307 H   0  0  0  0  0  0
  -17.4977  -31.6262   24.5173 H   0  0  0  0  0  0
  -15.5332  -30.2989   23.7617 H   0  0  0  0  0  0
  -15.8667  -28.0830   22.7035 H   0  0  0  0  0  0
  -24.5918  -30.7005   25.7803 H   0  0  0  0  0  0
  -24.8896  -32.2789   26.4983 H   0  0  0  0  0  0
  -25.8100  -30.8798   27.0214 H   0  0  0  0  0  0
  -26.2805  -29.6845   24.1138 H   0  0  0  0  0  0
  -27.4101  -29.7288   25.4488 H   0  0  0  0  0  0
  -27.8615  -30.4421   23.9166 H   0  0  0  0  0  0
  -27.2680  -33.3618   26.2093 H   0  0  0  0  0  0
  -28.3827  -32.6891   25.0300 H   0  0  0  0  0  0
  -28.0734  -31.8434   26.5380 H   0  0  0  0  0  0
  -28.2588  -38.0136   24.7559 H   0  0  0  0  0  0
  -28.1117  -36.2672   24.6235 H   0  0  0  0  0  0
  -27.2317  -37.1402   25.8864 H   0  0  0  0  0  0
  -20.9318  -29.8755   21.6988 H   0  0  0  0  0  0
  -26.0195  -38.2882   24.1436 H   0  0  0  0  0  0
  -32.3521  -23.0706   20.3479 H   0  0  0  0  0  0
  -28.5494  -21.0517   20.5981 H   0  0  0  0  0  0
  -34.2645  -21.7545   19.5261 H   0  0  0  0  0  0
  -33.6745  -21.3090   17.9248 H   0  0  0  0  0  0
  -34.0719  -20.0537   19.1030 H   0  0  0  0  0  0
  -28.5314  -20.3981   17.6173 H   0  0  0  0  0  0
  -28.0188  -18.7885   17.2141 H   0  0  0  0  0  0
  -29.6938  -19.2787   16.9265 H   0  0  0  0  0  0
  -29.1705  -15.4581   18.3774 H   0  0  0  0  0  0
  -28.7683  -16.7348   17.3115 H   0  0  0  0  0  0
  -27.8079  -16.5144   18.7751 H   0  0  0  0  0  0
  -30.4293  -23.7728   22.0747 H   0  0  0  0  0  0
  -28.8415  -23.1155   21.7857 H   0  0  0  0  0  0
  -28.9925  -24.1767   19.4075 H   0  0  0  0  0  0
  -30.3947  -25.0375   19.9894 H   0  0  0  0  0  0
  -29.3606  -17.4699   21.2820 H   0  0  0  0  0  0
  -31.0456  -17.2639   20.9186 H   0  0  0  0  0  0
  -28.9095  -25.9965   21.8614 H   0  0  0  0  0  0
  -27.5418  -25.1984   21.1051 H   0  0  0  0  0  0
  -28.3299  -18.9473   19.6325 H   0  0  0  0  0  0
  -30.7243  -17.3854   18.6192 H   0  0  0  0  0  0
  -28.9502  -15.2327   21.1787 H   0  0  0  0  0  0
  1 25  1  0  0  0
  1 30  2  0  0  0
  1 86  1  0  0  0
  2  3  1  0  0  0
  2 25  1  0  0  0
  2 87  1  0  0  0
  2 88  1  0  0  0
  3  4  1  0  0  0
  3 89  1  0  0  0
  3 90  1  0  0  0
  4  5  1  0  0  0
  4 91  1  0  0  0
  4 92  1  0  0  0
  5  6  1  0  0  0
  5 26  1  0  0  0
  5 93  1  0  0  0
  6 25  1  0  0  0
  6 94  1  0  0  0
  6 95  1  0  0  0
  7  8  2  0  0  0
  7 26  1  0  0  0
  7 29  1  0  0  0
  8  9  1  0  0  0
  8 22  1  0  0  0
  9 10  1  0  0  0
  9 27  2  0  0  0
 10 11  2  0  0  0
 10 15  1  0  0  0
 11 12  1  0  0  0
 11 96  1  0  0  0
 12 13  2  0  0  0
 12 97  1  0  0  0
 13 14  1  0  0  0
 13 31  1  0  0  0
 14 15  2  0  0  0
 14 98  1  0  0  0
 15 99  1  0  0  0
 16 17  2  0  0  0
 16 21  1  0  0  0
 16 31  1  0  0  0
 17 18  1  0  0  0
 17100  1  0  0  0
 18 19  2  0  0  0
 18101  1  0  0  0
 19 20  1  0  0  0
 19 24  1  0  0  0
 20 21  2  0  0  0
 20102  1  0  0  0
 21 23  1  0  0  0
 22 28  1  0  0  0
 22 32  2  0  0  0
 26 27  1  0  0  0
 28103  1  0  0  0
 28104  1  0  0  0
 29105  1  0  0  0
 29106  1  0  0  0
 33 34  1  0  0  0
 33 66  1  0  0  0
 33 70  2  0  0  0
 34 36  1  0  0  0
 34 59  1  0  0  0
 34107  1  0  0  0
 35 44  2  0  0  0
 35 45  1  0  0  0
 35 68  1  0  0  0
 36 56  1  0  0  0
 36108  1  0  0  0
 37 39  1  0  0  0
 37 47  1  0  0  0
 37 66  1  0  0  0
 37109  1  0  0  0
 38 43  2  0  0  0
 38 46  1  0  0  0
 38 47  1  0  0  0
 39 64  1  0  0  0
 39 67  2  0  0  0
 40 52  1  0  0  0
 40 53  2  0  0  0
 40 58  1  0  0  0
 41110  1  0  0  0
 41111  1  0  0  0
 41112  1  0  0  0
 41 48  1  0  0  0
 42 43  1  0  0  0
 42 66  1  0  0  0
 42113  1  0  0  0
 42114  1  0  0  0
 43 44  1  0  0  0
 44115  1  0  0  0
 45 46  2  0  0  0
 45116  1  0  0  0
 46117  1  0  0  0
 47118  1  0  0  0
 47119  1  0  0  0
 48 56  1  0  0  0
 48 65  1  0  0  0
 48120  1  0  0  0
 49 50  1  0  0  0
 49 53  1  0  0  0
 49 64  1  0  0  0
 49121  1  0  0  0
 50 51  1  0  0  0
 50122  1  0  0  0
 50123  1  0  0  0
 51 52  1  0  0  0
 51124  1  0  0  0
 51125  1  0  0  0
 52126  1  0  0  0
 52127  1  0  0  0
 53 54  1  0  0  0
 54 55  2  0  0  0
 54128  1  0  0  0
 55 57  1  0  0  0
 55129  1  0  0  0
 56 69  2  0  0  0
 57 58  2  0  0  0
 57130  1  0  0  0
 58131  1  0  0  0
 59 60  1  0  0  0
 59 61  1  0  0  0
 59 62  1  0  0  0
 60132  1  0  0  0
 60133  1  0  0  0
 60134  1  0  0  0
 61135  1  0  0  0
 61136  1  0  0  0
 61137  1  0  0  0
 62138  1  0  0  0
 62139  1  0  0  0
 62140  1  0  0  0
 63 65  1  0  0  0
 63141  1  0  0  0
 63142  1  0  0  0
 63143  1  0  0  0
 64144  1  0  0  0
 65145  1  0  0  0
 68 82  1  0  0  0
 71 73  2  0  0  0
 71 74  1  0  0  0
 71146  1  0  0  0
 72 73  1  0  0  0
 72 75  2  0  0  0
 72147  1  0  0  0
 73 79  1  0  0  0
 74 76  1  0  0  0
 74 85  2  0  0  0
 75 83  1  0  0  0
 75 85  1  0  0  0
 76148  1  0  0  0
 76149  1  0  0  0
 76150  1  0  0  0
 77151  1  0  0  0
 77152  1  0  0  0
 77153  1  0  0  0
 77 83  1  0  0  0
 78154  1  0  0  0
 78155  1  0  0  0
 78156  1  0  0  0
 78 84  1  0  0  0
 79 80  1  0  0  0
 79157  1  0  0  0
 79158  1  0  0  0
 80 82  1  0  0  0
 80159  1  0  0  0
 80160  1  0  0  0
 81 84  1  0  0  0
 81 86  1  0  0  0
 81161  1  0  0  0
 81162  1  0  0  0
 82163  1  0  0  0
 82164  1  0  0  0
 83 84  1  0  0  0
 83165  1  0  0  0
 84166  1  0  0  0
 86167  1  0  0  0
M  ISO  4   1 100  68 101  82 101  86 100
M  END
> <chiral flag>
0

> <version>
0

> <s_m_source_file>
/data/baiqing/PycharmProjects/Reinvent-master-3.2/result/LINK_invent/BTK/process_docking_weight1_custom_sum_contain_oxygen_bond_distance_aromatic_linkinvent_7_9_3/rearranged_h_0084.sdf

> <i_m_source_file_index>
24

> <r_mmod_Potential_Energy-OPLS-2005>
-240.787399291992

> <r_mmod_Stretch_Energy-OPLS-2005>
37.2653160095215

> <r_mmod_Bend_Energy-OPLS-2005>
98.4203033447266

> <r_mmod_Torsional_Energy-OPLS-2005>
237.589126586914

> <r_mmod_Improper_Torsional_Energy-OPLS-2005>
7.93271923065186

> <r_mmod_Van_der_Waal_Energy-OPLS-2005>
150.4677734375

> <r_mmod_Electrostatic_Energy-OPLS-2005>
-567.664001464844

> <r_mmod_Solvation_Energy-OPLS-2005>
-218.1884765625

> <b_mmod_Minimization_Converged-OPLS-2005>
0

> <r_mmod_RMS_Derivative-OPLS-2005>
2.4476056098938

$$$$
24
                    3D
 Structure written by MMmdl.
169177  0  0  1  0            999 V2000
  -30.6751  -14.5206   20.5367 C   0  0  0  0  0  0
  -30.4340  -12.3291   19.4273 C   0  0  0  0  0  0
  -29.4953  -12.4872   18.2113 C   0  0  0  0  0  0
  -28.0220  -12.3246   18.6330 C   0  0  0  0  0  0
  -27.6599  -13.1849   19.8708 C   0  0  2  0  0  0
  -28.7070  -13.0101   20.9950 C   0  0  0  0  0  0
  -25.2600  -13.8092   20.5715 C   0  0  0  0  0  0
  -24.1840  -13.0398   20.9216 C   0  0  0  0  0  0
  -24.6375  -11.6866   20.8759 C   0  0  0  0  0  0
  -23.9038  -10.4271   21.0429 C   0  0  0  0  0  0
  -24.3599   -9.4188   21.9204 C   0  0  0  0  0  0
  -23.6284   -8.2223   22.0760 C   0  0  0  0  0  0
  -22.4262   -8.0270   21.3553 C   0  0  0  0  0  0
  -21.9901   -9.0238   20.4654 C   0  0  0  0  0  0
  -22.7218  -10.2122   20.3071 C   0  0  0  0  0  0
  -21.6844   -6.0732   22.5282 C   0  0  0  0  0  0
  -21.3996   -6.5639   23.8209 C   0  0  0  0  0  0
  -21.3656   -5.6797   24.9180 C   0  0  0  0  0  0
  -21.6047   -4.3056   24.7234 C   0  0  0  0  0  0
  -21.8818   -3.8147   23.4349 C   0  0  0  0  0  0
  -21.9187   -4.6964   22.3404 C   0  0  0  0  0  0
  -22.7865  -13.5228   21.1859 C   0  0  0  0  0  0
  -22.1662   -4.2151   21.0983 F   0  0  0  0  0  0
  -21.5636   -3.4535   25.7744 F   0  0  0  0  0  0
  -30.0317  -13.3235   20.4347 N   0  0  0  0  0  0
  -26.3013  -12.9230   20.3360 N   0  0  0  0  0  0
  -25.9296  -11.6408   20.5798 N   0  0  0  0  0  0
  -22.0479  -12.8238   22.0406 N   0  0  0  0  0  0
  -25.4268  -15.1807   20.4135 N   0  0  0  0  0  0
  -31.8169  -14.7024   20.1069 O   0  0  0  0  0  0
  -21.6624   -6.8866   21.4242 O   0  0  0  0  0  0
  -22.3573  -14.5540   20.6703 O   0  0  0  0  0  0
  -24.6147  -31.8694   23.2071 C   0  0  0  0  0  0
  -25.9023  -32.4822   23.8381 C   0  0  1  0  0  0
  -27.2342  -27.4394   20.1018 C   0  0  0  0  0  0
  -25.5870  -33.8630   24.2312 N   0  0  0  0  0  0
  -23.4023  -30.4913   21.5484 C   0  0  2  0  0  0
  -24.8476  -28.9510   20.1197 C   0  0  0  0  0  0
  -22.7407  -29.4679   22.4984 C   0  0  0  0  0  0
  -18.0287  -28.1396   22.8530 C   0  0  0  0  0  0
  -24.1467  -36.7307   23.2634 C   0  0  0  0  0  0
  -25.9295  -30.8340   21.3588 C   0  0  0  0  0  0
  -26.0087  -29.4648   20.7156 C   0  0  0  0  0  0
  -27.2071  -28.7166   20.7059 C   0  0  0  0  0  0
  -26.0643  -26.9361   19.5002 C   0  0  0  0  0  0
  -24.8705  -27.6849   19.5086 C   0  0  0  0  0  0
  -23.6102  -29.8187   20.1657 C   0  0  0  0  0  0
  -25.4088  -36.3121   24.0343 C   0  0  1  0  0  0
  -20.5876  -28.3661   23.1336 C   0  0  2  0  0  0
  -20.6778  -26.9405   22.5424 C   0  0  0  0  0  0
  -19.5748  -26.6412   21.5230 C   0  0  0  0  0  0
  -18.1920  -26.7957   22.1643 C   0  0  0  0  0  0
  -19.1537  -28.8852   23.2929 C   0  0  0  0  0  0
  -18.9473  -30.1475   23.8924 C   0  0  0  0  0  0
  -17.6472  -30.6605   24.0596 C   0  0  0  0  0  0
  -25.9033  -34.9484   23.5138 C   0  0  0  0  0  0
  -16.5364  -29.9125   23.6331 C   0  0  0  0  0  0
  -16.7274  -28.6538   23.0364 C   0  0  0  0  0  0
  -26.4452  -31.6607   25.0705 C   0  0  0  0  0  0
  -25.3701  -31.3751   26.1446 C   0  0  0  0  0  0
  -27.0257  -30.3048   24.6062 C   0  0  0  0  0  0
  -27.6023  -32.4337   25.7466 C   0  0  0  0  0  0
  -27.5582  -37.1805   24.8467 C   0  0  0  0  0  0
  -21.4127  -29.3029   22.3723 N   0  0  0  0  0  0
  -26.4280  -37.3809   23.9426 N   0  0  0  0  0  0
  -24.6670  -31.0799   22.0967 N   0  0  0  0  0  0
  -23.4172  -28.8247   23.3050 O   0  0  0  0  0  0
  -28.3851  -26.6867   20.0460 O   0  0  0  0  0  0
  -26.5617  -34.8959   22.4712 O   0  0  0  0  0  0
  -23.5334  -32.1439   23.7486 O   0  0  0  0  0  0
  -28.2719  -21.3279   22.4920 C   0  0  0  0  0  0
  -28.3632  -19.9191   22.5256 C   0  0  0  0  0  0
  -29.3533  -22.0565   21.9617 C   0  0  0  0  0  0
  -29.5379  -19.3170   21.9955 C   0  0  0  0  0  0
  -27.2434  -19.1267   23.1803 C   0  0  0  0  0  0
  -27.2501  -18.0359   18.2718 C   0  0  0  0  0  0
  -30.8567  -17.5241   23.2040 C   0  0  0  0  0  0
  -29.3888  -23.5849   22.0731 C   0  0  0  0  0  0
  -27.9247  -17.3622   19.4739 C   0  0  0  0  0  0
  -28.7991  -24.3842   20.8851 C   0  0  0  0  0  0
  -29.4502  -17.5504   19.5136 C   0  0  0  0  0  0
  -28.6594  -25.8965   21.2088 C   0  0  0  0  0  0
  -29.8104  -17.7921   22.1090 C   0  0  2  0  0  0
  -30.1499  -17.0089   20.7916 C   0  0  1  0  0  0
  -30.4418  -21.4284   21.4468 N   0  0  0  0  0  0
  -30.5354  -20.0883   21.4779 N   0  0  0  0  0  0
  -29.9046  -15.5506   20.9506 N   0  0  0  0  0  0
  -31.4741  -12.4454   19.1158 H   0  0  0  0  0  0
  -30.3595  -11.3227   19.8437 H   0  0  0  0  0  0
  -29.7456  -11.7519   17.4452 H   0  0  0  0  0  0
  -29.6421  -13.4670   17.7530 H   0  0  0  0  0  0
  -27.8568  -11.2704   18.8580 H   0  0  0  0  0  0
  -27.3597  -12.5618   17.7997 H   0  0  0  0  0  0
  -27.6925  -14.2141   19.5334 H   0  0  0  0  0  0
  -28.7006  -11.9839   21.3659 H   0  0  0  0  0  0
  -28.4645  -13.6334   21.8573 H   0  0  0  0  0  0
  -25.2741   -9.5665   22.4780 H   0  0  0  0  0  0
  -23.9990   -7.4609   22.7476 H   0  0  0  0  0  0
  -21.0826   -8.8754   19.8959 H   0  0  0  0  0  0
  -22.3677  -10.9666   19.6182 H   0  0  0  0  0  0
  -21.1971   -7.6141   23.9714 H   0  0  0  0  0  0
  -21.1487   -6.0526   25.9085 H   0  0  0  0  0  0
  -22.0598   -2.7609   23.2847 H   0  0  0  0  0  0
  -22.4051  -11.9886   22.4801 H   0  0  0  0  0  0
  -21.1107  -13.1300   22.2605 H   0  0  0  0  0  0
  -24.6514  -15.8249   20.5181 H   0  0  0  0  0  0
  -26.2614  -15.6208   20.0543 H   0  0  0  0  0  0
  -26.7102  -32.5523   23.1153 H   0  0  0  0  0  0
  -24.9971  -33.9790   25.0430 H   0  0  0  0  0  0
  -22.6921  -31.3080   21.4093 H   0  0  0  0  0  0
  -23.3742  -35.9627   23.3305 H   0  0  0  0  0  0
  -24.3563  -36.8906   22.2047 H   0  0  0  0  0  0
  -23.7222  -37.6511   23.6647 H   0  0  0  0  0  0
  -26.0357  -31.5921   20.5809 H   0  0  0  0  0  0
  -26.8223  -30.8990   21.9684 H   0  0  0  0  0  0
  -28.1059  -29.1181   21.1535 H   0  0  0  0  0  0
  -26.0796  -25.9631   19.0262 H   0  0  0  0  0  0
  -23.9797  -27.2862   19.0407 H   0  0  0  0  0  0
  -23.7150  -30.5922   19.4037 H   0  0  0  0  0  0
  -22.7346  -29.2349   19.8748 H   0  0  0  0  0  0
  -25.1275  -36.1967   25.0835 H   0  0  0  0  0  0
  -20.9985  -28.3239   24.1456 H   0  0  0  0  0  0
  -20.5689  -26.2272   23.3614 H   0  0  0  0  0  0
  -21.6647  -26.7474   22.1201 H   0  0  0  0  0  0
  -19.6888  -25.6326   21.1257 H   0  0  0  0  0  0
  -19.6690  -27.3235   20.6770 H   0  0  0  0  0  0
  -17.4197  -26.6747   21.4024 H   0  0  0  0  0  0
  -18.0293  -26.0083   22.9028 H   0  0  0  0  0  0
  -19.7943  -30.7310   24.2255 H   0  0  0  0  0  0
  -17.5033  -31.6278   24.5227 H   0  0  0  0  0  0
  -15.5367  -30.3066   23.7623 H   0  0  0  0  0  0
  -15.8673  -28.0889   22.7048 H   0  0  0  0  0  0
  -24.5855  -30.7119   25.7796 H   0  0  0  0  0  0
  -24.8895  -32.2919   26.4869 H   0  0  0  0  0  0
  -25.8023  -30.8938   27.0218 H   0  0  0  0  0  0
  -26.2789  -29.6845   24.1078 H   0  0  0  0  0  0
  -27.4000  -29.7266   25.4509 H   0  0  0  0  0  0
  -27.8644  -30.4384   23.9222 H   0  0  0  0  0  0
  -27.2625  -33.3629   26.2060 H   0  0  0  0  0  0
  -28.3803  -32.6909   25.0266 H   0  0  0  0  0  0
  -28.0702  -31.8437   26.5353 H   0  0  0  0  0  0
  -28.2609  -38.0099   24.7532 H   0  0  0  0  0  0
  -28.1077  -36.2642   24.6258 H   0  0  0  0  0  0
  -27.2314  -37.1400   25.8874 H   0  0  0  0  0  0
  -20.9277  -29.8693   21.6904 H   0  0  0  0  0  0
  -26.0165  -38.2883   24.1452 H   0  0  0  0  0  0
  -27.4165  -21.8414   22.9079 H   0  0  0  0  0  0
  -26.4222  -19.7750   23.4894 H   0  0  0  0  0  0
  -27.6095  -18.6101   24.0687 H   0  0  0  0  0  0
  -26.8317  -18.3899   22.4935 H   0  0  0  0  0  0
  -26.1756  -17.8425   18.2761 H   0  0  0  0  0  0
  -27.6445  -17.6586   17.3287 H   0  0  0  0  0  0
  -27.3889  -19.1186   18.2887 H   0  0  0  0  0  0
  -30.5568  -17.9783   24.1487 H   0  0  0  0  0  0
  -31.8243  -17.9457   22.9319 H   0  0  0  0  0  0
  -30.9959  -16.4567   23.3773 H   0  0  0  0  0  0
  -30.4238  -23.8920   22.2368 H   0  0  0  0  0  0
  -28.8577  -23.8626   22.9832 H   0  0  0  0  0  0
  -27.7068  -16.3026   19.4346 H   0  0  0  0  0  0
  -27.4702  -17.7379   20.3884 H   0  0  0  0  0  0
  -27.8144  -23.9889   20.6287 H   0  0  0  0  0  0
  -29.4322  -24.2415   20.0097 H   0  0  0  0  0  0
  -29.6828  -18.6068   19.3856 H   0  0  0  0  0  0
  -29.8868  -17.0641   18.6390 H   0  0  0  0  0  0
  -29.5885  -26.2670   21.6419 H   0  0  0  0  0  0
  -27.8929  -26.0318   21.9756 H   0  0  0  0  0  0
  -28.8891  -17.3414   22.4672 H   0  0  0  0  0  0
  -31.2169  -17.1609   20.6175 H   0  0  0  0  0  0
  -28.9879  -15.2856   21.2748 H   0  0  0  0  0  0
  1 25  1  0  0  0
  1 30  2  0  0  0
  1 87  1  0  0  0
  2  3  1  0  0  0
  2 25  1  0  0  0
  2 88  1  0  0  0
  2 89  1  0  0  0
  3  4  1  0  0  0
  3 90  1  0  0  0
  3 91  1  0  0  0
  4  5  1  0  0  0
  4 92  1  0  0  0
  4 93  1  0  0  0
  5  6  1  0  0  0
  5 26  1  0  0  0
  5 94  1  0  0  0
  6 25  1  0  0  0
  6 95  1  0  0  0
  6 96  1  0  0  0
  7  8  2  0  0  0
  7 26  1  0  0  0
  7 29  1  0  0  0
  8  9  1  0  0  0
  8 22  1  0  0  0
  9 10  1  0  0  0
  9 27  2  0  0  0
 10 11  2  0  0  0
 10 15  1  0  0  0
 11 12  1  0  0  0
 11 97  1  0  0  0
 12 13  2  0  0  0
 12 98  1  0  0  0
 13 14  1  0  0  0
 13 31  1  0  0  0
 14 15  2  0  0  0
 14 99  1  0  0  0
 15100  1  0  0  0
 16 17  2  0  0  0
 16 21  1  0  0  0
 16 31  1  0  0  0
 17 18  1  0  0  0
 17101  1  0  0  0
 18 19  2  0  0  0
 18102  1  0  0  0
 19 20  1  0  0  0
 19 24  1  0  0  0
 20 21  2  0  0  0
 20103  1  0  0  0
 21 23  1  0  0  0
 22 28  1  0  0  0
 22 32  2  0  0  0
 26 27  1  0  0  0
 28104  1  0  0  0
 28105  1  0  0  0
 29106  1  0  0  0
 29107  1  0  0  0
 33 34  1  0  0  0
 33 66  1  0  0  0
 33 70  2  0  0  0
 34 36  1  0  0  0
 34 59  1  0  0  0
 34108  1  0  0  0
 35 44  2  0  0  0
 35 45  1  0  0  0
 35 68  1  0  0  0
 36 56  1  0  0  0
 36109  1  0  0  0
 37 39  1  0  0  0
 37 47  1  0  0  0
 37 66  1  0  0  0
 37110  1  0  0  0
 38 43  2  0  0  0
 38 46  1  0  0  0
 38 47  1  0  0  0
 39 64  1  0  0  0
 39 67  2  0  0  0
 40 52  1  0  0  0
 40 53  2  0  0  0
 40 58  1  0  0  0
 41111  1  0  0  0
 41112  1  0  0  0
 41113  1  0  0  0
 41 48  1  0  0  0
 42 43  1  0  0  0
 42 66  1  0  0  0
 42114  1  0  0  0
 42115  1  0  0  0
 43 44  1  0  0  0
 44116  1  0  0  0
 45 46  2  0  0  0
 45117  1  0  0  0
 46118  1  0  0  0
 47119  1  0  0  0
 47120  1  0  0  0
 48 56  1  0  0  0
 48 65  1  0  0  0
 48121  1  0  0  0
 49 50  1  0  0  0
 49 53  1  0  0  0
 49 64  1  0  0  0
 49122  1  0  0  0
 50 51  1  0  0  0
 50123  1  0  0  0
 50124  1  0  0  0
 51 52  1  0  0  0
 51125  1  0  0  0
 51126  1  0  0  0
 52127  1  0  0  0
 52128  1  0  0  0
 53 54  1  0  0  0
 54 55  2  0  0  0
 54129  1  0  0  0
 55 57  1  0  0  0
 55130  1  0  0  0
 56 69  2  0  0  0
 57 58  2  0  0  0
 57131  1  0  0  0
 58132  1  0  0  0
 59 60  1  0  0  0
 59 61  1  0  0  0
 59 62  1  0  0  0
 60133  1  0  0  0
 60134  1  0  0  0
 60135  1  0  0  0
 61136  1  0  0  0
 61137  1  0  0  0
 61138  1  0  0  0
 62139  1  0  0  0
 62140  1  0  0  0
 62141  1  0  0  0
 63 65  1  0  0  0
 63142  1  0  0  0
 63143  1  0  0  0
 63144  1  0  0  0
 64145  1  0  0  0
 65146  1  0  0  0
 68 82  1  0  0  0
 71 72  2  0  0  0
 71 73  1  0  0  0
 71147  1  0  0  0
 72 74  1  0  0  0
 72 75  1  0  0  0
 73 78  1  0  0  0
 73 85  2  0  0  0
 74 83  1  0  0  0
 74 86  2  0  0  0
 75148  1  0  0  0
 75149  1  0  0  0
 75150  1  0  0  0
 76 79  1  0  0  0
 76151  1  0  0  0
 76152  1  0  0  0
 76153  1  0  0  0
 77154  1  0  0  0
 77155  1  0  0  0
 77156  1  0  0  0
 77 83  1  0  0  0
 78 80  1  0  0  0
 78157  1  0  0  0
 78158  1  0  0  0
 79 81  1  0  0  0
 79159  1  0  0  0
 79160  1  0  0  0
 80 82  1  0  0  0
 80161  1  0  0  0
 80162  1  0  0  0
 81163  1  0  0  0
 81164  1  0  0  0
 81 84  1  0  0  0
 82165  1  0  0  0
 82166  1  0  0  0
 83 84  1  0  0  0
 83167  1  0  0  0
 84 87  1  0  0  0
 84168  1  0  0  0
 85 86  1  0  0  0
 87169  1  0  0  0
M  ISO  4   1 100  68 101  82 101  87 100
M  END
> <chiral flag>
0

> <version>
0

> <s_m_source_file>
/data/baiqing/PycharmProjects/Reinvent-master-3.2/result/LINK_invent/BTK/process_docking_weight1_custom_sum_contain_oxygen_bond_distance_aromatic_linkinvent_7_9_3/rearranged_h_0084.sdf

> <i_m_source_file_index>
25

> <r_mmod_Potential_Energy-OPLS-2005>
-41.6765670776367

> <r_mmod_Stretch_Energy-OPLS-2005>
44.2545509338379

> <r_mmod_Bend_Energy-OPLS-2005>
105.991683959961

> <r_mmod_Torsional_Energy-OPLS-2005>
226.139495849609

> <r_mmod_Improper_Torsional_Energy-OPLS-2005>
5.79842329025269

> <r_mmod_Van_der_Waal_Energy-OPLS-2005>
138.027038574219

> <r_mmod_Electrostatic_Energy-OPLS-2005>
-354.657684326172

> <r_mmod_Solvation_Energy-OPLS-2005>
-223.498443603516

> <b_mmod_Minimization_Converged-OPLS-2005>
0

> <r_mmod_RMS_Derivative-OPLS-2005>
3.19347190856934

$$$$
25
                    3D
 Structure written by MMmdl.
170178  0  0  1  0            999 V2000
  -30.6520  -14.6587   20.5652 C   0  0  0  0  0  0
  -30.4365  -12.4214   19.4532 C   0  0  0  0  0  0
  -29.5050  -12.5115   18.2248 C   0  0  0  0  0  0
  -28.0311  -12.3407   18.6400 C   0  0  0  0  0  0
  -27.6514  -13.2225   19.8580 C   0  0  2  0  0  0
  -28.6945  -13.0999   20.9875 C   0  0  0  0  0  0
  -25.2561  -13.8181   20.5687 C   0  0  0  0  0  0
  -24.1835  -13.0445   20.9173 C   0  0  0  0  0  0
  -24.6409  -11.6914   20.8730 C   0  0  0  0  0  0
  -23.9077  -10.4293   21.0399 C   0  0  0  0  0  0
  -24.3620   -9.4207   21.9186 C   0  0  0  0  0  0
  -23.6288   -8.2247   22.0768 C   0  0  0  0  0  0
  -22.4271   -8.0280   21.3549 C   0  0  0  0  0  0
  -21.9908   -9.0256   20.4656 C   0  0  0  0  0  0
  -22.7247  -10.2131   20.3057 C   0  0  0  0  0  0
  -21.6851   -6.0723   22.5277 C   0  0  0  0  0  0
  -21.4008   -6.5630   23.8207 C   0  0  0  0  0  0
  -21.3663   -5.6791   24.9174 C   0  0  0  0  0  0
  -21.6047   -4.3052   24.7230 C   0  0  0  0  0  0
  -21.8820   -3.8138   23.4355 C   0  0  0  0  0  0
  -21.9191   -4.6950   22.3405 C   0  0  0  0  0  0
  -22.7855  -13.5231   21.1844 C   0  0  0  0  0  0
  -22.1660   -4.2133   21.0982 F   0  0  0  0  0  0
  -21.5636   -3.4541   25.7746 F   0  0  0  0  0  0
  -30.0094  -13.4488   20.4291 N   0  0  0  0  0  0
  -26.2991  -12.9378   20.3304 N   0  0  0  0  0  0
  -25.9339  -11.6527   20.5751 N   0  0  0  0  0  0
  -22.0504  -12.8219   22.0398 N   0  0  0  0  0  0
  -25.4267  -15.1908   20.4127 N   0  0  0  0  0  0
  -31.7839  -14.8001   20.0920 O   0  0  0  0  0  0
  -21.6643   -6.8870   21.4239 O   0  0  0  0  0  0
  -22.3536  -14.5538   20.6694 O   0  0  0  0  0  0
  -24.6294  -31.8569   23.2038 C   0  0  0  0  0  0
  -25.9133  -32.4756   23.8369 C   0  0  1  0  0  0
  -27.2235  -27.2927   20.1080 C   0  0  0  0  0  0
  -25.5937  -33.8556   24.2290 N   0  0  0  0  0  0
  -23.4245  -30.4809   21.5469 C   0  0  2  0  0  0
  -24.8718  -28.9389   20.1082 C   0  0  0  0  0  0
  -22.7503  -29.4580   22.4931 C   0  0  0  0  0  0
  -18.0292  -28.1368   22.8462 C   0  0  0  0  0  0
  -24.1483  -36.7294   23.2634 C   0  0  0  0  0  0
  -25.9684  -30.7751   21.3833 C   0  0  0  0  0  0
  -26.0404  -29.4010   20.7248 C   0  0  0  0  0  0
  -27.2156  -28.5863   20.7252 C   0  0  0  0  0  0
  -26.0331  -26.9058   19.4457 C   0  0  0  0  0  0
  -24.8713  -27.6971   19.4601 C   0  0  0  0  0  0
  -23.6412  -29.8211   20.1602 C   0  0  0  0  0  0
  -25.4106  -36.3072   24.0324 C   0  0  1  0  0  0
  -20.5888  -28.3667   23.1274 C   0  0  2  0  0  0
  -20.6768  -26.9385   22.5405 C   0  0  0  0  0  0
  -19.5746  -26.6367   21.5191 C   0  0  0  0  0  0
  -18.1926  -26.7912   22.1602 C   0  0  0  0  0  0
  -19.1543  -28.8836   23.2857 C   0  0  0  0  0  0
  -18.9470  -30.1442   23.8864 C   0  0  0  0  0  0
  -17.6467  -30.6563   24.0551 C   0  0  0  0  0  0
  -25.9051  -34.9433   23.5108 C   0  0  0  0  0  0
  -16.5355  -29.9060   23.6325 C   0  0  0  0  0  0
  -16.7280  -28.6487   23.0327 C   0  0  0  0  0  0
  -26.4509  -31.6573   25.0751 C   0  0  0  0  0  0
  -25.3735  -31.3679   26.1474 C   0  0  0  0  0  0
  -27.0370  -30.2998   24.6224 C   0  0  0  0  0  0
  -27.6085  -32.4300   25.7505 C   0  0  0  0  0  0
  -27.5571  -37.1793   24.8453 C   0  0  0  0  0  0
  -21.4214  -29.3028   22.3679 N   0  0  0  0  0  0
  -26.4274  -37.3776   23.9410 N   0  0  0  0  0  0
  -24.6928  -31.0543   22.1012 N   0  0  0  0  0  0
  -23.4217  -28.8102   23.3006 O   0  0  0  0  0  0
  -28.3298  -26.4165   20.1758 O   0  0  0  0  0  0
  -26.5612  -34.8895   22.4672 O   0  0  0  0  0  0
  -23.5453  -32.1390   23.7344 O   0  0  0  0  0  0
  -29.6822  -19.8332   20.0962 C   0  0  0  0  0  0
  -28.9673  -20.9751   20.6318 C   0  0  0  0  0  0
  -29.7751  -18.7807   20.9918 C   0  0  0  0  0  0
  -28.5265  -20.5397   21.8724 C   0  0  0  0  0  0
  -30.0749  -15.6527   22.7901 C   0  0  0  0  0  0
  -26.5172  -22.1239   22.1491 C   0  0  0  0  0  0
  -28.2716  -22.0462   23.9147 C   0  0  0  0  0  0
  -26.6140  -20.1707   23.5760 C   0  0  0  0  0  0
  -29.2681  -18.6601   23.4389 C   0  0  0  0  0  0
  -28.6484  -22.3170   19.8537 C   0  0  0  0  0  0
  -30.5362  -17.3944   20.8572 C   0  0  0  0  0  0
  -29.0338  -23.7865   20.3860 C   0  0  0  0  0  0
  -28.1403  -24.9832   19.8058 C   0  0  0  0  0  0
  -29.9706  -15.9245   21.2679 C   0  0  1  0  0  0
  -27.5321  -21.1958   22.8593 C   0  0  0  0  0  0
  -29.1900  -19.3119   22.1467 N   0  0  0  0  0  0
  -31.4748  -12.5460   19.1422 H   0  0  0  0  0  0
  -30.3812  -11.4295   19.9039 H   0  0  0  0  0  0
  -29.7733  -11.7479   17.4934 H   0  0  0  0  0  0
  -29.6395  -13.4736   17.7286 H   0  0  0  0  0  0
  -27.8772  -11.2886   18.8849 H   0  0  0  0  0  0
  -27.3723  -12.5549   17.7976 H   0  0  0  0  0  0
  -27.6669  -14.2550   19.5093 H   0  0  0  0  0  0
  -28.7142  -12.0863   21.3899 H   0  0  0  0  0  0
  -28.4147  -13.7438   21.8195 H   0  0  0  0  0  0
  -25.2762   -9.5681   22.4765 H   0  0  0  0  0  0
  -23.9989   -7.4643   22.7499 H   0  0  0  0  0  0
  -21.0834   -8.8777   19.8965 H   0  0  0  0  0  0
  -22.3703  -10.9668   19.6163 H   0  0  0  0  0  0
  -21.1993   -7.6139   23.9700 H   0  0  0  0  0  0
  -21.1488   -6.0526   25.9074 H   0  0  0  0  0  0
  -22.0594   -2.7599   23.2863 H   0  0  0  0  0  0
  -22.4114  -11.9863   22.4755 H   0  0  0  0  0  0
  -21.1134  -13.1263   22.2639 H   0  0  0  0  0  0
  -24.6647  -15.8478   20.5387 H   0  0  0  0  0  0
  -26.2869  -15.6342   20.1167 H   0  0  0  0  0  0
  -26.7200  -32.5409   23.1115 H   0  0  0  0  0  0
  -25.0080  -33.9681   25.0432 H   0  0  0  0  0  0
  -22.7199  -31.3033   21.4046 H   0  0  0  0  0  0
  -23.3732  -35.9636   23.3291 H   0  0  0  0  0  0
  -24.3589  -36.8945   22.2054 H   0  0  0  0  0  0
  -23.7250  -37.6496   23.6677 H   0  0  0  0  0  0
  -26.1012  -31.5334   20.6115 H   0  0  0  0  0  0
  -26.8490  -30.8278   22.0113 H   0  0  0  0  0  0
  -28.1058  -28.9280   21.2338 H   0  0  0  0  0  0
  -25.9597  -25.9722   18.9078 H   0  0  0  0  0  0
  -23.9804  -27.3451   18.9580 H   0  0  0  0  0  0
  -23.7637  -30.5997   19.4059 H   0  0  0  0  0  0
  -22.7617  -29.2525   19.8545 H   0  0  0  0  0  0
  -25.1282  -36.1920   25.0814 H   0  0  0  0  0  0
  -20.9959  -28.3235   24.1404 H   0  0  0  0  0  0
  -20.5646  -26.2269   23.3605 H   0  0  0  0  0  0
  -21.6642  -26.7394   22.1209 H   0  0  0  0  0  0
  -19.6906  -25.6277   21.1222 H   0  0  0  0  0  0
  -19.6690  -27.3173   20.6712 H   0  0  0  0  0  0
  -17.4198  -26.6650   21.4004 H   0  0  0  0  0  0
  -18.0337  -26.0045   22.8991 H   0  0  0  0  0  0
  -19.7946  -30.7263   24.2216 H   0  0  0  0  0  0
  -17.5020  -31.6240   24.5164 H   0  0  0  0  0  0
  -15.5354  -30.2947   23.7668 H   0  0  0  0  0  0
  -15.8681  -28.0810   22.7028 H   0  0  0  0  0  0
  -24.5956  -30.6975   25.7807 H   0  0  0  0  0  0
  -24.8842  -32.2804   26.4884 H   0  0  0  0  0  0
  -25.8068  -30.8890   27.0266 H   0  0  0  0  0  0
  -26.2960  -29.6720   24.1265 H   0  0  0  0  0  0
  -27.4098  -29.7285   25.4737 H   0  0  0  0  0  0
  -27.8815  -30.4299   23.9453 H   0  0  0  0  0  0
  -27.2756  -33.3638   26.2049 H   0  0  0  0  0  0
  -28.3913  -32.6797   25.0327 H   0  0  0  0  0  0
  -28.0738  -31.8430   26.5442 H   0  0  0  0  0  0
  -28.2562  -38.0112   24.7544 H   0  0  0  0  0  0
  -28.1106  -36.2652   24.6239 H   0  0  0  0  0  0
  -27.2304  -37.1401   25.8857 H   0  0  0  0  0  0
  -20.9408  -29.8809   21.6926 H   0  0  0  0  0  0
  -26.0152  -38.2845   24.1441 H   0  0  0  0  0  0
  -30.1172  -19.7900   19.1064 H   0  0  0  0  0  0
  -29.1845  -15.9803   23.3183 H   0  0  0  0  0  0
  -30.9511  -16.1286   23.2297 H   0  0  0  0  0  0
  -30.1683  -14.5939   23.0350 H   0  0  0  0  0  0
  -26.9619  -23.0370   21.7757 H   0  0  0  0  0  0
  -25.7311  -22.4668   22.8233 H   0  0  0  0  0  0
  -26.0241  -21.6175   21.3182 H   0  0  0  0  0  0
  -28.8841  -22.8159   23.4489 H   0  0  0  0  0  0
  -28.9354  -21.4628   24.5473 H   0  0  0  0  0  0
  -27.5712  -22.5524   24.5801 H   0  0  0  0  0  0
  -26.1881  -19.4595   22.8670 H   0  0  0  0  0  0
  -25.7784  -20.6567   24.0807 H   0  0  0  0  0  0
  -27.1026  -19.6108   24.3670 H   0  0  0  0  0  0
  -30.2271  -18.1611   23.5467 H   0  0  0  0  0  0
  -28.4403  -17.9618   23.5489 H   0  0  0  0  0  0
  -29.2404  -19.3818   24.2470 H   0  0  0  0  0  0
  -27.5770  -22.2959   19.6588 H   0  0  0  0  0  0
  -29.0864  -22.2101   18.8608 H   0  0  0  0  0  0
  -31.4990  -17.5120   21.3557 H   0  0  0  0  0  0
  -30.8134  -17.3188   19.8049 H   0  0  0  0  0  0
  -30.0878  -23.9704   20.1786 H   0  0  0  0  0  0
  -28.9556  -23.8181   21.4696 H   0  0  0  0  0  0
  -27.1309  -24.6885   20.0847 H   0  0  0  0  0  0
  -28.1820  -24.9352   18.7158 H   0  0  0  0  0  0
  -28.9234  -15.8958   20.9692 H   0  0  0  0  0  0
  1 25  1  0  0  0
  1 30  2  0  0  0
  1 84  1  0  0  0
  2  3  1  0  0  0
  2 25  1  0  0  0
  2 87  1  0  0  0
  2 88  1  0  0  0
  3  4  1  0  0  0
  3 89  1  0  0  0
  3 90  1  0  0  0
  4  5  1  0  0  0
  4 91  1  0  0  0
  4 92  1  0  0  0
  5  6  1  0  0  0
  5 26  1  0  0  0
  5 93  1  0  0  0
  6 25  1  0  0  0
  6 94  1  0  0  0
  6 95  1  0  0  0
  7  8  2  0  0  0
  7 26  1  0  0  0
  7 29  1  0  0  0
  8  9  1  0  0  0
  8 22  1  0  0  0
  9 10  1  0  0  0
  9 27  2  0  0  0
 10 11  2  0  0  0
 10 15  1  0  0  0
 11 12  1  0  0  0
 11 96  1  0  0  0
 12 13  2  0  0  0
 12 97  1  0  0  0
 13 14  1  0  0  0
 13 31  1  0  0  0
 14 15  2  0  0  0
 14 98  1  0  0  0
 15 99  1  0  0  0
 16 17  2  0  0  0
 16 21  1  0  0  0
 16 31  1  0  0  0
 17 18  1  0  0  0
 17100  1  0  0  0
 18 19  2  0  0  0
 18101  1  0  0  0
 19 20  1  0  0  0
 19 24  1  0  0  0
 20 21  2  0  0  0
 20102  1  0  0  0
 21 23  1  0  0  0
 22 28  1  0  0  0
 22 32  2  0  0  0
 26 27  1  0  0  0
 28103  1  0  0  0
 28104  1  0  0  0
 29105  1  0  0  0
 29106  1  0  0  0
 33 34  1  0  0  0
 33 66  1  0  0  0
 33 70  2  0  0  0
 34 36  1  0  0  0
 34 59  1  0  0  0
 34107  1  0  0  0
 35 44  2  0  0  0
 35 45  1  0  0  0
 35 68  1  0  0  0
 36 56  1  0  0  0
 36108  1  0  0  0
 37 39  1  0  0  0
 37 47  1  0  0  0
 37 66  1  0  0  0
 37109  1  0  0  0
 38 43  2  0  0  0
 38 46  1  0  0  0
 38 47  1  0  0  0
 39 64  1  0  0  0
 39 67  2  0  0  0
 40 52  1  0  0  0
 40 53  2  0  0  0
 40 58  1  0  0  0
 41110  1  0  0  0
 41111  1  0  0  0
 41112  1  0  0  0
 41 48  1  0  0  0
 42 43  1  0  0  0
 42 66  1  0  0  0
 42113  1  0  0  0
 42114  1  0  0  0
 43 44  1  0  0  0
 44115  1  0  0  0
 45 46  2  0  0  0
 45116  1  0  0  0
 46117  1  0  0  0
 47118  1  0  0  0
 47119  1  0  0  0
 48 56  1  0  0  0
 48 65  1  0  0  0
 48120  1  0  0  0
 49 50  1  0  0  0
 49 53  1  0  0  0
 49 64  1  0  0  0
 49121  1  0  0  0
 50 51  1  0  0  0
 50122  1  0  0  0
 50123  1  0  0  0
 51 52  1  0  0  0
 51124  1  0  0  0
 51125  1  0  0  0
 52126  1  0  0  0
 52127  1  0  0  0
 53 54  1  0  0  0
 54 55  2  0  0  0
 54128  1  0  0  0
 55 57  1  0  0  0
 55129  1  0  0  0
 56 69  2  0  0  0
 57 58  2  0  0  0
 57130  1  0  0  0
 58131  1  0  0  0
 59 60  1  0  0  0
 59 61  1  0  0  0
 59 62  1  0  0  0
 60132  1  0  0  0
 60133  1  0  0  0
 60134  1  0  0  0
 61135  1  0  0  0
 61136  1  0  0  0
 61137  1  0  0  0
 62138  1  0  0  0
 62139  1  0  0  0
 62140  1  0  0  0
 63 65  1  0  0  0
 63141  1  0  0  0
 63142  1  0  0  0
 63143  1  0  0  0
 64144  1  0  0  0
 65145  1  0  0  0
 68 83  1  0  0  0
 71 72  1  0  0  0
 71 73  2  0  0  0
 71146  1  0  0  0
 72 74  2  0  0  0
 72 80  1  0  0  0
 73 81  1  0  0  0
 73 86  1  0  0  0
 74 85  1  0  0  0
 74 86  1  0  0  0
 75147  1  0  0  0
 75148  1  0  0  0
 75149  1  0  0  0
 75 84  1  0  0  0
 76150  1  0  0  0
 76151  1  0  0  0
 76152  1  0  0  0
 76 85  1  0  0  0
 77 85  1  0  0  0
 77153  1  0  0  0
 77154  1  0  0  0
 77155  1  0  0  0
 78 85  1  0  0  0
 78156  1  0  0  0
 78157  1  0  0  0
 78158  1  0  0  0
 79 86  1  0  0  0
 79159  1  0  0  0
 79160  1  0  0  0
 79161  1  0  0  0
 80 82  1  0  0  0
 80162  1  0  0  0
 80163  1  0  0  0
 81 84  1  0  0  0
 81164  1  0  0  0
 81165  1  0  0  0
 82 83  1  0  0  0
 82166  1  0  0  0
 82167  1  0  0  0
 83168  1  0  0  0
 83169  1  0  0  0
 84170  1  0  0  0
M  ISO  4   1 100  68 101  83 101  84 100
M  END
> <chiral flag>
0

> <version>
0

> <s_m_source_file>
/data/baiqing/PycharmProjects/Reinvent-master-3.2/result/LINK_invent/BTK/process_docking_weight1_custom_sum_contain_oxygen_bond_distance_aromatic_linkinvent_7_9_3/rearranged_h_0084.sdf

> <i_m_source_file_index>
26

> <r_mmod_Potential_Energy-OPLS-2005>
140.154541015625

> <r_mmod_Stretch_Energy-OPLS-2005>
115.117645263672

> <r_mmod_Bend_Energy-OPLS-2005>
184.433395385742

> <r_mmod_Torsional_Energy-OPLS-2005>
210.466003417969

> <r_mmod_Improper_Torsional_Energy-OPLS-2005>
3.09708547592163

> <r_mmod_Van_der_Waal_Energy-OPLS-2005>
145.157699584961

> <r_mmod_Electrostatic_Energy-OPLS-2005>
-389.725036621094

> <r_mmod_Solvation_Energy-OPLS-2005>
-185.991928100586

> <b_mmod_Minimization_Converged-OPLS-2005>
0

> <r_mmod_RMS_Derivative-OPLS-2005>
1.87966418266296

$$$$
26
                    3D
 Structure written by MMmdl.
179187  0  0  1  0            999 V2000
  -30.6613  -14.6756   20.3683 C   0  0  0  0  0  0
  -30.4109  -12.3939   19.4531 C   0  0  0  0  0  0
  -29.5001  -12.4870   18.2103 C   0  0  0  0  0  0
  -28.0290  -12.3116   18.6382 C   0  0  0  0  0  0
  -27.6348  -13.2271   19.8339 C   0  0  2  0  0  0
  -28.6870  -13.1703   20.9601 C   0  0  0  0  0  0
  -25.2444  -13.8174   20.5600 C   0  0  0  0  0  0
  -24.1733  -13.0421   20.9173 C   0  0  0  0  0  0
  -24.6348  -11.6881   20.8707 C   0  0  0  0  0  0
  -23.9021  -10.4261   21.0385 C   0  0  0  0  0  0
  -24.3580   -9.4197   21.9163 C   0  0  0  0  0  0
  -23.6261   -8.2233   22.0756 C   0  0  0  0  0  0
  -22.4233   -8.0280   21.3558 C   0  0  0  0  0  0
  -21.9848   -9.0244   20.4650 C   0  0  0  0  0  0
  -22.7202  -10.2116   20.3046 C   0  0  0  0  0  0
  -21.6857   -6.0677   22.5253 C   0  0  0  0  0  0
  -21.4032   -6.5567   23.8207 C   0  0  0  0  0  0
  -21.3680   -5.6746   24.9160 C   0  0  0  0  0  0
  -21.6068   -4.2998   24.7246 C   0  0  0  0  0  0
  -21.8819   -3.8088   23.4354 C   0  0  0  0  0  0
  -21.9186   -4.6884   22.3421 C   0  0  0  0  0  0
  -22.7756  -13.5226   21.1894 C   0  0  0  0  0  0
  -22.1650   -4.2066   21.0999 F   0  0  0  0  0  0
  -21.5655   -3.4518   25.7768 F   0  0  0  0  0  0
  -29.9944  -13.4772   20.3611 N   0  0  0  0  0  0
  -26.2858  -12.9365   20.3158 N   0  0  0  0  0  0
  -25.9254  -11.6495   20.5661 N   0  0  0  0  0  0
  -22.0413  -12.8221   22.0452 N   0  0  0  0  0  0
  -25.4153  -15.1885   20.4049 N   0  0  0  0  0  0
  -31.8677  -14.7244   20.1266 O   0  0  0  0  0  0
  -21.6623   -6.8820   21.4229 O   0  0  0  0  0  0
  -22.3449  -14.5566   20.6790 O   0  0  0  0  0  0
  -24.6221  -31.8589   23.2016 C   0  0  0  0  0  0
  -25.9038  -32.4751   23.8362 C   0  0  1  0  0  0
  -27.2522  -27.3441   20.0551 C   0  0  0  0  0  0
  -25.5847  -33.8555   24.2287 N   0  0  0  0  0  0
  -23.4195  -30.4672   21.5516 C   0  0  2  0  0  0
  -24.8750  -28.9306   20.0997 C   0  0  0  0  0  0
  -22.7503  -29.4516   22.5041 C   0  0  0  0  0  0
  -18.0276  -28.1340   22.8505 C   0  0  0  0  0  0
  -24.1490  -36.7291   23.2651 C   0  0  0  0  0  0
  -25.9615  -30.7779   21.3855 C   0  0  0  0  0  0
  -26.0380  -29.4101   20.7154 C   0  0  0  0  0  0
  -27.2219  -28.6174   20.7058 C   0  0  0  0  0  0
  -26.0766  -26.9051   19.4250 C   0  0  0  0  0  0
  -24.8957  -27.6820   19.4477 C   0  0  0  0  0  0
  -23.6297  -29.7975   20.1695 C   0  0  0  0  0  0
  -25.4106  -36.3072   24.0349 C   0  0  1  0  0  0
  -20.5862  -28.3572   23.1407 C   0  0  2  0  0  0
  -20.6740  -26.9285   22.5498 C   0  0  0  0  0  0
  -19.5745  -26.6339   21.5252 C   0  0  0  0  0  0
  -18.1913  -26.7887   22.1633 C   0  0  0  0  0  0
  -19.1505  -28.8774   23.2945 C   0  0  0  0  0  0
  -18.9433  -30.1410   23.8921 C   0  0  0  0  0  0
  -17.6419  -30.6532   24.0529 C   0  0  0  0  0  0
  -25.9040  -34.9441   23.5149 C   0  0  0  0  0  0
  -16.5318  -29.9021   23.6321 C   0  0  0  0  0  0
  -16.7264  -28.6450   23.0331 C   0  0  0  0  0  0
  -26.4458  -31.6537   25.0721 C   0  0  0  0  0  0
  -25.3669  -31.3632   26.1445 C   0  0  0  0  0  0
  -27.0291  -30.2949   24.6153 C   0  0  0  0  0  0
  -27.6124  -32.4210   25.7439 C   0  0  0  0  0  0
  -27.5596  -37.1786   24.8462 C   0  0  0  0  0  0
  -21.4211  -29.2923   22.3810 N   0  0  0  0  0  0
  -26.4294  -37.3762   23.9416 N   0  0  0  0  0  0
  -24.6858  -31.0513   22.1020 N   0  0  0  0  0  0
  -23.4254  -28.8133   23.3163 O   0  0  0  0  0  0
  -28.3007  -26.4408   20.2408 O   0  0  0  0  0  0
  -26.5665  -34.8960   22.4753 O   0  0  0  0  0  0
  -23.5398  -32.1395   23.7318 O   0  0  0  0  0  0
  -28.6101  -22.3660   21.2586 C   0  0  0  0  0  0
  -28.7102  -21.3007   22.1669 C   0  0  0  0  0  0
  -28.9048  -19.9817   21.6690 C   0  0  0  0  0  0
  -28.7241  -22.1489   19.8858 C   0  0  0  0  0  0
  -29.1991  -19.8116   20.2820 C   0  0  0  0  0  0
  -28.5028  -21.6266   23.6401 C   0  0  0  0  0  0
  -27.3089  -22.6175   17.8536 C   0  0  0  0  0  0
  -26.3042  -18.4975   21.6071 C   0  0  0  0  0  0
  -26.9183  -17.2571   23.7081 C   0  0  0  0  0  0
  -28.7137  -24.9768   16.9728 C   0  0  0  0  0  0
  -30.5416  -23.9713   18.3042 C   0  0  0  0  0  0
  -28.6484  -18.7890   22.6091 C   0  0  0  0  0  0
  -29.3890  -18.3682   19.6491 C   0  0  0  0  0  0
  -30.4199  -17.2713   20.2191 C   0  0  0  0  0  0
  -29.1817  -25.9224   19.2041 C   0  0  0  0  0  0
  -28.1669  -23.3047   18.9510 C   0  0  2  0  0  0
  -27.1458  -18.5462   22.8984 C   0  0  0  0  0  0
  -29.1005  -24.5130   18.4118 C   0  0  0  0  0  0
  -29.1044  -20.9002   19.4209 N   0  0  0  0  0  0
  -29.9264  -15.8382   20.3758 N   0  0  0  0  0  0
  -31.4669  -12.4402   19.1760 H   0  0  0  0  0  0
  -30.2739  -11.4311   19.9465 H   0  0  0  0  0  0
  -29.7717  -11.7225   17.4806 H   0  0  0  0  0  0
  -29.6309  -13.4472   17.7105 H   0  0  0  0  0  0
  -27.8914  -11.2639   18.9180 H   0  0  0  0  0  0
  -27.3699  -12.4854   17.7894 H   0  0  0  0  0  0
  -27.6287  -14.2446   19.4471 H   0  0  0  0  0  0
  -28.6924  -12.1795   21.4215 H   0  0  0  0  0  0
  -28.4453  -13.8760   21.7564 H   0  0  0  0  0  0
  -25.2751   -9.5625   22.4679 H   0  0  0  0  0  0
  -23.9943   -7.4609   22.7446 H   0  0  0  0  0  0
  -21.0785   -8.8815   19.8924 H   0  0  0  0  0  0
  -22.3734  -10.9640   19.6124 H   0  0  0  0  0  0
  -21.2042   -7.6085   23.9682 H   0  0  0  0  0  0
  -21.1498   -6.0475   25.9072 H   0  0  0  0  0  0
  -22.0570   -2.7528   23.2923 H   0  0  0  0  0  0
  -22.4087  -11.9927   22.4857 H   0  0  0  0  0  0
  -21.1052  -13.1211   22.2711 H   0  0  0  0  0  0
  -24.6556  -15.8484   20.5288 H   0  0  0  0  0  0
  -26.2675  -15.6152   20.0794 H   0  0  0  0  0  0
  -26.7081  -32.5411   23.1104 H   0  0  0  0  0  0
  -24.9782  -33.9686   25.0287 H   0  0  0  0  0  0
  -22.7109  -31.2846   21.4129 H   0  0  0  0  0  0
  -23.3750  -35.9608   23.3282 H   0  0  0  0  0  0
  -24.3636  -36.8928   22.2071 H   0  0  0  0  0  0
  -23.7239  -37.6484   23.6721 H   0  0  0  0  0  0
  -26.0904  -31.5412   20.6171 H   0  0  0  0  0  0
  -26.8450  -30.8278   22.0156 H   0  0  0  0  0  0
  -28.1036  -28.9566   21.2277 H   0  0  0  0  0  0
  -26.0560  -25.9294   18.9613 H   0  0  0  0  0  0
  -24.0019  -27.2978   18.9782 H   0  0  0  0  0  0
  -23.7167  -30.5759   19.4121 H   0  0  0  0  0  0
  -22.7519  -29.2163   19.8872 H   0  0  0  0  0  0
  -25.1250  -36.1927   25.0828 H   0  0  0  0  0  0
  -20.9898  -28.3054   24.1554 H   0  0  0  0  0  0
  -20.5566  -26.2103   23.3639 H   0  0  0  0  0  0
  -21.6622  -26.7311   22.1302 H   0  0  0  0  0  0
  -19.6859  -25.6274   21.1230 H   0  0  0  0  0  0
  -19.6701  -27.3190   20.6831 H   0  0  0  0  0  0
  -17.4180  -26.6651   21.4037 H   0  0  0  0  0  0
  -18.0292  -26.0030   22.9037 H   0  0  0  0  0  0
  -19.7906  -30.7219   24.2313 H   0  0  0  0  0  0
  -17.4955  -31.6228   24.5107 H   0  0  0  0  0  0
  -15.5301  -30.2875   23.7685 H   0  0  0  0  0  0
  -15.8682  -28.0773   22.7024 H   0  0  0  0  0  0
  -24.5919  -30.6883   25.7757 H   0  0  0  0  0  0
  -24.8714  -32.2741   26.4853 H   0  0  0  0  0  0
  -25.7980  -30.8829   27.0243 H   0  0  0  0  0  0
  -26.2843  -29.6700   24.1191 H   0  0  0  0  0  0
  -27.3987  -29.7212   25.4671 H   0  0  0  0  0  0
  -27.8752  -30.4226   23.9383 H   0  0  0  0  0  0
  -27.2871  -33.3572   26.2033 H   0  0  0  0  0  0
  -28.3949  -32.6615   25.0194 H   0  0  0  0  0  0
  -28.0782  -31.8213   26.5291 H   0  0  0  0  0  0
  -28.2590  -38.0114   24.7565 H   0  0  0  0  0  0
  -28.1134  -36.2661   24.6201 H   0  0  0  0  0  0
  -27.2365  -37.1301   25.8881 H   0  0  0  0  0  0
  -20.9335  -29.8549   21.6955 H   0  0  0  0  0  0
  -26.0176  -38.2845   24.1371 H   0  0  0  0  0  0
  -28.3266  -23.3458   21.6219 H   0  0  0  0  0  0
  -28.9738  -22.5821   23.8758 H   0  0  0  0  0  0
  -28.9449  -20.8933   24.3145 H   0  0  0  0  0  0
  -27.4392  -21.7333   23.8676 H   0  0  0  0  0  0
  -26.6037  -21.9191   18.3064 H   0  0  0  0  0  0
  -27.9387  -22.0552   17.1605 H   0  0  0  0  0  0
  -26.7192  -23.3110   17.2587 H   0  0  0  0  0  0
  -25.2532  -18.2964   21.8186 H   0  0  0  0  0  0
  -26.6612  -17.7024   20.9555 H   0  0  0  0  0  0
  -26.3421  -19.4340   21.0487 H   0  0  0  0  0  0
  -25.8580  -17.1040   23.9027 H   0  0  0  0  0  0
  -27.4118  -17.2815   24.6798 H   0  0  0  0  0  0
  -27.2836  -16.3809   23.1661 H   0  0  0  0  0  0
  -29.4650  -25.6640   16.5691 H   0  0  0  0  0  0
  -27.7732  -25.5284   16.9717 H   0  0  0  0  0  0
  -28.6511  -24.1637   16.2475 H   0  0  0  0  0  0
  -31.1982  -24.6748   17.7904 H   0  0  0  0  0  0
  -30.5859  -23.0375   17.7411 H   0  0  0  0  0  0
  -30.9623  -23.7744   19.2906 H   0  0  0  0  0  0
  -29.2050  -18.9142   23.5367 H   0  0  0  0  0  0
  -29.0360  -17.8654   22.2045 H   0  0  0  0  0  0
  -29.6558  -18.5282   18.6047 H   0  0  0  0  0  0
  -28.4115  -17.8972   19.6174 H   0  0  0  0  0  0
  -30.8382  -17.5947   21.1725 H   0  0  0  0  0  0
  -31.2801  -17.2574   19.5428 H   0  0  0  0  0  0
  -29.3674  -26.7398   18.5034 H   0  0  0  0  0  0
  -30.1266  -25.8785   19.7474 H   0  0  0  0  0  0
  -27.4228  -23.8248   19.5610 H   0  0  0  0  0  0
  -26.7803  -19.3734   23.5083 H   0  0  0  0  0  0
  -28.9287  -15.7240   20.4529 H   0  0  0  0  0  0
  1 25  1  0  0  0
  1 30  2  0  0  0
  1 90  1  0  0  0
  2  3  1  0  0  0
  2 25  1  0  0  0
  2 91  1  0  0  0
  2 92  1  0  0  0
  3  4  1  0  0  0
  3 93  1  0  0  0
  3 94  1  0  0  0
  4  5  1  0  0  0
  4 95  1  0  0  0
  4 96  1  0  0  0
  5  6  1  0  0  0
  5 26  1  0  0  0
  5 97  1  0  0  0
  6 25  1  0  0  0
  6 98  1  0  0  0
  6 99  1  0  0  0
  7  8  2  0  0  0
  7 26  1  0  0  0
  7 29  1  0  0  0
  8  9  1  0  0  0
  8 22  1  0  0  0
  9 10  1  0  0  0
  9 27  2  0  0  0
 10 11  2  0  0  0
 10 15  1  0  0  0
 11 12  1  0  0  0
 11100  1  0  0  0
 12 13  2  0  0  0
 12101  1  0  0  0
 13 14  1  0  0  0
 13 31  1  0  0  0
 14 15  2  0  0  0
 14102  1  0  0  0
 15103  1  0  0  0
 16 17  2  0  0  0
 16 21  1  0  0  0
 16 31  1  0  0  0
 17 18  1  0  0  0
 17104  1  0  0  0
 18 19  2  0  0  0
 18105  1  0  0  0
 19 20  1  0  0  0
 19 24  1  0  0  0
 20 21  2  0  0  0
 20106  1  0  0  0
 21 23  1  0  0  0
 22 28  1  0  0  0
 22 32  2  0  0  0
 26 27  1  0  0  0
 28107  1  0  0  0
 28108  1  0  0  0
 29109  1  0  0  0
 29110  1  0  0  0
 33 34  1  0  0  0
 33 66  1  0  0  0
 33 70  2  0  0  0
 34 36  1  0  0  0
 34 59  1  0  0  0
 34111  1  0  0  0
 35 44  2  0  0  0
 35 45  1  0  0  0
 35 68  1  0  0  0
 36 56  1  0  0  0
 36112  1  0  0  0
 37 39  1  0  0  0
 37 47  1  0  0  0
 37 66  1  0  0  0
 37113  1  0  0  0
 38 43  2  0  0  0
 38 46  1  0  0  0
 38 47  1  0  0  0
 39 64  1  0  0  0
 39 67  2  0  0  0
 40 52  1  0  0  0
 40 53  2  0  0  0
 40 58  1  0  0  0
 41114  1  0  0  0
 41115  1  0  0  0
 41116  1  0  0  0
 41 48  1  0  0  0
 42 43  1  0  0  0
 42 66  1  0  0  0
 42117  1  0  0  0
 42118  1  0  0  0
 43 44  1  0  0  0
 44119  1  0  0  0
 45 46  2  0  0  0
 45120  1  0  0  0
 46121  1  0  0  0
 47122  1  0  0  0
 47123  1  0  0  0
 48 56  1  0  0  0
 48 65  1  0  0  0
 48124  1  0  0  0
 49 50  1  0  0  0
 49 53  1  0  0  0
 49 64  1  0  0  0
 49125  1  0  0  0
 50 51  1  0  0  0
 50126  1  0  0  0
 50127  1  0  0  0
 51 52  1  0  0  0
 51128  1  0  0  0
 51129  1  0  0  0
 52130  1  0  0  0
 52131  1  0  0  0
 53 54  1  0  0  0
 54 55  2  0  0  0
 54132  1  0  0  0
 55 57  1  0  0  0
 55133  1  0  0  0
 56 69  2  0  0  0
 57 58  2  0  0  0
 57134  1  0  0  0
 58135  1  0  0  0
 59 60  1  0  0  0
 59 61  1  0  0  0
 59 62  1  0  0  0
 60136  1  0  0  0
 60137  1  0  0  0
 60138  1  0  0  0
 61139  1  0  0  0
 61140  1  0  0  0
 61141  1  0  0  0
 62142  1  0  0  0
 62143  1  0  0  0
 62144  1  0  0  0
 63 65  1  0  0  0
 63145  1  0  0  0
 63146  1  0  0  0
 63147  1  0  0  0
 64148  1  0  0  0
 65149  1  0  0  0
 68 85  1  0  0  0
 71 72  2  0  0  0
 71 74  1  0  0  0
 71150  1  0  0  0
 72 73  1  0  0  0
 72 76  1  0  0  0
 73 75  2  0  0  0
 73 82  1  0  0  0
 74 86  1  0  0  0
 74 89  2  0  0  0
 75 83  1  0  0  0
 75 89  1  0  0  0
 76151  1  0  0  0
 76152  1  0  0  0
 76153  1  0  0  0
 77154  1  0  0  0
 77155  1  0  0  0
 77156  1  0  0  0
 77 86  1  0  0  0
 78157  1  0  0  0
 78158  1  0  0  0
 78159  1  0  0  0
 78 87  1  0  0  0
 79 87  1  0  0  0
 79160  1  0  0  0
 79161  1  0  0  0
 79162  1  0  0  0
 80163  1  0  0  0
 80164  1  0  0  0
 80165  1  0  0  0
 80 88  1  0  0  0
 81 88  1  0  0  0
 81166  1  0  0  0
 81167  1  0  0  0
 81168  1  0  0  0
 82 87  1  0  0  0
 82169  1  0  0  0
 82170  1  0  0  0
 83 84  1  0  0  0
 83171  1  0  0  0
 83172  1  0  0  0
 84 90  1  0  0  0
 84173  1  0  0  0
 84174  1  0  0  0
 85 88  1  0  0  0
 85175  1  0  0  0
 85176  1  0  0  0
 86 88  1  0  0  0
 86177  1  0  0  0
 87178  1  0  0  0
 90179  1  0  0  0
M  ISO  4   1 100  68 101  85 101  90 100
M  END
> <chiral flag>
0

> <version>
0

> <s_m_source_file>
/data/baiqing/PycharmProjects/Reinvent-master-3.2/result/LINK_invent/BTK/process_docking_weight1_custom_sum_contain_oxygen_bond_distance_aromatic_linkinvent_7_9_3/rearranged_h_0084.sdf

> <i_m_source_file_index>
27

> <r_mmod_Potential_Energy-OPLS-2005>
131.567184448242

> <r_mmod_Stretch_Energy-OPLS-2005>
109.468864440918

> <r_mmod_Bend_Energy-OPLS-2005>
228.725189208984

> <r_mmod_Torsional_Energy-OPLS-2005>
286.934936523438

> <r_mmod_Improper_Torsional_Energy-OPLS-2005>
10.7919797897339

> <r_mmod_Van_der_Waal_Energy-OPLS-2005>
143.229751586914

> <r_mmod_Electrostatic_Energy-OPLS-2005>
-510.752838134766

> <r_mmod_Solvation_Energy-OPLS-2005>
-207.006790161133

> <b_mmod_Minimization_Converged-OPLS-2005>
0

> <r_mmod_RMS_Derivative-OPLS-2005>
8.92053508758545

$$$$
27
                    3D
 Structure written by MMmdl.
166174  0  0  1  0            999 V2000
  -30.8842  -13.3173   20.6746 C   0  0  0  0  0  0
  -30.7360  -12.7937   18.3828 C   0  0  0  0  0  0
  -29.7403  -14.4600   18.0047 C   0  0  0  0  0  0
  -28.1674  -14.9612   19.4278 C   0  0  0  0  0  0
  -27.5569  -13.6267   20.7526 C   0  0  2  0  0  0
  -28.6551  -12.1301   21.0841 C   0  0  0  0  0  0
  -25.0955  -13.9110   20.6156 C   0  0  0  0  0  0
  -24.0614  -13.0721   20.8893 C   0  0  0  0  0  0
  -24.5801  -11.7438   20.8719 C   0  0  0  0  0  0
  -23.8930  -10.4492   21.0183 C   0  0  0  0  0  0
  -24.3523   -9.4581   21.9119 C   0  0  0  0  0  0
  -23.6362   -8.2546   22.0692 C   0  0  0  0  0  0
  -22.4377   -8.0338   21.3477 C   0  0  0  0  0  0
  -21.9970   -9.0150   20.4482 C   0  0  0  0  0  0
  -22.7156  -10.2107   20.2805 C   0  0  0  0  0  0
  -21.6984   -6.0807   22.5337 C   0  0  0  0  0  0
  -21.4153   -6.5672   23.8281 C   0  0  0  0  0  0
  -21.3665   -5.6790   24.9203 C   0  0  0  0  0  0
  -21.5926   -4.3049   24.7236 C   0  0  0  0  0  0
  -21.8773   -3.8184   23.4383 C   0  0  0  0  0  0
  -21.9262   -4.7021   22.3458 C   0  0  0  0  0  0
  -22.6638  -13.5092   21.1576 C   0  0  0  0  0  0
  -22.1769   -4.2203   21.1019 F   0  0  0  0  0  0
  -21.5495   -3.4514   25.7716 F   0  0  0  0  0  0
  -30.2264  -12.3579   20.0843 N   0  0  0  0  0  0
  -26.2006  -13.1232   20.6020 N   0  0  0  0  0  0
  -25.8893  -11.7899   20.7072 N   0  0  0  0  0  0
  -21.9569  -12.7961   22.0307 N   0  0  0  0  0  0
  -25.2184  -15.2795   20.4524 N   0  0  0  0  0  0
  -31.7596  -14.1718   20.4022 O   0  0  0  0  0  0
  -21.6776   -6.8951   21.4254 O   0  0  0  0  0  0
  -22.2266  -14.5448   20.6634 O   0  0  0  0  0  0
  -24.6632  -31.8338   23.1863 C   0  0  0  0  0  0
  -25.9381  -32.4588   23.8212 C   0  0  1  0  0  0
  -27.0361  -26.9851   19.9405 C   0  0  0  0  0  0
  -25.6116  -33.8407   24.2107 N   0  0  0  0  0  0
  -23.4501  -30.4786   21.5508 C   0  0  2  0  0  0
  -24.8454  -28.9186   20.0743 C   0  0  0  0  0  0
  -22.7575  -29.4554   22.4847 C   0  0  0  0  0  0
  -18.0289  -28.1404   22.8449 C   0  0  0  0  0  0
  -24.1538  -36.7217   23.2639 C   0  0  0  0  0  0
  -26.0294  -30.6230   21.4153 C   0  0  0  0  0  0
  -26.0500  -29.2418   20.7116 C   0  0  0  0  0  0
  -27.1506  -28.2768   20.6515 C   0  0  0  0  0  0
  -25.8242  -26.8553   19.2451 C   0  0  0  0  0  0
  -24.7551  -27.7454   19.3342 C   0  0  0  0  0  0
  -23.6557  -29.8555   20.1560 C   0  0  0  0  0  0
  -25.4179  -36.2963   24.0286 C   0  0  1  0  0  0
  -20.5906  -28.3754   23.1212 C   0  0  2  0  0  0
  -20.6814  -26.9468   22.5389 C   0  0  0  0  0  0
  -19.5817  -26.6390   21.5177 C   0  0  0  0  0  0
  -18.1983  -26.7925   22.1564 C   0  0  0  0  0  0
  -19.1547  -28.8895   23.2818 C   0  0  0  0  0  0
  -18.9479  -30.1478   23.8874 C   0  0  0  0  0  0
  -17.6491  -30.6620   24.0559 C   0  0  0  0  0  0
  -25.9157  -34.9344   23.4966 C   0  0  0  0  0  0
  -16.5373  -29.9137   23.6354 C   0  0  0  0  0  0
  -16.7271  -28.6544   23.0380 C   0  0  0  0  0  0
  -26.4626  -31.6511   25.0723 C   0  0  0  0  0  0
  -25.3768  -31.3797   26.1394 C   0  0  0  0  0  0
  -27.0484  -30.2839   24.6467 C   0  0  0  0  0  0
  -27.6101  -32.4344   25.7541 C   0  0  0  0  0  0
  -27.5577  -37.1778   24.8451 C   0  0  0  0  0  0
  -21.4267  -29.3054   22.3565 N   0  0  0  0  0  0
  -26.4305  -37.3702   23.9374 N   0  0  0  0  0  0
  -24.7403  -31.0055   22.0985 N   0  0  0  0  0  0
  -23.4197  -28.8090   23.2994 O   0  0  0  0  0  0
  -27.9115  -25.8038   19.8593 O   0  0  0  0  0  0
  -26.5749  -34.8870   22.4543 O   0  0  0  0  0  0
  -23.5749  -32.1368   23.7027 O   0  0  0  0  0  0
  -27.6168  -18.3922   17.8292 C   0  0  0  0  0  0
  -24.9826  -18.5019   18.2563 C   0  0  0  0  0  0
  -27.0961  -19.7671   18.2324 C   0  0  0  0  0  0
  -25.6888  -19.7393   18.3961 C   0  0  0  0  0  0
  -26.8153  -17.1146   17.6478 C   0  0  0  0  0  0
  -24.0746  -20.9317   19.7759 C   0  0  0  0  0  0
  -24.5121  -21.6413   17.4618 C   0  0  0  0  0  0
  -27.8887  -21.2786   18.3865 C   0  0  0  0  0  0
  -27.2064  -15.5398   17.0111 C   0  0  0  0  0  0
  -27.6509  -22.6817   19.4288 C   0  0  0  0  0  0
  -27.2038  -13.7666   17.5735 C   0  0  0  0  0  0
  -28.3440  -12.7246   18.6841 C   0  0  0  0  0  0
  -27.4805  -24.4006   19.1310 C   0  0  0  0  0  0
  -25.4929  -17.2863   17.8878 N   0  0  0  0  0  0
  -29.8301  -13.6285   20.1337 N   0  0  0  0  0  0
  -24.9945  -20.9430   18.6508 N   0  0  0  0  0  0
  -31.7988  -12.9905   18.2918 H   0  0  0  0  0  0
  -30.6310  -11.9803   17.6525 H   0  0  0  0  0  0
  -29.4848  -14.3823   16.9570 H   0  0  0  0  0  0
  -30.4447  -15.2839   18.0166 H   0  0  0  0  0  0
  -27.3458  -15.6150   19.2885 H   0  0  0  0  0  0
  -28.6839  -15.7080   20.0421 H   0  0  0  0  0  0
  -27.5340  -14.1551   21.7103 H   0  0  0  0  0  0
  -28.2308  -11.1450   20.8872 H   0  0  0  0  0  0
  -28.9203  -12.1179   22.1453 H   0  0  0  0  0  0
  -25.2631   -9.6233   22.4676 H   0  0  0  0  0  0
  -24.0202   -7.5041   22.7405 H   0  0  0  0  0  0
  -21.0950   -8.8392   19.8770 H   0  0  0  0  0  0
  -22.3451  -10.9461   19.5813 H   0  0  0  0  0  0
  -21.2214   -7.6173   23.9817 H   0  0  0  0  0  0
  -21.1494   -6.0503   25.9086 H   0  0  0  0  0  0
  -22.0563   -2.7663   23.2778 H   0  0  0  0  0  0
  -22.3266  -11.9520   22.4417 H   0  0  0  0  0  0
  -21.0307  -13.0925   22.2903 H   0  0  0  0  0  0
  -24.4072  -15.7954   20.1415 H   0  0  0  0  0  0
  -26.0511  -15.6306   19.9975 H   0  0  0  0  0  0
  -26.7429  -32.5056   23.0892 H   0  0  0  0  0  0
  -25.0199  -33.9493   25.0209 H   0  0  0  0  0  0
  -22.7592  -31.3167   21.4244 H   0  0  0  0  0  0
  -23.3763  -35.9576   23.3294 H   0  0  0  0  0  0
  -24.3609  -36.8865   22.2051 H   0  0  0  0  0  0
  -23.7343  -37.6421   23.6700 H   0  0  0  0  0  0
  -26.2433  -31.3782   20.6628 H   0  0  0  0  0  0
  -26.8823  -30.6256   22.0777 H   0  0  0  0  0  0
  -28.0638  -28.4902   21.1890 H   0  0  0  0  0  0
  -25.6131  -26.0326   18.5846 H   0  0  0  0  0  0
  -23.8463  -27.5278   18.7888 H   0  0  0  0  0  0
  -23.8088  -30.6510   19.4249 H   0  0  0  0  0  0
  -22.7459  -29.3449   19.8321 H   0  0  0  0  0  0
  -25.1373  -36.1747   25.0784 H   0  0  0  0  0  0
  -20.9971  -28.3363   24.1330 H   0  0  0  0  0  0
  -20.5714  -26.2379   23.3600 H   0  0  0  0  0  0
  -21.6702  -26.7512   22.1183 H   0  0  0  0  0  0
  -19.7032  -25.6295   21.1272 H   0  0  0  0  0  0
  -19.6786  -27.3145   20.6679 H   0  0  0  0  0  0
  -17.4244  -26.6608   21.3990 H   0  0  0  0  0  0
  -18.0442  -26.0088   22.9001 H   0  0  0  0  0  0
  -19.7971  -30.7273   24.2249 H   0  0  0  0  0  0
  -17.5079  -31.6294   24.5162 H   0  0  0  0  0  0
  -15.5401  -30.3057   23.7714 H   0  0  0  0  0  0
  -15.8637  -28.0864   22.7166 H   0  0  0  0  0  0
  -24.5948  -30.7132   25.7745 H   0  0  0  0  0  0
  -24.8999  -32.3020   26.4697 H   0  0  0  0  0  0
  -25.8046  -30.9061   27.0227 H   0  0  0  0  0  0
  -26.3129  -29.6541   24.1449 H   0  0  0  0  0  0
  -27.3920  -29.7188   25.5135 H   0  0  0  0  0  0
  -27.9141  -30.3943   23.9940 H   0  0  0  0  0  0
  -27.2595  -33.3648   26.1997 H   0  0  0  0  0  0
  -28.3977  -32.6881   25.0447 H   0  0  0  0  0  0
  -28.0669  -31.8556   26.5559 H   0  0  0  0  0  0
  -28.2573  -38.0098   24.7472 H   0  0  0  0  0  0
  -28.1101  -36.2596   24.6322 H   0  0  0  0  0  0
  -27.2274  -37.1480   25.8856 H   0  0  0  0  0  0
  -20.9490  -29.8783   21.6736 H   0  0  0  0  0  0
  -26.0127  -38.2748   24.1357 H   0  0  0  0  0  0
  -28.6722  -18.3247   17.6067 H   0  0  0  0  0  0
  -23.9143  -18.5058   18.4259 H   0  0  0  0  0  0
  -24.4581  -20.3358   20.6016 H   0  0  0  0  0  0
  -23.1033  -20.5466   19.4676 H   0  0  0  0  0  0
  -23.9313  -21.9490   20.1440 H   0  0  0  0  0  0
  -25.3160  -21.8839   16.7553 H   0  0  0  0  0  0
  -24.0421  -22.5802   17.7576 H   0  0  0  0  0  0
  -23.7734  -21.0387   16.9338 H   0  0  0  0  0  0
  -28.0369  -21.6454   17.3746 H   0  0  0  0  0  0
  -28.8987  -20.9707   18.6447 H   0  0  0  0  0  0
  -26.5078  -15.4858   16.1739 H   0  0  0  0  0  0
  -28.1261  -15.7735   16.4994 H   0  0  0  0  0  0
  -28.4045  -22.5854   20.2118 H   0  0  0  0  0  0
  -26.7466  -22.4514   19.9841 H   0  0  0  0  0  0
  -26.1994  -13.6000   17.9620 H   0  0  0  0  0  0
  -27.1820  -13.2021   16.6492 H   0  0  0  0  0  0
  -28.6830  -12.0294   17.9218 H   0  0  0  0  0  0
  -27.7099  -11.9147   19.0157 H   0  0  0  0  0  0
  -26.4030  -24.3893   19.2593 H   0  0  0  0  0  0
  -27.6092  -24.5394   18.0539 H   0  0  0  0  0  0
  -29.8278  -14.6318   20.0509 H   0  0  0  0  0  0
  1 25  1  0  0  0
  1 30  2  0  0  0
  1 85  1  0  0  0
  2  3  1  0  0  0
  2 25  1  0  0  0
  2 87  1  0  0  0
  2 88  1  0  0  0
  3  4  1  0  0  0
  3 89  1  0  0  0
  3 90  1  0  0  0
  4  5  1  0  0  0
  4 91  1  0  0  0
  4 92  1  0  0  0
  5  6  1  0  0  0
  5 26  1  0  0  0
  5 93  1  0  0  0
  6 25  1  0  0  0
  6 94  1  0  0  0
  6 95  1  0  0  0
  7  8  2  0  0  0
  7 26  1  0  0  0
  7 29  1  0  0  0
  8  9  1  0  0  0
  8 22  1  0  0  0
  9 10  1  0  0  0
  9 27  2  0  0  0
 10 11  2  0  0  0
 10 15  1  0  0  0
 11 12  1  0  0  0
 11 96  1  0  0  0
 12 13  2  0  0  0
 12 97  1  0  0  0
 13 14  1  0  0  0
 13 31  1  0  0  0
 14 15  2  0  0  0
 14 98  1  0  0  0
 15 99  1  0  0  0
 16 17  2  0  0  0
 16 21  1  0  0  0
 16 31  1  0  0  0
 17 18  1  0  0  0
 17100  1  0  0  0
 18 19  2  0  0  0
 18101  1  0  0  0
 19 20  1  0  0  0
 19 24  1  0  0  0
 20 21  2  0  0  0
 20102  1  0  0  0
 21 23  1  0  0  0
 22 28  1  0  0  0
 22 32  2  0  0  0
 26 27  1  0  0  0
 28103  1  0  0  0
 28104  1  0  0  0
 29105  1  0  0  0
 29106  1  0  0  0
 33 34  1  0  0  0
 33 66  1  0  0  0
 33 70  2  0  0  0
 34 36  1  0  0  0
 34 59  1  0  0  0
 34107  1  0  0  0
 35 44  2  0  0  0
 35 45  1  0  0  0
 35 68  1  0  0  0
 36 56  1  0  0  0
 36108  1  0  0  0
 37 39  1  0  0  0
 37 47  1  0  0  0
 37 66  1  0  0  0
 37109  1  0  0  0
 38 43  2  0  0  0
 38 46  1  0  0  0
 38 47  1  0  0  0
 39 64  1  0  0  0
 39 67  2  0  0  0
 40 52  1  0  0  0
 40 53  2  0  0  0
 40 58  1  0  0  0
 41110  1  0  0  0
 41111  1  0  0  0
 41112  1  0  0  0
 41 48  1  0  0  0
 42 43  1  0  0  0
 42 66  1  0  0  0
 42113  1  0  0  0
 42114  1  0  0  0
 43 44  1  0  0  0
 44115  1  0  0  0
 45 46  2  0  0  0
 45116  1  0  0  0
 46117  1  0  0  0
 47118  1  0  0  0
 47119  1  0  0  0
 48 56  1  0  0  0
 48 65  1  0  0  0
 48120  1  0  0  0
 49 50  1  0  0  0
 49 53  1  0  0  0
 49 64  1  0  0  0
 49121  1  0  0  0
 50 51  1  0  0  0
 50122  1  0  0  0
 50123  1  0  0  0
 51 52  1  0  0  0
 51124  1  0  0  0
 51125  1  0  0  0
 52126  1  0  0  0
 52127  1  0  0  0
 53 54  1  0  0  0
 54 55  2  0  0  0
 54128  1  0  0  0
 55 57  1  0  0  0
 55129  1  0  0  0
 56 69  2  0  0  0
 57 58  2  0  0  0
 57130  1  0  0  0
 58131  1  0  0  0
 59 60  1  0  0  0
 59 61  1  0  0  0
 59 62  1  0  0  0
 60132  1  0  0  0
 60133  1  0  0  0
 60134  1  0  0  0
 61135  1  0  0  0
 61136  1  0  0  0
 61137  1  0  0  0
 62138  1  0  0  0
 62139  1  0  0  0
 62140  1  0  0  0
 63 65  1  0  0  0
 63141  1  0  0  0
 63142  1  0  0  0
 63143  1  0  0  0
 64144  1  0  0  0
 65145  1  0  0  0
 68 83  1  0  0  0
 71 73  2  0  0  0
 71 75  1  0  0  0
 71146  1  0  0  0
 72 74  2  0  0  0
 72 84  1  0  0  0
 72147  1  0  0  0
 73 74  1  0  0  0
 73 78  1  0  0  0
 74 86  1  0  0  0
 75 79  1  0  0  0
 75 84  2  0  0  0
 76 86  1  0  0  0
 76148  1  0  0  0
 76149  1  0  0  0
 76150  1  0  0  0
 77 86  1  0  0  0
 77151  1  0  0  0
 77152  1  0  0  0
 77153  1  0  0  0
 78 80  1  0  0  0
 78154  1  0  0  0
 78155  1  0  0  0
 79 81  1  0  0  0
 79156  1  0  0  0
 79157  1  0  0  0
 80 83  1  0  0  0
 80158  1  0  0  0
 80159  1  0  0  0
 81 82  1  0  0  0
 81160  1  0  0  0
 81161  1  0  0  0
 82 85  1  0  0  0
 82162  1  0  0  0
 82163  1  0  0  0
 83164  1  0  0  0
 83165  1  0  0  0
 85166  1  0  0  0
M  ISO  4   1 100  68 101  83 101  85 100
M  END
> <chiral flag>
0

> <version>
0

> <s_m_source_file>
/data/baiqing/PycharmProjects/Reinvent-master-3.2/result/LINK_invent/BTK/process_docking_weight1_custom_sum_contain_oxygen_bond_distance_aromatic_linkinvent_7_9_3/rearranged_h_0084.sdf

> <i_m_source_file_index>
28

> <r_mmod_Potential_Energy-OPLS-2005>
7725.3798828125

> <r_mmod_Stretch_Energy-OPLS-2005>
3229.85717773438

> <r_mmod_Bend_Energy-OPLS-2005>
1020.19989013672

> <r_mmod_Torsional_Energy-OPLS-2005>
375.040496826172

> <r_mmod_Improper_Torsional_Energy-OPLS-2005>
58.660099029541

> <r_mmod_Van_der_Waal_Energy-OPLS-2005>
1836.11999511719

> <r_mmod_Electrostatic_Energy-OPLS-2005>
-469.161437988281

> <r_mmod_Solvation_Energy-OPLS-2005>
-220.23323059082

> <b_mmod_Minimization_Converged-OPLS-2005>
0

> <r_mmod_RMS_Derivative-OPLS-2005>
16.8243274688721

$$$$
28
                    3D
 Structure written by MMmdl.
152160  0  0  1  0            999 V2000
  -30.6393  -14.5129   20.5233 C   0  0  0  0  0  0
  -30.4274  -12.3143   19.4267 C   0  0  0  0  0  0
  -29.4987  -12.5107   18.2087 C   0  0  0  0  0  0
  -28.0185  -12.3542   18.6210 C   0  0  0  0  0  0
  -27.6561  -13.1990   19.8718 C   0  0  2  0  0  0
  -28.6972  -12.9856   20.9923 C   0  0  0  0  0  0
  -25.2562  -13.8132   20.5669 C   0  0  0  0  0  0
  -24.1820  -13.0409   20.9170 C   0  0  0  0  0  0
  -24.6382  -11.6892   20.8700 C   0  0  0  0  0  0
  -23.9039  -10.4292   21.0407 C   0  0  0  0  0  0
  -24.3601   -9.4211   21.9187 C   0  0  0  0  0  0
  -23.6271   -8.2238   22.0737 C   0  0  0  0  0  0
  -22.4247   -8.0261   21.3535 C   0  0  0  0  0  0
  -21.9881   -9.0215   20.4629 C   0  0  0  0  0  0
  -22.7206  -10.2107   20.3055 C   0  0  0  0  0  0
  -21.6854   -6.0713   22.5285 C   0  0  0  0  0  0
  -21.3997   -6.5608   23.8205 C   0  0  0  0  0  0
  -21.3681   -5.6771   24.9168 C   0  0  0  0  0  0
  -21.6062   -4.3032   24.7227 C   0  0  0  0  0  0
  -21.8814   -3.8129   23.4350 C   0  0  0  0  0  0
  -21.9175   -4.6939   22.3406 C   0  0  0  0  0  0
  -22.7851  -13.5199   21.1863 C   0  0  0  0  0  0
  -22.1662   -4.2111   21.0983 F   0  0  0  0  0  0
  -21.5659   -3.4534   25.7750 F   0  0  0  0  0  0
  -30.0221  -13.3017   20.4378 N   0  0  0  0  0  0
  -26.2968  -12.9291   20.3329 N   0  0  0  0  0  0
  -25.9290  -11.6459   20.5708 N   0  0  0  0  0  0
  -22.0509  -12.8184   22.0431 N   0  0  0  0  0  0
  -25.4327  -15.1847   20.4077 N   0  0  0  0  0  0
  -31.7871  -14.7147   20.1197 O   0  0  0  0  0  0
  -21.6640   -6.8847   21.4235 O   0  0  0  0  0  0
  -22.3538  -14.5525   20.6737 O   0  0  0  0  0  0
  -24.6171  -31.8678   23.2107 C   0  0  0  0  0  0
  -25.9064  -32.4819   23.8392 C   0  0  1  0  0  0
  -27.2113  -27.4074   20.0975 C   0  0  0  0  0  0
  -25.5928  -33.8614   24.2341 N   0  0  0  0  0  0
  -23.4042  -30.4942   21.5518 C   0  0  2  0  0  0
  -24.8467  -28.9646   20.1047 C   0  0  0  0  0  0
  -22.7421  -29.4654   22.4969 C   0  0  0  0  0  0
  -18.0269  -28.1370   22.8489 C   0  0  0  0  0  0
  -24.1501  -36.7306   23.2636 C   0  0  0  0  0  0
  -25.9362  -30.8243   21.3697 C   0  0  0  0  0  0
  -26.0107  -29.4599   20.7101 C   0  0  0  0  0  0
  -27.1999  -28.6924   20.6977 C   0  0  0  0  0  0
  -26.0366  -26.9375   19.4762 C   0  0  0  0  0  0
  -24.8591  -27.7055   19.4787 C   0  0  0  0  0  0
  -23.6125  -29.8364   20.1615 C   0  0  0  0  0  0
  -25.4120  -36.3114   24.0342 C   0  0  1  0  0  0
  -20.5865  -28.3662   23.1318 C   0  0  2  0  0  0
  -20.6773  -26.9398   22.5404 C   0  0  0  0  0  0
  -19.5752  -26.6375   21.5205 C   0  0  0  0  0  0
  -18.1928  -26.7919   22.1621 C   0  0  0  0  0  0
  -19.1524  -28.8826   23.2912 C   0  0  0  0  0  0
  -18.9450  -30.1431   23.8927 C   0  0  0  0  0  0
  -17.6455  -30.6570   24.0560 C   0  0  0  0  0  0
  -25.9044  -34.9475   23.5134 C   0  0  0  0  0  0
  -16.5341  -29.9078   23.6306 C   0  0  0  0  0  0
  -16.7260  -28.6494   23.0332 C   0  0  0  0  0  0
  -26.4472  -31.6586   25.0715 C   0  0  0  0  0  0
  -25.3721  -31.3684   26.1447 C   0  0  0  0  0  0
  -27.0297  -30.3033   24.6091 C   0  0  0  0  0  0
  -27.6068  -32.4276   25.7473 C   0  0  0  0  0  0
  -27.5600  -37.1816   24.8469 C   0  0  0  0  0  0
  -21.4145  -29.3040   22.3725 N   0  0  0  0  0  0
  -26.4311  -37.3796   23.9405 N   0  0  0  0  0  0
  -24.6705  -31.0763   22.1027 N   0  0  0  0  0  0
  -23.4189  -28.8177   23.2991 O   0  0  0  0  0  0
  -28.3297  -26.5967   20.1320 O   0  0  0  0  0  0
  -26.5581  -34.8920   22.4685 O   0  0  0  0  0  0
  -23.5357  -32.1438   23.7495 O   0  0  0  0  0  0
  -28.2164  -20.1990   20.9747 C   0  0  0  0  0  0
  -28.8393  -19.2615   20.1938 C   0  0  0  0  0  0
  -28.7638  -17.7385   20.2856 C   0  0  0  0  0  0
  -28.3697  -24.0287   20.0066 C   0  0  0  0  0  0
  -28.0809  -22.7589   20.8756 C   0  0  0  0  0  0
  -30.0511  -16.9835   20.7376 C   0  0  0  0  0  0
  -28.1337  -25.3380   20.8217 C   0  0  0  0  0  0
  -29.4987  -19.9578   19.1742 N   0  0  0  0  0  0
  -29.3020  -21.2464   19.3086 N   0  0  0  0  0  0
  -28.5071  -21.4283   20.3947 N   0  0  0  0  0  0
  -29.8233  -15.5262   20.8866 N   0  0  0  0  0  0
  -31.4746  -12.4169   19.1381 H   0  0  0  0  0  0
  -30.3270  -11.3039   19.8237 H   0  0  0  0  0  0
  -29.7460  -11.7972   17.4190 H   0  0  0  0  0  0
  -29.6563  -13.5037   17.7843 H   0  0  0  0  0  0
  -27.8437  -11.2968   18.8253 H   0  0  0  0  0  0
  -27.3668  -12.6212   17.7874 H   0  0  0  0  0  0
  -27.6960  -14.2433   19.5598 H   0  0  0  0  0  0
  -28.6813  -11.9508   21.3304 H   0  0  0  0  0  0
  -28.4629  -13.5812   21.8779 H   0  0  0  0  0  0
  -25.2747   -9.5673   22.4770 H   0  0  0  0  0  0
  -23.9979   -7.4609   22.7446 H   0  0  0  0  0  0
  -21.0814   -8.8690   19.8927 H   0  0  0  0  0  0
  -22.3638  -10.9617   19.6156 H   0  0  0  0  0  0
  -21.1988   -7.6115   23.9684 H   0  0  0  0  0  0
  -21.1535   -6.0531   25.9076 H   0  0  0  0  0  0
  -22.0590   -2.7591   23.2867 H   0  0  0  0  0  0
  -22.4114  -11.9789   22.4762 H   0  0  0  0  0  0
  -21.1130  -13.1220   22.2681 H   0  0  0  0  0  0
  -24.6650  -15.8395   20.4948 H   0  0  0  0  0  0
  -26.2777  -15.6113   20.0533 H   0  0  0  0  0  0
  -26.7125  -32.5502   23.1134 H   0  0  0  0  0  0
  -25.0151  -33.9777   25.0541 H   0  0  0  0  0  0
  -22.6943  -31.3120   21.4170 H   0  0  0  0  0  0
  -23.3769  -35.9638   23.3310 H   0  0  0  0  0  0
  -24.3601  -36.8896   22.2050 H   0  0  0  0  0  0
  -23.7248  -37.6517   23.6622 H   0  0  0  0  0  0
  -26.0591  -31.5955   20.6076 H   0  0  0  0  0  0
  -26.8211  -30.8699   21.9926 H   0  0  0  0  0  0
  -28.0955  -29.0626   21.1766 H   0  0  0  0  0  0
  -26.0283  -25.9686   18.9953 H   0  0  0  0  0  0
  -23.9696  -27.3285   18.9922 H   0  0  0  0  0  0
  -23.7220  -30.6175   19.4076 H   0  0  0  0  0  0
  -22.7335  -29.2632   19.8602 H   0  0  0  0  0  0
  -25.1304  -36.1997   25.0835 H   0  0  0  0  0  0
  -20.9963  -28.3214   24.1446 H   0  0  0  0  0  0
  -20.5691  -26.2263   23.3591 H   0  0  0  0  0  0
  -21.6647  -26.7450   22.1197 H   0  0  0  0  0  0
  -19.6925  -25.6289   21.1241 H   0  0  0  0  0  0
  -19.6700  -27.3183   20.6736 H   0  0  0  0  0  0
  -17.4208  -26.6656   21.4018 H   0  0  0  0  0  0
  -18.0335  -26.0043   22.9004 H   0  0  0  0  0  0
  -19.7918  -30.7231   24.2336 H   0  0  0  0  0  0
  -17.4997  -31.6261   24.5150 H   0  0  0  0  0  0
  -15.5347  -30.2996   23.7598 H   0  0  0  0  0  0
  -15.8660  -28.0816   22.7043 H   0  0  0  0  0  0
  -24.5903  -30.7038   25.7757 H   0  0  0  0  0  0
  -24.8894  -32.2833   26.4894 H   0  0  0  0  0  0
  -25.8048  -30.8835   27.0208 H   0  0  0  0  0  0
  -26.2843  -29.6799   24.1143 H   0  0  0  0  0  0
  -27.4078  -29.7260   25.4537 H   0  0  0  0  0  0
  -27.8676  -30.4360   23.9240 H   0  0  0  0  0  0
  -27.2730  -33.3573   26.2085 H   0  0  0  0  0  0
  -28.3859  -32.6828   25.0280 H   0  0  0  0  0  0
  -28.0751  -31.8360   26.5349 H   0  0  0  0  0  0
  -28.2624  -38.0107   24.7513 H   0  0  0  0  0  0
  -28.1090  -36.2638   24.6310 H   0  0  0  0  0  0
  -27.2305  -37.1492   25.8866 H   0  0  0  0  0  0
  -20.9294  -29.8802   21.6996 H   0  0  0  0  0  0
  -26.0214  -38.2892   24.1361 H   0  0  0  0  0  0
  -27.5908  -20.0993   21.8529 H   0  0  0  0  0  0
  -28.4339  -17.3349   19.3258 H   0  0  0  0  0  0
  -27.9650  -17.4857   20.9826 H   0  0  0  0  0  0
  -27.7173  -24.0232   19.1318 H   0  0  0  0  0  0
  -29.3970  -24.0192   19.6407 H   0  0  0  0  0  0
  -27.0065  -22.7084   21.0648 H   0  0  0  0  0  0
  -28.5466  -22.8915   21.8526 H   0  0  0  0  0  0
  -30.3924  -17.3727   21.6971 H   0  0  0  0  0  0
  -30.8481  -17.1662   20.0143 H   0  0  0  0  0  0
  -28.8267  -25.3409   21.6643 H   0  0  0  0  0  0
  -27.1433  -25.2914   21.2816 H   0  0  0  0  0  0
  -28.9085  -15.2386   21.2018 H   0  0  0  0  0  0
  1 25  1  0  0  0
  1 30  2  0  0  0
  1 81  1  0  0  0
  2  3  1  0  0  0
  2 25  1  0  0  0
  2 82  1  0  0  0
  2 83  1  0  0  0
  3  4  1  0  0  0
  3 84  1  0  0  0
  3 85  1  0  0  0
  4  5  1  0  0  0
  4 86  1  0  0  0
  4 87  1  0  0  0
  5  6  1  0  0  0
  5 26  1  0  0  0
  5 88  1  0  0  0
  6 25  1  0  0  0
  6 89  1  0  0  0
  6 90  1  0  0  0
  7  8  2  0  0  0
  7 26  1  0  0  0
  7 29  1  0  0  0
  8  9  1  0  0  0
  8 22  1  0  0  0
  9 10  1  0  0  0
  9 27  2  0  0  0
 10 11  2  0  0  0
 10 15  1  0  0  0
 11 12  1  0  0  0
 11 91  1  0  0  0
 12 13  2  0  0  0
 12 92  1  0  0  0
 13 14  1  0  0  0
 13 31  1  0  0  0
 14 15  2  0  0  0
 14 93  1  0  0  0
 15 94  1  0  0  0
 16 17  2  0  0  0
 16 21  1  0  0  0
 16 31  1  0  0  0
 17 18  1  0  0  0
 17 95  1  0  0  0
 18 19  2  0  0  0
 18 96  1  0  0  0
 19 20  1  0  0  0
 19 24  1  0  0  0
 20 21  2  0  0  0
 20 97  1  0  0  0
 21 23  1  0  0  0
 22 28  1  0  0  0
 22 32  2  0  0  0
 26 27  1  0  0  0
 28 98  1  0  0  0
 28 99  1  0  0  0
 29100  1  0  0  0
 29101  1  0  0  0
 33 34  1  0  0  0
 33 66  1  0  0  0
 33 70  2  0  0  0
 34 36  1  0  0  0
 34 59  1  0  0  0
 34102  1  0  0  0
 35 44  2  0  0  0
 35 45  1  0  0  0
 35 68  1  0  0  0
 36 56  1  0  0  0
 36103  1  0  0  0
 37 39  1  0  0  0
 37 47  1  0  0  0
 37 66  1  0  0  0
 37104  1  0  0  0
 38 43  2  0  0  0
 38 46  1  0  0  0
 38 47  1  0  0  0
 39 64  1  0  0  0
 39 67  2  0  0  0
 40 52  1  0  0  0
 40 53  2  0  0  0
 40 58  1  0  0  0
 41105  1  0  0  0
 41106  1  0  0  0
 41107  1  0  0  0
 41 48  1  0  0  0
 42 43  1  0  0  0
 42 66  1  0  0  0
 42108  1  0  0  0
 42109  1  0  0  0
 43 44  1  0  0  0
 44110  1  0  0  0
 45 46  2  0  0  0
 45111  1  0  0  0
 46112  1  0  0  0
 47113  1  0  0  0
 47114  1  0  0  0
 48 56  1  0  0  0
 48 65  1  0  0  0
 48115  1  0  0  0
 49 50  1  0  0  0
 49 53  1  0  0  0
 49 64  1  0  0  0
 49116  1  0  0  0
 50 51  1  0  0  0
 50117  1  0  0  0
 50118  1  0  0  0
 51 52  1  0  0  0
 51119  1  0  0  0
 51120  1  0  0  0
 52121  1  0  0  0
 52122  1  0  0  0
 53 54  1  0  0  0
 54 55  2  0  0  0
 54123  1  0  0  0
 55 57  1  0  0  0
 55124  1  0  0  0
 56 69  2  0  0  0
 57 58  2  0  0  0
 57125  1  0  0  0
 58126  1  0  0  0
 59 60  1  0  0  0
 59 61  1  0  0  0
 59 62  1  0  0  0
 60127  1  0  0  0
 60128  1  0  0  0
 60129  1  0  0  0
 61130  1  0  0  0
 61131  1  0  0  0
 61132  1  0  0  0
 62133  1  0  0  0
 62134  1  0  0  0
 62135  1  0  0  0
 63 65  1  0  0  0
 63136  1  0  0  0
 63137  1  0  0  0
 63138  1  0  0  0
 64139  1  0  0  0
 65140  1  0  0  0
 68 77  1  0  0  0
 71 72  2  0  0  0
 71 80  1  0  0  0
 71141  1  0  0  0
 72 73  1  0  0  0
 72 78  1  0  0  0
 73 76  1  0  0  0
 73142  1  0  0  0
 73143  1  0  0  0
 74 75  1  0  0  0
 74 77  1  0  0  0
 74144  1  0  0  0
 74145  1  0  0  0
 75 80  1  0  0  0
 75146  1  0  0  0
 75147  1  0  0  0
 76 81  1  0  0  0
 76148  1  0  0  0
 76149  1  0  0  0
 77150  1  0  0  0
 77151  1  0  0  0
 78 79  2  0  0  0
 79 80  1  0  0  0
 81152  1  0  0  0
M  ISO  4   1 100  68 101  77 101  81 100
M  END
> <chiral flag>
0

> <version>
0

> <s_m_source_file>
/data/baiqing/PycharmProjects/Reinvent-master-3.2/result/LINK_invent/BTK/process_docking_weight1_custom_sum_contain_oxygen_bond_distance_aromatic_linkinvent_7_9_3/rearranged_h_0084.sdf

> <i_m_source_file_index>
29

> <r_mmod_Potential_Energy-OPLS-2005>
-97.7801895141602

> <r_mmod_Stretch_Energy-OPLS-2005>
41.5609130859375

> <r_mmod_Bend_Energy-OPLS-2005>
104.283058166504

> <r_mmod_Torsional_Energy-OPLS-2005>
219.888259887695

> <r_mmod_Improper_Torsional_Energy-OPLS-2005>
5.40003347396851

> <r_mmod_Van_der_Waal_Energy-OPLS-2005>
123.579742431641

> <r_mmod_Electrostatic_Energy-OPLS-2005>
-377.597290039062

> <r_mmod_Solvation_Energy-OPLS-2005>
-236.130554199219

> <b_mmod_Minimization_Converged-OPLS-2005>
0

> <r_mmod_RMS_Derivative-OPLS-2005>
4.23205900192261

$$$$
29
                    3D
 Structure written by MMmdl.
169177  0  0  1  0            999 V2000
  -30.6509  -14.5354   20.5450 C   0  0  0  0  0  0
  -30.4356  -12.3399   19.4238 C   0  0  0  0  0  0
  -29.4988  -12.4990   18.2076 C   0  0  0  0  0  0
  -28.0209  -12.3480   18.6241 C   0  0  0  0  0  0
  -27.6582  -13.2026   19.8674 C   0  0  2  0  0  0
  -28.7025  -13.0032   20.9892 C   0  0  0  0  0  0
  -25.2607  -13.8148   20.5696 C   0  0  0  0  0  0
  -24.1857  -13.0448   20.9199 C   0  0  0  0  0  0
  -24.6392  -11.6903   20.8743 C   0  0  0  0  0  0
  -23.9052  -10.4300   21.0414 C   0  0  0  0  0  0
  -24.3604   -9.4216   21.9189 C   0  0  0  0  0  0
  -23.6294   -8.2242   22.0741 C   0  0  0  0  0  0
  -22.4277   -8.0283   21.3535 C   0  0  0  0  0  0
  -21.9911   -9.0258   20.4637 C   0  0  0  0  0  0
  -22.7228  -10.2147   20.3058 C   0  0  0  0  0  0
  -21.6852   -6.0749   22.5286 C   0  0  0  0  0  0
  -21.4017   -6.5651   23.8218 C   0  0  0  0  0  0
  -21.3654   -5.6796   24.9171 C   0  0  0  0  0  0
  -21.6038   -4.3058   24.7218 C   0  0  0  0  0  0
  -21.8816   -3.8158   23.4339 C   0  0  0  0  0  0
  -21.9203   -4.6980   22.3401 C   0  0  0  0  0  0
  -22.7880  -13.5250   21.1868 C   0  0  0  0  0  0
  -22.1667   -4.2170   21.0977 F   0  0  0  0  0  0
  -21.5620   -3.4535   25.7731 F   0  0  0  0  0  0
  -30.0252  -13.3305   20.4318 N   0  0  0  0  0  0
  -26.3016  -12.9305   20.3330 N   0  0  0  0  0  0
  -25.9309  -11.6474   20.5749 N   0  0  0  0  0  0
  -22.0505  -12.8246   22.0413 N   0  0  0  0  0  0
  -25.4349  -15.1861   20.4109 N   0  0  0  0  0  0
  -31.8000  -14.7325   20.1420 O   0  0  0  0  0  0
  -21.6630   -6.8891   21.4254 O   0  0  0  0  0  0
  -22.3575  -14.5568   20.6730 O   0  0  0  0  0  0
  -24.6188  -31.8637   23.2059 C   0  0  0  0  0  0
  -25.9072  -32.4788   23.8357 C   0  0  1  0  0  0
  -27.2258  -27.3847   20.0963 C   0  0  0  0  0  0
  -25.5921  -33.8593   24.2283 N   0  0  0  0  0  0
  -23.4074  -30.4883   21.5480 C   0  0  2  0  0  0
  -24.8502  -28.9465   20.1130 C   0  0  0  0  0  0
  -22.7420  -29.4651   22.4968 C   0  0  0  0  0  0
  -18.0273  -28.1380   22.8479 C   0  0  0  0  0  0
  -24.1492  -36.7307   23.2637 C   0  0  0  0  0  0
  -25.9398  -30.8133   21.3659 C   0  0  0  0  0  0
  -26.0141  -29.4453   20.7099 C   0  0  0  0  0  0
  -27.2037  -28.6729   20.6938 C   0  0  0  0  0  0
  -26.0370  -26.9120   19.4934 C   0  0  0  0  0  0
  -24.8589  -27.6821   19.5009 C   0  0  0  0  0  0
  -23.6168  -29.8220   20.1623 C   0  0  0  0  0  0
  -25.4116  -36.3093   24.0324 C   0  0  1  0  0  0
  -20.5862  -28.3683   23.1295 C   0  0  2  0  0  0
  -20.6770  -26.9416   22.5411 C   0  0  0  0  0  0
  -19.5755  -26.6386   21.5206 C   0  0  0  0  0  0
  -18.1929  -26.7920   22.1616 C   0  0  0  0  0  0
  -19.1520  -28.8848   23.2885 C   0  0  0  0  0  0
  -18.9457  -30.1451   23.8903 C   0  0  0  0  0  0
  -17.6463  -30.6590   24.0566 C   0  0  0  0  0  0
  -25.9050  -34.9461   23.5099 C   0  0  0  0  0  0
  -16.5352  -29.9094   23.6332 C   0  0  0  0  0  0
  -16.7262  -28.6509   23.0345 C   0  0  0  0  0  0
  -26.4494  -31.6582   25.0706 C   0  0  0  0  0  0
  -25.3752  -31.3707   26.1449 C   0  0  0  0  0  0
  -27.0327  -30.3011   24.6113 C   0  0  0  0  0  0
  -27.6052  -32.4318   25.7487 C   0  0  0  0  0  0
  -27.5576  -37.1811   24.8463 C   0  0  0  0  0  0
  -21.4141  -29.3048   22.3701 N   0  0  0  0  0  0
  -26.4293  -37.3784   23.9401 N   0  0  0  0  0  0
  -24.6737  -31.0705   22.0977 N   0  0  0  0  0  0
  -23.4171  -28.8197   23.3029 O   0  0  0  0  0  0
  -28.3906  -26.6279   20.1185 O   0  0  0  0  0  0
  -26.5615  -34.8919   22.4663 O   0  0  0  0  0  0
  -23.5376  -32.1424   23.7439 O   0  0  0  0  0  0
  -30.6189  -20.8422   19.6316 C   0  0  0  0  0  0
  -30.7954  -22.2465   19.5123 C   0  0  0  0  0  0
  -29.4441  -20.6140   20.2824 C   0  0  0  0  0  0
  -29.7461  -22.9091   20.1043 C   0  0  0  0  0  0
  -25.0603  -22.3251   20.5822 C   0  0  0  0  0  0
  -30.7843  -25.1620   19.6146 C   0  0  0  0  0  0
  -29.8565  -24.7081   21.8685 C   0  0  0  0  0  0
  -28.8081  -19.2964   20.7283 C   0  0  0  0  0  0
  -26.4661  -22.0638   20.0345 C   0  0  0  0  0  0
  -29.3395  -17.9291   20.1558 C   0  0  0  0  0  0
  -27.5525  -22.0663   21.1255 C   0  0  0  0  0  0
  -30.1463  -16.9961   21.1248 C   0  0  0  0  0  0
  -28.3186  -25.1846   19.9143 C   0  0  0  0  0  0
  -29.6356  -24.4439   20.3642 C   0  0  0  0  0  0
  -28.8711  -21.8823   20.5289 N   0  0  0  0  0  0
  -29.8578  -15.5465   20.9708 N   0  0  0  0  0  0
  -31.4750  -12.4679   19.1156 H   0  0  0  0  0  0
  -30.3646  -11.3327   19.8345 H   0  0  0  0  0  0
  -29.7471  -11.7628   17.4415 H   0  0  0  0  0  0
  -29.6527  -13.4775   17.7494 H   0  0  0  0  0  0
  -27.8445  -11.2936   18.8383 H   0  0  0  0  0  0
  -27.3658  -12.5984   17.7888 H   0  0  0  0  0  0
  -27.6936  -14.2443   19.5499 H   0  0  0  0  0  0
  -28.6952  -11.9677   21.3350 H   0  0  0  0  0  0
  -28.4581  -13.6069   21.8650 H   0  0  0  0  0  0
  -25.2749   -9.5709   22.4759 H   0  0  0  0  0  0
  -24.0021   -7.4634   22.7447 H   0  0  0  0  0  0
  -21.0846   -8.8775   19.8939 H   0  0  0  0  0  0
  -22.3686  -10.9684   19.6167 H   0  0  0  0  0  0
  -21.2002   -7.6155   23.9738 H   0  0  0  0  0  0
  -21.1474   -6.0510   25.9078 H   0  0  0  0  0  0
  -22.0602   -2.7626   23.2826 H   0  0  0  0  0  0
  -22.4102  -11.9904   22.4812 H   0  0  0  0  0  0
  -21.1115  -13.1280   22.2581 H   0  0  0  0  0  0
  -24.6684  -15.8414   20.5167 H   0  0  0  0  0  0
  -26.2829  -15.6232   20.0744 H   0  0  0  0  0  0
  -26.7128  -32.5471   23.1101 H   0  0  0  0  0  0
  -25.0079  -33.9743   25.0434 H   0  0  0  0  0  0
  -22.6983  -31.3070   21.4089 H   0  0  0  0  0  0
  -23.3741  -35.9652   23.3314 H   0  0  0  0  0  0
  -24.3582  -36.8916   22.2047 H   0  0  0  0  0  0
  -23.7261  -37.6520   23.6654 H   0  0  0  0  0  0
  -26.0595  -31.5789   20.5985 H   0  0  0  0  0  0
  -26.8239  -30.8618   21.9894 H   0  0  0  0  0  0
  -28.1006  -29.0544   21.1609 H   0  0  0  0  0  0
  -26.0020  -25.9459   19.0101 H   0  0  0  0  0  0
  -23.9627  -27.2935   19.0357 H   0  0  0  0  0  0
  -23.7291  -30.5981   19.4034 H   0  0  0  0  0  0
  -22.7368  -29.2485   19.8648 H   0  0  0  0  0  0
  -25.1298  -36.1945   25.0815 H   0  0  0  0  0  0
  -20.9946  -28.3257   24.1418 H   0  0  0  0  0  0
  -20.5672  -26.2297   23.3599 H   0  0  0  0  0  0
  -21.6642  -26.7460   22.1211 H   0  0  0  0  0  0
  -19.6928  -25.6297   21.1235 H   0  0  0  0  0  0
  -19.6692  -27.3192   20.6727 H   0  0  0  0  0  0
  -17.4198  -26.6651   21.4019 H   0  0  0  0  0  0
  -18.0352  -26.0059   22.9013 H   0  0  0  0  0  0
  -19.7943  -30.7255   24.2267 H   0  0  0  0  0  0
  -17.5033  -31.6267   24.5172 H   0  0  0  0  0  0
  -15.5360  -30.3007   23.7656 H   0  0  0  0  0  0
  -15.8654  -28.0840   22.7052 H   0  0  0  0  0  0
  -24.5920  -30.7058   25.7793 H   0  0  0  0  0  0
  -24.8959  -32.2870   26.4896 H   0  0  0  0  0  0
  -25.8105  -30.8877   27.0202 H   0  0  0  0  0  0
  -26.2874  -29.6767   24.1165 H   0  0  0  0  0  0
  -27.4076  -29.7259   25.4590 H   0  0  0  0  0  0
  -27.8724  -30.4310   23.9280 H   0  0  0  0  0  0
  -27.2638  -33.3597   26.2085 H   0  0  0  0  0  0
  -28.3857  -32.6906   25.0322 H   0  0  0  0  0  0
  -28.0717  -31.8429   26.5390 H   0  0  0  0  0  0
  -28.2606  -38.0098   24.7494 H   0  0  0  0  0  0
  -28.1060  -36.2625   24.6312 H   0  0  0  0  0  0
  -27.2289  -37.1488   25.8867 H   0  0  0  0  0  0
  -20.9301  -29.8770   21.6919 H   0  0  0  0  0  0
  -26.0174  -38.2860   24.1399 H   0  0  0  0  0  0
  -31.3054  -20.0765   19.2959 H   0  0  0  0  0  0
  -31.6613  -22.7174   19.0691 H   0  0  0  0  0  0
  -24.3245  -22.3032   19.7787 H   0  0  0  0  0  0
  -24.9966  -23.3008   21.0645 H   0  0  0  0  0  0
  -24.7776  -21.5677   21.3134 H   0  0  0  0  0  0
  -30.7000  -25.0185   18.5367 H   0  0  0  0  0  0
  -31.7656  -24.8032   19.9259 H   0  0  0  0  0  0
  -30.7901  -26.2370   19.7927 H   0  0  0  0  0  0
  -30.7967  -24.2744   22.2105 H   0  0  0  0  0  0
  -29.0666  -24.2878   22.4867 H   0  0  0  0  0  0
  -29.8929  -25.7757   22.0880 H   0  0  0  0  0  0
  -27.7493  -19.3423   20.4726 H   0  0  0  0  0  0
  -28.8189  -19.2555   21.8180 H   0  0  0  0  0  0
  -26.7002  -22.8157   19.2809 H   0  0  0  0  0  0
  -26.4762  -21.1064   19.5126 H   0  0  0  0  0  0
  -29.8893  -18.0806   19.2271 H   0  0  0  0  0  0
  -28.4533  -17.3714   19.8509 H   0  0  0  0  0  0
  -27.3684  -21.2702   21.8470 H   0  0  0  0  0  0
  -27.5253  -22.9863   21.7011 H   0  0  0  0  0  0
  -29.8965  -17.2446   22.1576 H   0  0  0  0  0  0
  -31.2159  -17.1916   21.0267 H   0  0  0  0  0  0
  -27.4657  -24.7979   20.4683 H   0  0  0  0  0  0
  -28.1312  -24.9877   18.8585 H   0  0  0  0  0  0
  -28.9285  -15.2570   21.2383 H   0  0  0  0  0  0
  1 25  1  0  0  0
  1 30  2  0  0  0
  1 86  1  0  0  0
  2  3  1  0  0  0
  2 25  1  0  0  0
  2 87  1  0  0  0
  2 88  1  0  0  0
  3  4  1  0  0  0
  3 89  1  0  0  0
  3 90  1  0  0  0
  4  5  1  0  0  0
  4 91  1  0  0  0
  4 92  1  0  0  0
  5  6  1  0  0  0
  5 26  1  0  0  0
  5 93  1  0  0  0
  6 25  1  0  0  0
  6 94  1  0  0  0
  6 95  1  0  0  0
  7  8  2  0  0  0
  7 26  1  0  0  0
  7 29  1  0  0  0
  8  9  1  0  0  0
  8 22  1  0  0  0
  9 10  1  0  0  0
  9 27  2  0  0  0
 10 11  2  0  0  0
 10 15  1  0  0  0
 11 12  1  0  0  0
 11 96  1  0  0  0
 12 13  2  0  0  0
 12 97  1  0  0  0
 13 14  1  0  0  0
 13 31  1  0  0  0
 14 15  2  0  0  0
 14 98  1  0  0  0
 15 99  1  0  0  0
 16 17  2  0  0  0
 16 21  1  0  0  0
 16 31  1  0  0  0
 17 18  1  0  0  0
 17100  1  0  0  0
 18 19  2  0  0  0
 18101  1  0  0  0
 19 20  1  0  0  0
 19 24  1  0  0  0
 20 21  2  0  0  0
 20102  1  0  0  0
 21 23  1  0  0  0
 22 28  1  0  0  0
 22 32  2  0  0  0
 26 27  1  0  0  0
 28103  1  0  0  0
 28104  1  0  0  0
 29105  1  0  0  0
 29106  1  0  0  0
 33 34  1  0  0  0
 33 66  1  0  0  0
 33 70  2  0  0  0
 34 36  1  0  0  0
 34 59  1  0  0  0
 34107  1  0  0  0
 35 44  2  0  0  0
 35 45  1  0  0  0
 35 68  1  0  0  0
 36 56  1  0  0  0
 36108  1  0  0  0
 37 39  1  0  0  0
 37 47  1  0  0  0
 37 66  1  0  0  0
 37109  1  0  0  0
 38 43  2  0  0  0
 38 46  1  0  0  0
 38 47  1  0  0  0
 39 64  1  0  0  0
 39 67  2  0  0  0
 40 52  1  0  0  0
 40 53  2  0  0  0
 40 58  1  0  0  0
 41110  1  0  0  0
 41111  1  0  0  0
 41112  1  0  0  0
 41 48  1  0  0  0
 42 43  1  0  0  0
 42 66  1  0  0  0
 42113  1  0  0  0
 42114  1  0  0  0
 43 44  1  0  0  0
 44115  1  0  0  0
 45 46  2  0  0  0
 45116  1  0  0  0
 46117  1  0  0  0
 47118  1  0  0  0
 47119  1  0  0  0
 48 56  1  0  0  0
 48 65  1  0  0  0
 48120  1  0  0  0
 49 50  1  0  0  0
 49 53  1  0  0  0
 49 64  1  0  0  0
 49121  1  0  0  0
 50 51  1  0  0  0
 50122  1  0  0  0
 50123  1  0  0  0
 51 52  1  0  0  0
 51124  1  0  0  0
 51125  1  0  0  0
 52126  1  0  0  0
 52127  1  0  0  0
 53 54  1  0  0  0
 54 55  2  0  0  0
 54128  1  0  0  0
 55 57  1  0  0  0
 55129  1  0  0  0
 56 69  2  0  0  0
 57 58  2  0  0  0
 57130  1  0  0  0
 58131  1  0  0  0
 59 60  1  0  0  0
 59 61  1  0  0  0
 59 62  1  0  0  0
 60132  1  0  0  0
 60133  1  0  0  0
 60134  1  0  0  0
 61135  1  0  0  0
 61136  1  0  0  0
 61137  1  0  0  0
 62138  1  0  0  0
 62139  1  0  0  0
 62140  1  0  0  0
 63 65  1  0  0  0
 63141  1  0  0  0
 63142  1  0  0  0
 63143  1  0  0  0
 64144  1  0  0  0
 65145  1  0  0  0
 68 83  1  0  0  0
 71 72  1  0  0  0
 71 73  2  0  0  0
 71146  1  0  0  0
 72 74  2  0  0  0
 72147  1  0  0  0
 73 78  1  0  0  0
 73 85  1  0  0  0
 74 84  1  0  0  0
 74 85  1  0  0  0
 75 79  1  0  0  0
 75148  1  0  0  0
 75149  1  0  0  0
 75150  1  0  0  0
 76151  1  0  0  0
 76152  1  0  0  0
 76153  1  0  0  0
 76 84  1  0  0  0
 77 84  1  0  0  0
 77154  1  0  0  0
 77155  1  0  0  0
 77156  1  0  0  0
 78 80  1  0  0  0
 78157  1  0  0  0
 78158  1  0  0  0
 79 81  1  0  0  0
 79159  1  0  0  0
 79160  1  0  0  0
 80 82  1  0  0  0
 80161  1  0  0  0
 80162  1  0  0  0
 81 85  1  0  0  0
 81163  1  0  0  0
 81164  1  0  0  0
 82 86  1  0  0  0
 82165  1  0  0  0
 82166  1  0  0  0
 83 84  1  0  0  0
 83167  1  0  0  0
 83168  1  0  0  0
 86169  1  0  0  0
M  ISO  4   1 100  68 101  83 101  86 100
M  END
> <chiral flag>
0

> <version>
0

> <s_m_source_file>
/data/baiqing/PycharmProjects/Reinvent-master-3.2/result/LINK_invent/BTK/process_docking_weight1_custom_sum_contain_oxygen_bond_distance_aromatic_linkinvent_7_9_3/rearranged_h_0084.sdf

> <i_m_source_file_index>
30

> <r_mmod_Potential_Energy-OPLS-2005>
-6.30715656280518

> <r_mmod_Stretch_Energy-OPLS-2005>
57.6044921875

> <r_mmod_Bend_Energy-OPLS-2005>
129.667098999023

> <r_mmod_Torsional_Energy-OPLS-2005>
239.783493041992

> <r_mmod_Improper_Torsional_Energy-OPLS-2005>
4.18848085403442

> <r_mmod_Van_der_Waal_Energy-OPLS-2005>
127.682075500488

> <r_mmod_Electrostatic_Energy-OPLS-2005>
-385.868530273438

> <r_mmod_Solvation_Energy-OPLS-2005>
-201.863235473633

> <b_mmod_Minimization_Converged-OPLS-2005>
0

> <r_mmod_RMS_Derivative-OPLS-2005>
2.16847944259644

$$$$
30
                    3D
 Structure written by MMmdl.
169177  0  0  1  0            999 V2000
  -30.6821  -14.5664   20.4959 C   0  0  0  0  0  0
  -30.4133  -12.3452   19.4507 C   0  0  0  0  0  0
  -29.4923  -12.4726   18.2209 C   0  0  0  0  0  0
  -28.0183  -12.3269   18.6402 C   0  0  0  0  0  0
  -27.6473  -13.2156   19.8578 C   0  0  2  0  0  0
  -28.6885  -13.0881   20.9920 C   0  0  0  0  0  0
  -25.2530  -13.8187   20.5708 C   0  0  0  0  0  0
  -24.1814  -13.0454   20.9207 C   0  0  0  0  0  0
  -24.6369  -11.6910   20.8756 C   0  0  0  0  0  0
  -23.9055  -10.4294   21.0412 C   0  0  0  0  0  0
  -24.3605   -9.4205   21.9197 C   0  0  0  0  0  0
  -23.6279   -8.2245   22.0761 C   0  0  0  0  0  0
  -22.4271   -8.0287   21.3535 C   0  0  0  0  0  0
  -21.9906   -9.0261   20.4642 C   0  0  0  0  0  0
  -22.7229  -10.2137   20.3055 C   0  0  0  0  0  0
  -21.6853   -6.0727   22.5279 C   0  0  0  0  0  0
  -21.4015   -6.5625   23.8219 C   0  0  0  0  0  0
  -21.3666   -5.6781   24.9172 C   0  0  0  0  0  0
  -21.6047   -4.3045   24.7227 C   0  0  0  0  0  0
  -21.8820   -3.8129   23.4348 C   0  0  0  0  0  0
  -21.9190   -4.6946   22.3399 C   0  0  0  0  0  0
  -22.7832  -13.5237   21.1886 C   0  0  0  0  0  0
  -22.1654   -4.2134   21.0974 F   0  0  0  0  0  0
  -21.5641   -3.4534   25.7738 F   0  0  0  0  0  0
  -30.0066  -13.3842   20.4158 N   0  0  0  0  0  0
  -26.2948  -12.9368   20.3304 N   0  0  0  0  0  0
  -25.9293  -11.6515   20.5763 N   0  0  0  0  0  0
  -22.0475  -12.8211   22.0408 N   0  0  0  0  0  0
  -25.4264  -15.1919   20.4150 N   0  0  0  0  0  0
  -31.8562  -14.6622   20.1278 O   0  0  0  0  0  0
  -21.6630   -6.8880   21.4224 O   0  0  0  0  0  0
  -22.3515  -14.5552   20.6733 O   0  0  0  0  0  0
  -24.6142  -31.8703   23.2099 C   0  0  0  0  0  0
  -25.9028  -32.4851   23.8418 C   0  0  1  0  0  0
  -27.2151  -27.3837   20.0974 C   0  0  0  0  0  0
  -25.5852  -33.8651   24.2338 N   0  0  0  0  0  0
  -23.4053  -30.4908   21.5587 C   0  0  2  0  0  0
  -24.8495  -28.9567   20.1206 C   0  0  0  0  0  0
  -22.7437  -29.4582   22.5000 C   0  0  0  0  0  0
  -18.0260  -28.1288   22.8490 C   0  0  0  0  0  0
  -24.1473  -36.7287   23.2639 C   0  0  0  0  0  0
  -25.9412  -30.8151   21.3770 C   0  0  0  0  0  0
  -26.0154  -29.4506   20.7134 C   0  0  0  0  0  0
  -27.2024  -28.6741   20.6940 C   0  0  0  0  0  0
  -26.0185  -26.9193   19.5020 C   0  0  0  0  0  0
  -24.8475  -27.6966   19.5074 C   0  0  0  0  0  0
  -23.6157  -29.8302   20.1732 C   0  0  0  0  0  0
  -25.4106  -36.3135   24.0335 C   0  0  1  0  0  0
  -20.5859  -28.3598   23.1299 C   0  0  2  0  0  0
  -20.6754  -26.9321   22.5394 C   0  0  0  0  0  0
  -19.5745  -26.6319   21.5156 C   0  0  0  0  0  0
  -18.1922  -26.7837   22.1599 C   0  0  0  0  0  0
  -19.1510  -28.8758   23.2899 C   0  0  0  0  0  0
  -18.9444  -30.1374   23.8914 C   0  0  0  0  0  0
  -17.6460  -30.6559   24.0520 C   0  0  0  0  0  0
  -25.9020  -34.9498   23.5150 C   0  0  0  0  0  0
  -16.5350  -29.9037   23.6290 C   0  0  0  0  0  0
  -16.7250  -28.6409   23.0380 C   0  0  0  0  0  0
  -26.4447  -31.6646   25.0771 C   0  0  0  0  0  0
  -25.3654  -31.3766   26.1500 C   0  0  0  0  0  0
  -27.0310  -30.3084   24.6156 C   0  0  0  0  0  0
  -27.6022  -32.4385   25.7531 C   0  0  0  0  0  0
  -27.5600  -37.1782   24.8466 C   0  0  0  0  0  0
  -21.4157  -29.2987   22.3748 N   0  0  0  0  0  0
  -26.4312  -37.3801   23.9397 N   0  0  0  0  0  0
  -24.6722  -31.0743   22.1042 N   0  0  0  0  0  0
  -23.4216  -28.8067   23.2994 O   0  0  0  0  0  0
  -28.3892  -26.6419   20.0974 O   0  0  0  0  0  0
  -26.5627  -34.8943   22.4741 O   0  0  0  0  0  0
  -23.5315  -32.1507   23.7434 O   0  0  0  0  0  0
  -28.9352  -21.7894   20.4908 C   0  0  0  0  0  0
  -26.8953  -22.1384   21.2760 C   0  0  0  0  0  0
  -28.0330  -22.8172   20.9412 C   0  0  0  0  0  0
  -28.3614  -20.5327   20.6184 C   0  0  0  0  0  0
  -29.3865  -24.6127   22.0959 C   0  0  0  0  0  0
  -29.4864  -19.1755   18.8448 C   0  0  0  0  0  0
  -30.8676  -19.3175   21.8027 C   0  0  0  0  0  0
  -28.9466  -17.8905   22.5108 C   0  0  0  0  0  0
  -26.0554  -19.7900   21.4306 C   0  0  0  0  0  0
  -30.5927  -17.0488   20.7807 C   0  0  0  0  0  0
  -28.3846  -25.2067   19.8411 C   0  0  0  0  0  0
  -28.2234  -24.3412   21.1310 C   0  0  1  0  0  0
  -28.8584  -19.1047   20.2481 C   0  0  1  0  0  0
  -29.7894  -18.3273   21.2975 C   0  0  0  0  0  0
  -27.0811  -20.7741   21.1148 N   0  0  0  0  0  0
  -29.9774  -15.6898   20.8027 N   0  0  0  0  0  0
  -31.4577  -12.4353   19.1497 H   0  0  0  0  0  0
  -30.3203  -11.3570   19.9044 H   0  0  0  0  0  0
  -29.7452  -11.7085   17.4854 H   0  0  0  0  0  0
  -29.6494  -13.4355   17.7318 H   0  0  0  0  0  0
  -27.8576  -11.2775   18.8906 H   0  0  0  0  0  0
  -27.3595  -12.5402   17.7989 H   0  0  0  0  0  0
  -27.6665  -14.2474   19.5058 H   0  0  0  0  0  0
  -28.6799  -12.0815   21.4141 H   0  0  0  0  0  0
  -28.4483  -13.7631   21.8153 H   0  0  0  0  0  0
  -25.2756   -9.5686   22.4774 H   0  0  0  0  0  0
  -23.9989   -7.4636   22.7486 H   0  0  0  0  0  0
  -21.0846   -8.8785   19.8939 H   0  0  0  0  0  0
  -22.3707  -10.9680   19.6165 H   0  0  0  0  0  0
  -21.2008   -7.6142   23.9707 H   0  0  0  0  0  0
  -21.1492   -6.0513   25.9077 H   0  0  0  0  0  0
  -22.0595   -2.7596   23.2847 H   0  0  0  0  0  0
  -22.4081  -11.9846   22.4757 H   0  0  0  0  0  0
  -21.1102  -13.1229   22.2653 H   0  0  0  0  0  0
  -24.6681  -15.8484   20.5567 H   0  0  0  0  0  0
  -26.2721  -15.6285   20.0744 H   0  0  0  0  0  0
  -26.7105  -32.5541   23.1192 H   0  0  0  0  0  0
  -24.9938  -33.9808   25.0449 H   0  0  0  0  0  0
  -22.6902  -31.3057   21.4243 H   0  0  0  0  0  0
  -23.3768  -35.9588   23.3306 H   0  0  0  0  0  0
  -24.3545  -36.8905   22.2058 H   0  0  0  0  0  0
  -23.7179  -37.6459   23.6672 H   0  0  0  0  0  0
  -26.0754  -31.5886   20.6210 H   0  0  0  0  0  0
  -26.8155  -30.8548   22.0138 H   0  0  0  0  0  0
  -28.1097  -29.0540   21.1447 H   0  0  0  0  0  0
  -25.9391  -25.9636   19.0145 H   0  0  0  0  0  0
  -23.9503  -27.3105   19.0457 H   0  0  0  0  0  0
  -23.7237  -30.6080   19.4174 H   0  0  0  0  0  0
  -22.7415  -29.2499   19.8773 H   0  0  0  0  0  0
  -25.1258  -36.2050   25.0831 H   0  0  0  0  0  0
  -20.9921  -28.3154   24.1432 H   0  0  0  0  0  0
  -20.5578  -26.2180   23.3571 H   0  0  0  0  0  0
  -21.6615  -26.7367   22.1203 H   0  0  0  0  0  0
  -19.6905  -25.6217   21.1195 H   0  0  0  0  0  0
  -19.6667  -27.3140   20.6686 H   0  0  0  0  0  0
  -17.4155  -26.6544   21.4050 H   0  0  0  0  0  0
  -18.0377  -25.9962   22.8984 H   0  0  0  0  0  0
  -19.7952  -30.7131   24.2315 H   0  0  0  0  0  0
  -17.5044  -31.6241   24.5113 H   0  0  0  0  0  0
  -15.5355  -30.2966   23.7575 H   0  0  0  0  0  0
  -15.8634  -28.0725   22.7146 H   0  0  0  0  0  0
  -24.5844  -30.7115   25.7804 H   0  0  0  0  0  0
  -24.8816  -32.2909   26.4931 H   0  0  0  0  0  0
  -25.7943  -30.8954   27.0293 H   0  0  0  0  0  0
  -26.2908  -29.6855   24.1126 H   0  0  0  0  0  0
  -27.3989  -29.7349   25.4674 H   0  0  0  0  0  0
  -27.8770  -30.4407   23.9410 H   0  0  0  0  0  0
  -27.2652  -33.3703   26.2108 H   0  0  0  0  0  0
  -28.3812  -32.6928   25.0322 H   0  0  0  0  0  0
  -28.0693  -31.8500   26.5440 H   0  0  0  0  0  0
  -28.2595  -38.0122   24.7558 H   0  0  0  0  0  0
  -28.1136  -36.2628   24.6262 H   0  0  0  0  0  0
  -27.2288  -37.1374   25.8870 H   0  0  0  0  0  0
  -20.9301  -29.8807   21.7060 H   0  0  0  0  0  0
  -26.0233  -38.2876   24.1453 H   0  0  0  0  0  0
  -29.9388  -21.9577   20.1235 H   0  0  0  0  0  0
  -25.9546  -22.5141   21.6590 H   0  0  0  0  0  0
  -29.3185  -23.9791   22.9816 H   0  0  0  0  0  0
  -29.3828  -25.6501   22.4330 H   0  0  0  0  0  0
  -30.3514  -24.4292   21.6227 H   0  0  0  0  0  0
  -28.8242  -19.6933   18.1510 H   0  0  0  0  0  0
  -29.6528  -18.1884   18.4174 H   0  0  0  0  0  0
  -30.4329  -19.7147   18.8467 H   0  0  0  0  0  0
  -31.5204  -18.8634   22.5484 H   0  0  0  0  0  0
  -30.4299  -20.1953   22.2766 H   0  0  0  0  0  0
  -31.5037  -19.6616   20.9848 H   0  0  0  0  0  0
  -29.5495  -17.3642   23.2505 H   0  0  0  0  0  0
  -28.1341  -17.2258   22.2138 H   0  0  0  0  0  0
  -28.5036  -18.7519   23.0114 H   0  0  0  0  0  0
  -25.1525  -20.2854   21.7883 H   0  0  0  0  0  0
  -26.4018  -19.1277   22.2228 H   0  0  0  0  0  0
  -25.8027  -19.2004   20.5487 H   0  0  0  0  0  0
  -31.4593  -16.9331   21.4339 H   0  0  0  0  0  0
  -31.0446  -17.2321   19.8065 H   0  0  0  0  0  0
  -27.6720  -24.9105   19.0745 H   0  0  0  0  0  0
  -29.3502  -24.9704   19.3954 H   0  0  0  0  0  0
  -27.3157  -24.6898   21.6318 H   0  0  0  0  0  0
  -27.9823  -18.4685   20.1063 H   0  0  0  0  0  0
  -28.9997  -15.6024   21.0334 H   0  0  0  0  0  0
  1 25  1  0  0  0
  1 30  2  0  0  0
  1 86  1  0  0  0
  2  3  1  0  0  0
  2 25  1  0  0  0
  2 87  1  0  0  0
  2 88  1  0  0  0
  3  4  1  0  0  0
  3 89  1  0  0  0
  3 90  1  0  0  0
  4  5  1  0  0  0
  4 91  1  0  0  0
  4 92  1  0  0  0
  5  6  1  0  0  0
  5 26  1  0  0  0
  5 93  1  0  0  0
  6 25  1  0  0  0
  6 94  1  0  0  0
  6 95  1  0  0  0
  7  8  2  0  0  0
  7 26  1  0  0  0
  7 29  1  0  0  0
  8  9  1  0  0  0
  8 22  1  0  0  0
  9 10  1  0  0  0
  9 27  2  0  0  0
 10 11  2  0  0  0
 10 15  1  0  0  0
 11 12  1  0  0  0
 11 96  1  0  0  0
 12 13  2  0  0  0
 12 97  1  0  0  0
 13 14  1  0  0  0
 13 31  1  0  0  0
 14 15  2  0  0  0
 14 98  1  0  0  0
 15 99  1  0  0  0
 16 17  2  0  0  0
 16 21  1  0  0  0
 16 31  1  0  0  0
 17 18  1  0  0  0
 17100  1  0  0  0
 18 19  2  0  0  0
 18101  1  0  0  0
 19 20  1  0  0  0
 19 24  1  0  0  0
 20 21  2  0  0  0
 20102  1  0  0  0
 21 23  1  0  0  0
 22 28  1  0  0  0
 22 32  2  0  0  0
 26 27  1  0  0  0
 28103  1  0  0  0
 28104  1  0  0  0
 29105  1  0  0  0
 29106  1  0  0  0
 33 34  1  0  0  0
 33 66  1  0  0  0
 33 70  2  0  0  0
 34 36  1  0  0  0
 34 59  1  0  0  0
 34107  1  0  0  0
 35 44  2  0  0  0
 35 45  1  0  0  0
 35 68  1  0  0  0
 36 56  1  0  0  0
 36108  1  0  0  0
 37 39  1  0  0  0
 37 47  1  0  0  0
 37 66  1  0  0  0
 37109  1  0  0  0
 38 43  2  0  0  0
 38 46  1  0  0  0
 38 47  1  0  0  0
 39 64  1  0  0  0
 39 67  2  0  0  0
 40 52  1  0  0  0
 40 53  2  0  0  0
 40 58  1  0  0  0
 41110  1  0  0  0
 41111  1  0  0  0
 41112  1  0  0  0
 41 48  1  0  0  0
 42 43  1  0  0  0
 42 66  1  0  0  0
 42113  1  0  0  0
 42114  1  0  0  0
 43 44  1  0  0  0
 44115  1  0  0  0
 45 46  2  0  0  0
 45116  1  0  0  0
 46117  1  0  0  0
 47118  1  0  0  0
 47119  1  0  0  0
 48 56  1  0  0  0
 48 65  1  0  0  0
 48120  1  0  0  0
 49 50  1  0  0  0
 49 53  1  0  0  0
 49 64  1  0  0  0
 49121  1  0  0  0
 50 51  1  0  0  0
 50122  1  0  0  0
 50123  1  0  0  0
 51 52  1  0  0  0
 51124  1  0  0  0
 51125  1  0  0  0
 52126  1  0  0  0
 52127  1  0  0  0
 53 54  1  0  0  0
 54 55  2  0  0  0
 54128  1  0  0  0
 55 57  1  0  0  0
 55129  1  0  0  0
 56 69  2  0  0  0
 57 58  2  0  0  0
 57130  1  0  0  0
 58131  1  0  0  0
 59 60  1  0  0  0
 59 61  1  0  0  0
 59 62  1  0  0  0
 60132  1  0  0  0
 60133  1  0  0  0
 60134  1  0  0  0
 61135  1  0  0  0
 61136  1  0  0  0
 61137  1  0  0  0
 62138  1  0  0  0
 62139  1  0  0  0
 62140  1  0  0  0
 63 65  1  0  0  0
 63141  1  0  0  0
 63142  1  0  0  0
 63143  1  0  0  0
 64144  1  0  0  0
 65145  1  0  0  0
 68 81  1  0  0  0
 71 73  1  0  0  0
 71 74  2  0  0  0
 71146  1  0  0  0
 72 73  2  0  0  0
 72 85  1  0  0  0
 72147  1  0  0  0
 73 82  1  0  0  0
 74 83  1  0  0  0
 74 85  1  0  0  0
 75148  1  0  0  0
 75149  1  0  0  0
 75150  1  0  0  0
 75 82  1  0  0  0
 76151  1  0  0  0
 76152  1  0  0  0
 76153  1  0  0  0
 76 83  1  0  0  0
 77154  1  0  0  0
 77155  1  0  0  0
 77156  1  0  0  0
 77 84  1  0  0  0
 78 84  1  0  0  0
 78157  1  0  0  0
 78158  1  0  0  0
 78159  1  0  0  0
 79 85  1  0  0  0
 79160  1  0  0  0
 79161  1  0  0  0
 79162  1  0  0  0
 80 84  1  0  0  0
 80 86  1  0  0  0
 80163  1  0  0  0
 80164  1  0  0  0
 81 82  1  0  0  0
 81165  1  0  0  0
 81166  1  0  0  0
 82167  1  0  0  0
 83 84  1  0  0  0
 83168  1  0  0  0
 86169  1  0  0  0
M  ISO  4   1 100  68 101  81 101  86 100
M  END
> <chiral flag>
0

> <version>
0

> <s_m_source_file>
/data/baiqing/PycharmProjects/Reinvent-master-3.2/result/LINK_invent/BTK/process_docking_weight1_custom_sum_contain_oxygen_bond_distance_aromatic_linkinvent_7_9_3/rearranged_h_0084.sdf

> <i_m_source_file_index>
31

> <r_mmod_Potential_Energy-OPLS-2005>
-20.6037616729736

> <r_mmod_Stretch_Energy-OPLS-2005>
62.8912391662598

> <r_mmod_Bend_Energy-OPLS-2005>
146.87776184082

> <r_mmod_Torsional_Energy-OPLS-2005>
232.887786865234

> <r_mmod_Improper_Torsional_Energy-OPLS-2005>
4.4441032409668

> <r_mmod_Van_der_Waal_Energy-OPLS-2005>
128.337814331055

> <r_mmod_Electrostatic_Energy-OPLS-2005>
-426.877777099609

> <r_mmod_Solvation_Energy-OPLS-2005>
-197.707458496094

> <b_mmod_Minimization_Converged-OPLS-2005>
0

> <r_mmod_RMS_Derivative-OPLS-2005>
4.76096343994141

$$$$
31
                    3D
 Structure written by MMmdl.
164172  0  0  1  0            999 V2000
  -31.0964  -13.2633   20.9301 C   0  0  0  0  0  0
  -30.5537  -12.6254   18.8369 C   0  0  0  0  0  0
  -29.4308  -12.5245   17.8687 C   0  0  0  0  0  0
  -28.1590  -13.2720   18.2569 C   0  0  0  0  0  0
  -27.9699  -13.9758   19.7015 C   0  0  2  0  0  0
  -29.0835  -13.9226   20.6113 C   0  0  0  0  0  0
  -25.9310  -14.2408   21.0001 C   0  0  0  0  0  0
  -24.1909  -13.6030   20.8527 C   0  0  0  0  0  0
  -24.0593  -12.3203   20.5601 C   0  0  0  0  0  0
  -23.7068  -10.8075   20.9855 C   0  0  0  0  0  0
  -24.2092   -9.8063   21.9184 C   0  0  0  0  0  0
  -23.6235   -8.5015   22.0786 C   0  0  0  0  0  0
  -22.4672   -8.1354   21.3475 C   0  0  0  0  0  0
  -21.9992   -9.0667   20.4097 C   0  0  0  0  0  0
  -22.6111  -10.3270   20.2313 C   0  0  0  0  0  0
  -21.7515   -6.1134   22.5226 C   0  0  0  0  0  0
  -21.4476   -6.5938   23.8155 C   0  0  0  0  0  0
  -21.3785   -5.7008   24.9066 C   0  0  0  0  0  0
  -21.6011   -4.3239   24.7113 C   0  0  0  0  0  0
  -21.8763   -3.8369   23.4224 C   0  0  0  0  0  0
  -21.9408   -4.7255   22.3334 C   0  0  0  0  0  0
  -22.6255  -13.9421   21.1815 C   0  0  0  0  0  0
  -22.1773   -4.2365   21.0920 F   0  0  0  0  0  0
  -21.5492   -3.4681   25.7604 F   0  0  0  0  0  0
  -30.2192  -13.3261   20.0548 N   0  0  0  0  0  0
  -26.8433  -13.8882   20.7865 N   0  0  0  0  0  0
  -24.9764  -13.5315   20.7970 N   0  0  0  0  0  0
  -21.9697  -13.1300   22.0342 N   0  0  0  0  0  0
  -26.8301  -15.3519   21.4369 N   0  0  0  0  0  0
  -32.0395  -14.0736   20.8803 O   0  0  0  0  0  0
  -21.7776   -6.9332   21.4151 O   0  0  0  0  0  0
  -22.0600  -14.8539   20.6056 O   0  0  0  0  0  0
  -24.7236  -31.7442   23.1274 C   0  0  0  0  0  0
  -25.9674  -32.4125   23.7874 C   0  0  1  0  0  0
  -26.5495  -26.0221   20.2491 C   0  0  0  0  0  0
  -25.6095  -33.8011   24.1674 N   0  0  0  0  0  0
  -23.5310  -30.3786   21.5000 C   0  0  2  0  0  0
  -24.8633  -28.6360   20.0686 C   0  0  0  0  0  0
  -22.7791  -29.4109   22.4557 C   0  0  0  0  0  0
  -18.0338  -28.1428   22.8445 C   0  0  0  0  0  0
  -24.1509  -36.7003   23.2661 C   0  0  0  0  0  0
  -26.1104  -30.2150   21.4906 C   0  0  0  0  0  0
  -26.0322  -28.7367   20.8182 C   0  0  0  0  0  0
  -26.8810  -27.4490   20.8782 C   0  0  0  0  0  0
  -25.5390  -26.3354   19.3301 C   0  0  0  0  0  0
  -24.7117  -27.4912   19.2810 C   0  0  0  0  0  0
  -23.7712  -29.7186   20.1130 C   0  0  0  0  0  0
  -25.4180  -36.2699   24.0234 C   0  0  1  0  0  0
  -20.5976  -28.3781   23.1081 C   0  0  2  0  0  0
  -20.6781  -26.9413   22.5402 C   0  0  0  0  0  0
  -19.5761  -26.6347   21.5218 C   0  0  0  0  0  0
  -18.1947  -26.7953   22.1617 C   0  0  0  0  0  0
  -19.1610  -28.8936   23.2748 C   0  0  0  0  0  0
  -18.9519  -30.1519   23.8798 C   0  0  0  0  0  0
  -17.6507  -30.6602   24.0546 C   0  0  0  0  0  0
  -25.9204  -34.9106   23.4818 C   0  0  0  0  0  0
  -16.5393  -29.9082   23.6361 C   0  0  0  0  0  0
  -16.7320  -28.6512   23.0366 C   0  0  0  0  0  0
  -26.4689  -31.6437   25.0734 C   0  0  0  0  0  0
  -25.3622  -31.3923   26.1258 C   0  0  0  0  0  0
  -27.0710  -30.2716   24.7102 C   0  0  0  0  0  0
  -27.6049  -32.4452   25.7532 C   0  0  0  0  0  0
  -27.5552  -37.1663   24.8463 C   0  0  0  0  0  0
  -21.4424  -29.2976   22.3343 N   0  0  0  0  0  0
  -26.4252  -37.3524   23.9405 N   0  0  0  0  0  0
  -24.8280  -30.8352   22.0840 N   0  0  0  0  0  0
  -23.4127  -28.7690   23.2973 O   0  0  0  0  0  0
  -26.9033  -24.3775   20.3383 O   0  0  0  0  0  0
  -26.5896  -34.8777   22.4474 O   0  0  0  0  0  0
  -23.6221  -32.0890   23.5970 O   0  0  0  0  0  0
  -24.5999  -15.4486   22.2969 C   0  0  0  0  0  0
  -25.5219  -14.2331   18.7754 C   0  0  0  0  0  0
  -24.8386  -15.9946   20.1650 C   0  0  0  0  0  0
  -25.3384  -13.5184   23.0485 C   0  0  0  0  0  0
  -26.2212  -12.0983   19.6859 C   0  0  0  0  0  0
  -25.2976  -13.2198   24.5276 C   0  0  0  0  0  0
  -26.4087   -9.5902   19.3560 C   0  0  0  0  0  0
  -25.0597  -18.1343   19.9019 C   0  0  0  0  0  0
  -25.9665  -20.2090   20.3013 C   0  0  0  0  0  0
  -28.6570  -10.6260   20.1929 C   0  0  0  0  0  0
  -29.4434  -11.2542   21.5224 C   0  0  0  0  0  0
  -26.0767  -22.5024   20.0967 C   0  0  0  0  0  0
  -27.2120  -10.9002   19.3540 C   0  0  2  0  0  0
  -26.1349  -11.9873   21.8565 N   0  0  0  0  0  0
  -30.8035  -12.0592   21.5542 N   0  0  0  0  0  0
  -31.3431  -13.2015   18.3496 H   0  0  0  0  0  0
  -31.0101  -11.6445   18.9970 H   0  0  0  0  0  0
  -29.2624  -11.4816   17.6152 H   0  0  0  0  0  0
  -29.7820  -12.9242   16.9143 H   0  0  0  0  0  0
  -27.3051  -12.9037   17.6961 H   0  0  0  0  0  0
  -28.2832  -14.1587   17.6317 H   0  0  0  0  0  0
  -27.9543  -15.0162   19.3603 H   0  0  0  0  0  0
  -28.8552  -13.6680   21.6530 H   0  0  0  0  0  0
  -29.3708  -14.9724   20.7486 H   0  0  0  0  0  0
  -25.0477  -10.0204   22.5596 H   0  0  0  0  0  0
  -24.0505   -7.8115   22.7927 H   0  0  0  0  0  0
  -21.1419   -8.8101   19.8032 H   0  0  0  0  0  0
  -22.1730  -10.9818   19.4901 H   0  0  0  0  0  0
  -21.2671   -7.6472   23.9721 H   0  0  0  0  0  0
  -21.1571   -6.0739   25.8959 H   0  0  0  0  0  0
  -22.0339   -2.7810   23.2657 H   0  0  0  0  0  0
  -22.4516  -12.3702   22.4913 H   0  0  0  0  0  0
  -20.9964  -13.2951   22.2456 H   0  0  0  0  0  0
  -26.0679  -15.8191   21.9309 H   0  0  0  0  0  0
  -27.0695  -15.9095   20.6318 H   0  0  0  0  0  0
  -26.7744  -32.4351   23.0537 H   0  0  0  0  0  0
  -25.0080  -33.8975   24.9722 H   0  0  0  0  0  0
  -22.8859  -31.2437   21.3303 H   0  0  0  0  0  0
  -23.3807  -35.9293   23.3215 H   0  0  0  0  0  0
  -24.3561  -36.8811   22.2098 H   0  0  0  0  0  0
  -23.7243  -37.6117   23.6858 H   0  0  0  0  0  0
  -26.4395  -30.8960   20.7048 H   0  0  0  0  0  0
  -26.9346  -30.2116   22.1875 H   0  0  0  0  0  0
  -27.7226  -27.4772   21.5563 H   0  0  0  0  0  0
  -25.2171  -25.5185   18.6999 H   0  0  0  0  0  0
  -23.8570  -27.4460   18.6192 H   0  0  0  0  0  0
  -24.0482  -30.4913   19.3943 H   0  0  0  0  0  0
  -22.8352  -29.2986   19.7409 H   0  0  0  0  0  0
  -25.1418  -36.1379   25.0721 H   0  0  0  0  0  0
  -21.0073  -28.3443   24.1206 H   0  0  0  0  0  0
  -20.5624  -26.2413   23.3690 H   0  0  0  0  0  0
  -21.6637  -26.7310   22.1234 H   0  0  0  0  0  0
  -19.6890  -25.6235   21.1307 H   0  0  0  0  0  0
  -19.6711  -27.3112   20.6715 H   0  0  0  0  0  0
  -17.4216  -26.6721   21.4016 H   0  0  0  0  0  0
  -18.0304  -26.0121   22.9034 H   0  0  0  0  0  0
  -19.7993  -30.7364   24.2118 H   0  0  0  0  0  0
  -17.5051  -31.6269   24.5171 H   0  0  0  0  0  0
  -15.5387  -30.2944   23.7735 H   0  0  0  0  0  0
  -15.8727  -28.0791   22.7122 H   0  0  0  0  0  0
  -24.5859  -30.7212   25.7554 H   0  0  0  0  0  0
  -24.8753  -32.3194   26.4293 H   0  0  0  0  0  0
  -25.7674  -30.9337   27.0287 H   0  0  0  0  0  0
  -26.3426  -29.6044   24.2479 H   0  0  0  0  0  0
  -27.4226  -29.7531   25.6034 H   0  0  0  0  0  0
  -27.9412  -30.3692   24.0610 H   0  0  0  0  0  0
  -27.2534  -33.3904   26.1680 H   0  0  0  0  0  0
  -28.4040  -32.6773   25.0480 H   0  0  0  0  0  0
  -28.0520  -31.8898   26.5786 H   0  0  0  0  0  0
  -28.2486  -38.0030   24.7525 H   0  0  0  0  0  0
  -28.1130  -36.2544   24.6279 H   0  0  0  0  0  0
  -27.2263  -37.1266   25.8861 H   0  0  0  0  0  0
  -20.9752  -29.8657   21.6411 H   0  0  0  0  0  0
  -26.0023  -38.2542   24.1430 H   0  0  0  0  0  0
  -24.2945  -16.2000   23.0128 H   0  0  0  0  0  0
  -25.7461  -14.4662   17.7441 H   0  0  0  0  0  0
  -24.2846  -12.9630   24.8368 H   0  0  0  0  0  0
  -25.6308  -14.0865   25.0975 H   0  0  0  0  0  0
  -25.9535  -12.3822   24.7615 H   0  0  0  0  0  0
  -25.4830   -9.6805   18.7870 H   0  0  0  0  0  0
  -26.1618   -9.2813   20.3671 H   0  0  0  0  0  0
  -26.9831   -8.7799   18.9070 H   0  0  0  0  0  0
  -24.0214  -18.3783   20.1306 H   0  0  0  0  0  0
  -25.0843  -18.1388   18.8128 H   0  0  0  0  0  0
  -26.9947  -19.9790   20.0204 H   0  0  0  0  0  0
  -25.9807  -20.1553   21.3902 H   0  0  0  0  0  0
  -28.4221   -9.6576   20.6301 H   0  0  0  0  0  0
  -29.3985  -10.2849   19.4759 H   0  0  0  0  0  0
  -29.7470  -10.3681   22.0798 H   0  0  0  0  0  0
  -28.7224  -11.6856   22.2134 H   0  0  0  0  0  0
  -25.1041  -22.7438   20.5267 H   0  0  0  0  0  0
  -25.9082  -22.5789   19.0225 H   0  0  0  0  0  0
  -27.4119  -10.9270   18.2921 H   0  0  0  0  0  0
  -31.5034  -11.7224   22.2013 H   0  0  0  0  0  0
  1 25  1  0  0  0
  1 30  2  0  0  0
  1 85  1  0  0  0
  2  3  1  0  0  0
  2 25  1  0  0  0
  2 86  1  0  0  0
  2 87  1  0  0  0
  3  4  1  0  0  0
  3 88  1  0  0  0
  3 89  1  0  0  0
  4  5  1  0  0  0
  4 90  1  0  0  0
  4 91  1  0  0  0
  5  6  1  0  0  0
  5 26  1  0  0  0
  5 92  1  0  0  0
  6 25  1  0  0  0
  6 93  1  0  0  0
  6 94  1  0  0  0
  7  8  2  0  0  0
  7 26  1  0  0  0
  7 29  1  0  0  0
  8  9  1  0  0  0
  8 22  1  0  0  0
  9 10  1  0  0  0
  9 27  2  0  0  0
 10 11  2  0  0  0
 10 15  1  0  0  0
 11 12  1  0  0  0
 11 95  1  0  0  0
 12 13  2  0  0  0
 12 96  1  0  0  0
 13 14  1  0  0  0
 13 31  1  0  0  0
 14 15  2  0  0  0
 14 97  1  0  0  0
 15 98  1  0  0  0
 16 17  2  0  0  0
 16 21  1  0  0  0
 16 31  1  0  0  0
 17 18  1  0  0  0
 17 99  1  0  0  0
 18 19  2  0  0  0
 18100  1  0  0  0
 19 20  1  0  0  0
 19 24  1  0  0  0
 20 21  2  0  0  0
 20101  1  0  0  0
 21 23  1  0  0  0
 22 28  1  0  0  0
 22 32  2  0  0  0
 26 27  1  0  0  0
 28102  1  0  0  0
 28103  1  0  0  0
 29104  1  0  0  0
 29105  1  0  0  0
 33 34  1  0  0  0
 33 66  1  0  0  0
 33 70  2  0  0  0
 34 36  1  0  0  0
 34 59  1  0  0  0
 34106  1  0  0  0
 35 44  2  0  0  0
 35 45  1  0  0  0
 35 68  1  0  0  0
 36 56  1  0  0  0
 36107  1  0  0  0
 37 39  1  0  0  0
 37 47  1  0  0  0
 37 66  1  0  0  0
 37108  1  0  0  0
 38 43  2  0  0  0
 38 46  1  0  0  0
 38 47  1  0  0  0
 39 64  1  0  0  0
 39 67  2  0  0  0
 40 52  1  0  0  0
 40 53  2  0  0  0
 40 58  1  0  0  0
 41109  1  0  0  0
 41110  1  0  0  0
 41111  1  0  0  0
 41 48  1  0  0  0
 42 43  1  0  0  0
 42 66  1  0  0  0
 42112  1  0  0  0
 42113  1  0  0  0
 43 44  1  0  0  0
 44114  1  0  0  0
 45 46  2  0  0  0
 45115  1  0  0  0
 46116  1  0  0  0
 47117  1  0  0  0
 47118  1  0  0  0
 48 56  1  0  0  0
 48 65  1  0  0  0
 48119  1  0  0  0
 49 50  1  0  0  0
 49 53  1  0  0  0
 49 64  1  0  0  0
 49120  1  0  0  0
 50 51  1  0  0  0
 50121  1  0  0  0
 50122  1  0  0  0
 51 52  1  0  0  0
 51123  1  0  0  0
 51124  1  0  0  0
 52125  1  0  0  0
 52126  1  0  0  0
 53 54  1  0  0  0
 54 55  2  0  0  0
 54127  1  0  0  0
 55 57  1  0  0  0
 55128  1  0  0  0
 56 69  2  0  0  0
 57 58  2  0  0  0
 57129  1  0  0  0
 58130  1  0  0  0
 59 60  1  0  0  0
 59 61  1  0  0  0
 59 62  1  0  0  0
 60131  1  0  0  0
 60132  1  0  0  0
 60133  1  0  0  0
 61134  1  0  0  0
 61135  1  0  0  0
 61136  1  0  0  0
 62137  1  0  0  0
 62138  1  0  0  0
 62139  1  0  0  0
 63 65  1  0  0  0
 63140  1  0  0  0
 63141  1  0  0  0
 63142  1  0  0  0
 64143  1  0  0  0
 65144  1  0  0  0
 68 82  1  0  0  0
 71 73  2  0  0  0
 71 74  1  0  0  0
 71145  1  0  0  0
 72 73  1  0  0  0
 72 75  2  0  0  0
 72146  1  0  0  0
 73 78  1  0  0  0
 74 76  1  0  0  0
 74 84  2  0  0  0
 75 83  1  0  0  0
 75 84  1  0  0  0
 76147  1  0  0  0
 76148  1  0  0  0
 76149  1  0  0  0
 77150  1  0  0  0
 77151  1  0  0  0
 77152  1  0  0  0
 77 83  1  0  0  0
 78 79  1  0  0  0
 78153  1  0  0  0
 78154  1  0  0  0
 79 82  1  0  0  0
 79155  1  0  0  0
 79156  1  0  0  0
 80 81  1  0  0  0
 80 83  1  0  0  0
 80157  1  0  0  0
 80158  1  0  0  0
 81 85  1  0  0  0
 81159  1  0  0  0
 81160  1  0  0  0
 82161  1  0  0  0
 82162  1  0  0  0
 83163  1  0  0  0
 85164  1  0  0  0
M  ISO  4   1 100  68 101  82 101  85 100
M  END
> <chiral flag>
0

> <version>
0

> <s_m_source_file>
/data/baiqing/PycharmProjects/Reinvent-master-3.2/result/LINK_invent/BTK/process_docking_weight1_custom_sum_contain_oxygen_bond_distance_aromatic_linkinvent_7_9_3/rearranged_h_0084.sdf

> <i_m_source_file_index>
32

> <r_mmod_Potential_Energy-OPLS-2005>
24065.990234375

> <r_mmod_Stretch_Energy-OPLS-2005>
13467.6650390625

> <r_mmod_Bend_Energy-OPLS-2005>
2937.97802734375

> <r_mmod_Torsional_Energy-OPLS-2005>
602.872497558594

> <r_mmod_Improper_Torsional_Energy-OPLS-2005>
75.7381362915039

> <r_mmod_Van_der_Waal_Energy-OPLS-2005>
4403.1083984375

> <r_mmod_Electrostatic_Energy-OPLS-2005>
-501.764801025391

> <r_mmod_Solvation_Energy-OPLS-2005>
-215.625335693359

> <b_mmod_Minimization_Converged-OPLS-2005>
0

> <r_mmod_RMS_Derivative-OPLS-2005>
2.79206418991089

$$$$
32
                    3D
 Structure written by MMmdl.
179187  0  0  1  0            999 V2000
  -30.7760  -14.4730   20.5324 C   0  0  0  0  0  0
  -30.3948  -12.3217   19.4085 C   0  0  0  0  0  0
  -29.4889  -12.5237   18.1804 C   0  0  0  0  0  0
  -28.0023  -12.3878   18.5786 C   0  0  0  0  0  0
  -27.6444  -13.2228   19.8365 C   0  0  2  0  0  0
  -28.6898  -13.0388   20.9547 C   0  0  0  0  0  0
  -25.2526  -13.8242   20.5601 C   0  0  0  0  0  0
  -24.1832  -13.0493   20.9150 C   0  0  0  0  0  0
  -24.6414  -11.6964   20.8690 C   0  0  0  0  0  0
  -23.9098  -10.4333   21.0342 C   0  0  0  0  0  0
  -24.3648   -9.4260   21.9130 C   0  0  0  0  0  0
  -23.6316   -8.2317   22.0771 C   0  0  0  0  0  0
  -22.4292   -8.0349   21.3564 C   0  0  0  0  0  0
  -21.9900   -9.0341   20.4674 C   0  0  0  0  0  0
  -22.7249  -10.2203   20.3026 C   0  0  0  0  0  0
  -21.6870   -6.0773   22.5307 C   0  0  0  0  0  0
  -21.4042   -6.5668   23.8249 C   0  0  0  0  0  0
  -21.3648   -5.6811   24.9200 C   0  0  0  0  0  0
  -21.6017   -4.3072   24.7213 C   0  0  0  0  0  0
  -21.8821   -3.8156   23.4325 C   0  0  0  0  0  0
  -21.9202   -4.6991   22.3386 C   0  0  0  0  0  0
  -22.7844  -13.5295   21.1761 C   0  0  0  0  0  0
  -22.1650   -4.2180   21.0953 F   0  0  0  0  0  0
  -21.5584   -3.4555   25.7705 F   0  0  0  0  0  0
  -30.0065  -13.3543   20.3863 N   0  0  0  0  0  0
  -26.2915  -12.9412   20.3133 N   0  0  0  0  0  0
  -25.9314  -11.6576   20.5615 N   0  0  0  0  0  0
  -22.0439  -12.8386   22.0357 N   0  0  0  0  0  0
  -25.4173  -15.1985   20.4042 N   0  0  0  0  0  0
  -31.9689  -14.4300   20.2228 O   0  0  0  0  0  0
  -21.6639   -6.8949   21.4292 O   0  0  0  0  0  0
  -22.3532  -14.5590   20.6560 O   0  0  0  0  0  0
  -24.6094  -31.8726   23.2059 C   0  0  0  0  0  0
  -25.9010  -32.4849   23.8370 C   0  0  1  0  0  0
  -27.2447  -27.4519   20.1049 C   0  0  0  0  0  0
  -25.5930  -33.8627   24.2360 N   0  0  0  0  0  0
  -23.3986  -30.4839   21.5495 C   0  0  2  0  0  0
  -24.8498  -28.9406   20.1307 C   0  0  0  0  0  0
  -22.7412  -29.4646   22.5052 C   0  0  0  0  0  0
  -18.0284  -28.1341   22.8490 C   0  0  0  0  0  0
  -24.1517  -36.7311   23.2614 C   0  0  0  0  0  0
  -25.9222  -30.8358   21.3607 C   0  0  0  0  0  0
  -26.0046  -29.4616   20.7330 C   0  0  0  0  0  0
  -27.2021  -28.7165   20.7319 C   0  0  0  0  0  0
  -26.0847  -26.9507   19.4786 C   0  0  0  0  0  0
  -24.8818  -27.6815   19.5069 C   0  0  0  0  0  0
  -23.6087  -29.7989   20.1712 C   0  0  0  0  0  0
  -25.4137  -36.3127   24.0330 C   0  0  1  0  0  0
  -20.5855  -28.3648   23.1336 C   0  0  2  0  0  0
  -20.6771  -26.9395   22.5394 C   0  0  0  0  0  0
  -19.5763  -26.6372   21.5187 C   0  0  0  0  0  0
  -18.1931  -26.7880   22.1598 C   0  0  0  0  0  0
  -19.1506  -28.8808   23.2905 C   0  0  0  0  0  0
  -18.9433  -30.1407   23.8927 C   0  0  0  0  0  0
  -17.6425  -30.6549   24.0539 C   0  0  0  0  0  0
  -25.9052  -34.9507   23.5140 C   0  0  0  0  0  0
  -16.5335  -29.9039   23.6288 C   0  0  0  0  0  0
  -16.7255  -28.6439   23.0341 C   0  0  0  0  0  0
  -26.4488  -31.6556   25.0642 C   0  0  0  0  0  0
  -25.3768  -31.3606   26.1385 C   0  0  0  0  0  0
  -27.0240  -30.2996   24.5897 C   0  0  0  0  0  0
  -27.6124  -32.4235   25.7384 C   0  0  0  0  0  0
  -27.5620  -37.1781   24.8460 C   0  0  0  0  0  0
  -21.4118  -29.3031   22.3780 N   0  0  0  0  0  0
  -26.4335  -37.3798   23.9393 N   0  0  0  0  0  0
  -24.6608  -31.0800   22.0985 N   0  0  0  0  0  0
  -23.4182  -28.8231   23.3117 O   0  0  0  0  0  0
  -28.4288  -26.7627   20.0321 O   0  0  0  0  0  0
  -26.5581  -34.8941   22.4689 O   0  0  0  0  0  0
  -23.5298  -32.1515   23.7465 O   0  0  0  0  0  0
  -31.8044  -21.4590   18.6348 C   0  0  0  0  0  0
  -30.3373  -23.3229   19.0545 C   0  0  0  0  0  0
  -31.4791  -22.8118   18.4104 C   0  0  0  0  0  0
  -31.0223  -20.7096   19.5408 C   0  0  0  0  0  0
  -29.5965  -22.5025   19.9285 C   0  0  0  0  0  0
  -33.8107  -27.2955   18.4378 C   0  0  0  0  0  0
  -31.7165  -26.8164   17.1862 C   0  0  0  0  0  0
  -33.9803  -26.1023   16.2722 C   0  0  0  0  0  0
  -29.1432  -15.9946   21.6513 C   0  0  0  0  0  0
  -32.3115  -23.7243   17.5160 C   0  0  0  0  0  0
  -31.4583  -19.3265   19.9957 C   0  0  0  0  0  0
  -28.3661  -22.9944   20.6855 C   0  0  0  0  0  0
  -32.9786  -24.8990   18.2885 C   0  0  0  0  0  0
  -30.4318  -18.1811   19.8179 C   0  0  0  0  0  0
  -27.8046  -24.3420   20.1917 C   0  0  0  0  0  0
  -31.0602  -16.8873   20.3897 C   0  0  0  0  0  0
  -28.5348  -25.5612   20.7999 C   0  0  0  0  0  0
  -33.1134  -26.2557   17.5361 C   0  0  0  0  0  0
  -29.9475  -21.2240   20.1759 N   0  0  0  0  0  0
  -30.1902  -15.7056   20.6615 N   0  0  0  0  0  0
  -31.4417  -12.3793   19.1031 H   0  0  0  0  0  0
  -30.2711  -11.3251   19.8344 H   0  0  0  0  0  0
  -29.7428  -11.8064   17.4005 H   0  0  0  0  0  0
  -29.6701  -13.5106   17.7477 H   0  0  0  0  0  0
  -27.7910  -11.3319   18.7509 H   0  0  0  0  0  0
  -27.3709  -12.6908   17.7412 H   0  0  0  0  0  0
  -27.6736  -14.2625   19.5157 H   0  0  0  0  0  0
  -28.6750  -12.0123   21.3190 H   0  0  0  0  0  0
  -28.4491  -13.6218   21.8353 H   0  0  0  0  0  0
  -25.2819   -9.5733   22.4681 H   0  0  0  0  0  0
  -24.0016   -7.4717   22.7497 H   0  0  0  0  0  0
  -21.0829   -8.8872   19.9002 H   0  0  0  0  0  0
  -22.3722  -10.9730   19.6101 H   0  0  0  0  0  0
  -21.2088   -7.6188   23.9768 H   0  0  0  0  0  0
  -21.1416   -6.0511   25.9105 H   0  0  0  0  0  0
  -22.0587   -2.7617   23.2793 H   0  0  0  0  0  0
  -22.4014  -12.0159   22.4901 H   0  0  0  0  0  0
  -21.1032  -13.1469   22.2427 H   0  0  0  0  0  0
  -24.6469  -15.8488   20.5223 H   0  0  0  0  0  0
  -26.2650  -15.6495   20.0886 H   0  0  0  0  0  0
  -26.7074  -32.5558   23.1128 H   0  0  0  0  0  0
  -25.0168  -33.9841   25.0565 H   0  0  0  0  0  0
  -22.6845  -31.2941   21.3976 H   0  0  0  0  0  0
  -23.3807  -35.9612   23.3271 H   0  0  0  0  0  0
  -24.3630  -36.8915   22.2030 H   0  0  0  0  0  0
  -23.7249  -37.6509   23.6621 H   0  0  0  0  0  0
  -26.0139  -31.5841   20.5728 H   0  0  0  0  0  0
  -26.8207  -30.9184   21.9592 H   0  0  0  0  0  0
  -28.0960  -29.1078   21.1986 H   0  0  0  0  0  0
  -26.1127  -26.0134   18.9396 H   0  0  0  0  0  0
  -24.0010  -27.2786   19.0258 H   0  0  0  0  0  0
  -23.7114  -30.5601   19.3969 H   0  0  0  0  0  0
  -22.7391  -29.1992   19.8934 H   0  0  0  0  0  0
  -25.1303  -36.1997   25.0820 H   0  0  0  0  0  0
  -20.9932  -28.3167   24.1461 H   0  0  0  0  0  0
  -20.5663  -26.2244   23.3558 H   0  0  0  0  0  0
  -21.6641  -26.7426   22.1185 H   0  0  0  0  0  0
  -19.6940  -25.6288   21.1198 H   0  0  0  0  0  0
  -19.6691  -27.3185   20.6724 H   0  0  0  0  0  0
  -17.4192  -26.6632   21.3995 H   0  0  0  0  0  0
  -18.0345  -26.0004   22.8993 H   0  0  0  0  0  0
  -19.7899  -30.7209   24.2325 H   0  0  0  0  0  0
  -17.4969  -31.6230   24.5141 H   0  0  0  0  0  0
  -15.5318  -30.2952   23.7564 H   0  0  0  0  0  0
  -15.8668  -28.0742   22.7083 H   0  0  0  0  0  0
  -24.5966  -30.6955   25.7655 H   0  0  0  0  0  0
  -24.8924  -32.2730   26.4861 H   0  0  0  0  0  0
  -25.8114  -30.8708   27.0104 H   0  0  0  0  0  0
  -26.2668  -29.6788   24.1073 H   0  0  0  0  0  0
  -27.4188  -29.7172   25.4230 H   0  0  0  0  0  0
  -27.8458  -30.4316   23.8854 H   0  0  0  0  0  0
  -27.2807  -33.3528   26.2022 H   0  0  0  0  0  0
  -28.3880  -32.6792   25.0150 H   0  0  0  0  0  0
  -28.0868  -31.8303   26.5214 H   0  0  0  0  0  0
  -28.2608  -38.0111   24.7566 H   0  0  0  0  0  0
  -28.1151  -36.2642   24.6219 H   0  0  0  0  0  0
  -27.2331  -37.1346   25.8860 H   0  0  0  0  0  0
  -20.9314  -29.8761   21.6997 H   0  0  0  0  0  0
  -26.0241  -38.2874   24.1406 H   0  0  0  0  0  0
  -32.6662  -21.0128   18.1581 H   0  0  0  0  0  0
  -30.0709  -24.3540   18.8817 H   0  0  0  0  0  0
  -33.9953  -28.2241   17.8946 H   0  0  0  0  0  0
  -34.7791  -26.9443   18.7931 H   0  0  0  0  0  0
  -33.2158  -27.5570   19.3127 H   0  0  0  0  0  0
  -31.7882  -27.7586   16.6427 H   0  0  0  0  0  0
  -31.1314  -27.0051   18.0881 H   0  0  0  0  0  0
  -31.1268  -26.1489   16.5632 H   0  0  0  0  0  0
  -34.0654  -27.0511   15.7392 H   0  0  0  0  0  0
  -33.5837  -25.3684   15.5726 H   0  0  0  0  0  0
  -34.9974  -25.7967   16.5235 H   0  0  0  0  0  0
  -29.3681  -15.5086   22.5985 H   0  0  0  0  0  0
  -29.0283  -17.0515   21.8760 H   0  0  0  0  0  0
  -28.1642  -15.6607   21.3137 H   0  0  0  0  0  0
  -31.6490  -24.0739   16.7270 H   0  0  0  0  0  0
  -33.0756  -23.1467   16.9994 H   0  0  0  0  0  0
  -31.7103  -19.4108   21.0519 H   0  0  0  0  0  0
  -32.3955  -19.0720   19.4995 H   0  0  0  0  0  0
  -28.6033  -23.0526   21.7494 H   0  0  0  0  0  0
  -27.5920  -22.2310   20.5986 H   0  0  0  0  0  0
  -33.9563  -24.5569   18.6330 H   0  0  0  0  0  0
  -32.4119  -25.0921   19.2000 H   0  0  0  0  0  0
  -30.1860  -18.0552   18.7627 H   0  0  0  0  0  0
  -29.5066  -18.4544   20.3179 H   0  0  0  0  0  0
  -26.7510  -24.3931   20.4664 H   0  0  0  0  0  0
  -27.8194  -24.3622   19.1030 H   0  0  0  0  0  0
  -31.6074  -17.1008   21.3084 H   0  0  0  0  0  0
  -31.8283  -16.6563   19.6456 H   0  0  0  0  0  0
  -29.6013  -25.3461   20.8623 H   0  0  0  0  0  0
  -28.2158  -25.7215   21.8304 H   0  0  0  0  0  0
  1 25  1  0  0  0
  1 30  2  0  0  0
  1 90  1  0  0  0
  2  3  1  0  0  0
  2 25  1  0  0  0
  2 91  1  0  0  0
  2 92  1  0  0  0
  3  4  1  0  0  0
  3 93  1  0  0  0
  3 94  1  0  0  0
  4  5  1  0  0  0
  4 95  1  0  0  0
  4 96  1  0  0  0
  5  6  1  0  0  0
  5 26  1  0  0  0
  5 97  1  0  0  0
  6 25  1  0  0  0
  6 98  1  0  0  0
  6 99  1  0  0  0
  7  8  2  0  0  0
  7 26  1  0  0  0
  7 29  1  0  0  0
  8  9  1  0  0  0
  8 22  1  0  0  0
  9 10  1  0  0  0
  9 27  2  0  0  0
 10 11  2  0  0  0
 10 15  1  0  0  0
 11 12  1  0  0  0
 11100  1  0  0  0
 12 13  2  0  0  0
 12101  1  0  0  0
 13 14  1  0  0  0
 13 31  1  0  0  0
 14 15  2  0  0  0
 14102  1  0  0  0
 15103  1  0  0  0
 16 17  2  0  0  0
 16 21  1  0  0  0
 16 31  1  0  0  0
 17 18  1  0  0  0
 17104  1  0  0  0
 18 19  2  0  0  0
 18105  1  0  0  0
 19 20  1  0  0  0
 19 24  1  0  0  0
 20 21  2  0  0  0
 20106  1  0  0  0
 21 23  1  0  0  0
 22 28  1  0  0  0
 22 32  2  0  0  0
 26 27  1  0  0  0
 28107  1  0  0  0
 28108  1  0  0  0
 29109  1  0  0  0
 29110  1  0  0  0
 33 34  1  0  0  0
 33 66  1  0  0  0
 33 70  2  0  0  0
 34 36  1  0  0  0
 34 59  1  0  0  0
 34111  1  0  0  0
 35 44  2  0  0  0
 35 45  1  0  0  0
 35 68  1  0  0  0
 36 56  1  0  0  0
 36112  1  0  0  0
 37 39  1  0  0  0
 37 47  1  0  0  0
 37 66  1  0  0  0
 37113  1  0  0  0
 38 43  2  0  0  0
 38 46  1  0  0  0
 38 47  1  0  0  0
 39 64  1  0  0  0
 39 67  2  0  0  0
 40 52  1  0  0  0
 40 53  2  0  0  0
 40 58  1  0  0  0
 41114  1  0  0  0
 41115  1  0  0  0
 41116  1  0  0  0
 41 48  1  0  0  0
 42 43  1  0  0  0
 42 66  1  0  0  0
 42117  1  0  0  0
 42118  1  0  0  0
 43 44  1  0  0  0
 44119  1  0  0  0
 45 46  2  0  0  0
 45120  1  0  0  0
 46121  1  0  0  0
 47122  1  0  0  0
 47123  1  0  0  0
 48 56  1  0  0  0
 48 65  1  0  0  0
 48124  1  0  0  0
 49 50  1  0  0  0
 49 53  1  0  0  0
 49 64  1  0  0  0
 49125  1  0  0  0
 50 51  1  0  0  0
 50126  1  0  0  0
 50127  1  0  0  0
 51 52  1  0  0  0
 51128  1  0  0  0
 51129  1  0  0  0
 52130  1  0  0  0
 52131  1  0  0  0
 53 54  1  0  0  0
 54 55  2  0  0  0
 54132  1  0  0  0
 55 57  1  0  0  0
 55133  1  0  0  0
 56 69  2  0  0  0
 57 58  2  0  0  0
 57134  1  0  0  0
 58135  1  0  0  0
 59 60  1  0  0  0
 59 61  1  0  0  0
 59 62  1  0  0  0
 60136  1  0  0  0
 60137  1  0  0  0
 60138  1  0  0  0
 61139  1  0  0  0
 61140  1  0  0  0
 61141  1  0  0  0
 62142  1  0  0  0
 62143  1  0  0  0
 62144  1  0  0  0
 63 65  1  0  0  0
 63145  1  0  0  0
 63146  1  0  0  0
 63147  1  0  0  0
 64148  1  0  0  0
 65149  1  0  0  0
 68 87  1  0  0  0
 71 73  2  0  0  0
 71 74  1  0  0  0
 71150  1  0  0  0
 72 73  1  0  0  0
 72 75  2  0  0  0
 72151  1  0  0  0
 73 80  1  0  0  0
 74 81  1  0  0  0
 74 89  2  0  0  0
 75 82  1  0  0  0
 75 89  1  0  0  0
 76152  1  0  0  0
 76153  1  0  0  0
 76154  1  0  0  0
 76 88  1  0  0  0
 77 88  1  0  0  0
 77155  1  0  0  0
 77156  1  0  0  0
 77157  1  0  0  0
 78 88  1  0  0  0
 78158  1  0  0  0
 78159  1  0  0  0
 78160  1  0  0  0
 79 90  1  0  0  0
 79161  1  0  0  0
 79162  1  0  0  0
 79163  1  0  0  0
 80 83  1  0  0  0
 80164  1  0  0  0
 80165  1  0  0  0
 81 84  1  0  0  0
 81166  1  0  0  0
 81167  1  0  0  0
 82 85  1  0  0  0
 82168  1  0  0  0
 82169  1  0  0  0
 83 88  1  0  0  0
 83170  1  0  0  0
 83171  1  0  0  0
 84 86  1  0  0  0
 84172  1  0  0  0
 84173  1  0  0  0
 85 87  1  0  0  0
 85174  1  0  0  0
 85175  1  0  0  0
 86 90  1  0  0  0
 86176  1  0  0  0
 86177  1  0  0  0
 87178  1  0  0  0
 87179  1  0  0  0
M  ISO  4   1 100  68 101  87 101  90 100
M  END
> <chiral flag>
0

> <version>
0

> <s_m_source_file>
/data/baiqing/PycharmProjects/Reinvent-master-3.2/result/LINK_invent/BTK/process_docking_weight1_custom_sum_contain_oxygen_bond_distance_aromatic_linkinvent_7_9_3/rearranged_h_0084.sdf

> <i_m_source_file_index>
33

> <r_mmod_Potential_Energy-OPLS-2005>
10.478536605835

> <r_mmod_Stretch_Energy-OPLS-2005>
41.9621849060059

> <r_mmod_Bend_Energy-OPLS-2005>
138.146865844727

> <r_mmod_Torsional_Energy-OPLS-2005>
295.816375732422

> <r_mmod_Improper_Torsional_Energy-OPLS-2005>
12.9340915679932

> <r_mmod_Van_der_Waal_Energy-OPLS-2005>
179.482894897461

> <r_mmod_Electrostatic_Energy-OPLS-2005>
-491.213775634766

> <r_mmod_Solvation_Energy-OPLS-2005>
-193.3154296875

> <b_mmod_Minimization_Converged-OPLS-2005>
0

> <r_mmod_RMS_Derivative-OPLS-2005>
6.59806823730469

$$$$
33
                    3D
 Structure written by MMmdl.
178186  0  0  1  0            999 V2000
  -30.5750  -14.7813   20.5115 C   0  0  0  0  0  0
  -30.4568  -12.4927   19.4770 C   0  0  0  0  0  0
  -29.5315  -12.5152   18.2361 C   0  0  0  0  0  0
  -28.0538  -12.3174   18.6440 C   0  0  0  0  0  0
  -27.6425  -13.2306   19.8358 C   0  0  2  0  0  0
  -28.6786  -13.1717   20.9771 C   0  0  0  0  0  0
  -25.2522  -13.8219   20.5624 C   0  0  0  0  0  0
  -24.1782  -13.0433   20.9203 C   0  0  0  0  0  0
  -24.6374  -11.6946   20.8741 C   0  0  0  0  0  0
  -23.9073  -10.4302   21.0374 C   0  0  0  0  0  0
  -24.3642   -9.4240   21.9142 C   0  0  0  0  0  0
  -23.6348   -8.2265   22.0713 C   0  0  0  0  0  0
  -22.4319   -8.0273   21.3516 C   0  0  0  0  0  0
  -21.9915   -9.0233   20.4634 C   0  0  0  0  0  0
  -22.7250  -10.2122   20.3041 C   0  0  0  0  0  0
  -21.6850   -6.0751   22.5298 C   0  0  0  0  0  0
  -21.4017   -6.5649   23.8242 C   0  0  0  0  0  0
  -21.3653   -5.6772   24.9192 C   0  0  0  0  0  0
  -21.6064   -4.3051   24.7239 C   0  0  0  0  0  0
  -21.8809   -3.8156   23.4346 C   0  0  0  0  0  0
  -21.9194   -4.6976   22.3424 C   0  0  0  0  0  0
  -22.7859  -13.5269   21.1898 C   0  0  0  0  0  0
  -22.1666   -4.2159   21.1003 F   0  0  0  0  0  0
  -21.5616   -3.4523   25.7746 F   0  0  0  0  0  0
  -29.9773  -13.5444   20.4062 N   0  0  0  0  0  0
  -26.2926  -12.9399   20.3185 N   0  0  0  0  0  0
  -25.9289  -11.6550   20.5656 N   0  0  0  0  0  0
  -22.0478  -12.8200   22.0429 N   0  0  0  0  0  0
  -25.4186  -15.1924   20.4137 N   0  0  0  0  0  0
  -31.7843  -14.8859   20.2647 O   0  0  0  0  0  0
  -21.6656   -6.8891   21.4256 O   0  0  0  0  0  0
  -22.3542  -14.5536   20.6717 O   0  0  0  0  0  0
  -24.6410  -31.8445   23.1893 C   0  0  0  0  0  0
  -25.9233  -32.4682   23.8268 C   0  0  1  0  0  0
  -27.2498  -27.2106   20.1636 C   0  0  0  0  0  0
  -25.6016  -33.8497   24.2214 N   0  0  0  0  0  0
  -23.4401  -30.4599   21.5344 C   0  0  2  0  0  0
  -24.8990  -28.8796   20.1342 C   0  0  0  0  0  0
  -22.7559  -29.4549   22.4936 C   0  0  0  0  0  0
  -18.0278  -28.1421   22.8434 C   0  0  0  0  0  0
  -24.1508  -36.7271   23.2619 C   0  0  0  0  0  0
  -25.9847  -30.7415   21.3824 C   0  0  0  0  0  0
  -26.0672  -29.3496   20.7504 C   0  0  0  0  0  0
  -27.2497  -28.5311   20.7492 C   0  0  0  0  0  0
  -26.0448  -26.8017   19.5539 C   0  0  0  0  0  0
  -24.8954  -27.6162   19.5230 C   0  0  0  0  0  0
  -23.6709  -29.7738   20.1575 C   0  0  0  0  0  0
  -25.4122  -36.3035   24.0304 C   0  0  1  0  0  0
  -20.5869  -28.3723   23.1246 C   0  0  2  0  0  0
  -20.6785  -26.9443   22.5382 C   0  0  0  0  0  0
  -19.5775  -26.6406   21.5172 C   0  0  0  0  0  0
  -18.1942  -26.7947   22.1583 C   0  0  0  0  0  0
  -19.1522  -28.8889   23.2828 C   0  0  0  0  0  0
  -18.9456  -30.1487   23.8863 C   0  0  0  0  0  0
  -17.6474  -30.6594   24.0540 C   0  0  0  0  0  0
  -25.9085  -34.9396   23.5067 C   0  0  0  0  0  0
  -16.5367  -29.9081   23.6329 C   0  0  0  0  0  0
  -16.7285  -28.6491   23.0344 C   0  0  0  0  0  0
  -26.4603  -31.6526   25.0692 C   0  0  0  0  0  0
  -25.3843  -31.3730   26.1444 C   0  0  0  0  0  0
  -27.0417  -30.2882   24.6267 C   0  0  0  0  0  0
  -27.6123  -32.4310   25.7499 C   0  0  0  0  0  0
  -27.5581  -37.1760   24.8447 C   0  0  0  0  0  0
  -21.4247  -29.3036   22.3642 N   0  0  0  0  0  0
  -26.4288  -37.3743   23.9410 N   0  0  0  0  0  0
  -24.7074  -31.0371   22.0896 N   0  0  0  0  0  0
  -23.4226  -28.8094   23.3059 O   0  0  0  0  0  0
  -28.3639  -26.3393   20.0052 O   0  0  0  0  0  0
  -26.5653  -34.8890   22.4643 O   0  0  0  0  0  0
  -23.5554  -32.1325   23.7140 O   0  0  0  0  0  0
  -29.1901  -20.9551   20.7378 C   0  0  0  0  0  0
  -29.8887  -22.3632   19.2048 C   0  0  0  0  0  0
  -29.1744  -22.3814   20.3637 C   0  0  0  0  0  0
  -29.8617  -20.1118   19.8423 C   0  0  0  0  0  0
  -31.7274  -19.1521   14.2625 C   0  0  0  0  0  0
  -31.8325  -22.1963   17.0963 C   0  0  0  0  0  0
  -28.7057  -23.3502   22.5861 C   0  0  0  0  0  0
  -26.9400  -23.3984   20.7269 C   0  0  0  0  0  0
  -31.3570  -18.0417   19.2260 C   0  0  0  0  0  0
  -28.8025  -18.0327   18.8160 C   0  0  0  0  0  0
  -31.9974  -19.3120   15.7660 C   0  0  0  0  0  0
  -30.8223  -19.9810   16.5422 C   0  0  0  0  0  0
  -29.8780  -17.4154   20.9742 C   0  0  0  0  0  0
  -28.7809  -25.2476   20.9625 C   0  0  0  0  0  0
  -31.2969  -20.8811   17.7241 C   0  0  2  0  0  0
  -28.4198  -23.6161   21.0823 C   0  0  0  0  0  0
  -29.9682  -18.4775   19.7269 C   0  0  0  0  0  0
  -30.3567  -21.0685   18.8824 N   0  0  0  0  0  0
  -29.7372  -15.8818   20.7177 N   0  0  0  0  0  0
  -31.4991  -12.6536   19.1830 H   0  0  0  0  0  0
  -30.4300  -11.5215   19.9702 H   0  0  0  0  0  0
  -29.8304  -11.7464   17.5194 H   0  0  0  0  0  0
  -29.6401  -13.4814   17.7352 H   0  0  0  0  0  0
  -27.9142  -11.2685   18.9222 H   0  0  0  0  0  0
  -27.3992  -12.4963   17.7873 H   0  0  0  0  0  0
  -27.6300  -14.2507   19.4406 H   0  0  0  0  0  0
  -28.7275  -12.1744   21.4133 H   0  0  0  0  0  0
  -28.3945  -13.8451   21.7907 H   0  0  0  0  0  0
  -25.2795   -9.5706   22.4683 H   0  0  0  0  0  0
  -24.0044   -7.4646   22.7424 H   0  0  0  0  0  0
  -21.0812   -8.8795   19.8959 H   0  0  0  0  0  0
  -22.3717  -10.9641   19.6148 H   0  0  0  0  0  0
  -21.1994   -7.6148   23.9757 H   0  0  0  0  0  0
  -21.1489   -6.0506   25.9100 H   0  0  0  0  0  0
  -22.0580   -2.7609   23.2874 H   0  0  0  0  0  0
  -22.4106  -11.9942   22.4932 H   0  0  0  0  0  0
  -21.1080  -13.1189   22.2592 H   0  0  0  0  0  0
  -24.6369  -15.8321   20.5202 H   0  0  0  0  0  0
  -26.2439  -15.6423   20.0377 H   0  0  0  0  0  0
  -26.7284  -32.5324   23.0974 H   0  0  0  0  0  0
  -25.0145  -33.9601   25.0366 H   0  0  0  0  0  0
  -22.7368  -31.2772   21.3739 H   0  0  0  0  0  0
  -23.3746  -35.9625   23.3262 H   0  0  0  0  0  0
  -24.3549  -36.8956   22.2026 H   0  0  0  0  0  0
  -23.7283  -37.6462   23.6689 H   0  0  0  0  0  0
  -26.1337  -31.4852   20.5986 H   0  0  0  0  0  0
  -26.8563  -30.7941   22.0221 H   0  0  0  0  0  0
  -28.1537  -28.9126   21.2036 H   0  0  0  0  0  0
  -26.0030  -25.8288   19.0850 H   0  0  0  0  0  0
  -24.0027  -27.2534   19.0300 H   0  0  0  0  0  0
  -23.8046  -30.5406   19.3912 H   0  0  0  0  0  0
  -22.7925  -29.2014   19.8444 H   0  0  0  0  0  0
  -25.1274  -36.1846   25.0784 H   0  0  0  0  0  0
  -20.9899  -28.3289   24.1401 H   0  0  0  0  0  0
  -20.5635  -26.2343   23.3589 H   0  0  0  0  0  0
  -21.6664  -26.7465   22.1198 H   0  0  0  0  0  0
  -19.6947  -25.6288   21.1230 H   0  0  0  0  0  0
  -19.6718  -27.3192   20.6670 H   0  0  0  0  0  0
  -17.4209  -26.6655   21.3992 H   0  0  0  0  0  0
  -18.0394  -26.0096   22.9002 H   0  0  0  0  0  0
  -19.7956  -30.7277   24.2242 H   0  0  0  0  0  0
  -17.5044  -31.6259   24.5193 H   0  0  0  0  0  0
  -15.5357  -30.2996   23.7678 H   0  0  0  0  0  0
  -15.8689  -28.0802   22.7128 H   0  0  0  0  0  0
  -24.6024  -30.7053   25.7819 H   0  0  0  0  0  0
  -24.9076  -32.2950   26.4761 H   0  0  0  0  0  0
  -25.8192  -30.8990   27.0270 H   0  0  0  0  0  0
  -26.2997  -29.6634   24.1268 H   0  0  0  0  0  0
  -27.3979  -29.7124   25.4826 H   0  0  0  0  0  0
  -27.8980  -30.3998   23.9599 H   0  0  0  0  0  0
  -27.2646  -33.3601   26.2010 H   0  0  0  0  0  0
  -28.3990  -32.6887   25.0404 H   0  0  0  0  0  0
  -28.0775  -31.8536   26.5496 H   0  0  0  0  0  0
  -28.2547  -38.0097   24.7507 H   0  0  0  0  0  0
  -28.1137  -36.2617   24.6260 H   0  0  0  0  0  0
  -27.2315  -37.1406   25.8857 H   0  0  0  0  0  0
  -20.9559  -29.8774   21.6793 H   0  0  0  0  0  0
  -26.0151  -38.2828   24.1414 H   0  0  0  0  0  0
  -28.6691  -20.5529   21.5949 H   0  0  0  0  0  0
  -30.1003  -23.2132   18.5737 H   0  0  0  0  0  0
  -32.4089  -18.4337   13.7992 H   0  0  0  0  0  0
  -31.8487  -20.1096   13.7542 H   0  0  0  0  0  0
  -30.7096  -18.7910   14.0895 H   0  0  0  0  0  0
  -32.2228  -22.8743   17.8562 H   0  0  0  0  0  0
  -31.0879  -22.7305   16.5024 H   0  0  0  0  0  0
  -32.6565  -21.9958   16.4132 H   0  0  0  0  0  0
  -28.4444  -22.3531   22.9315 H   0  0  0  0  0  0
  -28.1876  -24.0469   23.2440 H   0  0  0  0  0  0
  -29.7754  -23.4561   22.7828 H   0  0  0  0  0  0
  -26.6049  -22.4005   21.0165 H   0  0  0  0  0  0
  -26.8232  -23.4773   19.6455 H   0  0  0  0  0  0
  -26.2725  -24.1314   21.1747 H   0  0  0  0  0  0
  -31.6914  -18.4494   18.3015 H   0  0  0  0  0  0
  -31.3863  -16.9742   19.0584 H   0  0  0  0  0  0
  -32.1124  -18.2779   19.9719 H   0  0  0  0  0  0
  -28.5485  -18.7844   18.0735 H   0  0  0  0  0  0
  -27.8818  -17.8945   19.3941 H   0  0  0  0  0  0
  -29.0127  -17.0935   18.3020 H   0  0  0  0  0  0
  -32.9467  -19.8357   15.9141 H   0  0  0  0  0  0
  -32.1699  -18.3213   16.1868 H   0  0  0  0  0  0
  -30.2008  -19.1641   16.8886 H   0  0  0  0  0  0
  -30.1692  -20.5440   15.8728 H   0  0  0  0  0  0
  -29.0017  -17.6867   21.5693 H   0  0  0  0  0  0
  -30.7218  -17.5694   21.6500 H   0  0  0  0  0  0
  -29.8702  -25.3095   21.0284 H   0  0  0  0  0  0
  -28.4758  -25.7098   21.9044 H   0  0  0  0  0  0
  -32.1986  -20.4670   18.1707 H   0  0  0  0  0  0
  -28.7720  -15.5895   20.7683 H   0  0  0  0  0  0
  1 25  1  0  0  0
  1 30  2  0  0  0
  1 89  1  0  0  0
  2  3  1  0  0  0
  2 25  1  0  0  0
  2 90  1  0  0  0
  2 91  1  0  0  0
  3  4  1  0  0  0
  3 92  1  0  0  0
  3 93  1  0  0  0
  4  5  1  0  0  0
  4 94  1  0  0  0
  4 95  1  0  0  0
  5  6  1  0  0  0
  5 26  1  0  0  0
  5 96  1  0  0  0
  6 25  1  0  0  0
  6 97  1  0  0  0
  6 98  1  0  0  0
  7  8  2  0  0  0
  7 26  1  0  0  0
  7 29  1  0  0  0
  8  9  1  0  0  0
  8 22  1  0  0  0
  9 10  1  0  0  0
  9 27  2  0  0  0
 10 11  2  0  0  0
 10 15  1  0  0  0
 11 12  1  0  0  0
 11 99  1  0  0  0
 12 13  2  0  0  0
 12100  1  0  0  0
 13 14  1  0  0  0
 13 31  1  0  0  0
 14 15  2  0  0  0
 14101  1  0  0  0
 15102  1  0  0  0
 16 17  2  0  0  0
 16 21  1  0  0  0
 16 31  1  0  0  0
 17 18  1  0  0  0
 17103  1  0  0  0
 18 19  2  0  0  0
 18104  1  0  0  0
 19 20  1  0  0  0
 19 24  1  0  0  0
 20 21  2  0  0  0
 20105  1  0  0  0
 21 23  1  0  0  0
 22 28  1  0  0  0
 22 32  2  0  0  0
 26 27  1  0  0  0
 28106  1  0  0  0
 28107  1  0  0  0
 29108  1  0  0  0
 29109  1  0  0  0
 33 34  1  0  0  0
 33 66  1  0  0  0
 33 70  2  0  0  0
 34 36  1  0  0  0
 34 59  1  0  0  0
 34110  1  0  0  0
 35 44  2  0  0  0
 35 45  1  0  0  0
 35 68  1  0  0  0
 36 56  1  0  0  0
 36111  1  0  0  0
 37 39  1  0  0  0
 37 47  1  0  0  0
 37 66  1  0  0  0
 37112  1  0  0  0
 38 43  2  0  0  0
 38 46  1  0  0  0
 38 47  1  0  0  0
 39 64  1  0  0  0
 39 67  2  0  0  0
 40 52  1  0  0  0
 40 53  2  0  0  0
 40 58  1  0  0  0
 41113  1  0  0  0
 41114  1  0  0  0
 41115  1  0  0  0
 41 48  1  0  0  0
 42 43  1  0  0  0
 42 66  1  0  0  0
 42116  1  0  0  0
 42117  1  0  0  0
 43 44  1  0  0  0
 44118  1  0  0  0
 45 46  2  0  0  0
 45119  1  0  0  0
 46120  1  0  0  0
 47121  1  0  0  0
 47122  1  0  0  0
 48 56  1  0  0  0
 48 65  1  0  0  0
 48123  1  0  0  0
 49 50  1  0  0  0
 49 53  1  0  0  0
 49 64  1  0  0  0
 49124  1  0  0  0
 50 51  1  0  0  0
 50125  1  0  0  0
 50126  1  0  0  0
 51 52  1  0  0  0
 51127  1  0  0  0
 51128  1  0  0  0
 52129  1  0  0  0
 52130  1  0  0  0
 53 54  1  0  0  0
 54 55  2  0  0  0
 54131  1  0  0  0
 55 57  1  0  0  0
 55132  1  0  0  0
 56 69  2  0  0  0
 57 58  2  0  0  0
 57133  1  0  0  0
 58134  1  0  0  0
 59 60  1  0  0  0
 59 61  1  0  0  0
 59 62  1  0  0  0
 60135  1  0  0  0
 60136  1  0  0  0
 60137  1  0  0  0
 61138  1  0  0  0
 61139  1  0  0  0
 61140  1  0  0  0
 62141  1  0  0  0
 62142  1  0  0  0
 62143  1  0  0  0
 63 65  1  0  0  0
 63144  1  0  0  0
 63145  1  0  0  0
 63146  1  0  0  0
 64147  1  0  0  0
 65148  1  0  0  0
 68 84  1  0  0  0
 71 73  1  0  0  0
 71 74  2  0  0  0
 71149  1  0  0  0
 72 73  2  0  0  0
 72 88  1  0  0  0
 72150  1  0  0  0
 73 86  1  0  0  0
 74 87  1  0  0  0
 74 88  1  0  0  0
 75 81  1  0  0  0
 75151  1  0  0  0
 75152  1  0  0  0
 75153  1  0  0  0
 76154  1  0  0  0
 76155  1  0  0  0
 76156  1  0  0  0
 76 85  1  0  0  0
 77157  1  0  0  0
 77158  1  0  0  0
 77159  1  0  0  0
 77 86  1  0  0  0
 78 86  1  0  0  0
 78160  1  0  0  0
 78161  1  0  0  0
 78162  1  0  0  0
 79163  1  0  0  0
 79164  1  0  0  0
 79165  1  0  0  0
 79 87  1  0  0  0
 80 87  1  0  0  0
 80166  1  0  0  0
 80167  1  0  0  0
 80168  1  0  0  0
 81 82  1  0  0  0
 81169  1  0  0  0
 81170  1  0  0  0
 82 85  1  0  0  0
 82171  1  0  0  0
 82172  1  0  0  0
 83 87  1  0  0  0
 83 89  1  0  0  0
 83173  1  0  0  0
 83174  1  0  0  0
 84 86  1  0  0  0
 84175  1  0  0  0
 84176  1  0  0  0
 85 88  1  0  0  0
 85177  1  0  0  0
 89178  1  0  0  0
M  ISO  4   1 100  68 101  84 101  89 100
M  END
> <chiral flag>
0

> <version>
0

> <s_m_source_file>
/data/baiqing/PycharmProjects/Reinvent-master-3.2/result/LINK_invent/BTK/process_docking_weight1_custom_sum_contain_oxygen_bond_distance_aromatic_linkinvent_7_9_3/rearranged_h_0084.sdf

> <i_m_source_file_index>
34

> <r_mmod_Potential_Energy-OPLS-2005>
421.842651367188

> <r_mmod_Stretch_Energy-OPLS-2005>
196.964797973633

> <r_mmod_Bend_Energy-OPLS-2005>
332.066009521484

> <r_mmod_Torsional_Energy-OPLS-2005>
306.312866210938

> <r_mmod_Improper_Torsional_Energy-OPLS-2005>
5.22261810302734

> <r_mmod_Van_der_Waal_Energy-OPLS-2005>
136.49626159668

> <r_mmod_Electrostatic_Energy-OPLS-2005>
-471.284240722656

> <r_mmod_Solvation_Energy-OPLS-2005>
-191.127838134766

> <b_mmod_Minimization_Converged-OPLS-2005>
0

> <r_mmod_RMS_Derivative-OPLS-2005>
10.2655363082886

$$$$
34
                    3D
 Structure written by MMmdl.
164172  0  0  1  0            999 V2000
  -30.6535  -14.5862   20.5000 C   0  0  0  0  0  0
  -30.4194  -12.3597   19.4510 C   0  0  0  0  0  0
  -29.5083  -12.5193   18.2151 C   0  0  0  0  0  0
  -28.0231  -12.3901   18.6094 C   0  0  0  0  0  0
  -27.6535  -13.2283   19.8632 C   0  0  2  0  0  0
  -28.6958  -13.0741   20.9948 C   0  0  0  0  0  0
  -25.2581  -13.8203   20.5664 C   0  0  0  0  0  0
  -24.1849  -13.0477   20.9171 C   0  0  0  0  0  0
  -24.6436  -11.6948   20.8721 C   0  0  0  0  0  0
  -23.9092  -10.4331   21.0403 C   0  0  0  0  0  0
  -24.3649   -9.4244   21.9178 C   0  0  0  0  0  0
  -23.6327   -8.2273   22.0744 C   0  0  0  0  0  0
  -22.4306   -8.0304   21.3548 C   0  0  0  0  0  0
  -21.9947   -9.0283   20.4657 C   0  0  0  0  0  0
  -22.7269  -10.2165   20.3066 C   0  0  0  0  0  0
  -21.6873   -6.0757   22.5286 C   0  0  0  0  0  0
  -21.4032   -6.5656   23.8221 C   0  0  0  0  0  0
  -21.3662   -5.6799   24.9173 C   0  0  0  0  0  0
  -21.6049   -4.3064   24.7216 C   0  0  0  0  0  0
  -21.8824   -3.8159   23.4337 C   0  0  0  0  0  0
  -21.9206   -4.6978   22.3400 C   0  0  0  0  0  0
  -22.7880  -13.5268   21.1837 C   0  0  0  0  0  0
  -22.1669   -4.2172   21.0969 F   0  0  0  0  0  0
  -21.5620   -3.4540   25.7720 F   0  0  0  0  0  0
  -30.0154  -13.3837   20.4295 N   0  0  0  0  0  0
  -26.3008  -12.9399   20.3300 N   0  0  0  0  0  0
  -25.9368  -11.6556   20.5739 N   0  0  0  0  0  0
  -22.0506  -12.8267   22.0386 N   0  0  0  0  0  0
  -25.4315  -15.1922   20.4071 N   0  0  0  0  0  0
  -31.8177  -14.7284   20.1128 O   0  0  0  0  0  0
  -21.6680   -6.8901   21.4244 O   0  0  0  0  0  0
  -22.3581  -14.5602   20.6715 O   0  0  0  0  0  0
  -24.6249  -31.8633   23.2069 C   0  0  0  0  0  0
  -25.9118  -32.4783   23.8402 C   0  0  1  0  0  0
  -27.2229  -27.3648   20.1016 C   0  0  0  0  0  0
  -25.5962  -33.8589   24.2324 N   0  0  0  0  0  0
  -23.4159  -30.4899   21.5479 C   0  0  2  0  0  0
  -24.8544  -28.9435   20.1176 C   0  0  0  0  0  0
  -22.7461  -29.4650   22.4944 C   0  0  0  0  0  0
  -18.0283  -28.1390   22.8480 C   0  0  0  0  0  0
  -24.1495  -36.7310   23.2636 C   0  0  0  0  0  0
  -25.9527  -30.8038   21.3731 C   0  0  0  0  0  0
  -26.0214  -29.4368   20.7113 C   0  0  0  0  0  0
  -27.2063  -28.6581   20.6916 C   0  0  0  0  0  0
  -26.0288  -26.8966   19.5084 C   0  0  0  0  0  0
  -24.8558  -27.6750   19.5155 C   0  0  0  0  0  0
  -23.6312  -29.8306   20.1597 C   0  0  0  0  0  0
  -25.4109  -36.3085   24.0340 C   0  0  1  0  0  0
  -20.5881  -28.3696   23.1277 C   0  0  2  0  0  0
  -20.6773  -26.9426   22.5390 C   0  0  0  0  0  0
  -19.5746  -26.6393   21.5195 C   0  0  0  0  0  0
  -18.1930  -26.7936   22.1610 C   0  0  0  0  0  0
  -19.1537  -28.8854   23.2881 C   0  0  0  0  0  0
  -18.9466  -30.1454   23.8909 C   0  0  0  0  0  0
  -17.6466  -30.6587   24.0574 C   0  0  0  0  0  0
  -25.9048  -34.9453   23.5117 C   0  0  0  0  0  0
  -16.5357  -29.9093   23.6321 C   0  0  0  0  0  0
  -16.7273  -28.6510   23.0345 C   0  0  0  0  0  0
  -26.4515  -31.6594   25.0776 C   0  0  0  0  0  0
  -25.3782  -31.3736   26.1538 C   0  0  0  0  0  0
  -27.0356  -30.3022   24.6222 C   0  0  0  0  0  0
  -27.6076  -32.4335   25.7519 C   0  0  0  0  0  0
  -27.5591  -37.1799   24.8458 C   0  0  0  0  0  0
  -21.4180  -29.3068   22.3692 N   0  0  0  0  0  0
  -26.4286  -37.3786   23.9422 N   0  0  0  0  0  0
  -24.6827  -31.0697   22.0985 N   0  0  0  0  0  0
  -23.4191  -28.8193   23.3021 O   0  0  0  0  0  0
  -28.3930  -26.6134   20.1200 O   0  0  0  0  0  0
  -26.5591  -34.8906   22.4667 O   0  0  0  0  0  0
  -23.5423  -32.1423   23.7414 O   0  0  0  0  0  0
  -26.5819  -22.2114   19.3024 C   0  0  0  0  0  0
  -27.7708  -21.7278   19.8911 C   0  0  0  0  0  0
  -28.2078  -20.3997   19.5289 C   0  0  0  0  0  0
  -27.5525  -19.8036   18.4102 C   0  0  0  0  0  0
  -26.4103  -20.4248   17.8612 C   0  0  0  0  0  0
  -28.0809  -18.5498   17.7088 C   0  0  0  0  0  0
  -25.6836  -19.8578   16.6498 C   0  0  0  0  0  0
  -28.5405  -22.6846   20.8343 C   0  0  0  0  0  0
  -29.3781  -19.6330   20.2146 C   0  0  0  0  0  0
  -28.1164  -24.2105   20.9456 C   0  0  0  0  0  0
  -29.0750  -18.1535   20.7147 C   0  0  0  0  0  0
  -30.2352  -17.0987   20.5360 C   0  0  0  0  0  0
  -28.4187  -25.1967   19.7660 C   0  0  0  0  0  0
  -25.9034  -21.5715   18.3391 N   0  0  0  0  0  0
  -29.8820  -15.6689   20.7979 N   0  0  0  0  0  0
  -31.4705  -12.4426   19.1644 H   0  0  0  0  0  0
  -30.2971  -11.3663   19.8835 H   0  0  0  0  0  0
  -29.7615  -11.7724   17.4621 H   0  0  0  0  0  0
  -29.6806  -13.4884   17.7412 H   0  0  0  0  0  0
  -27.8152  -11.3355   18.7852 H   0  0  0  0  0  0
  -27.3900  -12.6849   17.7713 H   0  0  0  0  0  0
  -27.6724  -14.2701   19.5433 H   0  0  0  0  0  0
  -28.6893  -12.0609   21.3992 H   0  0  0  0  0  0
  -28.4557  -13.7321   21.8311 H   0  0  0  0  0  0
  -25.2790   -9.5739   22.4756 H   0  0  0  0  0  0
  -24.0048   -7.4691   22.7481 H   0  0  0  0  0  0
  -21.0857   -8.8822   19.8986 H   0  0  0  0  0  0
  -22.3721  -10.9705   19.6191 H   0  0  0  0  0  0
  -21.2039   -7.6169   23.9721 H   0  0  0  0  0  0
  -21.1467   -6.0530   25.9077 H   0  0  0  0  0  0
  -22.0603   -2.7623   23.2827 H   0  0  0  0  0  0
  -22.4106  -11.9918   22.4761 H   0  0  0  0  0  0
  -21.1152  -13.1327   22.2624 H   0  0  0  0  0  0
  -24.6666  -15.8490   20.5148 H   0  0  0  0  0  0
  -26.2855  -15.6271   20.0823 H   0  0  0  0  0  0
  -26.7188  -32.5432   23.1150 H   0  0  0  0  0  0
  -25.0177  -33.9743   25.0515 H   0  0  0  0  0  0
  -22.7099  -31.3103   21.4075 H   0  0  0  0  0  0
  -23.3754  -35.9649   23.3264 H   0  0  0  0  0  0
  -24.3597  -36.8953   22.2056 H   0  0  0  0  0  0
  -23.7232  -37.6501   23.6669 H   0  0  0  0  0  0
  -26.0959  -31.5730   20.6116 H   0  0  0  0  0  0
  -26.8289  -30.8362   22.0100 H   0  0  0  0  0  0
  -28.1091  -29.0453   21.1436 H   0  0  0  0  0  0
  -25.9675  -25.9314   19.0301 H   0  0  0  0  0  0
  -23.9556  -27.2847   19.0606 H   0  0  0  0  0  0
  -23.7784  -30.6152   19.4156 H   0  0  0  0  0  0
  -22.7462  -29.2812   19.8353 H   0  0  0  0  0  0
  -25.1274  -36.1953   25.0837 H   0  0  0  0  0  0
  -20.9966  -28.3254   24.1398 H   0  0  0  0  0  0
  -20.5667  -26.2314   23.3597 H   0  0  0  0  0  0
  -21.6650  -26.7462   22.1193 H   0  0  0  0  0  0
  -19.6916  -25.6303   21.1227 H   0  0  0  0  0  0
  -19.6673  -27.3199   20.6727 H   0  0  0  0  0  0
  -17.4201  -26.6685   21.4011 H   0  0  0  0  0  0
  -18.0334  -26.0076   22.9006 H   0  0  0  0  0  0
  -19.7948  -30.7259   24.2287 H   0  0  0  0  0  0
  -17.5030  -31.6260   24.5195 H   0  0  0  0  0  0
  -15.5364  -30.3011   23.7634 H   0  0  0  0  0  0
  -15.8672  -28.0834   22.7054 H   0  0  0  0  0  0
  -24.5887  -30.7162   25.7889 H   0  0  0  0  0  0
  -24.9083  -32.2917   26.5080 H   0  0  0  0  0  0
  -25.8142  -30.8823   27.0248 H   0  0  0  0  0  0
  -26.2924  -29.6742   24.1303 H   0  0  0  0  0  0
  -27.4116  -29.7307   25.4718 H   0  0  0  0  0  0
  -27.8771  -30.4311   23.9409 H   0  0  0  0  0  0
  -27.2683  -33.3603   26.2160 H   0  0  0  0  0  0
  -28.3845  -32.6954   25.0324 H   0  0  0  0  0  0
  -28.0819  -31.8454   26.5384 H   0  0  0  0  0  0
  -28.2577  -38.0127   24.7537 H   0  0  0  0  0  0
  -28.1110  -36.2654   24.6224 H   0  0  0  0  0  0
  -27.2330  -37.1391   25.8866 H   0  0  0  0  0  0
  -20.9360  -29.8834   21.6936 H   0  0  0  0  0  0
  -26.0167  -38.2862   24.1432 H   0  0  0  0  0  0
  -26.1668  -23.1704   19.5693 H   0  0  0  0  0  0
  -29.0211  -18.1642   18.0928 H   0  0  0  0  0  0
  -28.2778  -18.7895   16.6654 H   0  0  0  0  0  0
  -27.3451  -17.7461   17.7403 H   0  0  0  0  0  0
  -26.3391  -19.8160   15.7792 H   0  0  0  0  0  0
  -24.8249  -20.4719   16.3799 H   0  0  0  0  0  0
  -25.3252  -18.8494   16.8512 H   0  0  0  0  0  0
  -29.5976  -22.6412   20.5711 H   0  0  0  0  0  0
  -28.4638  -22.2549   21.8350 H   0  0  0  0  0  0
  -29.7712  -20.2200   21.0447 H   0  0  0  0  0  0
  -30.1945  -19.6077   19.4908 H   0  0  0  0  0  0
  -28.6816  -24.5976   21.7926 H   0  0  0  0  0  0
  -27.0728  -24.3067   21.2475 H   0  0  0  0  0  0
  -28.2013  -17.7648   20.1955 H   0  0  0  0  0  0
  -28.7634  -18.1933   21.7595 H   0  0  0  0  0  0
  -31.0790  -17.3808   21.1655 H   0  0  0  0  0  0
  -30.6039  -17.1562   19.5096 H   0  0  0  0  0  0
  -27.8141  -24.9660   18.8902 H   0  0  0  0  0  0
  -29.4402  -25.0096   19.4357 H   0  0  0  0  0  0
  -28.9481  -15.4718   21.1250 H   0  0  0  0  0  0
  1 25  1  0  0  0
  1 30  2  0  0  0
  1 85  1  0  0  0
  2  3  1  0  0  0
  2 25  1  0  0  0
  2 86  1  0  0  0
  2 87  1  0  0  0
  3  4  1  0  0  0
  3 88  1  0  0  0
  3 89  1  0  0  0
  4  5  1  0  0  0
  4 90  1  0  0  0
  4 91  1  0  0  0
  5  6  1  0  0  0
  5 26  1  0  0  0
  5 92  1  0  0  0
  6 25  1  0  0  0
  6 93  1  0  0  0
  6 94  1  0  0  0
  7  8  2  0  0  0
  7 26  1  0  0  0
  7 29  1  0  0  0
  8  9  1  0  0  0
  8 22  1  0  0  0
  9 10  1  0  0  0
  9 27  2  0  0  0
 10 11  2  0  0  0
 10 15  1  0  0  0
 11 12  1  0  0  0
 11 95  1  0  0  0
 12 13  2  0  0  0
 12 96  1  0  0  0
 13 14  1  0  0  0
 13 31  1  0  0  0
 14 15  2  0  0  0
 14 97  1  0  0  0
 15 98  1  0  0  0
 16 17  2  0  0  0
 16 21  1  0  0  0
 16 31  1  0  0  0
 17 18  1  0  0  0
 17 99  1  0  0  0
 18 19  2  0  0  0
 18100  1  0  0  0
 19 20  1  0  0  0
 19 24  1  0  0  0
 20 21  2  0  0  0
 20101  1  0  0  0
 21 23  1  0  0  0
 22 28  1  0  0  0
 22 32  2  0  0  0
 26 27  1  0  0  0
 28102  1  0  0  0
 28103  1  0  0  0
 29104  1  0  0  0
 29105  1  0  0  0
 33 34  1  0  0  0
 33 66  1  0  0  0
 33 70  2  0  0  0
 34 36  1  0  0  0
 34 59  1  0  0  0
 34106  1  0  0  0
 35 44  2  0  0  0
 35 45  1  0  0  0
 35 68  1  0  0  0
 36 56  1  0  0  0
 36107  1  0  0  0
 37 39  1  0  0  0
 37 47  1  0  0  0
 37 66  1  0  0  0
 37108  1  0  0  0
 38 43  2  0  0  0
 38 46  1  0  0  0
 38 47  1  0  0  0
 39 64  1  0  0  0
 39 67  2  0  0  0
 40 52  1  0  0  0
 40 53  2  0  0  0
 40 58  1  0  0  0
 41109  1  0  0  0
 41110  1  0  0  0
 41111  1  0  0  0
 41 48  1  0  0  0
 42 43  1  0  0  0
 42 66  1  0  0  0
 42112  1  0  0  0
 42113  1  0  0  0
 43 44  1  0  0  0
 44114  1  0  0  0
 45 46  2  0  0  0
 45115  1  0  0  0
 46116  1  0  0  0
 47117  1  0  0  0
 47118  1  0  0  0
 48 56  1  0  0  0
 48 65  1  0  0  0
 48119  1  0  0  0
 49 50  1  0  0  0
 49 53  1  0  0  0
 49 64  1  0  0  0
 49120  1  0  0  0
 50 51  1  0  0  0
 50121  1  0  0  0
 50122  1  0  0  0
 51 52  1  0  0  0
 51123  1  0  0  0
 51124  1  0  0  0
 52125  1  0  0  0
 52126  1  0  0  0
 53 54  1  0  0  0
 54 55  2  0  0  0
 54127  1  0  0  0
 55 57  1  0  0  0
 55128  1  0  0  0
 56 69  2  0  0  0
 57 58  2  0  0  0
 57129  1  0  0  0
 58130  1  0  0  0
 59 60  1  0  0  0
 59 61  1  0  0  0
 59 62  1  0  0  0
 60131  1  0  0  0
 60132  1  0  0  0
 60133  1  0  0  0
 61134  1  0  0  0
 61135  1  0  0  0
 61136  1  0  0  0
 62137  1  0  0  0
 62138  1  0  0  0
 62139  1  0  0  0
 63 65  1  0  0  0
 63140  1  0  0  0
 63141  1  0  0  0
 63142  1  0  0  0
 64143  1  0  0  0
 65144  1  0  0  0
 68 83  1  0  0  0
 71 72  2  0  0  0
 71 84  1  0  0  0
 71145  1  0  0  0
 72 73  1  0  0  0
 72 78  1  0  0  0
 73 74  2  0  0  0
 73 79  1  0  0  0
 74 75  1  0  0  0
 74 76  1  0  0  0
 75 77  1  0  0  0
 75 84  2  0  0  0
 76146  1  0  0  0
 76147  1  0  0  0
 76148  1  0  0  0
 77149  1  0  0  0
 77150  1  0  0  0
 77151  1  0  0  0
 78 80  1  0  0  0
 78152  1  0  0  0
 78153  1  0  0  0
 79 81  1  0  0  0
 79154  1  0  0  0
 79155  1  0  0  0
 80 83  1  0  0  0
 80156  1  0  0  0
 80157  1  0  0  0
 81 82  1  0  0  0
 81158  1  0  0  0
 81159  1  0  0  0
 82 85  1  0  0  0
 82160  1  0  0  0
 82161  1  0  0  0
 83162  1  0  0  0
 83163  1  0  0  0
 85164  1  0  0  0
M  ISO  4   1 100  68 101  83 101  85 100
M  END
> <chiral flag>
0

> <version>
0

> <s_m_source_file>
/data/baiqing/PycharmProjects/Reinvent-master-3.2/result/LINK_invent/BTK/process_docking_weight1_custom_sum_contain_oxygen_bond_distance_aromatic_linkinvent_7_9_3/rearranged_h_0084.sdf

> <i_m_source_file_index>
35

> <r_mmod_Potential_Energy-OPLS-2005>
-153.395797729492

> <r_mmod_Stretch_Energy-OPLS-2005>
64.4082870483398

> <r_mmod_Bend_Energy-OPLS-2005>
134.207290649414

> <r_mmod_Torsional_Energy-OPLS-2005>
214.883728027344

> <r_mmod_Improper_Torsional_Energy-OPLS-2005>
5.63007545471191

> <r_mmod_Van_der_Waal_Energy-OPLS-2005>
153.754638671875

> <r_mmod_Electrostatic_Energy-OPLS-2005>
-530.838439941406

> <r_mmod_Solvation_Energy-OPLS-2005>
-226.547622680664

> <b_mmod_Minimization_Converged-OPLS-2005>
0

> <r_mmod_RMS_Derivative-OPLS-2005>
3.71157288551331

$$$$
35
                    3D
 Structure written by MMmdl.
162170  0  0  1  0            999 V2000
  -30.6772  -14.5305   20.5710 C   0  0  0  0  0  0
  -30.4306  -12.3415   19.4353 C   0  0  0  0  0  0
  -29.5081  -12.5264   18.2137 C   0  0  0  0  0  0
  -28.0265  -12.3703   18.6158 C   0  0  0  0  0  0
  -27.6594  -13.2098   19.8698 C   0  0  2  0  0  0
  -28.7014  -13.0107   20.9959 C   0  0  0  0  0  0
  -25.2524  -13.8115   20.5585 C   0  0  0  0  0  0
  -24.1813  -13.0397   20.9158 C   0  0  0  0  0  0
  -24.6391  -11.6881   20.8734 C   0  0  0  0  0  0
  -23.9057  -10.4284   21.0406 C   0  0  0  0  0  0
  -24.3618   -9.4207   21.9180 C   0  0  0  0  0  0
  -23.6299   -8.2242   22.0754 C   0  0  0  0  0  0
  -22.4281   -8.0276   21.3545 C   0  0  0  0  0  0
  -21.9911   -9.0251   20.4653 C   0  0  0  0  0  0
  -22.7233  -10.2126   20.3058 C   0  0  0  0  0  0
  -21.6855   -6.0746   22.5293 C   0  0  0  0  0  0
  -21.4016   -6.5654   23.8224 C   0  0  0  0  0  0
  -21.3657   -5.6796   24.9181 C   0  0  0  0  0  0
  -21.6041   -4.3056   24.7224 C   0  0  0  0  0  0
  -21.8820   -3.8156   23.4343 C   0  0  0  0  0  0
  -21.9193   -4.6979   22.3408 C   0  0  0  0  0  0
  -22.7840  -13.5207   21.1828 C   0  0  0  0  0  0
  -22.1646   -4.2176   21.0979 F   0  0  0  0  0  0
  -21.5641   -3.4528   25.7726 F   0  0  0  0  0  0
  -30.0298  -13.3345   20.4471 N   0  0  0  0  0  0
  -26.2996  -12.9317   20.3298 N   0  0  0  0  0  0
  -25.9323  -11.6476   20.5744 N   0  0  0  0  0  0
  -22.0451  -12.8251   22.0401 N   0  0  0  0  0  0
  -25.4102  -15.1815   20.3906 N   0  0  0  0  0  0
  -31.8063  -14.7235   20.1127 O   0  0  0  0  0  0
  -21.6640   -6.8881   21.4247 O   0  0  0  0  0  0
  -22.3546  -14.5511   20.6663 O   0  0  0  0  0  0
  -24.6187  -31.8651   23.2059 C   0  0  0  0  0  0
  -25.9065  -32.4809   23.8374 C   0  0  1  0  0  0
  -27.2330  -27.3982   20.1175 C   0  0  0  0  0  0
  -25.5906  -33.8602   24.2299 N   0  0  0  0  0  0
  -23.4098  -30.4884   21.5454 C   0  0  2  0  0  0
  -24.8610  -28.9515   20.1114 C   0  0  0  0  0  0
  -22.7441  -29.4648   22.4949 C   0  0  0  0  0  0
  -18.0280  -28.1385   22.8497 C   0  0  0  0  0  0
  -24.1489  -36.7309   23.2638 C   0  0  0  0  0  0
  -25.9426  -30.8226   21.3650 C   0  0  0  0  0  0
  -26.0227  -29.4545   20.7117 C   0  0  0  0  0  0
  -27.2160  -28.6863   20.7101 C   0  0  0  0  0  0
  -26.0588  -26.9242   19.4976 C   0  0  0  0  0  0
  -24.8752  -27.6879   19.4966 C   0  0  0  0  0  0
  -23.6225  -29.8202   20.1604 C   0  0  0  0  0  0
  -25.4110  -36.3099   24.0331 C   0  0  1  0  0  0
  -20.5878  -28.3681   23.1303 C   0  0  2  0  0  0
  -20.6774  -26.9406   22.5418 C   0  0  0  0  0  0
  -19.5746  -26.6386   21.5221 C   0  0  0  0  0  0
  -18.1928  -26.7932   22.1630 C   0  0  0  0  0  0
  -19.1533  -28.8844   23.2900 C   0  0  0  0  0  0
  -18.9456  -30.1457   23.8913 C   0  0  0  0  0  0
  -17.6458  -30.6585   24.0567 C   0  0  0  0  0  0
  -25.9042  -34.9466   23.5112 C   0  0  0  0  0  0
  -16.5348  -29.9093   23.6325 C   0  0  0  0  0  0
  -16.7273  -28.6505   23.0346 C   0  0  0  0  0  0
  -26.4477  -31.6599   25.0715 C   0  0  0  0  0  0
  -25.3731  -31.3723   26.1457 C   0  0  0  0  0  0
  -27.0312  -30.3034   24.6120 C   0  0  0  0  0  0
  -27.6045  -32.4325   25.7483 C   0  0  0  0  0  0
  -27.5579  -37.1809   24.8459 C   0  0  0  0  0  0
  -21.4157  -29.3041   22.3690 N   0  0  0  0  0  0
  -26.4293  -37.3785   23.9400 N   0  0  0  0  0  0
  -24.6750  -31.0738   22.0968 N   0  0  0  0  0  0
  -23.4195  -28.8190   23.3001 O   0  0  0  0  0  0
  -28.3475  -26.5759   20.1519 O   0  0  0  0  0  0
  -26.5604  -34.8923   22.4674 O   0  0  0  0  0  0
  -23.5367  -32.1408   23.7438 O   0  0  0  0  0  0
  -28.6843  -20.4315   20.0549 C   0  0  0  0  0  0
  -29.2867  -21.6456   20.2928 C   0  0  0  0  0  0
  -30.5564  -21.2422   20.8089 C   0  0  0  0  0  0
  -31.7006  -22.1132   21.2359 C   0  0  0  0  0  0
  -27.8772  -17.5613   20.4827 C   0  0  0  0  0  0
  -29.7009  -17.5913   18.7655 C   0  0  0  0  0  0
  -28.7113  -23.0492   19.9945 C   0  0  0  0  0  0
  -29.1625  -24.2271   20.9182 C   0  0  0  0  0  0
  -30.2560  -17.0011   21.1581 C   0  0  0  0  0  0
  -28.1931  -25.4521   21.0572 C   0  0  0  0  0  0
  -29.3577  -17.9139   20.2304 C   0  0  0  0  0  0
  -30.6985  -19.9164   20.8714 N   0  0  0  0  0  0
  -29.5323  -19.3878   20.4289 N   0  0  0  0  0  0
  -29.9453  -15.5402   21.0924 N   0  0  0  0  0  0
  -31.4755  -12.4479   19.1407 H   0  0  0  0  0  0
  -30.3344  -11.3318   19.8385 H   0  0  0  0  0  0
  -29.7666  -11.8077   17.4353 H   0  0  0  0  0  0
  -29.6697  -13.5152   17.7808 H   0  0  0  0  0  0
  -27.8445  -11.3114   18.8057 H   0  0  0  0  0  0
  -27.3829  -12.6412   17.7777 H   0  0  0  0  0  0
  -27.6938  -14.2553   19.5645 H   0  0  0  0  0  0
  -28.6916  -11.9759   21.3414 H   0  0  0  0  0  0
  -28.4541  -13.6133   21.8702 H   0  0  0  0  0  0
  -25.2765   -9.5708   22.4739 H   0  0  0  0  0  0
  -24.0028   -7.4650   22.7480 H   0  0  0  0  0  0
  -21.0840   -8.8775   19.8964 H   0  0  0  0  0  0
  -22.3696  -10.9668   19.6168 H   0  0  0  0  0  0
  -21.1993   -7.6159   23.9741 H   0  0  0  0  0  0
  -21.1473   -6.0514   25.9088 H   0  0  0  0  0  0
  -22.0597   -2.7622   23.2829 H   0  0  0  0  0  0
  -22.4022  -11.9939   22.4879 H   0  0  0  0  0  0
  -21.1075  -13.1324   22.2548 H   0  0  0  0  0  0
  -24.6326  -15.8246   20.4901 H   0  0  0  0  0  0
  -26.2501  -15.6286   20.0486 H   0  0  0  0  0  0
  -26.7138  -32.5513   23.1139 H   0  0  0  0  0  0
  -25.0059  -33.9754   25.0448 H   0  0  0  0  0  0
  -22.7005  -31.3064   21.4029 H   0  0  0  0  0  0
  -23.3742  -35.9652   23.3308 H   0  0  0  0  0  0
  -24.3584  -36.8917   22.2051 H   0  0  0  0  0  0
  -23.7255  -37.6520   23.6651 H   0  0  0  0  0  0
  -26.0607  -31.5880   20.5969 H   0  0  0  0  0  0
  -26.8271  -30.8753   21.9878 H   0  0  0  0  0  0
  -28.1086  -29.0644   21.1886 H   0  0  0  0  0  0
  -26.0543  -25.9487   19.0321 H   0  0  0  0  0  0
  -23.9839  -27.2947   19.0277 H   0  0  0  0  0  0
  -23.7309  -30.5937   19.3993 H   0  0  0  0  0  0
  -22.7471  -29.2404   19.8642 H   0  0  0  0  0  0
  -25.1292  -36.1955   25.0826 H   0  0  0  0  0  0
  -20.9990  -28.3256   24.1416 H   0  0  0  0  0  0
  -20.5687  -26.2285   23.3614 H   0  0  0  0  0  0
  -21.6642  -26.7447   22.1200 H   0  0  0  0  0  0
  -19.6904  -25.6301   21.1242 H   0  0  0  0  0  0
  -19.6689  -27.3206   20.6758 H   0  0  0  0  0  0
  -17.4201  -26.6696   21.4026 H   0  0  0  0  0  0
  -18.0317  -26.0075   22.9022 H   0  0  0  0  0  0
  -19.7934  -30.7270   24.2289 H   0  0  0  0  0  0
  -17.5011  -31.6269   24.5167 H   0  0  0  0  0  0
  -15.5352  -30.2993   23.7640 H   0  0  0  0  0  0
  -15.8677  -28.0834   22.7044 H   0  0  0  0  0  0
  -24.5886  -30.7099   25.7779 H   0  0  0  0  0  0
  -24.8952  -32.2893   26.4913 H   0  0  0  0  0  0
  -25.8071  -30.8868   27.0208 H   0  0  0  0  0  0
  -26.2870  -29.6797   24.1156 H   0  0  0  0  0  0
  -27.4046  -29.7272   25.4594 H   0  0  0  0  0  0
  -27.8717  -30.4332   23.9300 H   0  0  0  0  0  0
  -27.2654  -33.3609   26.2088 H   0  0  0  0  0  0
  -28.3845  -32.6915   25.0311 H   0  0  0  0  0  0
  -28.0731  -31.8439   26.5381 H   0  0  0  0  0  0
  -28.2597  -38.0106   24.7500 H   0  0  0  0  0  0
  -28.1078  -36.2637   24.6290 H   0  0  0  0  0  0
  -27.2299  -37.1460   25.8864 H   0  0  0  0  0  0
  -20.9319  -29.8763   21.6910 H   0  0  0  0  0  0
  -26.0179  -38.2861   24.1400 H   0  0  0  0  0  0
  -27.7139  -20.2352   19.6213 H   0  0  0  0  0  0
  -31.8858  -22.8955   20.5004 H   0  0  0  0  0  0
  -32.6251  -21.5447   21.3455 H   0  0  0  0  0  0
  -31.4891  -22.5946   22.1911 H   0  0  0  0  0  0
  -27.6965  -16.5034   20.3237 H   0  0  0  0  0  0
  -27.2032  -18.0850   19.8058 H   0  0  0  0  0  0
  -27.5764  -17.7960   21.5040 H   0  0  0  0  0  0
  -29.5236  -16.5430   18.5300 H   0  0  0  0  0  0
  -30.7514  -17.7982   18.5596 H   0  0  0  0  0  0
  -29.1018  -18.1853   18.0746 H   0  0  0  0  0  0
  -27.6229  -22.9957   20.0328 H   0  0  0  0  0  0
  -28.9350  -23.3312   18.9655 H   0  0  0  0  0  0
  -30.1670  -24.5659   20.6661 H   0  0  0  0  0  0
  -29.2437  -23.8104   21.9227 H   0  0  0  0  0  0
  -30.1177  -17.3090   22.1955 H   0  0  0  0  0  0
  -31.3124  -17.1760   20.9431 H   0  0  0  0  0  0
  -28.3511  -25.8711   22.0533 H   0  0  0  0  0  0
  -27.1670  -25.0814   21.0763 H   0  0  0  0  0  0
  -29.0370  -15.2677   21.4370 H   0  0  0  0  0  0
  1 25  1  0  0  0
  1 30  2  0  0  0
  1 84  1  0  0  0
  2  3  1  0  0  0
  2 25  1  0  0  0
  2 85  1  0  0  0
  2 86  1  0  0  0
  3  4  1  0  0  0
  3 87  1  0  0  0
  3 88  1  0  0  0
  4  5  1  0  0  0
  4 89  1  0  0  0
  4 90  1  0  0  0
  5  6  1  0  0  0
  5 26  1  0  0  0
  5 91  1  0  0  0
  6 25  1  0  0  0
  6 92  1  0  0  0
  6 93  1  0  0  0
  7  8  2  0  0  0
  7 26  1  0  0  0
  7 29  1  0  0  0
  8  9  1  0  0  0
  8 22  1  0  0  0
  9 10  1  0  0  0
  9 27  2  0  0  0
 10 11  2  0  0  0
 10 15  1  0  0  0
 11 12  1  0  0  0
 11 94  1  0  0  0
 12 13  2  0  0  0
 12 95  1  0  0  0
 13 14  1  0  0  0
 13 31  1  0  0  0
 14 15  2  0  0  0
 14 96  1  0  0  0
 15 97  1  0  0  0
 16 17  2  0  0  0
 16 21  1  0  0  0
 16 31  1  0  0  0
 17 18  1  0  0  0
 17 98  1  0  0  0
 18 19  2  0  0  0
 18 99  1  0  0  0
 19 20  1  0  0  0
 19 24  1  0  0  0
 20 21  2  0  0  0
 20100  1  0  0  0
 21 23  1  0  0  0
 22 28  1  0  0  0
 22 32  2  0  0  0
 26 27  1  0  0  0
 28101  1  0  0  0
 28102  1  0  0  0
 29103  1  0  0  0
 29104  1  0  0  0
 33 34  1  0  0  0
 33 66  1  0  0  0
 33 70  2  0  0  0
 34 36  1  0  0  0
 34 59  1  0  0  0
 34105  1  0  0  0
 35 44  2  0  0  0
 35 45  1  0  0  0
 35 68  1  0  0  0
 36 56  1  0  0  0
 36106  1  0  0  0
 37 39  1  0  0  0
 37 47  1  0  0  0
 37 66  1  0  0  0
 37107  1  0  0  0
 38 43  2  0  0  0
 38 46  1  0  0  0
 38 47  1  0  0  0
 39 64  1  0  0  0
 39 67  2  0  0  0
 40 52  1  0  0  0
 40 53  2  0  0  0
 40 58  1  0  0  0
 41108  1  0  0  0
 41109  1  0  0  0
 41110  1  0  0  0
 41 48  1  0  0  0
 42 43  1  0  0  0
 42 66  1  0  0  0
 42111  1  0  0  0
 42112  1  0  0  0
 43 44  1  0  0  0
 44113  1  0  0  0
 45 46  2  0  0  0
 45114  1  0  0  0
 46115  1  0  0  0
 47116  1  0  0  0
 47117  1  0  0  0
 48 56  1  0  0  0
 48 65  1  0  0  0
 48118  1  0  0  0
 49 50  1  0  0  0
 49 53  1  0  0  0
 49 64  1  0  0  0
 49119  1  0  0  0
 50 51  1  0  0  0
 50120  1  0  0  0
 50121  1  0  0  0
 51 52  1  0  0  0
 51122  1  0  0  0
 51123  1  0  0  0
 52124  1  0  0  0
 52125  1  0  0  0
 53 54  1  0  0  0
 54 55  2  0  0  0
 54126  1  0  0  0
 55 57  1  0  0  0
 55127  1  0  0  0
 56 69  2  0  0  0
 57 58  2  0  0  0
 57128  1  0  0  0
 58129  1  0  0  0
 59 60  1  0  0  0
 59 61  1  0  0  0
 59 62  1  0  0  0
 60130  1  0  0  0
 60131  1  0  0  0
 60132  1  0  0  0
 61133  1  0  0  0
 61134  1  0  0  0
 61135  1  0  0  0
 62136  1  0  0  0
 62137  1  0  0  0
 62138  1  0  0  0
 63 65  1  0  0  0
 63139  1  0  0  0
 63140  1  0  0  0
 63141  1  0  0  0
 64142  1  0  0  0
 65143  1  0  0  0
 68 80  1  0  0  0
 71 72  2  0  0  0
 71 83  1  0  0  0
 71144  1  0  0  0
 72 73  1  0  0  0
 72 77  1  0  0  0
 73 74  1  0  0  0
 73 82  2  0  0  0
 74145  1  0  0  0
 74146  1  0  0  0
 74147  1  0  0  0
 75148  1  0  0  0
 75149  1  0  0  0
 75150  1  0  0  0
 75 81  1  0  0  0
 76 81  1  0  0  0
 76151  1  0  0  0
 76152  1  0  0  0
 76153  1  0  0  0
 77 78  1  0  0  0
 77154  1  0  0  0
 77155  1  0  0  0
 78 80  1  0  0  0
 78156  1  0  0  0
 78157  1  0  0  0
 79 81  1  0  0  0
 79 84  1  0  0  0
 79158  1  0  0  0
 79159  1  0  0  0
 80160  1  0  0  0
 80161  1  0  0  0
 81 83  1  0  0  0
 82 83  1  0  0  0
 84162  1  0  0  0
M  ISO  4   1 100  68 101  80 101  84 100
M  END
> <chiral flag>
0

> <version>
0

> <s_m_source_file>
/data/baiqing/PycharmProjects/Reinvent-master-3.2/result/LINK_invent/BTK/process_docking_weight1_custom_sum_contain_oxygen_bond_distance_aromatic_linkinvent_7_9_3/rearranged_h_0084.sdf

> <i_m_source_file_index>
36

> <r_mmod_Potential_Energy-OPLS-2005>
-84.249137878418

> <r_mmod_Stretch_Energy-OPLS-2005>
51.6935768127441

> <r_mmod_Bend_Energy-OPLS-2005>
115.167526245117

> <r_mmod_Torsional_Energy-OPLS-2005>
266.377288818359

> <r_mmod_Improper_Torsional_Energy-OPLS-2005>
4.21348476409912

> <r_mmod_Van_der_Waal_Energy-OPLS-2005>
121.248840332031

> <r_mmod_Electrostatic_Energy-OPLS-2005>
-447.934204101562

> <r_mmod_Solvation_Energy-OPLS-2005>
-217.044189453125

> <b_mmod_Minimization_Converged-OPLS-2005>
0

> <r_mmod_RMS_Derivative-OPLS-2005>
2.02137541770935

$$$$
36
                    3D
 Structure written by MMmdl.
172180  0  0  1  0            999 V2000
  -30.6514  -14.5308   20.5052 C   0  0  0  0  0  0
  -30.4287  -12.3205   19.4378 C   0  0  0  0  0  0
  -29.5039  -12.5030   18.2138 C   0  0  0  0  0  0
  -28.0201  -12.3671   18.6161 C   0  0  0  0  0  0
  -27.6594  -13.2056   19.8727 C   0  0  2  0  0  0
  -28.7029  -13.0075   20.9966 C   0  0  0  0  0  0
  -25.2578  -13.8136   20.5692 C   0  0  0  0  0  0
  -24.1839  -13.0421   20.9178 C   0  0  0  0  0  0
  -24.6397  -11.6892   20.8731 C   0  0  0  0  0  0
  -23.9067  -10.4289   21.0412 C   0  0  0  0  0  0
  -24.3628   -9.4209   21.9187 C   0  0  0  0  0  0
  -23.6315   -8.2240   22.0754 C   0  0  0  0  0  0
  -22.4291   -8.0280   21.3549 C   0  0  0  0  0  0
  -21.9925   -9.0248   20.4644 C   0  0  0  0  0  0
  -22.7242  -10.2134   20.3057 C   0  0  0  0  0  0
  -21.6853   -6.0743   22.5299 C   0  0  0  0  0  0
  -21.4011   -6.5648   23.8227 C   0  0  0  0  0  0
  -21.3655   -5.6803   24.9187 C   0  0  0  0  0  0
  -21.6047   -4.3066   24.7229 C   0  0  0  0  0  0
  -21.8823   -3.8155   23.4355 C   0  0  0  0  0  0
  -21.9195   -4.6974   22.3415 C   0  0  0  0  0  0
  -22.7864  -13.5227   21.1850 C   0  0  0  0  0  0
  -22.1663   -4.2166   21.0987 F   0  0  0  0  0  0
  -21.5629   -3.4542   25.7736 F   0  0  0  0  0  0
  -30.0320  -13.3180   20.4430 N   0  0  0  0  0  0
  -26.3020  -12.9317   20.3365 N   0  0  0  0  0  0
  -25.9321  -11.6478   20.5759 N   0  0  0  0  0  0
  -22.0508  -12.8212   22.0395 N   0  0  0  0  0  0
  -25.4256  -15.1855   20.4088 N   0  0  0  0  0  0
  -31.8116  -14.7056   20.1222 O   0  0  0  0  0  0
  -21.6648   -6.8884   21.4260 O   0  0  0  0  0  0
  -22.3557  -14.5546   20.6712 O   0  0  0  0  0  0
  -24.6180  -31.8652   23.2063 C   0  0  0  0  0  0
  -25.9055  -32.4807   23.8386 C   0  0  1  0  0  0
  -27.2458  -27.4066   20.0977 C   0  0  0  0  0  0
  -25.5890  -33.8604   24.2319 N   0  0  0  0  0  0
  -23.4101  -30.4867   21.5461 C   0  0  2  0  0  0
  -24.8595  -28.9502   20.1114 C   0  0  0  0  0  0
  -22.7447  -29.4631   22.4957 C   0  0  0  0  0  0
  -18.0283  -28.1382   22.8490 C   0  0  0  0  0  0
  -24.1483  -36.7310   23.2633 C   0  0  0  0  0  0
  -25.9423  -30.8210   21.3668 C   0  0  0  0  0  0
  -26.0193  -29.4543   20.7104 C   0  0  0  0  0  0
  -27.2130  -28.6925   20.6950 C   0  0  0  0  0  0
  -26.0645  -26.9265   19.4846 C   0  0  0  0  0  0
  -24.8787  -27.6883   19.4923 C   0  0  0  0  0  0
  -23.6220  -29.8189   20.1612 C   0  0  0  0  0  0
  -25.4103  -36.3105   24.0332 C   0  0  1  0  0  0
  -20.5876  -28.3668   23.1313 C   0  0  2  0  0  0
  -20.6765  -26.9404   22.5414 C   0  0  0  0  0  0
  -19.5741  -26.6385   21.5217 C   0  0  0  0  0  0
  -18.1921  -26.7927   22.1630 C   0  0  0  0  0  0
  -19.1530  -28.8846   23.2894 C   0  0  0  0  0  0
  -18.9450  -30.1448   23.8912 C   0  0  0  0  0  0
  -17.6450  -30.6582   24.0570 C   0  0  0  0  0  0
  -25.9033  -34.9464   23.5131 C   0  0  0  0  0  0
  -16.5346  -29.9082   23.6327 C   0  0  0  0  0  0
  -16.7271  -28.6500   23.0351 C   0  0  0  0  0  0
  -26.4463  -31.6597   25.0732 C   0  0  0  0  0  0
  -25.3704  -31.3719   26.1464 C   0  0  0  0  0  0
  -27.0302  -30.3026   24.6142 C   0  0  0  0  0  0
  -27.6036  -32.4317   25.7503 C   0  0  0  0  0  0
  -27.5580  -37.1811   24.8460 C   0  0  0  0  0  0
  -21.4169  -29.3022   22.3709 N   0  0  0  0  0  0
  -26.4294  -37.3786   23.9400 N   0  0  0  0  0  0
  -24.6746  -31.0729   22.0970 N   0  0  0  0  0  0
  -23.4210  -28.8180   23.3015 O   0  0  0  0  0  0
  -28.4255  -26.6755   20.1369 O   0  0  0  0  0  0
  -26.5615  -34.8922   22.4703 O   0  0  0  0  0  0
  -23.5362  -32.1411   23.7432 O   0  0  0  0  0  0
  -30.2378  -20.5654   20.7102 C   0  0  0  0  0  0
  -29.6435  -21.8397   20.9875 C   0  0  0  0  0  0
  -29.8644  -19.4109   21.4458 C   0  0  0  0  0  0
  -28.6684  -21.8050   22.0333 C   0  0  0  0  0  0
  -27.9239  -22.9997   22.5911 C   0  0  0  0  0  0
  -30.9626  -17.4317   22.6071 C   0  0  0  0  0  0
  -31.6813  -23.1413   20.3357 C   0  0  0  0  0  0
  -29.8512  -22.8303   18.6706 C   0  0  0  0  0  0
  -30.3622  -17.1010   18.8731 C   0  0  0  0  0  0
  -28.2837  -17.3347   20.1701 C   0  0  0  0  0  0
  -29.6531  -24.5638   20.5405 C   0  0  0  0  0  0
  -28.4165  -25.2523   19.8637 C   0  0  0  0  0  0
  -30.5386  -18.0202   21.2446 C   0  0  1  0  0  0
  -30.1375  -23.0902   20.1646 C   0  0  0  0  0  0
  -29.7815  -16.9859   20.3054 C   0  0  0  0  0  0
  -28.8964  -19.4871   22.3884 N   0  0  0  0  0  0
  -28.3214  -20.6564   22.6712 N   0  0  0  0  0  0
  -29.8104  -15.5614   20.7666 N   0  0  0  0  0  0
  -31.4751  -12.4221   19.1443 H   0  0  0  0  0  0
  -30.3282  -11.3150   19.8496 H   0  0  0  0  0  0
  -29.7515  -11.7749   17.4404 H   0  0  0  0  0  0
  -29.6725  -13.4858   17.7695 H   0  0  0  0  0  0
  -27.8159  -11.3118   18.7988 H   0  0  0  0  0  0
  -27.3837  -12.6571   17.7798 H   0  0  0  0  0  0
  -27.6920  -14.2482   19.5611 H   0  0  0  0  0  0
  -28.6837  -11.9772   21.3542 H   0  0  0  0  0  0
  -28.4690  -13.6234   21.8662 H   0  0  0  0  0  0
  -25.2778   -9.5691   22.4753 H   0  0  0  0  0  0
  -24.0032   -7.4630   22.7460 H   0  0  0  0  0  0
  -21.0865   -8.8769   19.8926 H   0  0  0  0  0  0
  -22.3721  -10.9676   19.6159 H   0  0  0  0  0  0
  -21.1994   -7.6154   23.9740 H   0  0  0  0  0  0
  -21.1476   -6.0526   25.9099 H   0  0  0  0  0  0
  -22.0600   -2.7619   23.2858 H   0  0  0  0  0  0
  -22.4145  -11.9882   22.4802 H   0  0  0  0  0  0
  -21.1113  -13.1210   22.2568 H   0  0  0  0  0  0
  -24.6553  -15.8352   20.5208 H   0  0  0  0  0  0
  -26.2721  -15.6301   20.0802 H   0  0  0  0  0  0
  -26.7136  -32.5512   23.1160 H   0  0  0  0  0  0
  -25.0044  -33.9758   25.0469 H   0  0  0  0  0  0
  -22.6991  -31.3026   21.4036 H   0  0  0  0  0  0
  -23.3748  -35.9642   23.3298 H   0  0  0  0  0  0
  -24.3587  -36.8924   22.2052 H   0  0  0  0  0  0
  -23.7236  -37.6507   23.6655 H   0  0  0  0  0  0
  -26.0663  -31.5893   20.6029 H   0  0  0  0  0  0
  -26.8257  -30.8682   21.9923 H   0  0  0  0  0  0
  -28.1104  -29.0810   21.1565 H   0  0  0  0  0  0
  -26.0410  -25.9657   18.9914 H   0  0  0  0  0  0
  -23.9895  -27.2989   19.0150 H   0  0  0  0  0  0
  -23.7303  -30.5947   19.4021 H   0  0  0  0  0  0
  -22.7477  -29.2376   19.8643 H   0  0  0  0  0  0
  -25.1282  -36.1971   25.0825 H   0  0  0  0  0  0
  -20.9964  -28.3227   24.1439 H   0  0  0  0  0  0
  -20.5678  -26.2273   23.3594 H   0  0  0  0  0  0
  -21.6629  -26.7434   22.1202 H   0  0  0  0  0  0
  -19.6894  -25.6301   21.1237 H   0  0  0  0  0  0
  -19.6685  -27.3210   20.6762 H   0  0  0  0  0  0
  -17.4189  -26.6695   21.4025 H   0  0  0  0  0  0
  -18.0309  -26.0064   22.9022 H   0  0  0  0  0  0
  -19.7920  -30.7263   24.2286 H   0  0  0  0  0  0
  -17.5001  -31.6261   24.5171 H   0  0  0  0  0  0
  -15.5346  -30.2994   23.7620 H   0  0  0  0  0  0
  -15.8675  -28.0826   22.7052 H   0  0  0  0  0  0
  -24.5880  -30.7069   25.7789 H   0  0  0  0  0  0
  -24.8893  -32.2880   26.4901 H   0  0  0  0  0  0
  -25.8032  -30.8891   27.0236 H   0  0  0  0  0  0
  -26.2875  -29.6811   24.1124 H   0  0  0  0  0  0
  -27.3970  -29.7244   25.4636 H   0  0  0  0  0  0
  -27.8756  -30.4335   23.9381 H   0  0  0  0  0  0
  -27.2656  -33.3606   26.2107 H   0  0  0  0  0  0
  -28.3837  -32.6890   25.0328 H   0  0  0  0  0  0
  -28.0715  -31.8424   26.5398 H   0  0  0  0  0  0
  -28.2589  -38.0112   24.7508 H   0  0  0  0  0  0
  -28.1084  -36.2647   24.6289 H   0  0  0  0  0  0
  -27.2302  -37.1459   25.8862 H   0  0  0  0  0  0
  -20.9332  -29.8765   21.6945 H   0  0  0  0  0  0
  -26.0185  -38.2862   24.1404 H   0  0  0  0  0  0
  -30.9977  -20.4573   19.9529 H   0  0  0  0  0  0
  -27.4049  -23.5343   21.8081 H   0  0  0  0  0  0
  -28.5912  -23.6634   23.1386 H   0  0  0  0  0  0
  -27.1529  -22.6916   23.2966 H   0  0  0  0  0  0
  -31.5196  -18.1661   23.1882 H   0  0  0  0  0  0
  -31.6092  -16.5633   22.4927 H   0  0  0  0  0  0
  -30.0961  -17.1339   23.1977 H   0  0  0  0  0  0
  -32.1865  -22.2425   19.9861 H   0  0  0  0  0  0
  -31.9539  -23.2787   21.3835 H   0  0  0  0  0  0
  -32.1343  -23.9590   19.7718 H   0  0  0  0  0  0
  -30.3126  -21.9086   18.3159 H   0  0  0  0  0  0
  -30.2394  -23.6336   18.0435 H   0  0  0  0  0  0
  -28.7816  -22.7417   18.4825 H   0  0  0  0  0  0
  -30.2595  -18.1181   18.4905 H   0  0  0  0  0  0
  -29.8529  -16.4374   18.1722 H   0  0  0  0  0  0
  -31.4250  -16.8633   18.8327 H   0  0  0  0  0  0
  -28.1337  -18.3315   19.7545 H   0  0  0  0  0  0
  -27.7733  -17.3017   21.1341 H   0  0  0  0  0  0
  -27.7687  -16.6509   19.4967 H   0  0  0  0  0  0
  -29.6524  -24.7216   21.6152 H   0  0  0  0  0  0
  -30.4486  -25.2358   20.2186 H   0  0  0  0  0  0
  -27.4887  -24.7978   20.1944 H   0  0  0  0  0  0
  -28.4497  -25.1292   18.7815 H   0  0  0  0  0  0
  -31.4914  -18.2435   20.7627 H   0  0  0  0  0  0
  -28.9257  -15.2411   21.1313 H   0  0  0  0  0  0
  1 25  1  0  0  0
  1 30  2  0  0  0
  1 88  1  0  0  0
  2  3  1  0  0  0
  2 25  1  0  0  0
  2 89  1  0  0  0
  2 90  1  0  0  0
  3  4  1  0  0  0
  3 91  1  0  0  0
  3 92  1  0  0  0
  4  5  1  0  0  0
  4 93  1  0  0  0
  4 94  1  0  0  0
  5  6  1  0  0  0
  5 26  1  0  0  0
  5 95  1  0  0  0
  6 25  1  0  0  0
  6 96  1  0  0  0
  6 97  1  0  0  0
  7  8  2  0  0  0
  7 26  1  0  0  0
  7 29  1  0  0  0
  8  9  1  0  0  0
  8 22  1  0  0  0
  9 10  1  0  0  0
  9 27  2  0  0  0
 10 11  2  0  0  0
 10 15  1  0  0  0
 11 12  1  0  0  0
 11 98  1  0  0  0
 12 13  2  0  0  0
 12 99  1  0  0  0
 13 14  1  0  0  0
 13 31  1  0  0  0
 14 15  2  0  0  0
 14100  1  0  0  0
 15101  1  0  0  0
 16 17  2  0  0  0
 16 21  1  0  0  0
 16 31  1  0  0  0
 17 18  1  0  0  0
 17102  1  0  0  0
 18 19  2  0  0  0
 18103  1  0  0  0
 19 20  1  0  0  0
 19 24  1  0  0  0
 20 21  2  0  0  0
 20104  1  0  0  0
 21 23  1  0  0  0
 22 28  1  0  0  0
 22 32  2  0  0  0
 26 27  1  0  0  0
 28105  1  0  0  0
 28106  1  0  0  0
 29107  1  0  0  0
 29108  1  0  0  0
 33 34  1  0  0  0
 33 66  1  0  0  0
 33 70  2  0  0  0
 34 36  1  0  0  0
 34 59  1  0  0  0
 34109  1  0  0  0
 35 44  2  0  0  0
 35 45  1  0  0  0
 35 68  1  0  0  0
 36 56  1  0  0  0
 36110  1  0  0  0
 37 39  1  0  0  0
 37 47  1  0  0  0
 37 66  1  0  0  0
 37111  1  0  0  0
 38 43  2  0  0  0
 38 46  1  0  0  0
 38 47  1  0  0  0
 39 64  1  0  0  0
 39 67  2  0  0  0
 40 52  1  0  0  0
 40 53  2  0  0  0
 40 58  1  0  0  0
 41112  1  0  0  0
 41113  1  0  0  0
 41114  1  0  0  0
 41 48  1  0  0  0
 42 43  1  0  0  0
 42 66  1  0  0  0
 42115  1  0  0  0
 42116  1  0  0  0
 43 44  1  0  0  0
 44117  1  0  0  0
 45 46  2  0  0  0
 45118  1  0  0  0
 46119  1  0  0  0
 47120  1  0  0  0
 47121  1  0  0  0
 48 56  1  0  0  0
 48 65  1  0  0  0
 48122  1  0  0  0
 49 50  1  0  0  0
 49 53  1  0  0  0
 49 64  1  0  0  0
 49123  1  0  0  0
 50 51  1  0  0  0
 50124  1  0  0  0
 50125  1  0  0  0
 51 52  1  0  0  0
 51126  1  0  0  0
 51127  1  0  0  0
 52128  1  0  0  0
 52129  1  0  0  0
 53 54  1  0  0  0
 54 55  2  0  0  0
 54130  1  0  0  0
 55 57  1  0  0  0
 55131  1  0  0  0
 56 69  2  0  0  0
 57 58  2  0  0  0
 57132  1  0  0  0
 58133  1  0  0  0
 59 60  1  0  0  0
 59 61  1  0  0  0
 59 62  1  0  0  0
 60134  1  0  0  0
 60135  1  0  0  0
 60136  1  0  0  0
 61137  1  0  0  0
 61138  1  0  0  0
 61139  1  0  0  0
 62140  1  0  0  0
 62141  1  0  0  0
 62142  1  0  0  0
 63 65  1  0  0  0
 63143  1  0  0  0
 63144  1  0  0  0
 63145  1  0  0  0
 64146  1  0  0  0
 65147  1  0  0  0
 68 82  1  0  0  0
 71 72  2  0  0  0
 71 73  1  0  0  0
 71148  1  0  0  0
 72 74  1  0  0  0
 72 84  1  0  0  0
 73 83  1  0  0  0
 73 86  2  0  0  0
 74 75  1  0  0  0
 74 87  2  0  0  0
 75149  1  0  0  0
 75150  1  0  0  0
 75151  1  0  0  0
 76152  1  0  0  0
 76153  1  0  0  0
 76154  1  0  0  0
 76 83  1  0  0  0
 77155  1  0  0  0
 77156  1  0  0  0
 77157  1  0  0  0
 77 84  1  0  0  0
 78 84  1  0  0  0
 78158  1  0  0  0
 78159  1  0  0  0
 78160  1  0  0  0
 79161  1  0  0  0
 79162  1  0  0  0
 79163  1  0  0  0
 79 85  1  0  0  0
 80 85  1  0  0  0
 80164  1  0  0  0
 80165  1  0  0  0
 80166  1  0  0  0
 81 82  1  0  0  0
 81 84  1  0  0  0
 81167  1  0  0  0
 81168  1  0  0  0
 82169  1  0  0  0
 82170  1  0  0  0
 83 85  1  0  0  0
 83171  1  0  0  0
 85 88  1  0  0  0
 86 87  1  0  0  0
 88172  1  0  0  0
M  ISO  4   1 100  68 101  82 101  88 100
M  END
> <chiral flag>
0

> <version>
0

> <s_m_source_file>
/data/baiqing/PycharmProjects/Reinvent-master-3.2/result/LINK_invent/BTK/process_docking_weight1_custom_sum_contain_oxygen_bond_distance_aromatic_linkinvent_7_9_3/rearranged_h_0084.sdf

> <i_m_source_file_index>
37

> <r_mmod_Potential_Energy-OPLS-2005>
84.4757919311523

> <r_mmod_Stretch_Energy-OPLS-2005>
66.0823059082031

> <r_mmod_Bend_Energy-OPLS-2005>
171.223739624023

> <r_mmod_Torsional_Energy-OPLS-2005>
215.928192138672

> <r_mmod_Improper_Torsional_Energy-OPLS-2005>
7.18698215484619

> <r_mmod_Van_der_Waal_Energy-OPLS-2005>
173.162948608398

> <r_mmod_Electrostatic_Energy-OPLS-2005>
-358.755218505859

> <r_mmod_Solvation_Energy-OPLS-2005>
-210.842361450195

> <b_mmod_Minimization_Converged-OPLS-2005>
0

> <r_mmod_RMS_Derivative-OPLS-2005>
2.27702260017395

$$$$
37
                    3D
 Structure written by MMmdl.
170178  0  0  1  0            999 V2000
  -30.2750  -15.8136   20.3712 C   0  0  0  0  0  0
  -30.4337  -13.2452   19.5240 C   0  0  0  0  0  0
  -29.5719  -12.7026   18.3417 C   0  0  0  0  0  0
  -28.1462  -12.3261   18.7779 C   0  0  0  0  0  0
  -27.6026  -13.3259   19.8212 C   0  0  2  0  0  0
  -28.6188  -13.7240   20.9179 C   0  0  0  0  0  0
  -25.2352  -13.8296   20.5777 C   0  0  0  0  0  0
  -24.1750  -13.0402   20.9209 C   0  0  0  0  0  0
  -24.6508  -11.6939   20.8732 C   0  0  0  0  0  0
  -23.9199  -10.4294   21.0394 C   0  0  0  0  0  0
  -24.3692   -9.4214   21.9204 C   0  0  0  0  0  0
  -23.6326   -8.2285   22.0782 C   0  0  0  0  0  0
  -22.4325   -8.0337   21.3556 C   0  0  0  0  0  0
  -21.9986   -9.0314   20.4655 C   0  0  0  0  0  0
  -22.7337  -10.2180   20.3056 C   0  0  0  0  0  0
  -21.6856   -6.0785   22.5289 C   0  0  0  0  0  0
  -21.4015   -6.5671   23.8223 C   0  0  0  0  0  0
  -21.3630   -5.6824   24.9171 C   0  0  0  0  0  0
  -21.6020   -4.3092   24.7212 C   0  0  0  0  0  0
  -21.8820   -3.8184   23.4337 C   0  0  0  0  0  0
  -21.9214   -4.7013   22.3406 C   0  0  0  0  0  0
  -22.7747  -13.5118   21.1785 C   0  0  0  0  0  0
  -22.1687   -4.2205   21.0984 F   0  0  0  0  0  0
  -21.5626   -3.4576   25.7725 F   0  0  0  0  0  0
  -29.7507  -14.4298   20.2450 N   0  0  0  0  0  0
  -26.2863  -12.9686   20.3336 N   0  0  0  0  0  0
  -25.9455  -11.6731   20.5716 N   0  0  0  0  0  0
  -22.0420  -12.8207   22.0413 N   0  0  0  0  0  0
  -25.3789  -15.2035   20.4197 N   0  0  0  0  0  0
  -31.5138  -15.7023   20.2934 O   0  0  0  0  0  0
  -21.6657   -6.8952   21.4258 O   0  0  0  0  0  0
  -22.3452  -14.5418   20.6615 O   0  0  0  0  0  0
  -24.6887  -31.7910   23.1526 C   0  0  0  0  0  0
  -25.9455  -32.4394   23.8096 C   0  0  1  0  0  0
  -27.2083  -26.6057   20.2113 C   0  0  0  0  0  0
  -25.6004  -33.8225   24.1928 N   0  0  0  0  0  0
  -23.5223  -30.3959   21.5023 C   0  0  2  0  0  0
  -25.0004  -28.7508   20.0871 C   0  0  0  0  0  0
  -22.7806  -29.4293   22.4661 C   0  0  0  0  0  0
  -18.0345  -28.1388   22.8456 C   0  0  0  0  0  0
  -24.1430  -36.7054   23.2700 C   0  0  0  0  0  0
  -26.1115  -30.4832   21.4559 C   0  0  0  0  0  0
  -26.1713  -29.0472   20.7910 C   0  0  0  0  0  0
  -27.2465  -27.9990   20.8535 C   0  0  0  0  0  0
  -26.0728  -26.6223   19.3513 C   0  0  0  0  0  0
  -25.0021  -27.5660   19.3395 C   0  0  0  0  0  0
  -23.7849  -29.7038   20.1332 C   0  0  0  0  0  0
  -25.4108  -36.2828   24.0293 C   0  0  1  0  0  0
  -20.5983  -28.3754   23.1062 C   0  0  2  0  0  0
  -20.6739  -26.9367   22.5389 C   0  0  0  0  0  0
  -19.5727  -26.6323   21.5178 C   0  0  0  0  0  0
  -18.1926  -26.7930   22.1602 C   0  0  0  0  0  0
  -19.1604  -28.8908   23.2743 C   0  0  0  0  0  0
  -18.9566  -30.1499   23.8744 C   0  0  0  0  0  0
  -17.6543  -30.6581   24.0545 C   0  0  0  0  0  0
  -25.9128  -34.9234   23.4949 C   0  0  0  0  0  0
  -16.5429  -29.9055   23.6365 C   0  0  0  0  0  0
  -16.7321  -28.6491   23.0382 C   0  0  0  0  0  0
  -26.4596  -31.6512   25.0801 C   0  0  0  0  0  0
  -25.3634  -31.3911   26.1420 C   0  0  0  0  0  0
  -27.0629  -30.2838   24.6867 C   0  0  0  0  0  0
  -27.5948  -32.4487   25.7686 C   0  0  0  0  0  0
  -27.5455  -37.1730   24.8514 C   0  0  0  0  0  0
  -21.4452  -29.2996   22.3372 N   0  0  0  0  0  0
  -26.4186  -37.3610   23.9423 N   0  0  0  0  0  0
  -24.7970  -30.9305   22.0836 N   0  0  0  0  0  0
  -23.4219  -28.7876   23.3031 O   0  0  0  0  0  0
  -27.8427  -25.1071   20.4553 O   0  0  0  0  0  0
  -26.5751  -34.8830   22.4559 O   0  0  0  0  0  0
  -23.5884  -32.1069   23.6409 O   0  0  0  0  0  0
  -29.3216  -23.8296   21.4863 C   0  0  0  0  0  0
  -26.6251  -25.2056   22.2498 C   0  0  0  0  0  0
  -28.3971  -25.0008   22.5234 C   0  0  0  0  0  0
  -28.5042  -22.7071   20.4370 C   0  0  0  0  0  0
  -25.9572  -24.1537   20.9976 C   0  0  0  0  0  0
  -23.6994  -23.5575   22.0242 C   0  0  0  0  0  0
  -24.1017  -23.0975   19.5482 C   0  0  0  0  0  0
  -30.1306  -24.9361   24.3909 C   0  0  0  0  0  0
  -27.7431  -25.5808   24.9115 C   0  0  0  0  0  0
  -28.8736  -20.8410   20.0701 C   0  0  0  0  0  0
  -28.2014  -23.2922   23.8498 C   0  0  0  0  0  0
  -29.6237  -19.0694   20.6751 C   0  0  0  0  0  0
  -27.3864  -23.0838   22.4784 C   0  0  0  0  0  0
  -24.4452  -24.0126   20.7531 C   0  0  0  0  0  0
  -28.6555  -24.7603   23.9699 C   0  0  0  0  0  0
  -26.9200  -23.0614   20.1831 N   0  0  0  0  0  0
  -29.5444  -17.2430   20.3939 N   0  0  0  0  0  0
  -31.3946  -13.5532   19.1078 H   0  0  0  0  0  0
  -30.6994  -12.4581   20.2309 H   0  0  0  0  0  0
  -30.0685  -11.8461   17.8796 H   0  0  0  0  0  0
  -29.5097  -13.4750   17.5775 H   0  0  0  0  0  0
  -28.1756  -11.3183   19.1902 H   0  0  0  0  0  0
  -27.4844  -12.2927   17.9123 H   0  0  0  0  0  0
  -27.4488  -14.2345   19.2441 H   0  0  0  0  0  0
  -28.9368  -12.8583   21.4975 H   0  0  0  0  0  0
  -28.1644  -14.4090   21.6323 H   0  0  0  0  0  0
  -25.2837   -9.5703   22.4759 H   0  0  0  0  0  0
  -24.0039   -7.4701   22.7513 H   0  0  0  0  0  0
  -21.0918   -8.8764   19.8990 H   0  0  0  0  0  0
  -22.3740  -10.9685   19.6159 H   0  0  0  0  0  0
  -21.1987   -7.6168   23.9713 H   0  0  0  0  0  0
  -21.1436   -6.0567   25.9078 H   0  0  0  0  0  0
  -22.0623   -2.7644   23.2801 H   0  0  0  0  0  0
  -22.4076  -11.9927   22.4888 H   0  0  0  0  0  0
  -21.1001  -13.1186   22.2484 H   0  0  0  0  0  0
  -24.5793  -15.8171   20.5373 H   0  0  0  0  0  0
  -26.2000  -15.6841   20.0733 H   0  0  0  0  0  0
  -26.7548  -32.4800   23.0801 H   0  0  0  0  0  0
  -25.0090  -33.9292   25.0035 H   0  0  0  0  0  0
  -22.8451  -31.2323   21.3184 H   0  0  0  0  0  0
  -23.3686  -35.9388   23.3433 H   0  0  0  0  0  0
  -24.3456  -36.8652   22.2102 H   0  0  0  0  0  0
  -23.7198  -37.6252   23.6747 H   0  0  0  0  0  0
  -26.3541  -31.2109   20.6801 H   0  0  0  0  0  0
  -26.9446  -30.5286   22.1418 H   0  0  0  0  0  0
  -28.0704  -28.2179   21.5178 H   0  0  0  0  0  0
  -25.9232  -25.7357   18.7540 H   0  0  0  0  0  0
  -24.1477  -27.3514   18.7141 H   0  0  0  0  0  0
  -23.9509  -30.4800   19.3894 H   0  0  0  0  0  0
  -22.8883  -29.1822   19.7974 H   0  0  0  0  0  0
  -25.1321  -36.1565   25.0768 H   0  0  0  0  0  0
  -21.0052  -28.3390   24.1199 H   0  0  0  0  0  0
  -20.5483  -26.2373   23.3673 H   0  0  0  0  0  0
  -21.6597  -26.7195   22.1273 H   0  0  0  0  0  0
  -19.6845  -25.6215   21.1251 H   0  0  0  0  0  0
  -19.6661  -27.3057   20.6652 H   0  0  0  0  0  0
  -17.4174  -26.6691   21.4034 H   0  0  0  0  0  0
  -18.0338  -26.0082   22.9004 H   0  0  0  0  0  0
  -19.8056  -30.7349   24.1998 H   0  0  0  0  0  0
  -17.5131  -31.6237   24.5168 H   0  0  0  0  0  0
  -15.5420  -30.2921   23.7782 H   0  0  0  0  0  0
  -15.8749  -28.0765   22.7152 H   0  0  0  0  0  0
  -24.5812  -30.7225   25.7798 H   0  0  0  0  0  0
  -24.8867  -32.3199   26.4590 H   0  0  0  0  0  0
  -25.7844  -30.9308   27.0370 H   0  0  0  0  0  0
  -26.3438  -29.6336   24.1885 H   0  0  0  0  0  0
  -27.4004  -29.7404   25.5706 H   0  0  0  0  0  0
  -27.9388  -30.3968   24.0472 H   0  0  0  0  0  0
  -27.2319  -33.3825   26.1997 H   0  0  0  0  0  0
  -28.3924  -32.7004   25.0684 H   0  0  0  0  0  0
  -28.0401  -31.8838   26.5894 H   0  0  0  0  0  0
  -28.2592  -37.9896   24.7339 H   0  0  0  0  0  0
  -28.0804  -36.2422   24.6596 H   0  0  0  0  0  0
  -27.2163  -37.1671   25.8920 H   0  0  0  0  0  0
  -20.9712  -29.8661   21.6441 H   0  0  0  0  0  0
  -25.9976  -38.2633   24.1416 H   0  0  0  0  0  0
  -30.3081  -23.5479   21.8313 H   0  0  0  0  0  0
  -25.9793  -25.7545   22.9148 H   0  0  0  0  0  0
  -23.8237  -24.2794   22.8303 H   0  0  0  0  0  0
  -24.0717  -22.6005   22.3968 H   0  0  0  0  0  0
  -22.6249  -23.4588   21.8456 H   0  0  0  0  0  0
  -24.6122  -23.4072   18.6312 H   0  0  0  0  0  0
  -23.0275  -23.1107   19.3498 H   0  0  0  0  0  0
  -24.3716  -22.0523   19.7359 H   0  0  0  0  0  0
  -30.4752  -25.9552   24.2062 H   0  0  0  0  0  0
  -30.8148  -24.2514   23.8923 H   0  0  0  0  0  0
  -30.2436  -24.7454   25.4572 H   0  0  0  0  0  0
  -27.6909  -26.6228   24.5955 H   0  0  0  0  0  0
  -28.1162  -25.5795   25.9358 H   0  0  0  0  0  0
  -26.7249  -25.1920   24.9488 H   0  0  0  0  0  0
  -29.3195  -20.9315   19.0838 H   0  0  0  0  0  0
  -27.8448  -20.5587   19.8635 H   0  0  0  0  0  0
  -29.0790  -22.6431   23.8124 H   0  0  0  0  0  0
  -27.6434  -22.9378   24.7176 H   0  0  0  0  0  0
  -30.6942  -19.2582   20.7342 H   0  0  0  0  0  0
  -29.3388  -19.0913   21.7242 H   0  0  0  0  0  0
  -26.3889  -22.9858   22.9275 H   0  0  0  0  0  0
  -27.4336  -22.0058   22.2942 H   0  0  0  0  0  0
  -24.0779  -25.0073   20.5041 H   0  0  0  0  0  0
  -28.5678  -17.0206   20.2711 H   0  0  0  0  0  0
  1 25  1  0  0  0
  1 30  2  0  0  0
  1 87  1  0  0  0
  2  3  1  0  0  0
  2 25  1  0  0  0
  2 88  1  0  0  0
  2 89  1  0  0  0
  3  4  1  0  0  0
  3 90  1  0  0  0
  3 91  1  0  0  0
  4  5  1  0  0  0
  4 92  1  0  0  0
  4 93  1  0  0  0
  5  6  1  0  0  0
  5 26  1  0  0  0
  5 94  1  0  0  0
  6 25  1  0  0  0
  6 95  1  0  0  0
  6 96  1  0  0  0
  7  8  2  0  0  0
  7 26  1  0  0  0
  7 29  1  0  0  0
  8  9  1  0  0  0
  8 22  1  0  0  0
  9 10  1  0  0  0
  9 27  2  0  0  0
 10 11  2  0  0  0
 10 15  1  0  0  0
 11 12  1  0  0  0
 11 97  1  0  0  0
 12 13  2  0  0  0
 12 98  1  0  0  0
 13 14  1  0  0  0
 13 31  1  0  0  0
 14 15  2  0  0  0
 14 99  1  0  0  0
 15100  1  0  0  0
 16 17  2  0  0  0
 16 21  1  0  0  0
 16 31  1  0  0  0
 17 18  1  0  0  0
 17101  1  0  0  0
 18 19  2  0  0  0
 18102  1  0  0  0
 19 20  1  0  0  0
 19 24  1  0  0  0
 20 21  2  0  0  0
 20103  1  0  0  0
 21 23  1  0  0  0
 22 28  1  0  0  0
 22 32  2  0  0  0
 26 27  1  0  0  0
 28104  1  0  0  0
 28105  1  0  0  0
 29106  1  0  0  0
 29107  1  0  0  0
 33 34  1  0  0  0
 33 66  1  0  0  0
 33 70  2  0  0  0
 34 36  1  0  0  0
 34 59  1  0  0  0
 34108  1  0  0  0
 35 44  2  0  0  0
 35 45  1  0  0  0
 35 68  1  0  0  0
 36 56  1  0  0  0
 36109  1  0  0  0
 37 39  1  0  0  0
 37 47  1  0  0  0
 37 66  1  0  0  0
 37110  1  0  0  0
 38 43  2  0  0  0
 38 46  1  0  0  0
 38 47  1  0  0  0
 39 64  1  0  0  0
 39 67  2  0  0  0
 40 52  1  0  0  0
 40 53  2  0  0  0
 40 58  1  0  0  0
 41111  1  0  0  0
 41112  1  0  0  0
 41113  1  0  0  0
 41 48  1  0  0  0
 42 43  1  0  0  0
 42 66  1  0  0  0
 42114  1  0  0  0
 42115  1  0  0  0
 43 44  1  0  0  0
 44116  1  0  0  0
 45 46  2  0  0  0
 45117  1  0  0  0
 46118  1  0  0  0
 47119  1  0  0  0
 47120  1  0  0  0
 48 56  1  0  0  0
 48 65  1  0  0  0
 48121  1  0  0  0
 49 50  1  0  0  0
 49 53  1  0  0  0
 49 64  1  0  0  0
 49122  1  0  0  0
 50 51  1  0  0  0
 50123  1  0  0  0
 50124  1  0  0  0
 51 52  1  0  0  0
 51125  1  0  0  0
 51126  1  0  0  0
 52127  1  0  0  0
 52128  1  0  0  0
 53 54  1  0  0  0
 54 55  2  0  0  0
 54129  1  0  0  0
 55 57  1  0  0  0
 55130  1  0  0  0
 56 69  2  0  0  0
 57 58  2  0  0  0
 57131  1  0  0  0
 58132  1  0  0  0
 59 60  1  0  0  0
 59 61  1  0  0  0
 59 62  1  0  0  0
 60133  1  0  0  0
 60134  1  0  0  0
 60135  1  0  0  0
 61136  1  0  0  0
 61137  1  0  0  0
 61138  1  0  0  0
 62139  1  0  0  0
 62140  1  0  0  0
 62141  1  0  0  0
 63 65  1  0  0  0
 63142  1  0  0  0
 63143  1  0  0  0
 63144  1  0  0  0
 64145  1  0  0  0
 65146  1  0  0  0
 68 83  1  0  0  0
 71 73  2  0  0  0
 71 74  1  0  0  0
 71147  1  0  0  0
 72 73  1  0  0  0
 72 75  2  0  0  0
 72148  1  0  0  0
 73 85  1  0  0  0
 74 80  1  0  0  0
 74 86  2  0  0  0
 75 84  1  0  0  0
 75 86  1  0  0  0
 76149  1  0  0  0
 76150  1  0  0  0
 76151  1  0  0  0
 76 84  1  0  0  0
 77 84  1  0  0  0
 77152  1  0  0  0
 77153  1  0  0  0
 77154  1  0  0  0
 78155  1  0  0  0
 78156  1  0  0  0
 78157  1  0  0  0
 78 85  1  0  0  0
 79 85  1  0  0  0
 79158  1  0  0  0
 79159  1  0  0  0
 79160  1  0  0  0
 80 82  1  0  0  0
 80161  1  0  0  0
 80162  1  0  0  0
 81 83  1  0  0  0
 81 85  1  0  0  0
 81163  1  0  0  0
 81164  1  0  0  0
 82 87  1  0  0  0
 82165  1  0  0  0
 82166  1  0  0  0
 83167  1  0  0  0
 83168  1  0  0  0
 84169  1  0  0  0
 87170  1  0  0  0
M  ISO  4   1 100  68 101  83 101  87 100
M  END
> <chiral flag>
0

> <version>
0

> <s_m_source_file>
/data/baiqing/PycharmProjects/Reinvent-master-3.2/result/LINK_invent/BTK/process_docking_weight1_custom_sum_contain_oxygen_bond_distance_aromatic_linkinvent_7_9_3/rearranged_h_0084.sdf

> <i_m_source_file_index>
38

> <r_mmod_Potential_Energy-OPLS-2005>
9408.5673828125

> <r_mmod_Stretch_Energy-OPLS-2005>
5734.8046875

> <r_mmod_Bend_Energy-OPLS-2005>
776.832946777344

> <r_mmod_Torsional_Energy-OPLS-2005>
399.463317871094

> <r_mmod_Improper_Torsional_Energy-OPLS-2005>
32.9393348693848

> <r_mmod_Van_der_Waal_Energy-OPLS-2005>
1973.43176269531

> <r_mmod_Electrostatic_Energy-OPLS-2005>
-530.068664550781

> <r_mmod_Solvation_Energy-OPLS-2005>
-237.260818481445

> <b_mmod_Minimization_Converged-OPLS-2005>
0

> <r_mmod_RMS_Derivative-OPLS-2005>
11.493857383728

$$$$
38
                    3D
 Structure written by MMmdl.
163171  0  0  1  0            999 V2000
  -30.6072  -14.7438   20.4597 C   0  0  0  0  0  0
  -30.4367  -12.4515   19.4831 C   0  0  0  0  0  0
  -29.5153  -12.5121   18.2436 C   0  0  0  0  0  0
  -28.0403  -12.3365   18.6532 C   0  0  0  0  0  0
  -27.6464  -13.2312   19.8584 C   0  0  2  0  0  0
  -28.6898  -13.1563   20.9967 C   0  0  0  0  0  0
  -25.2522  -13.8189   20.5689 C   0  0  0  0  0  0
  -24.1812  -13.0436   20.9195 C   0  0  0  0  0  0
  -24.6399  -11.6913   20.8742 C   0  0  0  0  0  0
  -23.9071  -10.4290   21.0404 C   0  0  0  0  0  0
  -24.3621   -9.4204   21.9180 C   0  0  0  0  0  0
  -23.6298   -8.2240   22.0751 C   0  0  0  0  0  0
  -22.4281   -8.0279   21.3539 C   0  0  0  0  0  0
  -21.9914   -9.0251   20.4640 C   0  0  0  0  0  0
  -22.7242  -10.2131   20.3053 C   0  0  0  0  0  0
  -21.6858   -6.0738   22.5279 C   0  0  0  0  0  0
  -21.4016   -6.5640   23.8212 C   0  0  0  0  0  0
  -21.3661   -5.6792   24.9174 C   0  0  0  0  0  0
  -21.6048   -4.3055   24.7225 C   0  0  0  0  0  0
  -21.8820   -3.8149   23.4344 C   0  0  0  0  0  0
  -21.9195   -4.6966   22.3402 C   0  0  0  0  0  0
  -22.7832  -13.5215   21.1864 C   0  0  0  0  0  0
  -22.1660   -4.2152   21.0980 F   0  0  0  0  0  0
  -21.5632   -3.4536   25.7736 F   0  0  0  0  0  0
  -29.9961  -13.5089   20.4240 N   0  0  0  0  0  0
  -26.2961  -12.9400   20.3312 N   0  0  0  0  0  0
  -25.9334  -11.6538   20.5758 N   0  0  0  0  0  0
  -22.0485  -12.8197   22.0416 N   0  0  0  0  0  0
  -25.4213  -15.1914   20.4101 N   0  0  0  0  0  0
  -31.7765  -14.8623   20.0844 O   0  0  0  0  0  0
  -21.6641   -6.8880   21.4241 O   0  0  0  0  0  0
  -22.3508  -14.5519   20.6713 O   0  0  0  0  0  0
  -24.6334  -31.8550   23.2001 C   0  0  0  0  0  0
  -25.9152  -32.4755   23.8345 C   0  0  1  0  0  0
  -27.2123  -27.2458   20.1252 C   0  0  0  0  0  0
  -25.5942  -33.8559   24.2264 N   0  0  0  0  0  0
  -23.4309  -30.4798   21.5439 C   0  0  2  0  0  0
  -24.8776  -28.9333   20.1062 C   0  0  0  0  0  0
  -22.7522  -29.4597   22.4905 C   0  0  0  0  0  0
  -18.0299  -28.1382   22.8480 C   0  0  0  0  0  0
  -24.1491  -36.7281   23.2639 C   0  0  0  0  0  0
  -25.9802  -30.7606   21.3871 C   0  0  0  0  0  0
  -26.0505  -29.3841   20.7253 C   0  0  0  0  0  0
  -27.2191  -28.5515   20.7295 C   0  0  0  0  0  0
  -26.0238  -26.8912   19.4423 C   0  0  0  0  0  0
  -24.8708  -27.6952   19.4525 C   0  0  0  0  0  0
  -23.6499  -29.8207   20.1580 C   0  0  0  0  0  0
  -25.4117  -36.3071   24.0327 C   0  0  1  0  0  0
  -20.5906  -28.3698   23.1260 C   0  0  2  0  0  0
  -20.6785  -26.9411   22.5405 C   0  0  0  0  0  0
  -19.5759  -26.6377   21.5209 C   0  0  0  0  0  0
  -18.1940  -26.7923   22.1624 C   0  0  0  0  0  0
  -19.1554  -28.8859   23.2860 C   0  0  0  0  0  0
  -18.9471  -30.1455   23.8881 C   0  0  0  0  0  0
  -17.6469  -30.6580   24.0561 C   0  0  0  0  0  0
  -25.9060  -34.9440   23.5099 C   0  0  0  0  0  0
  -16.5361  -29.9076   23.6332 C   0  0  0  0  0  0
  -16.7285  -28.6497   23.0350 C   0  0  0  0  0  0
  -26.4511  -31.6582   25.0741 C   0  0  0  0  0  0
  -25.3720  -31.3737   26.1453 C   0  0  0  0  0  0
  -27.0372  -30.2995   24.6250 C   0  0  0  0  0  0
  -27.6063  -32.4324   25.7513 C   0  0  0  0  0  0
  -27.5580  -37.1800   24.8466 C   0  0  0  0  0  0
  -21.4228  -29.3043   22.3648 N   0  0  0  0  0  0
  -26.4292  -37.3770   23.9406 N   0  0  0  0  0  0
  -24.7004  -31.0499   22.0991 N   0  0  0  0  0  0
  -23.4215  -28.8128   23.3001 O   0  0  0  0  0  0
  -28.2774  -26.3069   20.2183 O   0  0  0  0  0  0
  -26.5630  -34.8914   22.4667 O   0  0  0  0  0  0
  -23.5479  -32.1386   23.7277 O   0  0  0  0  0  0
  -30.6533  -23.3636   19.2243 C   0  0  0  0  0  0
  -29.6972  -22.6229   19.9526 C   0  0  0  0  0  0
  -31.6844  -22.6946   18.5387 C   0  0  0  0  0  0
  -29.8872  -21.1564   19.9389 C   0  0  0  0  0  0
  -33.1071  -24.8182   18.2849 C   0  0  0  0  0  0
  -32.3178  -23.5295   16.2404 C   0  0  0  0  0  0
  -28.6271  -23.5255   20.6823 C   0  0  0  0  0  0
  -28.9900  -19.9942   20.5146 C   0  0  0  0  0  0
  -29.6014  -18.5801   21.0733 C   0  0  0  0  0  0
  -29.9598  -17.2953   20.1516 C   0  0  0  0  0  0
  -27.9756  -24.8425   19.9715 C   0  0  0  0  0  0
  -32.7365  -23.4360   17.7156 C   0  0  0  0  0  0
  -31.7809  -21.3477   18.5426 N   0  0  0  0  0  0
  -30.8992  -20.6099   19.2172 N   0  0  0  0  0  0
  -29.8205  -15.8631   20.6924 N   0  0  0  0  0  0
  -31.4790  -12.5736   19.1825 H   0  0  0  0  0  0
  -30.3796  -11.4717   19.9595 H   0  0  0  0  0  0
  -29.7978  -11.7422   17.5242 H   0  0  0  0  0  0
  -29.6434  -13.4685   17.7342 H   0  0  0  0  0  0
  -27.8939  -11.2866   18.9091 H   0  0  0  0  0  0
  -27.3846  -12.5352   17.8049 H   0  0  0  0  0  0
  -27.6436  -14.2548   19.4829 H   0  0  0  0  0  0
  -28.7207  -12.1555   21.4296 H   0  0  0  0  0  0
  -28.4236  -13.8314   21.8117 H   0  0  0  0  0  0
  -25.2768   -9.5682   22.4749 H   0  0  0  0  0  0
  -24.0015   -7.4629   22.7461 H   0  0  0  0  0  0
  -21.0849   -8.8762   19.8940 H   0  0  0  0  0  0
  -22.3700  -10.9666   19.6158 H   0  0  0  0  0  0
  -21.2007   -7.6148   23.9715 H   0  0  0  0  0  0
  -21.1483   -6.0521   25.9076 H   0  0  0  0  0  0
  -22.0600   -2.7612   23.2840 H   0  0  0  0  0  0
  -22.4121  -11.9869   22.4808 H   0  0  0  0  0  0
  -21.1096  -13.1202   22.2623 H   0  0  0  0  0  0
  -24.6507  -15.8421   20.5175 H   0  0  0  0  0  0
  -26.2663  -15.6323   20.0703 H   0  0  0  0  0  0
  -26.7218  -32.5400   23.1084 H   0  0  0  0  0  0
  -25.0094  -33.9695   25.0414 H   0  0  0  0  0  0
  -22.7283  -31.3030   21.4003 H   0  0  0  0  0  0
  -23.3758  -35.9608   23.3299 H   0  0  0  0  0  0
  -24.3581  -36.8908   22.2054 H   0  0  0  0  0  0
  -23.7242  -37.6481   23.6664 H   0  0  0  0  0  0
  -26.1272  -31.5220   20.6198 H   0  0  0  0  0  0
  -26.8552  -30.8049   22.0241 H   0  0  0  0  0  0
  -28.1102  -28.8854   21.2426 H   0  0  0  0  0  0
  -25.9443  -25.9608   18.9015 H   0  0  0  0  0  0
  -23.9788  -27.3523   18.9458 H   0  0  0  0  0  0
  -23.7764  -30.6008   19.4067 H   0  0  0  0  0  0
  -22.7686  -29.2563   19.8486 H   0  0  0  0  0  0
  -25.1299  -36.1921   25.0820 H   0  0  0  0  0  0
  -20.9995  -28.3274   24.1384 H   0  0  0  0  0  0
  -20.5684  -26.2307   23.3613 H   0  0  0  0  0  0
  -21.6652  -26.7429   22.1201 H   0  0  0  0  0  0
  -19.6920  -25.6284   21.1247 H   0  0  0  0  0  0
  -19.6695  -27.3180   20.6733 H   0  0  0  0  0  0
  -17.4210  -26.6669   21.4025 H   0  0  0  0  0  0
  -18.0337  -26.0062   22.9019 H   0  0  0  0  0  0
  -19.7946  -30.7273   24.2245 H   0  0  0  0  0  0
  -17.5024  -31.6260   24.5162 H   0  0  0  0  0  0
  -15.5361  -30.2973   23.7659 H   0  0  0  0  0  0
  -15.8689  -28.0811   22.7071 H   0  0  0  0  0  0
  -24.5900  -30.7082   25.7778 H   0  0  0  0  0  0
  -24.8903  -32.2908   26.4857 H   0  0  0  0  0  0
  -25.8025  -30.8930   27.0247 H   0  0  0  0  0  0
  -26.2975  -29.6732   24.1252 H   0  0  0  0  0  0
  -27.4024  -29.7270   25.4788 H   0  0  0  0  0  0
  -27.8863  -30.4270   23.9532 H   0  0  0  0  0  0
  -27.2677  -33.3633   26.2073 H   0  0  0  0  0  0
  -28.3881  -32.6870   25.0342 H   0  0  0  0  0  0
  -28.0722  -31.8458   26.5444 H   0  0  0  0  0  0
  -28.2600  -38.0096   24.7511 H   0  0  0  0  0  0
  -28.1075  -36.2629   24.6294 H   0  0  0  0  0  0
  -27.2296  -37.1447   25.8869 H   0  0  0  0  0  0
  -20.9414  -29.8783   21.6869 H   0  0  0  0  0  0
  -26.0175  -38.2846   24.1400 H   0  0  0  0  0  0
  -30.5910  -24.4408   19.1923 H   0  0  0  0  0  0
  -33.4123  -24.7435   19.3292 H   0  0  0  0  0  0
  -32.2790  -25.5244   18.2241 H   0  0  0  0  0  0
  -33.9396  -25.2541   17.7326 H   0  0  0  0  0  0
  -32.1447  -22.5380   15.8208 H   0  0  0  0  0  0
  -33.0896  -24.0095   15.6383 H   0  0  0  0  0  0
  -31.3970  -24.1019   16.1254 H   0  0  0  0  0  0
  -29.0320  -23.8173   21.6513 H   0  0  0  0  0  0
  -27.8057  -22.8479   20.9192 H   0  0  0  0  0  0
  -28.2307  -19.7722   19.7649 H   0  0  0  0  0  0
  -28.4418  -20.4483   21.3400 H   0  0  0  0  0  0
  -28.8347  -18.2121   21.7561 H   0  0  0  0  0  0
  -30.4508  -18.8016   21.7204 H   0  0  0  0  0  0
  -30.9674  -17.4259   19.7539 H   0  0  0  0  0  0
  -29.3091  -17.3348   19.2772 H   0  0  0  0  0  0
  -26.9458  -24.7213   20.3059 H   0  0  0  0  0  0
  -27.9430  -24.6774   18.8939 H   0  0  0  0  0  0
  -33.6449  -22.8318   17.7564 H   0  0  0  0  0  0
  -28.9019  -15.6366   21.0447 H   0  0  0  0  0  0
  1 25  1  0  0  0
  1 30  2  0  0  0
  1 85  1  0  0  0
  2  3  1  0  0  0
  2 25  1  0  0  0
  2 86  1  0  0  0
  2 87  1  0  0  0
  3  4  1  0  0  0
  3 88  1  0  0  0
  3 89  1  0  0  0
  4  5  1  0  0  0
  4 90  1  0  0  0
  4 91  1  0  0  0
  5  6  1  0  0  0
  5 26  1  0  0  0
  5 92  1  0  0  0
  6 25  1  0  0  0
  6 93  1  0  0  0
  6 94  1  0  0  0
  7  8  2  0  0  0
  7 26  1  0  0  0
  7 29  1  0  0  0
  8  9  1  0  0  0
  8 22  1  0  0  0
  9 10  1  0  0  0
  9 27  2  0  0  0
 10 11  2  0  0  0
 10 15  1  0  0  0
 11 12  1  0  0  0
 11 95  1  0  0  0
 12 13  2  0  0  0
 12 96  1  0  0  0
 13 14  1  0  0  0
 13 31  1  0  0  0
 14 15  2  0  0  0
 14 97  1  0  0  0
 15 98  1  0  0  0
 16 17  2  0  0  0
 16 21  1  0  0  0
 16 31  1  0  0  0
 17 18  1  0  0  0
 17 99  1  0  0  0
 18 19  2  0  0  0
 18100  1  0  0  0
 19 20  1  0  0  0
 19 24  1  0  0  0
 20 21  2  0  0  0
 20101  1  0  0  0
 21 23  1  0  0  0
 22 28  1  0  0  0
 22 32  2  0  0  0
 26 27  1  0  0  0
 28102  1  0  0  0
 28103  1  0  0  0
 29104  1  0  0  0
 29105  1  0  0  0
 33 34  1  0  0  0
 33 66  1  0  0  0
 33 70  2  0  0  0
 34 36  1  0  0  0
 34 59  1  0  0  0
 34106  1  0  0  0
 35 44  2  0  0  0
 35 45  1  0  0  0
 35 68  1  0  0  0
 36 56  1  0  0  0
 36107  1  0  0  0
 37 39  1  0  0  0
 37 47  1  0  0  0
 37 66  1  0  0  0
 37108  1  0  0  0
 38 43  2  0  0  0
 38 46  1  0  0  0
 38 47  1  0  0  0
 39 64  1  0  0  0
 39 67  2  0  0  0
 40 52  1  0  0  0
 40 53  2  0  0  0
 40 58  1  0  0  0
 41109  1  0  0  0
 41110  1  0  0  0
 41111  1  0  0  0
 41 48  1  0  0  0
 42 43  1  0  0  0
 42 66  1  0  0  0
 42112  1  0  0  0
 42113  1  0  0  0
 43 44  1  0  0  0
 44114  1  0  0  0
 45 46  2  0  0  0
 45115  1  0  0  0
 46116  1  0  0  0
 47117  1  0  0  0
 47118  1  0  0  0
 48 56  1  0  0  0
 48 65  1  0  0  0
 48119  1  0  0  0
 49 50  1  0  0  0
 49 53  1  0  0  0
 49 64  1  0  0  0
 49120  1  0  0  0
 50 51  1  0  0  0
 50121  1  0  0  0
 50122  1  0  0  0
 51 52  1  0  0  0
 51123  1  0  0  0
 51124  1  0  0  0
 52125  1  0  0  0
 52126  1  0  0  0
 53 54  1  0  0  0
 54 55  2  0  0  0
 54127  1  0  0  0
 55 57  1  0  0  0
 55128  1  0  0  0
 56 69  2  0  0  0
 57 58  2  0  0  0
 57129  1  0  0  0
 58130  1  0  0  0
 59 60  1  0  0  0
 59 61  1  0  0  0
 59 62  1  0  0  0
 60131  1  0  0  0
 60132  1  0  0  0
 60133  1  0  0  0
 61134  1  0  0  0
 61135  1  0  0  0
 61136  1  0  0  0
 62137  1  0  0  0
 62138  1  0  0  0
 62139  1  0  0  0
 63 65  1  0  0  0
 63140  1  0  0  0
 63141  1  0  0  0
 63142  1  0  0  0
 64143  1  0  0  0
 65144  1  0  0  0
 68 81  1  0  0  0
 71 72  2  0  0  0
 71 73  1  0  0  0
 71145  1  0  0  0
 72 74  1  0  0  0
 72 77  1  0  0  0
 73 82  1  0  0  0
 73 83  2  0  0  0
 74 78  1  0  0  0
 74 84  2  0  0  0
 75146  1  0  0  0
 75147  1  0  0  0
 75148  1  0  0  0
 75 82  1  0  0  0
 76 82  1  0  0  0
 76149  1  0  0  0
 76150  1  0  0  0
 76151  1  0  0  0
 77 81  1  0  0  0
 77152  1  0  0  0
 77153  1  0  0  0
 78 79  1  0  0  0
 78154  1  0  0  0
 78155  1  0  0  0
 79 80  1  0  0  0
 79156  1  0  0  0
 79157  1  0  0  0
 80 85  1  0  0  0
 80158  1  0  0  0
 80159  1  0  0  0
 81160  1  0  0  0
 81161  1  0  0  0
 82162  1  0  0  0
 83 84  1  0  0  0
 85163  1  0  0  0
M  ISO  4   1 100  68 101  81 101  85 100
M  END
> <chiral flag>
0

> <version>
0

> <s_m_source_file>
/data/baiqing/PycharmProjects/Reinvent-master-3.2/result/LINK_invent/BTK/process_docking_weight1_custom_sum_contain_oxygen_bond_distance_aromatic_linkinvent_7_9_3/rearranged_h_0084.sdf

> <i_m_source_file_index>
39

> <r_mmod_Potential_Energy-OPLS-2005>
237.793273925781

> <r_mmod_Stretch_Energy-OPLS-2005>
138.900344848633

> <r_mmod_Bend_Energy-OPLS-2005>
225.965515136719

> <r_mmod_Torsional_Energy-OPLS-2005>
221.538803100586

> <r_mmod_Improper_Torsional_Energy-OPLS-2005>
6.80818748474121

> <r_mmod_Van_der_Waal_Energy-OPLS-2005>
145.940460205078

> <r_mmod_Electrostatic_Energy-OPLS-2005>
-356.383056640625

> <r_mmod_Solvation_Energy-OPLS-2005>
-238.646591186523

> <b_mmod_Minimization_Converged-OPLS-2005>
0

> <r_mmod_RMS_Derivative-OPLS-2005>
0.814547061920166

$$$$
39
                    3D
 Structure written by MMmdl.
185193  0  0  1  0            999 V2000
  -30.6446  -14.5623   20.5219 C   0  0  0  0  0  0
  -30.4282  -12.3455   19.4450 C   0  0  0  0  0  0
  -29.5009  -12.5046   18.2202 C   0  0  0  0  0  0
  -28.0228  -12.3510   18.6320 C   0  0  0  0  0  0
  -27.6545  -13.2115   19.8695 C   0  0  2  0  0  0
  -28.6942  -13.0307   21.0005 C   0  0  0  0  0  0
  -25.2475  -13.8138   20.5354 C   0  0  0  0  0  0
  -24.1788  -13.0438   20.9078 C   0  0  0  0  0  0
  -24.6382  -11.6924   20.8759 C   0  0  0  0  0  0
  -23.9057  -10.4306   21.0444 C   0  0  0  0  0  0
  -24.3609   -9.4208   21.9215 C   0  0  0  0  0  0
  -23.6291   -8.2238   22.0766 C   0  0  0  0  0  0
  -22.4278   -8.0282   21.3555 C   0  0  0  0  0  0
  -21.9913   -9.0253   20.4662 C   0  0  0  0  0  0
  -22.7239  -10.2135   20.3085 C   0  0  0  0  0  0
  -21.6852   -6.0735   22.5279 C   0  0  0  0  0  0
  -21.4008   -6.5645   23.8210 C   0  0  0  0  0  0
  -21.3656   -5.6800   24.9177 C   0  0  0  0  0  0
  -21.6041   -4.3060   24.7225 C   0  0  0  0  0  0
  -21.8820   -3.8145   23.4348 C   0  0  0  0  0  0
  -21.9189   -4.6964   22.3403 C   0  0  0  0  0  0
  -22.7828  -13.5239   21.1812 C   0  0  0  0  0  0
  -22.1657   -4.2158   21.0978 F   0  0  0  0  0  0
  -21.5629   -3.4533   25.7728 F   0  0  0  0  0  0
  -30.0219  -13.3500   20.4471 N   0  0  0  0  0  0
  -26.2964  -12.9333   20.3271 N   0  0  0  0  0  0
  -25.9312  -11.6508   20.5825 N   0  0  0  0  0  0
  -22.0504  -12.8254   22.0420 N   0  0  0  0  0  0
  -25.4142  -15.1816   20.3425 N   0  0  0  0  0  0
  -31.7851  -14.7484   20.0909 O   0  0  0  0  0  0
  -21.6648   -6.8874   21.4244 O   0  0  0  0  0  0
  -22.3483  -14.5538   20.6684 O   0  0  0  0  0  0
  -24.6206  -31.8597   23.1997 C   0  0  0  0  0  0
  -25.9080  -32.4781   23.8303 C   0  0  1  0  0  0
  -27.2179  -27.3635   20.1375 C   0  0  0  0  0  0
  -25.5932  -33.8580   24.2244 N   0  0  0  0  0  0
  -23.4122  -30.4847   21.5388 C   0  0  2  0  0  0
  -24.8591  -28.9422   20.1052 C   0  0  0  0  0  0
  -22.7452  -29.4636   22.4904 C   0  0  0  0  0  0
  -18.0285  -28.1370   22.8496 C   0  0  0  0  0  0
  -24.1505  -36.7295   23.2639 C   0  0  0  0  0  0
  -25.9472  -30.8119   21.3583 C   0  0  0  0  0  0
  -26.0225  -29.4431   20.7060 C   0  0  0  0  0  0
  -27.2111  -28.6662   20.7066 C   0  0  0  0  0  0
  -26.0422  -26.8958   19.5181 C   0  0  0  0  0  0
  -24.8695  -27.6743   19.4978 C   0  0  0  0  0  0
  -23.6229  -29.8140   20.1533 C   0  0  0  0  0  0
  -25.4131  -36.3095   24.0346 C   0  0  1  0  0  0
  -20.5887  -28.3673   23.1287 C   0  0  2  0  0  0
  -20.6800  -26.9399   22.5413 C   0  0  0  0  0  0
  -19.5786  -26.6374   21.5219 C   0  0  0  0  0  0
  -18.1945  -26.7931   22.1604 C   0  0  0  0  0  0
  -19.1547  -28.8843   23.2885 C   0  0  0  0  0  0
  -18.9467  -30.1448   23.8882 C   0  0  0  0  0  0
  -17.6462  -30.6581   24.0556 C   0  0  0  0  0  0
  -25.9043  -34.9472   23.5084 C   0  0  0  0  0  0
  -16.5344  -29.9072   23.6333 C   0  0  0  0  0  0
  -16.7274  -28.6498   23.0346 C   0  0  0  0  0  0
  -26.4475  -31.6608   25.0682 C   0  0  0  0  0  0
  -25.3729  -31.3746   26.1416 C   0  0  0  0  0  0
  -27.0307  -30.3058   24.6088 C   0  0  0  0  0  0
  -27.6014  -32.4363   25.7454 C   0  0  0  0  0  0
  -27.5590  -37.1793   24.8470 C   0  0  0  0  0  0
  -21.4176  -29.3029   22.3682 N   0  0  0  0  0  0
  -26.4305  -37.3795   23.9415 N   0  0  0  0  0  0
  -24.6787  -31.0677   22.0905 N   0  0  0  0  0  0
  -23.4212  -28.8173   23.2960 O   0  0  0  0  0  0
  -28.3399  -26.5464   20.1827 O   0  0  0  0  0  0
  -26.5596  -34.8956   22.4626 O   0  0  0  0  0  0
  -23.5403  -32.1320   23.7397 O   0  0  0  0  0  0
  -27.5090  -21.5386   21.7178 C   0  0  0  0  0  0
  -27.1401  -20.4380   22.5223 C   0  0  0  0  0  0
  -28.0186  -19.3222   22.6297 C   0  0  0  0  0  0
  -28.7108  -21.5072   20.9970 C   0  0  0  0  0  0
  -29.1448  -19.2878   21.7552 C   0  0  0  0  0  0
  -24.4181  -21.5309   25.1087 C   0  0  0  0  0  0
  -25.1616  -15.4273   23.6282 C   0  0  0  0  0  0
  -27.6168  -16.1490   26.0586 C   0  0  0  0  0  0
  -29.4742  -15.6018   24.4433 C   0  0  0  0  0  0
  -25.8005  -20.5121   23.2442 C   0  0  0  0  0  0
  -27.8705  -18.3250   23.8089 C   0  0  0  0  0  0
  -29.2535  -22.7604   20.2455 C   0  0  0  0  0  0
  -30.1091  -18.0637   21.7167 C   0  0  0  0  0  0
  -25.8343  -21.2854   24.5702 C   0  0  0  0  0  0
  -25.8113  -16.8213   23.5435 C   0  0  0  0  0  0
  -28.3199  -23.9784   19.8411 C   0  0  0  0  0  0
  -29.9473  -17.0451   20.5327 C   0  0  0  0  0  0
  -28.1802  -25.2221   20.7962 C   0  0  0  0  0  0
  -27.9628  -15.8430   24.5887 C   0  0  0  0  0  0
  -27.3652  -16.8674   23.5598 C   0  0  2  0  0  0
  -29.4721  -20.3694   20.9774 N   0  0  0  0  0  0
  -29.8464  -15.5982   20.8901 N   0  0  0  0  0  0
  -31.4720  -12.4542   19.1467 H   0  0  0  0  0  0
  -30.3397  -11.3423   19.8612 H   0  0  0  0  0  0
  -29.7521  -11.7680   17.4555 H   0  0  0  0  0  0
  -29.6565  -13.4832   17.7632 H   0  0  0  0  0  0
  -27.8491  -11.2974   18.8517 H   0  0  0  0  0  0
  -27.3691  -12.5939   17.7936 H   0  0  0  0  0  0
  -27.6864  -14.2526   19.5463 H   0  0  0  0  0  0
  -28.6810  -12.0039   21.3676 H   0  0  0  0  0  0
  -28.4461  -13.6533   21.8612 H   0  0  0  0  0  0
  -25.2745   -9.5687   22.4802 H   0  0  0  0  0  0
  -24.0006   -7.4620   22.7470 H   0  0  0  0  0  0
  -21.0849   -8.8772   19.8955 H   0  0  0  0  0  0
  -22.3696  -10.9679   19.6196 H   0  0  0  0  0  0
  -21.2004   -7.6154   23.9721 H   0  0  0  0  0  0
  -21.1477   -6.0523   25.9080 H   0  0  0  0  0  0
  -22.0599   -2.7614   23.2840 H   0  0  0  0  0  0
  -22.4125  -11.9927   22.4821 H   0  0  0  0  0  0
  -21.1131  -13.1299   22.2654 H   0  0  0  0  0  0
  -24.6532  -15.8375   20.4739 H   0  0  0  0  0  0
  -26.2677  -15.6246   20.0316 H   0  0  0  0  0  0
  -26.7162  -32.5437   23.1063 H   0  0  0  0  0  0
  -25.0251  -33.9756   25.0504 H   0  0  0  0  0  0
  -22.7054  -31.3032   21.3945 H   0  0  0  0  0  0
  -23.3796  -35.9593   23.3310 H   0  0  0  0  0  0
  -24.3595  -36.8878   22.2043 H   0  0  0  0  0  0
  -23.7254  -37.6499   23.6649 H   0  0  0  0  0  0
  -26.0749  -31.5797   20.5928 H   0  0  0  0  0  0
  -26.8292  -30.8591   21.9838 H   0  0  0  0  0  0
  -28.1094  -29.0447   21.1757 H   0  0  0  0  0  0
  -26.0296  -25.9135   19.0639 H   0  0  0  0  0  0
  -23.9805  -27.2842   19.0212 H   0  0  0  0  0  0
  -23.7228  -30.5834   19.3863 H   0  0  0  0  0  0
  -22.7488  -29.2279   19.8605 H   0  0  0  0  0  0
  -25.1318  -36.1926   25.0848 H   0  0  0  0  0  0
  -20.9974  -28.3225   24.1407 H   0  0  0  0  0  0
  -20.5738  -26.2247   23.3583 H   0  0  0  0  0  0
  -21.6658  -26.7460   22.1163 H   0  0  0  0  0  0
  -19.6953  -25.6279   21.1259 H   0  0  0  0  0  0
  -19.6766  -27.3179   20.6743 H   0  0  0  0  0  0
  -17.4225  -26.6690   21.3984 H   0  0  0  0  0  0
  -18.0341  -26.0064   22.8983 H   0  0  0  0  0  0
  -19.7937  -30.7299   24.2224 H   0  0  0  0  0  0
  -17.5008  -31.6267   24.5150 H   0  0  0  0  0  0
  -15.5348  -30.2967   23.7702 H   0  0  0  0  0  0
  -15.8662  -28.0841   22.7036 H   0  0  0  0  0  0
  -24.5916  -30.7096   25.7752 H   0  0  0  0  0  0
  -24.8927  -32.2922   26.4814 H   0  0  0  0  0  0
  -25.8061  -30.8940   27.0193 H   0  0  0  0  0  0
  -26.2846  -29.6824   24.1164 H   0  0  0  0  0  0
  -27.4105  -29.7300   25.4531 H   0  0  0  0  0  0
  -27.8678  -30.4394   23.9241 H   0  0  0  0  0  0
  -27.2593  -33.3668   26.1985 H   0  0  0  0  0  0
  -28.3820  -32.6895   25.0284 H   0  0  0  0  0  0
  -28.0682  -31.8534   26.5393 H   0  0  0  0  0  0
  -28.2587  -38.0102   24.7491 H   0  0  0  0  0  0
  -28.1088  -36.2623   24.6302 H   0  0  0  0  0  0
  -27.2285  -37.1401   25.8862 H   0  0  0  0  0  0
  -20.9333  -29.8714   21.6864 H   0  0  0  0  0  0
  -26.0194  -38.2871   24.1386 H   0  0  0  0  0  0
  -26.8861  -22.4219   21.6931 H   0  0  0  0  0  0
  -24.4452  -22.0167   26.0829 H   0  0  0  0  0  0
  -23.8631  -20.5974   25.2155 H   0  0  0  0  0  0
  -23.8516  -22.1739   24.4319 H   0  0  0  0  0  0
  -24.1127  -15.4625   23.3269 H   0  0  0  0  0  0
  -25.1874  -15.0303   24.6431 H   0  0  0  0  0  0
  -25.6710  -14.7079   22.9916 H   0  0  0  0  0  0
  -28.0004  -15.3677   26.7169 H   0  0  0  0  0  0
  -26.5413  -16.2007   26.2262 H   0  0  0  0  0  0
  -28.0512  -17.0924   26.3901 H   0  0  0  0  0  0
  -29.8032  -14.7850   25.0872 H   0  0  0  0  0  0
  -30.0671  -16.4766   24.7074 H   0  0  0  0  0  0
  -29.7284  -15.3087   23.4295 H   0  0  0  0  0  0
  -25.3978  -19.5152   23.4024 H   0  0  0  0  0  0
  -25.0901  -20.9913   22.5686 H   0  0  0  0  0  0
  -27.2589  -18.7669   24.5914 H   0  0  0  0  0  0
  -28.8459  -18.2942   24.2877 H   0  0  0  0  0  0
  -29.6625  -22.3717   19.3127 H   0  0  0  0  0  0
  -30.1237  -23.1400   20.7856 H   0  0  0  0  0  0
  -30.0704  -17.5238   22.6547 H   0  0  0  0  0  0
  -31.1267  -18.4531   21.6970 H   0  0  0  0  0  0
  -26.4246  -20.7424   25.3090 H   0  0  0  0  0  0
  -26.3257  -22.2483   24.4273 H   0  0  0  0  0  0
  -25.4072  -17.4110   24.3664 H   0  0  0  0  0  0
  -25.4668  -17.3063   22.6297 H   0  0  0  0  0  0
  -27.3437  -23.6240   19.5060 H   0  0  0  0  0  0
  -28.7783  -24.3871   18.9406 H   0  0  0  0  0  0
  -30.7554  -17.1963   19.8162 H   0  0  0  0  0  0
  -29.0337  -17.2985   19.9926 H   0  0  0  0  0  0
  -28.9339  -25.1539   21.5811 H   0  0  0  0  0  0
  -27.2296  -25.1529   21.3296 H   0  0  0  0  0  0
  -27.5331  -14.8657   24.3696 H   0  0  0  0  0  0
  -27.7102  -16.5483   22.5769 H   0  0  0  0  0  0
  -28.9468  -15.3120   21.2415 H   0  0  0  0  0  0
  1 25  1  0  0  0
  1 30  2  0  0  0
  1 92  1  0  0  0
  2  3  1  0  0  0
  2 25  1  0  0  0
  2 93  1  0  0  0
  2 94  1  0  0  0
  3  4  1  0  0  0
  3 95  1  0  0  0
  3 96  1  0  0  0
  4  5  1  0  0  0
  4 97  1  0  0  0
  4 98  1  0  0  0
  5  6  1  0  0  0
  5 26  1  0  0  0
  5 99  1  0  0  0
  6 25  1  0  0  0
  6100  1  0  0  0
  6101  1  0  0  0
  7  8  2  0  0  0
  7 26  1  0  0  0
  7 29  1  0  0  0
  8  9  1  0  0  0
  8 22  1  0  0  0
  9 10  1  0  0  0
  9 27  2  0  0  0
 10 11  2  0  0  0
 10 15  1  0  0  0
 11 12  1  0  0  0
 11102  1  0  0  0
 12 13  2  0  0  0
 12103  1  0  0  0
 13 14  1  0  0  0
 13 31  1  0  0  0
 14 15  2  0  0  0
 14104  1  0  0  0
 15105  1  0  0  0
 16 17  2  0  0  0
 16 21  1  0  0  0
 16 31  1  0  0  0
 17 18  1  0  0  0
 17106  1  0  0  0
 18 19  2  0  0  0
 18107  1  0  0  0
 19 20  1  0  0  0
 19 24  1  0  0  0
 20 21  2  0  0  0
 20108  1  0  0  0
 21 23  1  0  0  0
 22 28  1  0  0  0
 22 32  2  0  0  0
 26 27  1  0  0  0
 28109  1  0  0  0
 28110  1  0  0  0
 29111  1  0  0  0
 29112  1  0  0  0
 33 34  1  0  0  0
 33 66  1  0  0  0
 33 70  2  0  0  0
 34 36  1  0  0  0
 34 59  1  0  0  0
 34113  1  0  0  0
 35 44  2  0  0  0
 35 45  1  0  0  0
 35 68  1  0  0  0
 36 56  1  0  0  0
 36114  1  0  0  0
 37 39  1  0  0  0
 37 47  1  0  0  0
 37 66  1  0  0  0
 37115  1  0  0  0
 38 43  2  0  0  0
 38 46  1  0  0  0
 38 47  1  0  0  0
 39 64  1  0  0  0
 39 67  2  0  0  0
 40 52  1  0  0  0
 40 53  2  0  0  0
 40 58  1  0  0  0
 41116  1  0  0  0
 41117  1  0  0  0
 41118  1  0  0  0
 41 48  1  0  0  0
 42 43  1  0  0  0
 42 66  1  0  0  0
 42119  1  0  0  0
 42120  1  0  0  0
 43 44  1  0  0  0
 44121  1  0  0  0
 45 46  2  0  0  0
 45122  1  0  0  0
 46123  1  0  0  0
 47124  1  0  0  0
 47125  1  0  0  0
 48 56  1  0  0  0
 48 65  1  0  0  0
 48126  1  0  0  0
 49 50  1  0  0  0
 49 53  1  0  0  0
 49 64  1  0  0  0
 49127  1  0  0  0
 50 51  1  0  0  0
 50128  1  0  0  0
 50129  1  0  0  0
 51 52  1  0  0  0
 51130  1  0  0  0
 51131  1  0  0  0
 52132  1  0  0  0
 52133  1  0  0  0
 53 54  1  0  0  0
 54 55  2  0  0  0
 54134  1  0  0  0
 55 57  1  0  0  0
 55135  1  0  0  0
 56 69  2  0  0  0
 57 58  2  0  0  0
 57136  1  0  0  0
 58137  1  0  0  0
 59 60  1  0  0  0
 59 61  1  0  0  0
 59 62  1  0  0  0
 60138  1  0  0  0
 60139  1  0  0  0
 60140  1  0  0  0
 61141  1  0  0  0
 61142  1  0  0  0
 61143  1  0  0  0
 62144  1  0  0  0
 62145  1  0  0  0
 62146  1  0  0  0
 63 65  1  0  0  0
 63147  1  0  0  0
 63148  1  0  0  0
 63149  1  0  0  0
 64150  1  0  0  0
 65151  1  0  0  0
 68 88  1  0  0  0
 71 72  2  0  0  0
 71 74  1  0  0  0
 71152  1  0  0  0
 72 73  1  0  0  0
 72 80  1  0  0  0
 73 75  2  0  0  0
 73 81  1  0  0  0
 74 82  1  0  0  0
 74 91  2  0  0  0
 75 83  1  0  0  0
 75 91  1  0  0  0
 76 84  1  0  0  0
 76153  1  0  0  0
 76154  1  0  0  0
 76155  1  0  0  0
 77 85  1  0  0  0
 77156  1  0  0  0
 77157  1  0  0  0
 77158  1  0  0  0
 78159  1  0  0  0
 78160  1  0  0  0
 78161  1  0  0  0
 78 89  1  0  0  0
 79 89  1  0  0  0
 79162  1  0  0  0
 79163  1  0  0  0
 79164  1  0  0  0
 80 84  1  0  0  0
 80165  1  0  0  0
 80166  1  0  0  0
 81167  1  0  0  0
 81168  1  0  0  0
 81 90  1  0  0  0
 82 86  1  0  0  0
 82169  1  0  0  0
 82170  1  0  0  0
 83 87  1  0  0  0
 83171  1  0  0  0
 83172  1  0  0  0
 84173  1  0  0  0
 84174  1  0  0  0
 85 90  1  0  0  0
 85175  1  0  0  0
 85176  1  0  0  0
 86 88  1  0  0  0
 86177  1  0  0  0
 86178  1  0  0  0
 87 92  1  0  0  0
 87179  1  0  0  0
 87180  1  0  0  0
 88181  1  0  0  0
 88182  1  0  0  0
 89 90  1  0  0  0
 89183  1  0  0  0
 90184  1  0  0  0
 92185  1  0  0  0
M  ISO  4   1 100  68 101  88 101  92 100
M  END
> <chiral flag>
0

> <version>
0

> <s_m_source_file>
/data/baiqing/PycharmProjects/Reinvent-master-3.2/result/LINK_invent/BTK/process_docking_weight1_custom_sum_contain_oxygen_bond_distance_aromatic_linkinvent_7_9_3/rearranged_h_0084.sdf

> <i_m_source_file_index>
40

> <r_mmod_Potential_Energy-OPLS-2005>
-59.2846336364746

> <r_mmod_Stretch_Energy-OPLS-2005>
69.4873199462891

> <r_mmod_Bend_Energy-OPLS-2005>
147.889526367188

> <r_mmod_Torsional_Energy-OPLS-2005>
284.557983398438

> <r_mmod_Improper_Torsional_Energy-OPLS-2005>
7.1612868309021

> <r_mmod_Van_der_Waal_Energy-OPLS-2005>
127.078407287598

> <r_mmod_Electrostatic_Energy-OPLS-2005>
-525.395690917969

> <r_mmod_Solvation_Energy-OPLS-2005>
-201.493286132812

> <b_mmod_Minimization_Converged-OPLS-2005>
0

> <r_mmod_RMS_Derivative-OPLS-2005>
3.64996838569641

$$$$
40
                    3D
 Structure written by MMmdl.
162170  0  0  1  0            999 V2000
  -30.6865  -14.5043   20.5709 C   0  0  0  0  0  0
  -30.4219  -12.3320   19.4250 C   0  0  0  0  0  0
  -29.4999  -12.5461   18.2064 C   0  0  0  0  0  0
  -28.0129  -12.4288   18.5948 C   0  0  0  0  0  0
  -27.6601  -13.2277   19.8787 C   0  0  2  0  0  0
  -28.7029  -12.9995   20.9970 C   0  0  0  0  0  0
  -25.2530  -13.8182   20.5723 C   0  0  0  0  0  0
  -24.1850  -13.0464   20.9239 C   0  0  0  0  0  0
  -24.6436  -11.6943   20.8745 C   0  0  0  0  0  0
  -23.9096  -10.4312   21.0366 C   0  0  0  0  0  0
  -24.3609   -9.4208   21.9149 C   0  0  0  0  0  0
  -23.6285   -8.2235   22.0752 C   0  0  0  0  0  0
  -22.4248   -8.0302   21.3580 C   0  0  0  0  0  0
  -21.9897   -9.0242   20.4645 C   0  0  0  0  0  0
  -22.7247  -10.2132   20.3029 C   0  0  0  0  0  0
  -21.6856   -6.0734   22.5270 C   0  0  0  0  0  0
  -21.4034   -6.5636   23.8212 C   0  0  0  0  0  0
  -21.3663   -5.6800   24.9169 C   0  0  0  0  0  0
  -21.6037   -4.3058   24.7231 C   0  0  0  0  0  0
  -21.8813   -3.8150   23.4345 C   0  0  0  0  0  0
  -21.9194   -4.6959   22.3405 C   0  0  0  0  0  0
  -22.7820  -13.5185   21.1861 C   0  0  0  0  0  0
  -22.1654   -4.2161   21.0974 F   0  0  0  0  0  0
  -21.5616   -3.4532   25.7724 F   0  0  0  0  0  0
  -30.0300  -13.3163   20.4464 N   0  0  0  0  0  0
  -26.3024  -12.9441   20.3359 N   0  0  0  0  0  0
  -25.9408  -11.6580   20.5807 N   0  0  0  0  0  0
  -22.0511  -12.8190   22.0430 N   0  0  0  0  0  0
  -25.4160  -15.1935   20.4233 N   0  0  0  0  0  0
  -31.7841  -14.7109   20.0440 O   0  0  0  0  0  0
  -21.6653   -6.8883   21.4250 O   0  0  0  0  0  0
  -22.3453  -14.5450   20.6668 O   0  0  0  0  0  0
  -24.6326  -31.8774   23.2149 C   0  0  0  0  0  0
  -25.9211  -32.4863   23.8456 C   0  0  1  0  0  0
  -27.2227  -27.4268   20.0791 C   0  0  0  0  0  0
  -25.6014  -33.8647   24.2374 N   0  0  0  0  0  0
  -23.4373  -30.4972   21.5783 C   0  0  2  0  0  0
  -24.8536  -28.9711   20.1134 C   0  0  0  0  0  0
  -22.7778  -29.4755   22.5257 C   0  0  0  0  0  0
  -17.9888  -28.1197   22.9083 C   0  0  0  0  0  0
  -24.1482  -36.7353   23.2622 C   0  0  0  0  0  0
  -25.9499  -30.8376   21.3660 C   0  0  0  0  0  0
  -26.0208  -29.4705   20.7080 C   0  0  0  0  0  0
  -27.2124  -28.7075   20.6846 C   0  0  0  0  0  0
  -26.0427  -26.9562   19.4693 C   0  0  0  0  0  0
  -24.8613  -27.7162   19.4843 C   0  0  0  0  0  0
  -23.6232  -29.8443   20.1823 C   0  0  0  0  0  0
  -25.4102  -36.3144   24.0318 C   0  0  1  0  0  0
  -20.4782  -28.4548   22.7944 C   0  0  2  0  0  0
  -20.6800  -26.9550   22.5153 C   0  0  0  0  0  0
  -19.5222  -26.4848   21.6086 C   0  0  0  0  0  0
  -18.1528  -26.7386   22.2760 C   0  0  0  0  0  0
  -19.1122  -28.9063   23.2606 C   0  0  0  0  0  0
  -18.9372  -30.1704   23.8617 C   0  0  0  0  0  0
  -17.6441  -30.6780   24.0674 C   0  0  0  0  0  0
  -25.9079  -34.9511   23.5122 C   0  0  0  0  0  0
  -16.5197  -29.9137   23.7004 C   0  0  0  0  0  0
  -16.6912  -28.6357   23.1321 C   0  0  0  0  0  0
  -26.4545  -31.6621   25.0783 C   0  0  0  0  0  0
  -25.3760  -31.3743   26.1481 C   0  0  0  0  0  0
  -27.0326  -30.3053   24.6141 C   0  0  0  0  0  0
  -27.6080  -32.4300   25.7610 C   0  0  0  0  0  0
  -27.5573  -37.1834   24.8458 C   0  0  0  0  0  0
  -21.4542  -29.4470   22.4201 N   0  0  0  0  0  0
  -26.4292  -37.3818   23.9402 N   0  0  0  0  0  0
  -24.6951  -31.0832   22.1130 N   0  0  0  0  0  0
  -23.4309  -28.7482   23.2751 O   0  0  0  0  0  0
  -28.3569  -26.6475   20.0751 O   0  0  0  0  0  0
  -26.5574  -34.8943   22.4645 O   0  0  0  0  0  0
  -23.5472  -32.1502   23.7518 O   0  0  0  0  0  0
  -28.3961  -19.7293   19.6820 C   0  0  0  0  0  0
  -27.4135  -20.6945   19.5704 C   0  0  0  0  0  0
  -26.4091  -20.2345   20.4822 C   0  0  0  0  0  0
  -25.0858  -20.8227   20.8777 C   0  0  0  0  0  0
  -30.3572  -15.7386   22.5892 C   0  0  0  0  0  0
  -27.3691  -21.9345   18.6878 C   0  0  0  0  0  0
  -27.0976  -23.2834   19.4176 C   0  0  0  0  0  0
  -28.3670  -24.1403   19.6908 C   0  0  0  0  0  0
  -28.6206  -17.6339   21.2594 C   0  0  0  0  0  0
  -29.6227  -16.7532   20.4549 C   0  0  0  0  0  0
  -28.1925  -25.3419   20.6591 C   0  0  0  0  0  0
  -26.7466  -19.1035   21.0704 N   0  0  0  0  0  0
  -27.9666  -18.7773   20.5988 N   0  0  0  0  0  0
  -30.0053  -15.5071   21.1869 N   0  0  0  0  0  0
  -31.4672  -12.4403   19.1302 H   0  0  0  0  0  0
  -30.3145  -11.3198   19.8273 H   0  0  0  0  0  0
  -29.7441  -11.8240   17.4291 H   0  0  0  0  0  0
  -29.6953  -13.5333   17.7748 H   0  0  0  0  0  0
  -27.7682  -11.3794   18.7256 H   0  0  0  0  0  0
  -27.3874  -12.7931   17.7745 H   0  0  0  0  0  0
  -27.6917  -14.2808   19.6040 H   0  0  0  0  0  0
  -28.6801  -11.9689   21.3407 H   0  0  0  0  0  0
  -28.4589  -13.5917   21.8818 H   0  0  0  0  0  0
  -25.2766   -9.5671   22.4733 H   0  0  0  0  0  0
  -24.0008   -7.4605   22.7458 H   0  0  0  0  0  0
  -21.0824   -8.8742   19.8927 H   0  0  0  0  0  0
  -22.3680  -10.9654   19.6126 H   0  0  0  0  0  0
  -21.2058   -7.6155   23.9725 H   0  0  0  0  0  0
  -21.1480   -6.0524   25.9075 H   0  0  0  0  0  0
  -22.0598   -2.7619   23.2837 H   0  0  0  0  0  0
  -22.4129  -11.9850   22.4836 H   0  0  0  0  0  0
  -21.1124  -13.1212   22.2626 H   0  0  0  0  0  0
  -24.6478  -15.8428   20.5665 H   0  0  0  0  0  0
  -26.2740  -15.6557   20.1488 H   0  0  0  0  0  0
  -26.7272  -32.5597   23.1218 H   0  0  0  0  0  0
  -25.0134  -33.9798   25.0506 H   0  0  0  0  0  0
  -22.7287  -31.3116   21.4495 H   0  0  0  0  0  0
  -23.3738  -35.9696   23.3282 H   0  0  0  0  0  0
  -24.3567  -36.8987   22.2041 H   0  0  0  0  0  0
  -23.7279  -37.6559   23.6654 H   0  0  0  0  0  0
  -26.0525  -31.6080   20.6013 H   0  0  0  0  0  0
  -26.8427  -30.8976   21.9733 H   0  0  0  0  0  0
  -28.1178  -29.0921   21.1340 H   0  0  0  0  0  0
  -26.0356  -26.0064   18.9645 H   0  0  0  0  0  0
  -23.9705  -27.3413   19.0043 H   0  0  0  0  0  0
  -23.7270  -30.6312   19.4331 H   0  0  0  0  0  0
  -22.7383  -29.2727   19.8854 H   0  0  0  0  0  0
  -25.1291  -36.1951   25.0804 H   0  0  0  0  0  0
  -20.1514  -28.6953   21.7792 H   0  0  0  0  0  0
  -20.6702  -26.3808   23.4468 H   0  0  0  0  0  0
  -21.6360  -26.7610   22.0273 H   0  0  0  0  0  0
  -19.6149  -25.4262   21.3735 H   0  0  0  0  0  0
  -19.5737  -26.9951   20.6472 H   0  0  0  0  0  0
  -17.3395  -26.5647   21.5740 H   0  0  0  0  0  0
  -18.0220  -26.0101   23.0845 H   0  0  0  0  0  0
  -19.7960  -30.7825   24.1219 H   0  0  0  0  0  0
  -17.5082  -31.6664   24.4820 H   0  0  0  0  0  0
  -15.5231  -30.3044   23.8632 H   0  0  0  0  0  0
  -15.8184  -28.0541   22.8689 H   0  0  0  0  0  0
  -24.5926  -30.7106   25.7822 H   0  0  0  0  0  0
  -24.8958  -32.2904   26.4917 H   0  0  0  0  0  0
  -25.8061  -30.8915   27.0275 H   0  0  0  0  0  0
  -26.2876  -29.6868   24.1115 H   0  0  0  0  0  0
  -27.4013  -29.7203   25.4596 H   0  0  0  0  0  0
  -27.8758  -30.4355   23.9340 H   0  0  0  0  0  0
  -27.2684  -33.3580   26.2213 H   0  0  0  0  0  0
  -28.3936  -32.6888   25.0509 H   0  0  0  0  0  0
  -28.0696  -31.8404   26.5543 H   0  0  0  0  0  0
  -28.2601  -38.0119   24.7501 H   0  0  0  0  0  0
  -28.1050  -36.2663   24.6279 H   0  0  0  0  0  0
  -27.2282  -37.1490   25.8854 H   0  0  0  0  0  0
  -21.0672  -30.1891   21.8482 H   0  0  0  0  0  0
  -26.0162  -38.2877   24.1413 H   0  0  0  0  0  0
  -29.3648  -19.6600   19.2007 H   0  0  0  0  0  0
  -24.3890  -20.0581   21.2132 H   0  0  0  0  0  0
  -24.6211  -21.3487   20.0472 H   0  0  0  0  0  0
  -25.1941  -21.5098   21.7175 H   0  0  0  0  0  0
  -31.0200  -16.6043   22.6592 H   0  0  0  0  0  0
  -30.8672  -14.8996   23.0733 H   0  0  0  0  0  0
  -29.4515  -15.9284   23.1735 H   0  0  0  0  0  0
  -26.5898  -21.8009   17.9399 H   0  0  0  0  0  0
  -28.2765  -22.0228   18.0898 H   0  0  0  0  0  0
  -26.4319  -23.8714   18.7884 H   0  0  0  0  0  0
  -26.5243  -23.1324   20.3270 H   0  0  0  0  0  0
  -28.8052  -24.4776   18.7505 H   0  0  0  0  0  0
  -29.1171  -23.4769   20.1266 H   0  0  0  0  0  0
  -27.8262  -16.9790   21.6285 H   0  0  0  0  0  0
  -29.1267  -18.0376   22.1376 H   0  0  0  0  0  0
  -30.5066  -17.3377   20.2195 H   0  0  0  0  0  0
  -29.1626  -16.4886   19.5005 H   0  0  0  0  0  0
  -28.9793  -25.2733   21.4170 H   0  0  0  0  0  0
  -27.2528  -25.2511   21.2121 H   0  0  0  0  0  0
  1 25  1  0  0  0
  1 30  2  0  0  0
  1 84  1  0  0  0
  2  3  1  0  0  0
  2 25  1  0  0  0
  2 85  1  0  0  0
  2 86  1  0  0  0
  3  4  1  0  0  0
  3 87  1  0  0  0
  3 88  1  0  0  0
  4  5  1  0  0  0
  4 89  1  0  0  0
  4 90  1  0  0  0
  5  6  1  0  0  0
  5 26  1  0  0  0
  5 91  1  0  0  0
  6 25  1  0  0  0
  6 92  1  0  0  0
  6 93  1  0  0  0
  7  8  2  0  0  0
  7 26  1  0  0  0
  7 29  1  0  0  0
  8  9  1  0  0  0
  8 22  1  0  0  0
  9 10  1  0  0  0
  9 27  2  0  0  0
 10 11  2  0  0  0
 10 15  1  0  0  0
 11 12  1  0  0  0
 11 94  1  0  0  0
 12 13  2  0  0  0
 12 95  1  0  0  0
 13 14  1  0  0  0
 13 31  1  0  0  0
 14 15  2  0  0  0
 14 96  1  0  0  0
 15 97  1  0  0  0
 16 17  2  0  0  0
 16 21  1  0  0  0
 16 31  1  0  0  0
 17 18  1  0  0  0
 17 98  1  0  0  0
 18 19  2  0  0  0
 18 99  1  0  0  0
 19 20  1  0  0  0
 19 24  1  0  0  0
 20 21  2  0  0  0
 20100  1  0  0  0
 21 23  1  0  0  0
 22 28  1  0  0  0
 22 32  2  0  0  0
 26 27  1  0  0  0
 28101  1  0  0  0
 28102  1  0  0  0
 29103  1  0  0  0
 29104  1  0  0  0
 33 34  1  0  0  0
 33 66  1  0  0  0
 33 70  2  0  0  0
 34 36  1  0  0  0
 34 59  1  0  0  0
 34105  1  0  0  0
 35 44  2  0  0  0
 35 45  1  0  0  0
 35 68  1  0  0  0
 36 56  1  0  0  0
 36106  1  0  0  0
 37 39  1  0  0  0
 37 47  1  0  0  0
 37 66  1  0  0  0
 37107  1  0  0  0
 38 43  2  0  0  0
 38 46  1  0  0  0
 38 47  1  0  0  0
 39 64  1  0  0  0
 39 67  2  0  0  0
 40 52  1  0  0  0
 40 53  2  0  0  0
 40 58  1  0  0  0
 41108  1  0  0  0
 41109  1  0  0  0
 41110  1  0  0  0
 41 48  1  0  0  0
 42 43  1  0  0  0
 42 66  1  0  0  0
 42111  1  0  0  0
 42112  1  0  0  0
 43 44  1  0  0  0
 44113  1  0  0  0
 45 46  2  0  0  0
 45114  1  0  0  0
 46115  1  0  0  0
 47116  1  0  0  0
 47117  1  0  0  0
 48 56  1  0  0  0
 48 65  1  0  0  0
 48118  1  0  0  0
 49 50  1  0  0  0
 49 53  1  0  0  0
 49 64  1  0  0  0
 49119  1  0  0  0
 50 51  1  0  0  0
 50120  1  0  0  0
 50121  1  0  0  0
 51 52  1  0  0  0
 51122  1  0  0  0
 51123  1  0  0  0
 52124  1  0  0  0
 52125  1  0  0  0
 53 54  1  0  0  0
 54 55  2  0  0  0
 54126  1  0  0  0
 55 57  1  0  0  0
 55127  1  0  0  0
 56 69  2  0  0  0
 57 58  2  0  0  0
 57128  1  0  0  0
 58129  1  0  0  0
 59 60  1  0  0  0
 59 61  1  0  0  0
 59 62  1  0  0  0
 60130  1  0  0  0
 60131  1  0  0  0
 60132  1  0  0  0
 61133  1  0  0  0
 61134  1  0  0  0
 61135  1  0  0  0
 62136  1  0  0  0
 62137  1  0  0  0
 62138  1  0  0  0
 63 65  1  0  0  0
 63139  1  0  0  0
 63140  1  0  0  0
 63141  1  0  0  0
 64142  1  0  0  0
 65143  1  0  0  0
 68 81  1  0  0  0
 71 72  2  0  0  0
 71 83  1  0  0  0
 71144  1  0  0  0
 72 73  1  0  0  0
 72 76  1  0  0  0
 73 74  1  0  0  0
 73 82  2  0  0  0
 74145  1  0  0  0
 74146  1  0  0  0
 74147  1  0  0  0
 75 84  1  0  0  0
 75148  1  0  0  0
 75149  1  0  0  0
 75150  1  0  0  0
 76 77  1  0  0  0
 76151  1  0  0  0
 76152  1  0  0  0
 77 78  1  0  0  0
 77153  1  0  0  0
 77154  1  0  0  0
 78 81  1  0  0  0
 78155  1  0  0  0
 78156  1  0  0  0
 79 80  1  0  0  0
 79 83  1  0  0  0
 79157  1  0  0  0
 79158  1  0  0  0
 80 84  1  0  0  0
 80159  1  0  0  0
 80160  1  0  0  0
 81161  1  0  0  0
 81162  1  0  0  0
 82 83  1  0  0  0
M  ISO  4   1 100  68 101  81 101  84 100
M  END
> <chiral flag>
0

> <version>
0

> <s_m_source_file>
/data/baiqing/PycharmProjects/Reinvent-master-3.2/result/LINK_invent/BTK/process_docking_weight1_custom_sum_contain_oxygen_bond_distance_aromatic_linkinvent_7_9_3/rearranged_h_0084.sdf

> <i_m_source_file_index>
41

> <r_mmod_Potential_Energy-OPLS-2005>
253.599960327148

> <r_mmod_Stretch_Energy-OPLS-2005>
39.4383163452148

> <r_mmod_Bend_Energy-OPLS-2005>
217.673446655273

> <r_mmod_Torsional_Energy-OPLS-2005>
343.977996826172

> <r_mmod_Improper_Torsional_Energy-OPLS-2005>
7.83722448348999

> <r_mmod_Van_der_Waal_Energy-OPLS-2005>
129.702499389648

> <r_mmod_Electrostatic_Energy-OPLS-2005>
-316.262664794922

> <r_mmod_Solvation_Energy-OPLS-2005>
-205.376571655273

> <b_mmod_Minimization_Converged-OPLS-2005>
0

> <r_mmod_RMS_Derivative-OPLS-2005>
11.8545961380005

$$$$
41
                    3D
 Structure written by MMmdl.
172180  0  0  1  0            999 V2000
  -30.7674  -14.4233   20.6516 C   0  0  0  0  0  0
  -30.4133  -12.3144   19.4112 C   0  0  0  0  0  0
  -29.4881  -12.5138   18.1978 C   0  0  0  0  0  0
  -28.0125  -12.3690   18.6145 C   0  0  0  0  0  0
  -27.6597  -13.2130   19.8687 C   0  0  2  0  0  0
  -28.6994  -13.0032   20.9901 C   0  0  0  0  0  0
  -25.2584  -13.8175   20.5673 C   0  0  0  0  0  0
  -24.1845  -13.0442   20.9161 C   0  0  0  0  0  0
  -24.6408  -11.6913   20.8726 C   0  0  0  0  0  0
  -23.9075  -10.4294   21.0394 C   0  0  0  0  0  0
  -24.3618   -9.4209   21.9178 C   0  0  0  0  0  0
  -23.6287   -8.2249   22.0758 C   0  0  0  0  0  0
  -22.4266   -8.0290   21.3549 C   0  0  0  0  0  0
  -21.9907   -9.0264   20.4651 C   0  0  0  0  0  0
  -22.7244  -10.2134   20.3048 C   0  0  0  0  0  0
  -21.6857   -6.0739   22.5280 C   0  0  0  0  0  0
  -21.4017   -6.5643   23.8216 C   0  0  0  0  0  0
  -21.3654   -5.6793   24.9176 C   0  0  0  0  0  0
  -21.6040   -4.3057   24.7229 C   0  0  0  0  0  0
  -21.8819   -3.8149   23.4349 C   0  0  0  0  0  0
  -21.9191   -4.6969   22.3403 C   0  0  0  0  0  0
  -22.7860  -13.5239   21.1828 C   0  0  0  0  0  0
  -22.1663   -4.2151   21.0980 F   0  0  0  0  0  0
  -21.5622   -3.4539   25.7740 F   0  0  0  0  0  0
  -30.0321  -13.2988   20.4381 N   0  0  0  0  0  0
  -26.3021  -12.9357   20.3331 N   0  0  0  0  0  0
  -25.9330  -11.6511   20.5737 N   0  0  0  0  0  0
  -22.0498  -12.8237   22.0386 N   0  0  0  0  0  0
  -25.4326  -15.1894   20.4114 N   0  0  0  0  0  0
  -31.8577  -14.6084   20.1077 O   0  0  0  0  0  0
  -21.6638   -6.8882   21.4242 O   0  0  0  0  0  0
  -22.3546  -14.5543   20.6679 O   0  0  0  0  0  0
  -24.6142  -31.8682   23.2103 C   0  0  0  0  0  0
  -25.9031  -32.4825   23.8401 C   0  0  1  0  0  0
  -27.2342  -27.4427   20.1008 C   0  0  0  0  0  0
  -25.5888  -33.8625   24.2325 N   0  0  0  0  0  0
  -23.4014  -30.4908   21.5505 C   0  0  2  0  0  0
  -24.8474  -28.9534   20.1172 C   0  0  0  0  0  0
  -22.7401  -29.4667   22.5009 C   0  0  0  0  0  0
  -18.0267  -28.1375   22.8495 C   0  0  0  0  0  0
  -24.1489  -36.7324   23.2644 C   0  0  0  0  0  0
  -25.9283  -30.8381   21.3587 C   0  0  0  0  0  0
  -26.0064  -29.4718   20.7086 C   0  0  0  0  0  0
  -27.2057  -28.7257   20.6911 C   0  0  0  0  0  0
  -26.0615  -26.9325   19.5072 C   0  0  0  0  0  0
  -24.8697  -27.6830   19.5126 C   0  0  0  0  0  0
  -23.6089  -29.8193   20.1667 C   0  0  0  0  0  0
  -25.4107  -36.3118   24.0337 C   0  0  1  0  0  0
  -20.5855  -28.3664   23.1327 C   0  0  2  0  0  0
  -20.6758  -26.9401   22.5429 C   0  0  0  0  0  0
  -19.5743  -26.6383   21.5225 C   0  0  0  0  0  0
  -18.1914  -26.7924   22.1621 C   0  0  0  0  0  0
  -19.1514  -28.8833   23.2911 C   0  0  0  0  0  0
  -18.9447  -30.1441   23.8921 C   0  0  0  0  0  0
  -17.6451  -30.6584   24.0568 C   0  0  0  0  0  0
  -25.9033  -34.9481   23.5128 C   0  0  0  0  0  0
  -16.5344  -29.9088   23.6324 C   0  0  0  0  0  0
  -16.7257  -28.6502   23.0347 C   0  0  0  0  0  0
  -26.4454  -31.6605   25.0728 C   0  0  0  0  0  0
  -25.3719  -31.3709   26.1481 C   0  0  0  0  0  0
  -27.0285  -30.3054   24.6091 C   0  0  0  0  0  0
  -27.6046  -32.4326   25.7475 C   0  0  0  0  0  0
  -27.5576  -37.1816   24.8458 C   0  0  0  0  0  0
  -21.4130  -29.3032   22.3736 N   0  0  0  0  0  0
  -26.4290  -37.3807   23.9401 N   0  0  0  0  0  0
  -24.6664  -31.0799   22.0989 N   0  0  0  0  0  0
  -23.4174  -28.8213   23.3057 O   0  0  0  0  0  0
  -28.4018  -26.7154   20.0813 O   0  0  0  0  0  0
  -26.5615  -34.8932   22.4703 O   0  0  0  0  0  0
  -23.5336  -32.1408   23.7507 O   0  0  0  0  0  0
  -29.9609  -19.5775   20.5707 C   0  0  0  0  0  0
  -28.8030  -20.3669   20.8098 C   0  0  0  0  0  0
  -30.1034  -18.6235   21.5485 C   0  0  0  0  0  0
  -28.1991  -19.8238   21.9108 C   0  0  0  0  0  0
  -26.9295  -20.2431   22.5904 C   0  0  0  0  0  0
  -29.6184  -24.3311   18.8874 C   0  0  0  0  0  0
  -32.2140  -18.4191   22.8331 C   0  0  0  0  0  0
  -32.1594  -17.6205   20.5023 C   0  0  0  0  0  0
  -28.7186  -18.0256   23.6065 C   0  0  0  0  0  0
  -28.3681  -21.5784   19.9998 C   0  0  0  0  0  0
  -28.5874  -22.9190   20.7473 C   0  0  0  0  0  0
  -31.0705  -16.2552   22.3205 C   0  0  0  0  0  0
  -28.3813  -25.4702   20.7968 C   0  0  0  0  0  0
  -28.4551  -24.2105   19.8903 C   0  0  1  0  0  0
  -31.3154  -17.7159   21.7922 C   0  0  0  0  0  0
  -29.0006  -18.7844   22.3943 N   0  0  0  0  0  0
  -30.2635  -15.3177   21.5206 N   0  0  0  0  0  0
  -31.4581  -12.4023   19.1082 H   0  0  0  0  0  0
  -30.3097  -11.3043   19.8101 H   0  0  0  0  0  0
  -29.7304  -11.7906   17.4186 H   0  0  0  0  0  0
  -29.6572  -13.5002   17.7628 H   0  0  0  0  0  0
  -27.8278  -11.3131   18.8160 H   0  0  0  0  0  0
  -27.3589  -12.6370   17.7836 H   0  0  0  0  0  0
  -27.7028  -14.2603   19.5673 H   0  0  0  0  0  0
  -28.6742  -11.9701   21.3401 H   0  0  0  0  0  0
  -28.4495  -13.6102   21.8606 H   0  0  0  0  0  0
  -25.2766   -9.5685   22.4747 H   0  0  0  0  0  0
  -23.9998   -7.4644   22.7481 H   0  0  0  0  0  0
  -21.0838   -8.8786   19.8957 H   0  0  0  0  0  0
  -22.3715  -10.9669   19.6153 H   0  0  0  0  0  0
  -21.2014   -7.6153   23.9722 H   0  0  0  0  0  0
  -21.1469   -6.0523   25.9080 H   0  0  0  0  0  0
  -22.0599   -2.7614   23.2850 H   0  0  0  0  0  0
  -22.4101  -11.9903   22.4793 H   0  0  0  0  0  0
  -21.1111  -13.1271   22.2556 H   0  0  0  0  0  0
  -24.6730  -15.8506   20.5285 H   0  0  0  0  0  0
  -26.2962  -15.6285   20.1160 H   0  0  0  0  0  0
  -26.7104  -32.5539   23.1177 H   0  0  0  0  0  0
  -25.0036  -33.9795   25.0467 H   0  0  0  0  0  0
  -22.6909  -31.3079   21.4092 H   0  0  0  0  0  0
  -23.3751  -35.9660   23.3316 H   0  0  0  0  0  0
  -24.3591  -36.8934   22.2059 H   0  0  0  0  0  0
  -23.7247  -37.6532   23.6656 H   0  0  0  0  0  0
  -26.0371  -31.6033   20.5880 H   0  0  0  0  0  0
  -26.8181  -30.8941   21.9740 H   0  0  0  0  0  0
  -28.1045  -29.1252   21.1392 H   0  0  0  0  0  0
  -26.0705  -25.9609   19.0346 H   0  0  0  0  0  0
  -23.9777  -27.2802   19.0536 H   0  0  0  0  0  0
  -23.7137  -30.5912   19.4043 H   0  0  0  0  0  0
  -22.7331  -29.2369   19.8744 H   0  0  0  0  0  0
  -25.1286  -36.1991   25.0831 H   0  0  0  0  0  0
  -20.9940  -28.3227   24.1453 H   0  0  0  0  0  0
  -20.5680  -26.2267   23.3614 H   0  0  0  0  0  0
  -21.6623  -26.7468   22.1207 H   0  0  0  0  0  0
  -19.6918  -25.6305   21.1230 H   0  0  0  0  0  0
  -19.6678  -27.3208   20.6773 H   0  0  0  0  0  0
  -17.4189  -26.6688   21.4012 H   0  0  0  0  0  0
  -18.0303  -26.0060   22.9007 H   0  0  0  0  0  0
  -19.7933  -30.7247   24.2292 H   0  0  0  0  0  0
  -17.5013  -31.6265   24.5170 H   0  0  0  0  0  0
  -15.5345  -30.3000   23.7641 H   0  0  0  0  0  0
  -15.8654  -28.0834   22.7051 H   0  0  0  0  0  0
  -24.5887  -30.7061   25.7814 H   0  0  0  0  0  0
  -24.8912  -32.2865   26.4942 H   0  0  0  0  0  0
  -25.8060  -30.8863   27.0238 H   0  0  0  0  0  0
  -26.2821  -29.6828   24.1139 H   0  0  0  0  0  0
  -27.4060  -29.7276   25.4540 H   0  0  0  0  0  0
  -27.8651  -30.4386   23.9227 H   0  0  0  0  0  0
  -27.2677  -33.3631   26.2063 H   0  0  0  0  0  0
  -28.3831  -32.6887   25.0272 H   0  0  0  0  0  0
  -28.0736  -31.8441   26.5372 H   0  0  0  0  0  0
  -28.2603  -38.0106   24.7511 H   0  0  0  0  0  0
  -28.1057  -36.2640   24.6266 H   0  0  0  0  0  0
  -27.2293  -37.1448   25.8863 H   0  0  0  0  0  0
  -20.9286  -29.8756   21.6959 H   0  0  0  0  0  0
  -26.0179  -38.2888   24.1404 H   0  0  0  0  0  0
  -30.6707  -19.7561   19.7748 H   0  0  0  0  0  0
  -26.3369  -20.8982   21.9529 H   0  0  0  0  0  0
  -27.1437  -20.7871   23.5104 H   0  0  0  0  0  0
  -26.3026  -19.3858   22.8359 H   0  0  0  0  0  0
  -29.6341  -23.5021   18.1802 H   0  0  0  0  0  0
  -30.5818  -24.3491   19.3994 H   0  0  0  0  0  0
  -29.5428  -25.2445   18.2972 H   0  0  0  0  0  0
  -32.4866  -19.4236   22.5068 H   0  0  0  0  0  0
  -33.1428  -17.8734   23.0034 H   0  0  0  0  0  0
  -31.7237  -18.5245   23.8001 H   0  0  0  0  0  0
  -32.5485  -18.5906   20.1912 H   0  0  0  0  0  0
  -31.5739  -17.2218   19.6735 H   0  0  0  0  0  0
  -33.0253  -16.9721   20.6390 H   0  0  0  0  0  0
  -29.6016  -17.9647   24.2384 H   0  0  0  0  0  0
  -28.3778  -17.0244   23.3443 H   0  0  0  0  0  0
  -27.9476  -18.5035   24.2076 H   0  0  0  0  0  0
  -27.3189  -21.4692   19.7216 H   0  0  0  0  0  0
  -28.9312  -21.5662   19.0671 H   0  0  0  0  0  0
  -29.5779  -22.9116   21.2046 H   0  0  0  0  0  0
  -27.8848  -22.9612   21.5800 H   0  0  0  0  0  0
  -30.6408  -16.2677   23.3188 H   0  0  0  0  0  0
  -32.0446  -15.7887   22.4825 H   0  0  0  0  0  0
  -29.2460  -25.4800   21.4616 H   0  0  0  0  0  0
  -27.5101  -25.4068   21.4521 H   0  0  0  0  0  0
  -27.5245  -24.1509   19.3267 H   0  0  0  0  0  0
  -29.3296  -15.1327   21.8542 H   0  0  0  0  0  0
  1 25  1  0  0  0
  1 30  2  0  0  0
  1 87  1  0  0  0
  2  3  1  0  0  0
  2 25  1  0  0  0
  2 88  1  0  0  0
  2 89  1  0  0  0
  3  4  1  0  0  0
  3 90  1  0  0  0
  3 91  1  0  0  0
  4  5  1  0  0  0
  4 92  1  0  0  0
  4 93  1  0  0  0
  5  6  1  0  0  0
  5 26  1  0  0  0
  5 94  1  0  0  0
  6 25  1  0  0  0
  6 95  1  0  0  0
  6 96  1  0  0  0
  7  8  2  0  0  0
  7 26  1  0  0  0
  7 29  1  0  0  0
  8  9  1  0  0  0
  8 22  1  0  0  0
  9 10  1  0  0  0
  9 27  2  0  0  0
 10 11  2  0  0  0
 10 15  1  0  0  0
 11 12  1  0  0  0
 11 97  1  0  0  0
 12 13  2  0  0  0
 12 98  1  0  0  0
 13 14  1  0  0  0
 13 31  1  0  0  0
 14 15  2  0  0  0
 14 99  1  0  0  0
 15100  1  0  0  0
 16 17  2  0  0  0
 16 21  1  0  0  0
 16 31  1  0  0  0
 17 18  1  0  0  0
 17101  1  0  0  0
 18 19  2  0  0  0
 18102  1  0  0  0
 19 20  1  0  0  0
 19 24  1  0  0  0
 20 21  2  0  0  0
 20103  1  0  0  0
 21 23  1  0  0  0
 22 28  1  0  0  0
 22 32  2  0  0  0
 26 27  1  0  0  0
 28104  1  0  0  0
 28105  1  0  0  0
 29106  1  0  0  0
 29107  1  0  0  0
 33 34  1  0  0  0
 33 66  1  0  0  0
 33 70  2  0  0  0
 34 36  1  0  0  0
 34 59  1  0  0  0
 34108  1  0  0  0
 35 44  2  0  0  0
 35 45  1  0  0  0
 35 68  1  0  0  0
 36 56  1  0  0  0
 36109  1  0  0  0
 37 39  1  0  0  0
 37 47  1  0  0  0
 37 66  1  0  0  0
 37110  1  0  0  0
 38 43  2  0  0  0
 38 46  1  0  0  0
 38 47  1  0  0  0
 39 64  1  0  0  0
 39 67  2  0  0  0
 40 52  1  0  0  0
 40 53  2  0  0  0
 40 58  1  0  0  0
 41111  1  0  0  0
 41112  1  0  0  0
 41113  1  0  0  0
 41 48  1  0  0  0
 42 43  1  0  0  0
 42 66  1  0  0  0
 42114  1  0  0  0
 42115  1  0  0  0
 43 44  1  0  0  0
 44116  1  0  0  0
 45 46  2  0  0  0
 45117  1  0  0  0
 46118  1  0  0  0
 47119  1  0  0  0
 47120  1  0  0  0
 48 56  1  0  0  0
 48 65  1  0  0  0
 48121  1  0  0  0
 49 50  1  0  0  0
 49 53  1  0  0  0
 49 64  1  0  0  0
 49122  1  0  0  0
 50 51  1  0  0  0
 50123  1  0  0  0
 50124  1  0  0  0
 51 52  1  0  0  0
 51125  1  0  0  0
 51126  1  0  0  0
 52127  1  0  0  0
 52128  1  0  0  0
 53 54  1  0  0  0
 54 55  2  0  0  0
 54129  1  0  0  0
 55 57  1  0  0  0
 55130  1  0  0  0
 56 69  2  0  0  0
 57 58  2  0  0  0
 57131  1  0  0  0
 58132  1  0  0  0
 59 60  1  0  0  0
 59 61  1  0  0  0
 59 62  1  0  0  0
 60133  1  0  0  0
 60134  1  0  0  0
 60135  1  0  0  0
 61136  1  0  0  0
 61137  1  0  0  0
 61138  1  0  0  0
 62139  1  0  0  0
 62140  1  0  0  0
 62141  1  0  0  0
 63 65  1  0  0  0
 63142  1  0  0  0
 63143  1  0  0  0
 63144  1  0  0  0
 64145  1  0  0  0
 65146  1  0  0  0
 68 83  1  0  0  0
 71 72  1  0  0  0
 71 73  2  0  0  0
 71147  1  0  0  0
 72 74  2  0  0  0
 72 80  1  0  0  0
 73 85  1  0  0  0
 73 86  1  0  0  0
 74 75  1  0  0  0
 74 86  1  0  0  0
 75148  1  0  0  0
 75149  1  0  0  0
 75150  1  0  0  0
 76151  1  0  0  0
 76152  1  0  0  0
 76153  1  0  0  0
 76 84  1  0  0  0
 77154  1  0  0  0
 77155  1  0  0  0
 77156  1  0  0  0
 77 85  1  0  0  0
 78 85  1  0  0  0
 78157  1  0  0  0
 78158  1  0  0  0
 78159  1  0  0  0
 79 86  1  0  0  0
 79160  1  0  0  0
 79161  1  0  0  0
 79162  1  0  0  0
 80 81  1  0  0  0
 80163  1  0  0  0
 80164  1  0  0  0
 81 84  1  0  0  0
 81165  1  0  0  0
 81166  1  0  0  0
 82 85  1  0  0  0
 82 87  1  0  0  0
 82167  1  0  0  0
 82168  1  0  0  0
 83 84  1  0  0  0
 83169  1  0  0  0
 83170  1  0  0  0
 84171  1  0  0  0
 87172  1  0  0  0
M  ISO  4   1 100  68 101  83 101  87 100
M  END
> <chiral flag>
0

> <version>
0

> <s_m_source_file>
/data/baiqing/PycharmProjects/Reinvent-master-3.2/result/LINK_invent/BTK/process_docking_weight1_custom_sum_contain_oxygen_bond_distance_aromatic_linkinvent_7_9_3/rearranged_h_0084.sdf

> <i_m_source_file_index>
42

> <r_mmod_Potential_Energy-OPLS-2005>
-120.310066223145

> <r_mmod_Stretch_Energy-OPLS-2005>
40.4672584533691

> <r_mmod_Bend_Energy-OPLS-2005>
123.577827453613

> <r_mmod_Torsional_Energy-OPLS-2005>
246.791366577148

> <r_mmod_Improper_Torsional_Energy-OPLS-2005>
3.38677334785461

> <r_mmod_Van_der_Waal_Energy-OPLS-2005>
131.320663452148

> <r_mmod_Electrostatic_Energy-OPLS-2005>
-480.698028564453

> <r_mmod_Solvation_Energy-OPLS-2005>
-195.67431640625

> <b_mmod_Minimization_Converged-OPLS-2005>
0

> <r_mmod_RMS_Derivative-OPLS-2005>
1.72394251823425

$$$$
42
                    3D
 Structure written by MMmdl.
160168  0  0  1  0            999 V2000
  -30.6010  -14.9173   20.4818 C   0  0  0  0  0  0
  -30.4518  -12.6097   19.4816 C   0  0  0  0  0  0
  -29.5191  -12.5157   18.2521 C   0  0  0  0  0  0
  -28.0478  -12.3490   18.6612 C   0  0  0  0  0  0
  -27.6430  -13.2450   19.8565 C   0  0  2  0  0  0
  -28.6903  -13.2729   20.9863 C   0  0  0  0  0  0
  -25.2510  -13.8071   20.5775 C   0  0  0  0  0  0
  -24.1841  -13.0379   20.9315 C   0  0  0  0  0  0
  -24.6488  -11.6852   20.8914 C   0  0  0  0  0  0
  -23.9095  -10.4254   21.0403 C   0  0  0  0  0  0
  -24.3694   -9.4166   21.9098 C   0  0  0  0  0  0
  -23.6333   -8.2251   22.0706 C   0  0  0  0  0  0
  -22.4284   -8.0335   21.3574 C   0  0  0  0  0  0
  -21.9875   -9.0327   20.4719 C   0  0  0  0  0  0
  -22.7218  -10.2195   20.3065 C   0  0  0  0  0  0
  -21.6874   -6.0727   22.5266 C   0  0  0  0  0  0
  -21.3978   -6.5649   23.8189 C   0  0  0  0  0  0
  -21.3672   -5.6796   24.9162 C   0  0  0  0  0  0
  -21.6063   -4.3065   24.7187 C   0  0  0  0  0  0
  -21.8823   -3.8177   23.4348 C   0  0  0  0  0  0
  -21.9220   -4.6960   22.3385 C   0  0  0  0  0  0
  -22.7837  -13.5166   21.1795 C   0  0  0  0  0  0
  -22.1661   -4.2142   21.0944 F   0  0  0  0  0  0
  -21.5685   -3.4587   25.7719 F   0  0  0  0  0  0
  -29.9699  -13.6831   20.3895 N   0  0  0  0  0  0
  -26.3015  -12.9343   20.3446 N   0  0  0  0  0  0
  -25.9487  -11.6503   20.6068 N   0  0  0  0  0  0
  -22.0446  -12.8150   22.0339 N   0  0  0  0  0  0
  -25.4192  -15.1783   20.3885 N   0  0  0  0  0  0
  -31.7917  -14.9874   20.1470 O   0  0  0  0  0  0
  -21.6689   -6.8920   21.4233 O   0  0  0  0  0  0
  -22.3580  -14.5599   20.6707 O   0  0  0  0  0  0
  -24.6492  -31.8424   23.1853 C   0  0  0  0  0  0
  -25.9220  -32.4718   23.8279 C   0  0  1  0  0  0
  -27.1853  -27.0463   20.2133 C   0  0  0  0  0  0
  -25.5944  -33.8517   24.2208 N   0  0  0  0  0  0
  -23.4578  -30.4617   21.5261 C   0  0  2  0  0  0
  -24.9101  -28.8931   20.0898 C   0  0  0  0  0  0
  -22.7592  -29.4541   22.4764 C   0  0  0  0  0  0
  -18.0329  -28.1416   22.8472 C   0  0  0  0  0  0
  -24.1508  -36.7279   23.2636 C   0  0  0  0  0  0
  -26.0142  -30.6942   21.3946 C   0  0  0  0  0  0
  -26.0807  -29.2928   20.7466 C   0  0  0  0  0  0
  -27.2162  -28.3882   20.7859 C   0  0  0  0  0  0
  -25.9993  -26.7776   19.4848 C   0  0  0  0  0  0
  -24.8898  -27.6514   19.4399 C   0  0  0  0  0  0
  -23.6874  -29.8017   20.1378 C   0  0  0  0  0  0
  -25.4119  -36.3034   24.0330 C   0  0  1  0  0  0
  -20.5948  -28.3746   23.1213 C   0  0  2  0  0  0
  -20.6807  -26.9435   22.5412 C   0  0  0  0  0  0
  -19.5782  -26.6392   21.5226 C   0  0  0  0  0  0
  -18.1951  -26.7954   22.1620 C   0  0  0  0  0  0
  -19.1586  -28.8902   23.2836 C   0  0  0  0  0  0
  -18.9481  -30.1491   23.8872 C   0  0  0  0  0  0
  -17.6469  -30.6586   24.0572 C   0  0  0  0  0  0
  -25.9049  -34.9419   23.5072 C   0  0  0  0  0  0
  -16.5368  -29.9087   23.6325 C   0  0  0  0  0  0
  -16.7310  -28.6520   23.0332 C   0  0  0  0  0  0
  -26.4542  -31.6578   25.0717 C   0  0  0  0  0  0
  -25.3684  -31.3788   26.1375 C   0  0  0  0  0  0
  -27.0423  -30.2965   24.6334 C   0  0  0  0  0  0
  -27.6071  -32.4338   25.7510 C   0  0  0  0  0  0
  -27.5569  -37.1816   24.8458 C   0  0  0  0  0  0
  -21.4268  -29.3066   22.3556 N   0  0  0  0  0  0
  -26.4292  -37.3733   23.9381 N   0  0  0  0  0  0
  -24.7277  -31.0225   22.0909 N   0  0  0  0  0  0
  -23.4221  -28.8080   23.2914 O   0  0  0  0  0  0
  -28.1900  -26.0013   20.4075 O   0  0  0  0  0  0
  -26.5618  -34.8936   22.4645 O   0  0  0  0  0  0
  -23.5589  -32.1360   23.7018 O   0  0  0  0  0  0
  -27.4840  -22.7567   21.9779 C   0  0  0  0  0  0
  -28.4352  -23.0826   20.9540 C   0  0  0  0  0  0
  -26.4240  -21.8811   21.5806 C   0  0  0  0  0  0
  -28.6994  -21.7697   20.2829 C   0  0  0  0  0  0
  -25.2207  -21.4906   22.4318 C   0  0  0  0  0  0
  -27.3068  -22.1610   24.5516 C   0  0  0  0  0  0
  -27.7310  -23.1671   23.4368 C   0  0  0  0  0  0
  -27.9958  -24.4565   20.0777 C   0  0  0  0  0  0
  -29.7004  -20.5311   20.7258 C   0  0  0  0  0  0
  -29.2773  -18.8990   20.6977 C   0  0  0  0  0  0
  -30.3267  -17.6047   20.7997 C   0  0  0  0  0  0
  -26.4624  -21.2549   20.3780 N   0  0  0  0  0  0
  -27.6161  -21.1961   19.7066 N   0  0  0  0  0  0
  -29.8781  -16.1012   20.7445 N   0  0  0  0  0  0
  -31.4712  -12.7977   19.1329 H   0  0  0  0  0  0
  -30.4705  -11.6782   20.0480 H   0  0  0  0  0  0
  -29.8212  -11.6732   17.6310 H   0  0  0  0  0  0
  -29.6074  -13.4065   17.6196 H   0  0  0  0  0  0
  -27.8984  -11.2994   18.9182 H   0  0  0  0  0  0
  -27.4113  -12.5611   17.7976 H   0  0  0  0  0  0
  -27.6113  -14.2570   19.4498 H   0  0  0  0  0  0
  -28.7877  -12.2983   21.4732 H   0  0  0  0  0  0
  -28.3830  -13.9616   21.7680 H   0  0  0  0  0  0
  -25.2922   -9.5598   22.4514 H   0  0  0  0  0  0
  -24.0156   -7.4570   22.7280 H   0  0  0  0  0  0
  -21.0823   -8.8835   19.9042 H   0  0  0  0  0  0
  -22.3646  -10.9717   19.6255 H   0  0  0  0  0  0
  -21.1863   -7.6148   23.9692 H   0  0  0  0  0  0
  -21.1498   -6.0508   25.9054 H   0  0  0  0  0  0
  -22.0618   -2.7641   23.2796 H   0  0  0  0  0  0
  -22.4100  -11.9798   22.4678 H   0  0  0  0  0  0
  -21.1019  -13.1058   22.2354 H   0  0  0  0  0  0
  -24.6652  -15.8517   20.4618 H   0  0  0  0  0  0
  -26.2740  -15.5969   20.0529 H   0  0  0  0  0  0
  -26.7279  -32.5385   23.1013 H   0  0  0  0  0  0
  -25.0132  -33.9621   25.0383 H   0  0  0  0  0  0
  -22.7599  -31.2866   21.3704 H   0  0  0  0  0  0
  -23.3749  -35.9644   23.3373 H   0  0  0  0  0  0
  -24.3563  -36.8825   22.2026 H   0  0  0  0  0  0
  -23.7339  -37.6540   23.6620 H   0  0  0  0  0  0
  -26.1561  -31.4375   20.6067 H   0  0  0  0  0  0
  -26.8845  -30.7573   22.0387 H   0  0  0  0  0  0
  -28.0951  -28.6647   21.3521 H   0  0  0  0  0  0
  -25.8493  -25.8368   18.9822 H   0  0  0  0  0  0
  -23.9982  -27.3382   18.9106 H   0  0  0  0  0  0
  -23.8334  -30.5777   19.3863 H   0  0  0  0  0  0
  -22.8006  -29.2504   19.8198 H   0  0  0  0  0  0
  -25.1338  -36.1873   25.0832 H   0  0  0  0  0  0
  -21.0065  -28.3355   24.1331 H   0  0  0  0  0  0
  -20.5700  -26.2354   23.3640 H   0  0  0  0  0  0
  -21.6665  -26.7428   22.1216 H   0  0  0  0  0  0
  -19.6921  -25.6297   21.1268 H   0  0  0  0  0  0
  -19.6718  -27.3195   20.6753 H   0  0  0  0  0  0
  -17.4232  -26.6736   21.4007 H   0  0  0  0  0  0
  -18.0300  -26.0100   22.9016 H   0  0  0  0  0  0
  -19.7943  -30.7336   24.2215 H   0  0  0  0  0  0
  -17.5010  -31.6251   24.5206 H   0  0  0  0  0  0
  -15.5362  -30.2973   23.7676 H   0  0  0  0  0  0
  -15.8709  -28.0846   22.7025 H   0  0  0  0  0  0
  -24.5935  -30.7054   25.7711 H   0  0  0  0  0  0
  -24.8805  -32.2968   26.4647 H   0  0  0  0  0  0
  -25.7941  -30.9097   27.0247 H   0  0  0  0  0  0
  -26.3068  -29.6662   24.1335 H   0  0  0  0  0  0
  -27.3988  -29.7299   25.4950 H   0  0  0  0  0  0
  -27.8993  -30.4205   23.9706 H   0  0  0  0  0  0
  -27.2668  -33.3661   26.2039 H   0  0  0  0  0  0
  -28.3918  -32.6855   25.0351 H   0  0  0  0  0  0
  -28.0699  -31.8481   26.5470 H   0  0  0  0  0  0
  -28.2628  -38.0064   24.7429 H   0  0  0  0  0  0
  -28.1024  -36.2605   24.6396 H   0  0  0  0  0  0
  -27.2271  -37.1593   25.8853 H   0  0  0  0  0  0
  -20.9456  -29.8780   21.6753 H   0  0  0  0  0  0
  -26.0186  -38.2837   24.1294 H   0  0  0  0  0  0
  -24.7822  -22.3603   22.9086 H   0  0  0  0  0  0
  -25.4983  -20.7611   23.1886 H   0  0  0  0  0  0
  -24.4399  -21.0046   21.8450 H   0  0  0  0  0  0
  -27.7568  -22.4331   25.5038 H   0  0  0  0  0  0
  -27.6217  -21.1374   24.3446 H   0  0  0  0  0  0
  -26.2314  -22.1445   24.7433 H   0  0  0  0  0  0
  -27.2967  -24.1436   23.6368 H   0  0  0  0  0  0
  -28.8067  -23.2838   23.5288 H   0  0  0  0  0  0
  -28.4175  -24.3112   19.0813 H   0  0  0  0  0  0
  -26.9311  -24.3070   19.9437 H   0  0  0  0  0  0
  -30.0626  -20.7719   21.7296 H   0  0  0  0  0  0
  -30.5832  -20.6293   20.0951 H   0  0  0  0  0  0
  -28.7041  -18.7221   19.7857 H   0  0  0  0  0  0
  -28.5599  -18.7759   21.5118 H   0  0  0  0  0  0
  -31.0968  -17.7252   20.0396 H   0  0  0  0  0  0
  -30.8609  -17.7120   21.7414 H   0  0  0  0  0  0
  -28.9099  -15.9539   20.9790 H   0  0  0  0  0  0
  1 25  1  0  0  0
  1 30  2  0  0  0
  1 84  1  0  0  0
  2  3  1  0  0  0
  2 25  1  0  0  0
  2 85  1  0  0  0
  2 86  1  0  0  0
  3  4  1  0  0  0
  3 87  1  0  0  0
  3 88  1  0  0  0
  4  5  1  0  0  0
  4 89  1  0  0  0
  4 90  1  0  0  0
  5  6  1  0  0  0
  5 26  1  0  0  0
  5 91  1  0  0  0
  6 25  1  0  0  0
  6 92  1  0  0  0
  6 93  1  0  0  0
  7  8  2  0  0  0
  7 26  1  0  0  0
  7 29  1  0  0  0
  8  9  1  0  0  0
  8 22  1  0  0  0
  9 10  1  0  0  0
  9 27  2  0  0  0
 10 11  2  0  0  0
 10 15  1  0  0  0
 11 12  1  0  0  0
 11 94  1  0  0  0
 12 13  2  0  0  0
 12 95  1  0  0  0
 13 14  1  0  0  0
 13 31  1  0  0  0
 14 15  2  0  0  0
 14 96  1  0  0  0
 15 97  1  0  0  0
 16 17  2  0  0  0
 16 21  1  0  0  0
 16 31  1  0  0  0
 17 18  1  0  0  0
 17 98  1  0  0  0
 18 19  2  0  0  0
 18 99  1  0  0  0
 19 20  1  0  0  0
 19 24  1  0  0  0
 20 21  2  0  0  0
 20100  1  0  0  0
 21 23  1  0  0  0
 22 28  1  0  0  0
 22 32  2  0  0  0
 26 27  1  0  0  0
 28101  1  0  0  0
 28102  1  0  0  0
 29103  1  0  0  0
 29104  1  0  0  0
 33 34  1  0  0  0
 33 66  1  0  0  0
 33 70  2  0  0  0
 34 36  1  0  0  0
 34 59  1  0  0  0
 34105  1  0  0  0
 35 44  2  0  0  0
 35 45  1  0  0  0
 35 68  1  0  0  0
 36 56  1  0  0  0
 36106  1  0  0  0
 37 39  1  0  0  0
 37 47  1  0  0  0
 37 66  1  0  0  0
 37107  1  0  0  0
 38 43  2  0  0  0
 38 46  1  0  0  0
 38 47  1  0  0  0
 39 64  1  0  0  0
 39 67  2  0  0  0
 40 52  1  0  0  0
 40 53  2  0  0  0
 40 58  1  0  0  0
 41108  1  0  0  0
 41109  1  0  0  0
 41110  1  0  0  0
 41 48  1  0  0  0
 42 43  1  0  0  0
 42 66  1  0  0  0
 42111  1  0  0  0
 42112  1  0  0  0
 43 44  1  0  0  0
 44113  1  0  0  0
 45 46  2  0  0  0
 45114  1  0  0  0
 46115  1  0  0  0
 47116  1  0  0  0
 47117  1  0  0  0
 48 56  1  0  0  0
 48 65  1  0  0  0
 48118  1  0  0  0
 49 50  1  0  0  0
 49 53  1  0  0  0
 49 64  1  0  0  0
 49119  1  0  0  0
 50 51  1  0  0  0
 50120  1  0  0  0
 50121  1  0  0  0
 51 52  1  0  0  0
 51122  1  0  0  0
 51123  1  0  0  0
 52124  1  0  0  0
 52125  1  0  0  0
 53 54  1  0  0  0
 54 55  2  0  0  0
 54126  1  0  0  0
 55 57  1  0  0  0
 55127  1  0  0  0
 56 69  2  0  0  0
 57 58  2  0  0  0
 57128  1  0  0  0
 58129  1  0  0  0
 59 60  1  0  0  0
 59 61  1  0  0  0
 59 62  1  0  0  0
 60130  1  0  0  0
 60131  1  0  0  0
 60132  1  0  0  0
 61133  1  0  0  0
 61134  1  0  0  0
 61135  1  0  0  0
 62136  1  0  0  0
 62137  1  0  0  0
 62138  1  0  0  0
 63 65  1  0  0  0
 63139  1  0  0  0
 63140  1  0  0  0
 63141  1  0  0  0
 64142  1  0  0  0
 65143  1  0  0  0
 68 78  1  0  0  0
 71 72  2  0  0  0
 71 73  1  0  0  0
 71 77  1  0  0  0
 72 74  1  0  0  0
 72 78  1  0  0  0
 73 75  1  0  0  0
 73 82  2  0  0  0
 74 79  1  0  0  0
 74 83  2  0  0  0
 75144  1  0  0  0
 75145  1  0  0  0
 75146  1  0  0  0
 76 77  1  0  0  0
 76147  1  0  0  0
 76148  1  0  0  0
 76149  1  0  0  0
 77150  1  0  0  0
 77151  1  0  0  0
 78152  1  0  0  0
 78153  1  0  0  0
 79 80  1  0  0  0
 79154  1  0  0  0
 79155  1  0  0  0
 80 81  1  0  0  0
 80156  1  0  0  0
 80157  1  0  0  0
 81 84  1  0  0  0
 81158  1  0  0  0
 81159  1  0  0  0
 82 83  1  0  0  0
 84160  1  0  0  0
M  ISO  4   1 100  68 101  78 101  84 100
M  END
> <chiral flag>
0

> <version>
0

> <s_m_source_file>
/data/baiqing/PycharmProjects/Reinvent-master-3.2/result/LINK_invent/BTK/process_docking_weight1_custom_sum_contain_oxygen_bond_distance_aromatic_linkinvent_7_9_3/rearranged_h_0084.sdf

> <i_m_source_file_index>
43

> <r_mmod_Potential_Energy-OPLS-2005>
857.348449707031

> <r_mmod_Stretch_Energy-OPLS-2005>
293.857635498047

> <r_mmod_Bend_Energy-OPLS-2005>
298.583679199219

> <r_mmod_Torsional_Energy-OPLS-2005>
452.138061523438

> <r_mmod_Improper_Torsional_Energy-OPLS-2005>
36.701301574707

> <r_mmod_Van_der_Waal_Energy-OPLS-2005>
147.574752807617

> <r_mmod_Electrostatic_Energy-OPLS-2005>
-380.117797851562

> <r_mmod_Solvation_Energy-OPLS-2005>
-225.761413574219

> <b_mmod_Minimization_Converged-OPLS-2005>
0

> <r_mmod_RMS_Derivative-OPLS-2005>
12.2354745864868

$$$$
43
                    3D
 Structure written by MMmdl.
170178  0  0  1  0            999 V2000
  -30.6423  -14.5531   20.4974 C   0  0  0  0  0  0
  -30.4356  -12.3431   19.4180 C   0  0  0  0  0  0
  -29.4924  -12.4868   18.2047 C   0  0  0  0  0  0
  -28.0158  -12.3461   18.6267 C   0  0  0  0  0  0
  -27.6577  -13.2042   19.8677 C   0  0  2  0  0  0
  -28.7066  -13.0180   20.9859 C   0  0  0  0  0  0
  -25.2601  -13.8161   20.5700 C   0  0  0  0  0  0
  -24.1848  -13.0424   20.9202 C   0  0  0  0  0  0
  -24.6409  -11.6897   20.8757 C   0  0  0  0  0  0
  -23.9065  -10.4286   21.0408 C   0  0  0  0  0  0
  -24.3618   -9.4198   21.9184 C   0  0  0  0  0  0
  -23.6289   -8.2227   22.0745 C   0  0  0  0  0  0
  -22.4272   -8.0277   21.3541 C   0  0  0  0  0  0
  -21.9913   -9.0251   20.4645 C   0  0  0  0  0  0
  -22.7237  -10.2131   20.3060 C   0  0  0  0  0  0
  -21.6854   -6.0727   22.5275 C   0  0  0  0  0  0
  -21.4004   -6.5633   23.8209 C   0  0  0  0  0  0
  -21.3656   -5.6791   24.9173 C   0  0  0  0  0  0
  -21.6042   -4.3049   24.7226 C   0  0  0  0  0  0
  -21.8827   -3.8139   23.4352 C   0  0  0  0  0  0
  -21.9195   -4.6956   22.3402 C   0  0  0  0  0  0
  -22.7886  -13.5232   21.1848 C   0  0  0  0  0  0
  -22.1673   -4.2134   21.0981 F   0  0  0  0  0  0
  -21.5629   -3.4542   25.7742 F   0  0  0  0  0  0
  -30.0227  -13.3438   20.4143 N   0  0  0  0  0  0
  -26.3017  -12.9314   20.3376 N   0  0  0  0  0  0
  -25.9332  -11.6484   20.5794 N   0  0  0  0  0  0
  -22.0543  -12.8199   22.0425 N   0  0  0  0  0  0
  -25.4334  -15.1867   20.4079 N   0  0  0  0  0  0
  -31.8081  -14.7311   20.1356 O   0  0  0  0  0  0
  -21.6634   -6.8869   21.4238 O   0  0  0  0  0  0
  -22.3556  -14.5521   20.6696 O   0  0  0  0  0  0
  -24.6127  -31.8689   23.2117 C   0  0  0  0  0  0
  -25.9028  -32.4808   23.8433 C   0  0  1  0  0  0
  -27.2539  -27.4254   20.0965 C   0  0  0  0  0  0
  -25.5915  -33.8607   24.2372 N   0  0  0  0  0  0
  -23.4044  -30.4890   21.5517 C   0  0  2  0  0  0
  -24.8583  -28.9536   20.1160 C   0  0  0  0  0  0
  -22.7396  -29.4659   22.4992 C   0  0  0  0  0  0
  -18.0262  -28.1362   22.8443 C   0  0  0  0  0  0
  -24.1513  -36.7305   23.2628 C   0  0  0  0  0  0
  -25.9362  -30.8210   21.3813 C   0  0  0  0  0  0
  -26.0150  -29.4571   20.7232 C   0  0  0  0  0  0
  -27.2075  -28.6959   20.7208 C   0  0  0  0  0  0
  -26.0793  -26.9497   19.4678 C   0  0  0  0  0  0
  -24.8868  -27.6983   19.4849 C   0  0  0  0  0  0
  -23.6169  -29.8154   20.1683 C   0  0  0  0  0  0
  -25.4120  -36.3078   24.0328 C   0  0  1  0  0  0
  -20.5855  -28.3667   23.1273 C   0  0  2  0  0  0
  -20.6765  -26.9407   22.5379 C   0  0  0  0  0  0
  -19.5763  -26.6380   21.5160 C   0  0  0  0  0  0
  -18.1932  -26.7904   22.1576 C   0  0  0  0  0  0
  -19.1516  -28.8824   23.2854 C   0  0  0  0  0  0
  -18.9434  -30.1424   23.8879 C   0  0  0  0  0  0
  -17.6445  -30.6570   24.0534 C   0  0  0  0  0  0
  -25.9022  -34.9440   23.5126 C   0  0  0  0  0  0
  -16.5327  -29.9049   23.6336 C   0  0  0  0  0  0
  -16.7256  -28.6472   23.0337 C   0  0  0  0  0  0
  -26.4484  -31.6571   25.0749 C   0  0  0  0  0  0
  -25.3735  -31.3613   26.1477 C   0  0  0  0  0  0
  -27.0360  -30.3003   24.6177 C   0  0  0  0  0  0
  -27.6082  -32.4298   25.7466 C   0  0  0  0  0  0
  -27.5602  -37.1779   24.8452 C   0  0  0  0  0  0
  -21.4131  -29.3045   22.3690 N   0  0  0  0  0  0
  -26.4310  -37.3754   23.9389 N   0  0  0  0  0  0
  -24.6675  -31.0754   22.1050 N   0  0  0  0  0  0
  -23.4148  -28.8204   23.3040 O   0  0  0  0  0  0
  -28.4350  -26.6989   20.1342 O   0  0  0  0  0  0
  -26.5575  -34.8895   22.4681 O   0  0  0  0  0  0
  -23.5322  -32.1489   23.7490 O   0  0  0  0  0  0
  -29.6381  -20.5955   19.8977 C   0  0  0  0  0  0
  -28.5773  -21.9991   21.5481 C   0  0  0  0  0  0
  -29.3400  -21.8963   20.3692 C   0  0  0  0  0  0
  -29.1661  -19.4521   20.5927 C   0  0  0  0  0  0
  -28.1599  -20.8213   22.2126 C   0  0  0  0  0  0
  -29.7079  -17.9521   18.5766 C   0  0  0  0  0  0
  -26.2463  -19.8269   23.5531 C   0  0  0  0  0  0
  -26.7884  -22.2367   23.8476 C   0  0  0  0  0  0
  -28.3941  -20.5012   24.6926 C   0  0  0  0  0  0
  -29.8277  -23.1228   19.5790 C   0  0  0  0  0  0
  -29.6779  -24.5460   20.1981 C   0  0  0  0  0  0
  -30.1571  -17.0369   20.9387 C   0  0  0  0  0  0
  -28.4162  -25.3151   19.7325 C   0  0  0  0  0  0
  -29.2803  -17.9969   20.0577 C   0  0  1  0  0  0
  -27.4077  -20.8486   23.5584 C   0  0  0  0  0  0
  -28.4650  -19.5883   21.7385 N   0  0  0  0  0  0
  -29.8329  -15.5911   20.8146 N   0  0  0  0  0  0
  -31.4725  -12.4775   19.1026 H   0  0  0  0  0  0
  -30.3762  -11.3381   19.8406 H   0  0  0  0  0  0
  -29.7348  -11.7376   17.4499 H   0  0  0  0  0  0
  -29.6483  -13.4582   17.7312 H   0  0  0  0  0  0
  -27.8354  -11.2932   18.8461 H   0  0  0  0  0  0
  -27.3583  -12.5990   17.7956 H   0  0  0  0  0  0
  -27.6882  -14.2450   19.5447 H   0  0  0  0  0  0
  -28.7032  -11.9882   21.3463 H   0  0  0  0  0  0
  -28.4743  -13.6354   21.8549 H   0  0  0  0  0  0
  -25.2765   -9.5654   22.4766 H   0  0  0  0  0  0
  -23.9996   -7.4610   22.7459 H   0  0  0  0  0  0
  -21.0842   -8.8771   19.8952 H   0  0  0  0  0  0
  -22.3695  -10.9675   19.6175 H   0  0  0  0  0  0
  -21.1992   -7.6143   23.9703 H   0  0  0  0  0  0
  -21.1475   -6.0523   25.9074 H   0  0  0  0  0  0
  -22.0610   -2.7606   23.2856 H   0  0  0  0  0  0
  -22.4188  -11.9853   22.4774 H   0  0  0  0  0  0
  -21.1182  -13.1224   22.2681 H   0  0  0  0  0  0
  -24.6657  -15.8418   20.5069 H   0  0  0  0  0  0
  -26.2759  -15.6189   20.0526 H   0  0  0  0  0  0
  -26.7061  -32.5516   23.1170 H   0  0  0  0  0  0
  -25.0093  -33.9798   25.0538 H   0  0  0  0  0  0
  -22.6932  -31.3042   21.4095 H   0  0  0  0  0  0
  -23.3758  -35.9651   23.3285 H   0  0  0  0  0  0
  -24.3599  -36.8967   22.2044 H   0  0  0  0  0  0
  -23.7326  -37.6520   23.6681 H   0  0  0  0  0  0
  -26.0722  -31.5895   20.6219 H   0  0  0  0  0  0
  -26.8088  -30.8594   22.0191 H   0  0  0  0  0  0
  -28.0951  -29.0723   21.2131 H   0  0  0  0  0  0
  -26.0630  -26.0061   18.9447 H   0  0  0  0  0  0
  -24.0026  -27.3061   19.0022 H   0  0  0  0  0  0
  -23.7129  -30.5871   19.4042 H   0  0  0  0  0  0
  -22.7435  -29.2280   19.8832 H   0  0  0  0  0  0
  -25.1315  -36.1915   25.0824 H   0  0  0  0  0  0
  -20.9926  -28.3235   24.1401 H   0  0  0  0  0  0
  -20.5653  -26.2278   23.3564 H   0  0  0  0  0  0
  -21.6638  -26.7454   22.1204 H   0  0  0  0  0  0
  -19.6945  -25.6285   21.1215 H   0  0  0  0  0  0
  -19.6721  -27.3136   20.6646 H   0  0  0  0  0  0
  -17.4221  -26.6593   21.3973 H   0  0  0  0  0  0
  -18.0372  -26.0042   22.8971 H   0  0  0  0  0  0
  -19.7912  -30.7206   24.2266 H   0  0  0  0  0  0
  -17.5017  -31.6270   24.5119 H   0  0  0  0  0  0
  -15.5320  -30.2941   23.7733 H   0  0  0  0  0  0
  -15.8649  -28.0801   22.7069 H   0  0  0  0  0  0
  -24.5933  -30.6973   25.7757 H   0  0  0  0  0  0
  -24.8874  -32.2724   26.4962 H   0  0  0  0  0  0
  -25.8080  -30.8733   27.0211 H   0  0  0  0  0  0
  -26.2917  -29.6627   24.1386 H   0  0  0  0  0  0
  -27.4285  -29.7378   25.4664 H   0  0  0  0  0  0
  -27.8702  -30.4323   23.9276 H   0  0  0  0  0  0
  -27.2762  -33.3615   26.2049 H   0  0  0  0  0  0
  -28.3850  -32.6809   25.0231 H   0  0  0  0  0  0
  -28.0803  -31.8421   26.5365 H   0  0  0  0  0  0
  -28.2562  -38.0128   24.7539 H   0  0  0  0  0  0
  -28.1183  -36.2653   24.6252 H   0  0  0  0  0  0
  -27.2312  -37.1380   25.8855 H   0  0  0  0  0  0
  -20.9296  -29.8759   21.6893 H   0  0  0  0  0  0
  -26.0204  -38.2841   24.1355 H   0  0  0  0  0  0
  -30.2048  -20.4941   18.9825 H   0  0  0  0  0  0
  -28.3266  -22.9740   21.9364 H   0  0  0  0  0  0
  -29.0312  -18.5447   17.9587 H   0  0  0  0  0  0
  -29.7038  -16.9376   18.1822 H   0  0  0  0  0  0
  -30.7136  -18.3498   18.4365 H   0  0  0  0  0  0
  -25.5318  -20.0414   22.7578 H   0  0  0  0  0  0
  -25.6999  -19.8330   24.4980 H   0  0  0  0  0  0
  -26.6010  -18.8066   23.4037 H   0  0  0  0  0  0
  -26.1179  -22.5413   23.0419 H   0  0  0  0  0  0
  -27.5499  -23.0075   23.9591 H   0  0  0  0  0  0
  -26.2081  -22.2398   24.7699 H   0  0  0  0  0  0
  -28.8717  -19.5360   24.5218 H   0  0  0  0  0  0
  -27.8948  -20.4551   25.6604 H   0  0  0  0  0  0
  -29.1878  -21.2446   24.7643 H   0  0  0  0  0  0
  -29.3415  -23.1096   18.6054 H   0  0  0  0  0  0
  -30.8880  -22.9575   19.3724 H   0  0  0  0  0  0
  -30.5319  -25.1307   19.8534 H   0  0  0  0  0  0
  -29.7709  -24.5290   21.2830 H   0  0  0  0  0  0
  -29.9941  -17.2836   21.9882 H   0  0  0  0  0  0
  -31.2143  -17.2256   20.7510 H   0  0  0  0  0  0
  -27.5375  -24.7963   20.1159 H   0  0  0  0  0  0
  -28.3672  -25.2851   18.6429 H   0  0  0  0  0  0
  -28.2584  -17.6145   20.0873 H   0  0  0  0  0  0
  -28.8810  -15.3394   21.0324 H   0  0  0  0  0  0
  1 25  1  0  0  0
  1 30  2  0  0  0
  1 87  1  0  0  0
  2  3  1  0  0  0
  2 25  1  0  0  0
  2 88  1  0  0  0
  2 89  1  0  0  0
  3  4  1  0  0  0
  3 90  1  0  0  0
  3 91  1  0  0  0
  4  5  1  0  0  0
  4 92  1  0  0  0
  4 93  1  0  0  0
  5  6  1  0  0  0
  5 26  1  0  0  0
  5 94  1  0  0  0
  6 25  1  0  0  0
  6 95  1  0  0  0
  6 96  1  0  0  0
  7  8  2  0  0  0
  7 26  1  0  0  0
  7 29  1  0  0  0
  8  9  1  0  0  0
  8 22  1  0  0  0
  9 10  1  0  0  0
  9 27  2  0  0  0
 10 11  2  0  0  0
 10 15  1  0  0  0
 11 12  1  0  0  0
 11 97  1  0  0  0
 12 13  2  0  0  0
 12 98  1  0  0  0
 13 14  1  0  0  0
 13 31  1  0  0  0
 14 15  2  0  0  0
 14 99  1  0  0  0
 15100  1  0  0  0
 16 17  2  0  0  0
 16 21  1  0  0  0
 16 31  1  0  0  0
 17 18  1  0  0  0
 17101  1  0  0  0
 18 19  2  0  0  0
 18102  1  0  0  0
 19 20  1  0  0  0
 19 24  1  0  0  0
 20 21  2  0  0  0
 20103  1  0  0  0
 21 23  1  0  0  0
 22 28  1  0  0  0
 22 32  2  0  0  0
 26 27  1  0  0  0
 28104  1  0  0  0
 28105  1  0  0  0
 29106  1  0  0  0
 29107  1  0  0  0
 33 34  1  0  0  0
 33 66  1  0  0  0
 33 70  2  0  0  0
 34 36  1  0  0  0
 34 59  1  0  0  0
 34108  1  0  0  0
 35 44  2  0  0  0
 35 45  1  0  0  0
 35 68  1  0  0  0
 36 56  1  0  0  0
 36109  1  0  0  0
 37 39  1  0  0  0
 37 47  1  0  0  0
 37 66  1  0  0  0
 37110  1  0  0  0
 38 43  2  0  0  0
 38 46  1  0  0  0
 38 47  1  0  0  0
 39 64  1  0  0  0
 39 67  2  0  0  0
 40 52  1  0  0  0
 40 53  2  0  0  0
 40 58  1  0  0  0
 41111  1  0  0  0
 41112  1  0  0  0
 41113  1  0  0  0
 41 48  1  0  0  0
 42 43  1  0  0  0
 42 66  1  0  0  0
 42114  1  0  0  0
 42115  1  0  0  0
 43 44  1  0  0  0
 44116  1  0  0  0
 45 46  2  0  0  0
 45117  1  0  0  0
 46118  1  0  0  0
 47119  1  0  0  0
 47120  1  0  0  0
 48 56  1  0  0  0
 48 65  1  0  0  0
 48121  1  0  0  0
 49 50  1  0  0  0
 49 53  1  0  0  0
 49 64  1  0  0  0
 49122  1  0  0  0
 50 51  1  0  0  0
 50123  1  0  0  0
 50124  1  0  0  0
 51 52  1  0  0  0
 51125  1  0  0  0
 51126  1  0  0  0
 52127  1  0  0  0
 52128  1  0  0  0
 53 54  1  0  0  0
 54 55  2  0  0  0
 54129  1  0  0  0
 55 57  1  0  0  0
 55130  1  0  0  0
 56 69  2  0  0  0
 57 58  2  0  0  0
 57131  1  0  0  0
 58132  1  0  0  0
 59 60  1  0  0  0
 59 61  1  0  0  0
 59 62  1  0  0  0
 60133  1  0  0  0
 60134  1  0  0  0
 60135  1  0  0  0
 61136  1  0  0  0
 61137  1  0  0  0
 61138  1  0  0  0
 62139  1  0  0  0
 62140  1  0  0  0
 62141  1  0  0  0
 63 65  1  0  0  0
 63142  1  0  0  0
 63143  1  0  0  0
 63144  1  0  0  0
 64145  1  0  0  0
 65146  1  0  0  0
 68 83  1  0  0  0
 71 73  2  0  0  0
 71 74  1  0  0  0
 71147  1  0  0  0
 72 73  1  0  0  0
 72 75  2  0  0  0
 72148  1  0  0  0
 73 80  1  0  0  0
 74 84  1  0  0  0
 74 86  2  0  0  0
 75 85  1  0  0  0
 75 86  1  0  0  0
 76149  1  0  0  0
 76150  1  0  0  0
 76151  1  0  0  0
 76 84  1  0  0  0
 77152  1  0  0  0
 77153  1  0  0  0
 77154  1  0  0  0
 77 85  1  0  0  0
 78 85  1  0  0  0
 78155  1  0  0  0
 78156  1  0  0  0
 78157  1  0  0  0
 79 85  1  0  0  0
 79158  1  0  0  0
 79159  1  0  0  0
 79160  1  0  0  0
 80 81  1  0  0  0
 80161  1  0  0  0
 80162  1  0  0  0
 81 83  1  0  0  0
 81163  1  0  0  0
 81164  1  0  0  0
 82 84  1  0  0  0
 82 87  1  0  0  0
 82165  1  0  0  0
 82166  1  0  0  0
 83167  1  0  0  0
 83168  1  0  0  0
 84169  1  0  0  0
 87170  1  0  0  0
M  ISO  4   1 100  68 101  83 101  87 100
M  END
> <chiral flag>
0

> <version>
0

> <s_m_source_file>
/data/baiqing/PycharmProjects/Reinvent-master-3.2/result/LINK_invent/BTK/process_docking_weight1_custom_sum_contain_oxygen_bond_distance_aromatic_linkinvent_7_9_3/rearranged_h_0084.sdf

> <i_m_source_file_index>
44

> <r_mmod_Potential_Energy-OPLS-2005>
-254.208618164062

> <r_mmod_Stretch_Energy-OPLS-2005>
46.5529479980469

> <r_mmod_Bend_Energy-OPLS-2005>
116.593795776367

> <r_mmod_Torsional_Energy-OPLS-2005>
197.722152709961

> <r_mmod_Improper_Torsional_Energy-OPLS-2005>
4.94478940963745

> <r_mmod_Van_der_Waal_Energy-OPLS-2005>
160.385391235352

> <r_mmod_Electrostatic_Energy-OPLS-2005>
-600.439331054688

> <r_mmod_Solvation_Energy-OPLS-2005>
-202.515975952148

> <b_mmod_Minimization_Converged-OPLS-2005>
0

> <r_mmod_RMS_Derivative-OPLS-2005>
4.00613212585449

$$$$
44
                    3D
 Structure written by MMmdl.
155163  0  0  1  0            999 V2000
  -30.7391  -14.4857   20.5299 C   0  0  0  0  0  0
  -30.4216  -12.3075   19.4180 C   0  0  0  0  0  0
  -29.5041  -12.5007   18.1953 C   0  0  0  0  0  0
  -28.0242  -12.3478   18.6055 C   0  0  0  0  0  0
  -27.6565  -13.2119   19.8456 C   0  0  2  0  0  0
  -28.7012  -13.0397   20.9717 C   0  0  0  0  0  0
  -25.2563  -13.8163   20.5636 C   0  0  0  0  0  0
  -24.1817  -13.0450   20.9145 C   0  0  0  0  0  0
  -24.6377  -11.6912   20.8679 C   0  0  0  0  0  0
  -23.9064  -10.4291   21.0386 C   0  0  0  0  0  0
  -24.3606   -9.4213   21.9170 C   0  0  0  0  0  0
  -23.6285   -8.2253   22.0777 C   0  0  0  0  0  0
  -22.4252   -8.0283   21.3583 C   0  0  0  0  0  0
  -21.9887   -9.0243   20.4685 C   0  0  0  0  0  0
  -22.7236  -10.2121   20.3056 C   0  0  0  0  0  0
  -21.6833   -6.0741   22.5275 C   0  0  0  0  0  0
  -21.4024   -6.5644   23.8220 C   0  0  0  0  0  0
  -21.3678   -5.6800   24.9181 C   0  0  0  0  0  0
  -21.6026   -4.3046   24.7225 C   0  0  0  0  0  0
  -21.8821   -3.8152   23.4340 C   0  0  0  0  0  0
  -21.9200   -4.6976   22.3407 C   0  0  0  0  0  0
  -22.7835  -13.5267   21.1796 C   0  0  0  0  0  0
  -22.1653   -4.2164   21.0976 F   0  0  0  0  0  0
  -21.5643   -3.4528   25.7742 F   0  0  0  0  0  0
  -30.0373  -13.3235   20.4123 N   0  0  0  0  0  0
  -26.2987  -12.9354   20.3179 N   0  0  0  0  0  0
  -25.9283  -11.6515   20.5625 N   0  0  0  0  0  0
  -22.0405  -12.8319   22.0352 N   0  0  0  0  0  0
  -25.4217  -15.1913   20.4149 N   0  0  0  0  0  0
  -31.8812  -14.6286   20.0912 O   0  0  0  0  0  0
  -21.6642   -6.8858   21.4239 O   0  0  0  0  0  0
  -22.3546  -14.5554   20.6610 O   0  0  0  0  0  0
  -24.6109  -31.8665   23.2135 C   0  0  0  0  0  0
  -25.9029  -32.4809   23.8386 C   0  0  1  0  0  0
  -27.2345  -27.4251   20.1166 C   0  0  0  0  0  0
  -25.5922  -33.8596   24.2348 N   0  0  0  0  0  0
  -23.4014  -30.4939   21.5472 C   0  0  2  0  0  0
  -24.8539  -28.9562   20.1116 C   0  0  0  0  0  0
  -22.7397  -29.4660   22.4947 C   0  0  0  0  0  0
  -18.0277  -28.1347   22.8507 C   0  0  0  0  0  0
  -24.1472  -36.7305   23.2635 C   0  0  0  0  0  0
  -25.9304  -30.8305   21.3703 C   0  0  0  0  0  0
  -26.0088  -29.4631   20.7181 C   0  0  0  0  0  0
  -27.2066  -28.7044   20.7181 C   0  0  0  0  0  0
  -26.0668  -26.9421   19.4870 C   0  0  0  0  0  0
  -24.8796  -27.6940   19.4877 C   0  0  0  0  0  0
  -23.6166  -29.8258   20.1599 C   0  0  0  0  0  0
  -25.4089  -36.3106   24.0372 C   0  0  1  0  0  0
  -20.5863  -28.3679   23.1291 C   0  0  2  0  0  0
  -20.6754  -26.9407   22.5407 C   0  0  0  0  0  0
  -19.5740  -26.6373   21.5201 C   0  0  0  0  0  0
  -18.1922  -26.7904   22.1606 C   0  0  0  0  0  0
  -19.1523  -28.8831   23.2906 C   0  0  0  0  0  0
  -18.9447  -30.1428   23.8901 C   0  0  0  0  0  0
  -17.6445  -30.6565   24.0591 C   0  0  0  0  0  0
  -25.9018  -34.9479   23.5158 C   0  0  0  0  0  0
  -16.5339  -29.9072   23.6316 C   0  0  0  0  0  0
  -16.7265  -28.6498   23.0339 C   0  0  0  0  0  0
  -26.4476  -31.6561   25.0687 C   0  0  0  0  0  0
  -25.3826  -31.3663   26.1518 C   0  0  0  0  0  0
  -27.0291  -30.2990   24.6027 C   0  0  0  0  0  0
  -27.6034  -32.4296   25.7459 C   0  0  0  0  0  0
  -27.5600  -37.1783   24.8469 C   0  0  0  0  0  0
  -21.4128  -29.3057   22.3703 N   0  0  0  0  0  0
  -26.4268  -37.3810   23.9469 N   0  0  0  0  0  0
  -24.6644  -31.0796   22.1015 N   0  0  0  0  0  0
  -23.4184  -28.8207   23.3010 O   0  0  0  0  0  0
  -28.3752  -26.6474   20.1373 O   0  0  0  0  0  0
  -26.5534  -34.8932   22.4672 O   0  0  0  0  0  0
  -23.5285  -32.1412   23.7525 O   0  0  0  0  0  0
  -31.0940  -21.3629   21.4451 C   0  0  0  0  0  0
  -29.8242  -21.7913   21.1241 C   0  0  0  0  0  0
  -30.3117  -19.4076   20.5233 C   0  0  0  0  0  0
  -31.1288  -17.7125   18.8305 C   0  0  0  0  0  0
  -29.1305  -23.0895   21.5007 C   0  0  0  0  0  0
  -29.2453  -24.3045   20.5365 C   0  0  0  0  0  0
  -30.5810  -16.9212   21.2328 C   0  0  0  0  0  0
  -28.2391  -25.4308   20.9017 C   0  0  0  0  0  0
  -30.2753  -17.9455   20.0918 C   0  0  1  0  0  0
  -31.3584  -20.0270   21.0885 N   0  0  0  0  0  0
  -30.0697  -15.5429   21.0275 N   0  0  0  0  0  0
  -28.9570  -20.5222   20.2802 S   0  0  0  0  0  0
  -31.4708  -12.3804   19.1234 H   0  0  0  0  0  0
  -30.3000  -11.3051   19.8368 H   0  0  0  0  0  0
  -29.7579  -11.7879   17.4083 H   0  0  0  0  0  0
  -29.6619  -13.4931   17.7709 H   0  0  0  0  0  0
  -27.8384  -11.2928   18.8219 H   0  0  0  0  0  0
  -27.3801  -12.5923   17.7597 H   0  0  0  0  0  0
  -27.6926  -14.2510   19.5130 H   0  0  0  0  0  0
  -28.6712  -12.0217   21.3657 H   0  0  0  0  0  0
  -28.4647  -13.6902   21.8146 H   0  0  0  0  0  0
  -25.2748   -9.5732   22.4714 H   0  0  0  0  0  0
  -24.0028   -7.4674   22.7495 H   0  0  0  0  0  0
  -21.0815   -8.8746   19.8982 H   0  0  0  0  0  0
  -22.3678  -10.9637   19.6146 H   0  0  0  0  0  0
  -21.1992   -7.6139   23.9743 H   0  0  0  0  0  0
  -21.1509   -6.0500   25.9093 H   0  0  0  0  0  0
  -22.0580   -2.7608   23.2830 H   0  0  0  0  0  0
  -22.4000  -12.0066   22.4913 H   0  0  0  0  0  0
  -21.1018  -13.1421   22.2434 H   0  0  0  0  0  0
  -24.6465  -15.8316   20.5437 H   0  0  0  0  0  0
  -26.2691  -15.6526   20.1061 H   0  0  0  0  0  0
  -26.7135  -32.5560   23.1178 H   0  0  0  0  0  0
  -25.0221  -33.9731   25.0593 H   0  0  0  0  0  0
  -22.6899  -31.3103   21.4066 H   0  0  0  0  0  0
  -23.3745  -35.9626   23.3252 H   0  0  0  0  0  0
  -24.3582  -36.8909   22.2055 H   0  0  0  0  0  0
  -23.7178  -37.6491   23.6637 H   0  0  0  0  0  0
  -26.0379  -31.5958   20.5993 H   0  0  0  0  0  0
  -26.8170  -30.8847   21.9874 H   0  0  0  0  0  0
  -28.0992  -29.0822   21.1977 H   0  0  0  0  0  0
  -26.0792  -25.9762   18.9975 H   0  0  0  0  0  0
  -23.9942  -27.2980   19.0080 H   0  0  0  0  0  0
  -23.7329  -30.5981   19.3975 H   0  0  0  0  0  0
  -22.7398  -29.2493   19.8602 H   0  0  0  0  0  0
  -25.1235  -36.1983   25.0866 H   0  0  0  0  0  0
  -20.9978  -28.3250   24.1407 H   0  0  0  0  0  0
  -20.5578  -26.2296   23.3611 H   0  0  0  0  0  0
  -21.6639  -26.7388   22.1266 H   0  0  0  0  0  0
  -19.6893  -25.6294   21.1227 H   0  0  0  0  0  0
  -19.6659  -27.3169   20.6744 H   0  0  0  0  0  0
  -17.4188  -26.6673   21.4019 H   0  0  0  0  0  0
  -18.0319  -25.9996   22.8956 H   0  0  0  0  0  0
  -19.7919  -30.7278   24.2219 H   0  0  0  0  0  0
  -17.5002  -31.6230   24.5213 H   0  0  0  0  0  0
  -15.5334  -30.2989   23.7635 H   0  0  0  0  0  0
  -15.8669  -28.0848   22.6996 H   0  0  0  0  0  0
  -24.6031  -30.6919   25.7971 H   0  0  0  0  0  0
  -24.8993  -32.2795   26.4993 H   0  0  0  0  0  0
  -25.8304  -30.8909   27.0256 H   0  0  0  0  0  0
  -26.2782  -29.6765   24.1140 H   0  0  0  0  0  0
  -27.4111  -29.7214   25.4460 H   0  0  0  0  0  0
  -27.8626  -30.4285   23.9122 H   0  0  0  0  0  0
  -27.2627  -33.3594   26.2037 H   0  0  0  0  0  0
  -28.3857  -32.6839   25.0305 H   0  0  0  0  0  0
  -28.0700  -31.8418   26.5385 H   0  0  0  0  0  0
  -28.2574  -38.0120   24.7576 H   0  0  0  0  0  0
  -28.1104  -36.2640   24.6179 H   0  0  0  0  0  0
  -27.2331  -37.1349   25.8866 H   0  0  0  0  0  0
  -20.9237  -29.8829   21.7000 H   0  0  0  0  0  0
  -26.0155  -38.2873   24.1476 H   0  0  0  0  0  0
  -31.8509  -21.9184   21.9815 H   0  0  0  0  0  0
  -30.8198  -18.3873   18.0306 H   0  0  0  0  0  0
  -31.0363  -16.6937   18.4519 H   0  0  0  0  0  0
  -32.1872  -17.8995   19.0191 H   0  0  0  0  0  0
  -29.4638  -23.4052   22.4922 H   0  0  0  0  0  0
  -28.0719  -22.8614   21.6387 H   0  0  0  0  0  0
  -29.0517  -23.9806   19.5122 H   0  0  0  0  0  0
  -30.2664  -24.6911   20.5532 H   0  0  0  0  0  0
  -30.1256  -17.2696   22.1589 H   0  0  0  0  0  0
  -31.6569  -16.9079   21.4197 H   0  0  0  0  0  0
  -28.3607  -25.6938   21.9544 H   0  0  0  0  0  0
  -27.2338  -25.0168   20.8100 H   0  0  0  0  0  0
  -29.2399  -17.7699   19.8009 H   0  0  0  0  0  0
  -29.1287  -15.3595   21.3397 H   0  0  0  0  0  0
  1 25  1  0  0  0
  1 30  2  0  0  0
  1 81  1  0  0  0
  2  3  1  0  0  0
  2 25  1  0  0  0
  2 83  1  0  0  0
  2 84  1  0  0  0
  3  4  1  0  0  0
  3 85  1  0  0  0
  3 86  1  0  0  0
  4  5  1  0  0  0
  4 87  1  0  0  0
  4 88  1  0  0  0
  5  6  1  0  0  0
  5 26  1  0  0  0
  5 89  1  0  0  0
  6 25  1  0  0  0
  6 90  1  0  0  0
  6 91  1  0  0  0
  7  8  2  0  0  0
  7 26  1  0  0  0
  7 29  1  0  0  0
  8  9  1  0  0  0
  8 22  1  0  0  0
  9 10  1  0  0  0
  9 27  2  0  0  0
 10 11  2  0  0  0
 10 15  1  0  0  0
 11 12  1  0  0  0
 11 92  1  0  0  0
 12 13  2  0  0  0
 12 93  1  0  0  0
 13 14  1  0  0  0
 13 31  1  0  0  0
 14 15  2  0  0  0
 14 94  1  0  0  0
 15 95  1  0  0  0
 16 17  2  0  0  0
 16 21  1  0  0  0
 16 31  1  0  0  0
 17 18  1  0  0  0
 17 96  1  0  0  0
 18 19  2  0  0  0
 18 97  1  0  0  0
 19 20  1  0  0  0
 19 24  1  0  0  0
 20 21  2  0  0  0
 20 98  1  0  0  0
 21 23  1  0  0  0
 22 28  1  0  0  0
 22 32  2  0  0  0
 26 27  1  0  0  0
 28 99  1  0  0  0
 28100  1  0  0  0
 29101  1  0  0  0
 29102  1  0  0  0
 33 34  1  0  0  0
 33 66  1  0  0  0
 33 70  2  0  0  0
 34 36  1  0  0  0
 34 59  1  0  0  0
 34103  1  0  0  0
 35 44  2  0  0  0
 35 45  1  0  0  0
 35 68  1  0  0  0
 36 56  1  0  0  0
 36104  1  0  0  0
 37 39  1  0  0  0
 37 47  1  0  0  0
 37 66  1  0  0  0
 37105  1  0  0  0
 38 43  2  0  0  0
 38 46  1  0  0  0
 38 47  1  0  0  0
 39 64  1  0  0  0
 39 67  2  0  0  0
 40 52  1  0  0  0
 40 53  2  0  0  0
 40 58  1  0  0  0
 41106  1  0  0  0
 41107  1  0  0  0
 41108  1  0  0  0
 41 48  1  0  0  0
 42 43  1  0  0  0
 42 66  1  0  0  0
 42109  1  0  0  0
 42110  1  0  0  0
 43 44  1  0  0  0
 44111  1  0  0  0
 45 46  2  0  0  0
 45112  1  0  0  0
 46113  1  0  0  0
 47114  1  0  0  0
 47115  1  0  0  0
 48 56  1  0  0  0
 48 65  1  0  0  0
 48116  1  0  0  0
 49 50  1  0  0  0
 49 53  1  0  0  0
 49 64  1  0  0  0
 49117  1  0  0  0
 50 51  1  0  0  0
 50118  1  0  0  0
 50119  1  0  0  0
 51 52  1  0  0  0
 51120  1  0  0  0
 51121  1  0  0  0
 52122  1  0  0  0
 52123  1  0  0  0
 53 54  1  0  0  0
 54 55  2  0  0  0
 54124  1  0  0  0
 55 57  1  0  0  0
 55125  1  0  0  0
 56 69  2  0  0  0
 57 58  2  0  0  0
 57126  1  0  0  0
 58127  1  0  0  0
 59 60  1  0  0  0
 59 61  1  0  0  0
 59 62  1  0  0  0
 60128  1  0  0  0
 60129  1  0  0  0
 60130  1  0  0  0
 61131  1  0  0  0
 61132  1  0  0  0
 61133  1  0  0  0
 62134  1  0  0  0
 62135  1  0  0  0
 62136  1  0  0  0
 63 65  1  0  0  0
 63137  1  0  0  0
 63138  1  0  0  0
 63139  1  0  0  0
 64140  1  0  0  0
 65141  1  0  0  0
 68 78  1  0  0  0
 71 72  2  0  0  0
 71 80  1  0  0  0
 71142  1  0  0  0
 72 75  1  0  0  0
 72 82  1  0  0  0
 73 79  1  0  0  0
 73 80  2  0  0  0
 73 82  1  0  0  0
 74143  1  0  0  0
 74144  1  0  0  0
 74145  1  0  0  0
 74 79  1  0  0  0
 75 76  1  0  0  0
 75146  1  0  0  0
 75147  1  0  0  0
 76 78  1  0  0  0
 76148  1  0  0  0
 76149  1  0  0  0
 77 79  1  0  0  0
 77 81  1  0  0  0
 77150  1  0  0  0
 77151  1  0  0  0
 78152  1  0  0  0
 78153  1  0  0  0
 79154  1  0  0  0
 81155  1  0  0  0
M  ISO  4   1 100  68 101  78 101  81 100
M  END
> <chiral flag>
0

> <version>
0

> <s_m_source_file>
/data/baiqing/PycharmProjects/Reinvent-master-3.2/result/LINK_invent/BTK/process_docking_weight1_custom_sum_contain_oxygen_bond_distance_aromatic_linkinvent_7_9_3/rearranged_h_0084.sdf

> <i_m_source_file_index>
45

> <r_mmod_Potential_Energy-OPLS-2005>
-119.634895324707

> <r_mmod_Stretch_Energy-OPLS-2005>
41.3108673095703

> <r_mmod_Bend_Energy-OPLS-2005>
103.561531066895

> <r_mmod_Torsional_Energy-OPLS-2005>
186.603897094727

> <r_mmod_Improper_Torsional_Energy-OPLS-2005>
3.29451179504395

> <r_mmod_Van_der_Waal_Energy-OPLS-2005>
118.213272094727

> <r_mmod_Electrostatic_Energy-OPLS-2005>
-374.541442871094

> <r_mmod_Solvation_Energy-OPLS-2005>
-216.066360473633

> <b_mmod_Minimization_Converged-OPLS-2005>
0

> <r_mmod_RMS_Derivative-OPLS-2005>
6.17245197296143

$$$$
45
                    3D
 Structure written by MMmdl.
163171  0  0  1  0            999 V2000
  -30.7142  -14.4164   20.5848 C   0  0  0  0  0  0
  -30.3989  -12.2836   19.3889 C   0  0  0  0  0  0
  -29.4738  -12.5325   18.1826 C   0  0  0  0  0  0
  -27.9913  -12.4062   18.5918 C   0  0  0  0  0  0
  -27.6586  -13.2039   19.8810 C   0  0  2  0  0  0
  -28.7030  -12.9443   20.9876 C   0  0  0  0  0  0
  -25.2594  -13.8165   20.5705 C   0  0  0  0  0  0
  -24.1835  -13.0436   20.9180 C   0  0  0  0  0  0
  -24.6371  -11.6904   20.8727 C   0  0  0  0  0  0
  -23.9020  -10.4309   21.0366 C   0  0  0  0  0  0
  -24.3608   -9.4232   21.9138 C   0  0  0  0  0  0
  -23.6335   -8.2236   22.0710 C   0  0  0  0  0  0
  -22.4298   -8.0275   21.3526 C   0  0  0  0  0  0
  -21.9918   -9.0227   20.4594 C   0  0  0  0  0  0
  -22.7207  -10.2124   20.3003 C   0  0  0  0  0  0
  -21.6860   -6.0743   22.5297 C   0  0  0  0  0  0
  -21.4007   -6.5651   23.8223 C   0  0  0  0  0  0
  -21.3666   -5.6805   24.9187 C   0  0  0  0  0  0
  -21.6053   -4.3065   24.7230 C   0  0  0  0  0  0
  -21.8823   -3.8155   23.4352 C   0  0  0  0  0  0
  -21.9199   -4.6983   22.3407 C   0  0  0  0  0  0
  -22.7869  -13.5206   21.1881 C   0  0  0  0  0  0
  -22.1672   -4.2173   21.0987 F   0  0  0  0  0  0
  -21.5624   -3.4543   25.7729 F   0  0  0  0  0  0
  -30.0327  -13.2507   20.4330 N   0  0  0  0  0  0
  -26.3011  -12.9320   20.3414 N   0  0  0  0  0  0
  -25.9293  -11.6480   20.5759 N   0  0  0  0  0  0
  -22.0515  -12.8178   22.0428 N   0  0  0  0  0  0
  -25.4373  -15.1878   20.4121 N   0  0  0  0  0  0
  -31.8285  -14.6153   20.0927 O   0  0  0  0  0  0
  -21.6674   -6.8877   21.4239 O   0  0  0  0  0  0
  -22.3560  -14.5536   20.6784 O   0  0  0  0  0  0
  -24.6158  -31.8690   23.2082 C   0  0  0  0  0  0
  -25.9046  -32.4827   23.8384 C   0  0  1  0  0  0
  -27.2362  -27.4377   20.0975 C   0  0  0  0  0  0
  -25.5882  -33.8619   24.2308 N   0  0  0  0  0  0
  -23.4042  -30.4939   21.5477 C   0  0  2  0  0  0
  -24.8519  -28.9580   20.1148 C   0  0  0  0  0  0
  -22.7416  -29.4689   22.4963 C   0  0  0  0  0  0
  -18.0271  -28.1389   22.8497 C   0  0  0  0  0  0
  -24.1477  -36.7303   23.2639 C   0  0  0  0  0  0
  -25.9338  -30.8378   21.3601 C   0  0  0  0  0  0
  -26.0129  -29.4732   20.7047 C   0  0  0  0  0  0
  -27.2112  -28.7228   20.6861 C   0  0  0  0  0  0
  -26.0550  -26.9370   19.5038 C   0  0  0  0  0  0
  -24.8672  -27.6897   19.5116 C   0  0  0  0  0  0
  -23.6139  -29.8232   20.1636 C   0  0  0  0  0  0
  -25.4103  -36.3111   24.0339 C   0  0  1  0  0  0
  -20.5868  -28.3688   23.1304 C   0  0  2  0  0  0
  -20.6760  -26.9416   22.5422 C   0  0  0  0  0  0
  -19.5735  -26.6384   21.5225 C   0  0  0  0  0  0
  -18.1915  -26.7939   22.1632 C   0  0  0  0  0  0
  -19.1528  -28.8851   23.2906 C   0  0  0  0  0  0
  -18.9453  -30.1454   23.8933 C   0  0  0  0  0  0
  -17.6455  -30.6600   24.0574 C   0  0  0  0  0  0
  -25.9034  -34.9478   23.5119 C   0  0  0  0  0  0
  -16.5346  -29.9111   23.6316 C   0  0  0  0  0  0
  -16.7263  -28.6516   23.0354 C   0  0  0  0  0  0
  -26.4466  -31.6616   25.0723 C   0  0  0  0  0  0
  -25.3707  -31.3724   26.1446 C   0  0  0  0  0  0
  -27.0297  -30.3052   24.6122 C   0  0  0  0  0  0
  -27.6043  -32.4334   25.7486 C   0  0  0  0  0  0
  -27.5579  -37.1801   24.8462 C   0  0  0  0  0  0
  -21.4136  -29.3058   22.3703 N   0  0  0  0  0  0
  -26.4286  -37.3800   23.9415 N   0  0  0  0  0  0
  -24.6694  -31.0800   22.0975 N   0  0  0  0  0  0
  -23.4184  -28.8223   23.3012 O   0  0  0  0  0  0
  -28.3959  -26.6914   20.1086 O   0  0  0  0  0  0
  -26.5615  -34.8933   22.4697 O   0  0  0  0  0  0
  -23.5348  -32.1439   23.7481 O   0  0  0  0  0  0
  -28.9841  -22.2981   18.1933 C   0  0  0  0  0  0
  -28.6638  -20.9545   17.9590 C   0  0  0  0  0  0
  -29.7961  -22.5754   19.3003 C   0  0  0  0  0  0
  -29.8789  -20.3235   19.7946 C   0  0  0  0  0  0
  -27.7995  -20.5343   16.7908 C   0  0  0  0  0  0
  -31.8186  -24.0194   19.7536 C   0  0  0  0  0  0
  -30.5612  -19.2005   20.5782 C   0  0  0  0  0  0
  -29.8905  -17.8039   20.4890 C   0  0  0  0  0  0
  -29.5817  -24.6446   20.8159 C   0  0  0  0  0  0
  -30.5408  -16.7617   21.4279 C   0  0  0  0  0  0
  -28.2305  -25.3185   20.5036 C   0  0  0  0  0  0
  -30.2864  -24.0000   19.6006 C   0  0  2  0  0  0
  -29.1368  -19.9744   18.7482 N   0  0  0  0  0  0
  -30.2114  -21.5762   20.1133 N   0  0  0  0  0  0
  -30.0466  -15.3965   21.2099 N   0  0  0  0  0  0
  -31.4446  -12.3699   19.0877 H   0  0  0  0  0  0
  -30.2712  -11.2643   19.7545 H   0  0  0  0  0  0
  -29.6972  -11.8354   17.3756 H   0  0  0  0  0  0
  -29.6553  -13.5320   17.7829 H   0  0  0  0  0  0
  -27.7619  -11.3500   18.7329 H   0  0  0  0  0  0
  -27.3493  -12.7427   17.7760 H   0  0  0  0  0  0
  -27.7104  -14.2607   19.6214 H   0  0  0  0  0  0
  -28.6694  -11.8953   21.2903 H   0  0  0  0  0  0
  -28.4745  -13.5135   21.8900 H   0  0  0  0  0  0
  -25.2709   -9.5768   22.4756 H   0  0  0  0  0  0
  -24.0078   -7.4612   22.7404 H   0  0  0  0  0  0
  -21.0849   -8.8696   19.8897 H   0  0  0  0  0  0
  -22.3596  -10.9677   19.6142 H   0  0  0  0  0  0
  -21.1989   -7.6160   23.9732 H   0  0  0  0  0  0
  -21.1488   -6.0529   25.9093 H   0  0  0  0  0  0
  -22.0595   -2.7622   23.2840 H   0  0  0  0  0  0
  -22.4165  -11.9865   22.4854 H   0  0  0  0  0  0
  -21.1104  -13.1167   22.2574 H   0  0  0  0  0  0
  -24.6748  -15.8492   20.5097 H   0  0  0  0  0  0
  -26.2982  -15.6208   20.1016 H   0  0  0  0  0  0
  -26.7128  -32.5547   23.1164 H   0  0  0  0  0  0
  -24.9996  -33.9771   25.0423 H   0  0  0  0  0  0
  -22.6943  -31.3119   21.4047 H   0  0  0  0  0  0
  -23.3751  -35.9621   23.3298 H   0  0  0  0  0  0
  -24.3566  -36.8930   22.2055 H   0  0  0  0  0  0
  -23.7212  -37.6494   23.6663 H   0  0  0  0  0  0
  -26.0472  -31.6064   20.5943 H   0  0  0  0  0  0
  -26.8208  -30.8893   21.9796 H   0  0  0  0  0  0
  -28.1112  -29.1188   21.1357 H   0  0  0  0  0  0
  -26.0430  -25.9704   19.0240 H   0  0  0  0  0  0
  -23.9731  -27.2876   19.0548 H   0  0  0  0  0  0
  -23.7234  -30.5947   19.4014 H   0  0  0  0  0  0
  -22.7394  -29.2423   19.8674 H   0  0  0  0  0  0
  -25.1285  -36.1962   25.0833 H   0  0  0  0  0  0
  -20.9983  -28.3261   24.1417 H   0  0  0  0  0  0
  -20.5651  -26.2310   23.3624 H   0  0  0  0  0  0
  -21.6629  -26.7441   22.1214 H   0  0  0  0  0  0
  -19.6883  -25.6288   21.1269 H   0  0  0  0  0  0
  -19.6671  -27.3185   20.6747 H   0  0  0  0  0  0
  -17.4187  -26.6708   21.4030 H   0  0  0  0  0  0
  -18.0294  -26.0076   22.9015 H   0  0  0  0  0  0
  -19.7933  -30.7254   24.2324 H   0  0  0  0  0  0
  -17.5017  -31.6287   24.5168 H   0  0  0  0  0  0
  -15.5349  -30.3032   23.7615 H   0  0  0  0  0  0
  -15.8658  -28.0844   22.7062 H   0  0  0  0  0  0
  -24.5855  -30.7129   25.7736 H   0  0  0  0  0  0
  -24.8930  -32.2887   26.4923 H   0  0  0  0  0  0
  -25.8013  -30.8827   27.0186 H   0  0  0  0  0  0
  -26.2859  -29.6821   24.1150 H   0  0  0  0  0  0
  -27.4022  -29.7289   25.4600 H   0  0  0  0  0  0
  -27.8708  -30.4357   23.9310 H   0  0  0  0  0  0
  -27.2663  -33.3615   26.2106 H   0  0  0  0  0  0
  -28.3825  -32.6935   25.0298 H   0  0  0  0  0  0
  -28.0746  -31.8439   26.5365 H   0  0  0  0  0  0
  -28.2592  -38.0105   24.7532 H   0  0  0  0  0  0
  -28.1081  -36.2640   24.6254 H   0  0  0  0  0  0
  -27.2300  -37.1408   25.8865 H   0  0  0  0  0  0
  -20.9291  -29.8795   21.6932 H   0  0  0  0  0  0
  -26.0171  -38.2871   24.1441 H   0  0  0  0  0  0
  -28.6358  -23.0815   17.5324 H   0  0  0  0  0  0
  -27.0143  -21.2685   16.6136 H   0  0  0  0  0  0
  -27.3227  -19.5713   16.9806 H   0  0  0  0  0  0
  -28.4032  -20.4438   15.8875 H   0  0  0  0  0  0
  -32.3046  -23.6086   18.8677 H   0  0  0  0  0  0
  -32.1341  -23.4266   20.6128 H   0  0  0  0  0  0
  -32.1925  -25.0313   19.8988 H   0  0  0  0  0  0
  -30.6256  -19.4991   21.6250 H   0  0  0  0  0  0
  -31.5855  -19.1301   20.2131 H   0  0  0  0  0  0
  -29.9386  -17.4544   19.4566 H   0  0  0  0  0  0
  -28.8329  -17.8973   20.7341 H   0  0  0  0  0  0
  -29.4463  -23.8784   21.5802 H   0  0  0  0  0  0
  -30.2275  -25.3942   21.2731 H   0  0  0  0  0  0
  -30.3453  -17.0290   22.4663 H   0  0  0  0  0  0
  -31.6248  -16.7885   21.3160 H   0  0  0  0  0  0
  -27.6213  -25.2927   21.4102 H   0  0  0  0  0  0
  -27.6972  -24.7383   19.7501 H   0  0  0  0  0  0
  -30.0666  -24.6213   18.7298 H   0  0  0  0  0  0
  -29.1197  -15.1730   21.5435 H   0  0  0  0  0  0
  1 25  1  0  0  0
  1 30  2  0  0  0
  1 85  1  0  0  0
  2  3  1  0  0  0
  2 25  1  0  0  0
  2 86  1  0  0  0
  2 87  1  0  0  0
  3  4  1  0  0  0
  3 88  1  0  0  0
  3 89  1  0  0  0
  4  5  1  0  0  0
  4 90  1  0  0  0
  4 91  1  0  0  0
  5  6  1  0  0  0
  5 26  1  0  0  0
  5 92  1  0  0  0
  6 25  1  0  0  0
  6 93  1  0  0  0
  6 94  1  0  0  0
  7  8  2  0  0  0
  7 26  1  0  0  0
  7 29  1  0  0  0
  8  9  1  0  0  0
  8 22  1  0  0  0
  9 10  1  0  0  0
  9 27  2  0  0  0
 10 11  2  0  0  0
 10 15  1  0  0  0
 11 12  1  0  0  0
 11 95  1  0  0  0
 12 13  2  0  0  0
 12 96  1  0  0  0
 13 14  1  0  0  0
 13 31  1  0  0  0
 14 15  2  0  0  0
 14 97  1  0  0  0
 15 98  1  0  0  0
 16 17  2  0  0  0
 16 21  1  0  0  0
 16 31  1  0  0  0
 17 18  1  0  0  0
 17 99  1  0  0  0
 18 19  2  0  0  0
 18100  1  0  0  0
 19 20  1  0  0  0
 19 24  1  0  0  0
 20 21  2  0  0  0
 20101  1  0  0  0
 21 23  1  0  0  0
 22 28  1  0  0  0
 22 32  2  0  0  0
 26 27  1  0  0  0
 28102  1  0  0  0
 28103  1  0  0  0
 29104  1  0  0  0
 29105  1  0  0  0
 33 34  1  0  0  0
 33 66  1  0  0  0
 33 70  2  0  0  0
 34 36  1  0  0  0
 34 59  1  0  0  0
 34106  1  0  0  0
 35 44  2  0  0  0
 35 45  1  0  0  0
 35 68  1  0  0  0
 36 56  1  0  0  0
 36107  1  0  0  0
 37 39  1  0  0  0
 37 47  1  0  0  0
 37 66  1  0  0  0
 37108  1  0  0  0
 38 43  2  0  0  0
 38 46  1  0  0  0
 38 47  1  0  0  0
 39 64  1  0  0  0
 39 67  2  0  0  0
 40 52  1  0  0  0
 40 53  2  0  0  0
 40 58  1  0  0  0
 41109  1  0  0  0
 41110  1  0  0  0
 41111  1  0  0  0
 41 48  1  0  0  0
 42 43  1  0  0  0
 42 66  1  0  0  0
 42112  1  0  0  0
 42113  1  0  0  0
 43 44  1  0  0  0
 44114  1  0  0  0
 45 46  2  0  0  0
 45115  1  0  0  0
 46116  1  0  0  0
 47117  1  0  0  0
 47118  1  0  0  0
 48 56  1  0  0  0
 48 65  1  0  0  0
 48119  1  0  0  0
 49 50  1  0  0  0
 49 53  1  0  0  0
 49 64  1  0  0  0
 49120  1  0  0  0
 50 51  1  0  0  0
 50121  1  0  0  0
 50122  1  0  0  0
 51 52  1  0  0  0
 51123  1  0  0  0
 51124  1  0  0  0
 52125  1  0  0  0
 52126  1  0  0  0
 53 54  1  0  0  0
 54 55  2  0  0  0
 54127  1  0  0  0
 55 57  1  0  0  0
 55128  1  0  0  0
 56 69  2  0  0  0
 57 58  2  0  0  0
 57129  1  0  0  0
 58130  1  0  0  0
 59 60  1  0  0  0
 59 61  1  0  0  0
 59 62  1  0  0  0
 60131  1  0  0  0
 60132  1  0  0  0
 60133  1  0  0  0
 61134  1  0  0  0
 61135  1  0  0  0
 61136  1  0  0  0
 62137  1  0  0  0
 62138  1  0  0  0
 62139  1  0  0  0
 63 65  1  0  0  0
 63140  1  0  0  0
 63141  1  0  0  0
 63142  1  0  0  0
 64143  1  0  0  0
 65144  1  0  0  0
 68 81  1  0  0  0
 71 72  2  0  0  0
 71 73  1  0  0  0
 71145  1  0  0  0
 72 75  1  0  0  0
 72 83  1  0  0  0
 73 82  1  0  0  0
 73 84  2  0  0  0
 74 77  1  0  0  0
 74 83  2  0  0  0
 74 84  1  0  0  0
 75146  1  0  0  0
 75147  1  0  0  0
 75148  1  0  0  0
 76149  1  0  0  0
 76150  1  0  0  0
 76151  1  0  0  0
 76 82  1  0  0  0
 77 78  1  0  0  0
 77152  1  0  0  0
 77153  1  0  0  0
 78 80  1  0  0  0
 78154  1  0  0  0
 78155  1  0  0  0
 79 81  1  0  0  0
 79 82  1  0  0  0
 79156  1  0  0  0
 79157  1  0  0  0
 80 85  1  0  0  0
 80158  1  0  0  0
 80159  1  0  0  0
 81160  1  0  0  0
 81161  1  0  0  0
 82162  1  0  0  0
 85163  1  0  0  0
M  ISO  4   1 100  68 101  81 101  85 100
M  END
> <chiral flag>
0

> <version>
0

> <s_m_source_file>
/data/baiqing/PycharmProjects/Reinvent-master-3.2/result/LINK_invent/BTK/process_docking_weight1_custom_sum_contain_oxygen_bond_distance_aromatic_linkinvent_7_9_3/rearranged_h_0084.sdf

> <i_m_source_file_index>
46

> <r_mmod_Potential_Energy-OPLS-2005>
-567.197692871094

> <r_mmod_Stretch_Energy-OPLS-2005>
34.5711822509766

> <r_mmod_Bend_Energy-OPLS-2005>
93.7339782714844

> <r_mmod_Torsional_Energy-OPLS-2005>
210.069961547852

> <r_mmod_Improper_Torsional_Energy-OPLS-2005>
3.62518191337585

> <r_mmod_Van_der_Waal_Energy-OPLS-2005>
163.106597900391

> <r_mmod_Electrostatic_Energy-OPLS-2005>
-857.111633300781

> <r_mmod_Solvation_Energy-OPLS-2005>
-225.729751586914

> <b_mmod_Minimization_Converged-OPLS-2005>
0

> <r_mmod_RMS_Derivative-OPLS-2005>
3.68380665779114

$$$$
46
                    3D
 Structure written by MMmdl.
163171  0  0  1  0            999 V2000
  -30.7154  -14.4566   20.5809 C   0  0  0  0  0  0
  -30.4174  -12.3011   19.4259 C   0  0  0  0  0  0
  -29.4964  -12.5064   18.2067 C   0  0  0  0  0  0
  -28.0162  -12.3741   18.6183 C   0  0  0  0  0  0
  -27.6613  -13.2124   19.8766 C   0  0  2  0  0  0
  -28.7003  -12.9928   20.9994 C   0  0  0  0  0  0
  -25.2560  -13.8169   20.5678 C   0  0  0  0  0  0
  -24.1826  -13.0431   20.9203 C   0  0  0  0  0  0
  -24.6399  -11.6911   20.8741 C   0  0  0  0  0  0
  -23.9065  -10.4294   21.0409 C   0  0  0  0  0  0
  -24.3612   -9.4208   21.9190 C   0  0  0  0  0  0
  -23.6287   -8.2241   22.0755 C   0  0  0  0  0  0
  -22.4268   -8.0281   21.3546 C   0  0  0  0  0  0
  -21.9906   -9.0257   20.4647 C   0  0  0  0  0  0
  -22.7237  -10.2140   20.3056 C   0  0  0  0  0  0
  -21.6857   -6.0737   22.5282 C   0  0  0  0  0  0
  -21.4019   -6.5637   23.8220 C   0  0  0  0  0  0
  -21.3656   -5.6791   24.9184 C   0  0  0  0  0  0
  -21.6038   -4.3052   24.7233 C   0  0  0  0  0  0
  -21.8817   -3.8143   23.4354 C   0  0  0  0  0  0
  -21.9194   -4.6963   22.3411 C   0  0  0  0  0  0
  -22.7849  -13.5228   21.1865 C   0  0  0  0  0  0
  -22.1656   -4.2143   21.0993 F   0  0  0  0  0  0
  -21.5630   -3.4535   25.7748 F   0  0  0  0  0  0
  -30.0338  -13.2873   20.4492 N   0  0  0  0  0  0
  -26.3015  -12.9359   20.3361 N   0  0  0  0  0  0
  -25.9325  -11.6510   20.5752 N   0  0  0  0  0  0
  -22.0476  -12.8224   22.0424 N   0  0  0  0  0  0
  -25.4228  -15.1880   20.4039 N   0  0  0  0  0  0
  -31.8329  -14.6381   20.0901 O   0  0  0  0  0  0
  -21.6632   -6.8878   21.4241 O   0  0  0  0  0  0
  -22.3534  -14.5533   20.6722 O   0  0  0  0  0  0
  -24.6159  -31.8687   23.2113 C   0  0  0  0  0  0
  -25.9038  -32.4832   23.8414 C   0  0  1  0  0  0
  -27.2238  -27.4114   20.0952 C   0  0  0  0  0  0
  -25.5902  -33.8638   24.2342 N   0  0  0  0  0  0
  -23.4049  -30.4947   21.5537 C   0  0  2  0  0  0
  -24.8486  -28.9682   20.1083 C   0  0  0  0  0  0
  -22.7436  -29.4653   22.4987 C   0  0  0  0  0  0
  -18.0286  -28.1373   22.8492 C   0  0  0  0  0  0
  -24.1493  -36.7315   23.2637 C   0  0  0  0  0  0
  -25.9378  -30.8270   21.3682 C   0  0  0  0  0  0
  -26.0128  -29.4631   20.7095 C   0  0  0  0  0  0
  -27.2022  -28.6939   20.6971 C   0  0  0  0  0  0
  -26.0394  -26.9509   19.4688 C   0  0  0  0  0  0
  -24.8593  -27.7136   19.4814 C   0  0  0  0  0  0
  -23.6127  -29.8372   20.1649 C   0  0  0  0  0  0
  -25.4117  -36.3127   24.0337 C   0  0  1  0  0  0
  -20.5879  -28.3663   23.1314 C   0  0  2  0  0  0
  -20.6783  -26.9399   22.5417 C   0  0  0  0  0  0
  -19.5758  -26.6381   21.5222 C   0  0  0  0  0  0
  -18.1934  -26.7923   22.1627 C   0  0  0  0  0  0
  -19.1535  -28.8838   23.2904 C   0  0  0  0  0  0
  -18.9450  -30.1445   23.8909 C   0  0  0  0  0  0
  -17.6449  -30.6577   24.0564 C   0  0  0  0  0  0
  -25.9036  -34.9485   23.5135 C   0  0  0  0  0  0
  -16.5345  -29.9075   23.6320 C   0  0  0  0  0  0
  -16.7272  -28.6498   23.0337 C   0  0  0  0  0  0
  -26.4463  -31.6609   25.0736 C   0  0  0  0  0  0
  -25.3725  -31.3687   26.1476 C   0  0  0  0  0  0
  -27.0281  -30.3059   24.6082 C   0  0  0  0  0  0
  -27.6063  -32.4319   25.7480 C   0  0  0  0  0  0
  -27.5588  -37.1812   24.8467 C   0  0  0  0  0  0
  -21.4162  -29.3024   22.3715 N   0  0  0  0  0  0
  -26.4308  -37.3802   23.9404 N   0  0  0  0  0  0
  -24.6722  -31.0768   22.1027 N   0  0  0  0  0  0
  -23.4204  -28.8188   23.3026 O   0  0  0  0  0  0
  -28.3779  -26.6416   20.1502 O   0  0  0  0  0  0
  -26.5593  -34.8922   22.4694 O   0  0  0  0  0  0
  -23.5338  -32.1462   23.7479 O   0  0  0  0  0  0
  -29.3954  -20.4672   20.7892 C   0  0  0  0  0  0
  -30.0187  -21.7396   20.6999 C   0  0  0  0  0  0
  -30.0748  -19.3932   21.4290 C   0  0  0  0  0  0
  -31.3169  -21.8297   21.2642 C   0  0  0  0  0  0
  -32.1773  -23.0737   21.1759 C   0  0  0  0  0  0
  -28.1956  -17.7856   20.7525 C   0  0  0  0  0  0
  -29.1258  -17.7225   23.0631 C   0  0  0  0  0  0
  -29.3063  -22.8767   19.9357 C   0  0  0  0  0  0
  -29.3577  -24.3357   20.4862 C   0  0  0  0  0  0
  -30.5208  -16.8788   21.1134 C   0  0  0  0  0  0
  -28.2470  -25.2287   19.8770 C   0  0  0  0  0  0
  -29.4882  -17.9577   21.5826 C   0  0  0  0  0  0
  -31.2922  -19.5989   21.9929 N   0  0  0  0  0  0
  -31.9013  -20.7847   21.9030 N   0  0  0  0  0  0
  -30.0497  -15.4774   21.1498 N   0  0  0  0  0  0
  -31.4653  -12.3844   19.1316 H   0  0  0  0  0  0
  -30.3043  -11.2902   19.8199 H   0  0  0  0  0  0
  -29.7329  -11.7766   17.4315 H   0  0  0  0  0  0
  -29.6765  -13.4889   17.7669 H   0  0  0  0  0  0
  -27.8219  -11.3187   18.8114 H   0  0  0  0  0  0
  -27.3696  -12.6522   17.7854 H   0  0  0  0  0  0
  -27.7075  -14.2617   19.5843 H   0  0  0  0  0  0
  -28.6685  -11.9577   21.3422 H   0  0  0  0  0  0
  -28.4637  -13.5966   21.8766 H   0  0  0  0  0  0
  -25.2761   -9.5679   22.4764 H   0  0  0  0  0  0
  -23.9996   -7.4628   22.7472 H   0  0  0  0  0  0
  -21.0839   -8.8784   19.8948 H   0  0  0  0  0  0
  -22.3705  -10.9680   19.6156 H   0  0  0  0  0  0
  -21.2007   -7.6142   23.9726 H   0  0  0  0  0  0
  -21.1476   -6.0520   25.9090 H   0  0  0  0  0  0
  -22.0594   -2.7600   23.2867 H   0  0  0  0  0  0
  -22.4070  -11.9884   22.4825 H   0  0  0  0  0  0
  -21.1080  -13.1245   22.2590 H   0  0  0  0  0  0
  -24.6515  -15.8377   20.5073 H   0  0  0  0  0  0
  -26.2596  -15.6234   20.0389 H   0  0  0  0  0  0
  -26.7102  -32.5525   23.1172 H   0  0  0  0  0  0
  -25.0085  -33.9821   25.0506 H   0  0  0  0  0  0
  -22.6934  -31.3121   21.4191 H   0  0  0  0  0  0
  -23.3761  -35.9638   23.3319 H   0  0  0  0  0  0
  -24.3595  -36.8910   22.2048 H   0  0  0  0  0  0
  -23.7231  -37.6521   23.6638 H   0  0  0  0  0  0
  -26.0511  -31.5938   20.6007 H   0  0  0  0  0  0
  -26.8265  -30.8791   21.9863 H   0  0  0  0  0  0
  -28.0997  -29.0706   21.1686 H   0  0  0  0  0  0
  -25.9953  -25.9983   18.9633 H   0  0  0  0  0  0
  -23.9671  -27.3328   19.0026 H   0  0  0  0  0  0
  -23.7189  -30.6187   19.4117 H   0  0  0  0  0  0
  -22.7355  -29.2600   19.8670 H   0  0  0  0  0  0
  -25.1290  -36.2009   25.0828 H   0  0  0  0  0  0
  -20.9971  -28.3219   24.1440 H   0  0  0  0  0  0
  -20.5726  -26.2257   23.3597 H   0  0  0  0  0  0
  -21.6645  -26.7468   22.1180 H   0  0  0  0  0  0
  -19.6925  -25.6300   21.1235 H   0  0  0  0  0  0
  -19.6697  -27.3207   20.6759 H   0  0  0  0  0  0
  -17.4213  -26.6687   21.4016 H   0  0  0  0  0  0
  -18.0323  -26.0060   22.9012 H   0  0  0  0  0  0
  -19.7925  -30.7266   24.2286 H   0  0  0  0  0  0
  -17.4998  -31.6262   24.5156 H   0  0  0  0  0  0
  -15.5345  -30.2971   23.7642 H   0  0  0  0  0  0
  -15.8681  -28.0828   22.7021 H   0  0  0  0  0  0
  -24.5926  -30.7008   25.7798 H   0  0  0  0  0  0
  -24.8868  -32.2816   26.4931 H   0  0  0  0  0  0
  -25.8067  -30.8856   27.0237 H   0  0  0  0  0  0
  -26.2802  -29.6842   24.1138 H   0  0  0  0  0  0
  -27.4077  -29.7268   25.4509 H   0  0  0  0  0  0
  -27.8634  -30.4404   23.9206 H   0  0  0  0  0  0
  -27.2729  -33.3637   26.2064 H   0  0  0  0  0  0
  -28.3853  -32.6851   25.0276 H   0  0  0  0  0  0
  -28.0752  -31.8435   26.5379 H   0  0  0  0  0  0
  -28.2612  -38.0105   24.7526 H   0  0  0  0  0  0
  -28.1083  -36.2637   24.6295 H   0  0  0  0  0  0
  -27.2306  -37.1463   25.8871 H   0  0  0  0  0  0
  -20.9328  -29.8739   21.6930 H   0  0  0  0  0  0
  -26.0208  -38.2884   24.1403 H   0  0  0  0  0  0
  -28.4200  -20.3255   20.3520 H   0  0  0  0  0  0
  -33.2061  -22.8637   21.4707 H   0  0  0  0  0  0
  -31.7965  -23.8510   21.8381 H   0  0  0  0  0  0
  -32.2035  -23.4504   20.1539 H   0  0  0  0  0  0
  -27.4125  -18.4643   21.0901 H   0  0  0  0  0  0
  -27.7845  -16.7809   20.8344 H   0  0  0  0  0  0
  -28.3762  -17.9785   19.6943 H   0  0  0  0  0  0
  -28.4015  -18.4615   23.4085 H   0  0  0  0  0  0
  -30.0034  -17.8013   23.7058 H   0  0  0  0  0  0
  -28.6954  -16.7346   23.2261 H   0  0  0  0  0  0
  -28.2562  -22.5936   19.8598 H   0  0  0  0  0  0
  -29.6808  -22.8742   18.9113 H   0  0  0  0  0  0
  -30.3246  -24.7871   20.2702 H   0  0  0  0  0  0
  -29.2423  -24.3334   21.5711 H   0  0  0  0  0  0
  -31.4239  -16.9374   21.7230 H   0  0  0  0  0  0
  -30.8280  -17.1137   20.0922 H   0  0  0  0  0  0
  -27.3057  -24.8434   20.2739 H   0  0  0  0  0  0
  -28.2209  -25.0934   18.7949 H   0  0  0  0  0  0
  -29.1357  -15.2893   21.5316 H   0  0  0  0  0  0
  1 25  1  0  0  0
  1 30  2  0  0  0
  1 85  1  0  0  0
  2  3  1  0  0  0
  2 25  1  0  0  0
  2 86  1  0  0  0
  2 87  1  0  0  0
  3  4  1  0  0  0
  3 88  1  0  0  0
  3 89  1  0  0  0
  4  5  1  0  0  0
  4 90  1  0  0  0
  4 91  1  0  0  0
  5  6  1  0  0  0
  5 26  1  0  0  0
  5 92  1  0  0  0
  6 25  1  0  0  0
  6 93  1  0  0  0
  6 94  1  0  0  0
  7  8  2  0  0  0
  7 26  1  0  0  0
  7 29  1  0  0  0
  8  9  1  0  0  0
  8 22  1  0  0  0
  9 10  1  0  0  0
  9 27  2  0  0  0
 10 11  2  0  0  0
 10 15  1  0  0  0
 11 12  1  0  0  0
 11 95  1  0  0  0
 12 13  2  0  0  0
 12 96  1  0  0  0
 13 14  1  0  0  0
 13 31  1  0  0  0
 14 15  2  0  0  0
 14 97  1  0  0  0
 15 98  1  0  0  0
 16 17  2  0  0  0
 16 21  1  0  0  0
 16 31  1  0  0  0
 17 18  1  0  0  0
 17 99  1  0  0  0
 18 19  2  0  0  0
 18100  1  0  0  0
 19 20  1  0  0  0
 19 24  1  0  0  0
 20 21  2  0  0  0
 20101  1  0  0  0
 21 23  1  0  0  0
 22 28  1  0  0  0
 22 32  2  0  0  0
 26 27  1  0  0  0
 28102  1  0  0  0
 28103  1  0  0  0
 29104  1  0  0  0
 29105  1  0  0  0
 33 34  1  0  0  0
 33 66  1  0  0  0
 33 70  2  0  0  0
 34 36  1  0  0  0
 34 59  1  0  0  0
 34106  1  0  0  0
 35 44  2  0  0  0
 35 45  1  0  0  0
 35 68  1  0  0  0
 36 56  1  0  0  0
 36107  1  0  0  0
 37 39  1  0  0  0
 37 47  1  0  0  0
 37 66  1  0  0  0
 37108  1  0  0  0
 38 43  2  0  0  0
 38 46  1  0  0  0
 38 47  1  0  0  0
 39 64  1  0  0  0
 39 67  2  0  0  0
 40 52  1  0  0  0
 40 53  2  0  0  0
 40 58  1  0  0  0
 41109  1  0  0  0
 41110  1  0  0  0
 41111  1  0  0  0
 41 48  1  0  0  0
 42 43  1  0  0  0
 42 66  1  0  0  0
 42112  1  0  0  0
 42113  1  0  0  0
 43 44  1  0  0  0
 44114  1  0  0  0
 45 46  2  0  0  0
 45115  1  0  0  0
 46116  1  0  0  0
 47117  1  0  0  0
 47118  1  0  0  0
 48 56  1  0  0  0
 48 65  1  0  0  0
 48119  1  0  0  0
 49 50  1  0  0  0
 49 53  1  0  0  0
 49 64  1  0  0  0
 49120  1  0  0  0
 50 51  1  0  0  0
 50121  1  0  0  0
 50122  1  0  0  0
 51 52  1  0  0  0
 51123  1  0  0  0
 51124  1  0  0  0
 52125  1  0  0  0
 52126  1  0  0  0
 53 54  1  0  0  0
 54 55  2  0  0  0
 54127  1  0  0  0
 55 57  1  0  0  0
 55128  1  0  0  0
 56 69  2  0  0  0
 57 58  2  0  0  0
 57129  1  0  0  0
 58130  1  0  0  0
 59 60  1  0  0  0
 59 61  1  0  0  0
 59 62  1  0  0  0
 60131  1  0  0  0
 60132  1  0  0  0
 60133  1  0  0  0
 61134  1  0  0  0
 61135  1  0  0  0
 61136  1  0  0  0
 62137  1  0  0  0
 62138  1  0  0  0
 62139  1  0  0  0
 63 65  1  0  0  0
 63140  1  0  0  0
 63141  1  0  0  0
 63142  1  0  0  0
 64143  1  0  0  0
 65144  1  0  0  0
 68 81  1  0  0  0
 71 72  2  0  0  0
 71 73  1  0  0  0
 71145  1  0  0  0
 72 74  1  0  0  0
 72 78  1  0  0  0
 73 82  1  0  0  0
 73 83  2  0  0  0
 74 75  1  0  0  0
 74 84  2  0  0  0
 75146  1  0  0  0
 75147  1  0  0  0
 75148  1  0  0  0
 76149  1  0  0  0
 76150  1  0  0  0
 76151  1  0  0  0
 76 82  1  0  0  0
 77 82  1  0  0  0
 77152  1  0  0  0
 77153  1  0  0  0
 77154  1  0  0  0
 78 79  1  0  0  0
 78155  1  0  0  0
 78156  1  0  0  0
 79 81  1  0  0  0
 79157  1  0  0  0
 79158  1  0  0  0
 80 82  1  0  0  0
 80 85  1  0  0  0
 80159  1  0  0  0
 80160  1  0  0  0
 81161  1  0  0  0
 81162  1  0  0  0
 83 84  1  0  0  0
 85163  1  0  0  0
M  ISO  4   1 100  68 101  81 101  85 100
M  END
> <chiral flag>
0

> <version>
0

> <s_m_source_file>
/data/baiqing/PycharmProjects/Reinvent-master-3.2/result/LINK_invent/BTK/process_docking_weight1_custom_sum_contain_oxygen_bond_distance_aromatic_linkinvent_7_9_3/rearranged_h_0084.sdf

> <i_m_source_file_index>
47

> <r_mmod_Potential_Energy-OPLS-2005>
-87.254020690918

> <r_mmod_Stretch_Energy-OPLS-2005>
46.489818572998

> <r_mmod_Bend_Energy-OPLS-2005>
113.088287353516

> <r_mmod_Torsional_Energy-OPLS-2005>
195.393173217773

> <r_mmod_Improper_Torsional_Energy-OPLS-2005>
3.7929310798645

> <r_mmod_Van_der_Waal_Energy-OPLS-2005>
166.956497192383

> <r_mmod_Electrostatic_Energy-OPLS-2005>
-396.953796386719

> <r_mmod_Solvation_Energy-OPLS-2005>
-231.140548706055

> <b_mmod_Minimization_Converged-OPLS-2005>
0

> <r_mmod_RMS_Derivative-OPLS-2005>
1.77644085884094

$$$$
47
                    3D
 Structure written by MMmdl.
170178  0  0  1  0            999 V2000
  -30.6372  -14.5794   20.5508 C   0  0  0  0  0  0
  -30.4322  -12.3632   19.4491 C   0  0  0  0  0  0
  -29.4999  -12.4964   18.2272 C   0  0  0  0  0  0
  -28.0287  -12.3216   18.6516 C   0  0  0  0  0  0
  -27.6499  -13.2071   19.8651 C   0  0  2  0  0  0
  -28.6912  -13.0493   20.9963 C   0  0  0  0  0  0
  -25.2517  -13.8138   20.5683 C   0  0  0  0  0  0
  -24.1789  -13.0369   20.9209 C   0  0  0  0  0  0
  -24.6371  -11.6877   20.8778 C   0  0  0  0  0  0
  -23.9038  -10.4248   21.0454 C   0  0  0  0  0  0
  -24.3591   -9.4177   21.9221 C   0  0  0  0  0  0
  -23.6274   -8.2217   22.0746 C   0  0  0  0  0  0
  -22.4255   -8.0266   21.3543 C   0  0  0  0  0  0
  -21.9894   -9.0239   20.4651 C   0  0  0  0  0  0
  -22.7228  -10.2113   20.3095 C   0  0  0  0  0  0
  -21.6824   -6.0731   22.5284 C   0  0  0  0  0  0
  -21.4018   -6.5644   23.8220 C   0  0  0  0  0  0
  -21.3664   -5.6805   24.9178 C   0  0  0  0  0  0
  -21.6062   -4.3068   24.7230 C   0  0  0  0  0  0
  -21.8825   -3.8154   23.4345 C   0  0  0  0  0  0
  -21.9196   -4.6966   22.3407 C   0  0  0  0  0  0
  -22.7871  -13.5239   21.1876 C   0  0  0  0  0  0
  -22.1668   -4.2159   21.0980 F   0  0  0  0  0  0
  -21.5620   -3.4543   25.7739 F   0  0  0  0  0  0
  -30.0120  -13.3724   20.4414 N   0  0  0  0  0  0
  -26.2943  -12.9307   20.3350 N   0  0  0  0  0  0
  -25.9293  -11.6460   20.5808 N   0  0  0  0  0  0
  -22.0496  -12.8224   22.0430 N   0  0  0  0  0  0
  -25.4101  -15.1840   20.4006 N   0  0  0  0  0  0
  -31.7789  -14.7660   20.1203 O   0  0  0  0  0  0
  -21.6628   -6.8867   21.4246 O   0  0  0  0  0  0
  -22.3573  -14.5522   20.6703 O   0  0  0  0  0  0
  -24.6285  -31.8667   23.2051 C   0  0  0  0  0  0
  -25.9130  -32.4817   23.8401 C   0  0  1  0  0  0
  -27.2142  -27.3751   20.0936 C   0  0  0  0  0  0
  -25.5946  -33.8616   24.2349 N   0  0  0  0  0  0
  -23.4095  -30.4968   21.5571 C   0  0  2  0  0  0
  -24.8402  -28.9504   20.1273 C   0  0  0  0  0  0
  -22.7461  -29.4655   22.4992 C   0  0  0  0  0  0
  -18.0284  -28.1446   22.8485 C   0  0  0  0  0  0
  -24.1471  -36.7338   23.2630 C   0  0  0  0  0  0
  -25.9435  -30.8234   21.3479 C   0  0  0  0  0  0
  -26.0182  -29.4552   20.6893 C   0  0  0  0  0  0
  -27.2180  -28.6885   20.6364 C   0  0  0  0  0  0
  -25.9923  -26.8791   19.5927 C   0  0  0  0  0  0
  -24.8246  -27.6604   19.5779 C   0  0  0  0  0  0
  -23.6111  -29.8356   20.1720 C   0  0  0  0  0  0
  -25.4077  -36.3135   24.0351 C   0  0  1  0  0  0
  -20.5871  -28.3725   23.1326 C   0  0  2  0  0  0
  -20.6755  -26.9457   22.5411 C   0  0  0  0  0  0
  -19.5716  -26.6421   21.5231 C   0  0  0  0  0  0
  -18.1909  -26.7958   22.1641 C   0  0  0  0  0  0
  -19.1533  -28.8900   23.2906 C   0  0  0  0  0  0
  -18.9445  -30.1477   23.8950 C   0  0  0  0  0  0
  -17.6449  -30.6628   24.0581 C   0  0  0  0  0  0
  -25.9014  -34.9501   23.5148 C   0  0  0  0  0  0
  -16.5340  -29.9143   23.6332 C   0  0  0  0  0  0
  -16.7266  -28.6554   23.0359 C   0  0  0  0  0  0
  -26.4484  -31.6567   25.0747 C   0  0  0  0  0  0
  -25.3748  -31.3737   26.1522 C   0  0  0  0  0  0
  -27.0277  -30.2992   24.6098 C   0  0  0  0  0  0
  -27.6095  -32.4259   25.7554 C   0  0  0  0  0  0
  -27.5556  -37.1813   24.8461 C   0  0  0  0  0  0
  -21.4173  -29.3073   22.3721 N   0  0  0  0  0  0
  -26.4265  -37.3809   23.9430 N   0  0  0  0  0  0
  -24.6836  -31.0742   22.0968 N   0  0  0  0  0  0
  -23.4186  -28.8212   23.3087 O   0  0  0  0  0  0
  -28.3791  -26.6132   20.0310 O   0  0  0  0  0  0
  -26.5560  -34.8995   22.4701 O   0  0  0  0  0  0
  -23.5443  -32.1423   23.7416 O   0  0  0  0  0  0
  -31.1221  -22.4275   18.9520 C   0  0  0  0  0  0
  -32.3954  -21.8422   18.9779 C   0  0  0  0  0  0
  -30.0251  -21.8457   19.6382 C   0  0  0  0  0  0
  -32.5715  -20.6465   19.6657 C   0  0  0  0  0  0
  -30.3000  -20.5601   20.2693 C   0  0  0  0  0  0
  -33.9229  -19.9484   19.7003 C   0  0  0  0  0  0
  -28.1061  -20.2381   21.6364 C   0  0  0  0  0  0
  -27.5411  -24.3414   17.9943 C   0  0  0  0  0  0
  -27.7888  -17.6065   20.3815 C   0  0  0  0  0  0
  -28.6572  -22.6189   19.5770 C   0  0  0  0  0  0
  -30.2021  -17.0483   21.1704 C   0  0  0  0  0  0
  -28.3356  -25.1727   20.2976 C   0  0  0  0  0  0
  -29.3837  -19.5918   21.0765 C   0  0  1  0  0  0
  -28.5809  -24.1580   19.1170 C   0  0  1  0  0  0
  -29.2470  -18.1094   20.4753 C   0  0  2  0  0  0
  -31.5510  -20.0342   20.2821 N   0  0  0  0  0  0
  -29.8690  -15.6010   21.0228 N   0  0  0  0  0  0
  -31.4671  -12.5107   19.1393 H   0  0  0  0  0  0
  -30.3787  -11.3609   19.8797 H   0  0  0  0  0  0
  -29.7591  -11.7662   17.4602 H   0  0  0  0  0  0
  -29.6358  -13.4782   17.7720 H   0  0  0  0  0  0
  -27.9003  -11.2780   18.9324 H   0  0  0  0  0  0
  -27.3598  -12.5070   17.8087 H   0  0  0  0  0  0
  -27.6724  -14.2373   19.5124 H   0  0  0  0  0  0
  -28.6939  -12.0308   21.3898 H   0  0  0  0  0  0
  -28.4408  -13.6979   21.8369 H   0  0  0  0  0  0
  -25.2709   -9.5694   22.4798 H   0  0  0  0  0  0
  -24.0002   -7.4634   22.7458 H   0  0  0  0  0  0
  -21.0832   -8.8795   19.8964 H   0  0  0  0  0  0
  -22.3696  -10.9673   19.6245 H   0  0  0  0  0  0
  -21.1982   -7.6146   23.9740 H   0  0  0  0  0  0
  -21.1495   -6.0507   25.9094 H   0  0  0  0  0  0
  -22.0576   -2.7604   23.2849 H   0  0  0  0  0  0
  -22.4038  -11.9875   22.4836 H   0  0  0  0  0  0
  -21.1175  -13.1368   22.2670 H   0  0  0  0  0  0
  -24.6281  -15.8248   20.4698 H   0  0  0  0  0  0
  -26.2457  -15.6184   20.0254 H   0  0  0  0  0  0
  -26.7204  -32.5500   23.1160 H   0  0  0  0  0  0
  -25.0156  -33.9779   25.0534 H   0  0  0  0  0  0
  -22.7008  -31.3181   21.4285 H   0  0  0  0  0  0
  -23.3739  -35.9656   23.3280 H   0  0  0  0  0  0
  -24.3540  -36.8934   22.2032 H   0  0  0  0  0  0
  -23.7214  -37.6555   23.6605 H   0  0  0  0  0  0
  -26.0444  -31.5824   20.5711 H   0  0  0  0  0  0
  -26.8376  -30.8832   21.9568 H   0  0  0  0  0  0
  -28.1448  -29.0897   21.0241 H   0  0  0  0  0  0
  -25.9069  -25.8682   19.2417 H   0  0  0  0  0  0
  -23.9059  -27.2406   19.1876 H   0  0  0  0  0  0
  -23.7394  -30.6225   19.4245 H   0  0  0  0  0  0
  -22.7184  -29.2863   19.8634 H   0  0  0  0  0  0
  -25.1214  -36.2003   25.0821 H   0  0  0  0  0  0
  -20.9961  -28.3290   24.1473 H   0  0  0  0  0  0
  -20.5683  -26.2346   23.3614 H   0  0  0  0  0  0
  -21.6623  -26.7514   22.1203 H   0  0  0  0  0  0
  -19.6886  -25.6343   21.1252 H   0  0  0  0  0  0
  -19.6684  -27.3244   20.6777 H   0  0  0  0  0  0
  -17.4176  -26.6725   21.4048 H   0  0  0  0  0  0
  -18.0323  -26.0122   22.9062 H   0  0  0  0  0  0
  -19.7903  -30.7291   24.2340 H   0  0  0  0  0  0
  -17.5013  -31.6319   24.5186 H   0  0  0  0  0  0
  -15.5332  -30.3095   23.7674 H   0  0  0  0  0  0
  -15.8633  -28.0940   22.7071 H   0  0  0  0  0  0
  -24.5955  -30.6993   25.7919 H   0  0  0  0  0  0
  -24.8934  -32.2934   26.4849 H   0  0  0  0  0  0
  -25.8146  -30.9032   27.0326 H   0  0  0  0  0  0
  -26.2796  -29.6840   24.1070 H   0  0  0  0  0  0
  -27.3925  -29.7136   25.4537 H   0  0  0  0  0  0
  -27.8688  -30.4293   23.9310 H   0  0  0  0  0  0
  -27.2696  -33.3557   26.2128 H   0  0  0  0  0  0
  -28.3948  -32.6747   25.0417 H   0  0  0  0  0  0
  -28.0679  -31.8340   26.5481 H   0  0  0  0  0  0
  -28.2575  -38.0115   24.7518 H   0  0  0  0  0  0
  -28.1066  -36.2641   24.6249 H   0  0  0  0  0  0
  -27.2305  -37.1445   25.8885 H   0  0  0  0  0  0
  -20.9354  -29.8867   21.6991 H   0  0  0  0  0  0
  -26.0165  -38.2882   24.1469 H   0  0  0  0  0  0
  -31.0398  -23.3251   18.3660 H   0  0  0  0  0  0
  -33.2218  -22.2923   18.4465 H   0  0  0  0  0  0
  -34.2513  -19.6848   18.6958 H   0  0  0  0  0  0
  -33.8833  -19.0369   20.2948 H   0  0  0  0  0  0
  -34.6870  -20.5862   20.1487 H   0  0  0  0  0  0
  -27.5555  -19.5668   22.2952 H   0  0  0  0  0  0
  -27.4331  -20.5570   20.8461 H   0  0  0  0  0  0
  -28.3610  -21.1154   22.2385 H   0  0  0  0  0  0
  -27.8039  -23.7638   17.1101 H   0  0  0  0  0  0
  -27.5078  -25.3834   17.6698 H   0  0  0  0  0  0
  -26.5389  -24.0326   18.2953 H   0  0  0  0  0  0
  -27.7453  -16.6060   19.9527 H   0  0  0  0  0  0
  -27.2069  -18.2518   19.7211 H   0  0  0  0  0  0
  -27.2833  -17.5727   21.3447 H   0  0  0  0  0  0
  -28.1429  -22.5924   20.5322 H   0  0  0  0  0  0
  -28.0505  -22.0191   18.8982 H   0  0  0  0  0  0
  -30.2408  -17.2489   22.2428 H   0  0  0  0  0  0
  -31.2118  -17.2229   20.7976 H   0  0  0  0  0  0
  -29.1695  -25.0135   20.9843 H   0  0  0  0  0  0
  -27.4504  -24.8873   20.8699 H   0  0  0  0  0  0
  -29.9462  -19.4522   22.0010 H   0  0  0  0  0  0
  -29.4931  -24.4766   18.6390 H   0  0  0  0  0  0
  -29.5785  -18.1492   19.4394 H   0  0  0  0  0  0
  -28.9570  -15.3284   21.3610 H   0  0  0  0  0  0
  1 25  1  0  0  0
  1 30  2  0  0  0
  1 87  1  0  0  0
  2  3  1  0  0  0
  2 25  1  0  0  0
  2 88  1  0  0  0
  2 89  1  0  0  0
  3  4  1  0  0  0
  3 90  1  0  0  0
  3 91  1  0  0  0
  4  5  1  0  0  0
  4 92  1  0  0  0
  4 93  1  0  0  0
  5  6  1  0  0  0
  5 26  1  0  0  0
  5 94  1  0  0  0
  6 25  1  0  0  0
  6 95  1  0  0  0
  6 96  1  0  0  0
  7  8  2  0  0  0
  7 26  1  0  0  0
  7 29  1  0  0  0
  8  9  1  0  0  0
  8 22  1  0  0  0
  9 10  1  0  0  0
  9 27  2  0  0  0
 10 11  2  0  0  0
 10 15  1  0  0  0
 11 12  1  0  0  0
 11 97  1  0  0  0
 12 13  2  0  0  0
 12 98  1  0  0  0
 13 14  1  0  0  0
 13 31  1  0  0  0
 14 15  2  0  0  0
 14 99  1  0  0  0
 15100  1  0  0  0
 16 17  2  0  0  0
 16 21  1  0  0  0
 16 31  1  0  0  0
 17 18  1  0  0  0
 17101  1  0  0  0
 18 19  2  0  0  0
 18102  1  0  0  0
 19 20  1  0  0  0
 19 24  1  0  0  0
 20 21  2  0  0  0
 20103  1  0  0  0
 21 23  1  0  0  0
 22 28  1  0  0  0
 22 32  2  0  0  0
 26 27  1  0  0  0
 28104  1  0  0  0
 28105  1  0  0  0
 29106  1  0  0  0
 29107  1  0  0  0
 33 34  1  0  0  0
 33 66  1  0  0  0
 33 70  2  0  0  0
 34 36  1  0  0  0
 34 59  1  0  0  0
 34108  1  0  0  0
 35 44  2  0  0  0
 35 45  1  0  0  0
 35 68  1  0  0  0
 36 56  1  0  0  0
 36109  1  0  0  0
 37 39  1  0  0  0
 37 47  1  0  0  0
 37 66  1  0  0  0
 37110  1  0  0  0
 38 43  2  0  0  0
 38 46  1  0  0  0
 38 47  1  0  0  0
 39 64  1  0  0  0
 39 67  2  0  0  0
 40 52  1  0  0  0
 40 53  2  0  0  0
 40 58  1  0  0  0
 41111  1  0  0  0
 41112  1  0  0  0
 41113  1  0  0  0
 41 48  1  0  0  0
 42 43  1  0  0  0
 42 66  1  0  0  0
 42114  1  0  0  0
 42115  1  0  0  0
 43 44  1  0  0  0
 44116  1  0  0  0
 45 46  2  0  0  0
 45117  1  0  0  0
 46118  1  0  0  0
 47119  1  0  0  0
 47120  1  0  0  0
 48 56  1  0  0  0
 48 65  1  0  0  0
 48121  1  0  0  0
 49 50  1  0  0  0
 49 53  1  0  0  0
 49 64  1  0  0  0
 49122  1  0  0  0
 50 51  1  0  0  0
 50123  1  0  0  0
 50124  1  0  0  0
 51 52  1  0  0  0
 51125  1  0  0  0
 51126  1  0  0  0
 52127  1  0  0  0
 52128  1  0  0  0
 53 54  1  0  0  0
 54 55  2  0  0  0
 54129  1  0  0  0
 55 57  1  0  0  0
 55130  1  0  0  0
 56 69  2  0  0  0
 57 58  2  0  0  0
 57131  1  0  0  0
 58132  1  0  0  0
 59 60  1  0  0  0
 59 61  1  0  0  0
 59 62  1  0  0  0
 60133  1  0  0  0
 60134  1  0  0  0
 60135  1  0  0  0
 61136  1  0  0  0
 61137  1  0  0  0
 61138  1  0  0  0
 62139  1  0  0  0
 62140  1  0  0  0
 62141  1  0  0  0
 63 65  1  0  0  0
 63142  1  0  0  0
 63143  1  0  0  0
 63144  1  0  0  0
 64145  1  0  0  0
 65146  1  0  0  0
 68 82  1  0  0  0
 71 72  2  0  0  0
 71 73  1  0  0  0
 71147  1  0  0  0
 72 74  1  0  0  0
 72148  1  0  0  0
 73 75  2  0  0  0
 73 80  1  0  0  0
 74 76  1  0  0  0
 74 86  2  0  0  0
 75 83  1  0  0  0
 75 86  1  0  0  0
 76149  1  0  0  0
 76150  1  0  0  0
 76151  1  0  0  0
 77152  1  0  0  0
 77153  1  0  0  0
 77154  1  0  0  0
 77 83  1  0  0  0
 78155  1  0  0  0
 78156  1  0  0  0
 78157  1  0  0  0
 78 84  1  0  0  0
 79158  1  0  0  0
 79159  1  0  0  0
 79160  1  0  0  0
 79 85  1  0  0  0
 80 84  1  0  0  0
 80161  1  0  0  0
 80162  1  0  0  0
 81 85  1  0  0  0
 81 87  1  0  0  0
 81163  1  0  0  0
 81164  1  0  0  0
 82 84  1  0  0  0
 82165  1  0  0  0
 82166  1  0  0  0
 83 85  1  0  0  0
 83167  1  0  0  0
 84168  1  0  0  0
 85169  1  0  0  0
 87170  1  0  0  0
M  ISO  4   1 100  68 101  82 101  87 100
M  END
> <chiral flag>
0

> <version>
0

> <s_m_source_file>
/data/baiqing/PycharmProjects/Reinvent-master-3.2/result/LINK_invent/BTK/process_docking_weight1_custom_sum_contain_oxygen_bond_distance_aromatic_linkinvent_7_9_3/rearranged_h_0084.sdf

> <i_m_source_file_index>
48

> <r_mmod_Potential_Energy-OPLS-2005>
-83.5288543701172

> <r_mmod_Stretch_Energy-OPLS-2005>
78.5088195800781

> <r_mmod_Bend_Energy-OPLS-2005>
174.732025146484

> <r_mmod_Torsional_Energy-OPLS-2005>
230.204559326172

> <r_mmod_Improper_Torsional_Energy-OPLS-2005>
3.82045388221741

> <r_mmod_Van_der_Waal_Energy-OPLS-2005>
163.217514038086

> <r_mmod_Electrostatic_Energy-OPLS-2005>
-553.809204101562

> <r_mmod_Solvation_Energy-OPLS-2005>
-210.903305053711

> <b_mmod_Minimization_Converged-OPLS-2005>
0

> <r_mmod_RMS_Derivative-OPLS-2005>
9.56646537780762

$$$$
48
                    3D
 Structure written by MMmdl.
171179  0  0  1  0            999 V2000
  -30.7472  -14.3708   20.5735 C   0  0  0  0  0  0
  -30.4158  -12.2513   19.3852 C   0  0  0  0  0  0
  -29.5012  -12.5238   18.1758 C   0  0  0  0  0  0
  -28.0109  -12.4282   18.5765 C   0  0  0  0  0  0
  -27.6747  -13.2123   19.8753 C   0  0  2  0  0  0
  -28.7191  -12.9267   20.9798 C   0  0  0  0  0  0
  -25.2639  -13.8166   20.5652 C   0  0  0  0  0  0
  -24.1885  -13.0457   20.9219 C   0  0  0  0  0  0
  -24.6454  -11.6936   20.8768 C   0  0  0  0  0  0
  -23.9102  -10.4335   21.0380 C   0  0  0  0  0  0
  -24.3674   -9.4258   21.9145 C   0  0  0  0  0  0
  -23.6371   -8.2279   22.0740 C   0  0  0  0  0  0
  -22.4344   -8.0312   21.3547 C   0  0  0  0  0  0
  -21.9963   -9.0256   20.4641 C   0  0  0  0  0  0
  -22.7279  -10.2139   20.3032 C   0  0  0  0  0  0
  -21.6842   -6.0783   22.5303 C   0  0  0  0  0  0
  -21.3997   -6.5675   23.8242 C   0  0  0  0  0  0
  -21.3670   -5.6811   24.9191 C   0  0  0  0  0  0
  -21.6043   -4.3069   24.7217 C   0  0  0  0  0  0
  -21.8822   -3.8185   23.4326 C   0  0  0  0  0  0
  -21.9187   -4.7011   22.3393 C   0  0  0  0  0  0
  -22.7895  -13.5208   21.1859 C   0  0  0  0  0  0
  -22.1650   -4.2229   21.0957 F   0  0  0  0  0  0
  -21.5653   -3.4542   25.7705 F   0  0  0  0  0  0
  -30.0579  -13.2102   20.4388 N   0  0  0  0  0  0
  -26.3102  -12.9359   20.3356 N   0  0  0  0  0  0
  -25.9372  -11.6514   20.5741 N   0  0  0  0  0  0
  -22.0470  -12.8250   22.0411 N   0  0  0  0  0  0
  -25.4272  -15.1872   20.4026 N   0  0  0  0  0  0
  -31.8511  -14.5772   20.0668 O   0  0  0  0  0  0
  -21.6658   -6.8941   21.4283 O   0  0  0  0  0  0
  -22.3576  -14.5474   20.6629 O   0  0  0  0  0  0
  -24.6165  -31.8669   23.2120 C   0  0  0  0  0  0
  -25.9047  -32.4824   23.8425 C   0  0  1  0  0  0
  -27.2362  -27.4260   20.0647 C   0  0  0  0  0  0
  -25.5904  -33.8621   24.2337 N   0  0  0  0  0  0
  -23.4059  -30.4904   21.5547 C   0  0  2  0  0  0
  -24.8457  -28.9541   20.1206 C   0  0  0  0  0  0
  -22.7433  -29.4652   22.5037 C   0  0  0  0  0  0
  -18.0273  -28.1381   22.8496 C   0  0  0  0  0  0
  -24.1486  -36.7294   23.2641 C   0  0  0  0  0  0
  -25.9400  -30.8194   21.3742 C   0  0  0  0  0  0
  -26.0109  -29.4565   20.7138 C   0  0  0  0  0  0
  -27.2062  -28.6985   20.6835 C   0  0  0  0  0  0
  -26.0390  -26.9364   19.4846 C   0  0  0  0  0  0
  -24.8540  -27.6931   19.5087 C   0  0  0  0  0  0
  -23.6088  -29.8187   20.1721 C   0  0  0  0  0  0
  -25.4113  -36.3109   24.0342 C   0  0  1  0  0  0
  -20.5868  -28.3634   23.1319 C   0  0  2  0  0  0
  -20.6754  -26.9377   22.5397 C   0  0  0  0  0  0
  -19.5731  -26.6379   21.5197 C   0  0  0  0  0  0
  -18.1918  -26.7925   22.1624 C   0  0  0  0  0  0
  -19.1524  -28.8825   23.2901 C   0  0  0  0  0  0
  -18.9446  -30.1453   23.8897 C   0  0  0  0  0  0
  -17.6443  -30.6572   24.0562 C   0  0  0  0  0  0
  -25.9041  -34.9476   23.5127 C   0  0  0  0  0  0
  -16.5333  -29.9070   23.6342 C   0  0  0  0  0  0
  -16.7264  -28.6485   23.0358 C   0  0  0  0  0  0
  -26.4443  -31.6636   25.0789 C   0  0  0  0  0  0
  -25.3693  -31.3734   26.1531 C   0  0  0  0  0  0
  -27.0267  -30.3079   24.6216 C   0  0  0  0  0  0
  -27.6056  -32.4340   25.7501 C   0  0  0  0  0  0
  -27.5584  -37.1801   24.8466 C   0  0  0  0  0  0
  -21.4153  -29.3012   22.3751 N   0  0  0  0  0  0
  -26.4287  -37.3802   23.9427 N   0  0  0  0  0  0
  -24.6727  -31.0747   22.1034 N   0  0  0  0  0  0
  -23.4199  -28.8185   23.3065 O   0  0  0  0  0  0
  -28.4268  -26.7134   20.0354 O   0  0  0  0  0  0
  -26.5614  -34.8918   22.4703 O   0  0  0  0  0  0
  -23.5341  -32.1410   23.7497 O   0  0  0  0  0  0
  -31.1109  -21.7590   22.0134 C   0  0  0  0  0  0
  -31.7966  -20.8315   22.8176 C   0  0  0  0  0  0
  -29.6003  -19.9955   21.2798 C   0  0  0  0  0  0
  -30.0104  -21.3530   21.2296 C   0  0  0  0  0  0
  -31.3871  -19.4820   22.8730 C   0  0  0  0  0  0
  -30.2642  -19.0556   22.1122 C   0  0  0  0  0  0
  -32.1775  -18.5278   23.7599 C   0  0  0  0  0  0
  -28.2475  -17.4504   22.2121 C   0  0  0  0  0  0
  -28.9591  -22.8561   17.9588 C   0  0  0  0  0  0
  -31.2490  -22.7209   18.8824 C   0  0  0  0  0  0
  -29.1789  -22.3794   20.4472 C   0  0  0  0  0  0
  -29.7860  -24.6986   19.4831 C   0  0  0  0  0  0
  -30.4188  -16.7702   21.0485 C   0  0  0  0  0  0
  -28.3881  -25.3671   19.5354 C   0  0  0  0  0  0
  -29.7819  -17.5952   22.1762 C   0  0  1  0  0  0
  -29.8027  -23.1520   19.2223 C   0  0  0  0  0  0
  -30.0652  -15.3564   21.1600 N   0  0  0  0  0  0
  -31.4619  -12.3315   19.0847 H   0  0  0  0  0  0
  -30.2818  -11.2252   19.7314 H   0  0  0  0  0  0
  -29.7191  -11.8223   17.3689 H   0  0  0  0  0  0
  -29.7213  -13.5150   17.7744 H   0  0  0  0  0  0
  -27.7588  -11.3741   18.6922 H   0  0  0  0  0  0
  -27.3901  -12.7979   17.7571 H   0  0  0  0  0  0
  -27.7326  -14.2765   19.6371 H   0  0  0  0  0  0
  -28.6729  -11.8776   21.2649 H   0  0  0  0  0  0
  -28.5041  -13.4937   21.8852 H   0  0  0  0  0  0
  -25.2817   -9.5742   22.4734 H   0  0  0  0  0  0
  -24.0115   -7.4638   22.7414 H   0  0  0  0  0  0
  -21.0898   -8.8743   19.8929 H   0  0  0  0  0  0
  -22.3709  -10.9679   19.6167 H   0  0  0  0  0  0
  -21.1981   -7.6179   23.9777 H   0  0  0  0  0  0
  -21.1485   -6.0518   25.9096 H   0  0  0  0  0  0
  -22.0594   -2.7657   23.2762 H   0  0  0  0  0  0
  -22.4042  -11.9997   22.5038 H   0  0  0  0  0  0
  -21.1015  -13.1231   22.2395 H   0  0  0  0  0  0
  -24.6534  -15.8343   20.5097 H   0  0  0  0  0  0
  -26.2657  -15.6328   20.0545 H   0  0  0  0  0  0
  -26.7127  -32.5492   23.1182 H   0  0  0  0  0  0
  -25.0083  -33.9811   25.0501 H   0  0  0  0  0  0
  -22.6955  -31.3079   21.4141 H   0  0  0  0  0  0
  -23.3763  -35.9609   23.3314 H   0  0  0  0  0  0
  -24.3567  -36.8893   22.2050 H   0  0  0  0  0  0
  -23.7203  -37.6488   23.6641 H   0  0  0  0  0  0
  -26.0771  -31.5882   20.6133 H   0  0  0  0  0  0
  -26.8183  -30.8542   22.0067 H   0  0  0  0  0  0
  -28.1085  -29.0843   21.1365 H   0  0  0  0  0  0
  -25.9858  -25.9752   18.9959 H   0  0  0  0  0  0
  -23.9558  -27.3013   19.0485 H   0  0  0  0  0  0
  -23.7101  -30.5845   19.4030 H   0  0  0  0  0  0
  -22.7347  -29.2291   19.8867 H   0  0  0  0  0  0
  -25.1284  -36.1978   25.0829 H   0  0  0  0  0  0
  -20.9967  -28.3178   24.1440 H   0  0  0  0  0  0
  -20.5636  -26.2255   23.3580 H   0  0  0  0  0  0
  -21.6626  -26.7413   22.1200 H   0  0  0  0  0  0
  -19.6892  -25.6290   21.1227 H   0  0  0  0  0  0
  -19.6679  -27.3187   20.6729 H   0  0  0  0  0  0
  -17.4192  -26.6675   21.4035 H   0  0  0  0  0  0
  -18.0333  -26.0047   22.9001 H   0  0  0  0  0  0
  -19.7919  -30.7273   24.2265 H   0  0  0  0  0  0
  -17.4987  -31.6267   24.5147 H   0  0  0  0  0  0
  -15.5328  -30.2955   23.7669 H   0  0  0  0  0  0
  -15.8670  -28.0793   22.7086 H   0  0  0  0  0  0
  -24.5891  -30.7063   25.7852 H   0  0  0  0  0  0
  -24.8846  -32.2867   26.4994 H   0  0  0  0  0  0
  -25.8022  -30.8893   27.0298 H   0  0  0  0  0  0
  -26.2835  -29.6872   24.1218 H   0  0  0  0  0  0
  -27.3941  -29.7304   25.4705 H   0  0  0  0  0  0
  -27.8712  -30.4387   23.9452 H   0  0  0  0  0  0
  -27.2761  -33.3667   26.2085 H   0  0  0  0  0  0
  -28.3835  -32.6856   25.0282 H   0  0  0  0  0  0
  -28.0771  -31.8469   26.5389 H   0  0  0  0  0  0
  -28.2599  -38.0101   24.7550 H   0  0  0  0  0  0
  -28.1071  -36.2644   24.6238 H   0  0  0  0  0  0
  -27.2316  -37.1386   25.8866 H   0  0  0  0  0  0
  -20.9346  -29.8716   21.6935 H   0  0  0  0  0  0
  -26.0178  -38.2877   24.1437 H   0  0  0  0  0  0
  -31.4382  -22.7901   22.0125 H   0  0  0  0  0  0
  -32.6429  -21.1655   23.4019 H   0  0  0  0  0  0
  -28.7433  -19.6869   20.6955 H   0  0  0  0  0  0
  -32.6235  -17.7294   23.1672 H   0  0  0  0  0  0
  -31.5518  -18.0768   24.5311 H   0  0  0  0  0  0
  -32.9870  -19.0459   24.2779 H   0  0  0  0  0  0
  -27.8123  -18.1344   22.9395 H   0  0  0  0  0  0
  -27.9459  -16.4434   22.5052 H   0  0  0  0  0  0
  -27.7892  -17.6553   21.2414 H   0  0  0  0  0  0
  -29.0211  -21.8063   17.6702 H   0  0  0  0  0  0
  -29.2952  -23.4527   17.1076 H   0  0  0  0  0  0
  -27.9023  -23.0763   18.1105 H   0  0  0  0  0  0
  -31.2874  -21.6889   18.5285 H   0  0  0  0  0  0
  -31.9297  -22.7995   19.7264 H   0  0  0  0  0  0
  -31.6728  -23.3422   18.0915 H   0  0  0  0  0  0
  -28.8280  -23.0978   21.1850 H   0  0  0  0  0  0
  -28.2666  -21.8738   20.1309 H   0  0  0  0  0  0
  -30.3350  -24.9123   20.4020 H   0  0  0  0  0  0
  -30.3441  -25.1998   18.6875 H   0  0  0  0  0  0
  -31.5014  -16.9011   21.0692 H   0  0  0  0  0  0
  -30.0818  -17.1316   20.0773 H   0  0  0  0  0  0
  -27.7067  -24.7780   20.1521 H   0  0  0  0  0  0
  -27.9928  -25.3731   18.5188 H   0  0  0  0  0  0
  -30.1209  -17.1614   23.1171 H   0  0  0  0  0  0
  -29.1646  -15.1227   21.5467 H   0  0  0  0  0  0
  1 25  1  0  0  0
  1 30  2  0  0  0
  1 87  1  0  0  0
  2  3  1  0  0  0
  2 25  1  0  0  0
  2 88  1  0  0  0
  2 89  1  0  0  0
  3  4  1  0  0  0
  3 90  1  0  0  0
  3 91  1  0  0  0
  4  5  1  0  0  0
  4 92  1  0  0  0
  4 93  1  0  0  0
  5  6  1  0  0  0
  5 26  1  0  0  0
  5 94  1  0  0  0
  6 25  1  0  0  0
  6 95  1  0  0  0
  6 96  1  0  0  0
  7  8  2  0  0  0
  7 26  1  0  0  0
  7 29  1  0  0  0
  8  9  1  0  0  0
  8 22  1  0  0  0
  9 10  1  0  0  0
  9 27  2  0  0  0
 10 11  2  0  0  0
 10 15  1  0  0  0
 11 12  1  0  0  0
 11 97  1  0  0  0
 12 13  2  0  0  0
 12 98  1  0  0  0
 13 14  1  0  0  0
 13 31  1  0  0  0
 14 15  2  0  0  0
 14 99  1  0  0  0
 15100  1  0  0  0
 16 17  2  0  0  0
 16 21  1  0  0  0
 16 31  1  0  0  0
 17 18  1  0  0  0
 17101  1  0  0  0
 18 19  2  0  0  0
 18102  1  0  0  0
 19 20  1  0  0  0
 19 24  1  0  0  0
 20 21  2  0  0  0
 20103  1  0  0  0
 21 23  1  0  0  0
 22 28  1  0  0  0
 22 32  2  0  0  0
 26 27  1  0  0  0
 28104  1  0  0  0
 28105  1  0  0  0
 29106  1  0  0  0
 29107  1  0  0  0
 33 34  1  0  0  0
 33 66  1  0  0  0
 33 70  2  0  0  0
 34 36  1  0  0  0
 34 59  1  0  0  0
 34108  1  0  0  0
 35 44  2  0  0  0
 35 45  1  0  0  0
 35 68  1  0  0  0
 36 56  1  0  0  0
 36109  1  0  0  0
 37 39  1  0  0  0
 37 47  1  0  0  0
 37 66  1  0  0  0
 37110  1  0  0  0
 38 43  2  0  0  0
 38 46  1  0  0  0
 38 47  1  0  0  0
 39 64  1  0  0  0
 39 67  2  0  0  0
 40 52  1  0  0  0
 40 53  2  0  0  0
 40 58  1  0  0  0
 41111  1  0  0  0
 41112  1  0  0  0
 41113  1  0  0  0
 41 48  1  0  0  0
 42 43  1  0  0  0
 42 66  1  0  0  0
 42114  1  0  0  0
 42115  1  0  0  0
 43 44  1  0  0  0
 44116  1  0  0  0
 45 46  2  0  0  0
 45117  1  0  0  0
 46118  1  0  0  0
 47119  1  0  0  0
 47120  1  0  0  0
 48 56  1  0  0  0
 48 65  1  0  0  0
 48121  1  0  0  0
 49 50  1  0  0  0
 49 53  1  0  0  0
 49 64  1  0  0  0
 49122  1  0  0  0
 50 51  1  0  0  0
 50123  1  0  0  0
 50124  1  0  0  0
 51 52  1  0  0  0
 51125  1  0  0  0
 51126  1  0  0  0
 52127  1  0  0  0
 52128  1  0  0  0
 53 54  1  0  0  0
 54 55  2  0  0  0
 54129  1  0  0  0
 55 57  1  0  0  0
 55130  1  0  0  0
 56 69  2  0  0  0
 57 58  2  0  0  0
 57131  1  0  0  0
 58132  1  0  0  0
 59 60  1  0  0  0
 59 61  1  0  0  0
 59 62  1  0  0  0
 60133  1  0  0  0
 60134  1  0  0  0
 60135  1  0  0  0
 61136  1  0  0  0
 61137  1  0  0  0
 61138  1  0  0  0
 62139  1  0  0  0
 62140  1  0  0  0
 62141  1  0  0  0
 63 65  1  0  0  0
 63142  1  0  0  0
 63143  1  0  0  0
 63144  1  0  0  0
 64145  1  0  0  0
 65146  1  0  0  0
 68 84  1  0  0  0
 71 72  2  0  0  0
 71 74  1  0  0  0
 71147  1  0  0  0
 72 75  1  0  0  0
 72148  1  0  0  0
 73 74  2  0  0  0
 73 76  1  0  0  0
 73149  1  0  0  0
 74 81  1  0  0  0
 75 76  2  0  0  0
 75 77  1  0  0  0
 76 85  1  0  0  0
 77150  1  0  0  0
 77151  1  0  0  0
 77152  1  0  0  0
 78153  1  0  0  0
 78154  1  0  0  0
 78155  1  0  0  0
 78 85  1  0  0  0
 79156  1  0  0  0
 79157  1  0  0  0
 79158  1  0  0  0
 79 86  1  0  0  0
 80 86  1  0  0  0
 80159  1  0  0  0
 80160  1  0  0  0
 80161  1  0  0  0
 81 86  1  0  0  0
 81162  1  0  0  0
 81163  1  0  0  0
 82 84  1  0  0  0
 82 86  1  0  0  0
 82164  1  0  0  0
 82165  1  0  0  0
 83 85  1  0  0  0
 83 87  1  0  0  0
 83166  1  0  0  0
 83167  1  0  0  0
 84168  1  0  0  0
 84169  1  0  0  0
 85170  1  0  0  0
 87171  1  0  0  0
M  ISO  4   1 100  68 101  84 101  87 100
M  END
> <chiral flag>
0

> <version>
0

> <s_m_source_file>
/data/baiqing/PycharmProjects/Reinvent-master-3.2/result/LINK_invent/BTK/process_docking_weight1_custom_sum_contain_oxygen_bond_distance_aromatic_linkinvent_7_9_3/rearranged_h_0084.sdf

> <i_m_source_file_index>
49

> <r_mmod_Potential_Energy-OPLS-2005>
-61.5795669555664

> <r_mmod_Stretch_Energy-OPLS-2005>
42.833610534668

> <r_mmod_Bend_Energy-OPLS-2005>
108.217315673828

> <r_mmod_Torsional_Energy-OPLS-2005>
207.115509033203

> <r_mmod_Improper_Torsional_Energy-OPLS-2005>
4.67681694030762

> <r_mmod_Van_der_Waal_Energy-OPLS-2005>
166.940063476562

> <r_mmod_Electrostatic_Energy-OPLS-2005>
-406.501892089844

> <r_mmod_Solvation_Energy-OPLS-2005>
-196.282577514648

> <b_mmod_Minimization_Converged-OPLS-2005>
0

> <r_mmod_RMS_Derivative-OPLS-2005>
6.04380655288696

$$$$
49
                    3D
 Structure written by MMmdl.
162170  0  0  1  0            999 V2000
  -30.6879  -14.4245   20.6134 C   0  0  0  0  0  0
  -30.4291  -12.2913   19.4112 C   0  0  0  0  0  0
  -29.4997  -12.5322   18.2047 C   0  0  0  0  0  0
  -28.0198  -12.3825   18.6101 C   0  0  0  0  0  0
  -27.6691  -13.1957   19.8846 C   0  0  2  0  0  0
  -28.7057  -12.9282   21.0003 C   0  0  0  0  0  0
  -25.2638  -13.8139   20.5656 C   0  0  0  0  0  0
  -24.1872  -13.0436   20.9147 C   0  0  0  0  0  0
  -24.6405  -11.6898   20.8709 C   0  0  0  0  0  0
  -23.9061  -10.4288   21.0390 C   0  0  0  0  0  0
  -24.3618   -9.4209   21.9178 C   0  0  0  0  0  0
  -23.6292   -8.2245   22.0756 C   0  0  0  0  0  0
  -22.4275   -8.0274   21.3545 C   0  0  0  0  0  0
  -21.9908   -9.0247   20.4650 C   0  0  0  0  0  0
  -22.7230  -10.2129   20.3050 C   0  0  0  0  0  0
  -21.6860   -6.0724   22.5270 C   0  0  0  0  0  0
  -21.4014   -6.5631   23.8204 C   0  0  0  0  0  0
  -21.3670   -5.6782   24.9166 C   0  0  0  0  0  0
  -21.6056   -4.3043   24.7220 C   0  0  0  0  0  0
  -21.8826   -3.8137   23.4339 C   0  0  0  0  0  0
  -21.9200   -4.6953   22.3392 C   0  0  0  0  0  0
  -22.7898  -13.5236   21.1817 C   0  0  0  0  0  0
  -22.1665   -4.2130   21.0973 F   0  0  0  0  0  0
  -21.5637   -3.4539   25.7742 F   0  0  0  0  0  0
  -30.0428  -13.2405   20.4644 N   0  0  0  0  0  0
  -26.3068  -12.9280   20.3378 N   0  0  0  0  0  0
  -25.9325  -11.6451   20.5742 N   0  0  0  0  0  0
  -22.0535  -12.8236   22.0384 N   0  0  0  0  0  0
  -25.4400  -15.1854   20.4062 N   0  0  0  0  0  0
  -31.7727  -14.6816   20.0814 O   0  0  0  0  0  0
  -21.6646   -6.8866   21.4233 O   0  0  0  0  0  0
  -22.3590  -14.5538   20.6648 O   0  0  0  0  0  0
  -24.6166  -31.8696   23.2149 C   0  0  0  0  0  0
  -25.9074  -32.4831   23.8413 C   0  0  1  0  0  0
  -27.2166  -27.4228   20.0825 C   0  0  0  0  0  0
  -25.5950  -33.8640   24.2338 N   0  0  0  0  0  0
  -23.4013  -30.4988   21.5568 C   0  0  2  0  0  0
  -24.8396  -28.9676   20.1164 C   0  0  0  0  0  0
  -22.7391  -29.4684   22.5007 C   0  0  0  0  0  0
  -18.0263  -28.1372   22.8489 C   0  0  0  0  0  0
  -24.1487  -36.7309   23.2636 C   0  0  0  0  0  0
  -25.9339  -30.8290   21.3705 C   0  0  0  0  0  0
  -26.0047  -29.4658   20.7109 C   0  0  0  0  0  0
  -27.1951  -28.7017   20.6912 C   0  0  0  0  0  0
  -26.0204  -26.9417   19.4944 C   0  0  0  0  0  0
  -24.8430  -27.7048   19.5087 C   0  0  0  0  0  0
  -23.6061  -29.8389   20.1689 C   0  0  0  0  0  0
  -25.4113  -36.3125   24.0330 C   0  0  1  0  0  0
  -20.5844  -28.3669   23.1308 C   0  0  2  0  0  0
  -20.6760  -26.9407   22.5405 C   0  0  0  0  0  0
  -19.5748  -26.6379   21.5194 C   0  0  0  0  0  0
  -18.1922  -26.7920   22.1605 C   0  0  0  0  0  0
  -19.1504  -28.8833   23.2903 C   0  0  0  0  0  0
  -18.9448  -30.1433   23.8916 C   0  0  0  0  0  0
  -17.6451  -30.6588   24.0549 C   0  0  0  0  0  0
  -25.9045  -34.9488   23.5117 C   0  0  0  0  0  0
  -16.5344  -29.9085   23.6329 C   0  0  0  0  0  0
  -16.7246  -28.6501   23.0369 C   0  0  0  0  0  0
  -26.4499  -31.6629   25.0754 C   0  0  0  0  0  0
  -25.3761  -31.3743   26.1495 C   0  0  0  0  0  0
  -27.0334  -30.3076   24.6160 C   0  0  0  0  0  0
  -27.6061  -32.4359   25.7520 C   0  0  0  0  0  0
  -27.5582  -37.1811   24.8466 C   0  0  0  0  0  0
  -21.4115  -29.3049   22.3729 N   0  0  0  0  0  0
  -26.4304  -37.3805   23.9402 N   0  0  0  0  0  0
  -24.6692  -31.0794   22.1041 N   0  0  0  0  0  0
  -23.4171  -28.8213   23.3040 O   0  0  0  0  0  0
  -28.3927  -26.6915   20.0946 O   0  0  0  0  0  0
  -26.5577  -34.8940   22.4665 O   0  0  0  0  0  0
  -23.5363  -32.1446   23.7545 O   0  0  0  0  0  0
  -31.1671  -20.3442   18.6870 C   0  0  0  0  0  0
  -29.9224  -20.8231   19.1782 C   0  0  0  0  0  0
  -31.1500  -19.0009   18.9291 C   0  0  0  0  0  0
  -32.1764  -17.9612   18.6026 C   0  0  0  0  0  0
  -28.5376  -25.3740   18.0886 C   0  0  0  0  0  0
  -29.4063  -22.2425   19.0792 C   0  0  0  0  0  0
  -29.4108  -23.0175   20.4145 C   0  0  0  0  0  0
  -29.5411  -24.5638   20.3144 C   0  0  0  0  0  0
  -29.4373  -17.4138   19.9681 C   0  0  0  0  0  0
  -30.1923  -16.8076   21.1770 C   0  0  0  0  0  0
  -28.3871  -25.3297   19.6227 C   0  0  1  0  0  0
  -29.1978  -19.8429   19.7098 N   0  0  0  0  0  0
  -29.9507  -18.7190   19.5577 N   0  0  0  0  0  0
  -29.9791  -15.3606   21.2621 N   0  0  0  0  0  0
  -31.4735  -12.3996   19.1170 H   0  0  0  0  0  0
  -30.3274  -11.2687   19.7777 H   0  0  0  0  0  0
  -29.7416  -11.8414   17.3961 H   0  0  0  0  0  0
  -29.6712  -13.5342   17.8066 H   0  0  0  0  0  0
  -27.8259  -11.3228   18.7815 H   0  0  0  0  0  0
  -27.3760  -12.6830   17.7823 H   0  0  0  0  0  0
  -27.7255  -14.2502   19.6171 H   0  0  0  0  0  0
  -28.6815  -11.8791   21.2994 H   0  0  0  0  0  0
  -28.4599  -13.4869   21.9044 H   0  0  0  0  0  0
  -25.2771   -9.5694   22.4750 H   0  0  0  0  0  0
  -24.0011   -7.4649   22.7481 H   0  0  0  0  0  0
  -21.0838   -8.8768   19.8955 H   0  0  0  0  0  0
  -22.3687  -10.9676   19.6162 H   0  0  0  0  0  0
  -21.1992   -7.6135   23.9693 H   0  0  0  0  0  0
  -21.1498   -6.0514   25.9067 H   0  0  0  0  0  0
  -22.0598   -2.7593   23.2845 H   0  0  0  0  0  0
  -22.4121  -11.9887   22.4767 H   0  0  0  0  0  0
  -21.1164  -13.1292   22.2579 H   0  0  0  0  0  0
  -24.6748  -15.8459   20.4951 H   0  0  0  0  0  0
  -26.2968  -15.6190   20.0857 H   0  0  0  0  0  0
  -26.7133  -32.5534   23.1158 H   0  0  0  0  0  0
  -25.0166  -33.9837   25.0529 H   0  0  0  0  0  0
  -22.6905  -31.3176   21.4234 H   0  0  0  0  0  0
  -23.3766  -35.9631   23.3328 H   0  0  0  0  0  0
  -24.3561  -36.8899   22.2045 H   0  0  0  0  0  0
  -23.7243  -37.6518   23.6631 H   0  0  0  0  0  0
  -26.0577  -31.5981   20.6080 H   0  0  0  0  0  0
  -26.8179  -30.8710   21.9928 H   0  0  0  0  0  0
  -28.0945  -29.0863   21.1523 H   0  0  0  0  0  0
  -25.9549  -25.9771   19.0156 H   0  0  0  0  0  0
  -23.9465  -27.3102   19.0511 H   0  0  0  0  0  0
  -23.7169  -30.6173   19.4135 H   0  0  0  0  0  0
  -22.7272  -29.2657   19.8680 H   0  0  0  0  0  0
  -25.1299  -36.1987   25.0823 H   0  0  0  0  0  0
  -20.9930  -28.3227   24.1429 H   0  0  0  0  0  0
  -20.5656  -26.2275   23.3591 H   0  0  0  0  0  0
  -21.6642  -26.7454   22.1203 H   0  0  0  0  0  0
  -19.6919  -25.6288   21.1236 H   0  0  0  0  0  0
  -19.6706  -27.3171   20.6713 H   0  0  0  0  0  0
  -17.4198  -26.6658   21.4004 H   0  0  0  0  0  0
  -18.0339  -26.0045   22.8988 H   0  0  0  0  0  0
  -19.7932  -30.7228   24.2304 H   0  0  0  0  0  0
  -17.5029  -31.6268   24.5144 H   0  0  0  0  0  0
  -15.5360  -30.3008   23.7657 H   0  0  0  0  0  0
  -15.8633  -28.0814   22.7113 H   0  0  0  0  0  0
  -24.5927  -30.7103   25.7833 H   0  0  0  0  0  0
  -24.8966  -32.2906   26.4956 H   0  0  0  0  0  0
  -25.8110  -30.8904   27.0250 H   0  0  0  0  0  0
  -26.2882  -29.6835   24.1209 H   0  0  0  0  0  0
  -27.4090  -29.7335   25.4649 H   0  0  0  0  0  0
  -27.8732  -30.4398   23.9325 H   0  0  0  0  0  0
  -27.2662  -33.3656   26.2099 H   0  0  0  0  0  0
  -28.3858  -32.6933   25.0337 H   0  0  0  0  0  0
  -28.0731  -31.8489   26.5436 H   0  0  0  0  0  0
  -28.2612  -38.0098   24.7506 H   0  0  0  0  0  0
  -28.1066  -36.2632   24.6298 H   0  0  0  0  0  0
  -27.2285  -37.1454   25.8866 H   0  0  0  0  0  0
  -20.9277  -29.8792   21.6961 H   0  0  0  0  0  0
  -26.0198  -38.2891   24.1399 H   0  0  0  0  0  0
  -31.9501  -20.9044   18.1965 H   0  0  0  0  0  0
  -32.8120  -18.2868   17.7796 H   0  0  0  0  0  0
  -31.7207  -17.0159   18.3075 H   0  0  0  0  0  0
  -32.8224  -17.7709   19.4602 H   0  0  0  0  0  0
  -28.5292  -24.3843   17.6393 H   0  0  0  0  0  0
  -29.4701  -25.8626   17.8076 H   0  0  0  0  0  0
  -27.7321  -25.9308   17.6116 H   0  0  0  0  0  0
  -28.4022  -22.2460   18.6538 H   0  0  0  0  0  0
  -30.0362  -22.7752   18.3688 H   0  0  0  0  0  0
  -30.2713  -22.6764   20.9896 H   0  0  0  0  0  0
  -28.5359  -22.7369   21.0025 H   0  0  0  0  0  0
  -30.4938  -24.8307   19.8580 H   0  0  0  0  0  0
  -29.6057  -24.9297   21.3406 H   0  0  0  0  0  0
  -28.3700  -17.4872   20.1841 H   0  0  0  0  0  0
  -29.5185  -16.7508   19.1049 H   0  0  0  0  0  0
  -29.8356  -17.2741   22.0965 H   0  0  0  0  0  0
  -31.2607  -17.0193   21.1270 H   0  0  0  0  0  0
  -27.4686  -24.8192   19.9122 H   0  0  0  0  0  0
  -29.1244  -15.0444   21.6975 H   0  0  0  0  0  0
  1 25  1  0  0  0
  1 30  2  0  0  0
  1 84  1  0  0  0
  2  3  1  0  0  0
  2 25  1  0  0  0
  2 85  1  0  0  0
  2 86  1  0  0  0
  3  4  1  0  0  0
  3 87  1  0  0  0
  3 88  1  0  0  0
  4  5  1  0  0  0
  4 89  1  0  0  0
  4 90  1  0  0  0
  5  6  1  0  0  0
  5 26  1  0  0  0
  5 91  1  0  0  0
  6 25  1  0  0  0
  6 92  1  0  0  0
  6 93  1  0  0  0
  7  8  2  0  0  0
  7 26  1  0  0  0
  7 29  1  0  0  0
  8  9  1  0  0  0
  8 22  1  0  0  0
  9 10  1  0  0  0
  9 27  2  0  0  0
 10 11  2  0  0  0
 10 15  1  0  0  0
 11 12  1  0  0  0
 11 94  1  0  0  0
 12 13  2  0  0  0
 12 95  1  0  0  0
 13 14  1  0  0  0
 13 31  1  0  0  0
 14 15  2  0  0  0
 14 96  1  0  0  0
 15 97  1  0  0  0
 16 17  2  0  0  0
 16 21  1  0  0  0
 16 31  1  0  0  0
 17 18  1  0  0  0
 17 98  1  0  0  0
 18 19  2  0  0  0
 18 99  1  0  0  0
 19 20  1  0  0  0
 19 24  1  0  0  0
 20 21  2  0  0  0
 20100  1  0  0  0
 21 23  1  0  0  0
 22 28  1  0  0  0
 22 32  2  0  0  0
 26 27  1  0  0  0
 28101  1  0  0  0
 28102  1  0  0  0
 29103  1  0  0  0
 29104  1  0  0  0
 33 34  1  0  0  0
 33 66  1  0  0  0
 33 70  2  0  0  0
 34 36  1  0  0  0
 34 59  1  0  0  0
 34105  1  0  0  0
 35 44  2  0  0  0
 35 45  1  0  0  0
 35 68  1  0  0  0
 36 56  1  0  0  0
 36106  1  0  0  0
 37 39  1  0  0  0
 37 47  1  0  0  0
 37 66  1  0  0  0
 37107  1  0  0  0
 38 43  2  0  0  0
 38 46  1  0  0  0
 38 47  1  0  0  0
 39 64  1  0  0  0
 39 67  2  0  0  0
 40 52  1  0  0  0
 40 53  2  0  0  0
 40 58  1  0  0  0
 41108  1  0  0  0
 41109  1  0  0  0
 41110  1  0  0  0
 41 48  1  0  0  0
 42 43  1  0  0  0
 42 66  1  0  0  0
 42111  1  0  0  0
 42112  1  0  0  0
 43 44  1  0  0  0
 44113  1  0  0  0
 45 46  2  0  0  0
 45114  1  0  0  0
 46115  1  0  0  0
 47116  1  0  0  0
 47117  1  0  0  0
 48 56  1  0  0  0
 48 65  1  0  0  0
 48118  1  0  0  0
 49 50  1  0  0  0
 49 53  1  0  0  0
 49 64  1  0  0  0
 49119  1  0  0  0
 50 51  1  0  0  0
 50120  1  0  0  0
 50121  1  0  0  0
 51 52  1  0  0  0
 51122  1  0  0  0
 51123  1  0  0  0
 52124  1  0  0  0
 52125  1  0  0  0
 53 54  1  0  0  0
 54 55  2  0  0  0
 54126  1  0  0  0
 55 57  1  0  0  0
 55127  1  0  0  0
 56 69  2  0  0  0
 57 58  2  0  0  0
 57128  1  0  0  0
 58129  1  0  0  0
 59 60  1  0  0  0
 59 61  1  0  0  0
 59 62  1  0  0  0
 60130  1  0  0  0
 60131  1  0  0  0
 60132  1  0  0  0
 61133  1  0  0  0
 61134  1  0  0  0
 61135  1  0  0  0
 62136  1  0  0  0
 62137  1  0  0  0
 62138  1  0  0  0
 63 65  1  0  0  0
 63139  1  0  0  0
 63140  1  0  0  0
 63141  1  0  0  0
 64142  1  0  0  0
 65143  1  0  0  0
 68 81  1  0  0  0
 71 72  1  0  0  0
 71 73  2  0  0  0
 71144  1  0  0  0
 72 76  1  0  0  0
 72 82  2  0  0  0
 73 74  1  0  0  0
 73 83  1  0  0  0
 74145  1  0  0  0
 74146  1  0  0  0
 74147  1  0  0  0
 75148  1  0  0  0
 75149  1  0  0  0
 75150  1  0  0  0
 75 81  1  0  0  0
 76 77  1  0  0  0
 76151  1  0  0  0
 76152  1  0  0  0
 77 78  1  0  0  0
 77153  1  0  0  0
 77154  1  0  0  0
 78 81  1  0  0  0
 78155  1  0  0  0
 78156  1  0  0  0
 79 80  1  0  0  0
 79 83  1  0  0  0
 79157  1  0  0  0
 79158  1  0  0  0
 80 84  1  0  0  0
 80159  1  0  0  0
 80160  1  0  0  0
 81161  1  0  0  0
 82 83  1  0  0  0
 84162  1  0  0  0
M  ISO  4   1 100  68 101  81 101  84 100
M  END
> <chiral flag>
0

> <version>
0

> <s_m_source_file>
/data/baiqing/PycharmProjects/Reinvent-master-3.2/result/LINK_invent/BTK/process_docking_weight1_custom_sum_contain_oxygen_bond_distance_aromatic_linkinvent_7_9_3/rearranged_h_0084.sdf

> <i_m_source_file_index>
50

> <r_mmod_Potential_Energy-OPLS-2005>
-150.733459472656

> <r_mmod_Stretch_Energy-OPLS-2005>
34.8130683898926

> <r_mmod_Bend_Energy-OPLS-2005>
98.5114898681641

> <r_mmod_Torsional_Energy-OPLS-2005>
202.263900756836

> <r_mmod_Improper_Torsional_Energy-OPLS-2005>
4.0817289352417

> <r_mmod_Van_der_Waal_Energy-OPLS-2005>
131.026229858398

> <r_mmod_Electrostatic_Energy-OPLS-2005>
-420.123687744141

> <r_mmod_Solvation_Energy-OPLS-2005>
-212.447494506836

> <b_mmod_Minimization_Converged-OPLS-2005>
0

> <r_mmod_RMS_Derivative-OPLS-2005>
2.82368183135986

$$$$
50
                    3D
 Structure written by MMmdl.
155163  0  0  1  0            999 V2000
  -30.7532  -14.4426   20.5252 C   0  0  0  0  0  0
  -30.4074  -12.2787   19.4262 C   0  0  0  0  0  0
  -29.4978  -12.5080   18.2046 C   0  0  0  0  0  0
  -28.0161  -12.3885   18.6125 C   0  0  0  0  0  0
  -27.6636  -13.2210   19.8787 C   0  0  2  0  0  0
  -28.7110  -13.0274   20.9998 C   0  0  0  0  0  0
  -25.2599  -13.8169   20.5714 C   0  0  0  0  0  0
  -24.1861  -13.0441   20.9185 C   0  0  0  0  0  0
  -24.6436  -11.6907   20.8726 C   0  0  0  0  0  0
  -23.9100  -10.4291   21.0378 C   0  0  0  0  0  0
  -24.3632   -9.4203   21.9153 C   0  0  0  0  0  0
  -23.6294   -8.2251   22.0725 C   0  0  0  0  0  0
  -22.4279   -8.0277   21.3520 C   0  0  0  0  0  0
  -21.9922   -9.0259   20.4631 C   0  0  0  0  0  0
  -22.7263  -10.2137   20.3043 C   0  0  0  0  0  0
  -21.6853   -6.0746   22.5268 C   0  0  0  0  0  0
  -21.4010   -6.5642   23.8206 C   0  0  0  0  0  0
  -21.3684   -5.6791   24.9161 C   0  0  0  0  0  0
  -21.6062   -4.3055   24.7206 C   0  0  0  0  0  0
  -21.8825   -3.8154   23.4324 C   0  0  0  0  0  0
  -21.9192   -4.6973   22.3388 C   0  0  0  0  0  0
  -22.7889  -13.5228   21.1856 C   0  0  0  0  0  0
  -22.1656   -4.2170   21.0962 F   0  0  0  0  0  0
  -21.5657   -3.4537   25.7721 F   0  0  0  0  0  0
  -30.0388  -13.2896   20.4284 N   0  0  0  0  0  0
  -26.3060  -12.9376   20.3425 N   0  0  0  0  0  0
  -25.9372  -11.6518   20.5779 N   0  0  0  0  0  0
  -22.0538  -12.8191   22.0392 N   0  0  0  0  0  0
  -25.4319  -15.1880   20.4149 N   0  0  0  0  0  0
  -31.9098  -14.5428   20.1150 O   0  0  0  0  0  0
  -21.6630   -6.8885   21.4226 O   0  0  0  0  0  0
  -22.3589  -14.5561   20.6738 O   0  0  0  0  0  0
  -24.6092  -31.8683   23.2120 C   0  0  0  0  0  0
  -25.8998  -32.4832   23.8388 C   0  0  1  0  0  0
  -27.2270  -27.4469   20.1050 C   0  0  0  0  0  0
  -25.5859  -33.8640   24.2308 N   0  0  0  0  0  0
  -23.3961  -30.4926   21.5517 C   0  0  2  0  0  0
  -24.8403  -28.9665   20.1119 C   0  0  0  0  0  0
  -22.7371  -29.4652   22.5000 C   0  0  0  0  0  0
  -18.0269  -28.1394   22.8501 C   0  0  0  0  0  0
  -24.1482  -36.7321   23.2643 C   0  0  0  0  0  0
  -25.9220  -30.8422   21.3606 C   0  0  0  0  0  0
  -26.0000  -29.4787   20.7088 C   0  0  0  0  0  0
  -27.1932  -28.7241   20.7064 C   0  0  0  0  0  0
  -26.0492  -26.9526   19.4958 C   0  0  0  0  0  0
  -24.8593  -27.7009   19.5080 C   0  0  0  0  0  0
  -23.6023  -29.8308   20.1638 C   0  0  0  0  0  0
  -25.4111  -36.3129   24.0341 C   0  0  1  0  0  0
  -20.5851  -28.3655   23.1373 C   0  0  2  0  0  0
  -20.6773  -26.9404   22.5460 C   0  0  0  0  0  0
  -19.5757  -26.6410   21.5251 C   0  0  0  0  0  0
  -18.1924  -26.7945   22.1632 C   0  0  0  0  0  0
  -19.1511  -28.8833   23.2925 C   0  0  0  0  0  0
  -18.9449  -30.1448   23.8920 C   0  0  0  0  0  0
  -17.6458  -30.6601   24.0586 C   0  0  0  0  0  0
  -25.9032  -34.9496   23.5128 C   0  0  0  0  0  0
  -16.5344  -29.9115   23.6356 C   0  0  0  0  0  0
  -16.7257  -28.6535   23.0355 C   0  0  0  0  0  0
  -26.4451  -31.6612   25.0698 C   0  0  0  0  0  0
  -25.3745  -31.3769   26.1473 C   0  0  0  0  0  0
  -27.0267  -30.3057   24.6063 C   0  0  0  0  0  0
  -27.6020  -32.4337   25.7452 C   0  0  0  0  0  0
  -27.5594  -37.1805   24.8462 C   0  0  0  0  0  0
  -21.4097  -29.3015   22.3759 N   0  0  0  0  0  0
  -26.4295  -37.3812   23.9422 N   0  0  0  0  0  0
  -24.6607  -31.0809   22.1006 N   0  0  0  0  0  0
  -23.4157  -28.8209   23.3040 O   0  0  0  0  0  0
  -28.4056  -26.7267   20.1464 O   0  0  0  0  0  0
  -26.5623  -34.8936   22.4704 O   0  0  0  0  0  0
  -23.5290  -32.1427   23.7526 O   0  0  0  0  0  0
  -28.5158  -21.3014   20.3337 C   0  0  0  0  0  0
  -29.5663  -20.6129   20.8736 C   0  0  0  0  0  0
  -30.3010  -19.4029   20.3679 C   0  0  0  0  0  0
  -29.6997  -18.0690   20.8690 C   0  0  0  0  0  0
  -27.6479  -24.7359   21.4075 C   0  0  0  0  0  0
  -27.1774  -23.2687   21.2954 C   0  0  0  0  0  0
  -30.6569  -16.8866   20.6326 C   0  0  0  0  0  0
  -28.3286  -25.2933   20.1350 C   0  0  0  0  0  0
  -29.8931  -21.1989   22.0954 N   0  0  0  0  0  0
  -29.1001  -22.1996   22.3209 N   0  0  0  0  0  0
  -28.2542  -22.2893   21.2672 N   0  0  0  0  0  0
  -30.0813  -15.5532   20.8760 N   0  0  0  0  0  0
  -31.4579  -12.3315   19.1344 H   0  0  0  0  0  0
  -30.2585  -11.2752   19.8300 H   0  0  0  0  0  0
  -29.7269  -11.7884   17.4182 H   0  0  0  0  0  0
  -29.6919  -13.4957   17.7811 H   0  0  0  0  0  0
  -27.8099  -11.3321   18.7900 H   0  0  0  0  0  0
  -27.3769  -12.6825   17.7795 H   0  0  0  0  0  0
  -27.7022  -14.2702   19.5838 H   0  0  0  0  0  0
  -28.6753  -12.0116   21.3966 H   0  0  0  0  0  0
  -28.5051  -13.6857   21.8444 H   0  0  0  0  0  0
  -25.2786   -9.5669   22.4712 H   0  0  0  0  0  0
  -24.0015   -7.4647   22.7435 H   0  0  0  0  0  0
  -21.0872   -8.8794   19.8920 H   0  0  0  0  0  0
  -22.3736  -10.9671   19.6158 H   0  0  0  0  0  0
  -21.1969   -7.6146   23.9713 H   0  0  0  0  0  0
  -21.1521   -6.0510   25.9072 H   0  0  0  0  0  0
  -22.0575   -2.7617   23.2807 H   0  0  0  0  0  0
  -22.4182  -11.9855   22.4768 H   0  0  0  0  0  0
  -21.1148  -13.1201   22.2625 H   0  0  0  0  0  0
  -24.6701  -15.8444   20.5384 H   0  0  0  0  0  0
  -26.2924  -15.6264   20.1121 H   0  0  0  0  0  0
  -26.7036  -32.5571   23.1122 H   0  0  0  0  0  0
  -25.0012  -33.9816   25.0446 H   0  0  0  0  0  0
  -22.6864  -31.3090   21.4124 H   0  0  0  0  0  0
  -23.3759  -35.9641   23.3324 H   0  0  0  0  0  0
  -24.3563  -36.8942   22.2053 H   0  0  0  0  0  0
  -23.7220  -37.6529   23.6644 H   0  0  0  0  0  0
  -26.0335  -31.6084   20.5935 H   0  0  0  0  0  0
  -26.8094  -30.8920   21.9795 H   0  0  0  0  0  0
  -28.0816  -29.1109   21.1857 H   0  0  0  0  0  0
  -26.0239  -25.9891   19.0117 H   0  0  0  0  0  0
  -23.9685  -27.2956   19.0487 H   0  0  0  0  0  0
  -23.7098  -30.6077   19.4054 H   0  0  0  0  0  0
  -22.7268  -29.2505   19.8676 H   0  0  0  0  0  0
  -25.1280  -36.2010   25.0840 H   0  0  0  0  0  0
  -20.9909  -28.3209   24.1504 H   0  0  0  0  0  0
  -20.5763  -26.2214   23.3612 H   0  0  0  0  0  0
  -21.6638  -26.7525   22.1191 H   0  0  0  0  0  0
  -19.6938  -25.6340   21.1253 H   0  0  0  0  0  0
  -19.6740  -27.3242   20.6801 H   0  0  0  0  0  0
  -17.4214  -26.6724   21.4014 H   0  0  0  0  0  0
  -18.0284  -26.0090   22.9014 H   0  0  0  0  0  0
  -19.7927  -30.7279   24.2272 H   0  0  0  0  0  0
  -17.5020  -31.6287   24.5184 H   0  0  0  0  0  0
  -15.5341  -30.3031   23.7680 H   0  0  0  0  0  0
  -15.8644  -28.0888   22.7030 H   0  0  0  0  0  0
  -24.5795  -30.7242   25.7842 H   0  0  0  0  0  0
  -24.9070  -32.2962   26.5009 H   0  0  0  0  0  0
  -25.8081  -30.8852   27.0184 H   0  0  0  0  0  0
  -26.2781  -29.6816   24.1148 H   0  0  0  0  0  0
  -27.4093  -29.7303   25.4508 H   0  0  0  0  0  0
  -27.8597  -30.4403   23.9157 H   0  0  0  0  0  0
  -27.2620  -33.3627   26.2053 H   0  0  0  0  0  0
  -28.3813  -32.6926   25.0268 H   0  0  0  0  0  0
  -28.0683  -31.8445   26.5368 H   0  0  0  0  0  0
  -28.2606  -38.0106   24.7552 H   0  0  0  0  0  0
  -28.1094  -36.2649   24.6226 H   0  0  0  0  0  0
  -27.2316  -37.1402   25.8863 H   0  0  0  0  0  0
  -20.9202  -29.8713   21.7002 H   0  0  0  0  0  0
  -26.0204  -38.2904   24.1445 H   0  0  0  0  0  0
  -27.9476  -21.1651   19.4213 H   0  0  0  0  0  0
  -31.3466  -19.4680   20.6753 H   0  0  0  0  0  0
  -30.3261  -19.4077   19.2761 H   0  0  0  0  0  0
  -28.7443  -17.9025   20.3701 H   0  0  0  0  0  0
  -29.4910  -18.1427   21.9377 H   0  0  0  0  0  0
  -28.3157  -24.8598   22.2604 H   0  0  0  0  0  0
  -26.7676  -25.3307   21.6489 H   0  0  0  0  0  0
  -26.5531  -23.1337   20.4114 H   0  0  0  0  0  0
  -26.5421  -23.0267   22.1492 H   0  0  0  0  0  0
  -31.0103  -16.9309   19.5991 H   0  0  0  0  0  0
  -31.5425  -17.0031   21.2592 H   0  0  0  0  0  0
  -27.8432  -24.9410   19.2267 H   0  0  0  0  0  0
  -29.3472  -24.9058   20.0826 H   0  0  0  0  0  0
  -29.1187  -15.4776   21.1637 H   0  0  0  0  0  0
  1 25  1  0  0  0
  1 30  2  0  0  0
  1 82  1  0  0  0
  2  3  1  0  0  0
  2 25  1  0  0  0
  2 83  1  0  0  0
  2 84  1  0  0  0
  3  4  1  0  0  0
  3 85  1  0  0  0
  3 86  1  0  0  0
  4  5  1  0  0  0
  4 87  1  0  0  0
  4 88  1  0  0  0
  5  6  1  0  0  0
  5 26  1  0  0  0
  5 89  1  0  0  0
  6 25  1  0  0  0
  6 90  1  0  0  0
  6 91  1  0  0  0
  7  8  2  0  0  0
  7 26  1  0  0  0
  7 29  1  0  0  0
  8  9  1  0  0  0
  8 22  1  0  0  0
  9 10  1  0  0  0
  9 27  2  0  0  0
 10 11  2  0  0  0
 10 15  1  0  0  0
 11 12  1  0  0  0
 11 92  1  0  0  0
 12 13  2  0  0  0
 12 93  1  0  0  0
 13 14  1  0  0  0
 13 31  1  0  0  0
 14 15  2  0  0  0
 14 94  1  0  0  0
 15 95  1  0  0  0
 16 17  2  0  0  0
 16 21  1  0  0  0
 16 31  1  0  0  0
 17 18  1  0  0  0
 17 96  1  0  0  0
 18 19  2  0  0  0
 18 97  1  0  0  0
 19 20  1  0  0  0
 19 24  1  0  0  0
 20 21  2  0  0  0
 20 98  1  0  0  0
 21 23  1  0  0  0
 22 28  1  0  0  0
 22 32  2  0  0  0
 26 27  1  0  0  0
 28 99  1  0  0  0
 28100  1  0  0  0
 29101  1  0  0  0
 29102  1  0  0  0
 33 34  1  0  0  0
 33 66  1  0  0  0
 33 70  2  0  0  0
 34 36  1  0  0  0
 34 59  1  0  0  0
 34103  1  0  0  0
 35 44  2  0  0  0
 35 45  1  0  0  0
 35 68  1  0  0  0
 36 56  1  0  0  0
 36104  1  0  0  0
 37 39  1  0  0  0
 37 47  1  0  0  0
 37 66  1  0  0  0
 37105  1  0  0  0
 38 43  2  0  0  0
 38 46  1  0  0  0
 38 47  1  0  0  0
 39 64  1  0  0  0
 39 67  2  0  0  0
 40 52  1  0  0  0
 40 53  2  0  0  0
 40 58  1  0  0  0
 41106  1  0  0  0
 41107  1  0  0  0
 41108  1  0  0  0
 41 48  1  0  0  0
 42 43  1  0  0  0
 42 66  1  0  0  0
 42109  1  0  0  0
 42110  1  0  0  0
 43 44  1  0  0  0
 44111  1  0  0  0
 45 46  2  0  0  0
 45112  1  0  0  0
 46113  1  0  0  0
 47114  1  0  0  0
 47115  1  0  0  0
 48 56  1  0  0  0
 48 65  1  0  0  0
 48116  1  0  0  0
 49 50  1  0  0  0
 49 53  1  0  0  0
 49 64  1  0  0  0
 49117  1  0  0  0
 50 51  1  0  0  0
 50118  1  0  0  0
 50119  1  0  0  0
 51 52  1  0  0  0
 51120  1  0  0  0
 51121  1  0  0  0
 52122  1  0  0  0
 52123  1  0  0  0
 53 54  1  0  0  0
 54 55  2  0  0  0
 54124  1  0  0  0
 55 57  1  0  0  0
 55125  1  0  0  0
 56 69  2  0  0  0
 57 58  2  0  0  0
 57126  1  0  0  0
 58127  1  0  0  0
 59 60  1  0  0  0
 59 61  1  0  0  0
 59 62  1  0  0  0
 60128  1  0  0  0
 60129  1  0  0  0
 60130  1  0  0  0
 61131  1  0  0  0
 61132  1  0  0  0
 61133  1  0  0  0
 62134  1  0  0  0
 62135  1  0  0  0
 62136  1  0  0  0
 63 65  1  0  0  0
 63137  1  0  0  0
 63138  1  0  0  0
 63139  1  0  0  0
 64140  1  0  0  0
 65141  1  0  0  0
 68 78  1  0  0  0
 71 72  2  0  0  0
 71 81  1  0  0  0
 71142  1  0  0  0
 72 73  1  0  0  0
 72 79  1  0  0  0
 73 74  1  0  0  0
 73143  1  0  0  0
 73144  1  0  0  0
 74 77  1  0  0  0
 74145  1  0  0  0
 74146  1  0  0  0
 75 76  1  0  0  0
 75 78  1  0  0  0
 75147  1  0  0  0
 75148  1  0  0  0
 76 81  1  0  0  0
 76149  1  0  0  0
 76150  1  0  0  0
 77 82  1  0  0  0
 77151  1  0  0  0
 77152  1  0  0  0
 78153  1  0  0  0
 78154  1  0  0  0
 79 80  2  0  0  0
 80 81  1  0  0  0
 82155  1  0  0  0
M  ISO  4   1 100  68 101  78 101  82 100
M  END
> <chiral flag>
0

> <version>
0

> <s_m_source_file>
/data/baiqing/PycharmProjects/Reinvent-master-3.2/result/LINK_invent/BTK/process_docking_weight1_custom_sum_contain_oxygen_bond_distance_aromatic_linkinvent_7_9_3/rearranged_h_0084.sdf

> <i_m_source_file_index>
51

> <r_mmod_Potential_Energy-OPLS-2005>
-146.884063720703

> <r_mmod_Stretch_Energy-OPLS-2005>
32.2897758483887

> <r_mmod_Bend_Energy-OPLS-2005>
96.0587997436523

> <r_mmod_Torsional_Energy-OPLS-2005>
202.407150268555

> <r_mmod_Improper_Torsional_Energy-OPLS-2005>
5.4475302696228

> <r_mmod_Van_der_Waal_Energy-OPLS-2005>
132.960144042969

> <r_mmod_Electrostatic_Energy-OPLS-2005>
-403.792572021484

> <r_mmod_Solvation_Energy-OPLS-2005>
-228.558624267578

> <b_mmod_Minimization_Converged-OPLS-2005>
0

> <r_mmod_RMS_Derivative-OPLS-2005>
3.56122970581055

$$$$
51
                    3D
 Structure written by MMmdl.
163171  0  0  1  0            999 V2000
  -30.6767  -14.5506   20.5386 C   0  0  0  0  0  0
  -30.4288  -12.3503   19.4320 C   0  0  0  0  0  0
  -29.4998  -12.5060   18.2105 C   0  0  0  0  0  0
  -28.0222  -12.3557   18.6254 C   0  0  0  0  0  0
  -27.6554  -13.2146   19.8658 C   0  0  2  0  0  0
  -28.7001  -13.0432   20.9905 C   0  0  0  0  0  0
  -25.2560  -13.8176   20.5667 C   0  0  0  0  0  0
  -24.1821  -13.0441   20.9181 C   0  0  0  0  0  0
  -24.6389  -11.6913   20.8736 C   0  0  0  0  0  0
  -23.9056  -10.4294   21.0401 C   0  0  0  0  0  0
  -24.3607   -9.4212   21.9179 C   0  0  0  0  0  0
  -23.6286   -8.2245   22.0750 C   0  0  0  0  0  0
  -22.4270   -8.0281   21.3539 C   0  0  0  0  0  0
  -21.9901   -9.0257   20.4645 C   0  0  0  0  0  0
  -22.7228  -10.2139   20.3053 C   0  0  0  0  0  0
  -21.6853   -6.0732   22.5274 C   0  0  0  0  0  0
  -21.4020   -6.5635   23.8208 C   0  0  0  0  0  0
  -21.3657   -5.6788   24.9169 C   0  0  0  0  0  0
  -21.6044   -4.3051   24.7223 C   0  0  0  0  0  0
  -21.8821   -3.8143   23.4342 C   0  0  0  0  0  0
  -21.9197   -4.6959   22.3398 C   0  0  0  0  0  0
  -22.7841  -13.5236   21.1847 C   0  0  0  0  0  0
  -22.1662   -4.2143   21.0974 F   0  0  0  0  0  0
  -21.5630   -3.4532   25.7735 F   0  0  0  0  0  0
  -30.0206  -13.3594   20.4253 N   0  0  0  0  0  0
  -26.2993  -12.9356   20.3328 N   0  0  0  0  0  0
  -25.9320  -11.6511   20.5755 N   0  0  0  0  0  0
  -22.0474  -12.8239   22.0410 N   0  0  0  0  0  0
  -25.4282  -15.1891   20.4053 N   0  0  0  0  0  0
  -31.8319  -14.7034   20.1349 O   0  0  0  0  0  0
  -21.6642   -6.8874   21.4236 O   0  0  0  0  0  0
  -22.3525  -14.5536   20.6690 O   0  0  0  0  0  0
  -24.6202  -31.8644   23.2060 C   0  0  0  0  0  0
  -25.9075  -32.4803   23.8373 C   0  0  1  0  0  0
  -27.2269  -27.3762   20.1013 C   0  0  0  0  0  0
  -25.5907  -33.8599   24.2301 N   0  0  0  0  0  0
  -23.4111  -30.4901   21.5476 C   0  0  2  0  0  0
  -24.8554  -28.9519   20.1123 C   0  0  0  0  0  0
  -22.7444  -29.4653   22.4954 C   0  0  0  0  0  0
  -18.0284  -28.1374   22.8501 C   0  0  0  0  0  0
  -24.1487  -36.7304   23.2642 C   0  0  0  0  0  0
  -25.9463  -30.8128   21.3677 C   0  0  0  0  0  0
  -26.0210  -29.4447   20.7107 C   0  0  0  0  0  0
  -27.2097  -28.6669   20.6980 C   0  0  0  0  0  0
  -26.0379  -26.9218   19.4829 C   0  0  0  0  0  0
  -24.8618  -27.6925   19.4937 C   0  0  0  0  0  0
  -23.6206  -29.8248   20.1620 C   0  0  0  0  0  0
  -25.4107  -36.3095   24.0338 C   0  0  1  0  0  0
  -20.5882  -28.3676   23.1299 C   0  0  2  0  0  0
  -20.6764  -26.9404   22.5412 C   0  0  0  0  0  0
  -19.5734  -26.6380   21.5216 C   0  0  0  0  0  0
  -18.1921  -26.7920   22.1637 C   0  0  0  0  0  0
  -19.1536  -28.8839   23.2897 C   0  0  0  0  0  0
  -18.9463  -30.1443   23.8908 C   0  0  0  0  0  0
  -17.6465  -30.6581   24.0567 C   0  0  0  0  0  0
  -25.9042  -34.9464   23.5119 C   0  0  0  0  0  0
  -16.5356  -29.9085   23.6324 C   0  0  0  0  0  0
  -16.7273  -28.6499   23.0355 C   0  0  0  0  0  0
  -26.4479  -31.6592   25.0719 C   0  0  0  0  0  0
  -25.3737  -31.3714   26.1464 C   0  0  0  0  0  0
  -27.0311  -30.3026   24.6125 C   0  0  0  0  0  0
  -27.6046  -32.4322   25.7487 C   0  0  0  0  0  0
  -27.5576  -37.1806   24.8468 C   0  0  0  0  0  0
  -21.4164  -29.3045   22.3699 N   0  0  0  0  0  0
  -26.4286  -37.3783   23.9413 N   0  0  0  0  0  0
  -24.6783  -31.0708   22.0983 N   0  0  0  0  0  0
  -23.4198  -28.8190   23.3009 O   0  0  0  0  0  0
  -28.3712  -26.5817   20.1420 O   0  0  0  0  0  0
  -26.5613  -34.8930   22.4688 O   0  0  0  0  0  0
  -23.5381  -32.1419   23.7421 O   0  0  0  0  0  0
  -31.4479  -22.5322   21.7538 C   0  0  0  0  0  0
  -30.4276  -21.8718   21.0358 C   0  0  0  0  0  0
  -30.6230  -20.4575   20.8821 C   0  0  0  0  0  0
  -32.6581  -20.6223   21.9441 C   0  0  0  0  0  0
  -33.8999  -19.9128   22.4350 C   0  0  0  0  0  0
  -30.8135  -17.1041   22.6739 C   0  0  0  0  0  0
  -29.2392  -22.7035   20.4717 C   0  0  0  0  0  0
  -29.7066  -19.4628   20.1431 C   0  0  0  0  0  0
  -29.3917  -24.2804   20.5225 C   0  0  0  0  0  0
  -29.3037  -18.1002   20.8452 C   0  0  0  0  0  0
  -28.2041  -25.1399   19.9835 C   0  0  0  0  0  0
  -30.3946  -17.0105   21.1919 C   0  0  2  0  0  0
  -32.5461  -21.9112   22.2118 N   0  0  0  0  0  0
  -31.7698  -19.8911   21.2945 N   0  0  0  0  0  0
  -29.9398  -15.6066   20.9728 N   0  0  0  0  0  0
  -31.4715  -12.4625   19.1288 H   0  0  0  0  0  0
  -30.3467  -11.3475   19.8537 H   0  0  0  0  0  0
  -29.7507  -11.7681   17.4471 H   0  0  0  0  0  0
  -29.6571  -13.4847   17.7526 H   0  0  0  0  0  0
  -27.8472  -11.3014   18.8422 H   0  0  0  0  0  0
  -27.3686  -12.6064   17.7894 H   0  0  0  0  0  0
  -27.6847  -14.2554   19.5427 H   0  0  0  0  0  0
  -28.6926  -12.0189   21.3663 H   0  0  0  0  0  0
  -28.4578  -13.6745   21.8468 H   0  0  0  0  0  0
  -25.2754   -9.5697   22.4750 H   0  0  0  0  0  0
  -24.0005   -7.4637   22.7463 H   0  0  0  0  0  0
  -21.0834   -8.8773   19.8948 H   0  0  0  0  0  0
  -22.3680  -10.9676   19.6165 H   0  0  0  0  0  0
  -21.2014   -7.6144   23.9710 H   0  0  0  0  0  0
  -21.1474   -6.0515   25.9071 H   0  0  0  0  0  0
  -22.0602   -2.7604   23.2843 H   0  0  0  0  0  0
  -22.4084  -11.9927   22.4848 H   0  0  0  0  0  0
  -21.1082  -13.1267   22.2577 H   0  0  0  0  0  0
  -24.6604  -15.8448   20.5043 H   0  0  0  0  0  0
  -26.2764  -15.6250   20.0668 H   0  0  0  0  0  0
  -26.7143  -32.5492   23.1127 H   0  0  0  0  0  0
  -25.0042  -33.9749   25.0438 H   0  0  0  0  0  0
  -22.7024  -31.3090   21.4066 H   0  0  0  0  0  0
  -23.3746  -35.9640   23.3312 H   0  0  0  0  0  0
  -24.3578  -36.8907   22.2053 H   0  0  0  0  0  0
  -23.7242  -37.6514   23.6653 H   0  0  0  0  0  0
  -26.0683  -31.5788   20.6006 H   0  0  0  0  0  0
  -26.8302  -30.8617   21.9915 H   0  0  0  0  0  0
  -28.1059  -29.0418   21.1716 H   0  0  0  0  0  0
  -25.9931  -25.9625   18.9891 H   0  0  0  0  0  0
  -23.9663  -27.3084   19.0242 H   0  0  0  0  0  0
  -23.7352  -30.6007   19.4041 H   0  0  0  0  0  0
  -22.7424  -29.2499   19.8630 H   0  0  0  0  0  0
  -25.1280  -36.1954   25.0828 H   0  0  0  0  0  0
  -20.9981  -28.3241   24.1415 H   0  0  0  0  0  0
  -20.5655  -26.2291   23.3608 H   0  0  0  0  0  0
  -21.6635  -26.7424   22.1209 H   0  0  0  0  0  0
  -19.6895  -25.6294   21.1231 H   0  0  0  0  0  0
  -19.6660  -27.3204   20.6757 H   0  0  0  0  0  0
  -17.4186  -26.6683   21.4039 H   0  0  0  0  0  0
  -18.0320  -26.0049   22.9019 H   0  0  0  0  0  0
  -19.7940  -30.7256   24.2279 H   0  0  0  0  0  0
  -17.5022  -31.6261   24.5168 H   0  0  0  0  0  0
  -15.5357  -30.2994   23.7626 H   0  0  0  0  0  0
  -15.8678  -28.0815   22.7065 H   0  0  0  0  0  0
  -24.5912  -30.7054   25.7807 H   0  0  0  0  0  0
  -24.8930  -32.2877   26.4905 H   0  0  0  0  0  0
  -25.8082  -30.8893   27.0228 H   0  0  0  0  0  0
  -26.2864  -29.6792   24.1164 H   0  0  0  0  0  0
  -27.4050  -29.7254   25.4588 H   0  0  0  0  0  0
  -27.8711  -30.4325   23.9298 H   0  0  0  0  0  0
  -27.2654  -33.3616   26.2072 H   0  0  0  0  0  0
  -28.3852  -32.6892   25.0317 H   0  0  0  0  0  0
  -28.0720  -31.8449   26.5397 H   0  0  0  0  0  0
  -28.2601  -38.0096   24.7505 H   0  0  0  0  0  0
  -28.1062  -36.2627   24.6300 H   0  0  0  0  0  0
  -27.2298  -37.1462   25.8873 H   0  0  0  0  0  0
  -20.9326  -29.8792   21.6940 H   0  0  0  0  0  0
  -26.0176  -38.2861   24.1410 H   0  0  0  0  0  0
  -31.4178  -23.5891   21.9638 H   0  0  0  0  0  0
  -34.1605  -19.0842   21.7762 H   0  0  0  0  0  0
  -33.7322  -19.5150   23.4357 H   0  0  0  0  0  0
  -34.7529  -20.5904   22.4728 H   0  0  0  0  0  0
  -31.1006  -18.1107   22.9684 H   0  0  0  0  0  0
  -31.6633  -16.4553   22.8882 H   0  0  0  0  0  0
  -29.9983  -16.8070   23.3349 H   0  0  0  0  0  0
  -28.3414  -22.4148   21.0194 H   0  0  0  0  0  0
  -29.0754  -22.4002   19.4366 H   0  0  0  0  0  0
  -30.1749  -19.2391   19.1839 H   0  0  0  0  0  0
  -28.7866  -19.9907   19.8945 H   0  0  0  0  0  0
  -30.2907  -24.5705   19.9772 H   0  0  0  0  0  0
  -29.5406  -24.5914   21.5562 H   0  0  0  0  0  0
  -28.5867  -17.6320   20.1698 H   0  0  0  0  0  0
  -28.7270  -18.3313   21.7413 H   0  0  0  0  0  0
  -27.3068  -24.8138   20.5125 H   0  0  0  0  0  0
  -28.0563  -24.9169   18.9259 H   0  0  0  0  0  0
  -31.2659  -17.1951   20.5606 H   0  0  0  0  0  0
  -28.9825  -15.3984   21.2130 H   0  0  0  0  0  0
  1 25  1  0  0  0
  1 30  2  0  0  0
  1 85  1  0  0  0
  2  3  1  0  0  0
  2 25  1  0  0  0
  2 86  1  0  0  0
  2 87  1  0  0  0
  3  4  1  0  0  0
  3 88  1  0  0  0
  3 89  1  0  0  0
  4  5  1  0  0  0
  4 90  1  0  0  0
  4 91  1  0  0  0
  5  6  1  0  0  0
  5 26  1  0  0  0
  5 92  1  0  0  0
  6 25  1  0  0  0
  6 93  1  0  0  0
  6 94  1  0  0  0
  7  8  2  0  0  0
  7 26  1  0  0  0
  7 29  1  0  0  0
  8  9  1  0  0  0
  8 22  1  0  0  0
  9 10  1  0  0  0
  9 27  2  0  0  0
 10 11  2  0  0  0
 10 15  1  0  0  0
 11 12  1  0  0  0
 11 95  1  0  0  0
 12 13  2  0  0  0
 12 96  1  0  0  0
 13 14  1  0  0  0
 13 31  1  0  0  0
 14 15  2  0  0  0
 14 97  1  0  0  0
 15 98  1  0  0  0
 16 17  2  0  0  0
 16 21  1  0  0  0
 16 31  1  0  0  0
 17 18  1  0  0  0
 17 99  1  0  0  0
 18 19  2  0  0  0
 18100  1  0  0  0
 19 20  1  0  0  0
 19 24  1  0  0  0
 20 21  2  0  0  0
 20101  1  0  0  0
 21 23  1  0  0  0
 22 28  1  0  0  0
 22 32  2  0  0  0
 26 27  1  0  0  0
 28102  1  0  0  0
 28103  1  0  0  0
 29104  1  0  0  0
 29105  1  0  0  0
 33 34  1  0  0  0
 33 66  1  0  0  0
 33 70  2  0  0  0
 34 36  1  0  0  0
 34 59  1  0  0  0
 34106  1  0  0  0
 35 44  2  0  0  0
 35 45  1  0  0  0
 35 68  1  0  0  0
 36 56  1  0  0  0
 36107  1  0  0  0
 37 39  1  0  0  0
 37 47  1  0  0  0
 37 66  1  0  0  0
 37108  1  0  0  0
 38 43  2  0  0  0
 38 46  1  0  0  0
 38 47  1  0  0  0
 39 64  1  0  0  0
 39 67  2  0  0  0
 40 52  1  0  0  0
 40 53  2  0  0  0
 40 58  1  0  0  0
 41109  1  0  0  0
 41110  1  0  0  0
 41111  1  0  0  0
 41 48  1  0  0  0
 42 43  1  0  0  0
 42 66  1  0  0  0
 42112  1  0  0  0
 42113  1  0  0  0
 43 44  1  0  0  0
 44114  1  0  0  0
 45 46  2  0  0  0
 45115  1  0  0  0
 46116  1  0  0  0
 47117  1  0  0  0
 47118  1  0  0  0
 48 56  1  0  0  0
 48 65  1  0  0  0
 48119  1  0  0  0
 49 50  1  0  0  0
 49 53  1  0  0  0
 49 64  1  0  0  0
 49120  1  0  0  0
 50 51  1  0  0  0
 50121  1  0  0  0
 50122  1  0  0  0
 51 52  1  0  0  0
 51123  1  0  0  0
 51124  1  0  0  0
 52125  1  0  0  0
 52126  1  0  0  0
 53 54  1  0  0  0
 54 55  2  0  0  0
 54127  1  0  0  0
 55 57  1  0  0  0
 55128  1  0  0  0
 56 69  2  0  0  0
 57 58  2  0  0  0
 57129  1  0  0  0
 58130  1  0  0  0
 59 60  1  0  0  0
 59 61  1  0  0  0
 59 62  1  0  0  0
 60131  1  0  0  0
 60132  1  0  0  0
 60133  1  0  0  0
 61134  1  0  0  0
 61135  1  0  0  0
 61136  1  0  0  0
 62137  1  0  0  0
 62138  1  0  0  0
 62139  1  0  0  0
 63 65  1  0  0  0
 63140  1  0  0  0
 63141  1  0  0  0
 63142  1  0  0  0
 64143  1  0  0  0
 65144  1  0  0  0
 68 81  1  0  0  0
 71 72  2  0  0  0
 71 83  1  0  0  0
 71145  1  0  0  0
 72 73  1  0  0  0
 72 77  1  0  0  0
 73 78  1  0  0  0
 73 84  2  0  0  0
 74 75  1  0  0  0
 74 83  2  0  0  0
 74 84  1  0  0  0
 75146  1  0  0  0
 75147  1  0  0  0
 75148  1  0  0  0
 76149  1  0  0  0
 76150  1  0  0  0
 76151  1  0  0  0
 76 82  1  0  0  0
 77 79  1  0  0  0
 77152  1  0  0  0
 77153  1  0  0  0
 78 80  1  0  0  0
 78154  1  0  0  0
 78155  1  0  0  0
 79 81  1  0  0  0
 79156  1  0  0  0
 79157  1  0  0  0
 80 82  1  0  0  0
 80158  1  0  0  0
 80159  1  0  0  0
 81160  1  0  0  0
 81161  1  0  0  0
 82 85  1  0  0  0
 82162  1  0  0  0
 85163  1  0  0  0
M  ISO  4   1 100  68 101  81 101  85 100
M  END
> <chiral flag>
0

> <version>
0

> <s_m_source_file>
/data/baiqing/PycharmProjects/Reinvent-master-3.2/result/LINK_invent/BTK/process_docking_weight1_custom_sum_contain_oxygen_bond_distance_aromatic_linkinvent_7_9_3/rearranged_h_0084.sdf

> <i_m_source_file_index>
52

> <r_mmod_Potential_Energy-OPLS-2005>
-414.373718261719

> <r_mmod_Stretch_Energy-OPLS-2005>
58.4599533081055

> <r_mmod_Bend_Energy-OPLS-2005>
127.900970458984

> <r_mmod_Torsional_Energy-OPLS-2005>
202.065979003906

> <r_mmod_Improper_Torsional_Energy-OPLS-2005>
3.77876925468445

> <r_mmod_Van_der_Waal_Energy-OPLS-2005>
159.822311401367

> <r_mmod_Electrostatic_Energy-OPLS-2005>
-761.914978027344

> <r_mmod_Solvation_Energy-OPLS-2005>
-230.849105834961

> <b_mmod_Minimization_Converged-OPLS-2005>
0

> <r_mmod_RMS_Derivative-OPLS-2005>
1.27554202079773

$$$$
52
                    3D
 Structure written by MMmdl.
171179  0  0  1  0            999 V2000
  -30.6751  -14.5852   20.5626 C   0  0  0  0  0  0
  -30.4386  -12.3813   19.4370 C   0  0  0  0  0  0
  -29.4976  -12.5072   18.2179 C   0  0  0  0  0  0
  -28.0180  -12.3672   18.6292 C   0  0  0  0  0  0
  -27.6548  -13.2254   19.8708 C   0  0  2  0  0  0
  -28.7056  -13.0506   20.9918 C   0  0  0  0  0  0
  -25.2562  -13.8210   20.5743 C   0  0  0  0  0  0
  -24.1818  -13.0429   20.9231 C   0  0  0  0  0  0
  -24.6403  -11.6932   20.8750 C   0  0  0  0  0  0
  -23.9084  -10.4298   21.0396 C   0  0  0  0  0  0
  -24.3631   -9.4213   21.9175 C   0  0  0  0  0  0
  -23.6302   -8.2241   22.0744 C   0  0  0  0  0  0
  -22.4277   -8.0292   21.3549 C   0  0  0  0  0  0
  -21.9931   -9.0248   20.4647 C   0  0  0  0  0  0
  -22.7263  -10.2134   20.3051 C   0  0  0  0  0  0
  -21.6851   -6.0746   22.5262 C   0  0  0  0  0  0
  -21.4000   -6.5639   23.8213 C   0  0  0  0  0  0
  -21.3668   -5.6804   24.9166 C   0  0  0  0  0  0
  -21.6056   -4.3054   24.7217 C   0  0  0  0  0  0
  -21.8838   -3.8158   23.4324 C   0  0  0  0  0  0
  -21.9190   -4.6972   22.3394 C   0  0  0  0  0  0
  -22.7830  -13.5230   21.1863 C   0  0  0  0  0  0
  -22.1680   -4.2184   21.0959 F   0  0  0  0  0  0
  -21.5630   -3.4529   25.7714 F   0  0  0  0  0  0
  -30.0231  -13.3884   20.4311 N   0  0  0  0  0  0
  -26.3008  -12.9408   20.3405 N   0  0  0  0  0  0
  -25.9344  -11.6543   20.5792 N   0  0  0  0  0  0
  -22.0481  -12.8174   22.0427 N   0  0  0  0  0  0
  -25.4177  -15.1927   20.4182 N   0  0  0  0  0  0
  -31.8296  -14.7438   20.1588 O   0  0  0  0  0  0
  -21.6632   -6.8871   21.4246 O   0  0  0  0  0  0
  -22.3511  -14.5530   20.6754 O   0  0  0  0  0  0
  -24.6175  -31.8649   23.2112 C   0  0  0  0  0  0
  -25.9062  -32.4817   23.8372 C   0  0  1  0  0  0
  -27.2449  -27.3780   20.1153 C   0  0  0  0  0  0
  -25.5875  -33.8595   24.2313 N   0  0  0  0  0  0
  -23.4119  -30.4885   21.5488 C   0  0  2  0  0  0
  -24.8622  -28.9509   20.1212 C   0  0  0  0  0  0
  -22.7374  -29.4683   22.4951 C   0  0  0  0  0  0
  -18.0221  -28.1440   22.8470 C   0  0  0  0  0  0
  -24.1469  -36.7308   23.2655 C   0  0  0  0  0  0
  -25.9420  -30.8204   21.3659 C   0  0  0  0  0  0
  -26.0253  -29.4477   20.7187 C   0  0  0  0  0  0
  -27.2114  -28.6662   20.7188 C   0  0  0  0  0  0
  -26.0503  -26.9126   19.5150 C   0  0  0  0  0  0
  -24.8724  -27.6809   19.5233 C   0  0  0  0  0  0
  -23.6274  -29.8253   20.1662 C   0  0  0  0  0  0
  -25.4090  -36.3098   24.0357 C   0  0  1  0  0  0
  -20.5816  -28.3738   23.1346 C   0  0  2  0  0  0
  -20.6736  -26.9480   22.5474 C   0  0  0  0  0  0
  -19.5717  -26.6398   21.5306 C   0  0  0  0  0  0
  -18.1868  -26.7954   22.1669 C   0  0  0  0  0  0
  -19.1480  -28.8876   23.2897 C   0  0  0  0  0  0
  -18.9458  -30.1450   23.8952 C   0  0  0  0  0  0
  -17.6495  -30.6639   24.0597 C   0  0  0  0  0  0
  -25.9064  -34.9454   23.5155 C   0  0  0  0  0  0
  -16.5366  -29.9178   23.6365 C   0  0  0  0  0  0
  -16.7235  -28.6607   23.0358 C   0  0  0  0  0  0
  -26.4477  -31.6591   25.0702 C   0  0  0  0  0  0
  -25.3722  -31.3663   26.1449 C   0  0  0  0  0  0
  -27.0340  -30.3048   24.6083 C   0  0  0  0  0  0
  -27.6094  -32.4279   25.7440 C   0  0  0  0  0  0
  -27.5535  -37.1788   24.8460 C   0  0  0  0  0  0
  -21.4092  -29.3067   22.3678 N   0  0  0  0  0  0
  -26.4267  -37.3780   23.9408 N   0  0  0  0  0  0
  -24.6771  -31.0664   22.1069 N   0  0  0  0  0  0
  -23.4099  -28.8283   23.3074 O   0  0  0  0  0  0
  -28.4151  -26.6178   20.1765 O   0  0  0  0  0  0
  -26.5656  -34.8889   22.4727 O   0  0  0  0  0  0
  -23.5351  -32.1472   23.7469 O   0  0  0  0  0  0
  -29.6246  -20.6359   19.9110 C   0  0  0  0  0  0
  -28.4171  -21.3058   19.8547 C   0  0  0  0  0  0
  -27.4884  -20.2293   20.1594 C   0  0  0  0  0  0
  -25.1936  -21.3946   19.9648 C   0  0  0  0  0  0
  -25.4849  -19.4665   21.5001 C   0  0  0  0  0  0
  -25.5642  -19.1488   18.9771 C   0  0  0  0  0  0
  -29.9490  -17.3431   18.6803 C   0  0  0  0  0  0
  -31.7932  -18.6296   19.8132 C   0  0  0  0  0  0
  -28.2054  -22.7803   19.3698 C   0  0  0  0  0  0
  -28.7509  -24.0094   20.2166 C   0  0  0  0  0  0
  -30.3021  -17.0698   21.2227 C   0  0  0  0  0  0
  -28.5690  -25.3720   19.4331 C   0  0  0  0  0  0
  -25.9574  -20.0770   20.1555 C   0  0  0  0  0  0
  -30.3464  -18.0842   19.9855 C   0  0  0  0  0  0
  -28.1245  -19.0713   20.3553 N   0  0  0  0  0  0
  -29.4325  -19.2710   20.1428 N   0  0  0  0  0  0
  -29.9338  -15.6288   21.0120 N   0  0  0  0  0  0
  -31.4757  -12.5127   19.1222 H   0  0  0  0  0  0
  -30.3868  -11.3793   19.8675 H   0  0  0  0  0  0
  -29.7462  -11.7528   17.4705 H   0  0  0  0  0  0
  -29.6523  -13.4749   17.7377 H   0  0  0  0  0  0
  -27.8243  -11.3120   18.8344 H   0  0  0  0  0  0
  -27.3738  -12.6365   17.7913 H   0  0  0  0  0  0
  -27.6836  -14.2677   19.5510 H   0  0  0  0  0  0
  -28.7103  -12.0207   21.3543 H   0  0  0  0  0  0
  -28.4635  -13.6644   21.8597 H   0  0  0  0  0  0
  -25.2754   -9.5713   22.4768 H   0  0  0  0  0  0
  -24.0026   -7.4644   22.7437 H   0  0  0  0  0  0
  -21.0891   -8.8787   19.8919 H   0  0  0  0  0  0
  -22.3725  -10.9685   19.6172 H   0  0  0  0  0  0
  -21.1988   -7.6145   23.9728 H   0  0  0  0  0  0
  -21.1471   -6.0503   25.9079 H   0  0  0  0  0  0
  -22.0601   -2.7616   23.2808 H   0  0  0  0  0  0
  -22.4108  -11.9830   22.4779 H   0  0  0  0  0  0
  -21.1094  -13.1165   22.2637 H   0  0  0  0  0  0
  -24.6485  -15.8392   20.5551 H   0  0  0  0  0  0
  -26.2666  -15.6480   20.1097 H   0  0  0  0  0  0
  -26.7090  -32.5599   23.1081 H   0  0  0  0  0  0
  -24.9905  -33.9726   25.0368 H   0  0  0  0  0  0
  -22.7096  -31.3115   21.4007 H   0  0  0  0  0  0
  -23.3779  -35.9607   23.3370 H   0  0  0  0  0  0
  -24.3553  -36.8941   22.2064 H   0  0  0  0  0  0
  -23.7186  -37.6493   23.6686 H   0  0  0  0  0  0
  -26.0341  -31.5790   20.5876 H   0  0  0  0  0  0
  -26.8355  -30.8891   21.9728 H   0  0  0  0  0  0
  -28.1022  -29.0388   21.2047 H   0  0  0  0  0  0
  -25.9775  -25.9398   19.0590 H   0  0  0  0  0  0
  -23.9756  -27.2824   19.0724 H   0  0  0  0  0  0
  -23.7419  -30.6048   19.4112 H   0  0  0  0  0  0
  -22.7507  -29.2501   19.8680 H   0  0  0  0  0  0
  -25.1242  -36.2042   25.0864 H   0  0  0  0  0  0
  -20.9833  -28.3367   24.1513 H   0  0  0  0  0  0
  -20.5772  -26.2333   23.3638 H   0  0  0  0  0  0
  -21.6580  -26.7590   22.1203 H   0  0  0  0  0  0
  -19.6954  -25.6325   21.1346 H   0  0  0  0  0  0
  -19.6739  -27.3157   20.6826 H   0  0  0  0  0  0
  -17.4144  -26.6719   21.4056 H   0  0  0  0  0  0
  -18.0281  -26.0104   22.9087 H   0  0  0  0  0  0
  -19.7952  -30.7186   24.2376 H   0  0  0  0  0  0
  -17.5107  -31.6334   24.5157 H   0  0  0  0  0  0
  -15.5395  -30.3163   23.7587 H   0  0  0  0  0  0
  -15.8619  -28.0953   22.7078 H   0  0  0  0  0  0
  -24.5948  -30.6962   25.7739 H   0  0  0  0  0  0
  -24.8817  -32.2782   26.4868 H   0  0  0  0  0  0
  -25.8028  -30.8844   27.0234 H   0  0  0  0  0  0
  -26.2859  -29.6741   24.1265 H   0  0  0  0  0  0
  -27.4262  -29.7348   25.4512 H   0  0  0  0  0  0
  -27.8601  -30.4387   23.9101 H   0  0  0  0  0  0
  -27.2862  -33.3716   26.1819 H   0  0  0  0  0  0
  -28.3984  -32.6616   25.0283 H   0  0  0  0  0  0
  -28.0634  -31.8515   26.5498 H   0  0  0  0  0  0
  -28.2569  -38.0054   24.7494 H   0  0  0  0  0  0
  -28.1002  -36.2593   24.6348 H   0  0  0  0  0  0
  -27.2225  -37.1505   25.8845 H   0  0  0  0  0  0
  -20.9239  -29.8845   21.6953 H   0  0  0  0  0  0
  -26.0232  -38.2878   24.1471 H   0  0  0  0  0  0
  -30.6111  -21.0172   19.7019 H   0  0  0  0  0  0
  -25.4293  -22.1143   20.7487 H   0  0  0  0  0  0
  -24.1166  -21.2253   19.9922 H   0  0  0  0  0  0
  -25.3925  -21.8274   18.9873 H   0  0  0  0  0  0
  -25.7863  -20.0838   22.3466 H   0  0  0  0  0  0
  -25.9061  -18.4745   21.6690 H   0  0  0  0  0  0
  -24.4004  -19.3591   21.5471 H   0  0  0  0  0  0
  -25.9338  -19.5500   18.0313 H   0  0  0  0  0  0
  -24.4844  -19.0146   18.8831 H   0  0  0  0  0  0
  -26.0005  -18.1551   19.0828 H   0  0  0  0  0  0
  -30.6727  -16.5679   18.4311 H   0  0  0  0  0  0
  -29.9018  -18.0079   17.8177 H   0  0  0  0  0  0
  -28.9714  -16.8620   18.7688 H   0  0  0  0  0  0
  -32.5161  -17.8368   19.6210 H   0  0  0  0  0  0
  -32.1315  -19.1727   20.6997 H   0  0  0  0  0  0
  -31.8720  -19.3149   18.9648 H   0  0  0  0  0  0
  -27.1468  -23.0006   19.2141 H   0  0  0  0  0  0
  -28.6214  -22.8629   18.3549 H   0  0  0  0  0  0
  -29.8144  -23.8946   20.4738 H   0  0  0  0  0  0
  -28.2332  -24.0574   21.1781 H   0  0  0  0  0  0
  -29.5710  -17.4461   21.9378 H   0  0  0  0  0  0
  -31.2425  -17.1003   21.7765 H   0  0  0  0  0  0
  -29.4668  -25.5186   18.8330 H   0  0  0  0  0  0
  -27.8137  -25.2411   18.6682 H   0  0  0  0  0  0
  -28.9985  -15.3783   21.3037 H   0  0  0  0  0  0
  1 25  1  0  0  0
  1 30  2  0  0  0
  1 87  1  0  0  0
  2  3  1  0  0  0
  2 25  1  0  0  0
  2 88  1  0  0  0
  2 89  1  0  0  0
  3  4  1  0  0  0
  3 90  1  0  0  0
  3 91  1  0  0  0
  4  5  1  0  0  0
  4 92  1  0  0  0
  4 93  1  0  0  0
  5  6  1  0  0  0
  5 26  1  0  0  0
  5 94  1  0  0  0
  6 25  1  0  0  0
  6 95  1  0  0  0
  6 96  1  0  0  0
  7  8  2  0  0  0
  7 26  1  0  0  0
  7 29  1  0  0  0
  8  9  1  0  0  0
  8 22  1  0  0  0
  9 10  1  0  0  0
  9 27  2  0  0  0
 10 11  2  0  0  0
 10 15  1  0  0  0
 11 12  1  0  0  0
 11 97  1  0  0  0
 12 13  2  0  0  0
 12 98  1  0  0  0
 13 14  1  0  0  0
 13 31  1  0  0  0
 14 15  2  0  0  0
 14 99  1  0  0  0
 15100  1  0  0  0
 16 17  2  0  0  0
 16 21  1  0  0  0
 16 31  1  0  0  0
 17 18  1  0  0  0
 17101  1  0  0  0
 18 19  2  0  0  0
 18102  1  0  0  0
 19 20  1  0  0  0
 19 24  1  0  0  0
 20 21  2  0  0  0
 20103  1  0  0  0
 21 23  1  0  0  0
 22 28  1  0  0  0
 22 32  2  0  0  0
 26 27  1  0  0  0
 28104  1  0  0  0
 28105  1  0  0  0
 29106  1  0  0  0
 29107  1  0  0  0
 33 34  1  0  0  0
 33 66  1  0  0  0
 33 70  2  0  0  0
 34 36  1  0  0  0
 34 59  1  0  0  0
 34108  1  0  0  0
 35 44  2  0  0  0
 35 45  1  0  0  0
 35 68  1  0  0  0
 36 56  1  0  0  0
 36109  1  0  0  0
 37 39  1  0  0  0
 37 47  1  0  0  0
 37 66  1  0  0  0
 37110  1  0  0  0
 38 43  2  0  0  0
 38 46  1  0  0  0
 38 47  1  0  0  0
 39 64  1  0  0  0
 39 67  2  0  0  0
 40 52  1  0  0  0
 40 53  2  0  0  0
 40 58  1  0  0  0
 41111  1  0  0  0
 41112  1  0  0  0
 41113  1  0  0  0
 41 48  1  0  0  0
 42 43  1  0  0  0
 42 66  1  0  0  0
 42114  1  0  0  0
 42115  1  0  0  0
 43 44  1  0  0  0
 44116  1  0  0  0
 45 46  2  0  0  0
 45117  1  0  0  0
 46118  1  0  0  0
 47119  1  0  0  0
 47120  1  0  0  0
 48 56  1  0  0  0
 48 65  1  0  0  0
 48121  1  0  0  0
 49 50  1  0  0  0
 49 53  1  0  0  0
 49 64  1  0  0  0
 49122  1  0  0  0
 50 51  1  0  0  0
 50123  1  0  0  0
 50124  1  0  0  0
 51 52  1  0  0  0
 51125  1  0  0  0
 51126  1  0  0  0
 52127  1  0  0  0
 52128  1  0  0  0
 53 54  1  0  0  0
 54 55  2  0  0  0
 54129  1  0  0  0
 55 57  1  0  0  0
 55130  1  0  0  0
 56 69  2  0  0  0
 57 58  2  0  0  0
 57131  1  0  0  0
 58132  1  0  0  0
 59 60  1  0  0  0
 59 61  1  0  0  0
 59 62  1  0  0  0
 60133  1  0  0  0
 60134  1  0  0  0
 60135  1  0  0  0
 61136  1  0  0  0
 61137  1  0  0  0
 61138  1  0  0  0
 62139  1  0  0  0
 62140  1  0  0  0
 62141  1  0  0  0
 63 65  1  0  0  0
 63142  1  0  0  0
 63143  1  0  0  0
 63144  1  0  0  0
 64145  1  0  0  0
 65146  1  0  0  0
 68 82  1  0  0  0
 71 72  2  0  0  0
 71 86  1  0  0  0
 71147  1  0  0  0
 72 73  1  0  0  0
 72 79  1  0  0  0
 73 83  1  0  0  0
 73 85  2  0  0  0
 74148  1  0  0  0
 74149  1  0  0  0
 74150  1  0  0  0
 74 83  1  0  0  0
 75 83  1  0  0  0
 75151  1  0  0  0
 75152  1  0  0  0
 75153  1  0  0  0
 76 83  1  0  0  0
 76154  1  0  0  0
 76155  1  0  0  0
 76156  1  0  0  0
 77157  1  0  0  0
 77158  1  0  0  0
 77159  1  0  0  0
 77 84  1  0  0  0
 78 84  1  0  0  0
 78160  1  0  0  0
 78161  1  0  0  0
 78162  1  0  0  0
 79 80  1  0  0  0
 79163  1  0  0  0
 79164  1  0  0  0
 80 82  1  0  0  0
 80165  1  0  0  0
 80166  1  0  0  0
 81 84  1  0  0  0
 81 87  1  0  0  0
 81167  1  0  0  0
 81168  1  0  0  0
 82169  1  0  0  0
 82170  1  0  0  0
 84 86  1  0  0  0
 85 86  1  0  0  0
 87171  1  0  0  0
M  ISO  4   1 100  68 101  82 101  87 100
M  END
> <chiral flag>
0

> <version>
0

> <s_m_source_file>
/data/baiqing/PycharmProjects/Reinvent-master-3.2/result/LINK_invent/BTK/process_docking_weight1_custom_sum_contain_oxygen_bond_distance_aromatic_linkinvent_7_9_3/rearranged_h_0084.sdf

> <i_m_source_file_index>
53

> <r_mmod_Potential_Energy-OPLS-2005>
-23.3400382995605

> <r_mmod_Stretch_Energy-OPLS-2005>
74.3453750610352

> <r_mmod_Bend_Energy-OPLS-2005>
162.583847045898

> <r_mmod_Torsional_Energy-OPLS-2005>
247.082824707031

> <r_mmod_Improper_Torsional_Energy-OPLS-2005>
5.88232088088989

> <r_mmod_Van_der_Waal_Energy-OPLS-2005>
130.384170532227

> <r_mmod_Electrostatic_Energy-OPLS-2005>
-478.564697265625

> <r_mmod_Solvation_Energy-OPLS-2005>
-194.313522338867

> <b_mmod_Minimization_Converged-OPLS-2005>
0

> <r_mmod_RMS_Derivative-OPLS-2005>
8.28924751281738

$$$$
53
                    3D
 Structure written by MMmdl.
167175  0  0  1  0            999 V2000
  -30.6147  -14.7626   20.4422 C   0  0  0  0  0  0
  -30.4335  -12.4651   19.4630 C   0  0  0  0  0  0
  -29.5018  -12.4856   18.2308 C   0  0  0  0  0  0
  -28.0305  -12.3109   18.6551 C   0  0  0  0  0  0
  -27.6366  -13.2326   19.8408 C   0  0  2  0  0  0
  -28.6867  -13.1885   20.9711 C   0  0  0  0  0  0
  -25.2500  -13.8195   20.5705 C   0  0  0  0  0  0
  -24.1787  -13.0441   20.9208 C   0  0  0  0  0  0
  -24.6375  -11.6910   20.8750 C   0  0  0  0  0  0
  -23.9064  -10.4283   21.0411 C   0  0  0  0  0  0
  -24.3617   -9.4204   21.9195 C   0  0  0  0  0  0
  -23.6291   -8.2240   22.0761 C   0  0  0  0  0  0
  -22.4279   -8.0273   21.3555 C   0  0  0  0  0  0
  -21.9910   -9.0237   20.4657 C   0  0  0  0  0  0
  -22.7234  -10.2122   20.3060 C   0  0  0  0  0  0
  -21.6849   -6.0729   22.5278 C   0  0  0  0  0  0
  -21.4005   -6.5638   23.8205 C   0  0  0  0  0  0
  -21.3657   -5.6797   24.9168 C   0  0  0  0  0  0
  -21.6034   -4.3055   24.7228 C   0  0  0  0  0  0
  -21.8823   -3.8148   23.4346 C   0  0  0  0  0  0
  -21.9189   -4.6957   22.3397 C   0  0  0  0  0  0
  -22.7805  -13.5221   21.1852 C   0  0  0  0  0  0
  -22.1661   -4.2144   21.0985 F   0  0  0  0  0  0
  -21.5630   -3.4549   25.7741 F   0  0  0  0  0  0
  -29.9803  -13.5404   20.3737 N   0  0  0  0  0  0
  -26.2916  -12.9408   20.3277 N   0  0  0  0  0  0
  -25.9320  -11.6549   20.5786 N   0  0  0  0  0  0
  -22.0462  -12.8187   22.0403 N   0  0  0  0  0  0
  -25.4192  -15.1919   20.4151 N   0  0  0  0  0  0
  -31.8178  -14.8389   20.1789 O   0  0  0  0  0  0
  -21.6639   -6.8871   21.4237 O   0  0  0  0  0  0
  -22.3485  -14.5539   20.6725 O   0  0  0  0  0  0
  -24.6307  -31.8521   23.1977 C   0  0  0  0  0  0
  -25.9147  -32.4727   23.8302 C   0  0  1  0  0  0
  -27.2177  -27.2601   20.1135 C   0  0  0  0  0  0
  -25.5978  -33.8538   24.2219 N   0  0  0  0  0  0
  -23.4281  -30.4776   21.5380 C   0  0  2  0  0  0
  -24.8752  -28.9296   20.1024 C   0  0  0  0  0  0
  -22.7514  -29.4570   22.4853 C   0  0  0  0  0  0
  -18.0290  -28.1365   22.8417 C   0  0  0  0  0  0
  -24.1511  -36.7274   23.2635 C   0  0  0  0  0  0
  -25.9759  -30.7628   21.3817 C   0  0  0  0  0  0
  -26.0453  -29.3873   20.7176 C   0  0  0  0  0  0
  -27.2192  -28.5657   20.7138 C   0  0  0  0  0  0
  -26.0255  -26.8767   19.4572 C   0  0  0  0  0  0
  -24.8706  -27.6833   19.4596 C   0  0  0  0  0  0
  -23.6488  -29.8214   20.1515 C   0  0  0  0  0  0
  -25.4128  -36.3052   24.0314 C   0  0  1  0  0  0
  -20.5892  -28.3685   23.1224 C   0  0  2  0  0  0
  -20.6807  -26.9394   22.5386 C   0  0  0  0  0  0
  -19.5810  -26.6338   21.5176 C   0  0  0  0  0  0
  -18.1955  -26.7893   22.1556 C   0  0  0  0  0  0
  -19.1544  -28.8838   23.2821 C   0  0  0  0  0  0
  -18.9486  -30.1435   23.8850 C   0  0  0  0  0  0
  -17.6492  -30.6561   24.0558 C   0  0  0  0  0  0
  -25.9074  -34.9425   23.5051 C   0  0  0  0  0  0
  -16.5375  -29.9059   23.6338 C   0  0  0  0  0  0
  -16.7275  -28.6502   23.0303 C   0  0  0  0  0  0
  -26.4524  -31.6556   25.0691 C   0  0  0  0  0  0
  -25.3763  -31.3714   26.1431 C   0  0  0  0  0  0
  -27.0383  -30.2969   24.6182 C   0  0  0  0  0  0
  -27.6084  -32.4311   25.7453 C   0  0  0  0  0  0
  -27.5587  -37.1777   24.8444 C   0  0  0  0  0  0
  -21.4217  -29.3061   22.3645 N   0  0  0  0  0  0
  -26.4281  -37.3771   23.9428 N   0  0  0  0  0  0
  -24.6972  -31.0487   22.0952 N   0  0  0  0  0  0
  -23.4221  -28.8078   23.2931 O   0  0  0  0  0  0
  -28.3146  -26.3651   20.1846 O   0  0  0  0  0  0
  -26.5631  -34.8916   22.4606 O   0  0  0  0  0  0
  -23.5467  -32.1338   23.7277 O   0  0  0  0  0  0
  -27.1666  -21.5489   21.2299 C   0  0  0  0  0  0
  -28.3695  -21.0695   20.6735 C   0  0  0  0  0  0
  -26.2154  -20.6932   21.8057 C   0  0  0  0  0  0
  -28.5839  -19.6095   20.7394 C   0  0  0  0  0  0
  -26.5240  -19.3207   21.8528 C   0  0  0  0  0  0
  -25.5778  -18.2916   22.4451 C   0  0  0  0  0  0
  -23.9712  -21.5574   21.0589 C   0  0  0  0  0  0
  -25.0179  -22.5055   23.1754 C   0  0  0  0  0  0
  -29.2118  -22.2198   19.9861 C   0  0  0  0  0  0
  -29.6601  -18.6773   20.0435 C   0  0  0  0  0  0
  -29.1209  -23.7787   20.4993 C   0  0  0  0  0  0
  -30.3130  -17.3746   20.7939 C   0  0  0  0  0  0
  -28.1287  -24.9000   19.8810 C   0  0  0  0  0  0
  -24.8709  -21.2644   22.2716 C   0  0  0  0  0  0
  -27.6605  -18.8188   21.3331 N   0  0  0  0  0  0
  -29.8542  -15.9158   20.6076 N   0  0  0  0  0  0
  -31.4710  -12.5948   19.1491 H   0  0  0  0  0  0
  -30.3940  -11.4976   19.9670 H   0  0  0  0  0  0
  -29.7817  -11.6924   17.5349 H   0  0  0  0  0  0
  -29.6191  -13.4259   17.6908 H   0  0  0  0  0  0
  -27.8949  -11.2668   18.9414 H   0  0  0  0  0  0
  -27.3661  -12.4781   17.8062 H   0  0  0  0  0  0
  -27.6193  -14.2466   19.4385 H   0  0  0  0  0  0
  -28.7302  -12.1956   21.4199 H   0  0  0  0  0  0
  -28.4232  -13.8810   21.7740 H   0  0  0  0  0  0
  -25.2760   -9.5671   22.4777 H   0  0  0  0  0  0
  -23.9988   -7.4630   22.7490 H   0  0  0  0  0  0
  -21.0837   -8.8757   19.8964 H   0  0  0  0  0  0
  -22.3695  -10.9664   19.6166 H   0  0  0  0  0  0
  -21.1997   -7.6146   23.9704 H   0  0  0  0  0  0
  -21.1476   -6.0538   25.9078 H   0  0  0  0  0  0
  -22.0607   -2.7611   23.2857 H   0  0  0  0  0  0
  -22.4081  -11.9830   22.4745 H   0  0  0  0  0  0
  -21.1096  -13.1215   22.2669 H   0  0  0  0  0  0
  -24.6507  -15.8433   20.5294 H   0  0  0  0  0  0
  -26.2731  -15.6400   20.1059 H   0  0  0  0  0  0
  -26.7184  -32.5361   23.1009 H   0  0  0  0  0  0
  -25.0282  -33.9710   25.0479 H   0  0  0  0  0  0
  -22.7231  -31.3007   21.3937 H   0  0  0  0  0  0
  -23.3799  -35.9589   23.3244 H   0  0  0  0  0  0
  -24.3617  -36.8944   22.2065 H   0  0  0  0  0  0
  -23.7234  -37.6437   23.6708 H   0  0  0  0  0  0
  -26.1176  -31.5249   20.6149 H   0  0  0  0  0  0
  -26.8541  -30.8058   22.0164 H   0  0  0  0  0  0
  -28.1141  -28.9108   21.2116 H   0  0  0  0  0  0
  -25.9527  -25.9333   18.9361 H   0  0  0  0  0  0
  -23.9801  -27.3346   18.9556 H   0  0  0  0  0  0
  -23.7821  -30.6082   19.4074 H   0  0  0  0  0  0
  -22.7643  -29.2685   19.8322 H   0  0  0  0  0  0
  -25.1293  -36.1882   25.0802 H   0  0  0  0  0  0
  -20.9969  -28.3274   24.1353 H   0  0  0  0  0  0
  -20.5713  -26.2286   23.3589 H   0  0  0  0  0  0
  -21.6671  -26.7405   22.1194 H   0  0  0  0  0  0
  -19.7025  -25.6247   21.1231 H   0  0  0  0  0  0
  -19.6788  -27.3155   20.6721 H   0  0  0  0  0  0
  -17.4240  -26.6601   21.3947 H   0  0  0  0  0  0
  -18.0367  -26.0011   22.8929 H   0  0  0  0  0  0
  -19.7995  -30.7240   24.2173 H   0  0  0  0  0  0
  -17.5073  -31.6248   24.5170 H   0  0  0  0  0  0
  -15.5394  -30.2978   23.7702 H   0  0  0  0  0  0
  -15.8653  -28.0866   22.6989 H   0  0  0  0  0  0
  -24.6023  -30.6923   25.7799 H   0  0  0  0  0  0
  -24.8872  -32.2880   26.4735 H   0  0  0  0  0  0
  -25.8107  -30.9021   27.0268 H   0  0  0  0  0  0
  -26.2958  -29.6668   24.1258 H   0  0  0  0  0  0
  -27.4126  -29.7249   25.4683 H   0  0  0  0  0  0
  -27.8789  -30.4225   23.9364 H   0  0  0  0  0  0
  -27.2724  -33.3683   26.1902 H   0  0  0  0  0  0
  -28.3958  -32.6735   25.0304 H   0  0  0  0  0  0
  -28.0670  -31.8502   26.5466 H   0  0  0  0  0  0
  -28.2516  -38.0164   24.7569 H   0  0  0  0  0  0
  -28.1155  -36.2670   24.6142 H   0  0  0  0  0  0
  -27.2314  -37.1254   25.8851 H   0  0  0  0  0  0
  -20.9384  -29.8798   21.6872 H   0  0  0  0  0  0
  -26.0127  -38.2808   24.1541 H   0  0  0  0  0  0
  -26.9297  -22.5966   21.1664 H   0  0  0  0  0  0
  -24.6410  -18.2644   21.8891 H   0  0  0  0  0  0
  -25.3581  -18.5284   23.4862 H   0  0  0  0  0  0
  -26.0072  -17.2892   22.4211 H   0  0  0  0  0  0
  -23.7931  -20.6513   20.4765 H   0  0  0  0  0  0
  -24.4133  -22.2974   20.3893 H   0  0  0  0  0  0
  -22.9965  -21.9354   21.3696 H   0  0  0  0  0  0
  -25.6342  -22.2915   24.0483 H   0  0  0  0  0  0
  -24.0440  -22.8281   23.5468 H   0  0  0  0  0  0
  -25.4548  -23.3599   22.6587 H   0  0  0  0  0  0
  -29.0034  -22.1922   18.9161 H   0  0  0  0  0  0
  -30.2555  -21.9169   20.0813 H   0  0  0  0  0  0
  -30.4828  -19.3519   19.8051 H   0  0  0  0  0  0
  -29.2676  -18.3746   19.0718 H   0  0  0  0  0  0
  -30.1135  -24.1903   20.3167 H   0  0  0  0  0  0
  -29.0396  -23.7863   21.5864 H   0  0  0  0  0  0
  -30.3705  -17.5833   21.8625 H   0  0  0  0  0  0
  -31.3549  -17.3751   20.4686 H   0  0  0  0  0  0
  -27.1271  -24.6075   20.1937 H   0  0  0  0  0  0
  -28.1474  -24.7985   18.7966 H   0  0  0  0  0  0
  -24.3558  -20.5203   22.8771 H   0  0  0  0  0  0
  -28.8640  -15.7607   20.7214 H   0  0  0  0  0  0
  1 25  1  0  0  0
  1 30  2  0  0  0
  1 86  1  0  0  0
  2  3  1  0  0  0
  2 25  1  0  0  0
  2 87  1  0  0  0
  2 88  1  0  0  0
  3  4  1  0  0  0
  3 89  1  0  0  0
  3 90  1  0  0  0
  4  5  1  0  0  0
  4 91  1  0  0  0
  4 92  1  0  0  0
  5  6  1  0  0  0
  5 26  1  0  0  0
  5 93  1  0  0  0
  6 25  1  0  0  0
  6 94  1  0  0  0
  6 95  1  0  0  0
  7  8  2  0  0  0
  7 26  1  0  0  0
  7 29  1  0  0  0
  8  9  1  0  0  0
  8 22  1  0  0  0
  9 10  1  0  0  0
  9 27  2  0  0  0
 10 11  2  0  0  0
 10 15  1  0  0  0
 11 12  1  0  0  0
 11 96  1  0  0  0
 12 13  2  0  0  0
 12 97  1  0  0  0
 13 14  1  0  0  0
 13 31  1  0  0  0
 14 15  2  0  0  0
 14 98  1  0  0  0
 15 99  1  0  0  0
 16 17  2  0  0  0
 16 21  1  0  0  0
 16 31  1  0  0  0
 17 18  1  0  0  0
 17100  1  0  0  0
 18 19  2  0  0  0
 18101  1  0  0  0
 19 20  1  0  0  0
 19 24  1  0  0  0
 20 21  2  0  0  0
 20102  1  0  0  0
 21 23  1  0  0  0
 22 28  1  0  0  0
 22 32  2  0  0  0
 26 27  1  0  0  0
 28103  1  0  0  0
 28104  1  0  0  0
 29105  1  0  0  0
 29106  1  0  0  0
 33 34  1  0  0  0
 33 66  1  0  0  0
 33 70  2  0  0  0
 34 36  1  0  0  0
 34 59  1  0  0  0
 34107  1  0  0  0
 35 44  2  0  0  0
 35 45  1  0  0  0
 35 68  1  0  0  0
 36 56  1  0  0  0
 36108  1  0  0  0
 37 39  1  0  0  0
 37 47  1  0  0  0
 37 66  1  0  0  0
 37109  1  0  0  0
 38 43  2  0  0  0
 38 46  1  0  0  0
 38 47  1  0  0  0
 39 64  1  0  0  0
 39 67  2  0  0  0
 40 52  1  0  0  0
 40 53  2  0  0  0
 40 58  1  0  0  0
 41110  1  0  0  0
 41111  1  0  0  0
 41112  1  0  0  0
 41 48  1  0  0  0
 42 43  1  0  0  0
 42 66  1  0  0  0
 42113  1  0  0  0
 42114  1  0  0  0
 43 44  1  0  0  0
 44115  1  0  0  0
 45 46  2  0  0  0
 45116  1  0  0  0
 46117  1  0  0  0
 47118  1  0  0  0
 47119  1  0  0  0
 48 56  1  0  0  0
 48 65  1  0  0  0
 48120  1  0  0  0
 49 50  1  0  0  0
 49 53  1  0  0  0
 49 64  1  0  0  0
 49121  1  0  0  0
 50 51  1  0  0  0
 50122  1  0  0  0
 50123  1  0  0  0
 51 52  1  0  0  0
 51124  1  0  0  0
 51125  1  0  0  0
 52126  1  0  0  0
 52127  1  0  0  0
 53 54  1  0  0  0
 54 55  2  0  0  0
 54128  1  0  0  0
 55 57  1  0  0  0
 55129  1  0  0  0
 56 69  2  0  0  0
 57 58  2  0  0  0
 57130  1  0  0  0
 58131  1  0  0  0
 59 60  1  0  0  0
 59 61  1  0  0  0
 59 62  1  0  0  0
 60132  1  0  0  0
 60133  1  0  0  0
 60134  1  0  0  0
 61135  1  0  0  0
 61136  1  0  0  0
 61137  1  0  0  0
 62138  1  0  0  0
 62139  1  0  0  0
 62140  1  0  0  0
 63 65  1  0  0  0
 63141  1  0  0  0
 63142  1  0  0  0
 63143  1  0  0  0
 64144  1  0  0  0
 65145  1  0  0  0
 68 83  1  0  0  0
 71 72  2  0  0  0
 71 73  1  0  0  0
 71146  1  0  0  0
 72 74  1  0  0  0
 72 79  1  0  0  0
 73 75  2  0  0  0
 73 84  1  0  0  0
 74 80  1  0  0  0
 74 85  2  0  0  0
 75 76  1  0  0  0
 75 85  1  0  0  0
 76147  1  0  0  0
 76148  1  0  0  0
 76149  1  0  0  0
 77150  1  0  0  0
 77151  1  0  0  0
 77152  1  0  0  0
 77 84  1  0  0  0
 78 84  1  0  0  0
 78153  1  0  0  0
 78154  1  0  0  0
 78155  1  0  0  0
 79 81  1  0  0  0
 79156  1  0  0  0
 79157  1  0  0  0
 80 82  1  0  0  0
 80158  1  0  0  0
 80159  1  0  0  0
 81 83  1  0  0  0
 81160  1  0  0  0
 81161  1  0  0  0
 82 86  1  0  0  0
 82162  1  0  0  0
 82163  1  0  0  0
 83164  1  0  0  0
 83165  1  0  0  0
 84166  1  0  0  0
 86167  1  0  0  0
M  ISO  4   1 100  68 101  83 101  86 100
M  END
> <chiral flag>
0

> <version>
0

> <s_m_source_file>
/data/baiqing/PycharmProjects/Reinvent-master-3.2/result/LINK_invent/BTK/process_docking_weight1_custom_sum_contain_oxygen_bond_distance_aromatic_linkinvent_7_9_3/rearranged_h_0084.sdf

> <i_m_source_file_index>
54

> <r_mmod_Potential_Energy-OPLS-2005>
99.4145660400391

> <r_mmod_Stretch_Energy-OPLS-2005>
140.5673828125

> <r_mmod_Bend_Energy-OPLS-2005>
219.349090576172

> <r_mmod_Torsional_Energy-OPLS-2005>
224.429321289062

> <r_mmod_Improper_Torsional_Energy-OPLS-2005>
5.24672508239746

> <r_mmod_Van_der_Waal_Energy-OPLS-2005>
136.307235717773

> <r_mmod_Electrostatic_Energy-OPLS-2005>
-506.341857910156

> <r_mmod_Solvation_Energy-OPLS-2005>
-213.355026245117

> <b_mmod_Minimization_Converged-OPLS-2005>
0

> <r_mmod_RMS_Derivative-OPLS-2005>
3.50139188766479

$$$$
54
                    3D
 Structure written by MMmdl.
172180  0  0  1  0            999 V2000
  -30.6626  -14.5350   20.5205 C   0  0  0  0  0  0
  -30.4296  -12.3272   19.4507 C   0  0  0  0  0  0
  -29.5088  -12.5025   18.2241 C   0  0  0  0  0  0
  -28.0271  -12.3601   18.6255 C   0  0  0  0  0  0
  -27.6604  -13.2083   19.8734 C   0  0  2  0  0  0
  -28.7003  -13.0241   21.0040 C   0  0  0  0  0  0
  -25.2585  -13.8169   20.5666 C   0  0  0  0  0  0
  -24.1832  -13.0455   20.9168 C   0  0  0  0  0  0
  -24.6380  -11.6922   20.8721 C   0  0  0  0  0  0
  -23.9037  -10.4314   21.0387 C   0  0  0  0  0  0
  -24.3598   -9.4236   21.9168 C   0  0  0  0  0  0
  -23.6282   -8.2268   22.0748 C   0  0  0  0  0  0
  -22.4269   -8.0285   21.3544 C   0  0  0  0  0  0
  -21.9894   -9.0256   20.4639 C   0  0  0  0  0  0
  -22.7212  -10.2139   20.3040 C   0  0  0  0  0  0
  -21.6858   -6.0723   22.5270 C   0  0  0  0  0  0
  -21.4014   -6.5625   23.8201 C   0  0  0  0  0  0
  -21.3668   -5.6782   24.9164 C   0  0  0  0  0  0
  -21.6053   -4.3046   24.7219 C   0  0  0  0  0  0
  -21.8827   -3.8133   23.4339 C   0  0  0  0  0  0
  -21.9199   -4.6951   22.3395 C   0  0  0  0  0  0
  -22.7855  -13.5267   21.1822 C   0  0  0  0  0  0
  -22.1662   -4.2135   21.0974 F   0  0  0  0  0  0
  -21.5633   -3.4533   25.7735 F   0  0  0  0  0  0
  -30.0297  -13.3291   20.4537 N   0  0  0  0  0  0
  -26.3010  -12.9333   20.3341 N   0  0  0  0  0  0
  -25.9305  -11.6496   20.5752 N   0  0  0  0  0  0
  -22.0458  -12.8297   22.0377 N   0  0  0  0  0  0
  -25.4332  -15.1887   20.4094 N   0  0  0  0  0  0
  -31.8067  -14.7037   20.0883 O   0  0  0  0  0  0
  -21.6641   -6.8874   21.4239 O   0  0  0  0  0  0
  -22.3577  -14.5580   20.6655 O   0  0  0  0  0  0
  -24.6166  -31.8650   23.2069 C   0  0  0  0  0  0
  -25.9044  -32.4804   23.8375 C   0  0  1  0  0  0
  -27.2364  -27.4005   20.1047 C   0  0  0  0  0  0
  -25.5892  -33.8602   24.2305 N   0  0  0  0  0  0
  -23.4082  -30.4867   21.5465 C   0  0  2  0  0  0
  -24.8588  -28.9445   20.1172 C   0  0  0  0  0  0
  -22.7425  -29.4648   22.4967 C   0  0  0  0  0  0
  -18.0281  -28.1383   22.8484 C   0  0  0  0  0  0
  -24.1490  -36.7314   23.2639 C   0  0  0  0  0  0
  -25.9406  -30.8169   21.3691 C   0  0  0  0  0  0
  -26.0191  -29.4464   20.7213 C   0  0  0  0  0  0
  -27.2127  -28.6800   20.7185 C   0  0  0  0  0  0
  -26.0640  -26.9240   19.4883 C   0  0  0  0  0  0
  -24.8764  -27.6811   19.4995 C   0  0  0  0  0  0
  -23.6215  -29.8150   20.1630 C   0  0  0  0  0  0
  -25.4111  -36.3100   24.0333 C   0  0  1  0  0  0
  -20.5868  -28.3678   23.1302 C   0  0  2  0  0  0
  -20.6773  -26.9410   22.5413 C   0  0  0  0  0  0
  -19.5749  -26.6387   21.5210 C   0  0  0  0  0  0
  -18.1929  -26.7928   22.1616 C   0  0  0  0  0  0
  -19.1524  -28.8842   23.2891 C   0  0  0  0  0  0
  -18.9458  -30.1450   23.8904 C   0  0  0  0  0  0
  -17.6458  -30.6586   24.0559 C   0  0  0  0  0  0
  -25.9040  -34.9468   23.5117 C   0  0  0  0  0  0
  -16.5349  -29.9089   23.6320 C   0  0  0  0  0  0
  -16.7265  -28.6503   23.0340 C   0  0  0  0  0  0
  -26.4467  -31.6587   25.0707 C   0  0  0  0  0  0
  -25.3729  -31.3712   26.1453 C   0  0  0  0  0  0
  -27.0297  -30.3017   24.6109 C   0  0  0  0  0  0
  -27.6032  -32.4315   25.7472 C   0  0  0  0  0  0
  -27.5583  -37.1812   24.8463 C   0  0  0  0  0  0
  -21.4149  -29.3038   22.3704 N   0  0  0  0  0  0
  -26.4294  -37.3783   23.9410 N   0  0  0  0  0  0
  -24.6728  -31.0724   22.0983 N   0  0  0  0  0  0
  -23.4176  -28.8206   23.3038 O   0  0  0  0  0  0
  -28.3674  -26.6051   20.0463 O   0  0  0  0  0  0
  -26.5600  -34.8918   22.4683 O   0  0  0  0  0  0
  -23.5346  -32.1439   23.7423 O   0  0  0  0  0  0
  -28.9738  -21.9688   20.7876 C   0  0  0  0  0  0
  -29.4775  -23.2559   21.1545 C   0  0  0  0  0  0
  -29.8607  -20.8594   20.6696 C   0  0  0  0  0  0
  -30.8873  -23.2932   21.3816 C   0  0  0  0  0  0
  -32.2982  -27.6494   21.4575 C   0  0  0  0  0  0
  -33.6889  -26.9954   19.4873 C   0  0  0  0  0  0
  -34.3089  -26.1713   21.7626 C   0  0  0  0  0  0
  -28.4553  -24.4120   21.4147 C   0  0  0  0  0  0
  -29.4407  -19.4726   20.1404 C   0  0  0  0  0  0
  -31.6890  -24.5140   21.8032 C   0  0  0  0  0  0
  -29.7525  -18.2051   21.0169 C   0  0  0  0  0  0
  -32.2423  -25.2663   20.5705 C   0  0  0  0  0  0
  -29.9312  -16.9119   20.1509 C   0  0  0  0  0  0
  -28.7592  -25.9550   21.2694 C   0  0  0  0  0  0
  -33.1265  -26.5107   20.8367 C   0  0  0  0  0  0
  -31.1870  -21.0130   20.8695 N   0  0  0  0  0  0
  -31.6792  -22.2005   21.2200 N   0  0  0  0  0  0
  -29.8743  -15.5922   20.8337 N   0  0  0  0  0  0
  -31.4736  -12.4311   19.1516 H   0  0  0  0  0  0
  -30.3361  -11.3219   19.8637 H   0  0  0  0  0  0
  -29.7632  -11.7686   17.4577 H   0  0  0  0  0  0
  -29.6763  -13.4839   17.7770 H   0  0  0  0  0  0
  -27.8405  -11.3050   18.8263 H   0  0  0  0  0  0
  -27.3832  -12.6258   17.7857 H   0  0  0  0  0  0
  -27.6931  -14.2512   19.5612 H   0  0  0  0  0  0
  -28.6810  -11.9984   21.3762 H   0  0  0  0  0  0
  -28.4611  -13.6559   21.8605 H   0  0  0  0  0  0
  -25.2725   -9.5731   22.4757 H   0  0  0  0  0  0
  -23.9992   -7.4671   22.7475 H   0  0  0  0  0  0
  -21.0816   -8.8761   19.8960 H   0  0  0  0  0  0
  -22.3635  -10.9675   19.6162 H   0  0  0  0  0  0
  -21.1989   -7.6128   23.9707 H   0  0  0  0  0  0
  -21.1490   -6.0498   25.9072 H   0  0  0  0  0  0
  -22.0598   -2.7595   23.2837 H   0  0  0  0  0  0
  -22.4020  -11.9958   22.4810 H   0  0  0  0  0  0
  -21.1074  -13.1371   22.2527 H   0  0  0  0  0  0
  -24.6684  -15.8464   20.5090 H   0  0  0  0  0  0
  -26.2890  -15.6251   20.0896 H   0  0  0  0  0  0
  -26.7107  -32.5507   23.1128 H   0  0  0  0  0  0
  -25.0023  -33.9756   25.0434 H   0  0  0  0  0  0
  -22.6981  -31.3042   21.4022 H   0  0  0  0  0  0
  -23.3738  -35.9659   23.3307 H   0  0  0  0  0  0
  -24.3585  -36.8923   22.2054 H   0  0  0  0  0  0
  -23.7260  -37.6526   23.6651 H   0  0  0  0  0  0
  -26.0591  -31.5794   20.5981 H   0  0  0  0  0  0
  -26.8264  -30.8712   21.9909 H   0  0  0  0  0  0
  -28.1104  -29.0656   21.1801 H   0  0  0  0  0  0
  -26.0709  -25.9571   19.0044 H   0  0  0  0  0  0
  -23.9866  -27.2885   19.0273 H   0  0  0  0  0  0
  -23.7343  -30.5884   19.4024 H   0  0  0  0  0  0
  -22.7460  -29.2357   19.8646 H   0  0  0  0  0  0
  -25.1293  -36.1955   25.0824 H   0  0  0  0  0  0
  -20.9957  -28.3248   24.1421 H   0  0  0  0  0  0
  -20.5676  -26.2288   23.3607 H   0  0  0  0  0  0
  -21.6651  -26.7459   22.1207 H   0  0  0  0  0  0
  -19.6922  -25.6303   21.1233 H   0  0  0  0  0  0
  -19.6692  -27.3200   20.6743 H   0  0  0  0  0  0
  -17.4208  -26.6666   21.4012 H   0  0  0  0  0  0
  -18.0330  -26.0073   22.9014 H   0  0  0  0  0  0
  -19.7936  -30.7261   24.2273 H   0  0  0  0  0  0
  -17.5018  -31.6266   24.5165 H   0  0  0  0  0  0
  -15.5348  -30.2993   23.7652 H   0  0  0  0  0  0
  -15.8664  -28.0830   22.7047 H   0  0  0  0  0  0
  -24.5887  -30.7069   25.7800 H   0  0  0  0  0  0
  -24.8934  -32.2875   26.4905 H   0  0  0  0  0  0
  -25.8075  -30.8878   27.0210 H   0  0  0  0  0  0
  -26.2847  -29.6778   24.1146 H   0  0  0  0  0  0
  -27.4037  -29.7247   25.4581 H   0  0  0  0  0  0
  -27.8700  -30.4320   23.9282 H   0  0  0  0  0  0
  -27.2633  -33.3601   26.2071 H   0  0  0  0  0  0
  -28.3824  -32.6902   25.0290 H   0  0  0  0  0  0
  -28.0715  -31.8429   26.5372 H   0  0  0  0  0  0
  -28.2604  -38.0105   24.7496 H   0  0  0  0  0  0
  -28.1074  -36.2635   24.6298 H   0  0  0  0  0  0
  -27.2301  -37.1475   25.8865 H   0  0  0  0  0  0
  -20.9319  -29.8743   21.6905 H   0  0  0  0  0  0
  -26.0179  -38.2859   24.1396 H   0  0  0  0  0  0
  -27.9188  -21.8277   20.5998 H   0  0  0  0  0  0
  -32.9050  -28.5439   21.6070 H   0  0  0  0  0  0
  -31.8890  -27.3732   22.4287 H   0  0  0  0  0  0
  -31.4646  -27.9315   20.8138 H   0  0  0  0  0  0
  -34.3030  -27.8896   19.6040 H   0  0  0  0  0  0
  -32.8909  -27.2380   18.7845 H   0  0  0  0  0  0
  -34.3139  -26.2341   19.0179 H   0  0  0  0  0  0
  -34.9874  -27.0197   21.8666 H   0  0  0  0  0  0
  -34.8920  -25.3351   21.3757 H   0  0  0  0  0  0
  -33.9774  -25.9075   22.7664 H   0  0  0  0  0  0
  -28.1580  -24.2598   22.4527 H   0  0  0  0  0  0
  -27.5510  -24.2032   20.8418 H   0  0  0  0  0  0
  -29.9416  -19.3599   19.1780 H   0  0  0  0  0  0
  -28.3763  -19.4902   19.9051 H   0  0  0  0  0  0
  -32.5300  -24.1555   22.3975 H   0  0  0  0  0  0
  -31.1316  -25.1270   22.5048 H   0  0  0  0  0  0
  -28.9712  -18.0791   21.7676 H   0  0  0  0  0  0
  -30.6778  -18.3651   21.5702 H   0  0  0  0  0  0
  -31.4106  -25.5484   19.9234 H   0  0  0  0  0  0
  -32.8212  -24.5493   19.9851 H   0  0  0  0  0  0
  -30.8576  -17.0058   19.5804 H   0  0  0  0  0  0
  -29.1367  -16.8897   19.4025 H   0  0  0  0  0  0
  -29.7882  -26.2260   21.4423 H   0  0  0  0  0  0
  -28.2332  -26.4441   22.0921 H   0  0  0  0  0  0
  -28.9808  -15.3425   21.2331 H   0  0  0  0  0  0
  1 25  1  0  0  0
  1 30  2  0  0  0
  1 88  1  0  0  0
  2  3  1  0  0  0
  2 25  1  0  0  0
  2 89  1  0  0  0
  2 90  1  0  0  0
  3  4  1  0  0  0
  3 91  1  0  0  0
  3 92  1  0  0  0
  4  5  1  0  0  0
  4 93  1  0  0  0
  4 94  1  0  0  0
  5  6  1  0  0  0
  5 26  1  0  0  0
  5 95  1  0  0  0
  6 25  1  0  0  0
  6 96  1  0  0  0
  6 97  1  0  0  0
  7  8  2  0  0  0
  7 26  1  0  0  0
  7 29  1  0  0  0
  8  9  1  0  0  0
  8 22  1  0  0  0
  9 10  1  0  0  0
  9 27  2  0  0  0
 10 11  2  0  0  0
 10 15  1  0  0  0
 11 12  1  0  0  0
 11 98  1  0  0  0
 12 13  2  0  0  0
 12 99  1  0  0  0
 13 14  1  0  0  0
 13 31  1  0  0  0
 14 15  2  0  0  0
 14100  1  0  0  0
 15101  1  0  0  0
 16 17  2  0  0  0
 16 21  1  0  0  0
 16 31  1  0  0  0
 17 18  1  0  0  0
 17102  1  0  0  0
 18 19  2  0  0  0
 18103  1  0  0  0
 19 20  1  0  0  0
 19 24  1  0  0  0
 20 21  2  0  0  0
 20104  1  0  0  0
 21 23  1  0  0  0
 22 28  1  0  0  0
 22 32  2  0  0  0
 26 27  1  0  0  0
 28105  1  0  0  0
 28106  1  0  0  0
 29107  1  0  0  0
 29108  1  0  0  0
 33 34  1  0  0  0
 33 66  1  0  0  0
 33 70  2  0  0  0
 34 36  1  0  0  0
 34 59  1  0  0  0
 34109  1  0  0  0
 35 44  2  0  0  0
 35 45  1  0  0  0
 35 68  1  0  0  0
 36 56  1  0  0  0
 36110  1  0  0  0
 37 39  1  0  0  0
 37 47  1  0  0  0
 37 66  1  0  0  0
 37111  1  0  0  0
 38 43  2  0  0  0
 38 46  1  0  0  0
 38 47  1  0  0  0
 39 64  1  0  0  0
 39 67  2  0  0  0
 40 52  1  0  0  0
 40 53  2  0  0  0
 40 58  1  0  0  0
 41112  1  0  0  0
 41113  1  0  0  0
 41114  1  0  0  0
 41 48  1  0  0  0
 42 43  1  0  0  0
 42 66  1  0  0  0
 42115  1  0  0  0
 42116  1  0  0  0
 43 44  1  0  0  0
 44117  1  0  0  0
 45 46  2  0  0  0
 45118  1  0  0  0
 46119  1  0  0  0
 47120  1  0  0  0
 47121  1  0  0  0
 48 56  1  0  0  0
 48 65  1  0  0  0
 48122  1  0  0  0
 49 50  1  0  0  0
 49 53  1  0  0  0
 49 64  1  0  0  0
 49123  1  0  0  0
 50 51  1  0  0  0
 50124  1  0  0  0
 50125  1  0  0  0
 51 52  1  0  0  0
 51126  1  0  0  0
 51127  1  0  0  0
 52128  1  0  0  0
 52129  1  0  0  0
 53 54  1  0  0  0
 54 55  2  0  0  0
 54130  1  0  0  0
 55 57  1  0  0  0
 55131  1  0  0  0
 56 69  2  0  0  0
 57 58  2  0  0  0
 57132  1  0  0  0
 58133  1  0  0  0
 59 60  1  0  0  0
 59 61  1  0  0  0
 59 62  1  0  0  0
 60134  1  0  0  0
 60135  1  0  0  0
 60136  1  0  0  0
 61137  1  0  0  0
 61138  1  0  0  0
 61139  1  0  0  0
 62140  1  0  0  0
 62141  1  0  0  0
 62142  1  0  0  0
 63 65  1  0  0  0
 63143  1  0  0  0
 63144  1  0  0  0
 63145  1  0  0  0
 64146  1  0  0  0
 65147  1  0  0  0
 68 84  1  0  0  0
 71 72  2  0  0  0
 71 73  1  0  0  0
 71148  1  0  0  0
 72 74  1  0  0  0
 72 78  1  0  0  0
 73 79  1  0  0  0
 73 86  2  0  0  0
 74 80  1  0  0  0
 74 87  2  0  0  0
 75149  1  0  0  0
 75150  1  0  0  0
 75151  1  0  0  0
 75 85  1  0  0  0
 76 85  1  0  0  0
 76152  1  0  0  0
 76153  1  0  0  0
 76154  1  0  0  0
 77 85  1  0  0  0
 77155  1  0  0  0
 77156  1  0  0  0
 77157  1  0  0  0
 78 84  1  0  0  0
 78158  1  0  0  0
 78159  1  0  0  0
 79 81  1  0  0  0
 79160  1  0  0  0
 79161  1  0  0  0
 80 82  1  0  0  0
 80162  1  0  0  0
 80163  1  0  0  0
 81 83  1  0  0  0
 81164  1  0  0  0
 81165  1  0  0  0
 82 85  1  0  0  0
 82166  1  0  0  0
 82167  1  0  0  0
 83 88  1  0  0  0
 83168  1  0  0  0
 83169  1  0  0  0
 84170  1  0  0  0
 84171  1  0  0  0
 86 87  1  0  0  0
 88172  1  0  0  0
M  ISO  4   1 100  68 101  84 101  88 100
M  END
> <chiral flag>
0

> <version>
0

> <s_m_source_file>
/data/baiqing/PycharmProjects/Reinvent-master-3.2/result/LINK_invent/BTK/process_docking_weight1_custom_sum_contain_oxygen_bond_distance_aromatic_linkinvent_7_9_3/rearranged_h_0084.sdf

> <i_m_source_file_index>
55

> <r_mmod_Potential_Energy-OPLS-2005>
21.5164489746094

> <r_mmod_Stretch_Energy-OPLS-2005>
54.579517364502

> <r_mmod_Bend_Energy-OPLS-2005>
151.130157470703

> <r_mmod_Torsional_Energy-OPLS-2005>
244.288879394531

> <r_mmod_Improper_Torsional_Energy-OPLS-2005>
9.41804027557373

> <r_mmod_Van_der_Waal_Energy-OPLS-2005>
148.976959228516

> <r_mmod_Electrostatic_Energy-OPLS-2005>
-374.989349365234

> <r_mmod_Solvation_Energy-OPLS-2005>
-232.470443725586

> <b_mmod_Minimization_Converged-OPLS-2005>
0

> <r_mmod_RMS_Derivative-OPLS-2005>
1.77607142925262

$$$$
55
                    3D
 Structure written by MMmdl.
163171  0  0  1  0            999 V2000
  -30.7074  -14.4708   20.5491 C   0  0  0  0  0  0
  -30.4178  -12.2972   19.4376 C   0  0  0  0  0  0
  -29.5006  -12.4981   18.2140 C   0  0  0  0  0  0
  -28.0198  -12.3475   18.6206 C   0  0  0  0  0  0
  -27.6581  -13.2004   19.8710 C   0  0  2  0  0  0
  -28.6972  -12.9978   20.9979 C   0  0  0  0  0  0
  -25.2625  -13.8164   20.5721 C   0  0  0  0  0  0
  -24.1864  -13.0441   20.9234 C   0  0  0  0  0  0
  -24.6416  -11.6917   20.8790 C   0  0  0  0  0  0
  -23.9091  -10.4300   21.0463 C   0  0  0  0  0  0
  -24.3632   -9.4201   21.9237 C   0  0  0  0  0  0
  -23.6296   -8.2234   22.0755 C   0  0  0  0  0  0
  -22.4272   -8.0306   21.3553 C   0  0  0  0  0  0
  -21.9943   -9.0286   20.4650 C   0  0  0  0  0  0
  -22.7283  -10.2162   20.3084 C   0  0  0  0  0  0
  -21.6826   -6.0784   22.5329 C   0  0  0  0  0  0
  -21.3995   -6.5672   23.8274 C   0  0  0  0  0  0
  -21.3661   -5.6809   24.9227 C   0  0  0  0  0  0
  -21.6039   -4.3072   24.7261 C   0  0  0  0  0  0
  -21.8803   -3.8184   23.4369 C   0  0  0  0  0  0
  -21.9179   -4.7016   22.3430 C   0  0  0  0  0  0
  -22.7894  -13.5244   21.1879 C   0  0  0  0  0  0
  -22.1638   -4.2206   21.0998 F   0  0  0  0  0  0
  -21.5643   -3.4533   25.7759 F   0  0  0  0  0  0
  -30.0267  -13.2982   20.4428 N   0  0  0  0  0  0
  -26.3020  -12.9303   20.3356 N   0  0  0  0  0  0
  -25.9322  -11.6471   20.5766 N   0  0  0  0  0  0
  -22.0518  -12.8221   22.0429 N   0  0  0  0  0  0
  -25.4349  -15.1876   20.4121 N   0  0  0  0  0  0
  -31.8552  -14.6198   20.1270 O   0  0  0  0  0  0
  -21.6597   -6.8926   21.4291 O   0  0  0  0  0  0
  -22.3568  -14.5548   20.6745 O   0  0  0  0  0  0
  -24.6155  -31.8685   23.2104 C   0  0  0  0  0  0
  -25.9047  -32.4820   23.8403 C   0  0  1  0  0  0
  -27.2387  -27.4369   20.0837 C   0  0  0  0  0  0
  -25.5908  -33.8622   24.2336 N   0  0  0  0  0  0
  -23.4037  -30.4910   21.5543 C   0  0  2  0  0  0
  -24.8441  -28.9548   20.1198 C   0  0  0  0  0  0
  -22.7420  -29.4662   22.5025 C   0  0  0  0  0  0
  -18.0271  -28.1375   22.8504 C   0  0  0  0  0  0
  -24.1507  -36.7332   23.2636 C   0  0  0  0  0  0
  -25.9329  -30.8326   21.3614 C   0  0  0  0  0  0
  -26.0072  -29.4680   20.7057 C   0  0  0  0  0  0
  -27.2041  -28.7179   20.6821 C   0  0  0  0  0  0
  -26.0453  -26.9259   19.5183 C   0  0  0  0  0  0
  -24.8574  -27.6795   19.5308 C   0  0  0  0  0  0
  -23.6093  -29.8248   20.1679 C   0  0  0  0  0  0
  -25.4119  -36.3115   24.0333 C   0  0  1  0  0  0
  -20.5872  -28.3647   23.1341 C   0  0  2  0  0  0
  -20.6774  -26.9393   22.5421 C   0  0  0  0  0  0
  -19.5751  -26.6384   21.5217 C   0  0  0  0  0  0
  -18.1928  -26.7932   22.1631 C   0  0  0  0  0  0
  -19.1527  -28.8825   23.2912 C   0  0  0  0  0  0
  -18.9452  -30.1442   23.8911 C   0  0  0  0  0  0
  -17.6452  -30.6579   24.0568 C   0  0  0  0  0  0
  -25.9030  -34.9475   23.5123 C   0  0  0  0  0  0
  -16.5340  -29.9083   23.6327 C   0  0  0  0  0  0
  -16.7261  -28.6503   23.0338 C   0  0  0  0  0  0
  -26.4471  -31.6604   25.0738 C   0  0  0  0  0  0
  -25.3752  -31.3697   26.1494 C   0  0  0  0  0  0
  -27.0282  -30.3049   24.6101 C   0  0  0  0  0  0
  -27.6056  -32.4316   25.7499 C   0  0  0  0  0  0
  -27.5589  -37.1827   24.8458 C   0  0  0  0  0  0
  -21.4149  -29.3022   22.3749 N   0  0  0  0  0  0
  -26.4305  -37.3795   23.9395 N   0  0  0  0  0  0
  -24.6696  -31.0786   22.1001 N   0  0  0  0  0  0
  -23.4183  -28.8188   23.3054 O   0  0  0  0  0  0
  -28.4410  -26.7520   20.0832 O   0  0  0  0  0  0
  -26.5599  -34.8932   22.4691 O   0  0  0  0  0  0
  -23.5347  -32.1435   23.7495 O   0  0  0  0  0  0
  -29.4395  -21.1895   21.9273 C   0  0  0  0  0  0
  -29.5625  -22.1421   20.8877 C   0  0  0  0  0  0
  -29.5678  -19.8102   21.6147 C   0  0  0  0  0  0
  -29.8600  -21.6290   19.6011 C   0  0  0  0  0  0
  -30.1547  -22.5249   18.4143 C   0  0  0  0  0  0
  -29.7780  -19.1871   24.0942 C   0  0  0  0  0  0
  -29.3939  -23.6430   21.1696 C   0  0  0  0  0  0
  -28.1816  -24.3023   20.4583 C   0  0  0  0  0  0
  -30.2833  -17.4099   22.3463 C   0  0  0  0  0  0
  -29.4672  -16.1505   21.9398 C   0  0  0  0  0  0
  -28.5390  -25.4533   19.4839 C   0  0  0  0  0  0
  -29.4393  -18.6883   22.6711 C   0  0  2  0  0  0
  -29.7369  -19.4070   20.3298 N   0  0  0  0  0  0
  -29.9128  -20.2980   19.3490 N   0  0  0  0  0  0
  -29.9493  -15.5698   20.6859 N   0  0  0  0  0  0
  -31.4661  -12.3704   19.1482 H   0  0  0  0  0  0
  -30.2938  -11.2938   19.8506 H   0  0  0  0  0  0
  -29.7524  -11.7768   17.4349 H   0  0  0  0  0  0
  -29.6695  -13.4887   17.7861 H   0  0  0  0  0  0
  -27.8429  -11.2898   18.8243 H   0  0  0  0  0  0
  -27.3657  -12.5995   17.7857 H   0  0  0  0  0  0
  -27.7024  -14.2434   19.5619 H   0  0  0  0  0  0
  -28.6824  -11.9650   21.3490 H   0  0  0  0  0  0
  -28.4544  -13.6057   21.8695 H   0  0  0  0  0  0
  -25.2819   -9.5644   22.4762 H   0  0  0  0  0  0
  -24.0045   -7.4606   22.7418 H   0  0  0  0  0  0
  -21.0912   -8.8811   19.8889 H   0  0  0  0  0  0
  -22.3819  -10.9700   19.6142 H   0  0  0  0  0  0
  -21.1947   -7.6171   23.9812 H   0  0  0  0  0  0
  -21.1498   -6.0516   25.9133 H   0  0  0  0  0  0
  -22.0563   -2.7647   23.2850 H   0  0  0  0  0  0
  -22.4057  -11.9857   22.4802 H   0  0  0  0  0  0
  -21.1122  -13.1204   22.2573 H   0  0  0  0  0  0
  -24.6726  -15.8437   20.5350 H   0  0  0  0  0  0
  -26.2858  -15.6295   20.0815 H   0  0  0  0  0  0
  -26.7128  -32.5526   23.1169 H   0  0  0  0  0  0
  -25.0073  -33.9786   25.0486 H   0  0  0  0  0  0
  -22.6919  -31.3076   21.4160 H   0  0  0  0  0  0
  -23.3751  -35.9684   23.3303 H   0  0  0  0  0  0
  -24.3596  -36.8937   22.2048 H   0  0  0  0  0  0
  -23.7279  -37.6550   23.6641 H   0  0  0  0  0  0
  -26.0511  -31.6010   20.5971 H   0  0  0  0  0  0
  -26.8175  -30.8791   21.9836 H   0  0  0  0  0  0
  -28.1071  -29.1219   21.1157 H   0  0  0  0  0  0
  -25.9987  -25.9465   19.0703 H   0  0  0  0  0  0
  -23.9579  -27.2668   19.0929 H   0  0  0  0  0  0
  -23.7269  -30.6026   19.4119 H   0  0  0  0  0  0
  -22.7312  -29.2512   19.8685 H   0  0  0  0  0  0
  -25.1300  -36.1989   25.0827 H   0  0  0  0  0  0
  -20.9954  -28.3201   24.1463 H   0  0  0  0  0  0
  -20.5698  -26.2247   23.3589 H   0  0  0  0  0  0
  -21.6640  -26.7458   22.1199 H   0  0  0  0  0  0
  -19.6905  -25.6295   21.1237 H   0  0  0  0  0  0
  -19.6695  -27.3205   20.6758 H   0  0  0  0  0  0
  -17.4203  -26.6685   21.4023 H   0  0  0  0  0  0
  -18.0318  -26.0062   22.9018 H   0  0  0  0  0  0
  -19.7911  -30.7266   24.2286 H   0  0  0  0  0  0
  -17.4988  -31.6260   24.5162 H   0  0  0  0  0  0
  -15.5339  -30.2972   23.7628 H   0  0  0  0  0  0
  -15.8676  -28.0816   22.7032 H   0  0  0  0  0  0
  -24.5920  -30.7042   25.7842 H   0  0  0  0  0  0
  -24.8940  -32.2840   26.4988 H   0  0  0  0  0  0
  -25.8119  -30.8849   27.0232 H   0  0  0  0  0  0
  -26.2806  -29.6834   24.1159 H   0  0  0  0  0  0
  -27.4049  -29.7268   25.4546 H   0  0  0  0  0  0
  -27.8652  -30.4362   23.9239 H   0  0  0  0  0  0
  -27.2682  -33.3593   26.2138 H   0  0  0  0  0  0
  -28.3845  -32.6916   25.0317 H   0  0  0  0  0  0
  -28.0760  -31.8408   26.5371 H   0  0  0  0  0  0
  -28.2623  -38.0115   24.7493 H   0  0  0  0  0  0
  -28.1082  -36.2644   24.6308 H   0  0  0  0  0  0
  -27.2304  -37.1502   25.8865 H   0  0  0  0  0  0
  -20.9292  -29.8751   21.6995 H   0  0  0  0  0  0
  -26.0204  -38.2885   24.1363 H   0  0  0  0  0  0
  -29.2473  -21.5231   22.9350 H   0  0  0  0  0  0
  -29.2280  -22.9193   18.0001 H   0  0  0  0  0  0
  -30.6693  -21.9755   17.6235 H   0  0  0  0  0  0
  -30.7950  -23.3609   18.6948 H   0  0  0  0  0  0
  -29.0833  -19.9503   24.4387 H   0  0  0  0  0  0
  -30.7851  -19.6073   24.1397 H   0  0  0  0  0  0
  -29.7262  -18.3809   24.8248 H   0  0  0  0  0  0
  -30.3205  -24.1594   20.9205 H   0  0  0  0  0  0
  -29.2805  -23.7866   22.2458 H   0  0  0  0  0  0
  -27.4769  -24.6715   21.2062 H   0  0  0  0  0  0
  -27.6282  -23.5362   19.9113 H   0  0  0  0  0  0
  -31.0527  -17.6422   21.6090 H   0  0  0  0  0  0
  -30.8677  -17.1185   23.2222 H   0  0  0  0  0  0
  -28.4135  -16.3918   21.7954 H   0  0  0  0  0  0
  -29.5017  -15.4191   22.7473 H   0  0  0  0  0  0
  -27.9621  -25.3841   18.5625 H   0  0  0  0  0  0
  -29.5681  -25.3436   19.1463 H   0  0  0  0  0  0
  -28.3820  -18.4179   22.6833 H   0  0  0  0  0  0
  -30.2577  -16.2967   20.0561 H   0  0  0  0  0  0
  1 25  1  0  0  0
  1 30  2  0  0  0
  1 85  1  0  0  0
  2  3  1  0  0  0
  2 25  1  0  0  0
  2 86  1  0  0  0
  2 87  1  0  0  0
  3  4  1  0  0  0
  3 88  1  0  0  0
  3 89  1  0  0  0
  4  5  1  0  0  0
  4 90  1  0  0  0
  4 91  1  0  0  0
  5  6  1  0  0  0
  5 26  1  0  0  0
  5 92  1  0  0  0
  6 25  1  0  0  0
  6 93  1  0  0  0
  6 94  1  0  0  0
  7  8  2  0  0  0
  7 26  1  0  0  0
  7 29  1  0  0  0
  8  9  1  0  0  0
  8 22  1  0  0  0
  9 10  1  0  0  0
  9 27  2  0  0  0
 10 11  2  0  0  0
 10 15  1  0  0  0
 11 12  1  0  0  0
 11 95  1  0  0  0
 12 13  2  0  0  0
 12 96  1  0  0  0
 13 14  1  0  0  0
 13 31  1  0  0  0
 14 15  2  0  0  0
 14 97  1  0  0  0
 15 98  1  0  0  0
 16 17  2  0  0  0
 16 21  1  0  0  0
 16 31  1  0  0  0
 17 18  1  0  0  0
 17 99  1  0  0  0
 18 19  2  0  0  0
 18100  1  0  0  0
 19 20  1  0  0  0
 19 24  1  0  0  0
 20 21  2  0  0  0
 20101  1  0  0  0
 21 23  1  0  0  0
 22 28  1  0  0  0
 22 32  2  0  0  0
 26 27  1  0  0  0
 28102  1  0  0  0
 28103  1  0  0  0
 29104  1  0  0  0
 29105  1  0  0  0
 33 34  1  0  0  0
 33 66  1  0  0  0
 33 70  2  0  0  0
 34 36  1  0  0  0
 34 59  1  0  0  0
 34106  1  0  0  0
 35 44  2  0  0  0
 35 45  1  0  0  0
 35 68  1  0  0  0
 36 56  1  0  0  0
 36107  1  0  0  0
 37 39  1  0  0  0
 37 47  1  0  0  0
 37 66  1  0  0  0
 37108  1  0  0  0
 38 43  2  0  0  0
 38 46  1  0  0  0
 38 47  1  0  0  0
 39 64  1  0  0  0
 39 67  2  0  0  0
 40 52  1  0  0  0
 40 53  2  0  0  0
 40 58  1  0  0  0
 41109  1  0  0  0
 41110  1  0  0  0
 41111  1  0  0  0
 41 48  1  0  0  0
 42 43  1  0  0  0
 42 66  1  0  0  0
 42112  1  0  0  0
 42113  1  0  0  0
 43 44  1  0  0  0
 44114  1  0  0  0
 45 46  2  0  0  0
 45115  1  0  0  0
 46116  1  0  0  0
 47117  1  0  0  0
 47118  1  0  0  0
 48 56  1  0  0  0
 48 65  1  0  0  0
 48119  1  0  0  0
 49 50  1  0  0  0
 49 53  1  0  0  0
 49 64  1  0  0  0
 49120  1  0  0  0
 50 51  1  0  0  0
 50121  1  0  0  0
 50122  1  0  0  0
 51 52  1  0  0  0
 51123  1  0  0  0
 51124  1  0  0  0
 52125  1  0  0  0
 52126  1  0  0  0
 53 54  1  0  0  0
 54 55  2  0  0  0
 54127  1  0  0  0
 55 57  1  0  0  0
 55128  1  0  0  0
 56 69  2  0  0  0
 57 58  2  0  0  0
 57129  1  0  0  0
 58130  1  0  0  0
 59 60  1  0  0  0
 59 61  1  0  0  0
 59 62  1  0  0  0
 60131  1  0  0  0
 60132  1  0  0  0
 60133  1  0  0  0
 61134  1  0  0  0
 61135  1  0  0  0
 61136  1  0  0  0
 62137  1  0  0  0
 62138  1  0  0  0
 62139  1  0  0  0
 63 65  1  0  0  0
 63140  1  0  0  0
 63141  1  0  0  0
 63142  1  0  0  0
 64143  1  0  0  0
 65144  1  0  0  0
 68 81  1  0  0  0
 71 72  2  0  0  0
 71 73  1  0  0  0
 71145  1  0  0  0
 72 74  1  0  0  0
 72 77  1  0  0  0
 73 82  1  0  0  0
 73 83  2  0  0  0
 74 75  1  0  0  0
 74 84  2  0  0  0
 75146  1  0  0  0
 75147  1  0  0  0
 75148  1  0  0  0
 76149  1  0  0  0
 76150  1  0  0  0
 76151  1  0  0  0
 76 82  1  0  0  0
 77 78  1  0  0  0
 77152  1  0  0  0
 77153  1  0  0  0
 78 81  1  0  0  0
 78154  1  0  0  0
 78155  1  0  0  0
 79 80  1  0  0  0
 79 82  1  0  0  0
 79156  1  0  0  0
 79157  1  0  0  0
 80 85  1  0  0  0
 80158  1  0  0  0
 80159  1  0  0  0
 81160  1  0  0  0
 81161  1  0  0  0
 82162  1  0  0  0
 83 84  1  0  0  0
 85163  1  0  0  0
M  ISO  4   1 100  68 101  81 101  85 100
M  END
> <chiral flag>
0

> <version>
0

> <s_m_source_file>
/data/baiqing/PycharmProjects/Reinvent-master-3.2/result/LINK_invent/BTK/process_docking_weight1_custom_sum_contain_oxygen_bond_distance_aromatic_linkinvent_7_9_3/rearranged_h_0084.sdf

> <i_m_source_file_index>
56

> <r_mmod_Potential_Energy-OPLS-2005>
50.2086982727051

> <r_mmod_Stretch_Energy-OPLS-2005>
41.2041206359863

> <r_mmod_Bend_Energy-OPLS-2005>
119.30290222168

> <r_mmod_Torsional_Energy-OPLS-2005>
297.820159912109

> <r_mmod_Improper_Torsional_Energy-OPLS-2005>
17.7911415100098

> <r_mmod_Van_der_Waal_Energy-OPLS-2005>
160.0615234375

> <r_mmod_Electrostatic_Energy-OPLS-2005>
-379.838897705078

> <r_mmod_Solvation_Energy-OPLS-2005>
-220.474227905273

> <b_mmod_Minimization_Converged-OPLS-2005>
0

> <r_mmod_RMS_Derivative-OPLS-2005>
4.42405891418457

$$$$
56
                    3D
 Structure written by MMmdl.
161169  0  0  1  0            999 V2000
  -30.7101  -14.4759   20.4730 C   0  0  0  0  0  0
  -30.3998  -12.2753   19.4365 C   0  0  0  0  0  0
  -29.4969  -12.5089   18.2057 C   0  0  0  0  0  0
  -28.0109  -12.4045   18.6051 C   0  0  0  0  0  0
  -27.6597  -13.2215   19.8799 C   0  0  2  0  0  0
  -28.7092  -13.0240   20.9993 C   0  0  0  0  0  0
  -25.2609  -13.8229   20.5690 C   0  0  0  0  0  0
  -24.1864  -13.0461   20.9144 C   0  0  0  0  0  0
  -24.6426  -11.6940   20.8732 C   0  0  0  0  0  0
  -23.9076  -10.4328   21.0423 C   0  0  0  0  0  0
  -24.3630   -9.4268   21.9210 C   0  0  0  0  0  0
  -23.6320   -8.2288   22.0785 C   0  0  0  0  0  0
  -22.4306   -8.0314   21.3564 C   0  0  0  0  0  0
  -21.9928   -9.0291   20.4669 C   0  0  0  0  0  0
  -22.7248  -10.2176   20.3087 C   0  0  0  0  0  0
  -21.6877   -6.0765   22.5265 C   0  0  0  0  0  0
  -21.4026   -6.5655   23.8192 C   0  0  0  0  0  0
  -21.3634   -5.6813   24.9155 C   0  0  0  0  0  0
  -21.6033   -4.3074   24.7213 C   0  0  0  0  0  0
  -21.8840   -3.8163   23.4336 C   0  0  0  0  0  0
  -21.9216   -4.6989   22.3395 C   0  0  0  0  0  0
  -22.7895  -13.5262   21.1818 C   0  0  0  0  0  0
  -22.1703   -4.2177   21.0974 F   0  0  0  0  0  0
  -21.5601   -3.4566   25.7727 F   0  0  0  0  0  0
  -30.0395  -13.2917   20.4388 N   0  0  0  0  0  0
  -26.3058  -12.9384   20.3443 N   0  0  0  0  0  0
  -25.9362  -11.6518   20.5799 N   0  0  0  0  0  0
  -22.0551  -12.8245   22.0371 N   0  0  0  0  0  0
  -25.4360  -15.1939   20.4080 N   0  0  0  0  0  0
  -31.8797  -14.5642   20.0988 O   0  0  0  0  0  0
  -21.6689   -6.8917   21.4239 O   0  0  0  0  0  0
  -22.3560  -14.5575   20.6686 O   0  0  0  0  0  0
  -24.6162  -31.8711   23.2131 C   0  0  0  0  0  0
  -25.9074  -32.4838   23.8427 C   0  0  1  0  0  0
  -27.2354  -27.4526   20.0925 C   0  0  0  0  0  0
  -25.5922  -33.8641   24.2358 N   0  0  0  0  0  0
  -23.3994  -30.4957   21.5552 C   0  0  2  0  0  0
  -24.8406  -28.9586   20.1184 C   0  0  0  0  0  0
  -22.7409  -29.4696   22.5049 C   0  0  0  0  0  0
  -18.0280  -28.1382   22.8499 C   0  0  0  0  0  0
  -24.1462  -36.7342   23.2637 C   0  0  0  0  0  0
  -25.9239  -30.8450   21.3537 C   0  0  0  0  0  0
  -25.9993  -29.4770   20.7084 C   0  0  0  0  0  0
  -27.1991  -28.7335   20.6849 C   0  0  0  0  0  0
  -26.0586  -26.9452   19.4941 C   0  0  0  0  0  0
  -24.8646  -27.6923   19.5080 C   0  0  0  0  0  0
  -23.6027  -29.8268   20.1701 C   0  0  0  0  0  0
  -25.4082  -36.3128   24.0339 C   0  0  1  0  0  0
  -20.5865  -28.3663   23.1336 C   0  0  2  0  0  0
  -20.6773  -26.9409   22.5423 C   0  0  0  0  0  0
  -19.5752  -26.6386   21.5226 C   0  0  0  0  0  0
  -18.1931  -26.7936   22.1628 C   0  0  0  0  0  0
  -19.1530  -28.8841   23.2917 C   0  0  0  0  0  0
  -18.9449  -30.1457   23.8922 C   0  0  0  0  0  0
  -17.6452  -30.6590   24.0566 C   0  0  0  0  0  0
  -25.9022  -34.9493   23.5138 C   0  0  0  0  0  0
  -16.5345  -29.9096   23.6322 C   0  0  0  0  0  0
  -16.7273  -28.6512   23.0344 C   0  0  0  0  0  0
  -26.4494  -31.6614   25.0759 C   0  0  0  0  0  0
  -25.3756  -31.3726   26.1499 C   0  0  0  0  0  0
  -27.0329  -30.3070   24.6107 C   0  0  0  0  0  0
  -27.6061  -32.4311   25.7553 C   0  0  0  0  0  0
  -27.5568  -37.1827   24.8460 C   0  0  0  0  0  0
  -21.4139  -29.3042   22.3765 N   0  0  0  0  0  0
  -26.4263  -37.3815   23.9421 N   0  0  0  0  0  0
  -24.6670  -31.0823   22.1018 N   0  0  0  0  0  0
  -23.4188  -28.8234   23.3079 O   0  0  0  0  0  0
  -28.4365  -26.7779   20.0645 O   0  0  0  0  0  0
  -26.5578  -34.8937   22.4690 O   0  0  0  0  0  0
  -23.5356  -32.1457   23.7544 O   0  0  0  0  0  0
  -29.4617  -21.1566   19.6186 C   0  0  0  0  0  0
  -30.5215  -20.6509   20.4058 C   0  0  0  0  0  0
  -31.0819  -22.8093   21.0321 C   0  0  0  0  0  0
  -30.0311  -23.3230   20.2139 C   0  0  0  0  0  0
  -32.0756  -23.6880   21.7745 C   0  0  0  0  0  0
  -29.6059  -16.3725   19.2858 C   0  0  0  0  0  0
  -30.8936  -19.1756   20.3678 C   0  0  0  0  0  0
  -29.8225  -24.8127   19.9321 C   0  0  0  0  0  0
  -30.3453  -18.3192   21.5378 C   0  0  0  0  0  0
  -30.8126  -16.8335   21.5173 C   0  0  0  0  0  0
  -28.4442  -25.3739   20.3417 C   0  0  0  0  0  0
  -29.9595  -15.8235   20.6889 C   0  0  2  0  0  0
  -29.2191  -22.4868   19.5197 N   0  0  0  0  0  0
  -31.3133  -21.4740   21.1344 N   0  0  0  0  0  0
  -31.4542  -12.3059   19.1620 H   0  0  0  0  0  0
  -30.2245  -11.2761   19.8389 H   0  0  0  0  0  0
  -29.7172  -11.7791   17.4244 H   0  0  0  0  0  0
  -29.7027  -13.4899   17.7729 H   0  0  0  0  0  0
  -27.7769  -11.3502   18.7603 H   0  0  0  0  0  0
  -27.3829  -12.7388   17.7796 H   0  0  0  0  0  0
  -27.6825  -14.2698   19.5910 H   0  0  0  0  0  0
  -28.6747  -12.0046   21.3836 H   0  0  0  0  0  0
  -28.4968  -13.6567   21.8605 H   0  0  0  0  0  0
  -25.2771   -9.5774   22.4790 H   0  0  0  0  0  0
  -24.0043   -7.4691   22.7500 H   0  0  0  0  0  0
  -21.0861   -8.8800   19.8963 H   0  0  0  0  0  0
  -22.3699  -10.9722   19.6201 H   0  0  0  0  0  0
  -21.2034   -7.6175   23.9702 H   0  0  0  0  0  0
  -21.1409   -6.0549   25.9044 H   0  0  0  0  0  0
  -22.0647   -2.7640   23.2837 H   0  0  0  0  0  0
  -22.4155  -11.9871   22.4674 H   0  0  0  0  0  0
  -21.1211  -13.1356   22.2674 H   0  0  0  0  0  0
  -24.6716  -15.8579   20.4751 H   0  0  0  0  0  0
  -26.3073  -15.6301   20.1262 H   0  0  0  0  0  0
  -26.7167  -32.5556   23.1220 H   0  0  0  0  0  0
  -25.0116  -33.9802   25.0529 H   0  0  0  0  0  0
  -22.6865  -31.3124   21.4221 H   0  0  0  0  0  0
  -23.3707  -35.9690   23.3302 H   0  0  0  0  0  0
  -24.3555  -36.8958   22.2048 H   0  0  0  0  0  0
  -23.7215  -37.6550   23.6647 H   0  0  0  0  0  0
  -26.0128  -31.6077   20.5770 H   0  0  0  0  0  0
  -26.8220  -30.9157   21.9560 H   0  0  0  0  0  0
  -28.1001  -29.1383   21.1226 H   0  0  0  0  0  0
  -26.0559  -25.9921   18.9845 H   0  0  0  0  0  0
  -23.9745  -27.2961   19.0361 H   0  0  0  0  0  0
  -23.7087  -30.6044   19.4126 H   0  0  0  0  0  0
  -22.7228  -29.2522   19.8750 H   0  0  0  0  0  0
  -25.1240  -36.2004   25.0830 H   0  0  0  0  0  0
  -20.9953  -28.3224   24.1458 H   0  0  0  0  0  0
  -20.5701  -26.2280   23.3608 H   0  0  0  0  0  0
  -21.6642  -26.7476   22.1205 H   0  0  0  0  0  0
  -19.6909  -25.6299   21.1264 H   0  0  0  0  0  0
  -19.6680  -27.3189   20.6752 H   0  0  0  0  0  0
  -17.4201  -26.6705   21.4022 H   0  0  0  0  0  0
  -18.0306  -26.0070   22.9014 H   0  0  0  0  0  0
  -19.7920  -30.7278   24.2289 H   0  0  0  0  0  0
  -17.5000  -31.6272   24.5169 H   0  0  0  0  0  0
  -15.5348  -30.3002   23.7622 H   0  0  0  0  0  0
  -15.8678  -28.0844   22.7029 H   0  0  0  0  0  0
  -24.5899  -30.7112   25.7837 H   0  0  0  0  0  0
  -24.8992  -32.2896   26.4982 H   0  0  0  0  0  0
  -25.8100  -30.8864   27.0245 H   0  0  0  0  0  0
  -26.2897  -29.6850   24.1105 H   0  0  0  0  0  0
  -27.4067  -29.7278   25.4566 H   0  0  0  0  0  0
  -27.8736  -30.4428   23.9295 H   0  0  0  0  0  0
  -27.2682  -33.3575   26.2216 H   0  0  0  0  0  0
  -28.3872  -32.6925   25.0402 H   0  0  0  0  0  0
  -28.0744  -31.8383   26.5421 H   0  0  0  0  0  0
  -28.2575  -38.0134   24.7508 H   0  0  0  0  0  0
  -28.1068  -36.2663   24.6257 H   0  0  0  0  0  0
  -27.2310  -37.1460   25.8871 H   0  0  0  0  0  0
  -20.9303  -29.8760   21.6981 H   0  0  0  0  0  0
  -26.0157  -38.2897   24.1409 H   0  0  0  0  0  0
  -28.8363  -20.5005   19.0295 H   0  0  0  0  0  0
  -31.5822  -24.3655   22.4721 H   0  0  0  0  0  0
  -32.6593  -24.2796   21.0685 H   0  0  0  0  0  0
  -32.7802  -23.0830   22.3486 H   0  0  0  0  0  0
  -28.9200  -17.2176   19.3442 H   0  0  0  0  0  0
  -29.1240  -15.6254   18.6573 H   0  0  0  0  0  0
  -30.4989  -16.6858   18.7435 H   0  0  0  0  0  0
  -31.9801  -19.0993   20.3386 H   0  0  0  0  0  0
  -30.5640  -18.7991   19.4027 H   0  0  0  0  0  0
  -29.9597  -24.9655   18.8601 H   0  0  0  0  0  0
  -30.6040  -25.4061   20.4025 H   0  0  0  0  0  0
  -29.2566  -18.3817   21.5903 H   0  0  0  0  0  0
  -30.7081  -18.7746   22.4607 H   0  0  0  0  0  0
  -30.8305  -16.4601   22.5435 H   0  0  0  0  0  0
  -31.8552  -16.8117   21.1986 H   0  0  0  0  0  0
  -28.2790  -25.2205   21.4094 H   0  0  0  0  0  0
  -27.6586  -24.8357   19.8141 H   0  0  0  0  0  0
  -29.0265  -15.6712   21.2283 H   0  0  0  0  0  0
  1 25  1  0  0  0
  1 30  2  0  0  0
  1 82  1  0  0  0
  2  3  1  0  0  0
  2 25  1  0  0  0
  2 85  1  0  0  0
  2 86  1  0  0  0
  3  4  1  0  0  0
  3 87  1  0  0  0
  3 88  1  0  0  0
  4  5  1  0  0  0
  4 89  1  0  0  0
  4 90  1  0  0  0
  5  6  1  0  0  0
  5 26  1  0  0  0
  5 91  1  0  0  0
  6 25  1  0  0  0
  6 92  1  0  0  0
  6 93  1  0  0  0
  7  8  2  0  0  0
  7 26  1  0  0  0
  7 29  1  0  0  0
  8  9  1  0  0  0
  8 22  1  0  0  0
  9 10  1  0  0  0
  9 27  2  0  0  0
 10 11  2  0  0  0
 10 15  1  0  0  0
 11 12  1  0  0  0
 11 94  1  0  0  0
 12 13  2  0  0  0
 12 95  1  0  0  0
 13 14  1  0  0  0
 13 31  1  0  0  0
 14 15  2  0  0  0
 14 96  1  0  0  0
 15 97  1  0  0  0
 16 17  2  0  0  0
 16 21  1  0  0  0
 16 31  1  0  0  0
 17 18  1  0  0  0
 17 98  1  0  0  0
 18 19  2  0  0  0
 18 99  1  0  0  0
 19 20  1  0  0  0
 19 24  1  0  0  0
 20 21  2  0  0  0
 20100  1  0  0  0
 21 23  1  0  0  0
 22 28  1  0  0  0
 22 32  2  0  0  0
 26 27  1  0  0  0
 28101  1  0  0  0
 28102  1  0  0  0
 29103  1  0  0  0
 29104  1  0  0  0
 33 34  1  0  0  0
 33 66  1  0  0  0
 33 70  2  0  0  0
 34 36  1  0  0  0
 34 59  1  0  0  0
 34105  1  0  0  0
 35 44  2  0  0  0
 35 45  1  0  0  0
 35 68  1  0  0  0
 36 56  1  0  0  0
 36106  1  0  0  0
 37 39  1  0  0  0
 37 47  1  0  0  0
 37 66  1  0  0  0
 37107  1  0  0  0
 38 43  2  0  0  0
 38 46  1  0  0  0
 38 47  1  0  0  0
 39 64  1  0  0  0
 39 67  2  0  0  0
 40 52  1  0  0  0
 40 53  2  0  0  0
 40 58  1  0  0  0
 41108  1  0  0  0
 41109  1  0  0  0
 41110  1  0  0  0
 41 48  1  0  0  0
 42 43  1  0  0  0
 42 66  1  0  0  0
 42111  1  0  0  0
 42112  1  0  0  0
 43 44  1  0  0  0
 44113  1  0  0  0
 45 46  2  0  0  0
 45114  1  0  0  0
 46115  1  0  0  0
 47116  1  0  0  0
 47117  1  0  0  0
 48 56  1  0  0  0
 48 65  1  0  0  0
 48118  1  0  0  0
 49 50  1  0  0  0
 49 53  1  0  0  0
 49 64  1  0  0  0
 49119  1  0  0  0
 50 51  1  0  0  0
 50120  1  0  0  0
 50121  1  0  0  0
 51 52  1  0  0  0
 51122  1  0  0  0
 51123  1  0  0  0
 52124  1  0  0  0
 52125  1  0  0  0
 53 54  1  0  0  0
 54 55  2  0  0  0
 54126  1  0  0  0
 55 57  1  0  0  0
 55127  1  0  0  0
 56 69  2  0  0  0
 57 58  2  0  0  0
 57128  1  0  0  0
 58129  1  0  0  0
 59 60  1  0  0  0
 59 61  1  0  0  0
 59 62  1  0  0  0
 60130  1  0  0  0
 60131  1  0  0  0
 60132  1  0  0  0
 61133  1  0  0  0
 61134  1  0  0  0
 61135  1  0  0  0
 62136  1  0  0  0
 62137  1  0  0  0
 62138  1  0  0  0
 63 65  1  0  0  0
 63139  1  0  0  0
 63140  1  0  0  0
 63141  1  0  0  0
 64142  1  0  0  0
 65143  1  0  0  0
 68 81  1  0  0  0
 71 72  2  0  0  0
 71 83  1  0  0  0
 71144  1  0  0  0
 72 77  1  0  0  0
 72 84  1  0  0  0
 73 74  1  0  0  0
 73 75  1  0  0  0
 73 84  2  0  0  0
 74 78  1  0  0  0
 74 83  2  0  0  0
 75145  1  0  0  0
 75146  1  0  0  0
 75147  1  0  0  0
 76148  1  0  0  0
 76149  1  0  0  0
 76150  1  0  0  0
 76 82  1  0  0  0
 77 79  1  0  0  0
 77151  1  0  0  0
 77152  1  0  0  0
 78 81  1  0  0  0
 78153  1  0  0  0
 78154  1  0  0  0
 79 80  1  0  0  0
 79155  1  0  0  0
 79156  1  0  0  0
 80 82  1  0  0  0
 80157  1  0  0  0
 80158  1  0  0  0
 81159  1  0  0  0
 81160  1  0  0  0
 82161  1  0  0  0
M  ISO  4   1 100  68 101  81 101  82 100
M  END
> <chiral flag>
0

> <version>
0

> <s_m_source_file>
/data/baiqing/PycharmProjects/Reinvent-master-3.2/result/LINK_invent/BTK/process_docking_weight1_custom_sum_contain_oxygen_bond_distance_aromatic_linkinvent_7_9_3/rearranged_h_0084.sdf

> <i_m_source_file_index>
57

> <r_mmod_Potential_Energy-OPLS-2005>
43.8074378967285

> <r_mmod_Stretch_Energy-OPLS-2005>
40.2248039245605

> <r_mmod_Bend_Energy-OPLS-2005>
105.38013458252

> <r_mmod_Torsional_Energy-OPLS-2005>
193.926345825195

> <r_mmod_Improper_Torsional_Energy-OPLS-2005>
7.40602159500122

> <r_mmod_Van_der_Waal_Energy-OPLS-2005>
157.021347045898

> <r_mmod_Electrostatic_Energy-OPLS-2005>
-273.074645996094

> <r_mmod_Solvation_Energy-OPLS-2005>
-203.556838989258

> <b_mmod_Minimization_Converged-OPLS-2005>
0

> <r_mmod_RMS_Derivative-OPLS-2005>
4.31759977340698

$$$$
57
                    3D
 Structure written by MMmdl.
178186  0  0  1  0            999 V2000
  -30.6999  -14.5082   20.5450 C   0  0  0  0  0  0
  -30.4145  -12.3175   19.4423 C   0  0  0  0  0  0
  -29.5073  -12.5002   18.2079 C   0  0  0  0  0  0
  -28.0226  -12.3604   18.6022 C   0  0  0  0  0  0
  -27.6571  -13.2113   19.8534 C   0  0  2  0  0  0
  -28.6927  -13.0306   20.9868 C   0  0  0  0  0  0
  -25.2611  -13.8174   20.5628 C   0  0  0  0  0  0
  -24.1851  -13.0458   20.9124 C   0  0  0  0  0  0
  -24.6419  -11.6913   20.8665 C   0  0  0  0  0  0
  -23.9065  -10.4318   21.0353 C   0  0  0  0  0  0
  -24.3641   -9.4249   21.9153 C   0  0  0  0  0  0
  -23.6340   -8.2271   22.0733 C   0  0  0  0  0  0
  -22.4319   -8.0283   21.3528 C   0  0  0  0  0  0
  -21.9940   -9.0247   20.4628 C   0  0  0  0  0  0
  -22.7234  -10.2146   20.3016 C   0  0  0  0  0  0
  -21.6880   -6.0751   22.5288 C   0  0  0  0  0  0
  -21.4021   -6.5655   23.8213 C   0  0  0  0  0  0
  -21.3650   -5.6801   24.9176 C   0  0  0  0  0  0
  -21.6034   -4.3058   24.7224 C   0  0  0  0  0  0
  -21.8823   -3.8155   23.4347 C   0  0  0  0  0  0
  -21.9215   -4.6978   22.3412 C   0  0  0  0  0  0
  -22.7895  -13.5269   21.1776 C   0  0  0  0  0  0
  -22.1663   -4.2150   21.0976 F   0  0  0  0  0  0
  -21.5636   -3.4552   25.7732 F   0  0  0  0  0  0
  -30.0193  -13.3315   20.4371 N   0  0  0  0  0  0
  -26.3017  -12.9354   20.3218 N   0  0  0  0  0  0
  -25.9335  -11.6505   20.5628 N   0  0  0  0  0  0
  -22.0521  -12.8274   22.0343 N   0  0  0  0  0  0
  -25.4367  -15.1900   20.4059 N   0  0  0  0  0  0
  -31.8423  -14.6321   20.1092 O   0  0  0  0  0  0
  -21.6660   -6.8892   21.4243 O   0  0  0  0  0  0
  -22.3580  -14.5565   20.6598 O   0  0  0  0  0  0
  -24.6140  -31.8644   23.2105 C   0  0  0  0  0  0
  -25.9043  -32.4821   23.8394 C   0  0  1  0  0  0
  -27.2381  -27.4389   20.1004 C   0  0  0  0  0  0
  -25.5918  -33.8619   24.2333 N   0  0  0  0  0  0
  -23.4034  -30.4888   21.5479 C   0  0  2  0  0  0
  -24.8526  -28.9501   20.1161 C   0  0  0  0  0  0
  -22.7403  -29.4656   22.4974 C   0  0  0  0  0  0
  -18.0253  -28.1401   22.8494 C   0  0  0  0  0  0
  -24.1478  -36.7298   23.2630 C   0  0  0  0  0  0
  -25.9305  -30.8359   21.3586 C   0  0  0  0  0  0
  -26.0107  -29.4660   20.7121 C   0  0  0  0  0  0
  -27.2090  -28.7173   20.7064 C   0  0  0  0  0  0
  -26.0689  -26.9361   19.4973 C   0  0  0  0  0  0
  -24.8767  -27.6825   19.5056 C   0  0  0  0  0  0
  -23.6138  -29.8165   20.1633 C   0  0  0  0  0  0
  -25.4098  -36.3110   24.0347 C   0  0  1  0  0  0
  -20.5855  -28.3682   23.1319 C   0  0  2  0  0  0
  -20.6754  -26.9420   22.5425 C   0  0  0  0  0  0
  -19.5734  -26.6398   21.5213 C   0  0  0  0  0  0
  -18.1907  -26.7944   22.1623 C   0  0  0  0  0  0
  -19.1521  -28.8855   23.2902 C   0  0  0  0  0  0
  -18.9441  -30.1462   23.8919 C   0  0  0  0  0  0
  -17.6458  -30.6603   24.0573 C   0  0  0  0  0  0
  -25.9037  -34.9478   23.5139 C   0  0  0  0  0  0
  -16.5333  -29.9117   23.6339 C   0  0  0  0  0  0
  -16.7257  -28.6529   23.0354 C   0  0  0  0  0  0
  -26.4495  -31.6599   25.0704 C   0  0  0  0  0  0
  -25.3795  -31.3706   26.1487 C   0  0  0  0  0  0
  -27.0290  -30.3031   24.6048 C   0  0  0  0  0  0
  -27.6063  -32.4329   25.7473 C   0  0  0  0  0  0
  -27.5587  -37.1795   24.8466 C   0  0  0  0  0  0
  -21.4128  -29.3048   22.3737 N   0  0  0  0  0  0
  -26.4273  -37.3805   23.9440 N   0  0  0  0  0  0
  -24.6676  -31.0771   22.0989 N   0  0  0  0  0  0
  -23.4184  -28.8172   23.2998 O   0  0  0  0  0  0
  -28.3821  -26.6772   20.0543 O   0  0  0  0  0  0
  -26.5570  -34.8926   22.4676 O   0  0  0  0  0  0
  -23.5347  -32.1405   23.7519 O   0  0  0  0  0  0
  -30.6951  -20.8404   17.5567 C   0  0  0  0  0  0
  -29.6874  -21.6357   17.9909 C   0  0  0  0  0  0
  -31.1128  -20.0095   18.6348 C   0  0  0  0  0  0
  -30.2626  -20.2515   19.7000 C   0  0  0  0  0  0
  -35.6735  -18.4322   20.3567 C   0  0  0  0  0  0
  -34.1471  -16.6732   19.4194 C   0  0  0  0  0  0
  -28.3390  -23.9675   22.7355 C   0  0  0  0  0  0
  -32.2917  -19.0705   18.4834 C   0  0  0  0  0  0
  -30.1973  -19.5950   21.0803 C   0  0  0  0  0  0
  -33.2971  -19.0561   19.6549 C   0  0  0  0  0  0
  -29.6017  -18.1459   21.1899 C   0  0  0  0  0  0
  -29.0809  -23.5871   20.3484 C   0  0  0  0  0  0
  -28.5151  -22.1584   20.1017 C   0  0  0  0  0  0
  -30.5748  -16.9700   20.8914 C   0  0  0  0  0  0
  -28.7051  -25.9916   21.2675 C   0  0  0  0  0  0
  -34.5226  -18.1633   19.3720 C   0  0  0  0  0  0
  -28.2553  -24.4998   21.2921 C   0  0  2  0  0  0
  -29.4553  -21.3481   19.3213 N   0  0  0  0  0  0
  -30.0240  -15.5940   20.9916 N   0  0  0  0  0  0
  -31.4620  -12.3949   19.1477 H   0  0  0  0  0  0
  -30.2938  -11.3135   19.8567 H   0  0  0  0  0  0
  -29.7726  -11.7715   17.4392 H   0  0  0  0  0  0
  -29.6728  -13.4854   17.7670 H   0  0  0  0  0  0
  -27.8272  -11.3051   18.7967 H   0  0  0  0  0  0
  -27.3811  -12.6254   17.7594 H   0  0  0  0  0  0
  -27.6924  -14.2534   19.5352 H   0  0  0  0  0  0
  -28.6665  -12.0025   21.3536 H   0  0  0  0  0  0
  -28.4542  -13.6704   21.8387 H   0  0  0  0  0  0
  -25.2803   -9.5764   22.4698 H   0  0  0  0  0  0
  -24.0051   -7.4706   22.7504 H   0  0  0  0  0  0
  -21.0838   -8.8794   19.8980 H   0  0  0  0  0  0
  -22.3682  -10.9692   19.6110 H   0  0  0  0  0  0
  -21.1988   -7.6169   23.9714 H   0  0  0  0  0  0
  -21.1458   -6.0525   25.9069 H   0  0  0  0  0  0
  -22.0608   -2.7622   23.2856 H   0  0  0  0  0  0
  -22.4183  -11.9945   22.4722 H   0  0  0  0  0  0
  -21.1145  -13.1292   22.2508 H   0  0  0  0  0  0
  -24.6759  -15.8521   20.5068 H   0  0  0  0  0  0
  -26.2971  -15.6210   20.0915 H   0  0  0  0  0  0
  -26.7110  -32.5549   23.1152 H   0  0  0  0  0  0
  -25.0157  -33.9764   25.0551 H   0  0  0  0  0  0
  -22.6935  -31.3065   21.4064 H   0  0  0  0  0  0
  -23.3751  -35.9616   23.3289 H   0  0  0  0  0  0
  -24.3577  -36.8904   22.2047 H   0  0  0  0  0  0
  -23.7208  -37.6496   23.6633 H   0  0  0  0  0  0
  -26.0353  -31.5978   20.5842 H   0  0  0  0  0  0
  -26.8223  -30.8972   21.9721 H   0  0  0  0  0  0
  -28.1062  -29.1141   21.1625 H   0  0  0  0  0  0
  -26.0857  -25.9618   19.0301 H   0  0  0  0  0  0
  -23.9862  -27.2795   19.0405 H   0  0  0  0  0  0
  -23.7233  -30.5874   19.3999 H   0  0  0  0  0  0
  -22.7385  -29.2348   19.8712 H   0  0  0  0  0  0
  -25.1269  -36.1956   25.0837 H   0  0  0  0  0  0
  -20.9950  -28.3231   24.1438 H   0  0  0  0  0  0
  -20.5640  -26.2279   23.3600 H   0  0  0  0  0  0
  -21.6620  -26.7455   22.1220 H   0  0  0  0  0  0
  -19.6887  -25.6309   21.1234 H   0  0  0  0  0  0
  -19.6670  -27.3204   20.6742 H   0  0  0  0  0  0
  -17.4177  -26.6695   21.4022 H   0  0  0  0  0  0
  -18.0303  -26.0089   22.9029 H   0  0  0  0  0  0
  -19.7925  -30.7262   24.2286 H   0  0  0  0  0  0
  -17.5020  -31.6280   24.5189 H   0  0  0  0  0  0
  -15.5346  -30.3035   23.7657 H   0  0  0  0  0  0
  -15.8641  -28.0868   22.7060 H   0  0  0  0  0  0
  -24.5938  -30.7062   25.7877 H   0  0  0  0  0  0
  -24.9024  -32.2861   26.4989 H   0  0  0  0  0  0
  -25.8197  -30.8866   27.0208 H   0  0  0  0  0  0
  -26.2783  -29.6800   24.1151 H   0  0  0  0  0  0
  -27.4119  -29.7260   25.4477 H   0  0  0  0  0  0
  -27.8616  -30.4348   23.9123 H   0  0  0  0  0  0
  -27.2656  -33.3615   26.2059 H   0  0  0  0  0  0
  -28.3868  -32.6907   25.0307 H   0  0  0  0  0  0
  -28.0721  -31.8448   26.5387 H   0  0  0  0  0  0
  -28.2595  -38.0114   24.7570 H   0  0  0  0  0  0
  -28.1096  -36.2648   24.6212 H   0  0  0  0  0  0
  -27.2316  -37.1362   25.8871 H   0  0  0  0  0  0
  -20.9272  -29.8797   21.6982 H   0  0  0  0  0  0
  -26.0159  -38.2863   24.1495 H   0  0  0  0  0  0
  -31.1204  -20.8792   16.5625 H   0  0  0  0  0  0
  -29.1392  -22.4184   17.4809 H   0  0  0  0  0  0
  -36.5403  -17.8106   20.1250 H   0  0  0  0  0  0
  -35.3810  -18.2111   21.3848 H   0  0  0  0  0  0
  -36.0033  -19.4706   20.3232 H   0  0  0  0  0  0
  -34.9119  -16.0450   18.9628 H   0  0  0  0  0  0
  -33.2186  -16.4694   18.8895 H   0  0  0  0  0  0
  -34.0075  -16.3356   20.4483 H   0  0  0  0  0  0
  -27.7987  -23.0284   22.8481 H   0  0  0  0  0  0
  -27.9073  -24.6717   23.4463 H   0  0  0  0  0  0
  -29.3708  -23.7912   23.0424 H   0  0  0  0  0  0
  -32.8325  -19.3868   17.5911 H   0  0  0  0  0  0
  -31.9185  -18.0829   18.2300 H   0  0  0  0  0  0
  -29.6321  -20.2301   21.7570 H   0  0  0  0  0  0
  -31.1836  -19.6118   21.5393 H   0  0  0  0  0  0
  -32.8264  -18.7039   20.5694 H   0  0  0  0  0  0
  -33.6235  -20.0794   19.8480 H   0  0  0  0  0  0
  -28.6886  -18.0758   20.5974 H   0  0  0  0  0  0
  -29.2973  -18.0139   22.2295 H   0  0  0  0  0  0
  -29.1817  -24.0877   19.3865 H   0  0  0  0  0  0
  -30.0958  -23.5008   20.7382 H   0  0  0  0  0  0
  -27.5818  -22.2366   19.5378 H   0  0  0  0  0  0
  -28.2633  -21.6551   21.0300 H   0  0  0  0  0  0
  -31.4248  -17.0373   21.5728 H   0  0  0  0  0  0
  -30.9672  -17.0994   19.8861 H   0  0  0  0  0  0
  -29.7806  -26.0598   21.4296 H   0  0  0  0  0  0
  -28.2458  -26.5163   22.1069 H   0  0  0  0  0  0
  -34.8855  -18.3955   18.3690 H   0  0  0  0  0  0
  -27.2109  -24.4723   20.9797 H   0  0  0  0  0  0
  -29.0856  -15.4700   21.3473 H   0  0  0  0  0  0
  1 25  1  0  0  0
  1 30  2  0  0  0
  1 89  1  0  0  0
  2  3  1  0  0  0
  2 25  1  0  0  0
  2 90  1  0  0  0
  2 91  1  0  0  0
  3  4  1  0  0  0
  3 92  1  0  0  0
  3 93  1  0  0  0
  4  5  1  0  0  0
  4 94  1  0  0  0
  4 95  1  0  0  0
  5  6  1  0  0  0
  5 26  1  0  0  0
  5 96  1  0  0  0
  6 25  1  0  0  0
  6 97  1  0  0  0
  6 98  1  0  0  0
  7  8  2  0  0  0
  7 26  1  0  0  0
  7 29  1  0  0  0
  8  9  1  0  0  0
  8 22  1  0  0  0
  9 10  1  0  0  0
  9 27  2  0  0  0
 10 11  2  0  0  0
 10 15  1  0  0  0
 11 12  1  0  0  0
 11 99  1  0  0  0
 12 13  2  0  0  0
 12100  1  0  0  0
 13 14  1  0  0  0
 13 31  1  0  0  0
 14 15  2  0  0  0
 14101  1  0  0  0
 15102  1  0  0  0
 16 17  2  0  0  0
 16 21  1  0  0  0
 16 31  1  0  0  0
 17 18  1  0  0  0
 17103  1  0  0  0
 18 19  2  0  0  0
 18104  1  0  0  0
 19 20  1  0  0  0
 19 24  1  0  0  0
 20 21  2  0  0  0
 20105  1  0  0  0
 21 23  1  0  0  0
 22 28  1  0  0  0
 22 32  2  0  0  0
 26 27  1  0  0  0
 28106  1  0  0  0
 28107  1  0  0  0
 29108  1  0  0  0
 29109  1  0  0  0
 33 34  1  0  0  0
 33 66  1  0  0  0
 33 70  2  0  0  0
 34 36  1  0  0  0
 34 59  1  0  0  0
 34110  1  0  0  0
 35 44  2  0  0  0
 35 45  1  0  0  0
 35 68  1  0  0  0
 36 56  1  0  0  0
 36111  1  0  0  0
 37 39  1  0  0  0
 37 47  1  0  0  0
 37 66  1  0  0  0
 37112  1  0  0  0
 38 43  2  0  0  0
 38 46  1  0  0  0
 38 47  1  0  0  0
 39 64  1  0  0  0
 39 67  2  0  0  0
 40 52  1  0  0  0
 40 53  2  0  0  0
 40 58  1  0  0  0
 41113  1  0  0  0
 41114  1  0  0  0
 41115  1  0  0  0
 41 48  1  0  0  0
 42 43  1  0  0  0
 42 66  1  0  0  0
 42116  1  0  0  0
 42117  1  0  0  0
 43 44  1  0  0  0
 44118  1  0  0  0
 45 46  2  0  0  0
 45119  1  0  0  0
 46120  1  0  0  0
 47121  1  0  0  0
 47122  1  0  0  0
 48 56  1  0  0  0
 48 65  1  0  0  0
 48123  1  0  0  0
 49 50  1  0  0  0
 49 53  1  0  0  0
 49 64  1  0  0  0
 49124  1  0  0  0
 50 51  1  0  0  0
 50125  1  0  0  0
 50126  1  0  0  0
 51 52  1  0  0  0
 51127  1  0  0  0
 51128  1  0  0  0
 52129  1  0  0  0
 52130  1  0  0  0
 53 54  1  0  0  0
 54 55  2  0  0  0
 54131  1  0  0  0
 55 57  1  0  0  0
 55132  1  0  0  0
 56 69  2  0  0  0
 57 58  2  0  0  0
 57133  1  0  0  0
 58134  1  0  0  0
 59 60  1  0  0  0
 59 61  1  0  0  0
 59 62  1  0  0  0
 60135  1  0  0  0
 60136  1  0  0  0
 60137  1  0  0  0
 61138  1  0  0  0
 61139  1  0  0  0
 61140  1  0  0  0
 62141  1  0  0  0
 62142  1  0  0  0
 62143  1  0  0  0
 63 65  1  0  0  0
 63144  1  0  0  0
 63145  1  0  0  0
 63146  1  0  0  0
 64147  1  0  0  0
 65148  1  0  0  0
 68 85  1  0  0  0
 71 72  2  0  0  0
 71 73  1  0  0  0
 71149  1  0  0  0
 72 88  1  0  0  0
 72150  1  0  0  0
 73 74  2  0  0  0
 73 78  1  0  0  0
 74 79  1  0  0  0
 74 88  1  0  0  0
 75151  1  0  0  0
 75152  1  0  0  0
 75153  1  0  0  0
 75 86  1  0  0  0
 76 86  1  0  0  0
 76154  1  0  0  0
 76155  1  0  0  0
 76156  1  0  0  0
 77157  1  0  0  0
 77158  1  0  0  0
 77159  1  0  0  0
 77 87  1  0  0  0
 78 80  1  0  0  0
 78160  1  0  0  0
 78161  1  0  0  0
 79 81  1  0  0  0
 79162  1  0  0  0
 79163  1  0  0  0
 80 86  1  0  0  0
 80164  1  0  0  0
 80165  1  0  0  0
 81 84  1  0  0  0
 81166  1  0  0  0
 81167  1  0  0  0
 82 83  1  0  0  0
 82 87  1  0  0  0
 82168  1  0  0  0
 82169  1  0  0  0
 83 88  1  0  0  0
 83170  1  0  0  0
 83171  1  0  0  0
 84 89  1  0  0  0
 84172  1  0  0  0
 84173  1  0  0  0
 85 87  1  0  0  0
 85174  1  0  0  0
 85175  1  0  0  0
 86176  1  0  0  0
 87177  1  0  0  0
 89178  1  0  0  0
M  ISO  4   1 100  68 101  85 101  89 100
M  END
> <chiral flag>
0

> <version>
0

> <s_m_source_file>
/data/baiqing/PycharmProjects/Reinvent-master-3.2/result/LINK_invent/BTK/process_docking_weight1_custom_sum_contain_oxygen_bond_distance_aromatic_linkinvent_7_9_3/rearranged_h_0084.sdf

> <i_m_source_file_index>
58

> <r_mmod_Potential_Energy-OPLS-2005>
-23.4935131072998

> <r_mmod_Stretch_Energy-OPLS-2005>
45.1772270202637

> <r_mmod_Bend_Energy-OPLS-2005>
121.149482727051

> <r_mmod_Torsional_Energy-OPLS-2005>
257.034484863281

> <r_mmod_Improper_Torsional_Energy-OPLS-2005>
3.93119812011719

> <r_mmod_Van_der_Waal_Energy-OPLS-2005>
118.090812683105

> <r_mmod_Electrostatic_Energy-OPLS-2005>
-386.670715332031

> <r_mmod_Solvation_Energy-OPLS-2005>
-197.847717285156

> <b_mmod_Minimization_Converged-OPLS-2005>
0

> <r_mmod_RMS_Derivative-OPLS-2005>
5.26562833786011

$$$$
58
                    3D
 Structure written by MMmdl.
164172  0  0  1  0            999 V2000
  -30.6488  -14.4640   20.6277 C   0  0  0  0  0  0
  -30.4352  -12.3245   19.3963 C   0  0  0  0  0  0
  -29.4896  -12.5428   18.1935 C   0  0  0  0  0  0
  -28.0107  -12.3799   18.6049 C   0  0  0  0  0  0
  -27.6616  -13.1953   19.8770 C   0  0  2  0  0  0
  -28.7019  -12.9164   20.9877 C   0  0  0  0  0  0
  -25.2587  -13.8111   20.5707 C   0  0  0  0  0  0
  -24.1836  -13.0406   20.9185 C   0  0  0  0  0  0
  -24.6377  -11.6855   20.8709 C   0  0  0  0  0  0
  -23.9031  -10.4264   21.0386 C   0  0  0  0  0  0
  -24.3605   -9.4188   21.9165 C   0  0  0  0  0  0
  -23.6291   -8.2221   22.0738 C   0  0  0  0  0  0
  -22.4284   -8.0256   21.3523 C   0  0  0  0  0  0
  -21.9900   -9.0216   20.4617 C   0  0  0  0  0  0
  -22.7208  -10.2097   20.3025 C   0  0  0  0  0  0
  -21.6844   -6.0739   22.5283 C   0  0  0  0  0  0
  -21.4002   -6.5635   23.8208 C   0  0  0  0  0  0
  -21.3668   -5.6797   24.9181 C   0  0  0  0  0  0
  -21.6045   -4.3060   24.7234 C   0  0  0  0  0  0
  -21.8812   -3.8140   23.4363 C   0  0  0  0  0  0
  -21.9196   -4.6959   22.3414 C   0  0  0  0  0  0
  -22.7875  -13.5193   21.1885 C   0  0  0  0  0  0
  -22.1661   -4.2140   21.0995 F   0  0  0  0  0  0
  -21.5636   -3.4542   25.7753 F   0  0  0  0  0  0
  -30.0315  -13.2635   20.4547 N   0  0  0  0  0  0
  -26.3002  -12.9269   20.3342 N   0  0  0  0  0  0
  -25.9277  -11.6423   20.5682 N   0  0  0  0  0  0
  -22.0542  -12.8165   22.0428 N   0  0  0  0  0  0
  -25.4229  -15.1854   20.4108 N   0  0  0  0  0  0
  -31.7546  -14.7327   20.1443 O   0  0  0  0  0  0
  -21.6625   -6.8873   21.4243 O   0  0  0  0  0  0
  -22.3531  -14.5516   20.6742 O   0  0  0  0  0  0
  -24.6109  -31.8720   23.2109 C   0  0  0  0  0  0
  -25.9007  -32.4837   23.8407 C   0  0  1  0  0  0
  -27.2474  -27.4814   20.0553 C   0  0  0  0  0  0
  -25.5865  -33.8632   24.2324 N   0  0  0  0  0  0
  -23.3996  -30.4922   21.5505 C   0  0  2  0  0  0
  -24.8468  -28.9496   20.1243 C   0  0  0  0  0  0
  -22.7401  -29.4683   22.5016 C   0  0  0  0  0  0
  -18.0286  -28.1377   22.8481 C   0  0  0  0  0  0
  -24.1487  -36.7330   23.2638 C   0  0  0  0  0  0
  -25.9267  -30.8379   21.3664 C   0  0  0  0  0  0
  -26.0041  -29.4739   20.7138 C   0  0  0  0  0  0
  -27.2091  -28.7433   20.6857 C   0  0  0  0  0  0
  -26.0739  -26.9450   19.4903 C   0  0  0  0  0  0
  -24.8710  -27.6763   19.5248 C   0  0  0  0  0  0
  -23.6070  -29.8130   20.1703 C   0  0  0  0  0  0
  -25.4112  -36.3120   24.0329 C   0  0  1  0  0  0
  -20.5875  -28.3651   23.1300 C   0  0  2  0  0  0
  -20.6736  -26.9387   22.5381 C   0  0  0  0  0  0
  -19.5763  -26.6501   21.5104 C   0  0  0  0  0  0
  -18.1941  -26.7975   22.1503 C   0  0  0  0  0  0
  -19.1541  -28.8823   23.2895 C   0  0  0  0  0  0
  -18.9470  -30.1437   23.8908 C   0  0  0  0  0  0
  -17.6475  -30.6589   24.0555 C   0  0  0  0  0  0
  -25.9033  -34.9490   23.5136 C   0  0  0  0  0  0
  -16.5357  -29.9089   23.6327 C   0  0  0  0  0  0
  -16.7272  -28.6511   23.0332 C   0  0  0  0  0  0
  -26.4435  -31.6608   25.0740 C   0  0  0  0  0  0
  -25.3695  -31.3719   26.1478 C   0  0  0  0  0  0
  -27.0263  -30.3046   24.6126 C   0  0  0  0  0  0
  -27.5999  -32.4352   25.7510 C   0  0  0  0  0  0
  -27.5581  -37.1827   24.8467 C   0  0  0  0  0  0
  -21.4137  -29.3039   22.3738 N   0  0  0  0  0  0
  -26.4307  -37.3795   23.9393 N   0  0  0  0  0  0
  -24.6621  -31.0816   22.0995 N   0  0  0  0  0  0
  -23.4169  -28.8253   23.3087 O   0  0  0  0  0  0
  -28.4299  -26.8036   19.9286 O   0  0  0  0  0  0
  -26.5615  -34.8931   22.4714 O   0  0  0  0  0  0
  -23.5299  -32.1486   23.7490 O   0  0  0  0  0  0
  -29.9189  -21.2822   21.7734 C   0  0  0  0  0  0
  -29.9677  -19.8839   21.6706 C   0  0  0  0  0  0
  -28.7466  -21.9710   21.4082 C   0  0  0  0  0  0
  -28.8346  -19.1920   21.2097 C   0  0  0  0  0  0
  -27.6548  -21.2160   20.9102 C   0  0  0  0  0  0
  -25.2129  -22.2406   22.7017 C   0  0  0  0  0  0
  -28.6985  -23.4747   21.6736 C   0  0  0  0  0  0
  -28.7858  -17.6523   21.1128 C   0  0  0  0  0  0
  -26.3783  -21.8690   20.3519 C   0  0  0  0  0  0
  -25.5017  -22.7538   21.2830 C   0  0  0  0  0  0
  -28.6041  -24.4200   20.4605 C   0  0  0  0  0  0
  -30.0856  -16.8363   21.4197 C   0  0  0  0  0  0
  -28.6947  -25.8720   20.9609 C   0  0  0  0  0  0
  -27.7107  -19.8578   20.8264 N   0  0  0  0  0  0
  -29.8867  -15.3815   21.2532 N   0  0  0  0  0  0
  -31.4755  -12.4637   19.0912 H   0  0  0  0  0  0
  -30.3638  -11.2971   19.7572 H   0  0  0  0  0  0
  -29.7283  -11.8433   17.3941 H   0  0  0  0  0  0
  -29.6399  -13.5441   17.7820 H   0  0  0  0  0  0
  -27.8276  -11.3201   18.7860 H   0  0  0  0  0  0
  -27.3532  -12.6649   17.7805 H   0  0  0  0  0  0
  -27.7158  -14.2495   19.6013 H   0  0  0  0  0  0
  -28.6870  -11.8586   21.2575 H   0  0  0  0  0  0
  -28.4532  -13.4498   21.9054 H   0  0  0  0  0  0
  -25.2770   -9.5661   22.4694 H   0  0  0  0  0  0
  -24.0000   -7.4622   22.7472 H   0  0  0  0  0  0
  -21.0824   -8.8722   19.8933 H   0  0  0  0  0  0
  -22.3682  -10.9618   19.6100 H   0  0  0  0  0  0
  -21.1960   -7.6129   23.9723 H   0  0  0  0  0  0
  -21.1509   -6.0518   25.9092 H   0  0  0  0  0  0
  -22.0588   -2.7597   23.2862 H   0  0  0  0  0  0
  -22.4193  -11.9782   22.4723 H   0  0  0  0  0  0
  -21.1135  -13.1109   22.2663 H   0  0  0  0  0  0
  -24.6422  -15.8239   20.5071 H   0  0  0  0  0  0
  -26.2598  -15.6355   20.0691 H   0  0  0  0  0  0
  -26.7099  -32.5559   23.1184 H   0  0  0  0  0  0
  -24.9939  -33.9799   25.0407 H   0  0  0  0  0  0
  -22.6866  -31.3072   21.4044 H   0  0  0  0  0  0
  -23.3740  -35.9678   23.3324 H   0  0  0  0  0  0
  -24.3579  -36.8928   22.2053 H   0  0  0  0  0  0
  -23.7259  -37.6545   23.6649 H   0  0  0  0  0  0
  -26.0486  -31.6057   20.6001 H   0  0  0  0  0  0
  -26.8105  -30.8831   21.9915 H   0  0  0  0  0  0
  -28.1128  -29.1527   21.1168 H   0  0  0  0  0  0
  -26.1007  -25.9787   19.0066 H   0  0  0  0  0  0
  -23.9798  -27.2560   19.0816 H   0  0  0  0  0  0
  -23.7187  -30.5804   19.4043 H   0  0  0  0  0  0
  -22.7331  -29.2267   19.8807 H   0  0  0  0  0  0
  -25.1294  -36.1997   25.0825 H   0  0  0  0  0  0
  -20.9984  -28.3180   24.1407 H   0  0  0  0  0  0
  -21.6595  -26.7418   22.1160 H   0  0  0  0  0  0
  -20.5519  -26.2214   23.3516 H   0  0  0  0  0  0
  -19.6950  -25.6507   21.0912 H   0  0  0  0  0  0
  -19.6751  -27.3495   20.6786 H   0  0  0  0  0  0
  -17.4257  -26.6884   21.3836 H   0  0  0  0  0  0
  -18.0303  -26.0003   22.8779 H   0  0  0  0  0  0
  -19.7937  -30.7239   24.2304 H   0  0  0  0  0  0
  -17.5059  -31.6270   24.5159 H   0  0  0  0  0  0
  -15.5365  -30.3000   23.7725 H   0  0  0  0  0  0
  -15.8645  -28.0864   22.7015 H   0  0  0  0  0  0
  -24.5806  -30.7148   25.7790 H   0  0  0  0  0  0
  -24.8956  -32.2886   26.5011 H   0  0  0  0  0  0
  -25.8022  -30.8796   27.0193 H   0  0  0  0  0  0
  -26.2825  -29.6851   24.1085 H   0  0  0  0  0  0
  -27.3908  -29.7248   25.4616 H   0  0  0  0  0  0
  -27.8722  -30.4358   23.9370 H   0  0  0  0  0  0
  -27.2573  -33.3616   26.2144 H   0  0  0  0  0  0
  -28.3767  -32.6988   25.0317 H   0  0  0  0  0  0
  -28.0710  -31.8454   26.5381 H   0  0  0  0  0  0
  -28.2622  -38.0093   24.7463 H   0  0  0  0  0  0
  -28.1046  -36.2625   24.6360 H   0  0  0  0  0  0
  -27.2284  -37.1551   25.8863 H   0  0  0  0  0  0
  -20.9308  -29.8779   21.6977 H   0  0  0  0  0  0
  -26.0202  -38.2894   24.1326 H   0  0  0  0  0  0
  -30.7754  -21.8239   22.1492 H   0  0  0  0  0  0
  -30.8699  -19.3683   21.9623 H   0  0  0  0  0  0
  -24.8749  -21.2052   22.7057 H   0  0  0  0  0  0
  -24.4258  -22.8426   23.1604 H   0  0  0  0  0  0
  -26.0842  -22.3212   23.3518 H   0  0  0  0  0  0
  -29.6046  -23.7502   22.2184 H   0  0  0  0  0  0
  -27.8900  -23.6696   22.3773 H   0  0  0  0  0  0
  -28.4383  -17.3981   20.1120 H   0  0  0  0  0  0
  -28.0035  -17.3249   21.7972 H   0  0  0  0  0  0
  -25.7586  -21.0908   19.9090 H   0  0  0  0  0  0
  -26.6587  -22.4733   19.4914 H   0  0  0  0  0  0
  -25.9436  -23.7446   21.3758 H   0  0  0  0  0  0
  -24.5525  -22.9387   20.7778 H   0  0  0  0  0  0
  -27.6784  -24.2885   19.9069 H   0  0  0  0  0  0
  -29.4132  -24.2187   19.7573 H   0  0  0  0  0  0
  -30.3850  -16.9991   22.4563 H   0  0  0  0  0  0
  -30.9068  -17.1792   20.7895 H   0  0  0  0  0  0
  -29.7046  -26.0595   21.3260 H   0  0  0  0  0  0
  -28.0264  -26.0231   21.8119 H   0  0  0  0  0  0
  -29.0090  -15.0173   21.5888 H   0  0  0  0  0  0
  1 25  1  0  0  0
  1 30  2  0  0  0
  1 85  1  0  0  0
  2  3  1  0  0  0
  2 25  1  0  0  0
  2 86  1  0  0  0
  2 87  1  0  0  0
  3  4  1  0  0  0
  3 88  1  0  0  0
  3 89  1  0  0  0
  4  5  1  0  0  0
  4 90  1  0  0  0
  4 91  1  0  0  0
  5  6  1  0  0  0
  5 26  1  0  0  0
  5 92  1  0  0  0
  6 25  1  0  0  0
  6 93  1  0  0  0
  6 94  1  0  0  0
  7  8  2  0  0  0
  7 26  1  0  0  0
  7 29  1  0  0  0
  8  9  1  0  0  0
  8 22  1  0  0  0
  9 10  1  0  0  0
  9 27  2  0  0  0
 10 11  2  0  0  0
 10 15  1  0  0  0
 11 12  1  0  0  0
 11 95  1  0  0  0
 12 13  2  0  0  0
 12 96  1  0  0  0
 13 14  1  0  0  0
 13 31  1  0  0  0
 14 15  2  0  0  0
 14 97  1  0  0  0
 15 98  1  0  0  0
 16 17  2  0  0  0
 16 21  1  0  0  0
 16 31  1  0  0  0
 17 18  1  0  0  0
 17 99  1  0  0  0
 18 19  2  0  0  0
 18100  1  0  0  0
 19 20  1  0  0  0
 19 24  1  0  0  0
 20 21  2  0  0  0
 20101  1  0  0  0
 21 23  1  0  0  0
 22 28  1  0  0  0
 22 32  2  0  0  0
 26 27  1  0  0  0
 28102  1  0  0  0
 28103  1  0  0  0
 29104  1  0  0  0
 29105  1  0  0  0
 33 34  1  0  0  0
 33 66  1  0  0  0
 33 70  2  0  0  0
 34 36  1  0  0  0
 34 59  1  0  0  0
 34106  1  0  0  0
 35 44  2  0  0  0
 35 45  1  0  0  0
 35 68  1  0  0  0
 36 56  1  0  0  0
 36107  1  0  0  0
 37 39  1  0  0  0
 37 47  1  0  0  0
 37 66  1  0  0  0
 37108  1  0  0  0
 38 43  2  0  0  0
 38 46  1  0  0  0
 38 47  1  0  0  0
 39 64  1  0  0  0
 39 67  2  0  0  0
 40 52  1  0  0  0
 40 53  2  0  0  0
 40 58  1  0  0  0
 41109  1  0  0  0
 41110  1  0  0  0
 41111  1  0  0  0
 41 48  1  0  0  0
 42 43  1  0  0  0
 42 66  1  0  0  0
 42112  1  0  0  0
 42113  1  0  0  0
 43 44  1  0  0  0
 44114  1  0  0  0
 45 46  2  0  0  0
 45115  1  0  0  0
 46116  1  0  0  0
 47117  1  0  0  0
 47118  1  0  0  0
 48 56  1  0  0  0
 48 65  1  0  0  0
 48119  1  0  0  0
 49 50  1  0  0  0
 49 53  1  0  0  0
 49 64  1  0  0  0
 49120  1  0  0  0
 50 51  1  0  0  0
 50121  1  0  0  0
 50122  1  0  0  0
 51 52  1  0  0  0
 51123  1  0  0  0
 51124  1  0  0  0
 52125  1  0  0  0
 52126  1  0  0  0
 53 54  1  0  0  0
 54 55  2  0  0  0
 54127  1  0  0  0
 55 57  1  0  0  0
 55128  1  0  0  0
 56 69  2  0  0  0
 57 58  2  0  0  0
 57129  1  0  0  0
 58130  1  0  0  0
 59 60  1  0  0  0
 59 61  1  0  0  0
 59 62  1  0  0  0
 60131  1  0  0  0
 60132  1  0  0  0
 60133  1  0  0  0
 61134  1  0  0  0
 61135  1  0  0  0
 61136  1  0  0  0
 62137  1  0  0  0
 62138  1  0  0  0
 62139  1  0  0  0
 63 65  1  0  0  0
 63140  1  0  0  0
 63141  1  0  0  0
 63142  1  0  0  0
 64143  1  0  0  0
 65144  1  0  0  0
 68 83  1  0  0  0
 71 72  2  0  0  0
 71 73  1  0  0  0
 71145  1  0  0  0
 72 74  1  0  0  0
 72146  1  0  0  0
 73 75  2  0  0  0
 73 77  1  0  0  0
 74 78  1  0  0  0
 74 84  2  0  0  0
 75 79  1  0  0  0
 75 84  1  0  0  0
 76 80  1  0  0  0
 76147  1  0  0  0
 76148  1  0  0  0
 76149  1  0  0  0
 77 81  1  0  0  0
 77150  1  0  0  0
 77151  1  0  0  0
 78 82  1  0  0  0
 78152  1  0  0  0
 78153  1  0  0  0
 79 80  1  0  0  0
 79154  1  0  0  0
 79155  1  0  0  0
 80156  1  0  0  0
 80157  1  0  0  0
 81 83  1  0  0  0
 81158  1  0  0  0
 81159  1  0  0  0
 82 85  1  0  0  0
 82160  1  0  0  0
 82161  1  0  0  0
 83162  1  0  0  0
 83163  1  0  0  0
 85164  1  0  0  0
M  ISO  4   1 100  68 101  83 101  85 100
M  END
> <chiral flag>
0

> <version>
0

> <s_m_source_file>
/data/baiqing/PycharmProjects/Reinvent-master-3.2/result/LINK_invent/BTK/process_docking_weight1_custom_sum_contain_oxygen_bond_distance_aromatic_linkinvent_7_9_3/rearranged_h_0084.sdf

> <i_m_source_file_index>
59

> <r_mmod_Potential_Energy-OPLS-2005>
-160.159881591797

> <r_mmod_Stretch_Energy-OPLS-2005>
38.7759284973145

> <r_mmod_Bend_Energy-OPLS-2005>
111.584892272949

> <r_mmod_Torsional_Energy-OPLS-2005>
225.510925292969

> <r_mmod_Improper_Torsional_Energy-OPLS-2005>
3.87275290489197

> <r_mmod_Van_der_Waal_Energy-OPLS-2005>
147.381866455078

> <r_mmod_Electrostatic_Energy-OPLS-2005>
-481.225158691406

> <r_mmod_Solvation_Energy-OPLS-2005>
-218.754974365234

> <b_mmod_Minimization_Converged-OPLS-2005>
0

> <r_mmod_RMS_Derivative-OPLS-2005>
5.42146492004395

$$$$
59
                    3D
 Structure written by MMmdl.
164172  0  0  1  0            999 V2000
  -30.4042  -14.7348   19.9937 C   0  0  0  0  0  0
  -30.7295  -12.3838   19.3454 C   0  0  0  0  0  0
  -29.7493  -12.2868   18.1733 C   0  0  0  0  0  0
  -28.3491  -12.0319   18.7125 C   0  0  0  0  0  0
  -28.0595  -13.0065   19.9448 C   0  0  2  0  0  0
  -29.1147  -12.9399   20.9979 C   0  0  0  0  0  0
  -26.0665  -13.9612   20.8765 C   0  0  0  0  0  0
  -24.2443  -13.4722   20.8011 C   0  0  0  0  0  0
  -23.9418  -12.2416   20.4714 C   0  0  0  0  0  0
  -23.5485  -10.7642   20.9518 C   0  0  0  0  0  0
  -24.0199   -9.8280   21.9580 C   0  0  0  0  0  0
  -23.5055   -8.5055   22.1162 C   0  0  0  0  0  0
  -22.4019   -8.1004   21.3344 C   0  0  0  0  0  0
  -21.9369   -8.9906   20.3563 C   0  0  0  0  0  0
  -22.5164  -10.2546   20.1568 C   0  0  0  0  0  0
  -21.7299   -6.0920   22.5254 C   0  0  0  0  0  0
  -21.4345   -6.5819   23.8177 C   0  0  0  0  0  0
  -21.3767   -5.6940   24.9120 C   0  0  0  0  0  0
  -21.6017   -4.3171   24.7184 C   0  0  0  0  0  0
  -21.8781   -3.8238   23.4312 C   0  0  0  0  0  0
  -21.9342   -4.7081   22.3395 C   0  0  0  0  0  0
  -22.7125  -13.9504   21.1864 C   0  0  0  0  0  0
  -22.1720   -4.2229   21.0973 F   0  0  0  0  0  0
  -21.5521   -3.4630   25.7680 F   0  0  0  0  0  0
  -30.2050  -13.4177   20.2389 N   0  0  0  0  0  0
  -26.8655  -13.4374   20.7498 N   0  0  0  0  0  0
  -24.9948  -13.3193   20.7316 N   0  0  0  0  0  0
  -22.0428  -13.1960   22.0819 N   0  0  0  0  0  0
  -27.0279  -15.0453   21.1674 N   0  0  0  0  0  0
  -31.5810  -15.1082   19.9881 O   0  0  0  0  0  0
  -21.7366   -6.8938   21.4090 O   0  0  0  0  0  0
  -22.1496  -14.8539   20.5922 O   0  0  0  0  0  0
  -24.6875  -31.7979   23.1595 C   0  0  0  0  0  0
  -25.9494  -32.4419   23.8051 C   0  0  1  0  0  0
  -26.7538  -26.4816   20.2971 C   0  0  0  0  0  0
  -25.6074  -33.8274   24.1901 N   0  0  0  0  0  0
  -23.4910  -30.4335   21.5206 C   0  0  2  0  0  0
  -24.8673  -28.7814   20.0843 C   0  0  0  0  0  0
  -22.7698  -29.4360   22.4678 C   0  0  0  0  0  0
  -18.0320  -28.1423   22.8445 C   0  0  0  0  0  0
  -24.1501  -36.7143   23.2641 C   0  0  0  0  0  0
  -26.0741  -30.4482   21.4552 C   0  0  0  0  0  0
  -26.0501  -29.0121   20.7915 C   0  0  0  0  0  0
  -27.0184  -27.8746   20.8682 C   0  0  0  0  0  0
  -25.6689  -26.5455   19.4278 C   0  0  0  0  0  0
  -24.7376  -27.5971   19.3559 C   0  0  0  0  0  0
  -23.7242  -29.7913   20.1293 C   0  0  0  0  0  0
  -25.4169  -36.2889   24.0252 C   0  0  1  0  0  0
  -20.5953  -28.3782   23.1132 C   0  0  2  0  0  0
  -20.6798  -26.9442   22.5392 C   0  0  0  0  0  0
  -19.5773  -26.6366   21.5212 C   0  0  0  0  0  0
  -18.1956  -26.7951   22.1610 C   0  0  0  0  0  0
  -19.1584  -28.8929   23.2772 C   0  0  0  0  0  0
  -18.9491  -30.1517   23.8817 C   0  0  0  0  0  0
  -17.6479  -30.6604   24.0557 C   0  0  0  0  0  0
  -25.9167  -34.9281   23.4911 C   0  0  0  0  0  0
  -16.5372  -29.9082   23.6357 C   0  0  0  0  0  0
  -16.7299  -28.6509   23.0361 C   0  0  0  0  0  0
  -26.4620  -31.6528   25.0744 C   0  0  0  0  0  0
  -25.3607  -31.3918   26.1298 C   0  0  0  0  0  0
  -27.0585  -30.2841   24.6827 C   0  0  0  0  0  0
  -27.6075  -32.4413   25.7509 C   0  0  0  0  0  0
  -27.5581  -37.1734   24.8459 C   0  0  0  0  0  0
  -21.4362  -29.3029   22.3443 N   0  0  0  0  0  0
  -26.4293  -37.3662   23.9392 N   0  0  0  0  0  0
  -24.7796  -30.9358   22.0906 N   0  0  0  0  0  0
  -23.4184  -28.7899   23.2946 O   0  0  0  0  0  0
  -27.3001  -25.0267   20.3978 O   0  0  0  0  0  0
  -26.5799  -34.8870   22.4528 O   0  0  0  0  0  0
  -23.5915  -32.1161   23.6543 O   0  0  0  0  0  0
  -24.9840  -14.7455   22.6277 C   0  0  0  0  0  0
  -25.6641  -12.5957   22.7104 C   0  0  0  0  0  0
  -24.8643  -15.8321   20.6301 C   0  0  0  0  0  0
  -26.0930  -11.3903   20.8329 C   0  0  0  0  0  0
  -25.4070  -14.5948   18.8567 C   0  0  0  0  0  0
  -26.0097  -12.0457   24.0847 C   0  0  0  0  0  0
  -26.7748  -10.0239   20.8185 C   0  0  0  0  0  0
  -25.0454  -17.7572   20.3554 C   0  0  0  0  0  0
  -26.6415  -15.3286   18.0626 C   0  0  0  0  0  0
  -25.8163  -19.5558   20.8868 C   0  0  0  0  0  0
  -26.2177  -21.4438   20.2378 C   0  0  0  0  0  0
  -28.2853  -15.7671   18.4427 C   0  0  0  0  0  0
  -26.5412  -23.3871   20.7471 C   0  0  0  0  0  0
  -25.8301  -12.4938   18.9086 N   0  0  0  0  0  0
  -29.2906  -15.5672   19.6735 N   0  0  0  0  0  0
  -31.7288  -12.6371   18.9886 H   0  0  0  0  0  0
  -30.8259  -11.4260   19.8569 H   0  0  0  0  0  0
  -30.0457  -11.4851   17.4942 H   0  0  0  0  0  0
  -29.7693  -13.2062   17.5860 H   0  0  0  0  0  0
  -28.2693  -10.9830   18.9701 H   0  0  0  0  0  0
  -27.7722  -12.1734   17.7981 H   0  0  0  0  0  0
  -28.0621  -13.7437   19.2347 H   0  0  0  0  0  0
  -29.2612  -11.9281   21.3751 H   0  0  0  0  0  0
  -28.9768  -13.5806   21.8722 H   0  0  0  0  0  0
  -24.7733  -10.1266   22.6552 H   0  0  0  0  0  0
  -23.9031   -7.8600   22.8854 H   0  0  0  0  0  0
  -21.1177   -8.6924   19.7184 H   0  0  0  0  0  0
  -22.1163  -10.8787   19.3694 H   0  0  0  0  0  0
  -21.2498   -7.6355   23.9718 H   0  0  0  0  0  0
  -21.1575   -6.0665   25.9022 H   0  0  0  0  0  0
  -22.0393   -2.7682   23.2784 H   0  0  0  0  0  0
  -22.5204  -12.4457   22.5586 H   0  0  0  0  0  0
  -21.0825  -13.4051   22.3125 H   0  0  0  0  0  0
  -26.3512  -15.7944   21.0069 H   0  0  0  0  0  0
  -27.8322  -15.1188   20.5511 H   0  0  0  0  0  0
  -26.7525  -32.4745   23.0677 H   0  0  0  0  0  0
  -25.0102  -33.9290   24.9974 H   0  0  0  0  0  0
  -22.8187  -31.2811   21.3672 H   0  0  0  0  0  0
  -23.3804  -35.9431   23.3234 H   0  0  0  0  0  0
  -24.3553  -36.8897   22.2072 H   0  0  0  0  0  0
  -23.7214  -37.6278   23.6771 H   0  0  0  0  0  0
  -26.3421  -31.1655   20.6790 H   0  0  0  0  0  0
  -26.9142  -30.4640   22.1355 H   0  0  0  0  0  0
  -27.8932  -28.0125   21.4889 H   0  0  0  0  0  0
  -25.4256  -25.6507   18.8728 H   0  0  0  0  0  0
  -23.8540  -27.4474   18.7500 H   0  0  0  0  0  0
  -23.9535  -30.5720   19.4035 H   0  0  0  0  0  0
  -22.8057  -29.3213   19.7748 H   0  0  0  0  0  0
  -25.1369  -36.1640   25.0739 H   0  0  0  0  0  0
  -21.0029  -28.3432   24.1267 H   0  0  0  0  0  0
  -20.5709  -26.2394   23.3652 H   0  0  0  0  0  0
  -21.6654  -26.7430   22.1180 H   0  0  0  0  0  0
  -19.6929  -25.6257   21.1299 H   0  0  0  0  0  0
  -19.6721  -27.3134   20.6715 H   0  0  0  0  0  0
  -17.4224  -26.6688   21.4018 H   0  0  0  0  0  0
  -18.0347  -26.0125   22.9035 H   0  0  0  0  0  0
  -19.7972  -30.7354   24.2145 H   0  0  0  0  0  0
  -17.5036  -31.6280   24.5172 H   0  0  0  0  0  0
  -15.5374  -30.2951   23.7748 H   0  0  0  0  0  0
  -15.8701  -28.0814   22.7102 H   0  0  0  0  0  0
  -24.5818  -30.7264   25.7543 H   0  0  0  0  0  0
  -24.8763  -32.3173   26.4436 H   0  0  0  0  0  0
  -25.7689  -30.9220   27.0250 H   0  0  0  0  0  0
  -26.3314  -29.6340   24.1950 H   0  0  0  0  0  0
  -27.4022  -29.7444   25.5661 H   0  0  0  0  0  0
  -27.9317  -30.3920   24.0389 H   0  0  0  0  0  0
  -27.2665  -33.3823   26.1819 H   0  0  0  0  0  0
  -28.3989  -32.6795   25.0394 H   0  0  0  0  0  0
  -28.0626  -31.8723   26.5614 H   0  0  0  0  0  0
  -28.2547  -38.0080   24.7550 H   0  0  0  0  0  0
  -28.1127  -36.2605   24.6236 H   0  0  0  0  0  0
  -27.2289  -37.1308   25.8858 H   0  0  0  0  0  0
  -20.9634  -29.8714   21.6557 H   0  0  0  0  0  0
  -26.0110  -38.2705   24.1412 H   0  0  0  0  0  0
  -24.8933  -15.3052   23.5476 H   0  0  0  0  0  0
  -25.4848  -12.6154   24.8517 H   0  0  0  0  0  0
  -27.0795  -12.1554   24.2658 H   0  0  0  0  0  0
  -25.7585  -10.9970   24.2203 H   0  0  0  0  0  0
  -26.5111   -9.3923   21.6623 H   0  0  0  0  0  0
  -27.8551  -10.1332   20.8843 H   0  0  0  0  0  0
  -26.5299   -9.4946   19.8972 H   0  0  0  0  0  0
  -23.9886  -18.0135   20.2750 H   0  0  0  0  0  0
  -25.3763  -17.7307   19.3177 H   0  0  0  0  0  0
  -26.1857  -16.2482   17.6943 H   0  0  0  0  0  0
  -26.7224  -14.7276   17.1572 H   0  0  0  0  0  0
  -26.8081  -19.2549   21.2286 H   0  0  0  0  0  0
  -25.2897  -19.7508   21.8223 H   0  0  0  0  0  0
  -25.4282  -21.5677   19.4957 H   0  0  0  0  0  0
  -27.0950  -21.2489   19.6207 H   0  0  0  0  0  0
  -28.3124  -16.8474   18.2966 H   0  0  0  0  0  0
  -28.8636  -15.4071   17.5906 H   0  0  0  0  0  0
  -27.0136  -23.2333   21.7184 H   0  0  0  0  0  0
  -25.5335  -23.7078   21.0118 H   0  0  0  0  0  0
  -29.5335  -16.4947   20.0005 H   0  0  0  0  0  0
  1 25  1  0  0  0
  1 30  2  0  0  0
  1 85  1  0  0  0
  2  3  1  0  0  0
  2 25  1  0  0  0
  2 86  1  0  0  0
  2 87  1  0  0  0
  3  4  1  0  0  0
  3 88  1  0  0  0
  3 89  1  0  0  0
  4  5  1  0  0  0
  4 90  1  0  0  0
  4 91  1  0  0  0
  5  6  1  0  0  0
  5 26  1  0  0  0
  5 92  1  0  0  0
  6 25  1  0  0  0
  6 93  1  0  0  0
  6 94  1  0  0  0
  7  8  2  0  0  0
  7 26  1  0  0  0
  7 29  1  0  0  0
  8  9  1  0  0  0
  8 22  1  0  0  0
  9 10  1  0  0  0
  9 27  2  0  0  0
 10 11  2  0  0  0
 10 15  1  0  0  0
 11 12  1  0  0  0
 11 95  1  0  0  0
 12 13  2  0  0  0
 12 96  1  0  0  0
 13 14  1  0  0  0
 13 31  1  0  0  0
 14 15  2  0  0  0
 14 97  1  0  0  0
 15 98  1  0  0  0
 16 17  2  0  0  0
 16 21  1  0  0  0
 16 31  1  0  0  0
 17 18  1  0  0  0
 17 99  1  0  0  0
 18 19  2  0  0  0
 18100  1  0  0  0
 19 20  1  0  0  0
 19 24  1  0  0  0
 20 21  2  0  0  0
 20101  1  0  0  0
 21 23  1  0  0  0
 22 28  1  0  0  0
 22 32  2  0  0  0
 26 27  1  0  0  0
 28102  1  0  0  0
 28103  1  0  0  0
 29104  1  0  0  0
 29105  1  0  0  0
 33 34  1  0  0  0
 33 66  1  0  0  0
 33 70  2  0  0  0
 34 36  1  0  0  0
 34 59  1  0  0  0
 34106  1  0  0  0
 35 44  2  0  0  0
 35 45  1  0  0  0
 35 68  1  0  0  0
 36 56  1  0  0  0
 36107  1  0  0  0
 37 39  1  0  0  0
 37 47  1  0  0  0
 37 66  1  0  0  0
 37108  1  0  0  0
 38 43  2  0  0  0
 38 46  1  0  0  0
 38 47  1  0  0  0
 39 64  1  0  0  0
 39 67  2  0  0  0
 40 52  1  0  0  0
 40 53  2  0  0  0
 40 58  1  0  0  0
 41109  1  0  0  0
 41110  1  0  0  0
 41111  1  0  0  0
 41 48  1  0  0  0
 42 43  1  0  0  0
 42 66  1  0  0  0
 42112  1  0  0  0
 42113  1  0  0  0
 43 44  1  0  0  0
 44114  1  0  0  0
 45 46  2  0  0  0
 45115  1  0  0  0
 46116  1  0  0  0
 47117  1  0  0  0
 47118  1  0  0  0
 48 56  1  0  0  0
 48 65  1  0  0  0
 48119  1  0  0  0
 49 50  1  0  0  0
 49 53  1  0  0  0
 49 64  1  0  0  0
 49120  1  0  0  0
 50 51  1  0  0  0
 50121  1  0  0  0
 50122  1  0  0  0
 51 52  1  0  0  0
 51123  1  0  0  0
 51124  1  0  0  0
 52125  1  0  0  0
 52126  1  0  0  0
 53 54  1  0  0  0
 54 55  2  0  0  0
 54127  1  0  0  0
 55 57  1  0  0  0
 55128  1  0  0  0
 56 69  2  0  0  0
 57 58  2  0  0  0
 57129  1  0  0  0
 58130  1  0  0  0
 59 60  1  0  0  0
 59 61  1  0  0  0
 59 62  1  0  0  0
 60131  1  0  0  0
 60132  1  0  0  0
 60133  1  0  0  0
 61134  1  0  0  0
 61135  1  0  0  0
 61136  1  0  0  0
 62137  1  0  0  0
 62138  1  0  0  0
 62139  1  0  0  0
 63 65  1  0  0  0
 63140  1  0  0  0
 63141  1  0  0  0
 63142  1  0  0  0
 64143  1  0  0  0
 65144  1  0  0  0
 68 83  1  0  0  0
 71 72  2  0  0  0
 71 73  1  0  0  0
 71145  1  0  0  0
 72 74  1  0  0  0
 72 76  1  0  0  0
 73 75  2  0  0  0
 73 78  1  0  0  0
 74 77  1  0  0  0
 74 84  2  0  0  0
 75 79  1  0  0  0
 75 84  1  0  0  0
 76146  1  0  0  0
 76147  1  0  0  0
 76148  1  0  0  0
 77149  1  0  0  0
 77150  1  0  0  0
 77151  1  0  0  0
 78 80  1  0  0  0
 78152  1  0  0  0
 78153  1  0  0  0
 79 82  1  0  0  0
 79154  1  0  0  0
 79155  1  0  0  0
 80 81  1  0  0  0
 80156  1  0  0  0
 80157  1  0  0  0
 81 83  1  0  0  0
 81158  1  0  0  0
 81159  1  0  0  0
 82 85  1  0  0  0
 82160  1  0  0  0
 82161  1  0  0  0
 83162  1  0  0  0
 83163  1  0  0  0
 85164  1  0  0  0
M  ISO  4   1 100  68 101  83 101  85 100
M  END
> <chiral flag>
0

> <version>
0

> <s_m_source_file>
/data/baiqing/PycharmProjects/Reinvent-master-3.2/result/LINK_invent/BTK/process_docking_weight1_custom_sum_contain_oxygen_bond_distance_aromatic_linkinvent_7_9_3/rearranged_h_0084.sdf

> <i_m_source_file_index>
60

> <r_mmod_Potential_Energy-OPLS-2005>
21098.16015625

> <r_mmod_Stretch_Energy-OPLS-2005>
11974.8984375

> <r_mmod_Bend_Energy-OPLS-2005>
2655.859375

> <r_mmod_Torsional_Energy-OPLS-2005>
586.185852050781

> <r_mmod_Improper_Torsional_Energy-OPLS-2005>
84.5532379150391

> <r_mmod_Van_der_Waal_Energy-OPLS-2005>
4459.47998046875

> <r_mmod_Electrostatic_Energy-OPLS-2005>
-455.455932617188

> <r_mmod_Solvation_Energy-OPLS-2005>
-234.674468994141

> <b_mmod_Minimization_Converged-OPLS-2005>
0

> <r_mmod_RMS_Derivative-OPLS-2005>
4.99166107177734

$$$$
60
                    3D
 Structure written by MMmdl.
168176  0  0  1  0            999 V2000
  -30.6267  -14.5293   20.4155 C   0  0  0  0  0  0
  -30.4367  -12.2936   19.4319 C   0  0  0  0  0  0
  -29.5078  -12.4707   18.2150 C   0  0  0  0  0  0
  -28.0183  -12.3599   18.6174 C   0  0  0  0  0  0
  -27.6565  -13.2017   19.8729 C   0  0  2  0  0  0
  -28.7060  -13.0004   20.9867 C   0  0  0  0  0  0
  -25.2548  -13.8104   20.5694 C   0  0  0  0  0  0
  -24.1834  -13.0419   20.9188 C   0  0  0  0  0  0
  -24.6385  -11.6851   20.8795 C   0  0  0  0  0  0
  -23.9055  -10.4236   21.0378 C   0  0  0  0  0  0
  -24.3600   -9.4163   21.9166 C   0  0  0  0  0  0
  -23.6266   -8.2223   22.0761 C   0  0  0  0  0  0
  -22.4255   -8.0240   21.3542 C   0  0  0  0  0  0
  -21.9870   -9.0217   20.4659 C   0  0  0  0  0  0
  -22.7209  -10.2084   20.3032 C   0  0  0  0  0  0
  -21.6840   -6.0731   22.5281 C   0  0  0  0  0  0
  -21.4039   -6.5637   23.8224 C   0  0  0  0  0  0
  -21.3646   -5.6781   24.9182 C   0  0  0  0  0  0
  -21.6074   -4.3050   24.7236 C   0  0  0  0  0  0
  -21.8792   -3.8134   23.4344 C   0  0  0  0  0  0
  -21.9193   -4.6963   22.3405 C   0  0  0  0  0  0
  -22.7838  -13.5192   21.1906 C   0  0  0  0  0  0
  -22.1642   -4.2123   21.0985 F   0  0  0  0  0  0
  -21.5615   -3.4538   25.7753 F   0  0  0  0  0  0
  -30.0331  -13.3021   20.4210 N   0  0  0  0  0  0
  -26.2998  -12.9305   20.3328 N   0  0  0  0  0  0
  -25.9303  -11.6467   20.5759 N   0  0  0  0  0  0
  -22.0487  -12.8191   22.0450 N   0  0  0  0  0  0
  -25.4185  -15.1828   20.4029 N   0  0  0  0  0  0
  -31.7984  -14.7149   20.0699 O   0  0  0  0  0  0
  -21.6618   -6.8845   21.4227 O   0  0  0  0  0  0
  -22.3508  -14.5502   20.6736 O   0  0  0  0  0  0
  -24.6167  -31.8721   23.2103 C   0  0  0  0  0  0
  -25.9087  -32.4853   23.8388 C   0  0  1  0  0  0
  -27.2200  -27.4179   20.0764 C   0  0  0  0  0  0
  -25.5991  -33.8656   24.2374 N   0  0  0  0  0  0
  -23.4084  -30.5028   21.5449 C   0  0  2  0  0  0
  -24.8492  -28.9709   20.1077 C   0  0  0  0  0  0
  -22.7436  -29.4728   22.4891 C   0  0  0  0  0  0
  -18.0268  -28.1113   22.8878 C   0  0  0  0  0  0
  -24.1502  -36.7328   23.2631 C   0  0  0  0  0  0
  -25.9367  -30.8289   21.3692 C   0  0  0  0  0  0
  -26.0106  -29.4597   20.7181 C   0  0  0  0  0  0
  -27.2054  -28.6935   20.6988 C   0  0  0  0  0  0
  -26.0494  -26.9634   19.4405 C   0  0  0  0  0  0
  -24.8713  -27.7268   19.4594 C   0  0  0  0  0  0
  -23.6204  -29.8554   20.1503 C   0  0  0  0  0  0
  -25.4112  -36.3103   24.0329 C   0  0  1  0  0  0
  -20.5919  -28.3546   23.1045 C   0  0  2  0  0  0
  -20.6852  -26.9378   22.4929 C   0  0  0  0  0  0
  -19.5394  -26.6175   21.5293 C   0  0  0  0  0  0
  -18.1973  -26.7438   22.2439 C   0  0  0  0  0  0
  -19.1571  -28.8790   23.2787 C   0  0  0  0  0  0
  -18.9474  -30.1608   23.8295 C   0  0  0  0  0  0
  -17.6483  -30.6805   23.9854 C   0  0  0  0  0  0
  -25.9037  -34.9481   23.5098 C   0  0  0  0  0  0
  -16.5338  -29.9089   23.6188 C   0  0  0  0  0  0
  -16.7252  -28.6236   23.0816 C   0  0  0  0  0  0
  -26.4505  -31.6586   25.0691 C   0  0  0  0  0  0
  -25.3783  -31.3761   26.1474 C   0  0  0  0  0  0
  -27.0356  -30.3028   24.6031 C   0  0  0  0  0  0
  -27.6092  -32.4303   25.7462 C   0  0  0  0  0  0
  -27.5568  -37.1846   24.8451 C   0  0  0  0  0  0
  -21.4181  -29.3018   22.3517 N   0  0  0  0  0  0
  -26.4288  -37.3786   23.9414 N   0  0  0  0  0  0
  -24.6713  -31.0851   22.1022 N   0  0  0  0  0  0
  -23.4190  -28.8312   23.3030 O   0  0  0  0  0  0
  -28.3678  -26.6451   20.0206 O   0  0  0  0  0  0
  -26.5543  -34.8904   22.4610 O   0  0  0  0  0  0
  -23.5378  -32.1529   23.7488 O   0  0  0  0  0  0
  -28.6798  -19.9007   18.7628 C   0  0  0  0  0  0
  -27.7469  -20.8803   18.4677 C   0  0  0  0  0  0
  -26.5037  -20.3078   18.9231 C   0  0  0  0  0  0
  -24.0477  -19.6124   18.8815 C   0  0  0  0  0  0
  -24.7078  -21.6532   17.6933 C   0  0  0  0  0  0
  -24.7564  -21.5665   20.2411 C   0  0  0  0  0  0
  -28.0296  -22.2059   17.7519 C   0  0  0  0  0  0
  -27.6489  -23.5325   18.4847 C   0  0  0  0  0  0
  -28.7366  -24.1988   19.3657 C   0  0  0  0  0  0
  -28.4345  -17.6072   20.0986 C   0  0  0  0  0  0
  -29.7900  -16.8867   19.8348 C   0  0  0  0  0  0
  -28.2410  -25.2532   20.4003 C   0  0  0  0  0  0
  -25.0390  -20.8009   18.9329 C   0  0  0  0  0  0
  -26.7223  -19.1459   19.5182 N   0  0  0  0  0  0
  -28.0316  -18.8549   19.4180 N   0  0  0  0  0  0
  -29.7476  -15.5492   20.4950 N   0  0  0  0  0  0
  -31.4791  -12.3956   19.1343 H   0  0  0  0  0  0
  -30.3441  -11.2925   19.8487 H   0  0  0  0  0  0
  -29.7392  -11.7280   17.4544 H   0  0  0  0  0  0
  -29.6885  -13.4444   17.7581 H   0  0  0  0  0  0
  -27.7942  -11.3054   18.7950 H   0  0  0  0  0  0
  -27.3792  -12.6543   17.7809 H   0  0  0  0  0  0
  -27.6789  -14.2397   19.5551 H   0  0  0  0  0  0
  -28.6786  -11.9643   21.3277 H   0  0  0  0  0  0
  -28.4934  -13.6050   21.8680 H   0  0  0  0  0  0
  -25.2733   -9.5655   22.4744 H   0  0  0  0  0  0
  -23.9976   -7.4608   22.7462 H   0  0  0  0  0  0
  -21.0815   -8.8741   19.8950 H   0  0  0  0  0  0
  -22.3661  -10.9645   19.6150 H   0  0  0  0  0  0
  -21.2040   -7.6144   23.9716 H   0  0  0  0  0  0
  -21.1506   -6.0527   25.9088 H   0  0  0  0  0  0
  -22.0592   -2.7592   23.2867 H   0  0  0  0  0  0
  -22.4075  -11.9814   22.4860 H   0  0  0  0  0  0
  -21.1112  -13.1211   22.2727 H   0  0  0  0  0  0
  -24.6412  -15.8235   20.5092 H   0  0  0  0  0  0
  -26.2339  -15.6244   20.0064 H   0  0  0  0  0  0
  -26.7191  -32.5560   23.1178 H   0  0  0  0  0  0
  -25.0357  -33.9838   25.0662 H   0  0  0  0  0  0
  -22.7147  -31.3312   21.4147 H   0  0  0  0  0  0
  -23.3718  -35.9698   23.3264 H   0  0  0  0  0  0
  -24.3622  -36.8969   22.2060 H   0  0  0  0  0  0
  -23.7322  -37.6543   23.6664 H   0  0  0  0  0  0
  -26.0405  -31.5914   20.5975 H   0  0  0  0  0  0
  -26.8354  -30.9073   21.9681 H   0  0  0  0  0  0
  -28.1001  -29.0749   21.1778 H   0  0  0  0  0  0
  -26.0439  -26.0278   18.9036 H   0  0  0  0  0  0
  -23.9999  -27.3534   18.9448 H   0  0  0  0  0  0
  -23.7682  -30.6440   19.4127 H   0  0  0  0  0  0
  -22.7409  -29.3036   19.8129 H   0  0  0  0  0  0
  -25.1275  -36.1960   25.0830 H   0  0  0  0  0  0
  -21.0080  -28.2881   24.1196 H   0  0  0  0  0  0
  -20.6594  -26.2065   23.3040 H   0  0  0  0  0  0
  -21.6451  -26.7831   21.9984 H   0  0  0  0  0  0
  -19.6543  -25.6054   21.1313 H   0  0  0  0  0  0
  -19.5636  -27.3147   20.6894 H   0  0  0  0  0  0
  -17.3717  -26.5230   21.5662 H   0  0  0  0  0  0
  -18.1421  -25.9878   23.0348 H   0  0  0  0  0  0
  -19.8024  -30.7661   24.0983 H   0  0  0  0  0  0
  -17.5185  -31.6920   24.3531 H   0  0  0  0  0  0
  -15.5304  -30.3047   23.7228 H   0  0  0  0  0  0
  -15.8631  -28.0326   22.8038 H   0  0  0  0  0  0
  -24.5955  -30.7078   25.7863 H   0  0  0  0  0  0
  -24.8949  -32.2963   26.4782 H   0  0  0  0  0  0
  -25.8137  -30.9053   27.0309 H   0  0  0  0  0  0
  -26.2891  -29.6786   24.1107 H   0  0  0  0  0  0
  -27.4247  -29.7265   25.4445 H   0  0  0  0  0  0
  -27.8654  -30.4387   23.9095 H   0  0  0  0  0  0
  -27.2701  -33.3626   26.2001 H   0  0  0  0  0  0
  -28.3900  -32.6870   25.0280 H   0  0  0  0  0  0
  -28.0751  -31.8458   26.5416 H   0  0  0  0  0  0
  -28.2556  -38.0155   24.7428 H   0  0  0  0  0  0
  -28.1089  -36.2685   24.6324 H   0  0  0  0  0  0
  -27.2281  -37.1524   25.8846 H   0  0  0  0  0  0
  -20.9396  -29.8628   21.6629 H   0  0  0  0  0  0
  -26.0131  -38.2830   24.1441 H   0  0  0  0  0  0
  -29.7450  -19.8648   18.5812 H   0  0  0  0  0  0
  -24.2051  -18.9953   18.0021 H   0  0  0  0  0  0
  -23.0077  -19.9568   18.8760 H   0  0  0  0  0  0
  -24.1407  -18.9673   19.7582 H   0  0  0  0  0  0
  -24.9685  -21.1226   16.7733 H   0  0  0  0  0  0
  -25.2279  -22.6073   17.6789 H   0  0  0  0  0  0
  -23.6367  -21.8781   17.6397 H   0  0  0  0  0  0
  -25.0014  -20.9389   21.1017 H   0  0  0  0  0  0
  -23.7106  -21.8581   20.3466 H   0  0  0  0  0  0
  -25.3665  -22.4594   20.3383 H   0  0  0  0  0  0
  -27.4920  -22.2013   16.8070 H   0  0  0  0  0  0
  -29.0743  -22.2689   17.4429 H   0  0  0  0  0  0
  -27.3854  -24.2724   17.7292 H   0  0  0  0  0  0
  -26.7464  -23.3941   19.0574 H   0  0  0  0  0  0
  -29.5245  -24.6239   18.7446 H   0  0  0  0  0  0
  -29.2180  -23.3946   19.9188 H   0  0  0  0  0  0
  -28.3519  -17.7975   21.1652 H   0  0  0  0  0  0
  -27.6573  -16.8751   19.8782 H   0  0  0  0  0  0
  -30.6240  -17.4790   20.2288 H   0  0  0  0  0  0
  -29.9383  -16.7561   18.7600 H   0  0  0  0  0  0
  -28.8730  -25.1469   21.2855 H   0  0  0  0  0  0
  -27.2442  -24.9921   20.7611 H   0  0  0  0  0  0
  -28.8385  -15.2762   20.8290 H   0  0  0  0  0  0
  1 25  1  0  0  0
  1 30  2  0  0  0
  1 86  1  0  0  0
  2  3  1  0  0  0
  2 25  1  0  0  0
  2 87  1  0  0  0
  2 88  1  0  0  0
  3  4  1  0  0  0
  3 89  1  0  0  0
  3 90  1  0  0  0
  4  5  1  0  0  0
  4 91  1  0  0  0
  4 92  1  0  0  0
  5  6  1  0  0  0
  5 26  1  0  0  0
  5 93  1  0  0  0
  6 25  1  0  0  0
  6 94  1  0  0  0
  6 95  1  0  0  0
  7  8  2  0  0  0
  7 26  1  0  0  0
  7 29  1  0  0  0
  8  9  1  0  0  0
  8 22  1  0  0  0
  9 10  1  0  0  0
  9 27  2  0  0  0
 10 11  2  0  0  0
 10 15  1  0  0  0
 11 12  1  0  0  0
 11 96  1  0  0  0
 12 13  2  0  0  0
 12 97  1  0  0  0
 13 14  1  0  0  0
 13 31  1  0  0  0
 14 15  2  0  0  0
 14 98  1  0  0  0
 15 99  1  0  0  0
 16 17  2  0  0  0
 16 21  1  0  0  0
 16 31  1  0  0  0
 17 18  1  0  0  0
 17100  1  0  0  0
 18 19  2  0  0  0
 18101  1  0  0  0
 19 20  1  0  0  0
 19 24  1  0  0  0
 20 21  2  0  0  0
 20102  1  0  0  0
 21 23  1  0  0  0
 22 28  1  0  0  0
 22 32  2  0  0  0
 26 27  1  0  0  0
 28103  1  0  0  0
 28104  1  0  0  0
 29105  1  0  0  0
 29106  1  0  0  0
 33 34  1  0  0  0
 33 66  1  0  0  0
 33 70  2  0  0  0
 34 36  1  0  0  0
 34 59  1  0  0  0
 34107  1  0  0  0
 35 44  2  0  0  0
 35 45  1  0  0  0
 35 68  1  0  0  0
 36 56  1  0  0  0
 36108  1  0  0  0
 37 39  1  0  0  0
 37 47  1  0  0  0
 37 66  1  0  0  0
 37109  1  0  0  0
 38 43  2  0  0  0
 38 46  1  0  0  0
 38 47  1  0  0  0
 39 64  1  0  0  0
 39 67  2  0  0  0
 40 52  1  0  0  0
 40 53  2  0  0  0
 40 58  1  0  0  0
 41110  1  0  0  0
 41111  1  0  0  0
 41112  1  0  0  0
 41 48  1  0  0  0
 42 43  1  0  0  0
 42 66  1  0  0  0
 42113  1  0  0  0
 42114  1  0  0  0
 43 44  1  0  0  0
 44115  1  0  0  0
 45 46  2  0  0  0
 45116  1  0  0  0
 46117  1  0  0  0
 47118  1  0  0  0
 47119  1  0  0  0
 48 56  1  0  0  0
 48 65  1  0  0  0
 48120  1  0  0  0
 49 50  1  0  0  0
 49 53  1  0  0  0
 49 64  1  0  0  0
 49121  1  0  0  0
 50 51  1  0  0  0
 50122  1  0  0  0
 50123  1  0  0  0
 51 52  1  0  0  0
 51124  1  0  0  0
 51125  1  0  0  0
 52126  1  0  0  0
 52127  1  0  0  0
 53 54  1  0  0  0
 54 55  2  0  0  0
 54128  1  0  0  0
 55 57  1  0  0  0
 55129  1  0  0  0
 56 69  2  0  0  0
 57 58  2  0  0  0
 57130  1  0  0  0
 58131  1  0  0  0
 59 60  1  0  0  0
 59 61  1  0  0  0
 59 62  1  0  0  0
 60132  1  0  0  0
 60133  1  0  0  0
 60134  1  0  0  0
 61135  1  0  0  0
 61136  1  0  0  0
 61137  1  0  0  0
 62138  1  0  0  0
 62139  1  0  0  0
 62140  1  0  0  0
 63 65  1  0  0  0
 63141  1  0  0  0
 63142  1  0  0  0
 63143  1  0  0  0
 64144  1  0  0  0
 65145  1  0  0  0
 68 82  1  0  0  0
 71 72  2  0  0  0
 71 85  1  0  0  0
 71146  1  0  0  0
 72 73  1  0  0  0
 72 77  1  0  0  0
 73 83  1  0  0  0
 73 84  2  0  0  0
 74147  1  0  0  0
 74148  1  0  0  0
 74149  1  0  0  0
 74 83  1  0  0  0
 75 83  1  0  0  0
 75150  1  0  0  0
 75151  1  0  0  0
 75152  1  0  0  0
 76 83  1  0  0  0
 76153  1  0  0  0
 76154  1  0  0  0
 76155  1  0  0  0
 77 78  1  0  0  0
 77156  1  0  0  0
 77157  1  0  0  0
 78 79  1  0  0  0
 78158  1  0  0  0
 78159  1  0  0  0
 79 82  1  0  0  0
 79160  1  0  0  0
 79161  1  0  0  0
 80 81  1  0  0  0
 80 85  1  0  0  0
 80162  1  0  0  0
 80163  1  0  0  0
 81 86  1  0  0  0
 81164  1  0  0  0
 81165  1  0  0  0
 82166  1  0  0  0
 82167  1  0  0  0
 84 85  1  0  0  0
 86168  1  0  0  0
M  ISO  4   1 100  68 101  82 101  86 100
M  END
> <chiral flag>
0

> <version>
0

> <s_m_source_file>
/data/baiqing/PycharmProjects/Reinvent-master-3.2/result/LINK_invent/BTK/process_docking_weight1_custom_sum_contain_oxygen_bond_distance_aromatic_linkinvent_7_9_3/rearranged_h_0084.sdf

> <i_m_source_file_index>
61

> <r_mmod_Potential_Energy-OPLS-2005>
-20.2062816619873

> <r_mmod_Stretch_Energy-OPLS-2005>
49.4256019592285

> <r_mmod_Bend_Energy-OPLS-2005>
146.015075683594

> <r_mmod_Torsional_Energy-OPLS-2005>
253.537933349609

> <r_mmod_Improper_Torsional_Energy-OPLS-2005>
10.3835077285767

> <r_mmod_Van_der_Waal_Energy-OPLS-2005>
122.264915466309

> <r_mmod_Electrostatic_Energy-OPLS-2005>
-418.519622802734

> <r_mmod_Solvation_Energy-OPLS-2005>
-209.455474853516

> <b_mmod_Minimization_Converged-OPLS-2005>
0

> <r_mmod_RMS_Derivative-OPLS-2005>
11.7400522232056

$$$$
61
                    3D
 Structure written by MMmdl.
157165  0  0  1  0            999 V2000
  -30.6056  -14.7310   20.4734 C   0  0  0  0  0  0
  -30.4393  -12.4530   19.4547 C   0  0  0  0  0  0
  -29.5083  -12.4995   18.2237 C   0  0  0  0  0  0
  -28.0347  -12.3237   18.6430 C   0  0  0  0  0  0
  -27.6418  -13.2254   19.8442 C   0  0  2  0  0  0
  -28.6885  -13.1478   20.9748 C   0  0  0  0  0  0
  -25.2529  -13.8185   20.5687 C   0  0  0  0  0  0
  -24.1812  -13.0441   20.9212 C   0  0  0  0  0  0
  -24.6398  -11.6916   20.8750 C   0  0  0  0  0  0
  -23.9079  -10.4292   21.0414 C   0  0  0  0  0  0
  -24.3630   -9.4203   21.9184 C   0  0  0  0  0  0
  -23.6301   -8.2240   22.0751 C   0  0  0  0  0  0
  -22.4282   -8.0284   21.3544 C   0  0  0  0  0  0
  -21.9924   -9.0264   20.4649 C   0  0  0  0  0  0
  -22.7256  -10.2138   20.3059 C   0  0  0  0  0  0
  -21.6854   -6.0745   22.5278 C   0  0  0  0  0  0
  -21.4018   -6.5645   23.8214 C   0  0  0  0  0  0
  -21.3656   -5.6790   24.9171 C   0  0  0  0  0  0
  -21.6044   -4.3056   24.7219 C   0  0  0  0  0  0
  -21.8821   -3.8153   23.4339 C   0  0  0  0  0  0
  -21.9195   -4.6971   22.3400 C   0  0  0  0  0  0
  -22.7836  -13.5229   21.1866 C   0  0  0  0  0  0
  -22.1664   -4.2164   21.0976 F   0  0  0  0  0  0
  -21.5624   -3.4537   25.7729 F   0  0  0  0  0  0
  -29.9864  -13.5065   20.3879 N   0  0  0  0  0  0
  -26.2943  -12.9380   20.3252 N   0  0  0  0  0  0
  -25.9321  -11.6531   20.5732 N   0  0  0  0  0  0
  -22.0473  -12.8225   22.0416 N   0  0  0  0  0  0
  -25.4216  -15.1912   20.4102 N   0  0  0  0  0  0
  -31.8045  -14.8418   20.2035 O   0  0  0  0  0  0
  -21.6641   -6.8888   21.4240 O   0  0  0  0  0  0
  -22.3524  -14.5531   20.6698 O   0  0  0  0  0  0
  -24.6302  -31.8553   23.1973 C   0  0  0  0  0  0
  -25.9127  -32.4756   23.8324 C   0  0  1  0  0  0
  -27.2239  -27.2724   20.1381 C   0  0  0  0  0  0
  -25.5921  -33.8557   24.2253 N   0  0  0  0  0  0
  -23.4277  -30.4755   21.5406 C   0  0  2  0  0  0
  -24.8761  -28.9173   20.1148 C   0  0  0  0  0  0
  -22.7500  -29.4601   22.4924 C   0  0  0  0  0  0
  -18.0293  -28.1387   22.8491 C   0  0  0  0  0  0
  -24.1487  -36.7283   23.2643 C   0  0  0  0  0  0
  -25.9712  -30.7734   21.3730 C   0  0  0  0  0  0
  -26.0472  -29.3942   20.7194 C   0  0  0  0  0  0
  -27.2281  -28.5857   20.7143 C   0  0  0  0  0  0
  -26.0327  -26.8527   19.5123 C   0  0  0  0  0  0
  -24.8727  -27.6543   19.5000 C   0  0  0  0  0  0
  -23.6459  -29.8040   20.1586 C   0  0  0  0  0  0
  -25.4112  -36.3071   24.0330 C   0  0  1  0  0  0
  -20.5895  -28.3696   23.1277 C   0  0  2  0  0  0
  -20.6780  -26.9415   22.5414 C   0  0  0  0  0  0
  -19.5753  -26.6385   21.5219 C   0  0  0  0  0  0
  -18.1934  -26.7933   22.1629 C   0  0  0  0  0  0
  -19.1547  -28.8860   23.2879 C   0  0  0  0  0  0
  -18.9467  -30.1459   23.8899 C   0  0  0  0  0  0
  -17.6466  -30.6591   24.0562 C   0  0  0  0  0  0
  -25.9049  -34.9442   23.5097 C   0  0  0  0  0  0
  -16.5355  -29.9088   23.6332 C   0  0  0  0  0  0
  -16.7280  -28.6503   23.0359 C   0  0  0  0  0  0
  -26.4496  -31.6581   25.0715 C   0  0  0  0  0  0
  -25.3715  -31.3735   26.1436 C   0  0  0  0  0  0
  -27.0350  -30.3003   24.6193 C   0  0  0  0  0  0
  -27.6053  -32.4321   25.7486 C   0  0  0  0  0  0
  -27.5577  -37.1797   24.8468 C   0  0  0  0  0  0
  -21.4209  -29.3043   22.3666 N   0  0  0  0  0  0
  -26.4289  -37.3767   23.9409 N   0  0  0  0  0  0
  -24.6955  -31.0525   22.0937 N   0  0  0  0  0  0
  -23.4204  -28.8153   23.3028 O   0  0  0  0  0  0
  -28.3199  -26.3855   20.1465 O   0  0  0  0  0  0
  -26.5626  -34.8922   22.4668 O   0  0  0  0  0  0
  -23.5451  -32.1366   23.7272 O   0  0  0  0  0  0
  -30.8145  -23.4538   20.3928 C   0  0  0  0  0  0
  -31.8099  -22.5366   20.5859 C   0  0  0  0  0  0
  -29.8609  -21.4153   20.4536 C   0  0  0  0  0  0
  -33.2848  -22.6962   20.7587 C   0  0  0  0  0  0
  -29.0020  -20.0990   20.5304 C   0  0  0  0  0  0
  -29.6331  -18.5986   20.2522 C   0  0  0  0  0  0
  -28.3311  -23.5868   20.0984 C   0  0  0  0  0  0
  -30.1790  -17.2812   21.0650 C   0  0  0  0  0  0
  -28.1485  -25.0452   20.8005 C   0  0  0  0  0  0
  -29.6121  -22.7877   20.3385 N   0  0  0  0  0  0
  -31.1897  -21.3199   20.6076 N   0  3  0  0  0  0
  -29.8112  -15.8474   20.6795 N   0  0  0  0  0  0
  -31.4762  -12.5959   19.1453 H   0  0  0  0  0  0
  -30.4015  -11.4746   19.9367 H   0  0  0  0  0  0
  -29.7874  -11.7228   17.5101 H   0  0  0  0  0  0
  -29.6312  -13.4507   17.7028 H   0  0  0  0  0  0
  -27.8938  -11.2754   18.9098 H   0  0  0  0  0  0
  -27.3753  -12.5108   17.7951 H   0  0  0  0  0  0
  -27.6373  -14.2474   19.4640 H   0  0  0  0  0  0
  -28.7255  -12.1452   21.4020 H   0  0  0  0  0  0
  -28.4238  -13.8182   21.7945 H   0  0  0  0  0  0
  -25.2776   -9.5676   22.4760 H   0  0  0  0  0  0
  -24.0015   -7.4628   22.7468 H   0  0  0  0  0  0
  -21.0857   -8.8792   19.8953 H   0  0  0  0  0  0
  -22.3725  -10.9681   19.6171 H   0  0  0  0  0  0
  -21.2013   -7.6153   23.9726 H   0  0  0  0  0  0
  -21.1471   -6.0514   25.9074 H   0  0  0  0  0  0
  -22.0602   -2.7618   23.2828 H   0  0  0  0  0  0
  -22.4090  -11.9906   22.4837 H   0  0  0  0  0  0
  -21.1079  -13.1245   22.2588 H   0  0  0  0  0  0
  -24.6510  -15.8413   20.5196 H   0  0  0  0  0  0
  -26.2614  -15.6313   20.0561 H   0  0  0  0  0  0
  -26.7199  -32.5412   23.1072 H   0  0  0  0  0  0
  -25.0057  -33.9688   25.0393 H   0  0  0  0  0  0
  -22.7243  -31.2974   21.3923 H   0  0  0  0  0  0
  -23.3750  -35.9613   23.3302 H   0  0  0  0  0  0
  -24.3579  -36.8905   22.2058 H   0  0  0  0  0  0
  -23.7241  -37.6485   23.6664 H   0  0  0  0  0  0
  -26.1046  -31.5336   20.6020 H   0  0  0  0  0  0
  -26.8507  -30.8261   22.0032 H   0  0  0  0  0  0
  -28.1296  -28.9485   21.1881 H   0  0  0  0  0  0
  -25.9937  -25.8795   19.0427 H   0  0  0  0  0  0
  -23.9749  -27.2830   19.0248 H   0  0  0  0  0  0
  -23.7699  -30.5778   19.3999 H   0  0  0  0  0  0
  -22.7649  -29.2353   19.8552 H   0  0  0  0  0  0
  -25.1294  -36.1919   25.0822 H   0  0  0  0  0  0
  -20.9989  -28.3274   24.1396 H   0  0  0  0  0  0
  -20.5686  -26.2305   23.3616 H   0  0  0  0  0  0
  -21.6646  -26.7443   22.1203 H   0  0  0  0  0  0
  -19.6911  -25.6296   21.1248 H   0  0  0  0  0  0
  -19.6690  -27.3196   20.6749 H   0  0  0  0  0  0
  -17.4204  -26.6691   21.4026 H   0  0  0  0  0  0
  -18.0325  -26.0073   22.9024 H   0  0  0  0  0  0
  -19.7940  -30.7275   24.2274 H   0  0  0  0  0  0
  -17.5018  -31.6273   24.5157 H   0  0  0  0  0  0
  -15.5355  -30.2986   23.7655 H   0  0  0  0  0  0
  -15.8683  -28.0815   22.7081 H   0  0  0  0  0  0
  -24.5885  -30.7092   25.7760 H   0  0  0  0  0  0
  -24.8911  -32.2908   26.4848 H   0  0  0  0  0  0
  -25.8023  -30.8917   27.0221 H   0  0  0  0  0  0
  -26.2938  -29.6747   24.1207 H   0  0  0  0  0  0
  -27.4033  -29.7269   25.4709 H   0  0  0  0  0  0
  -27.8807  -30.4292   23.9436 H   0  0  0  0  0  0
  -27.2664  -33.3622   26.2057 H   0  0  0  0  0  0
  -28.3861  -32.6878   25.0312 H   0  0  0  0  0  0
  -28.0721  -31.8451   26.5404 H   0  0  0  0  0  0
  -28.2598  -38.0091   24.7506 H   0  0  0  0  0  0
  -28.1070  -36.2622   24.6299 H   0  0  0  0  0  0
  -27.2296  -37.1454   25.8873 H   0  0  0  0  0  0
  -20.9397  -29.8751   21.6858 H   0  0  0  0  0  0
  -26.0169  -38.2841   24.1407 H   0  0  0  0  0  0
  -30.8793  -24.5310   20.3028 H   0  0  0  0  0  0
  -33.6004  -23.6890   20.4384 H   0  0  0  0  0  0
  -33.8240  -21.9542   20.1700 H   0  0  0  0  0  0
  -33.5566  -22.5708   21.8068 H   0  0  0  0  0  0
  -28.2034  -20.2698   19.8073 H   0  0  0  0  0  0
  -28.5149  -20.1310   21.5078 H   0  0  0  0  0  0
  -28.6242  -18.2036   20.3785 H   0  0  0  0  0  0
  -30.2535  -19.0150   21.0414 H   0  0  0  0  0  0
  -28.2038  -23.6812   19.0202 H   0  0  0  0  0  0
  -27.5182  -22.9432   20.4351 H   0  0  0  0  0  0
  -29.8675  -17.3567   22.1113 H   0  0  0  0  0  0
  -31.2730  -17.3067   21.0982 H   0  0  0  0  0  0
  -28.7951  -25.0631   21.6782 H   0  0  0  0  0  0
  -27.1500  -25.0319   21.2391 H   0  0  0  0  0  0
  -31.6736  -20.4386   20.7328 H   0  0  0  0  0  0
  -28.8293  -15.6287   20.7599 H   0  0  0  0  0  0
  1 25  1  0  0  0
  1 30  2  0  0  0
  1 82  1  0  0  0
  2  3  1  0  0  0
  2 25  1  0  0  0
  2 83  1  0  0  0
  2 84  1  0  0  0
  3  4  1  0  0  0
  3 85  1  0  0  0
  3 86  1  0  0  0
  4  5  1  0  0  0
  4 87  1  0  0  0
  4 88  1  0  0  0
  5  6  1  0  0  0
  5 26  1  0  0  0
  5 89  1  0  0  0
  6 25  1  0  0  0
  6 90  1  0  0  0
  6 91  1  0  0  0
  7  8  2  0  0  0
  7 26  1  0  0  0
  7 29  1  0  0  0
  8  9  1  0  0  0
  8 22  1  0  0  0
  9 10  1  0  0  0
  9 27  2  0  0  0
 10 11  2  0  0  0
 10 15  1  0  0  0
 11 12  1  0  0  0
 11 92  1  0  0  0
 12 13  2  0  0  0
 12 93  1  0  0  0
 13 14  1  0  0  0
 13 31  1  0  0  0
 14 15  2  0  0  0
 14 94  1  0  0  0
 15 95  1  0  0  0
 16 17  2  0  0  0
 16 21  1  0  0  0
 16 31  1  0  0  0
 17 18  1  0  0  0
 17 96  1  0  0  0
 18 19  2  0  0  0
 18 97  1  0  0  0
 19 20  1  0  0  0
 19 24  1  0  0  0
 20 21  2  0  0  0
 20 98  1  0  0  0
 21 23  1  0  0  0
 22 28  1  0  0  0
 22 32  2  0  0  0
 26 27  1  0  0  0
 28 99  1  0  0  0
 28100  1  0  0  0
 29101  1  0  0  0
 29102  1  0  0  0
 33 34  1  0  0  0
 33 66  1  0  0  0
 33 70  2  0  0  0
 34 36  1  0  0  0
 34 59  1  0  0  0
 34103  1  0  0  0
 35 44  2  0  0  0
 35 45  1  0  0  0
 35 68  1  0  0  0
 36 56  1  0  0  0
 36104  1  0  0  0
 37 39  1  0  0  0
 37 47  1  0  0  0
 37 66  1  0  0  0
 37105  1  0  0  0
 38 43  2  0  0  0
 38 46  1  0  0  0
 38 47  1  0  0  0
 39 64  1  0  0  0
 39 67  2  0  0  0
 40 52  1  0  0  0
 40 53  2  0  0  0
 40 58  1  0  0  0
 41106  1  0  0  0
 41107  1  0  0  0
 41108  1  0  0  0
 41 48  1  0  0  0
 42 43  1  0  0  0
 42 66  1  0  0  0
 42109  1  0  0  0
 42110  1  0  0  0
 43 44  1  0  0  0
 44111  1  0  0  0
 45 46  2  0  0  0
 45112  1  0  0  0
 46113  1  0  0  0
 47114  1  0  0  0
 47115  1  0  0  0
 48 56  1  0  0  0
 48 65  1  0  0  0
 48116  1  0  0  0
 49 50  1  0  0  0
 49 53  1  0  0  0
 49 64  1  0  0  0
 49117  1  0  0  0
 50 51  1  0  0  0
 50118  1  0  0  0
 50119  1  0  0  0
 51 52  1  0  0  0
 51120  1  0  0  0
 51121  1  0  0  0
 52122  1  0  0  0
 52123  1  0  0  0
 53 54  1  0  0  0
 54 55  2  0  0  0
 54124  1  0  0  0
 55 57  1  0  0  0
 55125  1  0  0  0
 56 69  2  0  0  0
 57 58  2  0  0  0
 57126  1  0  0  0
 58127  1  0  0  0
 59 60  1  0  0  0
 59 61  1  0  0  0
 59 62  1  0  0  0
 60128  1  0  0  0
 60129  1  0  0  0
 60130  1  0  0  0
 61131  1  0  0  0
 61132  1  0  0  0
 61133  1  0  0  0
 62134  1  0  0  0
 62135  1  0  0  0
 62136  1  0  0  0
 63 65  1  0  0  0
 63137  1  0  0  0
 63138  1  0  0  0
 63139  1  0  0  0
 64140  1  0  0  0
 65141  1  0  0  0
 68 79  1  0  0  0
 71 72  2  0  0  0
 71 80  1  0  0  0
 71142  1  0  0  0
 72 74  1  0  0  0
 72 81  1  0  0  0
 73 75  1  0  0  0
 73 80  1  0  0  0
 73 81  2  0  0  0
 74143  1  0  0  0
 74144  1  0  0  0
 74145  1  0  0  0
 75 76  1  0  0  0
 75146  1  0  0  0
 75147  1  0  0  0
 76 78  1  0  0  0
 76148  1  0  0  0
 76149  1  0  0  0
 77 79  1  0  0  0
 77 80  1  0  0  0
 77150  1  0  0  0
 77151  1  0  0  0
 78 82  1  0  0  0
 78152  1  0  0  0
 78153  1  0  0  0
 79154  1  0  0  0
 79155  1  0  0  0
 81156  1  0  0  0
 82157  1  0  0  0
M  CHG  1  81   1
M  ISO  4   1 100  68 101  79 101  82 100
M  END
> <chiral flag>
0

> <version>
0

> <s_m_source_file>
/data/baiqing/PycharmProjects/Reinvent-master-3.2/result/LINK_invent/BTK/process_docking_weight1_custom_sum_contain_oxygen_bond_distance_aromatic_linkinvent_7_9_3/rearranged_h_0084.sdf

> <i_m_source_file_index>
62

> <r_mmod_Potential_Energy-OPLS-2005>
388.538146972656

> <r_mmod_Stretch_Energy-OPLS-2005>
132.345138549805

> <r_mmod_Bend_Energy-OPLS-2005>
426.829620361328

> <r_mmod_Torsional_Energy-OPLS-2005>
254.109619140625

> <r_mmod_Improper_Torsional_Energy-OPLS-2005>
4.6938624382019

> <r_mmod_Van_der_Waal_Energy-OPLS-2005>
123.753868103027

> <r_mmod_Electrostatic_Energy-OPLS-2005>
-212.710205078125

> <r_mmod_Solvation_Energy-OPLS-2005>
-420.624450683594

> <b_mmod_Minimization_Converged-OPLS-2005>
0

> <r_mmod_RMS_Derivative-OPLS-2005>
1.12862539291382

$$$$
62
                    3D
 Structure written by MMmdl.
157165  0  0  1  0            999 V2000
  -30.6144  -14.7344   20.4598 C   0  0  0  0  0  0
  -30.4298  -12.4472   19.4782 C   0  0  0  0  0  0
  -29.5110  -12.5035   18.2388 C   0  0  0  0  0  0
  -28.0354  -12.3330   18.6495 C   0  0  0  0  0  0
  -27.6418  -13.2318   19.8525 C   0  0  2  0  0  0
  -28.6844  -13.1634   20.9894 C   0  0  0  0  0  0
  -25.2510  -13.8200   20.5702 C   0  0  0  0  0  0
  -24.1798  -13.0445   20.9212 C   0  0  0  0  0  0
  -24.6385  -11.6924   20.8747 C   0  0  0  0  0  0
  -23.9061  -10.4299   21.0405 C   0  0  0  0  0  0
  -24.3614   -9.4210   21.9180 C   0  0  0  0  0  0
  -23.6294   -8.2242   22.0745 C   0  0  0  0  0  0
  -22.4278   -8.0277   21.3535 C   0  0  0  0  0  0
  -21.9911   -9.0251   20.4637 C   0  0  0  0  0  0
  -22.7234  -10.2135   20.3050 C   0  0  0  0  0  0
  -21.6856   -6.0733   22.5274 C   0  0  0  0  0  0
  -21.4018   -6.5635   23.8209 C   0  0  0  0  0  0
  -21.3664   -5.6786   24.9170 C   0  0  0  0  0  0
  -21.6044   -4.3048   24.7217 C   0  0  0  0  0  0
  -21.8821   -3.8143   23.4337 C   0  0  0  0  0  0
  -21.9196   -4.6961   22.3397 C   0  0  0  0  0  0
  -22.7819  -13.5227   21.1873 C   0  0  0  0  0  0
  -22.1663   -4.2147   21.0973 F   0  0  0  0  0  0
  -21.5629   -3.4534   25.7731 F   0  0  0  0  0  0
  -29.9860  -13.5112   20.4081 N   0  0  0  0  0  0
  -26.2932  -12.9406   20.3281 N   0  0  0  0  0  0
  -25.9314  -11.6547   20.5748 N   0  0  0  0  0  0
  -22.0467  -12.8213   22.0427 N   0  0  0  0  0  0
  -25.4206  -15.1926   20.4124 N   0  0  0  0  0  0
  -31.8017  -14.8272   20.1384 O   0  0  0  0  0  0
  -21.6640   -6.8876   21.4235 O   0  0  0  0  0  0
  -22.3503  -14.5533   20.6723 O   0  0  0  0  0  0
  -24.6323  -31.8561   23.1993 C   0  0  0  0  0  0
  -25.9147  -32.4761   23.8341 C   0  0  1  0  0  0
  -27.2144  -27.2575   20.1274 C   0  0  0  0  0  0
  -25.5945  -33.8563   24.2265 N   0  0  0  0  0  0
  -23.4285  -30.4814   21.5421 C   0  0  2  0  0  0
  -24.8743  -28.9293   20.1102 C   0  0  0  0  0  0
  -22.7506  -29.4619   22.4897 C   0  0  0  0  0  0
  -18.0296  -28.1393   22.8479 C   0  0  0  0  0  0
  -24.1491  -36.7283   23.2641 C   0  0  0  0  0  0
  -25.9762  -30.7679   21.3802 C   0  0  0  0  0  0
  -26.0477  -29.3911   20.7198 C   0  0  0  0  0  0
  -27.2215  -28.5689   20.7156 C   0  0  0  0  0  0
  -26.0154  -26.8664   19.4887 C   0  0  0  0  0  0
  -24.8636  -27.6752   19.4842 C   0  0  0  0  0  0
  -23.6478  -29.8197   20.1570 C   0  0  0  0  0  0
  -25.4118  -36.3073   24.0327 C   0  0  1  0  0  0
  -20.5902  -28.3711   23.1255 C   0  0  2  0  0  0
  -20.6788  -26.9428   22.5402 C   0  0  0  0  0  0
  -19.5763  -26.6385   21.5210 C   0  0  0  0  0  0
  -18.1943  -26.7934   22.1620 C   0  0  0  0  0  0
  -19.1551  -28.8866   23.2866 C   0  0  0  0  0  0
  -18.9472  -30.1462   23.8893 C   0  0  0  0  0  0
  -17.6472  -30.6592   24.0562 C   0  0  0  0  0  0
  -25.9058  -34.9442   23.5098 C   0  0  0  0  0  0
  -16.5361  -29.9091   23.6327 C   0  0  0  0  0  0
  -16.7285  -28.6508   23.0349 C   0  0  0  0  0  0
  -26.4506  -31.6585   25.0732 C   0  0  0  0  0  0
  -25.3721  -31.3736   26.1445 C   0  0  0  0  0  0
  -27.0362  -30.3005   24.6222 C   0  0  0  0  0  0
  -27.6063  -32.4323   25.7510 C   0  0  0  0  0  0
  -27.5579  -37.1801   24.8464 C   0  0  0  0  0  0
  -21.4214  -29.3060   22.3639 N   0  0  0  0  0  0
  -26.4291  -37.3772   23.9409 N   0  0  0  0  0  0
  -24.6982  -31.0528   22.0968 N   0  0  0  0  0  0
  -23.4208  -28.8153   23.2992 O   0  0  0  0  0  0
  -28.3038  -26.3530   20.1863 O   0  0  0  0  0  0
  -26.5624  -34.8917   22.4663 O   0  0  0  0  0  0
  -23.5470  -32.1386   23.7285 O   0  0  0  0  0  0
  -29.1830  -20.6289   17.3695 C   0  0  0  0  0  0
  -29.0772  -21.6629   18.2394 C   0  0  0  0  0  0
  -29.2256  -19.4215   18.1091 C   0  0  0  0  0  0
  -29.2411  -19.7273   19.4564 C   0  0  0  0  0  0
  -29.2110  -18.0604   17.4536 C   0  0  0  0  0  0
  -29.2821  -18.6042   20.5634 C   0  0  0  0  0  0
  -29.1609  -23.7665   20.4385 C   0  0  0  0  0  0
  -28.8428  -22.1732   20.6558 C   0  0  0  0  0  0
  -30.2924  -17.3285   20.4037 C   0  0  0  0  0  0
  -28.0307  -24.8712   20.0992 C   0  0  0  0  0  0
  -29.0772  -21.1801   19.5368 N   0  0  0  0  0  0
  -29.8539  -15.8798   20.6484 N   0  0  0  0  0  0
  -31.4722  -12.5656   19.1779 H   0  0  0  0  0  0
  -30.3682  -11.4710   19.9611 H   0  0  0  0  0  0
  -29.7927  -11.7279   17.5253 H   0  0  0  0  0  0
  -29.6431  -13.4568   17.7248 H   0  0  0  0  0  0
  -27.8864  -11.2849   18.9105 H   0  0  0  0  0  0
  -27.3812  -12.5286   17.7997 H   0  0  0  0  0  0
  -27.6383  -14.2543   19.4742 H   0  0  0  0  0  0
  -28.7156  -12.1663   21.4319 H   0  0  0  0  0  0
  -28.4211  -13.8492   21.7966 H   0  0  0  0  0  0
  -25.2759   -9.5696   22.4749 H   0  0  0  0  0  0
  -24.0006   -7.4639   22.7465 H   0  0  0  0  0  0
  -21.0840   -8.8769   19.8944 H   0  0  0  0  0  0
  -22.3688  -10.9672   19.6156 H   0  0  0  0  0  0
  -21.2011   -7.6145   23.9715 H   0  0  0  0  0  0
  -21.1486   -6.0511   25.9074 H   0  0  0  0  0  0
  -22.0600   -2.7603   23.2835 H   0  0  0  0  0  0
  -22.4086  -11.9873   22.4812 H   0  0  0  0  0  0
  -21.1081  -13.1229   22.2631 H   0  0  0  0  0  0
  -24.6522  -15.8450   20.5230 H   0  0  0  0  0  0
  -26.2611  -15.6299   20.0578 H   0  0  0  0  0  0
  -26.7214  -32.5407   23.1083 H   0  0  0  0  0  0
  -25.0096  -33.9700   25.0414 H   0  0  0  0  0  0
  -22.7257  -31.3046   21.3978 H   0  0  0  0  0  0
  -23.3757  -35.9610   23.3297 H   0  0  0  0  0  0
  -24.3584  -36.8911   22.2056 H   0  0  0  0  0  0
  -23.7237  -37.6480   23.6667 H   0  0  0  0  0  0
  -26.1174  -31.5294   20.6120 H   0  0  0  0  0  0
  -26.8528  -30.8147   22.0146 H   0  0  0  0  0  0
  -28.1179  -28.9162   21.2100 H   0  0  0  0  0  0
  -25.9323  -25.9095   18.9968 H   0  0  0  0  0  0
  -23.9645  -27.3164   19.0020 H   0  0  0  0  0  0
  -23.7803  -30.5997   19.4059 H   0  0  0  0  0  0
  -22.7638  -29.2605   19.8453 H   0  0  0  0  0  0
  -25.1299  -36.1924   25.0820 H   0  0  0  0  0  0
  -21.0001  -28.3301   24.1374 H   0  0  0  0  0  0
  -20.5691  -26.2328   23.3613 H   0  0  0  0  0  0
  -21.6655  -26.7454   22.1196 H   0  0  0  0  0  0
  -19.6927  -25.6291   21.1253 H   0  0  0  0  0  0
  -19.6701  -27.3182   20.6730 H   0  0  0  0  0  0
  -17.4213  -26.6676   21.4025 H   0  0  0  0  0  0
  -18.0351  -26.0082   22.9024 H   0  0  0  0  0  0
  -19.7949  -30.7274   24.2272 H   0  0  0  0  0  0
  -17.5028  -31.6272   24.5165 H   0  0  0  0  0  0
  -15.5364  -30.2995   23.7649 H   0  0  0  0  0  0
  -15.8686  -28.0824   22.7068 H   0  0  0  0  0  0
  -24.5898  -30.7088   25.7763 H   0  0  0  0  0  0
  -24.8905  -32.2904   26.4857 H   0  0  0  0  0  0
  -25.8023  -30.8916   27.0231 H   0  0  0  0  0  0
  -26.2952  -29.6747   24.1231 H   0  0  0  0  0  0
  -27.4033  -29.7276   25.4747 H   0  0  0  0  0  0
  -27.8835  -30.4291   23.9483 H   0  0  0  0  0  0
  -27.2679  -33.3633   26.2073 H   0  0  0  0  0  0
  -28.3883  -32.6865   25.0341 H   0  0  0  0  0  0
  -28.0720  -31.8452   26.5436 H   0  0  0  0  0  0
  -28.2592  -38.0102   24.7513 H   0  0  0  0  0  0
  -28.1079  -36.2632   24.6288 H   0  0  0  0  0  0
  -27.2296  -37.1449   25.8866 H   0  0  0  0  0  0
  -20.9399  -29.8796   21.6852 H   0  0  0  0  0  0
  -26.0170  -38.2847   24.1407 H   0  0  0  0  0  0
  -29.1740  -20.7281   16.2921 H   0  0  0  0  0  0
  -28.9658  -22.7179   18.0277 H   0  0  0  0  0  0
  -30.2219  -17.7373   17.2057 H   0  0  0  0  0  0
  -28.6385  -18.0956   16.5265 H   0  0  0  0  0  0
  -28.7431  -17.3088   18.0899 H   0  0  0  0  0  0
  -28.2700  -18.2107   20.6587 H   0  0  0  0  0  0
  -29.4784  -19.0738   21.5279 H   0  0  0  0  0  0
  -29.9871  -23.8781   19.7370 H   0  0  0  0  0  0
  -29.5854  -24.0971   21.3867 H   0  0  0  0  0  0
  -27.8115  -22.0597   20.9913 H   0  0  0  0  0  0
  -29.4529  -21.8284   21.4912 H   0  0  0  0  0  0
  -31.1408  -17.5112   21.0639 H   0  0  0  0  0  0
  -30.7471  -17.3508   19.4164 H   0  0  0  0  0  0
  -27.1862  -24.6651   20.7578 H   0  0  0  0  0  0
  -27.6856  -24.6515   19.0890 H   0  0  0  0  0  0
  -28.8812  -15.7323   20.8722 H   0  0  0  0  0  0
  1 25  1  0  0  0
  1 30  2  0  0  0
  1 82  1  0  0  0
  2  3  1  0  0  0
  2 25  1  0  0  0
  2 83  1  0  0  0
  2 84  1  0  0  0
  3  4  1  0  0  0
  3 85  1  0  0  0
  3 86  1  0  0  0
  4  5  1  0  0  0
  4 87  1  0  0  0
  4 88  1  0  0  0
  5  6  1  0  0  0
  5 26  1  0  0  0
  5 89  1  0  0  0
  6 25  1  0  0  0
  6 90  1  0  0  0
  6 91  1  0  0  0
  7  8  2  0  0  0
  7 26  1  0  0  0
  7 29  1  0  0  0
  8  9  1  0  0  0
  8 22  1  0  0  0
  9 10  1  0  0  0
  9 27  2  0  0  0
 10 11  2  0  0  0
 10 15  1  0  0  0
 11 12  1  0  0  0
 11 92  1  0  0  0
 12 13  2  0  0  0
 12 93  1  0  0  0
 13 14  1  0  0  0
 13 31  1  0  0  0
 14 15  2  0  0  0
 14 94  1  0  0  0
 15 95  1  0  0  0
 16 17  2  0  0  0
 16 21  1  0  0  0
 16 31  1  0  0  0
 17 18  1  0  0  0
 17 96  1  0  0  0
 18 19  2  0  0  0
 18 97  1  0  0  0
 19 20  1  0  0  0
 19 24  1  0  0  0
 20 21  2  0  0  0
 20 98  1  0  0  0
 21 23  1  0  0  0
 22 28  1  0  0  0
 22 32  2  0  0  0
 26 27  1  0  0  0
 28 99  1  0  0  0
 28100  1  0  0  0
 29101  1  0  0  0
 29102  1  0  0  0
 33 34  1  0  0  0
 33 66  1  0  0  0
 33 70  2  0  0  0
 34 36  1  0  0  0
 34 59  1  0  0  0
 34103  1  0  0  0
 35 44  2  0  0  0
 35 45  1  0  0  0
 35 68  1  0  0  0
 36 56  1  0  0  0
 36104  1  0  0  0
 37 39  1  0  0  0
 37 47  1  0  0  0
 37 66  1  0  0  0
 37105  1  0  0  0
 38 43  2  0  0  0
 38 46  1  0  0  0
 38 47  1  0  0  0
 39 64  1  0  0  0
 39 67  2  0  0  0
 40 52  1  0  0  0
 40 53  2  0  0  0
 40 58  1  0  0  0
 41106  1  0  0  0
 41107  1  0  0  0
 41108  1  0  0  0
 41 48  1  0  0  0
 42 43  1  0  0  0
 42 66  1  0  0  0
 42109  1  0  0  0
 42110  1  0  0  0
 43 44  1  0  0  0
 44111  1  0  0  0
 45 46  2  0  0  0
 45112  1  0  0  0
 46113  1  0  0  0
 47114  1  0  0  0
 47115  1  0  0  0
 48 56  1  0  0  0
 48 65  1  0  0  0
 48116  1  0  0  0
 49 50  1  0  0  0
 49 53  1  0  0  0
 49 64  1  0  0  0
 49117  1  0  0  0
 50 51  1  0  0  0
 50118  1  0  0  0
 50119  1  0  0  0
 51 52  1  0  0  0
 51120  1  0  0  0
 51121  1  0  0  0
 52122  1  0  0  0
 52123  1  0  0  0
 53 54  1  0  0  0
 54 55  2  0  0  0
 54124  1  0  0  0
 55 57  1  0  0  0
 55125  1  0  0  0
 56 69  2  0  0  0
 57 58  2  0  0  0
 57126  1  0  0  0
 58127  1  0  0  0
 59 60  1  0  0  0
 59 61  1  0  0  0
 59 62  1  0  0  0
 60128  1  0  0  0
 60129  1  0  0  0
 60130  1  0  0  0
 61131  1  0  0  0
 61132  1  0  0  0
 61133  1  0  0  0
 62134  1  0  0  0
 62135  1  0  0  0
 62136  1  0  0  0
 63 65  1  0  0  0
 63137  1  0  0  0
 63138  1  0  0  0
 63139  1  0  0  0
 64140  1  0  0  0
 65141  1  0  0  0
 68 80  1  0  0  0
 71 72  2  0  0  0
 71 73  1  0  0  0
 71142  1  0  0  0
 72 81  1  0  0  0
 72143  1  0  0  0
 73 74  2  0  0  0
 73 75  1  0  0  0
 74 76  1  0  0  0
 74 81  1  0  0  0
 75144  1  0  0  0
 75145  1  0  0  0
 75146  1  0  0  0
 76 79  1  0  0  0
 76147  1  0  0  0
 76148  1  0  0  0
 77 78  1  0  0  0
 77 80  1  0  0  0
 77149  1  0  0  0
 77150  1  0  0  0
 78 81  1  0  0  0
 78151  1  0  0  0
 78152  1  0  0  0
 79 82  1  0  0  0
 79153  1  0  0  0
 79154  1  0  0  0
 80155  1  0  0  0
 80156  1  0  0  0
 82157  1  0  0  0
M  ISO  4   1 100  68 101  80 101  82 100
M  END
> <chiral flag>
0

> <version>
0

> <s_m_source_file>
/data/baiqing/PycharmProjects/Reinvent-master-3.2/result/LINK_invent/BTK/process_docking_weight1_custom_sum_contain_oxygen_bond_distance_aromatic_linkinvent_7_9_3/rearranged_h_0084.sdf

> <i_m_source_file_index>
63

> <r_mmod_Potential_Energy-OPLS-2005>
161.321151733398

> <r_mmod_Stretch_Energy-OPLS-2005>
136.751312255859

> <r_mmod_Bend_Energy-OPLS-2005>
191.698989868164

> <r_mmod_Torsional_Energy-OPLS-2005>
242.338638305664

> <r_mmod_Improper_Torsional_Energy-OPLS-2005>
5.92174386978149

> <r_mmod_Van_der_Waal_Energy-OPLS-2005>
120.263893127441

> <r_mmod_Electrostatic_Energy-OPLS-2005>
-401.798858642578

> <r_mmod_Solvation_Energy-OPLS-2005>
-218.933868408203

> <b_mmod_Minimization_Converged-OPLS-2005>
0

> <r_mmod_RMS_Derivative-OPLS-2005>
0.876628339290619

$$$$
63
                    3D
 Structure written by MMmdl.
166174  0  0  1  0            999 V2000
  -30.6836  -14.4915   20.5834 C   0  0  0  0  0  0
  -30.4298  -12.3187   19.4248 C   0  0  0  0  0  0
  -29.4982  -12.4985   18.2070 C   0  0  0  0  0  0
  -28.0200  -12.3550   18.6258 C   0  0  0  0  0  0
  -27.6606  -13.2073   19.8755 C   0  0  2  0  0  0
  -28.7008  -12.9886   20.9997 C   0  0  0  0  0  0
  -25.2586  -13.8167   20.5673 C   0  0  0  0  0  0
  -24.1827  -13.0431   20.9159 C   0  0  0  0  0  0
  -24.6376  -11.6892   20.8696 C   0  0  0  0  0  0
  -23.9061  -10.4295   21.0380 C   0  0  0  0  0  0
  -24.3619   -9.4204   21.9156 C   0  0  0  0  0  0
  -23.6274   -8.2251   22.0748 C   0  0  0  0  0  0
  -22.4253   -8.0294   21.3563 C   0  0  0  0  0  0
  -21.9907   -9.0253   20.4651 C   0  0  0  0  0  0
  -22.7236  -10.2129   20.3021 C   0  0  0  0  0  0
  -21.6867   -6.0722   22.5274 C   0  0  0  0  0  0
  -21.4013   -6.5626   23.8213 C   0  0  0  0  0  0
  -21.3651   -5.6777   24.9177 C   0  0  0  0  0  0
  -21.6043   -4.3044   24.7227 C   0  0  0  0  0  0
  -21.8822   -3.8130   23.4356 C   0  0  0  0  0  0
  -21.9189   -4.6942   22.3410 C   0  0  0  0  0  0
  -22.7837  -13.5208   21.1814 C   0  0  0  0  0  0
  -22.1649   -4.2136   21.0982 F   0  0  0  0  0  0
  -21.5626   -3.4518   25.7743 F   0  0  0  0  0  0
  -30.0316  -13.3018   20.4502 N   0  0  0  0  0  0
  -26.3019  -12.9340   20.3365 N   0  0  0  0  0  0
  -25.9311  -11.6510   20.5753 N   0  0  0  0  0  0
  -22.0500  -12.8219   22.0405 N   0  0  0  0  0  0
  -25.4308  -15.1877   20.4163 N   0  0  0  0  0  0
  -31.7839  -14.7195   20.0779 O   0  0  0  0  0  0
  -21.6618   -6.8881   21.4253 O   0  0  0  0  0  0
  -22.3533  -14.5553   20.6710 O   0  0  0  0  0  0
  -24.6203  -31.8634   23.2079 C   0  0  0  0  0  0
  -25.9068  -32.4792   23.8387 C   0  0  1  0  0  0
  -27.2251  -27.3974   20.1095 C   0  0  0  0  0  0
  -25.5921  -33.8600   24.2322 N   0  0  0  0  0  0
  -23.4096  -30.4863   21.5513 C   0  0  2  0  0  0
  -24.8535  -28.9475   20.1162 C   0  0  0  0  0  0
  -22.7456  -29.4606   22.5021 C   0  0  0  0  0  0
  -18.0320  -28.1355   22.8555 C   0  0  0  0  0  0
  -24.1484  -36.7294   23.2642 C   0  0  0  0  0  0
  -25.9431  -30.8184   21.3664 C   0  0  0  0  0  0
  -26.0198  -29.4529   20.7069 C   0  0  0  0  0  0
  -27.2145  -28.6891   20.6914 C   0  0  0  0  0  0
  -26.0442  -26.9100   19.5178 C   0  0  0  0  0  0
  -24.8639  -27.6806   19.5102 C   0  0  0  0  0  0
  -23.6178  -29.8189   20.1668 C   0  0  0  0  0  0
  -25.4107  -36.3099   24.0342 C   0  0  1  0  0  0
  -20.5931  -28.3567   23.1341 C   0  0  2  0  0  0
  -20.6813  -26.9314   22.5406 C   0  0  0  0  0  0
  -19.5775  -26.6378   21.5192 C   0  0  0  0  0  0
  -18.1953  -26.7913   22.1638 C   0  0  0  0  0  0
  -19.1595  -28.8783   23.2954 C   0  0  0  0  0  0
  -18.9588  -30.1402   23.8939 C   0  0  0  0  0  0
  -17.6621  -30.6612   24.0569 C   0  0  0  0  0  0
  -25.9041  -34.9464   23.5117 C   0  0  0  0  0  0
  -16.5464  -29.9126   23.6401 C   0  0  0  0  0  0
  -16.7311  -28.6508   23.0451 C   0  0  0  0  0  0
  -26.4492  -31.6588   25.0738 C   0  0  0  0  0  0
  -25.3737  -31.3703   26.1471 C   0  0  0  0  0  0
  -27.0347  -30.3023   24.6162 C   0  0  0  0  0  0
  -27.6054  -32.4337   25.7497 C   0  0  0  0  0  0
  -27.5577  -37.1797   24.8469 C   0  0  0  0  0  0
  -21.4185  -29.3017   22.3811 N   0  0  0  0  0  0
  -26.4291  -37.3786   23.9406 N   0  0  0  0  0  0
  -24.6756  -31.0723   22.0987 N   0  0  0  0  0  0
  -23.4216  -28.8089   23.3011 O   0  0  0  0  0  0
  -28.3579  -26.6043   20.0985 O   0  0  0  0  0  0
  -26.5612  -34.8928   22.4687 O   0  0  0  0  0  0
  -23.5380  -32.1390   23.7471 O   0  0  0  0  0  0
  -28.8398  -20.4639   21.2681 C   0  0  0  0  0  0
  -27.8505  -21.4716   21.0904 C   0  0  0  0  0  0
  -28.4718  -19.0926   21.1234 C   0  0  0  0  0  0
  -26.5565  -21.0129   20.7268 C   0  0  0  0  0  0
  -23.8544  -20.7176   22.4352 C   0  0  0  0  0  0
  -30.6684  -18.3292   22.2468 C   0  0  0  0  0  0
  -28.1194  -22.9385   21.5020 C   0  0  0  0  0  0
  -25.3333  -21.9162   20.6670 C   0  0  0  0  0  0
  -24.5832  -22.0059   22.0112 C   0  0  0  0  0  0
  -28.2580  -24.0333   20.3943 C   0  0  0  0  0  0
  -29.5507  -16.7335   20.6038 C   0  0  0  0  0  0
  -28.3233  -25.4723   21.0037 C   0  0  0  0  0  0
  -29.3225  -17.8931   21.6338 C   0  0  1  0  0  0
  -27.2182  -18.7622   20.7331 N   0  0  0  0  0  0
  -26.2933  -19.6996   20.5099 N   0  0  0  0  0  0
  -30.0116  -15.4673   21.2282 N   0  0  0  0  0  0
  -31.4756  -12.4139   19.1233 H   0  0  0  0  0  0
  -30.3322  -11.3070   19.8221 H   0  0  0  0  0  0
  -29.7422  -11.7584   17.4417 H   0  0  0  0  0  0
  -29.6666  -13.4779   17.7532 H   0  0  0  0  0  0
  -27.8504  -11.2977   18.8415 H   0  0  0  0  0  0
  -27.3635  -12.5998   17.7939 H   0  0  0  0  0  0
  -27.7023  -14.2555   19.5734 H   0  0  0  0  0  0
  -28.6764  -11.9531   21.3473 H   0  0  0  0  0  0
  -28.4556  -13.5851   21.8794 H   0  0  0  0  0  0
  -25.2776   -9.5656   22.4727 H   0  0  0  0  0  0
  -23.9974   -7.4640   22.7467 H   0  0  0  0  0  0
  -21.0843   -8.8768   19.8956 H   0  0  0  0  0  0
  -22.3707  -10.9650   19.6117 H   0  0  0  0  0  0
  -21.2018   -7.6130   23.9724 H   0  0  0  0  0  0
  -21.1461   -6.0497   25.9089 H   0  0  0  0  0  0
  -22.0617   -2.7590   23.2850 H   0  0  0  0  0  0
  -22.4134  -11.9880   22.4786 H   0  0  0  0  0  0
  -21.1125  -13.1247   22.2591 H   0  0  0  0  0  0
  -24.6724  -15.8487   20.5515 H   0  0  0  0  0  0
  -26.2968  -15.6409   20.1527 H   0  0  0  0  0  0
  -26.7141  -32.5483   23.1141 H   0  0  0  0  0  0
  -25.0077  -33.9765   25.0472 H   0  0  0  0  0  0
  -22.7031  -31.3069   21.4153 H   0  0  0  0  0  0
  -23.3752  -35.9623   23.3324 H   0  0  0  0  0  0
  -24.3553  -36.8891   22.2051 H   0  0  0  0  0  0
  -23.7249  -37.6506   23.6646 H   0  0  0  0  0  0
  -26.0698  -31.5897   20.6059 H   0  0  0  0  0  0
  -26.8252  -30.8635   21.9921 H   0  0  0  0  0  0
  -28.1209  -29.0783   21.1358 H   0  0  0  0  0  0
  -26.0312  -25.9308   19.0665 H   0  0  0  0  0  0
  -23.9698  -27.2870   19.0467 H   0  0  0  0  0  0
  -23.7321  -30.5942   19.4084 H   0  0  0  0  0  0
  -22.7386  -29.2473   19.8682 H   0  0  0  0  0  0
  -25.1289  -36.1954   25.0839 H   0  0  0  0  0  0
  -21.0011  -28.3035   24.1474 H   0  0  0  0  0  0
  -20.5706  -26.2091   23.3522 H   0  0  0  0  0  0
  -21.6714  -26.7381   22.1227 H   0  0  0  0  0  0
  -19.6924  -25.6350   21.1100 H   0  0  0  0  0  0
  -19.6673  -27.3262   20.6785 H   0  0  0  0  0  0
  -17.4206  -26.6614   21.4063 H   0  0  0  0  0  0
  -18.0364  -26.0040   22.9015 H   0  0  0  0  0  0
  -19.8117  -30.7180   24.2255 H   0  0  0  0  0  0
  -17.5214  -31.6345   24.5044 H   0  0  0  0  0  0
  -15.5480  -30.3068   23.7689 H   0  0  0  0  0  0
  -15.8703  -28.0837   22.7175 H   0  0  0  0  0  0
  -24.5881  -30.7105   25.7773 H   0  0  0  0  0  0
  -24.8965  -32.2870   26.4952 H   0  0  0  0  0  0
  -25.8053  -30.8810   27.0208 H   0  0  0  0  0  0
  -26.2903  -29.6745   24.1249 H   0  0  0  0  0  0
  -27.4135  -29.7315   25.4652 H   0  0  0  0  0  0
  -27.8737  -30.4340   23.9321 H   0  0  0  0  0  0
  -27.2644  -33.3612   26.2112 H   0  0  0  0  0  0
  -28.3821  -32.6939   25.0292 H   0  0  0  0  0  0
  -28.0768  -31.8446   26.5371 H   0  0  0  0  0  0
  -28.2609  -38.0083   24.7504 H   0  0  0  0  0  0
  -28.1068  -36.2614   24.6317 H   0  0  0  0  0  0
  -27.2287  -37.1471   25.8874 H   0  0  0  0  0  0
  -20.9328  -29.8851   21.7126 H   0  0  0  0  0  0
  -26.0181  -38.2864   24.1406 H   0  0  0  0  0  0
  -29.8155  -20.7415   21.6330 H   0  0  0  0  0  0
  -23.3187  -20.8696   23.3760 H   0  0  0  0  0  0
  -24.5450  -19.8896   22.5884 H   0  0  0  0  0  0
  -23.1244  -20.4138   21.6815 H   0  0  0  0  0  0
  -31.3202  -18.7607   21.4870 H   0  0  0  0  0  0
  -31.1955  -17.4873   22.6962 H   0  0  0  0  0  0
  -30.5235  -19.0678   23.0330 H   0  0  0  0  0  0
  -29.0109  -22.9549   22.1282 H   0  0  0  0  0  0
  -27.3143  -23.2302   22.1755 H   0  0  0  0  0  0
  -24.6568  -21.5532   19.8930 H   0  0  0  0  0  0
  -25.6190  -22.9154   20.3503 H   0  0  0  0  0  0
  -25.2810  -22.3043   22.7960 H   0  0  0  0  0  0
  -23.8341  -22.7998   21.9449 H   0  0  0  0  0  0
  -27.4307  -23.9735   19.6876 H   0  0  0  0  0  0
  -29.1581  -23.8308   19.8157 H   0  0  0  0  0  0
  -30.2458  -17.0639   19.8285 H   0  0  0  0  0  0
  -28.6111  -16.5060   20.1013 H   0  0  0  0  0  0
  -29.2301  -25.5241   21.6043 H   0  0  0  0  0  0
  -27.5073  -25.5914   21.7203 H   0  0  0  0  0  0
  -28.7301  -17.4761   22.4529 H   0  0  0  0  0  0
  -30.3941  -15.6071   22.1533 H   0  0  0  0  0  0
  1 25  1  0  0  0
  1 30  2  0  0  0
  1 86  1  0  0  0
  2  3  1  0  0  0
  2 25  1  0  0  0
  2 87  1  0  0  0
  2 88  1  0  0  0
  3  4  1  0  0  0
  3 89  1  0  0  0
  3 90  1  0  0  0
  4  5  1  0  0  0
  4 91  1  0  0  0
  4 92  1  0  0  0
  5  6  1  0  0  0
  5 26  1  0  0  0
  5 93  1  0  0  0
  6 25  1  0  0  0
  6 94  1  0  0  0
  6 95  1  0  0  0
  7  8  2  0  0  0
  7 26  1  0  0  0
  7 29  1  0  0  0
  8  9  1  0  0  0
  8 22  1  0  0  0
  9 10  1  0  0  0
  9 27  2  0  0  0
 10 11  2  0  0  0
 10 15  1  0  0  0
 11 12  1  0  0  0
 11 96  1  0  0  0
 12 13  2  0  0  0
 12 97  1  0  0  0
 13 14  1  0  0  0
 13 31  1  0  0  0
 14 15  2  0  0  0
 14 98  1  0  0  0
 15 99  1  0  0  0
 16 17  2  0  0  0
 16 21  1  0  0  0
 16 31  1  0  0  0
 17 18  1  0  0  0
 17100  1  0  0  0
 18 19  2  0  0  0
 18101  1  0  0  0
 19 20  1  0  0  0
 19 24  1  0  0  0
 20 21  2  0  0  0
 20102  1  0  0  0
 21 23  1  0  0  0
 22 28  1  0  0  0
 22 32  2  0  0  0
 26 27  1  0  0  0
 28103  1  0  0  0
 28104  1  0  0  0
 29105  1  0  0  0
 29106  1  0  0  0
 33 34  1  0  0  0
 33 66  1  0  0  0
 33 70  2  0  0  0
 34 36  1  0  0  0
 34 59  1  0  0  0
 34107  1  0  0  0
 35 44  2  0  0  0
 35 45  1  0  0  0
 35 68  1  0  0  0
 36 56  1  0  0  0
 36108  1  0  0  0
 37 39  1  0  0  0
 37 47  1  0  0  0
 37 66  1  0  0  0
 37109  1  0  0  0
 38 43  2  0  0  0
 38 46  1  0  0  0
 38 47  1  0  0  0
 39 64  1  0  0  0
 39 67  2  0  0  0
 40 52  1  0  0  0
 40 53  2  0  0  0
 40 58  1  0  0  0
 41110  1  0  0  0
 41111  1  0  0  0
 41112  1  0  0  0
 41 48  1  0  0  0
 42 43  1  0  0  0
 42 66  1  0  0  0
 42113  1  0  0  0
 42114  1  0  0  0
 43 44  1  0  0  0
 44115  1  0  0  0
 45 46  2  0  0  0
 45116  1  0  0  0
 46117  1  0  0  0
 47118  1  0  0  0
 47119  1  0  0  0
 48 56  1  0  0  0
 48 65  1  0  0  0
 48120  1  0  0  0
 49 50  1  0  0  0
 49 53  1  0  0  0
 49 64  1  0  0  0
 49121  1  0  0  0
 50 51  1  0  0  0
 50122  1  0  0  0
 50123  1  0  0  0
 51 52  1  0  0  0
 51124  1  0  0  0
 51125  1  0  0  0
 52126  1  0  0  0
 52127  1  0  0  0
 53 54  1  0  0  0
 54 55  2  0  0  0
 54128  1  0  0  0
 55 57  1  0  0  0
 55129  1  0  0  0
 56 69  2  0  0  0
 57 58  2  0  0  0
 57130  1  0  0  0
 58131  1  0  0  0
 59 60  1  0  0  0
 59 61  1  0  0  0
 59 62  1  0  0  0
 60132  1  0  0  0
 60133  1  0  0  0
 60134  1  0  0  0
 61135  1  0  0  0
 61136  1  0  0  0
 61137  1  0  0  0
 62138  1  0  0  0
 62139  1  0  0  0
 62140  1  0  0  0
 63 65  1  0  0  0
 63141  1  0  0  0
 63142  1  0  0  0
 63143  1  0  0  0
 64144  1  0  0  0
 65145  1  0  0  0
 68 82  1  0  0  0
 71 72  2  0  0  0
 71 73  1  0  0  0
 71146  1  0  0  0
 72 74  1  0  0  0
 72 77  1  0  0  0
 73 83  1  0  0  0
 73 84  2  0  0  0
 74 78  1  0  0  0
 74 85  2  0  0  0
 75 79  1  0  0  0
 75147  1  0  0  0
 75148  1  0  0  0
 75149  1  0  0  0
 76150  1  0  0  0
 76151  1  0  0  0
 76152  1  0  0  0
 76 83  1  0  0  0
 77 80  1  0  0  0
 77153  1  0  0  0
 77154  1  0  0  0
 78 79  1  0  0  0
 78155  1  0  0  0
 78156  1  0  0  0
 79157  1  0  0  0
 79158  1  0  0  0
 80 82  1  0  0  0
 80159  1  0  0  0
 80160  1  0  0  0
 81 83  1  0  0  0
 81 86  1  0  0  0
 81161  1  0  0  0
 81162  1  0  0  0
 82163  1  0  0  0
 82164  1  0  0  0
 83165  1  0  0  0
 84 85  1  0  0  0
 86166  1  0  0  0
M  ISO  4   1 100  68 101  82 101  86 100
M  END
> <chiral flag>
0

> <version>
0

> <s_m_source_file>
/data/baiqing/PycharmProjects/Reinvent-master-3.2/result/LINK_invent/BTK/process_docking_weight1_custom_sum_contain_oxygen_bond_distance_aromatic_linkinvent_7_9_3/rearranged_h_0084.sdf

> <i_m_source_file_index>
64

> <r_mmod_Potential_Energy-OPLS-2005>
55.4651107788086

> <r_mmod_Stretch_Energy-OPLS-2005>
50.866268157959

> <r_mmod_Bend_Energy-OPLS-2005>
116.740180969238

> <r_mmod_Torsional_Energy-OPLS-2005>
295.958770751953

> <r_mmod_Improper_Torsional_Energy-OPLS-2005>
8.82949352264404

> <r_mmod_Van_der_Waal_Energy-OPLS-2005>
139.375793457031

> <r_mmod_Electrostatic_Energy-OPLS-2005>
-356.991851806641

> <r_mmod_Solvation_Energy-OPLS-2005>
-216.588745117188

> <b_mmod_Minimization_Converged-OPLS-2005>
0

> <r_mmod_RMS_Derivative-OPLS-2005>
5.66595840454102

$$$$
64
                    3D
 Structure written by MMmdl.
181189  0  0  1  0            999 V2000
  -30.6778  -14.3909   20.6693 C   0  0  0  0  0  0
  -30.4338  -12.2764   19.4157 C   0  0  0  0  0  0
  -29.5087  -12.5291   18.2058 C   0  0  0  0  0  0
  -28.0201  -12.3900   18.6028 C   0  0  0  0  0  0
  -27.6730  -13.1946   19.8824 C   0  0  2  0  0  0
  -28.6954  -12.8711   20.9899 C   0  0  0  0  0  0
  -25.2650  -13.8098   20.5659 C   0  0  0  0  0  0
  -24.1858  -13.0404   20.9198 C   0  0  0  0  0  0
  -24.6415  -11.6869   20.8719 C   0  0  0  0  0  0
  -23.9062  -10.4263   21.0410 C   0  0  0  0  0  0
  -24.3586   -9.4177   21.9211 C   0  0  0  0  0  0
  -23.6268   -8.2216   22.0768 C   0  0  0  0  0  0
  -22.4260   -8.0233   21.3546 C   0  0  0  0  0  0
  -21.9875   -9.0232   20.4669 C   0  0  0  0  0  0
  -22.7232  -10.2105   20.3086 C   0  0  0  0  0  0
  -21.6822   -6.0704   22.5304 C   0  0  0  0  0  0
  -21.4002   -6.5625   23.8244 C   0  0  0  0  0  0
  -21.3684   -5.6791   24.9204 C   0  0  0  0  0  0
  -21.6004   -4.3037   24.7265 C   0  0  0  0  0  0
  -21.8852   -3.8123   23.4401 C   0  0  0  0  0  0
  -21.9201   -4.6927   22.3440 C   0  0  0  0  0  0
  -22.7916  -13.5260   21.1857 C   0  0  0  0  0  0
  -22.1648   -4.2094   21.1019 F   0  0  0  0  0  0
  -21.5661   -3.4532   25.7791 F   0  0  0  0  0  0
  -30.0483  -13.1981   20.4934 N   0  0  0  0  0  0
  -26.3085  -12.9256   20.3286 N   0  0  0  0  0  0
  -25.9309  -11.6411   20.5622 N   0  0  0  0  0  0
  -22.0446  -12.8283   22.0349 N   0  0  0  0  0  0
  -25.4239  -15.1829   20.4071 N   0  0  0  0  0  0
  -31.6797  -14.7424   20.0378 O   0  0  0  0  0  0
  -21.6623   -6.8809   21.4243 O   0  0  0  0  0  0
  -22.3692  -14.5605   20.6690 O   0  0  0  0  0  0
  -24.6202  -31.8671   23.2171 C   0  0  0  0  0  0
  -25.9065  -32.4822   23.8427 C   0  0  1  0  0  0
  -27.2120  -27.4386   20.1023 C   0  0  0  0  0  0
  -25.5981  -33.8627   24.2368 N   0  0  0  0  0  0
  -23.3998  -30.5049   21.5615 C   0  0  2  0  0  0
  -24.8406  -28.9848   20.1240 C   0  0  0  0  0  0
  -22.7397  -29.4722   22.5010 C   0  0  0  0  0  0
  -18.0184  -28.1660   22.8235 C   0  0  0  0  0  0
  -24.1504  -36.7324   23.2630 C   0  0  0  0  0  0
  -25.9345  -30.8509   21.3575 C   0  0  0  0  0  0
  -26.0110  -29.4857   20.7071 C   0  0  0  0  0  0
  -27.2062  -28.7304   20.6791 C   0  0  0  0  0  0
  -26.0164  -26.9562   19.5291 C   0  0  0  0  0  0
  -24.8359  -27.7138   19.5319 C   0  0  0  0  0  0
  -23.6063  -29.8498   20.1753 C   0  0  0  0  0  0
  -25.4110  -36.3102   24.0350 C   0  0  1  0  0  0
  -20.5768  -28.3700   23.1336 C   0  0  2  0  0  0
  -20.6593  -26.9543   22.5234 C   0  0  0  0  0  0
  -19.5653  -26.6751   21.4847 C   0  0  0  0  0  0
  -18.1754  -26.8223   22.1236 C   0  0  0  0  0  0
  -19.1440  -28.8924   23.2947 C   0  0  0  0  0  0
  -18.9469  -30.1335   23.9389 C   0  0  0  0  0  0
  -17.6471  -30.6562   24.1034 C   0  0  0  0  0  0
  -25.9042  -34.9469   23.5107 C   0  0  0  0  0  0
  -16.5374  -29.9293   23.6499 C   0  0  0  0  0  0
  -16.7172  -28.6848   23.0227 C   0  0  0  0  0  0
  -26.4492  -31.6576   25.0732 C   0  0  0  0  0  0
  -25.3787  -31.3701   26.1500 C   0  0  0  0  0  0
  -27.0323  -30.3033   24.6067 C   0  0  0  0  0  0
  -27.6051  -32.4307   25.7505 C   0  0  0  0  0  0
  -27.5587  -37.1827   24.8467 C   0  0  0  0  0  0
  -21.4126  -29.3073   22.3785 N   0  0  0  0  0  0
  -26.4285  -37.3808   23.9421 N   0  0  0  0  0  0
  -24.6696  -31.0847   22.1054 N   0  0  0  0  0  0
  -23.4169  -28.8192   23.2991 O   0  0  0  0  0  0
  -28.3528  -26.6626   20.1122 O   0  0  0  0  0  0
  -26.5577  -34.8872   22.4650 O   0  0  0  0  0  0
  -23.5408  -32.1440   23.7611 O   0  0  0  0  0  0
  -27.6147  -19.1887   21.1534 C   0  0  0  0  0  0
  -27.4396  -17.9342   21.7087 C   0  0  0  0  0  0
  -25.4315  -18.8889   21.4627 C   0  0  0  0  0  0
  -25.2506  -24.2131   17.3804 C   0  0  0  0  0  0
  -21.1815  -20.9469   23.1273 C   0  0  0  0  0  0
  -20.7913  -19.9754   20.8094 C   0  0  0  0  0  0
  -28.3249  -16.7914   22.1375 C   0  0  0  0  0  0
  -23.9238  -18.8925   21.4632 C   0  0  0  0  0  0
  -25.9763  -23.0460   18.0421 C   0  0  0  0  0  0
  -23.1665  -20.2139   21.6771 C   0  0  0  0  0  0
  -27.1702  -22.0049   20.0403 C   0  0  0  0  0  0
  -27.8834  -24.3467   19.1907 C   0  0  0  0  0  0
  -26.0033  -21.0449   20.3834 C   0  0  0  0  0  0
  -29.6007  -16.5549   21.3034 C   0  0  0  0  0  0
  -28.1620  -25.2630   20.4135 C   0  0  0  0  0  0
  -21.6888  -19.9724   22.0544 C   0  0  0  0  0  0
  -26.7083  -23.3376   19.3789 C   0  0  1  0  0  0
  -26.3617  -19.7546   21.0006 N   0  0  0  0  0  0
  -26.0932  -17.8189   21.8822 N   0  3  0  0  0  0
  -30.0718  -15.1828   21.5642 N   0  0  0  0  0  0
  -31.4778  -12.4229   19.1254 H   0  0  0  0  0  0
  -30.3460  -11.2402   19.7508 H   0  0  0  0  0  0
  -29.7447  -11.8203   17.4119 H   0  0  0  0  0  0
  -29.6877  -13.5203   17.7923 H   0  0  0  0  0  0
  -27.8208  -11.3257   18.7533 H   0  0  0  0  0  0
  -27.3749  -12.7007   17.7746 H   0  0  0  0  0  0
  -27.7494  -14.2588   19.6542 H   0  0  0  0  0  0
  -28.6545  -11.8061   21.2307 H   0  0  0  0  0  0
  -28.4302  -13.3608   21.9250 H   0  0  0  0  0  0
  -25.2707   -9.5565   22.4790 H   0  0  0  0  0  0
  -23.9924   -7.4593   22.7491 H   0  0  0  0  0  0
  -21.0795   -8.8818   19.8973 H   0  0  0  0  0  0
  -22.3767  -10.9663   19.6177 H   0  0  0  0  0  0
  -21.1986   -7.6110   23.9759 H   0  0  0  0  0  0
  -21.1453   -6.0475   25.9103 H   0  0  0  0  0  0
  -22.0592   -2.7558   23.2948 H   0  0  0  0  0  0
  -22.4003  -11.9952   22.4805 H   0  0  0  0  0  0
  -21.1097  -13.1424   22.2516 H   0  0  0  0  0  0
  -24.5648  -15.6967   20.2446 H   0  0  0  0  0  0
  -26.1952  -15.5391   19.8519 H   0  0  0  0  0  0
  -26.7159  -32.5555   23.1200 H   0  0  0  0  0  0
  -25.0242  -33.9807   25.0584 H   0  0  0  0  0  0
  -22.6887  -31.3234   21.4335 H   0  0  0  0  0  0
  -23.3741  -35.9693   23.3310 H   0  0  0  0  0  0
  -24.3599  -36.8922   22.2044 H   0  0  0  0  0  0
  -23.7240  -37.6539   23.6610 H   0  0  0  0  0  0
  -26.0439  -31.6112   20.5782 H   0  0  0  0  0  0
  -26.8236  -30.9022   21.9725 H   0  0  0  0  0  0
  -28.1066  -29.1388   21.1058 H   0  0  0  0  0  0
  -25.9665  -25.9822   19.0852 H   0  0  0  0  0  0
  -23.9356  -27.3041   19.0909 H   0  0  0  0  0  0
  -23.7304  -30.6341   19.4323 H   0  0  0  0  0  0
  -22.7289  -29.2798   19.8642 H   0  0  0  0  0  0
  -25.1274  -36.2009   25.0869 H   0  0  0  0  0  0
  -20.9870  -28.3273   24.1454 H   0  0  0  0  0  0
  -20.5572  -26.2245   23.3245 H   0  0  0  0  0  0
  -21.6408  -26.7587   22.1106 H   0  0  0  0  0  0
  -19.6954  -25.6729   21.0636 H   0  0  0  0  0  0
  -19.6578  -27.3852   20.6571 H   0  0  0  0  0  0
  -17.4022  -26.7192   21.3558 H   0  0  0  0  0  0
  -17.9930  -26.0295   22.8514 H   0  0  0  0  0  0
  -19.7895  -30.6831   24.3433 H   0  0  0  0  0  0
  -17.5014  -31.5916   24.6197 H   0  0  0  0  0  0
  -15.5436  -30.3275   23.7953 H   0  0  0  0  0  0
  -15.8453  -28.1440   22.6765 H   0  0  0  0  0  0
  -24.5907  -30.7079   25.7869 H   0  0  0  0  0  0
  -24.9013  -32.2880   26.4984 H   0  0  0  0  0  0
  -25.8175  -30.8839   27.0218 H   0  0  0  0  0  0
  -26.2865  -29.6785   24.1111 H   0  0  0  0  0  0
  -27.4121  -29.7272   25.4509 H   0  0  0  0  0  0
  -27.8678  -30.4379   23.9178 H   0  0  0  0  0  0
  -27.2613  -33.3569   26.2135 H   0  0  0  0  0  0
  -28.3819  -32.6951   25.0312 H   0  0  0  0  0  0
  -28.0722  -31.8374   26.5387 H   0  0  0  0  0  0
  -28.2611  -38.0124   24.7498 H   0  0  0  0  0  0
  -28.1075  -36.2642   24.6303 H   0  0  0  0  0  0
  -27.2297  -37.1482   25.8870 H   0  0  0  0  0  0
  -20.9162  -29.9009   21.7271 H   0  0  0  0  0  0
  -26.0193  -38.2910   24.1387 H   0  0  0  0  0  0
  -28.5281  -19.6913   20.8666 H   0  0  0  0  0  0
  -24.6727  -23.8525   16.5325 H   0  0  0  0  0  0
  -25.9229  -24.9734   16.9958 H   0  0  0  0  0  0
  -24.5468  -24.6719   18.0706 H   0  0  0  0  0  0
  -20.1765  -20.6690   23.4437 H   0  0  0  0  0  0
  -21.1538  -21.9715   22.7602 H   0  0  0  0  0  0
  -21.8127  -20.9271   24.0176 H   0  0  0  0  0  0
  -19.7618  -19.7208   21.0759 H   0  0  0  0  0  0
  -21.1424  -19.2542   20.0705 H   0  0  0  0  0  0
  -20.7857  -20.9565   20.3418 H   0  0  0  0  0  0
  -27.7158  -15.8865   22.1101 H   0  0  0  0  0  0
  -28.5938  -16.9210   23.1873 H   0  0  0  0  0  0
  -23.6569  -18.1992   22.2583 H   0  0  0  0  0  0
  -23.5992  -18.4187   20.5376 H   0  0  0  0  0  0
  -26.6661  -22.5897   17.3350 H   0  0  0  0  0  0
  -25.1762  -22.3298   18.2031 H   0  0  0  0  0  0
  -23.2305  -20.8242   20.7765 H   0  0  0  0  0  0
  -23.6523  -20.7866   22.4650 H   0  0  0  0  0  0
  -27.7094  -22.2172   20.9659 H   0  0  0  0  0  0
  -27.8821  -21.5237   19.3688 H   0  0  0  0  0  0
  -28.7911  -23.8073   18.9153 H   0  0  0  0  0  0
  -27.6912  -24.9857   18.3330 H   0  0  0  0  0  0
  -25.4049  -20.7825   19.5119 H   0  0  0  0  0  0
  -25.3576  -21.5815   21.0779 H   0  0  0  0  0  0
  -30.3583  -17.2893   21.5660 H   0  0  0  0  0  0
  -29.3840  -16.6639   20.2351 H   0  0  0  0  0  0
  -29.0481  -24.8986   20.9248 H   0  0  0  0  0  0
  -27.3786  -25.1582   21.1623 H   0  0  0  0  0  0
  -21.6059  -18.9873   22.5106 H   0  0  0  0  0  0
  -25.9681  -23.8122   20.0260 H   0  0  0  0  0  0
  -25.6361  -16.9866   22.2409 H   0  0  0  0  0  0
  -29.5000  -14.6655   22.2152 H   0  0  0  0  0  0
  1 25  1  0  0  0
  1 30  2  0  0  0
  1 90  1  0  0  0
  2  3  1  0  0  0
  2 25  1  0  0  0
  2 91  1  0  0  0
  2 92  1  0  0  0
  3  4  1  0  0  0
  3 93  1  0  0  0
  3 94  1  0  0  0
  4  5  1  0  0  0
  4 95  1  0  0  0
  4 96  1  0  0  0
  5  6  1  0  0  0
  5 26  1  0  0  0
  5 97  1  0  0  0
  6 25  1  0  0  0
  6 98  1  0  0  0
  6 99  1  0  0  0
  7  8  2  0  0  0
  7 26  1  0  0  0
  7 29  1  0  0  0
  8  9  1  0  0  0
  8 22  1  0  0  0
  9 10  1  0  0  0
  9 27  2  0  0  0
 10 11  2  0  0  0
 10 15  1  0  0  0
 11 12  1  0  0  0
 11100  1  0  0  0
 12 13  2  0  0  0
 12101  1  0  0  0
 13 14  1  0  0  0
 13 31  1  0  0  0
 14 15  2  0  0  0
 14102  1  0  0  0
 15103  1  0  0  0
 16 17  2  0  0  0
 16 21  1  0  0  0
 16 31  1  0  0  0
 17 18  1  0  0  0
 17104  1  0  0  0
 18 19  2  0  0  0
 18105  1  0  0  0
 19 20  1  0  0  0
 19 24  1  0  0  0
 20 21  2  0  0  0
 20106  1  0  0  0
 21 23  1  0  0  0
 22 28  1  0  0  0
 22 32  2  0  0  0
 26 27  1  0  0  0
 28107  1  0  0  0
 28108  1  0  0  0
 29109  1  0  0  0
 29110  1  0  0  0
 33 34  1  0  0  0
 33 66  1  0  0  0
 33 70  2  0  0  0
 34 36  1  0  0  0
 34 59  1  0  0  0
 34111  1  0  0  0
 35 44  2  0  0  0
 35 45  1  0  0  0
 35 68  1  0  0  0
 36 56  1  0  0  0
 36112  1  0  0  0
 37 39  1  0  0  0
 37 47  1  0  0  0
 37 66  1  0  0  0
 37113  1  0  0  0
 38 43  2  0  0  0
 38 46  1  0  0  0
 38 47  1  0  0  0
 39 64  1  0  0  0
 39 67  2  0  0  0
 40 52  1  0  0  0
 40 53  2  0  0  0
 40 58  1  0  0  0
 41114  1  0  0  0
 41115  1  0  0  0
 41116  1  0  0  0
 41 48  1  0  0  0
 42 43  1  0  0  0
 42 66  1  0  0  0
 42117  1  0  0  0
 42118  1  0  0  0
 43 44  1  0  0  0
 44119  1  0  0  0
 45 46  2  0  0  0
 45120  1  0  0  0
 46121  1  0  0  0
 47122  1  0  0  0
 47123  1  0  0  0
 48 56  1  0  0  0
 48 65  1  0  0  0
 48124  1  0  0  0
 49 50  1  0  0  0
 49 53  1  0  0  0
 49 64  1  0  0  0
 49125  1  0  0  0
 50 51  1  0  0  0
 50126  1  0  0  0
 50127  1  0  0  0
 51 52  1  0  0  0
 51128  1  0  0  0
 51129  1  0  0  0
 52130  1  0  0  0
 52131  1  0  0  0
 53 54  1  0  0  0
 54 55  2  0  0  0
 54132  1  0  0  0
 55 57  1  0  0  0
 55133  1  0  0  0
 56 69  2  0  0  0
 57 58  2  0  0  0
 57134  1  0  0  0
 58135  1  0  0  0
 59 60  1  0  0  0
 59 61  1  0  0  0
 59 62  1  0  0  0
 60136  1  0  0  0
 60137  1  0  0  0
 60138  1  0  0  0
 61139  1  0  0  0
 61140  1  0  0  0
 61141  1  0  0  0
 62142  1  0  0  0
 62143  1  0  0  0
 62144  1  0  0  0
 63 65  1  0  0  0
 63145  1  0  0  0
 63146  1  0  0  0
 63147  1  0  0  0
 64148  1  0  0  0
 65149  1  0  0  0
 68 85  1  0  0  0
 71 72  2  0  0  0
 71 88  1  0  0  0
 71150  1  0  0  0
 72 77  1  0  0  0
 72 89  1  0  0  0
 73 78  1  0  0  0
 73 88  1  0  0  0
 73 89  2  0  0  0
 74 79  1  0  0  0
 74151  1  0  0  0
 74152  1  0  0  0
 74153  1  0  0  0
 75154  1  0  0  0
 75155  1  0  0  0
 75156  1  0  0  0
 75 86  1  0  0  0
 76 86  1  0  0  0
 76157  1  0  0  0
 76158  1  0  0  0
 76159  1  0  0  0
 77 84  1  0  0  0
 77160  1  0  0  0
 77161  1  0  0  0
 78 80  1  0  0  0
 78162  1  0  0  0
 78163  1  0  0  0
 79164  1  0  0  0
 79165  1  0  0  0
 79 87  1  0  0  0
 80 86  1  0  0  0
 80166  1  0  0  0
 80167  1  0  0  0
 81 83  1  0  0  0
 81 87  1  0  0  0
 81168  1  0  0  0
 81169  1  0  0  0
 82 85  1  0  0  0
 82 87  1  0  0  0
 82170  1  0  0  0
 82171  1  0  0  0
 83 88  1  0  0  0
 83172  1  0  0  0
 83173  1  0  0  0
 84 90  1  0  0  0
 84174  1  0  0  0
 84175  1  0  0  0
 85176  1  0  0  0
 85177  1  0  0  0
 86178  1  0  0  0
 87179  1  0  0  0
 89180  1  0  0  0
 90181  1  0  0  0
M  CHG  1  89   1
M  ISO  4   1 100  68 101  85 101  90 100
M  END
> <chiral flag>
0

> <version>
0

> <s_m_source_file>
/data/baiqing/PycharmProjects/Reinvent-master-3.2/result/LINK_invent/BTK/process_docking_weight1_custom_sum_contain_oxygen_bond_distance_aromatic_linkinvent_7_9_3/rearranged_h_0084.sdf

> <i_m_source_file_index>
65

> <r_mmod_Potential_Energy-OPLS-2005>
-0.545926094055176

> <r_mmod_Stretch_Energy-OPLS-2005>
40.5105400085449

> <r_mmod_Bend_Energy-OPLS-2005>
121.726051330566

> <r_mmod_Torsional_Energy-OPLS-2005>
294.436737060547

> <r_mmod_Improper_Torsional_Energy-OPLS-2005>
9.11094665527344

> <r_mmod_Van_der_Waal_Energy-OPLS-2005>
133.110275268555

> <r_mmod_Electrostatic_Energy-OPLS-2005>
-203.434280395508

> <r_mmod_Solvation_Energy-OPLS-2005>
-410.974609375

> <b_mmod_Minimization_Converged-OPLS-2005>
0

> <r_mmod_RMS_Derivative-OPLS-2005>
12.3869581222534

$$$$
65
                    3D
 Structure written by MMmdl.
162170  0  0  1  0            999 V2000
  -30.5214  -14.9244   20.4502 C   0  0  0  0  0  0
  -30.4518  -12.5657   19.5027 C   0  0  0  0  0  0
  -29.5271  -12.5281   18.2619 C   0  0  0  0  0  0
  -28.0587  -12.3146   18.6772 C   0  0  0  0  0  0
  -27.6382  -13.2415   19.8466 C   0  0  2  0  0  0
  -28.6798  -13.2378   20.9858 C   0  0  0  0  0  0
  -25.2502  -13.8204   20.5713 C   0  0  0  0  0  0
  -24.1801  -13.0440   20.9212 C   0  0  0  0  0  0
  -24.6407  -11.6921   20.8750 C   0  0  0  0  0  0
  -23.9085  -10.4293   21.0412 C   0  0  0  0  0  0
  -24.3629   -9.4205   21.9190 C   0  0  0  0  0  0
  -23.6298   -8.2243   22.0755 C   0  0  0  0  0  0
  -22.4279   -8.0285   21.3545 C   0  0  0  0  0  0
  -21.9924   -9.0261   20.4648 C   0  0  0  0  0  0
  -22.7260  -10.2137   20.3059 C   0  0  0  0  0  0
  -21.6853   -6.0740   22.5279 C   0  0  0  0  0  0
  -21.4015   -6.5644   23.8214 C   0  0  0  0  0  0
  -21.3656   -5.6794   24.9176 C   0  0  0  0  0  0
  -21.6044   -4.3058   24.7225 C   0  0  0  0  0  0
  -21.8817   -3.8151   23.4348 C   0  0  0  0  0  0
  -21.9194   -4.6967   22.3404 C   0  0  0  0  0  0
  -22.7822  -13.5215   21.1873 C   0  0  0  0  0  0
  -22.1661   -4.2155   21.0980 F   0  0  0  0  0  0
  -21.5628   -3.4540   25.7737 F   0  0  0  0  0  0
  -29.9676  -13.6453   20.4089 N   0  0  0  0  0  0
  -26.2933  -12.9428   20.3277 N   0  0  0  0  0  0
  -25.9343  -11.6562   20.5755 N   0  0  0  0  0  0
  -22.0472  -12.8196   22.0429 N   0  0  0  0  0  0
  -25.4204  -15.1931   20.4150 N   0  0  0  0  0  0
  -31.6949  -15.0306   20.0757 O   0  0  0  0  0  0
  -21.6639   -6.8886   21.4242 O   0  0  0  0  0  0
  -22.3499  -14.5522   20.6729 O   0  0  0  0  0  0
  -24.6425  -31.8440   23.1884 C   0  0  0  0  0  0
  -25.9200  -32.4701   23.8267 C   0  0  1  0  0  0
  -27.2198  -27.1494   20.1467 C   0  0  0  0  0  0
  -25.5952  -33.8506   24.2191 N   0  0  0  0  0  0
  -23.4451  -30.4644   21.5341 C   0  0  2  0  0  0
  -24.8942  -28.8926   20.1085 C   0  0  0  0  0  0
  -22.7566  -29.4534   22.4852 C   0  0  0  0  0  0
  -18.0309  -28.1391   22.8466 C   0  0  0  0  0  0
  -24.1493  -36.7258   23.2644 C   0  0  0  0  0  0
  -25.9993  -30.7231   21.3833 C   0  0  0  0  0  0
  -26.0708  -29.3358   20.7248 C   0  0  0  0  0  0
  -27.2339  -28.4796   20.7270 C   0  0  0  0  0  0
  -26.0160  -26.8021   19.4957 C   0  0  0  0  0  0
  -24.8790  -27.6391   19.4782 C   0  0  0  0  0  0
  -23.6706  -29.7948   20.1518 C   0  0  0  0  0  0
  -25.4120  -36.3034   24.0323 C   0  0  1  0  0  0
  -20.5919  -28.3705   23.1242 C   0  0  2  0  0  0
  -20.6797  -26.9407   22.5406 C   0  0  0  0  0  0
  -19.5775  -26.6371   21.5211 C   0  0  0  0  0  0
  -18.1952  -26.7927   22.1612 C   0  0  0  0  0  0
  -19.1566  -28.8862   23.2849 C   0  0  0  0  0  0
  -18.9482  -30.1461   23.8871 C   0  0  0  0  0  0
  -17.6479  -30.6586   24.0554 C   0  0  0  0  0  0
  -25.9071  -34.9411   23.5063 C   0  0  0  0  0  0
  -16.5372  -29.9081   23.6338 C   0  0  0  0  0  0
  -16.7295  -28.6511   23.0342 C   0  0  0  0  0  0
  -26.4522  -31.6566   25.0704 C   0  0  0  0  0  0
  -25.3717  -31.3747   26.1405 C   0  0  0  0  0  0
  -27.0386  -30.2978   24.6254 C   0  0  0  0  0  0
  -27.6059  -32.4324   25.7487 C   0  0  0  0  0  0
  -27.5574  -37.1779   24.8472 C   0  0  0  0  0  0
  -21.4259  -29.3032   22.3614 N   0  0  0  0  0  0
  -26.4281  -37.3751   23.9417 N   0  0  0  0  0  0
  -24.7157  -31.0302   22.0914 N   0  0  0  0  0  0
  -23.4218  -28.8084   23.2991 O   0  0  0  0  0  0
  -28.2830  -26.1794   20.2209 O   0  0  0  0  0  0
  -26.5654  -34.8914   22.4640 O   0  0  0  0  0  0
  -23.5548  -32.1299   23.7121 O   0  0  0  0  0  0
  -28.3978  -21.1699   22.4195 C   0  0  0  0  0  0
  -28.3029  -20.4941   23.6396 C   0  0  0  0  0  0
  -28.9462  -20.5908   21.2496 C   0  0  0  0  0  0
  -28.7532  -19.1725   23.6851 C   0  0  0  0  0  0
  -29.3202  -19.1221   21.3765 C   0  0  0  0  0  0
  -28.7201  -18.3443   24.9556 C   0  0  0  0  0  0
  -26.2017  -21.2438   24.8481 C   0  0  0  0  0  0
  -27.7341  -21.2210   24.8516 C   0  0  0  0  0  0
  -28.9474  -21.7403   20.0921 C   0  0  0  0  0  0
  -29.9181  -17.9122   20.4456 C   0  0  0  0  0  0
  -29.6960  -16.2861   20.9016 C   0  0  0  0  0  0
  -29.0927  -23.4078   20.4174 C   0  0  0  0  0  0
  -28.0361  -24.6559   20.0333 C   0  0  0  0  0  0
  -29.2309  -18.5490   22.5996 N   0  0  0  0  0  0
  -31.4854  -12.7251   19.1934 H   0  0  0  0  0  0
  -30.4439  -11.6048   20.0205 H   0  0  0  0  0  0
  -29.8412  -11.7370   17.5806 H   0  0  0  0  0  0
  -29.6195  -13.4649   17.7099 H   0  0  0  0  0  0
  -27.9520  -11.2726   18.9813 H   0  0  0  0  0  0
  -27.3949  -12.4517   17.8226 H   0  0  0  0  0  0
  -27.6132  -14.2490   19.4302 H   0  0  0  0  0  0
  -28.7540  -12.2506   21.4441 H   0  0  0  0  0  0
  -28.3822  -13.9213   21.7820 H   0  0  0  0  0  0
  -25.2774   -9.5675   22.4773 H   0  0  0  0  0  0
  -24.0004   -7.4630   22.7474 H   0  0  0  0  0  0
  -21.0857   -8.8788   19.8951 H   0  0  0  0  0  0
  -22.3725  -10.9679   19.6168 H   0  0  0  0  0  0
  -21.2006   -7.6152   23.9721 H   0  0  0  0  0  0
  -21.1479   -6.0524   25.9080 H   0  0  0  0  0  0
  -22.0600   -2.7615   23.2845 H   0  0  0  0  0  0
  -22.4088  -11.9840   22.4790 H   0  0  0  0  0  0
  -21.1099  -13.1222   22.2663 H   0  0  0  0  0  0
  -24.6592  -15.8519   20.5374 H   0  0  0  0  0  0
  -26.2797  -15.6336   20.1122 H   0  0  0  0  0  0
  -26.7258  -32.5303   23.0986 H   0  0  0  0  0  0
  -25.0094  -33.9621   25.0335 H   0  0  0  0  0  0
  -22.7476  -31.2909   21.3812 H   0  0  0  0  0  0
  -23.3764  -35.9582   23.3295 H   0  0  0  0  0  0
  -24.3590  -36.8897   22.2065 H   0  0  0  0  0  0
  -23.7242  -37.6448   23.6684 H   0  0  0  0  0  0
  -26.1491  -31.4773   20.6101 H   0  0  0  0  0  0
  -26.8734  -30.7763   22.0208 H   0  0  0  0  0  0
  -28.1305  -28.8136   21.2302 H   0  0  0  0  0  0
  -25.9213  -25.8413   19.0124 H   0  0  0  0  0  0
  -23.9798  -27.2937   18.9875 H   0  0  0  0  0  0
  -23.8107  -30.5723   19.3995 H   0  0  0  0  0  0
  -22.7844  -29.2399   19.8378 H   0  0  0  0  0  0
  -25.1308  -36.1855   25.0817 H   0  0  0  0  0  0
  -21.0003  -28.3281   24.1369 H   0  0  0  0  0  0
  -20.5685  -26.2311   23.3616 H   0  0  0  0  0  0
  -21.6663  -26.7417   22.1196 H   0  0  0  0  0  0
  -19.6941  -25.6279   21.1249 H   0  0  0  0  0  0
  -19.6722  -27.3174   20.6731 H   0  0  0  0  0  0
  -17.4219  -26.6665   21.4017 H   0  0  0  0  0  0
  -18.0349  -26.0084   22.9020 H   0  0  0  0  0  0
  -19.7964  -30.7283   24.2215 H   0  0  0  0  0  0
  -17.5044  -31.6264   24.5160 H   0  0  0  0  0  0
  -15.5372  -30.2975   23.7686 H   0  0  0  0  0  0
  -15.8694  -28.0833   22.7046 H   0  0  0  0  0  0
  -24.5913  -30.7073   25.7726 H   0  0  0  0  0  0
  -24.8874  -32.2925   26.4759 H   0  0  0  0  0  0
  -25.7999  -30.8972   27.0228 H   0  0  0  0  0  0
  -26.2989  -29.6705   24.1262 H   0  0  0  0  0  0
  -27.4045  -29.7269   25.4793 H   0  0  0  0  0  0
  -27.8879  -30.4257   23.9541 H   0  0  0  0  0  0
  -27.2674  -33.3668   26.1981 H   0  0  0  0  0  0
  -28.3908  -32.6801   25.0330 H   0  0  0  0  0  0
  -28.0682  -31.8493   26.5464 H   0  0  0  0  0  0
  -28.2572  -38.0089   24.7511 H   0  0  0  0  0  0
  -28.1080  -36.2614   24.6294 H   0  0  0  0  0  0
  -27.2301  -37.1433   25.8878 H   0  0  0  0  0  0
  -20.9452  -29.8777   21.6827 H   0  0  0  0  0  0
  -26.0150  -38.2819   24.1418 H   0  0  0  0  0  0
  -28.0244  -22.1817   22.4054 H   0  0  0  0  0  0
  -27.7230  -18.3521   25.3955 H   0  0  0  0  0  0
  -29.4246  -18.7414   25.6863 H   0  0  0  0  0  0
  -28.9901  -17.3053   24.7637 H   0  0  0  0  0  0
  -25.8203  -21.7871   25.7137 H   0  0  0  0  0  0
  -25.7905  -20.2341   24.8827 H   0  0  0  0  0  0
  -25.8139  -21.7358   23.9553 H   0  0  0  0  0  0
  -28.1110  -22.2454   24.8532 H   0  0  0  0  0  0
  -28.0970  -20.7786   25.7792 H   0  0  0  0  0  0
  -28.0304  -21.6015   19.5175 H   0  0  0  0  0  0
  -29.7442  -21.4670   19.3993 H   0  0  0  0  0  0
  -30.9889  -18.0921   20.3468 H   0  0  0  0  0  0
  -29.5124  -18.0480   19.4432 H   0  0  0  0  0  0
  -28.6371  -16.0753   20.7616 H   0  0  0  0  0  0
  -29.8398  -16.2392   21.9790 H   0  0  0  0  0  0
  -30.0074  -23.6892   19.8954 H   0  0  0  0  0  0
  -29.3823  -23.5423   21.4585 H   0  0  0  0  0  0
  -27.1092  -24.4333   20.5628 H   0  0  0  0  0  0
  -27.7999  -24.5278   18.9765 H   0  0  0  0  0  0
  1 25  1  0  0  0
  1 30  2  0  0  0
  1 81  1  0  0  0
  2  3  1  0  0  0
  2 25  1  0  0  0
  2 85  1  0  0  0
  2 86  1  0  0  0
  3  4  1  0  0  0
  3 87  1  0  0  0
  3 88  1  0  0  0
  4  5  1  0  0  0
  4 89  1  0  0  0
  4 90  1  0  0  0
  5  6  1  0  0  0
  5 26  1  0  0  0
  5 91  1  0  0  0
  6 25  1  0  0  0
  6 92  1  0  0  0
  6 93  1  0  0  0
  7  8  2  0  0  0
  7 26  1  0  0  0
  7 29  1  0  0  0
  8  9  1  0  0  0
  8 22  1  0  0  0
  9 10  1  0  0  0
  9 27  2  0  0  0
 10 11  2  0  0  0
 10 15  1  0  0  0
 11 12  1  0  0  0
 11 94  1  0  0  0
 12 13  2  0  0  0
 12 95  1  0  0  0
 13 14  1  0  0  0
 13 31  1  0  0  0
 14 15  2  0  0  0
 14 96  1  0  0  0
 15 97  1  0  0  0
 16 17  2  0  0  0
 16 21  1  0  0  0
 16 31  1  0  0  0
 17 18  1  0  0  0
 17 98  1  0  0  0
 18 19  2  0  0  0
 18 99  1  0  0  0
 19 20  1  0  0  0
 19 24  1  0  0  0
 20 21  2  0  0  0
 20100  1  0  0  0
 21 23  1  0  0  0
 22 28  1  0  0  0
 22 32  2  0  0  0
 26 27  1  0  0  0
 28101  1  0  0  0
 28102  1  0  0  0
 29103  1  0  0  0
 29104  1  0  0  0
 33 34  1  0  0  0
 33 66  1  0  0  0
 33 70  2  0  0  0
 34 36  1  0  0  0
 34 59  1  0  0  0
 34105  1  0  0  0
 35 44  2  0  0  0
 35 45  1  0  0  0
 35 68  1  0  0  0
 36 56  1  0  0  0
 36106  1  0  0  0
 37 39  1  0  0  0
 37 47  1  0  0  0
 37 66  1  0  0  0
 37107  1  0  0  0
 38 43  2  0  0  0
 38 46  1  0  0  0
 38 47  1  0  0  0
 39 64  1  0  0  0
 39 67  2  0  0  0
 40 52  1  0  0  0
 40 53  2  0  0  0
 40 58  1  0  0  0
 41108  1  0  0  0
 41109  1  0  0  0
 41110  1  0  0  0
 41 48  1  0  0  0
 42 43  1  0  0  0
 42 66  1  0  0  0
 42111  1  0  0  0
 42112  1  0  0  0
 43 44  1  0  0  0
 44113  1  0  0  0
 45 46  2  0  0  0
 45114  1  0  0  0
 46115  1  0  0  0
 47116  1  0  0  0
 47117  1  0  0  0
 48 56  1  0  0  0
 48 65  1  0  0  0
 48118  1  0  0  0
 49 50  1  0  0  0
 49 53  1  0  0  0
 49 64  1  0  0  0
 49119  1  0  0  0
 50 51  1  0  0  0
 50120  1  0  0  0
 50121  1  0  0  0
 51 52  1  0  0  0
 51122  1  0  0  0
 51123  1  0  0  0
 52124  1  0  0  0
 52125  1  0  0  0
 53 54  1  0  0  0
 54 55  2  0  0  0
 54126  1  0  0  0
 55 57  1  0  0  0
 55127  1  0  0  0
 56 69  2  0  0  0
 57 58  2  0  0  0
 57128  1  0  0  0
 58129  1  0  0  0
 59 60  1  0  0  0
 59 61  1  0  0  0
 59 62  1  0  0  0
 60130  1  0  0  0
 60131  1  0  0  0
 60132  1  0  0  0
 61133  1  0  0  0
 61134  1  0  0  0
 61135  1  0  0  0
 62136  1  0  0  0
 62137  1  0  0  0
 62138  1  0  0  0
 63 65  1  0  0  0
 63139  1  0  0  0
 63140  1  0  0  0
 63141  1  0  0  0
 64142  1  0  0  0
 65143  1  0  0  0
 68 83  1  0  0  0
 71 72  2  0  0  0
 71 73  1  0  0  0
 71144  1  0  0  0
 72 74  1  0  0  0
 72 78  1  0  0  0
 73 75  2  0  0  0
 73 79  1  0  0  0
 74 76  1  0  0  0
 74 84  2  0  0  0
 75 80  1  0  0  0
 75 84  1  0  0  0
 76145  1  0  0  0
 76146  1  0  0  0
 76147  1  0  0  0
 77 78  1  0  0  0
 77148  1  0  0  0
 77149  1  0  0  0
 77150  1  0  0  0
 78151  1  0  0  0
 78152  1  0  0  0
 79 82  1  0  0  0
 79153  1  0  0  0
 79154  1  0  0  0
 80 81  1  0  0  0
 80155  1  0  0  0
 80156  1  0  0  0
 81157  1  0  0  0
 81158  1  0  0  0
 82 83  1  0  0  0
 82159  1  0  0  0
 82160  1  0  0  0
 83161  1  0  0  0
 83162  1  0  0  0
M  ISO  4   1 100  68 101  81 100  83 101
M  END
> <chiral flag>
0

> <version>
0

> <s_m_source_file>
/data/baiqing/PycharmProjects/Reinvent-master-3.2/result/LINK_invent/BTK/process_docking_weight1_custom_sum_contain_oxygen_bond_distance_aromatic_linkinvent_7_9_3/rearranged_h_0084.sdf

> <i_m_source_file_index>
66

> <r_mmod_Potential_Energy-OPLS-2005>
362.206939697266

> <r_mmod_Stretch_Energy-OPLS-2005>
277.708984375

> <r_mmod_Bend_Energy-OPLS-2005>
321.725402832031

> <r_mmod_Torsional_Energy-OPLS-2005>
190.507781982422

> <r_mmod_Improper_Torsional_Energy-OPLS-2005>
2.08415937423706

> <r_mmod_Van_der_Waal_Energy-OPLS-2005>
140.188064575195

> <r_mmod_Electrostatic_Energy-OPLS-2005>
-538.012634277344

> <r_mmod_Solvation_Energy-OPLS-2005>
-207.966247558594

> <b_mmod_Minimization_Converged-OPLS-2005>
0

> <r_mmod_RMS_Derivative-OPLS-2005>
1.30717957019806

$$$$
66
                    3D
 Structure written by MMmdl.
172180  0  0  1  0            999 V2000
  -30.5707  -14.7212   20.4357 C   0  0  0  0  0  0
  -30.4277  -12.4250   19.4684 C   0  0  0  0  0  0
  -29.5119  -12.5254   18.2276 C   0  0  0  0  0  0
  -28.0298  -12.3736   18.6253 C   0  0  0  0  0  0
  -27.6461  -13.2284   19.8635 C   0  0  2  0  0  0
  -28.6913  -13.1102   20.9957 C   0  0  0  0  0  0
  -25.2523  -13.8168   20.5655 C   0  0  0  0  0  0
  -24.1806  -13.0427   20.9164 C   0  0  0  0  0  0
  -24.6404  -11.6893   20.8709 C   0  0  0  0  0  0
  -23.9072  -10.4266   21.0352 C   0  0  0  0  0  0
  -24.3626   -9.4184   21.9135 C   0  0  0  0  0  0
  -23.6295   -8.2238   22.0735 C   0  0  0  0  0  0
  -22.4280   -8.0269   21.3520 C   0  0  0  0  0  0
  -21.9914   -9.0233   20.4631 C   0  0  0  0  0  0
  -22.7243  -10.2112   20.3006 C   0  0  0  0  0  0
  -21.6862   -6.0706   22.5243 C   0  0  0  0  0  0
  -21.4030   -6.5608   23.8173 C   0  0  0  0  0  0
  -21.3669   -5.6772   24.9127 C   0  0  0  0  0  0
  -21.6067   -4.3035   24.7201 C   0  0  0  0  0  0
  -21.8822   -3.8115   23.4322 C   0  0  0  0  0  0
  -21.9210   -4.6931   22.3366 C   0  0  0  0  0  0
  -22.7827  -13.5197   21.1838 C   0  0  0  0  0  0
  -22.1656   -4.2108   21.0952 F   0  0  0  0  0  0
  -21.5646   -3.4528   25.7720 F   0  0  0  0  0  0
  -29.9924  -13.4714   20.4221 N   0  0  0  0  0  0
  -26.2957  -12.9378   20.3290 N   0  0  0  0  0  0
  -25.9339  -11.6513   20.5722 N   0  0  0  0  0  0
  -22.0520  -12.8140   22.0406 N   0  0  0  0  0  0
  -25.4237  -15.1907   20.4080 N   0  0  0  0  0  0
  -31.7345  -14.8685   20.0532 O   0  0  0  0  0  0
  -21.6659   -6.8858   21.4208 O   0  0  0  0  0  0
  -22.3478  -14.5488   20.6717 O   0  0  0  0  0  0
  -24.6364  -31.8509   23.1996 C   0  0  0  0  0  0
  -25.9183  -32.4723   23.8329 C   0  0  1  0  0  0
  -27.2053  -27.2586   20.1383 C   0  0  0  0  0  0
  -25.5949  -33.8520   24.2217 N   0  0  0  0  0  0
  -23.4310  -30.4771   21.5420 C   0  0  2  0  0  0
  -24.8696  -28.9129   20.1200 C   0  0  0  0  0  0
  -22.7540  -29.4596   22.4907 C   0  0  0  0  0  0
  -18.0332  -28.1415   22.8498 C   0  0  0  0  0  0
  -24.1514  -36.7279   23.2660 C   0  0  0  0  0  0
  -25.9762  -30.7679   21.3712 C   0  0  0  0  0  0
  -26.0422  -29.3872   20.7191 C   0  0  0  0  0  0
  -27.2197  -28.5765   20.7046 C   0  0  0  0  0  0
  -26.0126  -26.8426   19.5136 C   0  0  0  0  0  0
  -24.8543  -27.6481   19.5104 C   0  0  0  0  0  0
  -23.6420  -29.8026   20.1618 C   0  0  0  0  0  0
  -25.4141  -36.3022   24.0321 C   0  0  1  0  0  0
  -20.5938  -28.3698   23.1287 C   0  0  2  0  0  0
  -20.6820  -26.9401   22.5436 C   0  0  0  0  0  0
  -19.5767  -26.6384   21.5268 C   0  0  0  0  0  0
  -18.1949  -26.7960   22.1664 C   0  0  0  0  0  0
  -19.1582  -28.8881   23.2887 C   0  0  0  0  0  0
  -18.9483  -30.1501   23.8873 C   0  0  0  0  0  0
  -17.6472  -30.6593   24.0582 C   0  0  0  0  0  0
  -25.9094  -34.9406   23.5058 C   0  0  0  0  0  0
  -16.5371  -29.9069   23.6378 C   0  0  0  0  0  0
  -16.7318  -28.6522   23.0335 C   0  0  0  0  0  0
  -26.4520  -31.6577   25.0746 C   0  0  0  0  0  0
  -25.3749  -31.3658   26.1465 C   0  0  0  0  0  0
  -27.0366  -30.2996   24.6230 C   0  0  0  0  0  0
  -27.6065  -32.4348   25.7493 C   0  0  0  0  0  0
  -27.5567  -37.1791   24.8459 C   0  0  0  0  0  0
  -21.4243  -29.3010   22.3651 N   0  0  0  0  0  0
  -26.4291  -37.3731   23.9401 N   0  0  0  0  0  0
  -24.7015  -31.0516   22.0927 N   0  0  0  0  0  0
  -23.4250  -28.8139   23.2997 O   0  0  0  0  0  0
  -28.3319  -26.4244   20.0662 O   0  0  0  0  0  0
  -26.5658  -34.8877   22.4633 O   0  0  0  0  0  0
  -23.5530  -32.1284   23.7320 O   0  0  0  0  0  0
  -28.5138  -21.0875   20.8941 C   0  0  0  0  0  0
  -28.5773  -22.2979   20.0795 C   0  0  0  0  0  0
  -29.2739  -20.0145   20.3949 C   0  0  0  0  0  0
  -29.4402  -21.9170   19.0806 C   0  0  0  0  0  0
  -29.8573  -22.7292   17.8885 C   0  0  0  0  0  0
  -30.7011  -18.3788   16.2099 C   0  0  0  0  0  0
  -26.3975  -23.4613   20.8179 C   0  0  0  0  0  0
  -28.4194  -18.1790   21.9622 C   0  0  0  0  0  0
  -30.8487  -18.6437   21.8363 C   0  0  0  0  0  0
  -29.8836  -19.2477   17.1706 C   0  0  0  0  0  0
  -30.7211  -19.8757   18.3005 C   0  0  0  0  0  0
  -29.7760  -17.2234   20.0543 C   0  0  0  0  0  0
  -28.4193  -25.0604   20.6900 C   0  0  0  0  0  0
  -27.7590  -23.6888   20.1308 C   0  0  1  0  0  0
  -29.5649  -18.5437   20.9932 C   0  0  0  0  0  0
  -29.8559  -20.5765   19.2481 N   0  0  0  0  0  0
  -29.7389  -15.8065   20.6455 N   0  0  0  0  0  0
  -31.4746  -12.5368   19.1855 H   0  0  0  0  0  0
  -30.3428  -11.4337   19.9156 H   0  0  0  0  0  0
  -29.7786  -11.7620   17.4955 H   0  0  0  0  0  0
  -29.6688  -13.4872   17.7370 H   0  0  0  0  0  0
  -27.8520  -11.3162   18.8254 H   0  0  0  0  0  0
  -27.3912  -12.6349   17.7797 H   0  0  0  0  0  0
  -27.6521  -14.2653   19.5285 H   0  0  0  0  0  0
  -28.7114  -12.0964   21.3975 H   0  0  0  0  0  0
  -28.4328  -13.7579   21.8361 H   0  0  0  0  0  0
  -25.2780   -9.5666   22.4689 H   0  0  0  0  0  0
  -24.0006   -7.4634   22.7449 H   0  0  0  0  0  0
  -21.0860   -8.8736   19.8922 H   0  0  0  0  0  0
  -22.3686  -10.9641   19.6100 H   0  0  0  0  0  0
  -21.1992   -7.6120   23.9643 H   0  0  0  0  0  0
  -21.1509   -6.0510   25.9035 H   0  0  0  0  0  0
  -22.0601   -2.7585   23.2827 H   0  0  0  0  0  0
  -22.4280  -11.9850   22.4769 H   0  0  0  0  0  0
  -21.1098  -13.1029   22.2597 H   0  0  0  0  0  0
  -24.6662  -15.8515   20.5298 H   0  0  0  0  0  0
  -26.2688  -15.6249   20.0653 H   0  0  0  0  0  0
  -26.7238  -32.5341   23.1062 H   0  0  0  0  0  0
  -25.0071  -33.9658   25.0329 H   0  0  0  0  0  0
  -22.7323  -31.3057   21.3940 H   0  0  0  0  0  0
  -23.3737  -35.9644   23.3306 H   0  0  0  0  0  0
  -24.3622  -36.8948   22.2082 H   0  0  0  0  0  0
  -23.7300  -37.6484   23.6718 H   0  0  0  0  0  0
  -26.1296  -31.5262   20.6022 H   0  0  0  0  0  0
  -26.8562  -30.8097   22.0014 H   0  0  0  0  0  0
  -28.1352  -28.9490   21.1434 H   0  0  0  0  0  0
  -25.9741  -25.8850   19.0176 H   0  0  0  0  0  0
  -23.9501  -27.2843   19.0446 H   0  0  0  0  0  0
  -23.7603  -30.5723   19.3982 H   0  0  0  0  0  0
  -22.7599  -29.2335   19.8646 H   0  0  0  0  0  0
  -25.1316  -36.1856   25.0809 H   0  0  0  0  0  0
  -21.0087  -28.3279   24.1389 H   0  0  0  0  0  0
  -20.5835  -26.2261   23.3628 H   0  0  0  0  0  0
  -21.6660  -26.7462   22.1127 H   0  0  0  0  0  0
  -19.6905  -25.6301   21.1277 H   0  0  0  0  0  0
  -19.6730  -27.3238   20.6833 H   0  0  0  0  0  0
  -17.4241  -26.6791   21.4040 H   0  0  0  0  0  0
  -18.0263  -26.0112   22.9055 H   0  0  0  0  0  0
  -19.7936  -30.7371   24.2179 H   0  0  0  0  0  0
  -17.4991  -31.6274   24.5175 H   0  0  0  0  0  0
  -15.5358  -30.2923   23.7724 H   0  0  0  0  0  0
  -15.8741  -28.0855   22.6976 H   0  0  0  0  0  0
  -24.5976  -30.6961   25.7753 H   0  0  0  0  0  0
  -24.8881  -32.2776   26.4934 H   0  0  0  0  0  0
  -25.8106  -30.8800   27.0207 H   0  0  0  0  0  0
  -26.2906  -29.6752   24.1310 H   0  0  0  0  0  0
  -27.4065  -29.7280   25.4747 H   0  0  0  0  0  0
  -27.8766  -30.4248   23.9405 H   0  0  0  0  0  0
  -27.2676  -33.3700   26.1958 H   0  0  0  0  0  0
  -28.3888  -32.6874   25.0324 H   0  0  0  0  0  0
  -28.0691  -31.8555   26.5484 H   0  0  0  0  0  0
  -28.2550  -38.0121   24.7523 H   0  0  0  0  0  0
  -28.1088  -36.2645   24.6243 H   0  0  0  0  0  0
  -27.2290  -37.1381   25.8864 H   0  0  0  0  0  0
  -20.9473  -29.8629   21.6744 H   0  0  0  0  0  0
  -26.0144  -38.2790   24.1402 H   0  0  0  0  0  0
  -27.9113  -20.9996   21.7860 H   0  0  0  0  0  0
  -29.6711  -23.7889   18.0577 H   0  0  0  0  0  0
  -29.2917  -22.4335   17.0040 H   0  0  0  0  0  0
  -30.9188  -22.6384   17.6635 H   0  0  0  0  0  0
  -30.0521  -17.9620   15.4394 H   0  0  0  0  0  0
  -31.1682  -17.5456   16.7372 H   0  0  0  0  0  0
  -31.4808  -18.9493   15.7055 H   0  0  0  0  0  0
  -25.8643  -22.6076   20.3952 H   0  0  0  0  0  0
  -25.7510  -24.3317   20.7194 H   0  0  0  0  0  0
  -26.5197  -23.2782   21.8857 H   0  0  0  0  0  0
  -28.2691  -18.9439   22.7241 H   0  0  0  0  0  0
  -28.6200  -17.2576   22.5072 H   0  0  0  0  0  0
  -27.4828  -18.0329   21.4210 H   0  0  0  0  0  0
  -30.7888  -19.4650   22.5497 H   0  0  0  0  0  0
  -31.7201  -18.8233   21.2054 H   0  0  0  0  0  0
  -31.0319  -17.7271   22.4015 H   0  0  0  0  0  0
  -29.0825  -18.6435   17.5935 H   0  0  0  0  0  0
  -29.3835  -20.0307   16.6000 H   0  0  0  0  0  0
  -31.4536  -20.5609   17.8814 H   0  0  0  0  0  0
  -31.3358  -19.1471   18.8210 H   0  0  0  0  0  0
  -30.6949  -17.2902   19.4773 H   0  0  0  0  0  0
  -28.9739  -17.2281   19.3166 H   0  0  0  0  0  0
  -29.4944  -24.8777   20.7098 H   0  0  0  0  0  0
  -28.1574  -25.1731   21.7419 H   0  0  0  0  0  0
  -27.5238  -23.8965   19.0876 H   0  0  0  0  0  0
  -28.8371  -15.5511   21.0148 H   0  0  0  0  0  0
  1 25  1  0  0  0
  1 30  2  0  0  0
  1 87  1  0  0  0
  2  3  1  0  0  0
  2 25  1  0  0  0
  2 88  1  0  0  0
  2 89  1  0  0  0
  3  4  1  0  0  0
  3 90  1  0  0  0
  3 91  1  0  0  0
  4  5  1  0  0  0
  4 92  1  0  0  0
  4 93  1  0  0  0
  5  6  1  0  0  0
  5 26  1  0  0  0
  5 94  1  0  0  0
  6 25  1  0  0  0
  6 95  1  0  0  0
  6 96  1  0  0  0
  7  8  2  0  0  0
  7 26  1  0  0  0
  7 29  1  0  0  0
  8  9  1  0  0  0
  8 22  1  0  0  0
  9 10  1  0  0  0
  9 27  2  0  0  0
 10 11  2  0  0  0
 10 15  1  0  0  0
 11 12  1  0  0  0
 11 97  1  0  0  0
 12 13  2  0  0  0
 12 98  1  0  0  0
 13 14  1  0  0  0
 13 31  1  0  0  0
 14 15  2  0  0  0
 14 99  1  0  0  0
 15100  1  0  0  0
 16 17  2  0  0  0
 16 21  1  0  0  0
 16 31  1  0  0  0
 17 18  1  0  0  0
 17101  1  0  0  0
 18 19  2  0  0  0
 18102  1  0  0  0
 19 20  1  0  0  0
 19 24  1  0  0  0
 20 21  2  0  0  0
 20103  1  0  0  0
 21 23  1  0  0  0
 22 28  1  0  0  0
 22 32  2  0  0  0
 26 27  1  0  0  0
 28104  1  0  0  0
 28105  1  0  0  0
 29106  1  0  0  0
 29107  1  0  0  0
 33 34  1  0  0  0
 33 66  1  0  0  0
 33 70  2  0  0  0
 34 36  1  0  0  0
 34 59  1  0  0  0
 34108  1  0  0  0
 35 44  2  0  0  0
 35 45  1  0  0  0
 35 68  1  0  0  0
 36 56  1  0  0  0
 36109  1  0  0  0
 37 39  1  0  0  0
 37 47  1  0  0  0
 37 66  1  0  0  0
 37110  1  0  0  0
 38 43  2  0  0  0
 38 46  1  0  0  0
 38 47  1  0  0  0
 39 64  1  0  0  0
 39 67  2  0  0  0
 40 52  1  0  0  0
 40 53  2  0  0  0
 40 58  1  0  0  0
 41111  1  0  0  0
 41112  1  0  0  0
 41113  1  0  0  0
 41 48  1  0  0  0
 42 43  1  0  0  0
 42 66  1  0  0  0
 42114  1  0  0  0
 42115  1  0  0  0
 43 44  1  0  0  0
 44116  1  0  0  0
 45 46  2  0  0  0
 45117  1  0  0  0
 46118  1  0  0  0
 47119  1  0  0  0
 47120  1  0  0  0
 48 56  1  0  0  0
 48 65  1  0  0  0
 48121  1  0  0  0
 49 50  1  0  0  0
 49 53  1  0  0  0
 49 64  1  0  0  0
 49122  1  0  0  0
 50 51  1  0  0  0
 50123  1  0  0  0
 50124  1  0  0  0
 51 52  1  0  0  0
 51125  1  0  0  0
 51126  1  0  0  0
 52127  1  0  0  0
 52128  1  0  0  0
 53 54  1  0  0  0
 54 55  2  0  0  0
 54129  1  0  0  0
 55 57  1  0  0  0
 55130  1  0  0  0
 56 69  2  0  0  0
 57 58  2  0  0  0
 57131  1  0  0  0
 58132  1  0  0  0
 59 60  1  0  0  0
 59 61  1  0  0  0
 59 62  1  0  0  0
 60133  1  0  0  0
 60134  1  0  0  0
 60135  1  0  0  0
 61136  1  0  0  0
 61137  1  0  0  0
 61138  1  0  0  0
 62139  1  0  0  0
 62140  1  0  0  0
 62141  1  0  0  0
 63 65  1  0  0  0
 63142  1  0  0  0
 63143  1  0  0  0
 63144  1  0  0  0
 64145  1  0  0  0
 65146  1  0  0  0
 68 83  1  0  0  0
 71 72  1  0  0  0
 71 73  2  0  0  0
 71147  1  0  0  0
 72 74  2  0  0  0
 72 84  1  0  0  0
 73 85  1  0  0  0
 73 86  1  0  0  0
 74 75  1  0  0  0
 74 86  1  0  0  0
 75148  1  0  0  0
 75149  1  0  0  0
 75150  1  0  0  0
 76 80  1  0  0  0
 76151  1  0  0  0
 76152  1  0  0  0
 76153  1  0  0  0
 77154  1  0  0  0
 77155  1  0  0  0
 77156  1  0  0  0
 77 84  1  0  0  0
 78157  1  0  0  0
 78158  1  0  0  0
 78159  1  0  0  0
 78 85  1  0  0  0
 79 85  1  0  0  0
 79160  1  0  0  0
 79161  1  0  0  0
 79162  1  0  0  0
 80 81  1  0  0  0
 80163  1  0  0  0
 80164  1  0  0  0
 81 86  1  0  0  0
 81165  1  0  0  0
 81166  1  0  0  0
 82 85  1  0  0  0
 82 87  1  0  0  0
 82167  1  0  0  0
 82168  1  0  0  0
 83 84  1  0  0  0
 83169  1  0  0  0
 83170  1  0  0  0
 84171  1  0  0  0
 87172  1  0  0  0
M  ISO  4   1 100  68 101  83 101  87 100
M  END
> <chiral flag>
0

> <version>
0

> <s_m_source_file>
/data/baiqing/PycharmProjects/Reinvent-master-3.2/result/LINK_invent/BTK/process_docking_weight1_custom_sum_contain_oxygen_bond_distance_aromatic_linkinvent_7_9_3/rearranged_h_0084.sdf

> <i_m_source_file_index>
67

> <r_mmod_Potential_Energy-OPLS-2005>
149.339813232422

> <r_mmod_Stretch_Energy-OPLS-2005>
133.734832763672

> <r_mmod_Bend_Energy-OPLS-2005>
209.651336669922

> <r_mmod_Torsional_Energy-OPLS-2005>
274.505554199219

> <r_mmod_Improper_Torsional_Energy-OPLS-2005>
8.55749416351318

> <r_mmod_Van_der_Waal_Energy-OPLS-2005>
107.648452758789

> <r_mmod_Electrostatic_Energy-OPLS-2005>
-461.926605224609

> <r_mmod_Solvation_Energy-OPLS-2005>
-196.731430053711

> <b_mmod_Minimization_Converged-OPLS-2005>
0

> <r_mmod_RMS_Derivative-OPLS-2005>
4.99967241287231

$$$$
67
                    3D
 Structure written by MMmdl.
166174  0  0  1  0            999 V2000
  -30.7324  -14.4379   20.3989 C   0  0  0  0  0  0
  -30.4015  -12.2447   19.4224 C   0  0  0  0  0  0
  -29.4924  -12.4659   18.1945 C   0  0  0  0  0  0
  -28.0083  -12.3537   18.6042 C   0  0  0  0  0  0
  -27.6550  -13.2133   19.8502 C   0  0  2  0  0  0
  -28.7080  -13.0572   20.9735 C   0  0  0  0  0  0
  -25.2587  -13.8173   20.5658 C   0  0  0  0  0  0
  -24.1836  -13.0446   20.9151 C   0  0  0  0  0  0
  -24.6405  -11.6926   20.8732 C   0  0  0  0  0  0
  -23.9072  -10.4310   21.0417 C   0  0  0  0  0  0
  -24.3641   -9.4215   21.9169 C   0  0  0  0  0  0
  -23.6310   -8.2253   22.0735 C   0  0  0  0  0  0
  -22.4290   -8.0292   21.3537 C   0  0  0  0  0  0
  -21.9931   -9.0267   20.4637 C   0  0  0  0  0  0
  -22.7267  -10.2129   20.3061 C   0  0  0  0  0  0
  -21.6861   -6.0743   22.5275 C   0  0  0  0  0  0
  -21.4001   -6.5642   23.8195 C   0  0  0  0  0  0
  -21.3661   -5.6795   24.9163 C   0  0  0  0  0  0
  -21.6053   -4.3048   24.7213 C   0  0  0  0  0  0
  -21.8822   -3.8151   23.4334 C   0  0  0  0  0  0
  -21.9179   -4.6964   22.3396 C   0  0  0  0  0  0
  -22.7854  -13.5247   21.1827 C   0  0  0  0  0  0
  -22.1651   -4.2168   21.0973 F   0  0  0  0  0  0
  -21.5652   -3.4528   25.7726 F   0  0  0  0  0  0
  -30.0402  -13.2780   20.3962 N   0  0  0  0  0  0
  -26.3023  -12.9366   20.3294 N   0  0  0  0  0  0
  -25.9331  -11.6529   20.5729 N   0  0  0  0  0  0
  -22.0476  -12.8248   22.0387 N   0  0  0  0  0  0
  -25.4270  -15.1890   20.4094 N   0  0  0  0  0  0
  -31.9550  -14.5050   20.2667 O   0  0  0  0  0  0
  -21.6640   -6.8882   21.4247 O   0  0  0  0  0  0
  -22.3527  -14.5554   20.6656 O   0  0  0  0  0  0
  -24.6102  -31.8704   23.2140 C   0  0  0  0  0  0
  -25.9027  -32.4818   23.8394 C   0  0  1  0  0  0
  -27.2402  -27.4701   20.0792 C   0  0  0  0  0  0
  -25.5888  -33.8618   24.2314 N   0  0  0  0  0  0
  -23.3941  -30.4943   21.5540 C   0  0  2  0  0  0
  -24.8381  -28.9644   20.1126 C   0  0  0  0  0  0
  -22.7369  -29.4678   22.5020 C   0  0  0  0  0  0
  -18.0260  -28.1380   22.8484 C   0  0  0  0  0  0
  -24.1481  -36.7304   23.2636 C   0  0  0  0  0  0
  -25.9186  -30.8410   21.3644 C   0  0  0  0  0  0
  -25.9928  -29.4773   20.7155 C   0  0  0  0  0  0
  -27.1863  -28.7293   20.7105 C   0  0  0  0  0  0
  -26.0652  -26.9618   19.4713 C   0  0  0  0  0  0
  -24.8685  -27.7028   19.4951 C   0  0  0  0  0  0
  -23.5979  -29.8255   20.1670 C   0  0  0  0  0  0
  -25.4101  -36.3097   24.0330 C   0  0  1  0  0  0
  -20.5844  -28.3652   23.1333 C   0  0  2  0  0  0
  -20.6747  -26.9395   22.5420 C   0  0  0  0  0  0
  -19.5736  -26.6394   21.5201 C   0  0  0  0  0  0
  -18.1913  -26.7928   22.1611 C   0  0  0  0  0  0
  -19.1507  -28.8835   23.2904 C   0  0  0  0  0  0
  -18.9445  -30.1442   23.8910 C   0  0  0  0  0  0
  -17.6451  -30.6593   24.0573 C   0  0  0  0  0  0
  -25.9031  -34.9471   23.5114 C   0  0  0  0  0  0
  -16.5337  -29.9094   23.6337 C   0  0  0  0  0  0
  -16.7256  -28.6516   23.0343 C   0  0  0  0  0  0
  -26.4464  -31.6595   25.0720 C   0  0  0  0  0  0
  -25.3737  -31.3701   26.1475 C   0  0  0  0  0  0
  -27.0283  -30.3045   24.6070 C   0  0  0  0  0  0
  -27.6039  -32.4310   25.7478 C   0  0  0  0  0  0
  -27.5570  -37.1801   24.8466 C   0  0  0  0  0  0
  -21.4103  -29.3018   22.3747 N   0  0  0  0  0  0
  -26.4282  -37.3790   23.9412 N   0  0  0  0  0  0
  -24.6588  -31.0828   22.1019 N   0  0  0  0  0  0
  -23.4165  -28.8222   23.3042 O   0  0  0  0  0  0
  -28.4435  -26.8040   20.1192 O   0  0  0  0  0  0
  -26.5599  -34.8932   22.4679 O   0  0  0  0  0  0
  -23.5309  -32.1445   23.7548 O   0  0  0  0  0  0
  -29.5137  -20.4982   18.0639 C   0  0  0  0  0  0
  -30.1089  -19.6173   17.1976 C   0  0  0  0  0  0
  -30.3997  -21.6931   16.4135 C   0  0  0  0  0  0
  -30.8500  -22.8205   15.5361 C   0  0  0  0  0  0
  -31.1224  -25.8462   20.0579 C   0  0  0  0  0  0
  -30.2400  -18.1254   17.1998 C   0  0  0  0  0  0
  -29.5722  -17.3934   18.3952 C   0  0  0  0  0  0
  -30.3683  -23.8215   18.7752 C   0  0  0  0  0  0
  -29.2199  -22.9970   18.1692 C   0  0  0  0  0  0
  -30.5891  -16.4996   19.1243 C   0  0  0  0  0  0
  -28.6976  -25.7293   19.2266 C   0  0  0  0  0  0
  -29.9216  -24.9392   19.7383 C   0  0  2  0  0  0
  -29.7019  -21.7566   17.5591 N   0  0  0  0  0  0
  -30.6532  -20.3965   16.2041 N   0  3  0  0  0  0
  -30.0023  -15.4979   20.0262 N   0  0  0  0  0  0
  -31.4554  -12.2938   19.1353 H   0  0  0  0  0  0
  -30.2470  -11.2527   19.8476 H   0  0  0  0  0  0
  -29.7293  -11.7400   17.4170 H   0  0  0  0  0  0
  -29.6745  -13.4475   17.7542 H   0  0  0  0  0  0
  -27.8006  -11.3025   18.8032 H   0  0  0  0  0  0
  -27.3676  -12.6293   17.7662 H   0  0  0  0  0  0
  -27.6706  -14.2487   19.5145 H   0  0  0  0  0  0
  -28.6633  -12.0601   21.4120 H   0  0  0  0  0  0
  -28.5196  -13.7566   21.7879 H   0  0  0  0  0  0
  -25.2785   -9.5706   22.4723 H   0  0  0  0  0  0
  -24.0029   -7.4662   22.7476 H   0  0  0  0  0  0
  -21.0848   -8.8804   19.8966 H   0  0  0  0  0  0
  -22.3744  -10.9661   19.6164 H   0  0  0  0  0  0
  -21.1992   -7.6137   23.9724 H   0  0  0  0  0  0
  -21.1481   -6.0491   25.9061 H   0  0  0  0  0  0
  -22.0607   -2.7616   23.2814 H   0  0  0  0  0  0
  -22.4088  -11.9911   22.4789 H   0  0  0  0  0  0
  -21.1096  -13.1284   22.2600 H   0  0  0  0  0  0
  -24.6611  -15.8417   20.5285 H   0  0  0  0  0  0
  -26.2838  -15.6389   20.1164 H   0  0  0  0  0  0
  -26.7095  -32.5540   23.1149 H   0  0  0  0  0  0
  -25.0019  -33.9782   25.0443 H   0  0  0  0  0  0
  -22.6819  -31.3102   21.4184 H   0  0  0  0  0  0
  -23.3737  -35.9647   23.3319 H   0  0  0  0  0  0
  -24.3566  -36.8904   22.2050 H   0  0  0  0  0  0
  -23.7256  -37.6519   23.6649 H   0  0  0  0  0  0
  -26.0279  -31.6062   20.5942 H   0  0  0  0  0  0
  -26.8085  -30.8937   21.9794 H   0  0  0  0  0  0
  -28.0761  -29.1193   21.1868 H   0  0  0  0  0  0
  -26.0405  -26.0021   18.9794 H   0  0  0  0  0  0
  -23.9788  -27.3006   19.0302 H   0  0  0  0  0  0
  -23.6969  -30.5996   19.4054 H   0  0  0  0  0  0
  -22.7233  -29.2384   19.8788 H   0  0  0  0  0  0
  -25.1280  -36.1941   25.0825 H   0  0  0  0  0  0
  -20.9924  -28.3208   24.1455 H   0  0  0  0  0  0
  -20.5642  -26.2246   23.3591 H   0  0  0  0  0  0
  -21.6629  -26.7442   22.1222 H   0  0  0  0  0  0
  -19.6902  -25.6308   21.1220 H   0  0  0  0  0  0
  -19.6695  -27.3214   20.6738 H   0  0  0  0  0  0
  -17.4179  -26.6662   21.4022 H   0  0  0  0  0  0
  -18.0337  -26.0074   22.9019 H   0  0  0  0  0  0
  -19.7931  -30.7250   24.2283 H   0  0  0  0  0  0
  -17.5026  -31.6276   24.5163 H   0  0  0  0  0  0
  -15.5350  -30.3000   23.7691 H   0  0  0  0  0  0
  -15.8647  -28.0865   22.7035 H   0  0  0  0  0  0
  -24.5908  -30.7046   25.7827 H   0  0  0  0  0  0
  -24.8934  -32.2860   26.4932 H   0  0  0  0  0  0
  -25.8105  -30.8876   27.0224 H   0  0  0  0  0  0
  -26.2816  -29.6817   24.1144 H   0  0  0  0  0  0
  -27.4080  -29.7272   25.4502 H   0  0  0  0  0  0
  -27.8633  -30.4365   23.9190 H   0  0  0  0  0  0
  -27.2658  -33.3597   26.2084 H   0  0  0  0  0  0
  -28.3840  -32.6887   25.0305 H   0  0  0  0  0  0
  -28.0717  -31.8422   26.5372 H   0  0  0  0  0  0
  -28.2594  -38.0091   24.7507 H   0  0  0  0  0  0
  -28.1051  -36.2620   24.6286 H   0  0  0  0  0  0
  -27.2287  -37.1461   25.8870 H   0  0  0  0  0  0
  -20.9256  -29.8711   21.6953 H   0  0  0  0  0  0
  -26.0155  -38.2858   24.1435 H   0  0  0  0  0  0
  -28.9788  -20.3311   18.9879 H   0  0  0  0  0  0
  -31.8751  -23.0720   15.8062 H   0  0  0  0  0  0
  -30.2046  -23.6855   15.6818 H   0  0  0  0  0  0
  -30.8020  -22.5070   14.4935 H   0  0  0  0  0  0
  -31.9393  -25.2680   20.4897 H   0  0  0  0  0  0
  -30.8621  -26.6238   20.7767 H   0  0  0  0  0  0
  -31.5022  -26.3391   19.1621 H   0  0  0  0  0  0
  -31.3054  -17.8960   17.1584 H   0  0  0  0  0  0
  -29.8248  -17.7427   16.2668 H   0  0  0  0  0  0
  -28.7510  -16.7928   18.0035 H   0  0  0  0  0  0
  -29.1218  -18.0767   19.1137 H   0  0  0  0  0  0
  -30.9577  -24.2544   17.9675 H   0  0  0  0  0  0
  -31.0440  -23.1525   19.3144 H   0  0  0  0  0  0
  -28.6765  -23.5619   17.4104 H   0  0  0  0  0  0
  -28.4935  -22.7231   18.9328 H   0  0  0  0  0  0
  -31.3101  -17.1154   19.6653 H   0  0  0  0  0  0
  -31.1566  -15.9627   18.3567 H   0  0  0  0  0  0
  -27.8573  -25.0423   19.1851 H   0  0  0  0  0  0
  -28.8654  -26.1204   18.2228 H   0  0  0  0  0  0
  -29.6136  -24.4623   20.6703 H   0  0  0  0  0  0
  -31.1853  -20.0476   15.4146 H   0  0  0  0  0  0
  -28.9985  -15.4066   20.0576 H   0  0  0  0  0  0
  1 25  1  0  0  0
  1 30  2  0  0  0
  1 85  1  0  0  0
  2  3  1  0  0  0
  2 25  1  0  0  0
  2 86  1  0  0  0
  2 87  1  0  0  0
  3  4  1  0  0  0
  3 88  1  0  0  0
  3 89  1  0  0  0
  4  5  1  0  0  0
  4 90  1  0  0  0
  4 91  1  0  0  0
  5  6  1  0  0  0
  5 26  1  0  0  0
  5 92  1  0  0  0
  6 25  1  0  0  0
  6 93  1  0  0  0
  6 94  1  0  0  0
  7  8  2  0  0  0
  7 26  1  0  0  0
  7 29  1  0  0  0
  8  9  1  0  0  0
  8 22  1  0  0  0
  9 10  1  0  0  0
  9 27  2  0  0  0
 10 11  2  0  0  0
 10 15  1  0  0  0
 11 12  1  0  0  0
 11 95  1  0  0  0
 12 13  2  0  0  0
 12 96  1  0  0  0
 13 14  1  0  0  0
 13 31  1  0  0  0
 14 15  2  0  0  0
 14 97  1  0  0  0
 15 98  1  0  0  0
 16 17  2  0  0  0
 16 21  1  0  0  0
 16 31  1  0  0  0
 17 18  1  0  0  0
 17 99  1  0  0  0
 18 19  2  0  0  0
 18100  1  0  0  0
 19 20  1  0  0  0
 19 24  1  0  0  0
 20 21  2  0  0  0
 20101  1  0  0  0
 21 23  1  0  0  0
 22 28  1  0  0  0
 22 32  2  0  0  0
 26 27  1  0  0  0
 28102  1  0  0  0
 28103  1  0  0  0
 29104  1  0  0  0
 29105  1  0  0  0
 33 34  1  0  0  0
 33 66  1  0  0  0
 33 70  2  0  0  0
 34 36  1  0  0  0
 34 59  1  0  0  0
 34106  1  0  0  0
 35 44  2  0  0  0
 35 45  1  0  0  0
 35 68  1  0  0  0
 36 56  1  0  0  0
 36107  1  0  0  0
 37 39  1  0  0  0
 37 47  1  0  0  0
 37 66  1  0  0  0
 37108  1  0  0  0
 38 43  2  0  0  0
 38 46  1  0  0  0
 38 47  1  0  0  0
 39 64  1  0  0  0
 39 67  2  0  0  0
 40 52  1  0  0  0
 40 53  2  0  0  0
 40 58  1  0  0  0
 41109  1  0  0  0
 41110  1  0  0  0
 41111  1  0  0  0
 41 48  1  0  0  0
 42 43  1  0  0  0
 42 66  1  0  0  0
 42112  1  0  0  0
 42113  1  0  0  0
 43 44  1  0  0  0
 44114  1  0  0  0
 45 46  2  0  0  0
 45115  1  0  0  0
 46116  1  0  0  0
 47117  1  0  0  0
 47118  1  0  0  0
 48 56  1  0  0  0
 48 65  1  0  0  0
 48119  1  0  0  0
 49 50  1  0  0  0
 49 53  1  0  0  0
 49 64  1  0  0  0
 49120  1  0  0  0
 50 51  1  0  0  0
 50121  1  0  0  0
 50122  1  0  0  0
 51 52  1  0  0  0
 51123  1  0  0  0
 51124  1  0  0  0
 52125  1  0  0  0
 52126  1  0  0  0
 53 54  1  0  0  0
 54 55  2  0  0  0
 54127  1  0  0  0
 55 57  1  0  0  0
 55128  1  0  0  0
 56 69  2  0  0  0
 57 58  2  0  0  0
 57129  1  0  0  0
 58130  1  0  0  0
 59 60  1  0  0  0
 59 61  1  0  0  0
 59 62  1  0  0  0
 60131  1  0  0  0
 60132  1  0  0  0
 60133  1  0  0  0
 61134  1  0  0  0
 61135  1  0  0  0
 61136  1  0  0  0
 62137  1  0  0  0
 62138  1  0  0  0
 62139  1  0  0  0
 63 65  1  0  0  0
 63140  1  0  0  0
 63141  1  0  0  0
 63142  1  0  0  0
 64143  1  0  0  0
 65144  1  0  0  0
 68 81  1  0  0  0
 71 72  2  0  0  0
 71 83  1  0  0  0
 71145  1  0  0  0
 72 76  1  0  0  0
 72 84  1  0  0  0
 73 74  1  0  0  0
 73 83  1  0  0  0
 73 84  2  0  0  0
 74146  1  0  0  0
 74147  1  0  0  0
 74148  1  0  0  0
 75149  1  0  0  0
 75150  1  0  0  0
 75151  1  0  0  0
 75 82  1  0  0  0
 76 77  1  0  0  0
 76152  1  0  0  0
 76153  1  0  0  0
 77 80  1  0  0  0
 77154  1  0  0  0
 77155  1  0  0  0
 78 79  1  0  0  0
 78 82  1  0  0  0
 78156  1  0  0  0
 78157  1  0  0  0
 79 83  1  0  0  0
 79158  1  0  0  0
 79159  1  0  0  0
 80 85  1  0  0  0
 80160  1  0  0  0
 80161  1  0  0  0
 81 82  1  0  0  0
 81162  1  0  0  0
 81163  1  0  0  0
 82164  1  0  0  0
 84165  1  0  0  0
 85166  1  0  0  0
M  CHG  1  84   1
M  ISO  4   1 100  68 101  81 101  85 100
M  END
> <chiral flag>
0

> <version>
0

> <s_m_source_file>
/data/baiqing/PycharmProjects/Reinvent-master-3.2/result/LINK_invent/BTK/process_docking_weight1_custom_sum_contain_oxygen_bond_distance_aromatic_linkinvent_7_9_3/rearranged_h_0084.sdf

> <i_m_source_file_index>
68

> <r_mmod_Potential_Energy-OPLS-2005>
-47.2881088256836

> <r_mmod_Stretch_Energy-OPLS-2005>
30.0735969543457

> <r_mmod_Bend_Energy-OPLS-2005>
104.67652130127

> <r_mmod_Torsional_Energy-OPLS-2005>
256.057434082031

> <r_mmod_Improper_Torsional_Energy-OPLS-2005>
17.6274089813232

> <r_mmod_Van_der_Waal_Energy-OPLS-2005>
140.275955200195

> <r_mmod_Electrostatic_Energy-OPLS-2005>
-197.806747436523

> <r_mmod_Solvation_Energy-OPLS-2005>
-427.217620849609

> <b_mmod_Minimization_Converged-OPLS-2005>
0

> <r_mmod_RMS_Derivative-OPLS-2005>
4.22018718719482

$$$$
68
                    3D
 Structure written by MMmdl.
163171  0  0  1  0            999 V2000
  -30.7055  -14.5479   20.5894 C   0  0  0  0  0  0
  -30.4421  -12.3609   19.4278 C   0  0  0  0  0  0
  -29.5208  -12.5301   18.1983 C   0  0  0  0  0  0
  -28.0349  -12.3830   18.6001 C   0  0  0  0  0  0
  -27.6695  -13.2088   19.8653 C   0  0  2  0  0  0
  -28.7080  -12.9541   20.9729 C   0  0  0  0  0  0
  -25.2690  -13.8163   20.5650 C   0  0  0  0  0  0
  -24.1876  -13.0471   20.9111 C   0  0  0  0  0  0
  -24.6399  -11.6916   20.8670 C   0  0  0  0  0  0
  -23.9059  -10.4302   21.0375 C   0  0  0  0  0  0
  -24.3586   -9.4215   21.9165 C   0  0  0  0  0  0
  -23.6276   -8.2243   22.0768 C   0  0  0  0  0  0
  -22.4253   -8.0267   21.3536 C   0  0  0  0  0  0
  -21.9870   -9.0246   20.4660 C   0  0  0  0  0  0
  -22.7207  -10.2128   20.3048 C   0  0  0  0  0  0
  -21.6851   -6.0718   22.5277 C   0  0  0  0  0  0
  -21.4023   -6.5636   23.8218 C   0  0  0  0  0  0
  -21.3630   -5.6785   24.9181 C   0  0  0  0  0  0
  -21.6024   -4.3055   24.7231 C   0  0  0  0  0  0
  -21.8820   -3.8131   23.4359 C   0  0  0  0  0  0
  -21.9189   -4.6950   22.3412 C   0  0  0  0  0  0
  -22.7903  -13.5297   21.1751 C   0  0  0  0  0  0
  -22.1669   -4.2136   21.0977 F   0  0  0  0  0  0
  -21.5603   -3.4518   25.7732 F   0  0  0  0  0  0
  -30.0267  -13.3536   20.4466 N   0  0  0  0  0  0
  -26.3098  -12.9306   20.3287 N   0  0  0  0  0  0
  -25.9332  -11.6473   20.5632 N   0  0  0  0  0  0
  -22.0463  -12.8387   22.0306 N   0  0  0  0  0  0
  -25.4599  -15.1870   20.4069 N   0  0  0  0  0  0
  -31.8198  -14.6804   20.0707 O   0  0  0  0  0  0
  -21.6637   -6.8854   21.4244 O   0  0  0  0  0  0
  -22.3595  -14.5581   20.6553 O   0  0  0  0  0  0
  -24.6166  -31.8691   23.2163 C   0  0  0  0  0  0
  -25.9047  -32.4854   23.8444 C   0  0  1  0  0  0
  -27.2172  -27.4088   20.1059 C   0  0  0  0  0  0
  -25.5883  -33.8648   24.2373 N   0  0  0  0  0  0
  -23.4026  -30.4992   21.5573 C   0  0  2  0  0  0
  -24.8453  -28.9715   20.1147 C   0  0  0  0  0  0
  -22.7401  -29.4666   22.4998 C   0  0  0  0  0  0
  -18.0264  -28.1388   22.8486 C   0  0  0  0  0  0
  -24.1463  -36.7339   23.2642 C   0  0  0  0  0  0
  -25.9339  -30.8360   21.3630 C   0  0  0  0  0  0
  -26.0100  -29.4677   20.7091 C   0  0  0  0  0  0
  -27.2000  -28.6971   20.7004 C   0  0  0  0  0  0
  -26.0270  -26.9437   19.4948 C   0  0  0  0  0  0
  -24.8486  -27.7099   19.5018 C   0  0  0  0  0  0
  -23.6101  -29.8446   20.1672 C   0  0  0  0  0  0
  -25.4079  -36.3139   24.0358 C   0  0  1  0  0  0
  -20.5859  -28.3669   23.1313 C   0  0  2  0  0  0
  -20.6756  -26.9403   22.5420 C   0  0  0  0  0  0
  -19.5733  -26.6389   21.5207 C   0  0  0  0  0  0
  -18.1908  -26.7932   22.1612 C   0  0  0  0  0  0
  -19.1521  -28.8840   23.2895 C   0  0  0  0  0  0
  -18.9456  -30.1447   23.8920 C   0  0  0  0  0  0
  -17.6464  -30.6595   24.0573 C   0  0  0  0  0  0
  -25.9019  -34.9505   23.5161 C   0  0  0  0  0  0
  -16.5351  -29.9109   23.6332 C   0  0  0  0  0  0
  -16.7258  -28.6521   23.0354 C   0  0  0  0  0  0
  -26.4477  -31.6631   25.0767 C   0  0  0  0  0  0
  -25.3761  -31.3741   26.1542 C   0  0  0  0  0  0
  -27.0305  -30.3089   24.6107 C   0  0  0  0  0  0
  -27.6081  -32.4324   25.7501 C   0  0  0  0  0  0
  -27.5572  -37.1811   24.8460 C   0  0  0  0  0  0
  -21.4131  -29.3045   22.3734 N   0  0  0  0  0  0
  -26.4265  -37.3824   23.9436 N   0  0  0  0  0  0
  -24.6715  -31.0784   22.1061 N   0  0  0  0  0  0
  -23.4180  -28.8175   23.3009 O   0  0  0  0  0  0
  -28.3639  -26.6259   20.1514 O   0  0  0  0  0  0
  -26.5573  -34.8939   22.4721 O   0  0  0  0  0  0
  -23.5362  -32.1421   23.7563 O   0  0  0  0  0  0
  -30.5048  -22.4682   18.3336 C   0  0  0  0  0  0
  -30.0011  -21.9048   19.5274 C   0  0  0  0  0  0
  -31.3578  -21.6937   17.5264 C   0  0  0  0  0  0
  -30.3652  -20.5356   19.7753 C   0  0  0  0  0  0
  -31.8595  -22.1995   16.1897 C   0  0  0  0  0  0
  -29.3824  -15.6072   22.4017 C   0  0  0  0  0  0
  -29.0643  -22.7648   20.4056 C   0  0  0  0  0  0
  -29.8544  -19.6713   20.9432 C   0  0  0  0  0  0
  -29.3672  -24.3077   20.4842 C   0  0  0  0  0  0
  -29.4583  -18.1740   20.6261 C   0  0  0  0  0  0
  -30.5630  -17.0609   20.8297 C   0  0  0  0  0  0
  -28.1538  -25.1939   20.0976 C   0  0  0  0  0  0
  -31.7389  -20.4449   17.8729 N   0  0  0  0  0  0
  -31.2534  -19.8858   18.9821 N   0  0  0  0  0  0
  -30.0654  -15.6609   21.0963 N   0  0  0  0  0  0
  -31.4861  -12.4657   19.1271 H   0  0  0  0  0  0
  -30.3655  -11.3469   19.8234 H   0  0  0  0  0  0
  -29.7827  -11.8034   17.4286 H   0  0  0  0  0  0
  -29.6910  -13.5130   17.7513 H   0  0  0  0  0  0
  -27.8521  -11.3264   18.7934 H   0  0  0  0  0  0
  -27.3917  -12.6543   17.7620 H   0  0  0  0  0  0
  -27.7296  -14.2657   19.5946 H   0  0  0  0  0  0
  -28.7203  -11.8883   21.2081 H   0  0  0  0  0  0
  -28.4185  -13.3981   21.9158 H   0  0  0  0  0  0
  -25.2736   -9.5686   22.4777 H   0  0  0  0  0  0
  -23.9951   -7.4642   22.7518 H   0  0  0  0  0  0
  -21.0776   -8.8785   19.8997 H   0  0  0  0  0  0
  -22.3659  -10.9666   19.6153 H   0  0  0  0  0  0
  -21.2077   -7.6144   23.9721 H   0  0  0  0  0  0
  -21.1428   -6.0521   25.9084 H   0  0  0  0  0  0
  -22.0633   -2.7596   23.2873 H   0  0  0  0  0  0
  -22.3960  -12.0070   22.4808 H   0  0  0  0  0  0
  -21.1075  -13.1497   22.2371 H   0  0  0  0  0  0
  -24.7309  -15.8817   20.5207 H   0  0  0  0  0  0
  -26.3500  -15.5846   20.1299 H   0  0  0  0  0  0
  -26.7118  -32.5569   23.1210 H   0  0  0  0  0  0
  -25.0029  -33.9810   25.0516 H   0  0  0  0  0  0
  -22.6916  -31.3193   21.4303 H   0  0  0  0  0  0
  -23.3726  -35.9666   23.3291 H   0  0  0  0  0  0
  -24.3567  -36.8964   22.2056 H   0  0  0  0  0  0
  -23.7197  -37.6539   23.6656 H   0  0  0  0  0  0
  -26.0290  -31.5991   20.5900 H   0  0  0  0  0  0
  -26.8288  -30.9018   21.9707 H   0  0  0  0  0  0
  -28.0950  -29.0768   21.1731 H   0  0  0  0  0  0
  -25.9729  -25.9817   19.0100 H   0  0  0  0  0  0
  -23.9531  -27.3215   19.0394 H   0  0  0  0  0  0
  -23.7251  -30.6314   19.4199 H   0  0  0  0  0  0
  -22.7280  -29.2788   19.8630 H   0  0  0  0  0  0
  -25.1234  -36.2018   25.0847 H   0  0  0  0  0  0
  -20.9942  -28.3230   24.1430 H   0  0  0  0  0  0
  -20.5619  -26.2276   23.3605 H   0  0  0  0  0  0
  -21.6634  -26.7413   22.1241 H   0  0  0  0  0  0
  -19.6888  -25.6293   21.1248 H   0  0  0  0  0  0
  -19.6689  -27.3194   20.6729 H   0  0  0  0  0  0
  -17.4170  -26.6662   21.4027 H   0  0  0  0  0  0
  -18.0315  -26.0085   22.9019 H   0  0  0  0  0  0
  -19.7945  -30.7248   24.2300 H   0  0  0  0  0  0
  -17.5039  -31.6287   24.5165 H   0  0  0  0  0  0
  -15.5359  -30.3034   23.7667 H   0  0  0  0  0  0
  -15.8638  -28.0869   22.7064 H   0  0  0  0  0  0
  -24.5913  -30.7095   25.7906 H   0  0  0  0  0  0
  -24.8980  -32.2910   26.5007 H   0  0  0  0  0  0
  -25.8140  -30.8912   27.0293 H   0  0  0  0  0  0
  -26.2847  -29.6845   24.1180 H   0  0  0  0  0  0
  -27.4130  -29.7320   25.4537 H   0  0  0  0  0  0
  -27.8648  -30.4440   23.9219 H   0  0  0  0  0  0
  -27.2741  -33.3611   26.2128 H   0  0  0  0  0  0
  -28.3861  -32.6891   25.0301 H   0  0  0  0  0  0
  -28.0783  -31.8415   26.5370 H   0  0  0  0  0  0
  -28.2596  -38.0105   24.7530 H   0  0  0  0  0  0
  -28.1061  -36.2649   24.6238 H   0  0  0  0  0  0
  -27.2316  -37.1418   25.8870 H   0  0  0  0  0  0
  -20.9268  -29.8832   21.7032 H   0  0  0  0  0  0
  -26.0165  -38.2895   24.1490 H   0  0  0  0  0  0
  -30.2304  -23.4637   18.0161 H   0  0  0  0  0  0
  -31.6662  -23.2629   16.0603 H   0  0  0  0  0  0
  -31.3552  -21.6711   15.3818 H   0  0  0  0  0  0
  -32.9305  -22.0296   16.0895 H   0  0  0  0  0  0
  -29.5448  -16.4981   23.0080 H   0  0  0  0  0  0
  -29.7433  -14.7779   23.0113 H   0  0  0  0  0  0
  -28.3015  -15.5172   22.2617 H   0  0  0  0  0  0
  -29.0393  -22.3766   21.4224 H   0  0  0  0  0  0
  -28.0563  -22.6121   20.0163 H   0  0  0  0  0  0
  -28.9517  -20.1587   21.3104 H   0  0  0  0  0  0
  -30.5672  -19.7164   21.7630 H   0  0  0  0  0  0
  -30.2246  -24.5957   19.8769 H   0  0  0  0  0  0
  -29.6678  -24.5525   21.5054 H   0  0  0  0  0  0
  -29.0170  -18.1145   19.6293 H   0  0  0  0  0  0
  -28.6408  -17.9588   21.3139 H   0  0  0  0  0  0
  -31.2058  -17.3391   21.6680 H   0  0  0  0  0  0
  -31.2296  -17.0896   19.9596 H   0  0  0  0  0  0
  -27.3349  -24.9290   20.7699 H   0  0  0  0  0  0
  -27.8502  -24.9204   19.0870 H   0  0  0  0  0  0
  1 25  1  0  0  0
  1 30  2  0  0  0
  1 85  1  0  0  0
  2  3  1  0  0  0
  2 25  1  0  0  0
  2 86  1  0  0  0
  2 87  1  0  0  0
  3  4  1  0  0  0
  3 88  1  0  0  0
  3 89  1  0  0  0
  4  5  1  0  0  0
  4 90  1  0  0  0
  4 91  1  0  0  0
  5  6  1  0  0  0
  5 26  1  0  0  0
  5 92  1  0  0  0
  6 25  1  0  0  0
  6 93  1  0  0  0
  6 94  1  0  0  0
  7  8  2  0  0  0
  7 26  1  0  0  0
  7 29  1  0  0  0
  8  9  1  0  0  0
  8 22  1  0  0  0
  9 10  1  0  0  0
  9 27  2  0  0  0
 10 11  2  0  0  0
 10 15  1  0  0  0
 11 12  1  0  0  0
 11 95  1  0  0  0
 12 13  2  0  0  0
 12 96  1  0  0  0
 13 14  1  0  0  0
 13 31  1  0  0  0
 14 15  2  0  0  0
 14 97  1  0  0  0
 15 98  1  0  0  0
 16 17  2  0  0  0
 16 21  1  0  0  0
 16 31  1  0  0  0
 17 18  1  0  0  0
 17 99  1  0  0  0
 18 19  2  0  0  0
 18100  1  0  0  0
 19 20  1  0  0  0
 19 24  1  0  0  0
 20 21  2  0  0  0
 20101  1  0  0  0
 21 23  1  0  0  0
 22 28  1  0  0  0
 22 32  2  0  0  0
 26 27  1  0  0  0
 28102  1  0  0  0
 28103  1  0  0  0
 29104  1  0  0  0
 29105  1  0  0  0
 33 34  1  0  0  0
 33 66  1  0  0  0
 33 70  2  0  0  0
 34 36  1  0  0  0
 34 59  1  0  0  0
 34106  1  0  0  0
 35 44  2  0  0  0
 35 45  1  0  0  0
 35 68  1  0  0  0
 36 56  1  0  0  0
 36107  1  0  0  0
 37 39  1  0  0  0
 37 47  1  0  0  0
 37 66  1  0  0  0
 37108  1  0  0  0
 38 43  2  0  0  0
 38 46  1  0  0  0
 38 47  1  0  0  0
 39 64  1  0  0  0
 39 67  2  0  0  0
 40 52  1  0  0  0
 40 53  2  0  0  0
 40 58  1  0  0  0
 41109  1  0  0  0
 41110  1  0  0  0
 41111  1  0  0  0
 41 48  1  0  0  0
 42 43  1  0  0  0
 42 66  1  0  0  0
 42112  1  0  0  0
 42113  1  0  0  0
 43 44  1  0  0  0
 44114  1  0  0  0
 45 46  2  0  0  0
 45115  1  0  0  0
 46116  1  0  0  0
 47117  1  0  0  0
 47118  1  0  0  0
 48 56  1  0  0  0
 48 65  1  0  0  0
 48119  1  0  0  0
 49 50  1  0  0  0
 49 53  1  0  0  0
 49 64  1  0  0  0
 49120  1  0  0  0
 50 51  1  0  0  0
 50121  1  0  0  0
 50122  1  0  0  0
 51 52  1  0  0  0
 51123  1  0  0  0
 51124  1  0  0  0
 52125  1  0  0  0
 52126  1  0  0  0
 53 54  1  0  0  0
 54 55  2  0  0  0
 54127  1  0  0  0
 55 57  1  0  0  0
 55128  1  0  0  0
 56 69  2  0  0  0
 57 58  2  0  0  0
 57129  1  0  0  0
 58130  1  0  0  0
 59 60  1  0  0  0
 59 61  1  0  0  0
 59 62  1  0  0  0
 60131  1  0  0  0
 60132  1  0  0  0
 60133  1  0  0  0
 61134  1  0  0  0
 61135  1  0  0  0
 61136  1  0  0  0
 62137  1  0  0  0
 62138  1  0  0  0
 62139  1  0  0  0
 63 65  1  0  0  0
 63140  1  0  0  0
 63141  1  0  0  0
 63142  1  0  0  0
 64143  1  0  0  0
 65144  1  0  0  0
 68 82  1  0  0  0
 71 72  2  0  0  0
 71 73  1  0  0  0
 71145  1  0  0  0
 72 74  1  0  0  0
 72 77  1  0  0  0
 73 75  1  0  0  0
 73 83  2  0  0  0
 74 78  1  0  0  0
 74 84  2  0  0  0
 75146  1  0  0  0
 75147  1  0  0  0
 75148  1  0  0  0
 76 85  1  0  0  0
 76149  1  0  0  0
 76150  1  0  0  0
 76151  1  0  0  0
 77 79  1  0  0  0
 77152  1  0  0  0
 77153  1  0  0  0
 78 80  1  0  0  0
 78154  1  0  0  0
 78155  1  0  0  0
 79 82  1  0  0  0
 79156  1  0  0  0
 79157  1  0  0  0
 80 81  1  0  0  0
 80158  1  0  0  0
 80159  1  0  0  0
 81 85  1  0  0  0
 81160  1  0  0  0
 81161  1  0  0  0
 82162  1  0  0  0
 82163  1  0  0  0
 83 84  1  0  0  0
M  ISO  4   1 100  68 101  82 101  85 100
M  END
> <chiral flag>
0

> <version>
0

> <s_m_source_file>
/data/baiqing/PycharmProjects/Reinvent-master-3.2/result/LINK_invent/BTK/process_docking_weight1_custom_sum_contain_oxygen_bond_distance_aromatic_linkinvent_7_9_3/rearranged_h_0084.sdf

> <i_m_source_file_index>
69

> <r_mmod_Potential_Energy-OPLS-2005>
164.404235839844

> <r_mmod_Stretch_Energy-OPLS-2005>
64.9844207763672

> <r_mmod_Bend_Energy-OPLS-2005>
138.667541503906

> <r_mmod_Torsional_Energy-OPLS-2005>
274.829406738281

> <r_mmod_Improper_Torsional_Energy-OPLS-2005>
7.64169836044312

> <r_mmod_Van_der_Waal_Energy-OPLS-2005>
171.71516418457

> <r_mmod_Electrostatic_Energy-OPLS-2005>
-285.823760986328

> <r_mmod_Solvation_Energy-OPLS-2005>
-228.546875

> <b_mmod_Minimization_Converged-OPLS-2005>
0

> <r_mmod_RMS_Derivative-OPLS-2005>
5.69703149795532

$$$$
69
                    3D
 Structure written by MMmdl.
169177  0  0  1  0            999 V2000
  -30.6809  -14.4670   20.5297 C   0  0  0  0  0  0
  -30.4246  -12.2858   19.4331 C   0  0  0  0  0  0
  -29.4993  -12.4928   18.2143 C   0  0  0  0  0  0
  -28.0185  -12.3587   18.6225 C   0  0  0  0  0  0
  -27.6636  -13.1995   19.8781 C   0  0  2  0  0  0
  -28.7046  -12.9801   21.0032 C   0  0  0  0  0  0
  -25.2603  -13.8143   20.5680 C   0  0  0  0  0  0
  -24.1846  -13.0435   20.9174 C   0  0  0  0  0  0
  -24.6388  -11.6899   20.8738 C   0  0  0  0  0  0
  -23.9050  -10.4288   21.0404 C   0  0  0  0  0  0
  -24.3605   -9.4203   21.9184 C   0  0  0  0  0  0
  -23.6283   -8.2239   22.0754 C   0  0  0  0  0  0
  -22.4265   -8.0275   21.3541 C   0  0  0  0  0  0
  -21.9897   -9.0250   20.4645 C   0  0  0  0  0  0
  -22.7224  -10.2131   20.3054 C   0  0  0  0  0  0
  -21.6850   -6.0731   22.5278 C   0  0  0  0  0  0
  -21.4015   -6.5638   23.8211 C   0  0  0  0  0  0
  -21.3657   -5.6791   24.9175 C   0  0  0  0  0  0
  -21.6041   -4.3054   24.7227 C   0  0  0  0  0  0
  -21.8821   -3.8146   23.4348 C   0  0  0  0  0  0
  -21.9194   -4.6960   22.3403 C   0  0  0  0  0  0
  -22.7869  -13.5239   21.1842 C   0  0  0  0  0  0
  -22.1661   -4.2146   21.0981 F   0  0  0  0  0  0
  -21.5628   -3.4538   25.7741 F   0  0  0  0  0  0
  -30.0400  -13.2711   20.4546 N   0  0  0  0  0  0
  -26.3032  -12.9302   20.3374 N   0  0  0  0  0  0
  -25.9313  -11.6469   20.5774 N   0  0  0  0  0  0
  -22.0507  -12.8231   22.0395 N   0  0  0  0  0  0
  -25.4336  -15.1863   20.4083 N   0  0  0  0  0  0
  -31.8201  -14.6540   20.0937 O   0  0  0  0  0  0
  -21.6633   -6.8871   21.4237 O   0  0  0  0  0  0
  -22.3556  -14.5549   20.6692 O   0  0  0  0  0  0
  -24.6132  -31.8693   23.2112 C   0  0  0  0  0  0
  -25.9031  -32.4827   23.8403 C   0  0  1  0  0  0
  -27.2350  -27.4456   20.1068 C   0  0  0  0  0  0
  -25.5889  -33.8624   24.2330 N   0  0  0  0  0  0
  -23.4018  -30.4917   21.5519 C   0  0  2  0  0  0
  -24.8509  -28.9575   20.1182 C   0  0  0  0  0  0
  -22.7407  -29.4662   22.5003 C   0  0  0  0  0  0
  -18.0266  -28.1375   22.8490 C   0  0  0  0  0  0
  -24.1490  -36.7322   23.2640 C   0  0  0  0  0  0
  -25.9294  -30.8373   21.3651 C   0  0  0  0  0  0
  -26.0085  -29.4699   20.7194 C   0  0  0  0  0  0
  -27.2050  -28.7189   20.7169 C   0  0  0  0  0  0
  -26.0694  -26.9487   19.4900 C   0  0  0  0  0  0
  -24.8743  -27.6931   19.5030 C   0  0  0  0  0  0
  -23.6115  -29.8224   20.1672 C   0  0  0  0  0  0
  -25.4107  -36.3109   24.0338 C   0  0  1  0  0  0
  -20.5857  -28.3664   23.1325 C   0  0  2  0  0  0
  -20.6759  -26.9404   22.5423 C   0  0  0  0  0  0
  -19.5740  -26.6384   21.5213 C   0  0  0  0  0  0
  -18.1916  -26.7924   22.1621 C   0  0  0  0  0  0
  -19.1516  -28.8834   23.2904 C   0  0  0  0  0  0
  -18.9448  -30.1439   23.8917 C   0  0  0  0  0  0
  -17.6451  -30.6589   24.0561 C   0  0  0  0  0  0
  -25.9033  -34.9476   23.5129 C   0  0  0  0  0  0
  -16.5341  -29.9088   23.6327 C   0  0  0  0  0  0
  -16.7255  -28.6501   23.0348 C   0  0  0  0  0  0
  -26.4465  -31.6598   25.0723 C   0  0  0  0  0  0
  -25.3734  -31.3685   26.1471 C   0  0  0  0  0  0
  -27.0295  -30.3045   24.6082 C   0  0  0  0  0  0
  -27.6049  -32.4314   25.7475 C   0  0  0  0  0  0
  -27.5586  -37.1806   24.8466 C   0  0  0  0  0  0
  -21.4135  -29.3030   22.3736 N   0  0  0  0  0  0
  -26.4297  -37.3787   23.9412 N   0  0  0  0  0  0
  -24.6665  -31.0804   22.1011 N   0  0  0  0  0  0
  -23.4184  -28.8211   23.3046 O   0  0  0  0  0  0
  -28.3895  -26.7009   20.0666 O   0  0  0  0  0  0
  -26.5600  -34.8923   22.4696 O   0  0  0  0  0  0
  -23.5325  -32.1440   23.7511 O   0  0  0  0  0  0
  -28.7096  -21.1063   21.9551 C   0  0  0  0  0  0
  -29.0107  -22.4701   22.1020 C   0  0  0  0  0  0
  -29.7854  -20.2033   21.9405 C   0  0  0  0  0  0
  -31.2395  -21.9596   22.1637 C   0  0  0  0  0  0
  -33.1722  -22.0299   19.6675 C   0  0  0  0  0  0
  -29.6969  -18.0524   23.2673 C   0  0  0  0  0  0
  -27.9181  -23.5248   22.2336 C   0  0  0  0  0  0
  -32.6764  -22.4552   22.1756 C   0  0  0  0  0  0
  -33.1375  -23.0403   20.8249 C   0  0  0  0  0  0
  -27.7798  -24.4874   21.0317 C   0  0  0  0  0  0
  -30.4892  -18.0007   20.8338 C   0  0  0  0  0  0
  -29.9000  -16.7759   20.0981 C   0  0  0  0  0  0
  -28.5809  -25.8042   21.1688 C   0  0  0  0  0  0
  -29.5686  -18.6874   21.8749 C   0  0  2  0  0  0
  -30.2854  -22.8868   22.2016 N   0  0  0  0  0  0
  -31.0510  -20.6472   22.0593 N   0  0  0  0  0  0
  -29.8808  -15.5035   20.8367 N   0  0  0  0  0  0
  -31.4707  -12.3784   19.1362 H   0  0  0  0  0  0
  -30.3165  -11.2751   19.8295 H   0  0  0  0  0  0
  -29.7368  -11.7688   17.4338 H   0  0  0  0  0  0
  -29.6728  -13.4782   17.7795 H   0  0  0  0  0  0
  -27.8248  -11.3034   18.8188 H   0  0  0  0  0  0
  -27.3707  -12.6349   17.7897 H   0  0  0  0  0  0
  -27.7067  -14.2454   19.5746 H   0  0  0  0  0  0
  -28.6726  -11.9478   21.3549 H   0  0  0  0  0  0
  -28.4770  -13.5942   21.8759 H   0  0  0  0  0  0
  -25.2755   -9.5680   22.4754 H   0  0  0  0  0  0
  -23.9996   -7.4629   22.7473 H   0  0  0  0  0  0
  -21.0832   -8.8764   19.8953 H   0  0  0  0  0  0
  -22.3682  -10.9667   19.6160 H   0  0  0  0  0  0
  -21.2007   -7.6148   23.9713 H   0  0  0  0  0  0
  -21.1477   -6.0523   25.9076 H   0  0  0  0  0  0
  -22.0603   -2.7607   23.2851 H   0  0  0  0  0  0
  -22.4119  -11.9884   22.4777 H   0  0  0  0  0  0
  -21.1127  -13.1259   22.2608 H   0  0  0  0  0  0
  -24.6664  -15.8414   20.5131 H   0  0  0  0  0  0
  -26.2837  -15.6241   20.0777 H   0  0  0  0  0  0
  -26.7111  -32.5558   23.1177 H   0  0  0  0  0  0
  -25.0018  -33.9787   25.0462 H   0  0  0  0  0  0
  -22.6905  -31.3081   21.4125 H   0  0  0  0  0  0
  -23.3742  -35.9670   23.3311 H   0  0  0  0  0  0
  -24.3584  -36.8929   22.2056 H   0  0  0  0  0  0
  -23.7259  -37.6533   23.6651 H   0  0  0  0  0  0
  -26.0404  -31.5998   20.5928 H   0  0  0  0  0  0
  -26.8182  -30.8943   21.9814 H   0  0  0  0  0  0
  -28.1011  -29.1104   21.1780 H   0  0  0  0  0  0
  -26.0877  -25.9838   19.0038 H   0  0  0  0  0  0
  -23.9857  -27.2937   19.0345 H   0  0  0  0  0  0
  -23.7184  -30.5965   19.4066 H   0  0  0  0  0  0
  -22.7353  -29.2406   19.8735 H   0  0  0  0  0  0
  -25.1280  -36.1968   25.0829 H   0  0  0  0  0  0
  -20.9947  -28.3232   24.1445 H   0  0  0  0  0  0
  -20.5678  -26.2266   23.3603 H   0  0  0  0  0  0
  -21.6630  -26.7457   22.1207 H   0  0  0  0  0  0
  -19.6910  -25.6299   21.1231 H   0  0  0  0  0  0
  -19.6687  -27.3209   20.6756 H   0  0  0  0  0  0
  -17.4190  -26.6672   21.4021 H   0  0  0  0  0  0
  -18.0314  -26.0065   22.9011 H   0  0  0  0  0  0
  -19.7927  -30.7238   24.2311 H   0  0  0  0  0  0
  -17.5010  -31.6279   24.5149 H   0  0  0  0  0  0
  -15.5342  -30.2993   23.7654 H   0  0  0  0  0  0
  -15.8647  -28.0831   22.7057 H   0  0  0  0  0  0
  -24.5912  -30.7027   25.7798 H   0  0  0  0  0  0
  -24.8913  -32.2827   26.4944 H   0  0  0  0  0  0
  -25.8091  -30.8833   27.0212 H   0  0  0  0  0  0
  -26.2831  -29.6792   24.1162 H   0  0  0  0  0  0
  -27.4104  -29.7284   25.4522 H   0  0  0  0  0  0
  -27.8645  -30.4377   23.9202 H   0  0  0  0  0  0
  -27.2688  -33.3614   26.2075 H   0  0  0  0  0  0
  -28.3840  -32.6870   25.0281 H   0  0  0  0  0  0
  -28.0734  -31.8417   26.5365 H   0  0  0  0  0  0
  -28.2594  -38.0109   24.7508 H   0  0  0  0  0  0
  -28.1083  -36.2635   24.6289 H   0  0  0  0  0  0
  -27.2303  -37.1458   25.8868 H   0  0  0  0  0  0
  -20.9301  -29.8737   21.6942 H   0  0  0  0  0  0
  -26.0184  -38.2869   24.1392 H   0  0  0  0  0  0
  -27.6859  -20.7594   21.8949 H   0  0  0  0  0  0
  -33.5238  -22.5050   18.7505 H   0  0  0  0  0  0
  -32.1815  -21.6193   19.4655 H   0  0  0  0  0  0
  -33.8409  -21.1972   19.8872 H   0  0  0  0  0  0
  -28.9976  -18.5099   23.9673 H   0  0  0  0  0  0
  -30.7025  -18.1854   23.6671 H   0  0  0  0  0  0
  -29.4855  -16.9841   23.2392 H   0  0  0  0  0  0
  -28.0642  -24.0840   23.1588 H   0  0  0  0  0  0
  -26.9730  -22.9976   22.3656 H   0  0  0  0  0  0
  -33.3418  -21.6425   22.4713 H   0  0  0  0  0  0
  -32.7728  -23.2139   22.9528 H   0  0  0  0  0  0
  -32.4862  -23.8735   20.5589 H   0  0  0  0  0  0
  -34.1344  -23.4618   20.9501 H   0  0  0  0  0  0
  -26.7245  -24.7463   20.9626 H   0  0  0  0  0  0
  -28.0226  -23.9711   20.1028 H   0  0  0  0  0  0
  -30.6841  -18.7358   20.0510 H   0  0  0  0  0  0
  -31.4684  -17.7816   21.2611 H   0  0  0  0  0  0
  -30.4510  -16.6441   19.1641 H   0  0  0  0  0  0
  -28.8794  -16.9953   19.7832 H   0  0  0  0  0  0
  -29.6453  -25.5744   21.2254 H   0  0  0  0  0  0
  -28.3298  -26.3074   22.1048 H   0  0  0  0  0  0
  -28.5390  -18.5478   21.5433 H   0  0  0  0  0  0
  -28.9917  -15.2430   21.2373 H   0  0  0  0  0  0
  1 25  1  0  0  0
  1 30  2  0  0  0
  1 87  1  0  0  0
  2  3  1  0  0  0
  2 25  1  0  0  0
  2 88  1  0  0  0
  2 89  1  0  0  0
  3  4  1  0  0  0
  3 90  1  0  0  0
  3 91  1  0  0  0
  4  5  1  0  0  0
  4 92  1  0  0  0
  4 93  1  0  0  0
  5  6  1  0  0  0
  5 26  1  0  0  0
  5 94  1  0  0  0
  6 25  1  0  0  0
  6 95  1  0  0  0
  6 96  1  0  0  0
  7  8  2  0  0  0
  7 26  1  0  0  0
  7 29  1  0  0  0
  8  9  1  0  0  0
  8 22  1  0  0  0
  9 10  1  0  0  0
  9 27  2  0  0  0
 10 11  2  0  0  0
 10 15  1  0  0  0
 11 12  1  0  0  0
 11 97  1  0  0  0
 12 13  2  0  0  0
 12 98  1  0  0  0
 13 14  1  0  0  0
 13 31  1  0  0  0
 14 15  2  0  0  0
 14 99  1  0  0  0
 15100  1  0  0  0
 16 17  2  0  0  0
 16 21  1  0  0  0
 16 31  1  0  0  0
 17 18  1  0  0  0
 17101  1  0  0  0
 18 19  2  0  0  0
 18102  1  0  0  0
 19 20  1  0  0  0
 19 24  1  0  0  0
 20 21  2  0  0  0
 20103  1  0  0  0
 21 23  1  0  0  0
 22 28  1  0  0  0
 22 32  2  0  0  0
 26 27  1  0  0  0
 28104  1  0  0  0
 28105  1  0  0  0
 29106  1  0  0  0
 29107  1  0  0  0
 33 34  1  0  0  0
 33 66  1  0  0  0
 33 70  2  0  0  0
 34 36  1  0  0  0
 34 59  1  0  0  0
 34108  1  0  0  0
 35 44  2  0  0  0
 35 45  1  0  0  0
 35 68  1  0  0  0
 36 56  1  0  0  0
 36109  1  0  0  0
 37 39  1  0  0  0
 37 47  1  0  0  0
 37 66  1  0  0  0
 37110  1  0  0  0
 38 43  2  0  0  0
 38 46  1  0  0  0
 38 47  1  0  0  0
 39 64  1  0  0  0
 39 67  2  0  0  0
 40 52  1  0  0  0
 40 53  2  0  0  0
 40 58  1  0  0  0
 41111  1  0  0  0
 41112  1  0  0  0
 41113  1  0  0  0
 41 48  1  0  0  0
 42 43  1  0  0  0
 42 66  1  0  0  0
 42114  1  0  0  0
 42115  1  0  0  0
 43 44  1  0  0  0
 44116  1  0  0  0
 45 46  2  0  0  0
 45117  1  0  0  0
 46118  1  0  0  0
 47119  1  0  0  0
 47120  1  0  0  0
 48 56  1  0  0  0
 48 65  1  0  0  0
 48121  1  0  0  0
 49 50  1  0  0  0
 49 53  1  0  0  0
 49 64  1  0  0  0
 49122  1  0  0  0
 50 51  1  0  0  0
 50123  1  0  0  0
 50124  1  0  0  0
 51 52  1  0  0  0
 51125  1  0  0  0
 51126  1  0  0  0
 52127  1  0  0  0
 52128  1  0  0  0
 53 54  1  0  0  0
 54 55  2  0  0  0
 54129  1  0  0  0
 55 57  1  0  0  0
 55130  1  0  0  0
 56 69  2  0  0  0
 57 58  2  0  0  0
 57131  1  0  0  0
 58132  1  0  0  0
 59 60  1  0  0  0
 59 61  1  0  0  0
 59 62  1  0  0  0
 60133  1  0  0  0
 60134  1  0  0  0
 60135  1  0  0  0
 61136  1  0  0  0
 61137  1  0  0  0
 61138  1  0  0  0
 62139  1  0  0  0
 62140  1  0  0  0
 62141  1  0  0  0
 63 65  1  0  0  0
 63142  1  0  0  0
 63143  1  0  0  0
 63144  1  0  0  0
 64145  1  0  0  0
 65146  1  0  0  0
 68 83  1  0  0  0
 71 72  2  0  0  0
 71 73  1  0  0  0
 71147  1  0  0  0
 72 77  1  0  0  0
 72 85  1  0  0  0
 73 84  1  0  0  0
 73 86  2  0  0  0
 74 78  1  0  0  0
 74 85  2  0  0  0
 74 86  1  0  0  0
 75 79  1  0  0  0
 75148  1  0  0  0
 75149  1  0  0  0
 75150  1  0  0  0
 76151  1  0  0  0
 76152  1  0  0  0
 76153  1  0  0  0
 76 84  1  0  0  0
 77 80  1  0  0  0
 77154  1  0  0  0
 77155  1  0  0  0
 78 79  1  0  0  0
 78156  1  0  0  0
 78157  1  0  0  0
 79158  1  0  0  0
 79159  1  0  0  0
 80 83  1  0  0  0
 80160  1  0  0  0
 80161  1  0  0  0
 81 82  1  0  0  0
 81 84  1  0  0  0
 81162  1  0  0  0
 81163  1  0  0  0
 82 87  1  0  0  0
 82164  1  0  0  0
 82165  1  0  0  0
 83166  1  0  0  0
 83167  1  0  0  0
 84168  1  0  0  0
 87169  1  0  0  0
M  ISO  4   1 100  68 101  83 101  87 100
M  END
> <chiral flag>
0

> <version>
0

> <s_m_source_file>
/data/baiqing/PycharmProjects/Reinvent-master-3.2/result/LINK_invent/BTK/process_docking_weight1_custom_sum_contain_oxygen_bond_distance_aromatic_linkinvent_7_9_3/rearranged_h_0084.sdf

> <i_m_source_file_index>
70

> <r_mmod_Potential_Energy-OPLS-2005>
-509.445587158203

> <r_mmod_Stretch_Energy-OPLS-2005>
33.8373603820801

> <r_mmod_Bend_Energy-OPLS-2005>
99.3807678222656

> <r_mmod_Torsional_Energy-OPLS-2005>
230.855087280273

> <r_mmod_Improper_Torsional_Energy-OPLS-2005>
9.8558177947998

> <r_mmod_Van_der_Waal_Energy-OPLS-2005>
149.500061035156

> <r_mmod_Electrostatic_Energy-OPLS-2005>
-817.317260742188

> <r_mmod_Solvation_Energy-OPLS-2005>
-227.518371582031

> <b_mmod_Minimization_Converged-OPLS-2005>
0

> <r_mmod_RMS_Derivative-OPLS-2005>
0.94062066078186

$$$$
70
                    3D
 Structure written by MMmdl.
163171  0  0  1  0            999 V2000
  -30.6497  -14.5502   20.5256 C   0  0  0  0  0  0
  -30.4299  -12.3425   19.4366 C   0  0  0  0  0  0
  -29.5026  -12.5116   18.2141 C   0  0  0  0  0  0
  -28.0212  -12.3645   18.6167 C   0  0  0  0  0  0
  -27.6577  -13.2116   19.8658 C   0  0  2  0  0  0
  -28.6976  -13.0203   20.9909 C   0  0  0  0  0  0
  -25.2584  -13.8175   20.5624 C   0  0  0  0  0  0
  -24.1841  -13.0451   20.9138 C   0  0  0  0  0  0
  -24.6411  -11.6920   20.8704 C   0  0  0  0  0  0
  -23.9078  -10.4302   21.0371 C   0  0  0  0  0  0
  -24.3625   -9.4221   21.9156 C   0  0  0  0  0  0
  -23.6312   -8.2254   22.0733 C   0  0  0  0  0  0
  -22.4296   -8.0281   21.3529 C   0  0  0  0  0  0
  -21.9923   -9.0252   20.4623 C   0  0  0  0  0  0
  -22.7238  -10.2146   20.3032 C   0  0  0  0  0  0
  -21.6865   -6.0722   22.5275 C   0  0  0  0  0  0
  -21.4016   -6.5619   23.8208 C   0  0  0  0  0  0
  -21.3662   -5.6782   24.9172 C   0  0  0  0  0  0
  -21.6057   -4.3046   24.7213 C   0  0  0  0  0  0
  -21.8827   -3.8125   23.4336 C   0  0  0  0  0  0
  -21.9197   -4.6948   22.3393 C   0  0  0  0  0  0
  -22.7862  -13.5230   21.1814 C   0  0  0  0  0  0
  -22.1653   -4.2128   21.0970 F   0  0  0  0  0  0
  -21.5648   -3.4528   25.7719 F   0  0  0  0  0  0
  -30.0207  -13.3406   20.4404 N   0  0  0  0  0  0
  -26.3011  -12.9338   20.3297 N   0  0  0  0  0  0
  -25.9333  -11.6504   20.5725 N   0  0  0  0  0  0
  -22.0523  -12.8230   22.0394 N   0  0  0  0  0  0
  -25.4350  -15.1884   20.4005 N   0  0  0  0  0  0
  -31.8254  -14.6772   20.1615 O   0  0  0  0  0  0
  -21.6661   -6.8871   21.4235 O   0  0  0  0  0  0
  -22.3538  -14.5523   20.6653 O   0  0  0  0  0  0
  -24.6165  -31.8662   23.2075 C   0  0  0  0  0  0
  -25.9043  -32.4814   23.8373 C   0  0  1  0  0  0
  -27.2256  -27.4032   20.1102 C   0  0  0  0  0  0
  -25.5896  -33.8614   24.2320 N   0  0  0  0  0  0
  -23.4047  -30.4908   21.5489 C   0  0  2  0  0  0
  -24.8513  -28.9551   20.1100 C   0  0  0  0  0  0
  -22.7426  -29.4641   22.4965 C   0  0  0  0  0  0
  -18.0274  -28.1352   22.8499 C   0  0  0  0  0  0
  -24.1495  -36.7310   23.2641 C   0  0  0  0  0  0
  -25.9368  -30.8261   21.3611 C   0  0  0  0  0  0
  -26.0143  -29.4585   20.7082 C   0  0  0  0  0  0
  -27.2076  -28.6930   20.6988 C   0  0  0  0  0  0
  -26.0488  -26.9270   19.4945 C   0  0  0  0  0  0
  -24.8657  -27.6912   19.4949 C   0  0  0  0  0  0
  -23.6132  -29.8245   20.1620 C   0  0  0  0  0  0
  -25.4110  -36.3101   24.0341 C   0  0  1  0  0  0
  -20.5868  -28.3629   23.1320 C   0  0  2  0  0  0
  -20.6771  -26.9363   22.5412 C   0  0  0  0  0  0
  -19.5750  -26.6355   21.5207 C   0  0  0  0  0  0
  -18.1924  -26.7901   22.1614 C   0  0  0  0  0  0
  -19.1528  -28.8809   23.2908 C   0  0  0  0  0  0
  -18.9457  -30.1420   23.8903 C   0  0  0  0  0  0
  -17.6458  -30.6566   24.0557 C   0  0  0  0  0  0
  -25.9031  -34.9473   23.5132 C   0  0  0  0  0  0
  -16.5351  -29.9071   23.6317 C   0  0  0  0  0  0
  -16.7266  -28.6481   23.0346 C   0  0  0  0  0  0
  -26.4467  -31.6600   25.0707 C   0  0  0  0  0  0
  -25.3738  -31.3719   26.1460 C   0  0  0  0  0  0
  -27.0293  -30.3054   24.6052 C   0  0  0  0  0  0
  -27.6044  -32.4309   25.7470 C   0  0  0  0  0  0
  -27.5582  -37.1804   24.8462 C   0  0  0  0  0  0
  -21.4145  -29.3016   22.3727 N   0  0  0  0  0  0
  -26.4297  -37.3784   23.9411 N   0  0  0  0  0  0
  -24.6717  -31.0749   22.0977 N   0  0  0  0  0  0
  -23.4215  -28.8176   23.2991 O   0  0  0  0  0  0
  -28.3656  -26.6185   20.1162 O   0  0  0  0  0  0
  -26.5585  -34.8931   22.4685 O   0  0  0  0  0  0
  -23.5350  -32.1409   23.7471 O   0  0  0  0  0  0
  -29.2786  -18.5567   18.4347 C   0  0  0  0  0  0
  -29.4296  -17.3486   17.7110 C   0  0  0  0  0  0
  -29.3856  -18.2073   19.7540 C   0  0  0  0  0  0
  -29.3565  -17.1212   16.2314 C   0  0  0  0  0  0
  -31.3208  -22.1259   19.8331 C   0  0  0  0  0  0
  -29.1420  -19.1112   20.9511 C   0  0  0  0  0  0
  -29.8634  -15.8631   20.8980 C   0  0  0  0  0  0
  -30.0594  -20.3652   21.1371 C   0  0  0  0  0  0
  -29.0465  -24.1764   20.0602 C   0  0  0  0  0  0
  -29.0846  -22.8162   20.8473 C   0  0  0  0  0  0
  -28.2325  -25.3160   20.7465 C   0  0  0  0  0  0
  -29.9093  -21.6349   20.2150 C   0  0  1  0  0  0
  -29.6319  -16.3263   18.5154 N   0  0  0  0  0  0
  -29.6642  -16.8221   19.7779 N   0  0  0  0  0  0
  -31.4723  -12.4561   19.1339 H   0  0  0  0  0  0
  -30.3463  -11.3352   19.8449 H   0  0  0  0  0  0
  -29.7586  -11.7858   17.4412 H   0  0  0  0  0  0
  -29.6625  -13.4970   17.7725 H   0  0  0  0  0  0
  -27.8298  -11.3082   18.8094 H   0  0  0  0  0  0
  -27.3776  -12.6379   17.7796 H   0  0  0  0  0  0
  -27.6926  -14.2561   19.5564 H   0  0  0  0  0  0
  -28.6894  -11.9857   21.3384 H   0  0  0  0  0  0
  -28.4587  -13.6238   21.8663 H   0  0  0  0  0  0
  -25.2784   -9.5691   22.4716 H   0  0  0  0  0  0
  -24.0013   -7.4655   22.7468 H   0  0  0  0  0  0
  -21.0844   -8.8776   19.8944 H   0  0  0  0  0  0
  -22.3691  -10.9678   19.6131 H   0  0  0  0  0  0
  -21.2004   -7.6138   23.9698 H   0  0  0  0  0  0
  -21.1476   -6.0508   25.9078 H   0  0  0  0  0  0
  -22.0604   -2.7585   23.2845 H   0  0  0  0  0  0
  -22.4148  -11.9900   22.4785 H   0  0  0  0  0  0
  -21.1127  -13.1219   22.2598 H   0  0  0  0  0  0
  -24.6762  -15.8520   20.5034 H   0  0  0  0  0  0
  -26.2945  -15.6169   20.0774 H   0  0  0  0  0  0
  -26.7113  -32.5522   23.1136 H   0  0  0  0  0  0
  -25.0080  -33.9779   25.0480 H   0  0  0  0  0  0
  -22.6924  -31.3067   21.4113 H   0  0  0  0  0  0
  -23.3758  -35.9639   23.3293 H   0  0  0  0  0  0
  -24.3594  -36.8917   22.2054 H   0  0  0  0  0  0
  -23.7246  -37.6518   23.6657 H   0  0  0  0  0  0
  -26.0463  -31.5936   20.5928 H   0  0  0  0  0  0
  -26.8275  -30.8833   21.9757 H   0  0  0  0  0  0
  -28.1052  -29.0773   21.1609 H   0  0  0  0  0  0
  -26.0435  -25.9576   19.0154 H   0  0  0  0  0  0
  -23.9746  -27.3022   19.0204 H   0  0  0  0  0  0
  -23.7178  -30.6028   19.4047 H   0  0  0  0  0  0
  -22.7370  -29.2448   19.8661 H   0  0  0  0  0  0
  -25.1291  -36.1954   25.0834 H   0  0  0  0  0  0
  -20.9959  -28.3170   24.1440 H   0  0  0  0  0  0
  -20.5643  -26.2230   23.3589 H   0  0  0  0  0  0
  -21.6643  -26.7388   22.1215 H   0  0  0  0  0  0
  -19.6910  -25.6270   21.1220 H   0  0  0  0  0  0
  -19.6703  -27.3183   20.6754 H   0  0  0  0  0  0
  -17.4197  -26.6644   21.4009 H   0  0  0  0  0  0
  -18.0324  -26.0037   22.9002 H   0  0  0  0  0  0
  -19.7943  -30.7230   24.2260 H   0  0  0  0  0  0
  -17.5027  -31.6251   24.5149 H   0  0  0  0  0  0
  -15.5353  -30.2982   23.7637 H   0  0  0  0  0  0
  -15.8661  -28.0812   22.7052 H   0  0  0  0  0  0
  -24.5903  -30.7065   25.7818 H   0  0  0  0  0  0
  -24.8948  -32.2893   26.4905 H   0  0  0  0  0  0
  -25.8099  -30.8906   27.0221 H   0  0  0  0  0  0
  -26.2836  -29.6815   24.1118 H   0  0  0  0  0  0
  -27.4114  -29.7277   25.4475 H   0  0  0  0  0  0
  -27.8645  -30.4409   23.9174 H   0  0  0  0  0  0
  -27.2674  -33.3602   26.2076 H   0  0  0  0  0  0
  -28.3856  -32.6854   25.0296 H   0  0  0  0  0  0
  -28.0710  -31.8404   26.5365 H   0  0  0  0  0  0
  -28.2592  -38.0108   24.7506 H   0  0  0  0  0  0
  -28.1081  -36.2633   24.6288 H   0  0  0  0  0  0
  -27.2300  -37.1449   25.8865 H   0  0  0  0  0  0
  -20.9260  -29.8792   21.7026 H   0  0  0  0  0  0
  -26.0180  -38.2857   24.1415 H   0  0  0  0  0  0
  -29.0678  -19.5365   18.0292 H   0  0  0  0  0  0
  -30.0377  -17.7869   15.7019 H   0  0  0  0  0  0
  -28.3496  -17.3071   15.8573 H   0  0  0  0  0  0
  -29.6216  -16.0968   15.9650 H   0  0  0  0  0  0
  -31.9408  -21.3181   19.4434 H   0  0  0  0  0  0
  -31.8393  -22.5502   20.6961 H   0  0  0  0  0  0
  -31.2898  -22.8883   19.0556 H   0  0  0  0  0  0
  -29.2199  -18.5057   21.8540 H   0  0  0  0  0  0
  -28.1038  -19.4460   20.9305 H   0  0  0  0  0  0
  -28.8846  -15.6544   21.3221 H   0  0  0  0  0  0
  -30.4250  -16.3746   21.6793 H   0  0  0  0  0  0
  -31.0853  -19.9956   21.1019 H   0  0  0  0  0  0
  -29.9374  -20.7008   22.1683 H   0  0  0  0  0  0
  -28.6420  -24.0049   19.0628 H   0  0  0  0  0  0
  -30.0619  -24.5479   19.9212 H   0  0  0  0  0  0
  -28.0601  -22.4720   21.0008 H   0  0  0  0  0  0
  -29.4780  -23.0218   21.8442 H   0  0  0  0  0  0
  -28.5877  -25.4310   21.7717 H   0  0  0  0  0  0
  -27.1912  -25.0009   20.8328 H   0  0  0  0  0  0
  -29.4118  -21.3373   19.2915 H   0  0  0  0  0  0
  1 25  1  0  0  0
  1 30  2  0  0  0
  1 77  1  0  0  0
  2  3  1  0  0  0
  2 25  1  0  0  0
  2 85  1  0  0  0
  2 86  1  0  0  0
  3  4  1  0  0  0
  3 87  1  0  0  0
  3 88  1  0  0  0
  4  5  1  0  0  0
  4 89  1  0  0  0
  4 90  1  0  0  0
  5  6  1  0  0  0
  5 26  1  0  0  0
  5 91  1  0  0  0
  6 25  1  0  0  0
  6 92  1  0  0  0
  6 93  1  0  0  0
  7  8  2  0  0  0
  7 26  1  0  0  0
  7 29  1  0  0  0
  8  9  1  0  0  0
  8 22  1  0  0  0
  9 10  1  0  0  0
  9 27  2  0  0  0
 10 11  2  0  0  0
 10 15  1  0  0  0
 11 12  1  0  0  0
 11 94  1  0  0  0
 12 13  2  0  0  0
 12 95  1  0  0  0
 13 14  1  0  0  0
 13 31  1  0  0  0
 14 15  2  0  0  0
 14 96  1  0  0  0
 15 97  1  0  0  0
 16 17  2  0  0  0
 16 21  1  0  0  0
 16 31  1  0  0  0
 17 18  1  0  0  0
 17 98  1  0  0  0
 18 19  2  0  0  0
 18 99  1  0  0  0
 19 20  1  0  0  0
 19 24  1  0  0  0
 20 21  2  0  0  0
 20100  1  0  0  0
 21 23  1  0  0  0
 22 28  1  0  0  0
 22 32  2  0  0  0
 26 27  1  0  0  0
 28101  1  0  0  0
 28102  1  0  0  0
 29103  1  0  0  0
 29104  1  0  0  0
 33 34  1  0  0  0
 33 66  1  0  0  0
 33 70  2  0  0  0
 34 36  1  0  0  0
 34 59  1  0  0  0
 34105  1  0  0  0
 35 44  2  0  0  0
 35 45  1  0  0  0
 35 68  1  0  0  0
 36 56  1  0  0  0
 36106  1  0  0  0
 37 39  1  0  0  0
 37 47  1  0  0  0
 37 66  1  0  0  0
 37107  1  0  0  0
 38 43  2  0  0  0
 38 46  1  0  0  0
 38 47  1  0  0  0
 39 64  1  0  0  0
 39 67  2  0  0  0
 40 52  1  0  0  0
 40 53  2  0  0  0
 40 58  1  0  0  0
 41108  1  0  0  0
 41109  1  0  0  0
 41110  1  0  0  0
 41 48  1  0  0  0
 42 43  1  0  0  0
 42 66  1  0  0  0
 42111  1  0  0  0
 42112  1  0  0  0
 43 44  1  0  0  0
 44113  1  0  0  0
 45 46  2  0  0  0
 45114  1  0  0  0
 46115  1  0  0  0
 47116  1  0  0  0
 47117  1  0  0  0
 48 56  1  0  0  0
 48 65  1  0  0  0
 48118  1  0  0  0
 49 50  1  0  0  0
 49 53  1  0  0  0
 49 64  1  0  0  0
 49119  1  0  0  0
 50 51  1  0  0  0
 50120  1  0  0  0
 50121  1  0  0  0
 51 52  1  0  0  0
 51122  1  0  0  0
 51123  1  0  0  0
 52124  1  0  0  0
 52125  1  0  0  0
 53 54  1  0  0  0
 54 55  2  0  0  0
 54126  1  0  0  0
 55 57  1  0  0  0
 55127  1  0  0  0
 56 69  2  0  0  0
 57 58  2  0  0  0
 57128  1  0  0  0
 58129  1  0  0  0
 59 60  1  0  0  0
 59 61  1  0  0  0
 59 62  1  0  0  0
 60130  1  0  0  0
 60131  1  0  0  0
 60132  1  0  0  0
 61133  1  0  0  0
 61134  1  0  0  0
 61135  1  0  0  0
 62136  1  0  0  0
 62137  1  0  0  0
 62138  1  0  0  0
 63 65  1  0  0  0
 63139  1  0  0  0
 63140  1  0  0  0
 63141  1  0  0  0
 64142  1  0  0  0
 65143  1  0  0  0
 68 81  1  0  0  0
 71 72  1  0  0  0
 71 73  2  0  0  0
 71144  1  0  0  0
 72 74  1  0  0  0
 72 83  2  0  0  0
 73 76  1  0  0  0
 73 84  1  0  0  0
 74145  1  0  0  0
 74146  1  0  0  0
 74147  1  0  0  0
 75148  1  0  0  0
 75149  1  0  0  0
 75150  1  0  0  0
 75 82  1  0  0  0
 76 78  1  0  0  0
 76151  1  0  0  0
 76152  1  0  0  0
 77 84  1  0  0  0
 77153  1  0  0  0
 77154  1  0  0  0
 78 82  1  0  0  0
 78155  1  0  0  0
 78156  1  0  0  0
 79 80  1  0  0  0
 79 81  1  0  0  0
 79157  1  0  0  0
 79158  1  0  0  0
 80 82  1  0  0  0
 80159  1  0  0  0
 80160  1  0  0  0
 81161  1  0  0  0
 81162  1  0  0  0
 82163  1  0  0  0
 83 84  1  0  0  0
M  ISO  4   1 100  68 101  77 100  81 101
M  END
> <chiral flag>
0

> <version>
0

> <s_m_source_file>
/data/baiqing/PycharmProjects/Reinvent-master-3.2/result/LINK_invent/BTK/process_docking_weight1_custom_sum_contain_oxygen_bond_distance_aromatic_linkinvent_7_9_3/rearranged_h_0084.sdf

> <i_m_source_file_index>
71

> <r_mmod_Potential_Energy-OPLS-2005>
27.9306125640869

> <r_mmod_Stretch_Energy-OPLS-2005>
52.958309173584

> <r_mmod_Bend_Energy-OPLS-2005>
115.61986541748

> <r_mmod_Torsional_Energy-OPLS-2005>
227.210922241211

> <r_mmod_Improper_Torsional_Energy-OPLS-2005>
4.3203558921814

> <r_mmod_Van_der_Waal_Energy-OPLS-2005>
117.720329284668

> <r_mmod_Electrostatic_Energy-OPLS-2005>
-313.748901367188

> <r_mmod_Solvation_Energy-OPLS-2005>
-199.009704589844

> <b_mmod_Minimization_Converged-OPLS-2005>
0

> <r_mmod_RMS_Derivative-OPLS-2005>
2.75604152679443

$$$$
71
                    3D
 Structure written by MMmdl.
170178  0  0  1  0            999 V2000
  -30.6486  -14.5378   20.5305 C   0  0  0  0  0  0
  -30.4350  -12.3305   19.4426 C   0  0  0  0  0  0
  -29.5046  -12.5073   18.2209 C   0  0  0  0  0  0
  -28.0252  -12.3593   18.6290 C   0  0  0  0  0  0
  -27.6643  -13.2047   19.8794 C   0  0  2  0  0  0
  -28.7064  -12.9957   21.0046 C   0  0  0  0  0  0
  -25.2597  -13.8150   20.5679 C   0  0  0  0  0  0
  -24.1838  -13.0434   20.9161 C   0  0  0  0  0  0
  -24.6393  -11.6903   20.8729 C   0  0  0  0  0  0
  -23.9051  -10.4291   21.0406 C   0  0  0  0  0  0
  -24.3604   -9.4205   21.9185 C   0  0  0  0  0  0
  -23.6285   -8.2239   22.0754 C   0  0  0  0  0  0
  -22.4270   -8.0275   21.3539 C   0  0  0  0  0  0
  -21.9901   -9.0245   20.4639 C   0  0  0  0  0  0
  -22.7224  -10.2129   20.3053 C   0  0  0  0  0  0
  -21.6850   -6.0730   22.5278 C   0  0  0  0  0  0
  -21.4012   -6.5637   23.8209 C   0  0  0  0  0  0
  -21.3660   -5.6791   24.9171 C   0  0  0  0  0  0
  -21.6047   -4.3053   24.7226 C   0  0  0  0  0  0
  -21.8820   -3.8142   23.4347 C   0  0  0  0  0  0
  -21.9192   -4.6957   22.3401 C   0  0  0  0  0  0
  -22.7862  -13.5234   21.1828 C   0  0  0  0  0  0
  -22.1661   -4.2144   21.0978 F   0  0  0  0  0  0
  -21.5631   -3.4536   25.7738 F   0  0  0  0  0  0
  -30.0372  -13.3197   20.4597 N   0  0  0  0  0  0
  -26.3038  -12.9316   20.3378 N   0  0  0  0  0  0
  -25.9323  -11.6480   20.5773 N   0  0  0  0  0  0
  -22.0501  -12.8232   22.0388 N   0  0  0  0  0  0
  -25.4328  -15.1865   20.4091 N   0  0  0  0  0  0
  -31.7566  -14.7571   20.0337 O   0  0  0  0  0  0
  -21.6637   -6.8870   21.4239 O   0  0  0  0  0  0
  -22.3553  -14.5540   20.6678 O   0  0  0  0  0  0
  -24.6184  -31.8635   23.2048 C   0  0  0  0  0  0
  -25.9052  -32.4799   23.8368 C   0  0  1  0  0  0
  -27.2408  -27.3877   20.0963 C   0  0  0  0  0  0
  -25.5893  -33.8594   24.2301 N   0  0  0  0  0  0
  -23.4095  -30.4833   21.5471 C   0  0  2  0  0  0
  -24.8568  -28.9414   20.1133 C   0  0  0  0  0  0
  -22.7438  -29.4619   22.4972 C   0  0  0  0  0  0
  -18.0271  -28.1371   22.8494 C   0  0  0  0  0  0
  -24.1492  -36.7311   23.2641 C   0  0  0  0  0  0
  -25.9424  -30.8111   21.3678 C   0  0  0  0  0  0
  -26.0179  -29.4423   20.7134 C   0  0  0  0  0  0
  -27.2076  -28.6706   20.7046 C   0  0  0  0  0  0
  -26.0509  -26.9060   19.5023 C   0  0  0  0  0  0
  -24.8690  -27.6738   19.5071 C   0  0  0  0  0  0
  -23.6206  -29.8124   20.1635 C   0  0  0  0  0  0
  -25.4114  -36.3099   24.0339 C   0  0  1  0  0  0
  -20.5865  -28.3661   23.1313 C   0  0  2  0  0  0
  -20.6760  -26.9393   22.5421 C   0  0  0  0  0  0
  -19.5742  -26.6382   21.5211 C   0  0  0  0  0  0
  -18.1917  -26.7918   22.1622 C   0  0  0  0  0  0
  -19.1521  -28.8835   23.2899 C   0  0  0  0  0  0
  -18.9446  -30.1440   23.8913 C   0  0  0  0  0  0
  -17.6452  -30.6585   24.0564 C   0  0  0  0  0  0
  -25.9037  -34.9466   23.5126 C   0  0  0  0  0  0
  -16.5343  -29.9081   23.6334 C   0  0  0  0  0  0
  -16.7260  -28.6493   23.0359 C   0  0  0  0  0  0
  -26.4465  -31.6587   25.0712 C   0  0  0  0  0  0
  -25.3720  -31.3690   26.1451 C   0  0  0  0  0  0
  -27.0298  -30.3025   24.6108 C   0  0  0  0  0  0
  -27.6041  -32.4307   25.7471 C   0  0  0  0  0  0
  -27.5589  -37.1805   24.8463 C   0  0  0  0  0  0
  -21.4154  -29.3027   22.3725 N   0  0  0  0  0  0
  -26.4306  -37.3781   23.9405 N   0  0  0  0  0  0
  -24.6751  -31.0687   22.0981 N   0  0  0  0  0  0
  -23.4195  -28.8166   23.3034 O   0  0  0  0  0  0
  -28.4228  -26.6542   20.1251 O   0  0  0  0  0  0
  -26.5612  -34.8932   22.4692 O   0  0  0  0  0  0
  -23.5358  -32.1419   23.7410 O   0  0  0  0  0  0
  -29.9098  -20.6464   20.6108 C   0  0  0  0  0  0
  -29.3014  -21.8244   21.1389 C   0  0  0  0  0  0
  -28.5861  -21.6802   22.3592 C   0  0  0  0  0  0
  -29.7699  -19.3975   21.2776 C   0  0  0  0  0  0
  -28.4048  -20.3780   22.8963 C   0  0  0  0  0  0
  -28.0797  -22.8999   23.1254 C   0  0  0  0  0  0
  -31.5365  -17.7279   22.0463 C   0  0  0  0  0  0
  -28.5072  -19.7892   25.3616 C   0  0  0  0  0  0
  -26.5440  -18.9907   23.9395 C   0  0  0  0  0  0
  -29.5298  -23.2106   20.4689 C   0  0  0  0  0  0
  -28.2750  -24.0768   20.0850 C   0  0  0  0  0  0
  -29.6780  -16.9036   20.4182 C   0  0  0  0  0  0
  -28.5818  -25.4322   19.3594 C   0  0  0  0  0  0
  -30.5605  -18.1063   20.9163 C   0  0  1  0  0  0
  -27.5919  -20.0955   24.1647 C   0  0  0  0  0  0
  -28.9956  -19.2860   22.3710 N   0  0  0  0  0  0
  -29.8663  -15.5391   20.9928 N   0  0  0  0  0  0
  -31.4798  -12.4405   19.1449 H   0  0  0  0  0  0
  -30.3471  -11.3214   19.8488 H   0  0  0  0  0  0
  -29.7532  -11.7767   17.4497 H   0  0  0  0  0  0
  -29.6640  -13.4889   17.7735 H   0  0  0  0  0  0
  -27.8415  -11.3030   18.8318 H   0  0  0  0  0  0
  -27.3750  -12.6226   17.7939 H   0  0  0  0  0  0
  -27.7040  -14.2492   19.5728 H   0  0  0  0  0  0
  -28.6921  -11.9585   21.3426 H   0  0  0  0  0  0
  -28.4604  -13.5907   21.8851 H   0  0  0  0  0  0
  -25.2753   -9.5684   22.4750 H   0  0  0  0  0  0
  -23.9992   -7.4637   22.7481 H   0  0  0  0  0  0
  -21.0829   -8.8765   19.8948 H   0  0  0  0  0  0
  -22.3687  -10.9664   19.6155 H   0  0  0  0  0  0
  -21.2004   -7.6147   23.9709 H   0  0  0  0  0  0
  -21.1483   -6.0523   25.9073 H   0  0  0  0  0  0
  -22.0600   -2.7607   23.2851 H   0  0  0  0  0  0
  -22.4121  -11.9895   22.4777 H   0  0  0  0  0  0
  -21.1118  -13.1259   22.2584 H   0  0  0  0  0  0
  -24.6687  -15.8437   20.5187 H   0  0  0  0  0  0
  -26.2905  -15.6254   20.0999 H   0  0  0  0  0  0
  -26.7130  -32.5499   23.1130 H   0  0  0  0  0  0
  -25.0004  -33.9734   25.0416 H   0  0  0  0  0  0
  -22.6993  -31.3007   21.4049 H   0  0  0  0  0  0
  -23.3750  -35.9648   23.3303 H   0  0  0  0  0  0
  -24.3581  -36.8923   22.2056 H   0  0  0  0  0  0
  -23.7244  -37.6513   23.6657 H   0  0  0  0  0  0
  -26.0615  -31.5752   20.5985 H   0  0  0  0  0  0
  -26.8268  -30.8631   21.9906 H   0  0  0  0  0  0
  -28.1041  -29.0515   21.1745 H   0  0  0  0  0  0
  -26.0050  -25.9278   19.0479 H   0  0  0  0  0  0
  -23.9726  -27.2784   19.0504 H   0  0  0  0  0  0
  -23.7322  -30.5847   19.4013 H   0  0  0  0  0  0
  -22.7435  -29.2317   19.8715 H   0  0  0  0  0  0
  -25.1281  -36.1981   25.0834 H   0  0  0  0  0  0
  -20.9945  -28.3235   24.1438 H   0  0  0  0  0  0
  -20.5671  -26.2252   23.3607 H   0  0  0  0  0  0
  -21.6628  -26.7436   22.1205 H   0  0  0  0  0  0
  -19.6909  -25.6290   21.1235 H   0  0  0  0  0  0
  -19.6705  -27.3201   20.6749 H   0  0  0  0  0  0
  -17.4190  -26.6676   21.4022 H   0  0  0  0  0  0
  -18.0321  -26.0053   22.9013 H   0  0  0  0  0  0
  -19.7928  -30.7240   24.2309 H   0  0  0  0  0  0
  -17.5009  -31.6275   24.5141 H   0  0  0  0  0  0
  -15.5343  -30.2987   23.7648 H   0  0  0  0  0  0
  -15.8654  -28.0820   22.7068 H   0  0  0  0  0  0
  -24.5905  -30.7027   25.7775 H   0  0  0  0  0  0
  -24.8887  -32.2835   26.4908 H   0  0  0  0  0  0
  -25.8061  -30.8856   27.0212 H   0  0  0  0  0  0
  -26.2851  -29.6771   24.1162 H   0  0  0  0  0  0
  -27.4052  -29.7277   25.4578 H   0  0  0  0  0  0
  -27.8695  -30.4322   23.9272 H   0  0  0  0  0  0
  -27.2674  -33.3610   26.2064 H   0  0  0  0  0  0
  -28.3840  -32.6859   25.0280 H   0  0  0  0  0  0
  -28.0725  -31.8422   26.5370 H   0  0  0  0  0  0
  -28.2595  -38.0109   24.7502 H   0  0  0  0  0  0
  -28.1099  -36.2634   24.6305 H   0  0  0  0  0  0
  -27.2300  -37.1456   25.8865 H   0  0  0  0  0  0
  -20.9330  -29.8743   21.6935 H   0  0  0  0  0  0
  -26.0204  -38.2866   24.1395 H   0  0  0  0  0  0
  -30.5351  -20.7116   19.7308 H   0  0  0  0  0  0
  -28.6344  -23.8043   22.8808 H   0  0  0  0  0  0
  -28.2143  -22.7787   24.2005 H   0  0  0  0  0  0
  -27.0220  -23.0701   22.9261 H   0  0  0  0  0  0
  -32.1759  -18.5732   22.3020 H   0  0  0  0  0  0
  -32.1878  -16.9061   21.7508 H   0  0  0  0  0  0
  -31.0031  -17.4289   22.9485 H   0  0  0  0  0  0
  -29.1988  -20.6131   25.5407 H   0  0  0  0  0  0
  -29.1007  -18.8912   25.1865 H   0  0  0  0  0  0
  -27.9306  -19.6363   26.2739 H   0  0  0  0  0  0
  -25.8907  -19.2435   23.1040 H   0  0  0  0  0  0
  -25.9193  -18.8526   24.8214 H   0  0  0  0  0  0
  -27.0123  -18.0321   23.7146 H   0  0  0  0  0  0
  -30.1142  -23.0466   19.5618 H   0  0  0  0  0  0
  -30.1789  -23.7982   21.1197 H   0  0  0  0  0  0
  -27.6342  -24.2817   20.9393 H   0  0  0  0  0  0
  -27.6624  -23.4729   19.4152 H   0  0  0  0  0  0
  -29.7491  -16.8396   19.3308 H   0  0  0  0  0  0
  -28.6329  -17.1521   20.6047 H   0  0  0  0  0  0
  -28.0295  -25.4926   18.4215 H   0  0  0  0  0  0
  -29.6227  -25.4154   19.0353 H   0  0  0  0  0  0
  -31.1923  -18.3814   20.0694 H   0  0  0  0  0  0
  -27.0101  -20.9783   24.4225 H   0  0  0  0  0  0
  -29.0624  -15.2055   21.5031 H   0  0  0  0  0  0
  1 25  1  0  0  0
  1 30  2  0  0  0
  1 87  1  0  0  0
  2  3  1  0  0  0
  2 25  1  0  0  0
  2 88  1  0  0  0
  2 89  1  0  0  0
  3  4  1  0  0  0
  3 90  1  0  0  0
  3 91  1  0  0  0
  4  5  1  0  0  0
  4 92  1  0  0  0
  4 93  1  0  0  0
  5  6  1  0  0  0
  5 26  1  0  0  0
  5 94  1  0  0  0
  6 25  1  0  0  0
  6 95  1  0  0  0
  6 96  1  0  0  0
  7  8  2  0  0  0
  7 26  1  0  0  0
  7 29  1  0  0  0
  8  9  1  0  0  0
  8 22  1  0  0  0
  9 10  1  0  0  0
  9 27  2  0  0  0
 10 11  2  0  0  0
 10 15  1  0  0  0
 11 12  1  0  0  0
 11 97  1  0  0  0
 12 13  2  0  0  0
 12 98  1  0  0  0
 13 14  1  0  0  0
 13 31  1  0  0  0
 14 15  2  0  0  0
 14 99  1  0  0  0
 15100  1  0  0  0
 16 17  2  0  0  0
 16 21  1  0  0  0
 16 31  1  0  0  0
 17 18  1  0  0  0
 17101  1  0  0  0
 18 19  2  0  0  0
 18102  1  0  0  0
 19 20  1  0  0  0
 19 24  1  0  0  0
 20 21  2  0  0  0
 20103  1  0  0  0
 21 23  1  0  0  0
 22 28  1  0  0  0
 22 32  2  0  0  0
 26 27  1  0  0  0
 28104  1  0  0  0
 28105  1  0  0  0
 29106  1  0  0  0
 29107  1  0  0  0
 33 34  1  0  0  0
 33 66  1  0  0  0
 33 70  2  0  0  0
 34 36  1  0  0  0
 34 59  1  0  0  0
 34108  1  0  0  0
 35 44  2  0  0  0
 35 45  1  0  0  0
 35 68  1  0  0  0
 36 56  1  0  0  0
 36109  1  0  0  0
 37 39  1  0  0  0
 37 47  1  0  0  0
 37 66  1  0  0  0
 37110  1  0  0  0
 38 43  2  0  0  0
 38 46  1  0  0  0
 38 47  1  0  0  0
 39 64  1  0  0  0
 39 67  2  0  0  0
 40 52  1  0  0  0
 40 53  2  0  0  0
 40 58  1  0  0  0
 41111  1  0  0  0
 41112  1  0  0  0
 41113  1  0  0  0
 41 48  1  0  0  0
 42 43  1  0  0  0
 42 66  1  0  0  0
 42114  1  0  0  0
 42115  1  0  0  0
 43 44  1  0  0  0
 44116  1  0  0  0
 45 46  2  0  0  0
 45117  1  0  0  0
 46118  1  0  0  0
 47119  1  0  0  0
 47120  1  0  0  0
 48 56  1  0  0  0
 48 65  1  0  0  0
 48121  1  0  0  0
 49 50  1  0  0  0
 49 53  1  0  0  0
 49 64  1  0  0  0
 49122  1  0  0  0
 50 51  1  0  0  0
 50123  1  0  0  0
 50124  1  0  0  0
 51 52  1  0  0  0
 51125  1  0  0  0
 51126  1  0  0  0
 52127  1  0  0  0
 52128  1  0  0  0
 53 54  1  0  0  0
 54 55  2  0  0  0
 54129  1  0  0  0
 55 57  1  0  0  0
 55130  1  0  0  0
 56 69  2  0  0  0
 57 58  2  0  0  0
 57131  1  0  0  0
 58132  1  0  0  0
 59 60  1  0  0  0
 59 61  1  0  0  0
 59 62  1  0  0  0
 60133  1  0  0  0
 60134  1  0  0  0
 60135  1  0  0  0
 61136  1  0  0  0
 61137  1  0  0  0
 61138  1  0  0  0
 62139  1  0  0  0
 62140  1  0  0  0
 62141  1  0  0  0
 63 65  1  0  0  0
 63142  1  0  0  0
 63143  1  0  0  0
 63144  1  0  0  0
 64145  1  0  0  0
 65146  1  0  0  0
 68 83  1  0  0  0
 71 72  2  0  0  0
 71 74  1  0  0  0
 71147  1  0  0  0
 72 73  1  0  0  0
 72 80  1  0  0  0
 73 75  2  0  0  0
 73 76  1  0  0  0
 74 84  1  0  0  0
 74 86  2  0  0  0
 75 85  1  0  0  0
 75 86  1  0  0  0
 76148  1  0  0  0
 76149  1  0  0  0
 76150  1  0  0  0
 77151  1  0  0  0
 77152  1  0  0  0
 77153  1  0  0  0
 77 84  1  0  0  0
 78154  1  0  0  0
 78155  1  0  0  0
 78156  1  0  0  0
 78 85  1  0  0  0
 79 85  1  0  0  0
 79157  1  0  0  0
 79158  1  0  0  0
 79159  1  0  0  0
 80 81  1  0  0  0
 80160  1  0  0  0
 80161  1  0  0  0
 81 83  1  0  0  0
 81162  1  0  0  0
 81163  1  0  0  0
 82 84  1  0  0  0
 82 87  1  0  0  0
 82164  1  0  0  0
 82165  1  0  0  0
 83166  1  0  0  0
 83167  1  0  0  0
 84168  1  0  0  0
 85169  1  0  0  0
 87170  1  0  0  0
M  ISO  4   1 100  68 101  83 101  87 100
M  END
> <chiral flag>
0

> <version>
0

> <s_m_source_file>
/data/baiqing/PycharmProjects/Reinvent-master-3.2/result/LINK_invent/BTK/process_docking_weight1_custom_sum_contain_oxygen_bond_distance_aromatic_linkinvent_7_9_3/rearranged_h_0084.sdf

> <i_m_source_file_index>
72

> <r_mmod_Potential_Energy-OPLS-2005>
-207.293670654297

> <r_mmod_Stretch_Energy-OPLS-2005>
55.8171844482422

> <r_mmod_Bend_Energy-OPLS-2005>
132.806060791016

> <r_mmod_Torsional_Energy-OPLS-2005>
219.881729125977

> <r_mmod_Improper_Torsional_Energy-OPLS-2005>
7.6546106338501

> <r_mmod_Van_der_Waal_Energy-OPLS-2005>
153.2939453125

> <r_mmod_Electrostatic_Energy-OPLS-2005>
-591.102783203125

> <r_mmod_Solvation_Energy-OPLS-2005>
-207.39924621582

> <b_mmod_Minimization_Converged-OPLS-2005>
0

> <r_mmod_RMS_Derivative-OPLS-2005>
1.41519892215729

$$$$
72
                    3D
 Structure written by MMmdl.
166174  0  0  1  0            999 V2000
  -30.7883  -14.4222   20.6369 C   0  0  0  0  0  0
  -30.4063  -12.2999   19.4341 C   0  0  0  0  0  0
  -29.5032  -12.5444   18.2112 C   0  0  0  0  0  0
  -28.0198  -12.4026   18.6079 C   0  0  0  0  0  0
  -27.6634  -13.2211   19.8766 C   0  0  2  0  0  0
  -28.6994  -13.0026   21.0014 C   0  0  0  0  0  0
  -25.2584  -13.8187   20.5679 C   0  0  0  0  0  0
  -24.1847  -13.0429   20.9156 C   0  0  0  0  0  0
  -24.6417  -11.6893   20.8705 C   0  0  0  0  0  0
  -23.9083  -10.4287   21.0401 C   0  0  0  0  0  0
  -24.3619   -9.4200   21.9180 C   0  0  0  0  0  0
  -23.6305   -8.2227   22.0745 C   0  0  0  0  0  0
  -22.4286   -8.0273   21.3543 C   0  0  0  0  0  0
  -21.9915   -9.0232   20.4661 C   0  0  0  0  0  0
  -22.7238  -10.2115   20.3058 C   0  0  0  0  0  0
  -21.6841   -6.0742   22.5278 C   0  0  0  0  0  0
  -21.4017   -6.5635   23.8216 C   0  0  0  0  0  0
  -21.3662   -5.6776   24.9171 C   0  0  0  0  0  0
  -21.6041   -4.3038   24.7221 C   0  0  0  0  0  0
  -21.8808   -3.8152   23.4333 C   0  0  0  0  0  0
  -21.9192   -4.6979   22.3394 C   0  0  0  0  0  0
  -22.7871  -13.5231   21.1819 C   0  0  0  0  0  0
  -22.1662   -4.2165   21.0974 F   0  0  0  0  0  0
  -21.5639   -3.4518   25.7734 F   0  0  0  0  0  0
  -30.0426  -13.2895   20.4634 N   0  0  0  0  0  0
  -26.3034  -12.9379   20.3340 N   0  0  0  0  0  0
  -25.9365  -11.6526   20.5730 N   0  0  0  0  0  0
  -22.0502  -12.8257   22.0393 N   0  0  0  0  0  0
  -25.4289  -15.1913   20.4113 N   0  0  0  0  0  0
  -31.8584  -14.5852   20.0413 O   0  0  0  0  0  0
  -21.6641   -6.8879   21.4235 O   0  0  0  0  0  0
  -22.3570  -14.5533   20.6653 O   0  0  0  0  0  0
  -24.6122  -31.8685   23.2095 C   0  0  0  0  0  0
  -25.9013  -32.4830   23.8399 C   0  0  1  0  0  0
  -27.2404  -27.4559   20.0903 C   0  0  0  0  0  0
  -25.5880  -33.8624   24.2330 N   0  0  0  0  0  0
  -23.3988  -30.4898   21.5512 C   0  0  2  0  0  0
  -24.8479  -28.9515   20.1204 C   0  0  0  0  0  0
  -22.7387  -29.4652   22.5008 C   0  0  0  0  0  0
  -18.0268  -28.1382   22.8517 C   0  0  0  0  0  0
  -24.1485  -36.7311   23.2633 C   0  0  0  0  0  0
  -25.9256  -30.8386   21.3591 C   0  0  0  0  0  0
  -26.0063  -29.4714   20.7139 C   0  0  0  0  0  0
  -27.2065  -28.7284   20.6983 C   0  0  0  0  0  0
  -26.0704  -26.9387   19.4995 C   0  0  0  0  0  0
  -24.8731  -27.6818   19.5144 C   0  0  0  0  0  0
  -23.6078  -29.8161   20.1671 C   0  0  0  0  0  0
  -25.4102  -36.3111   24.0338 C   0  0  1  0  0  0
  -20.5856  -28.3643   23.1350 C   0  0  2  0  0  0
  -20.6764  -26.9388   22.5425 C   0  0  0  0  0  0
  -19.5740  -26.6393   21.5220 C   0  0  0  0  0  0
  -18.1913  -26.7928   22.1628 C   0  0  0  0  0  0
  -19.1516  -28.8827   23.2930 C   0  0  0  0  0  0
  -18.9440  -30.1450   23.8929 C   0  0  0  0  0  0
  -17.6443  -30.6583   24.0574 C   0  0  0  0  0  0
  -25.9042  -34.9481   23.5134 C   0  0  0  0  0  0
  -16.5338  -29.9100   23.6330 C   0  0  0  0  0  0
  -16.7257  -28.6513   23.0357 C   0  0  0  0  0  0
  -26.4450  -31.6609   25.0716 C   0  0  0  0  0  0
  -25.3726  -31.3723   26.1471 C   0  0  0  0  0  0
  -27.0258  -30.3054   24.6060 C   0  0  0  0  0  0
  -27.6026  -32.4318   25.7465 C   0  0  0  0  0  0
  -27.5584  -37.1804   24.8454 C   0  0  0  0  0  0
  -21.4117  -29.3014   22.3757 N   0  0  0  0  0  0
  -26.4281  -37.3797   23.9430 N   0  0  0  0  0  0
  -24.6625  -31.0804   22.0994 N   0  0  0  0  0  0
  -23.4166  -28.8193   23.3030 O   0  0  0  0  0  0
  -28.4154  -26.7448   20.0288 O   0  0  0  0  0  0
  -26.5592  -34.8930   22.4697 O   0  0  0  0  0  0
  -23.5317  -32.1411   23.7518 O   0  0  0  0  0  0
  -29.4544  -21.2667   19.6263 C   0  0  0  0  0  0
  -30.2637  -22.4250   19.5815 C   0  0  0  0  0  0
  -30.0757  -20.0036   19.7382 C   0  0  0  0  0  0
  -31.6657  -22.2170   19.6764 C   0  0  0  0  0  0
  -33.3189  -23.5112   18.2257 C   0  0  0  0  0  0
  -30.1217  -15.3621   22.7846 C   0  0  0  0  0  0
  -29.6033  -23.7983   19.3817 C   0  0  0  0  0  0
  -29.2572  -18.7218   19.5880 C   0  0  0  0  0  0
  -32.6945  -23.3385   19.6161 C   0  0  0  0  0  0
  -29.7093  -24.7516   20.5951 C   0  0  0  0  0  0
  -29.2486  -17.7271   20.7747 C   0  0  0  0  0  0
  -30.5160  -16.8500   20.8790 C   0  0  0  0  0  0
  -28.4565  -25.6024   20.8783 C   0  0  0  0  0  0
  -31.4214  -19.8816   19.8249 N   0  0  0  0  0  0
  -32.1977  -20.9710   19.8067 N   0  0  0  0  0  0
  -30.2399  -15.4591   21.3261 N   0  0  0  0  0  0
  -31.4568  -12.3434   19.1475 H   0  0  0  0  0  0
  -30.2603  -11.2897   19.8229 H   0  0  0  0  0  0
  -29.7496  -11.8474   17.4106 H   0  0  0  0  0  0
  -29.6967  -13.5447   17.8138 H   0  0  0  0  0  0
  -27.8191  -11.3445   18.7782 H   0  0  0  0  0  0
  -27.3777  -12.7086   17.7808 H   0  0  0  0  0  0
  -27.7084  -14.2733   19.5936 H   0  0  0  0  0  0
  -28.6643  -11.9725   21.3624 H   0  0  0  0  0  0
  -28.4343  -13.6197   21.8561 H   0  0  0  0  0  0
  -25.2756   -9.5681   22.4767 H   0  0  0  0  0  0
  -24.0018   -7.4617   22.7448 H   0  0  0  0  0  0
  -21.0842   -8.8729   19.8978 H   0  0  0  0  0  0
  -22.3681  -10.9634   19.6172 H   0  0  0  0  0  0
  -21.2004   -7.6139   23.9720 H   0  0  0  0  0  0
  -21.1504   -6.0513   25.9072 H   0  0  0  0  0  0
  -22.0604   -2.7621   23.2815 H   0  0  0  0  0  0
  -22.4083  -11.9945   22.4853 H   0  0  0  0  0  0
  -21.1114  -13.1303   22.2551 H   0  0  0  0  0  0
  -24.6651  -15.8489   20.5306 H   0  0  0  0  0  0
  -26.2900  -15.6349   20.1183 H   0  0  0  0  0  0
  -26.7090  -32.5561   23.1174 H   0  0  0  0  0  0
  -25.0052  -33.9780   25.0489 H   0  0  0  0  0  0
  -22.6876  -31.3065   21.4113 H   0  0  0  0  0  0
  -23.3744  -35.9639   23.3283 H   0  0  0  0  0  0
  -24.3590  -36.8935   22.2049 H   0  0  0  0  0  0
  -23.7227  -37.6516   23.6646 H   0  0  0  0  0  0
  -26.0300  -31.6010   20.5860 H   0  0  0  0  0  0
  -26.8182  -30.9015   21.9703 H   0  0  0  0  0  0
  -28.1056  -29.1264   21.1487 H   0  0  0  0  0  0
  -26.0898  -25.9723   19.0155 H   0  0  0  0  0  0
  -23.9815  -27.2779   19.0555 H   0  0  0  0  0  0
  -23.7109  -30.5868   19.4025 H   0  0  0  0  0  0
  -22.7336  -29.2285   19.8783 H   0  0  0  0  0  0
  -25.1279  -36.1966   25.0822 H   0  0  0  0  0  0
  -20.9962  -28.3198   24.1467 H   0  0  0  0  0  0
  -20.5680  -26.2232   23.3597 H   0  0  0  0  0  0
  -21.6637  -26.7457   22.1206 H   0  0  0  0  0  0
  -19.6891  -25.6312   21.1231 H   0  0  0  0  0  0
  -19.6687  -27.3223   20.6773 H   0  0  0  0  0  0
  -17.4193  -26.6693   21.4026 H   0  0  0  0  0  0
  -18.0315  -26.0065   22.9022 H   0  0  0  0  0  0
  -19.7917  -30.7270   24.2289 H   0  0  0  0  0  0
  -17.5000  -31.6264   24.5185 H   0  0  0  0  0  0
  -15.5342  -30.3018   23.7626 H   0  0  0  0  0  0
  -15.8657  -28.0848   22.7054 H   0  0  0  0  0  0
  -24.5881  -30.7079   25.7835 H   0  0  0  0  0  0
  -24.8918  -32.2884   26.4922 H   0  0  0  0  0  0
  -25.8083  -30.8899   27.0230 H   0  0  0  0  0  0
  -26.2791  -29.6840   24.1089 H   0  0  0  0  0  0
  -27.4032  -29.7255   25.4495 H   0  0  0  0  0  0
  -27.8631  -30.4392   23.9193 H   0  0  0  0  0  0
  -27.2654  -33.3607   26.2074 H   0  0  0  0  0  0
  -28.3814  -32.6898   25.0279 H   0  0  0  0  0  0
  -28.0714  -31.8417   26.5354 H   0  0  0  0  0  0
  -28.2585  -38.0123   24.7562 H   0  0  0  0  0  0
  -28.1106  -36.2667   24.6205 H   0  0  0  0  0  0
  -27.2320  -37.1363   25.8858 H   0  0  0  0  0  0
  -20.9253  -29.8739   21.7002 H   0  0  0  0  0  0
  -26.0167  -38.2867   24.1470 H   0  0  0  0  0  0
  -28.3819  -21.3323   19.5217 H   0  0  0  0  0  0
  -34.0948  -24.2801   18.2429 H   0  0  0  0  0  0
  -32.5742  -23.8173   17.4915 H   0  0  0  0  0  0
  -33.7703  -22.5811   17.8797 H   0  0  0  0  0  0
  -30.9840  -15.8139   23.2727 H   0  0  0  0  0  0
  -30.0730  -14.3326   23.1403 H   0  0  0  0  0  0
  -29.2284  -15.8863   23.1252 H   0  0  0  0  0  0
  -28.5515  -23.6242   19.1569 H   0  0  0  0  0  0
  -30.0024  -24.2766   18.4857 H   0  0  0  0  0  0
  -29.5808  -18.2105   18.6799 H   0  0  0  0  0  0
  -28.2268  -19.0185   19.3932 H   0  0  0  0  0  0
  -33.4823  -23.1270   20.3400 H   0  0  0  0  0  0
  -32.2682  -24.2835   19.9329 H   0  0  0  0  0  0
  -30.5595  -25.4220   20.4862 H   0  0  0  0  0  0
  -29.9052  -24.1519   21.4839 H   0  0  0  0  0  0
  -28.3907  -17.0701   20.6249 H   0  0  0  0  0  0
  -29.0554  -18.2504   21.7136 H   0  0  0  0  0  0
  -31.2484  -17.3363   21.5279 H   0  0  0  0  0  0
  -30.9846  -16.8445   19.8934 H   0  0  0  0  0  0
  -28.5049  -25.9639   21.9071 H   0  0  0  0  0  0
  -27.5569  -24.9911   20.8039 H   0  0  0  0  0  0
  1 25  1  0  0  0
  1 30  2  0  0  0
  1 86  1  0  0  0
  2  3  1  0  0  0
  2 25  1  0  0  0
  2 87  1  0  0  0
  2 88  1  0  0  0
  3  4  1  0  0  0
  3 89  1  0  0  0
  3 90  1  0  0  0
  4  5  1  0  0  0
  4 91  1  0  0  0
  4 92  1  0  0  0
  5  6  1  0  0  0
  5 26  1  0  0  0
  5 93  1  0  0  0
  6 25  1  0  0  0
  6 94  1  0  0  0
  6 95  1  0  0  0
  7  8  2  0  0  0
  7 26  1  0  0  0
  7 29  1  0  0  0
  8  9  1  0  0  0
  8 22  1  0  0  0
  9 10  1  0  0  0
  9 27  2  0  0  0
 10 11  2  0  0  0
 10 15  1  0  0  0
 11 12  1  0  0  0
 11 96  1  0  0  0
 12 13  2  0  0  0
 12 97  1  0  0  0
 13 14  1  0  0  0
 13 31  1  0  0  0
 14 15  2  0  0  0
 14 98  1  0  0  0
 15 99  1  0  0  0
 16 17  2  0  0  0
 16 21  1  0  0  0
 16 31  1  0  0  0
 17 18  1  0  0  0
 17100  1  0  0  0
 18 19  2  0  0  0
 18101  1  0  0  0
 19 20  1  0  0  0
 19 24  1  0  0  0
 20 21  2  0  0  0
 20102  1  0  0  0
 21 23  1  0  0  0
 22 28  1  0  0  0
 22 32  2  0  0  0
 26 27  1  0  0  0
 28103  1  0  0  0
 28104  1  0  0  0
 29105  1  0  0  0
 29106  1  0  0  0
 33 34  1  0  0  0
 33 66  1  0  0  0
 33 70  2  0  0  0
 34 36  1  0  0  0
 34 59  1  0  0  0
 34107  1  0  0  0
 35 44  2  0  0  0
 35 45  1  0  0  0
 35 68  1  0  0  0
 36 56  1  0  0  0
 36108  1  0  0  0
 37 39  1  0  0  0
 37 47  1  0  0  0
 37 66  1  0  0  0
 37109  1  0  0  0
 38 43  2  0  0  0
 38 46  1  0  0  0
 38 47  1  0  0  0
 39 64  1  0  0  0
 39 67  2  0  0  0
 40 52  1  0  0  0
 40 53  2  0  0  0
 40 58  1  0  0  0
 41110  1  0  0  0
 41111  1  0  0  0
 41112  1  0  0  0
 41 48  1  0  0  0
 42 43  1  0  0  0
 42 66  1  0  0  0
 42113  1  0  0  0
 42114  1  0  0  0
 43 44  1  0  0  0
 44115  1  0  0  0
 45 46  2  0  0  0
 45116  1  0  0  0
 46117  1  0  0  0
 47118  1  0  0  0
 47119  1  0  0  0
 48 56  1  0  0  0
 48 65  1  0  0  0
 48120  1  0  0  0
 49 50  1  0  0  0
 49 53  1  0  0  0
 49 64  1  0  0  0
 49121  1  0  0  0
 50 51  1  0  0  0
 50122  1  0  0  0
 50123  1  0  0  0
 51 52  1  0  0  0
 51124  1  0  0  0
 51125  1  0  0  0
 52126  1  0  0  0
 52127  1  0  0  0
 53 54  1  0  0  0
 54 55  2  0  0  0
 54128  1  0  0  0
 55 57  1  0  0  0
 55129  1  0  0  0
 56 69  2  0  0  0
 57 58  2  0  0  0
 57130  1  0  0  0
 58131  1  0  0  0
 59 60  1  0  0  0
 59 61  1  0  0  0
 59 62  1  0  0  0
 60132  1  0  0  0
 60133  1  0  0  0
 60134  1  0  0  0
 61135  1  0  0  0
 61136  1  0  0  0
 61137  1  0  0  0
 62138  1  0  0  0
 62139  1  0  0  0
 62140  1  0  0  0
 63 65  1  0  0  0
 63141  1  0  0  0
 63142  1  0  0  0
 63143  1  0  0  0
 64144  1  0  0  0
 65145  1  0  0  0
 68 83  1  0  0  0
 71 72  2  0  0  0
 71 73  1  0  0  0
 71146  1  0  0  0
 72 74  1  0  0  0
 72 77  1  0  0  0
 73 78  1  0  0  0
 73 84  2  0  0  0
 74 79  1  0  0  0
 74 85  2  0  0  0
 75 79  1  0  0  0
 75147  1  0  0  0
 75148  1  0  0  0
 75149  1  0  0  0
 76 86  1  0  0  0
 76150  1  0  0  0
 76151  1  0  0  0
 76152  1  0  0  0
 77 80  1  0  0  0
 77153  1  0  0  0
 77154  1  0  0  0
 78 81  1  0  0  0
 78155  1  0  0  0
 78156  1  0  0  0
 79157  1  0  0  0
 79158  1  0  0  0
 80 83  1  0  0  0
 80159  1  0  0  0
 80160  1  0  0  0
 81 82  1  0  0  0
 81161  1  0  0  0
 81162  1  0  0  0
 82 86  1  0  0  0
 82163  1  0  0  0
 82164  1  0  0  0
 83165  1  0  0  0
 83166  1  0  0  0
 84 85  1  0  0  0
M  ISO  4   1 100  68 101  83 101  86 100
M  END
> <chiral flag>
0

> <version>
0

> <s_m_source_file>
/data/baiqing/PycharmProjects/Reinvent-master-3.2/result/LINK_invent/BTK/process_docking_weight1_custom_sum_contain_oxygen_bond_distance_aromatic_linkinvent_7_9_3/rearranged_h_0084.sdf

> <i_m_source_file_index>
73

> <r_mmod_Potential_Energy-OPLS-2005>
125.371475219727

> <r_mmod_Stretch_Energy-OPLS-2005>
40.4705085754395

> <r_mmod_Bend_Energy-OPLS-2005>
108.939598083496

> <r_mmod_Torsional_Energy-OPLS-2005>
294.684448242188

> <r_mmod_Improper_Torsional_Energy-OPLS-2005>
7.63858652114868

> <r_mmod_Van_der_Waal_Energy-OPLS-2005>
156.443450927734

> <r_mmod_Electrostatic_Energy-OPLS-2005>
-274.874755859375

> <r_mmod_Solvation_Energy-OPLS-2005>
-217.659545898438

> <b_mmod_Minimization_Converged-OPLS-2005>
0

> <r_mmod_RMS_Derivative-OPLS-2005>
3.89691519737244

$$$$
73
                    3D
 Structure written by MMmdl.
166174  0  0  1  0            999 V2000
  -30.6606  -14.5147   20.5530 C   0  0  0  0  0  0
  -30.4162  -12.3061   19.4736 C   0  0  0  0  0  0
  -29.5223  -12.5459   18.2380 C   0  0  0  0  0  0
  -28.0320  -12.4193   18.6155 C   0  0  0  0  0  0
  -27.6645  -13.2242   19.8953 C   0  0  2  0  0  0
  -28.6943  -13.0062   21.0273 C   0  0  0  0  0  0
  -25.2590  -13.8169   20.5733 C   0  0  0  0  0  0
  -24.1887  -13.0410   20.9190 C   0  0  0  0  0  0
  -24.6473  -11.6896   20.8787 C   0  0  0  0  0  0
  -23.9163  -10.4269   21.0494 C   0  0  0  0  0  0
  -24.3685   -9.4172   21.9262 C   0  0  0  0  0  0
  -23.6311   -8.2217   22.0796 C   0  0  0  0  0  0
  -22.4290   -8.0306   21.3581 C   0  0  0  0  0  0
  -21.9984   -9.0316   20.4702 C   0  0  0  0  0  0
  -22.7339  -10.2155   20.3132 C   0  0  0  0  0  0
  -21.6848   -6.0755   22.5288 C   0  0  0  0  0  0
  -21.4033   -6.5658   23.8232 C   0  0  0  0  0  0
  -21.3646   -5.6798   24.9168 C   0  0  0  0  0  0
  -21.6029   -4.3063   24.7201 C   0  0  0  0  0  0
  -21.8814   -3.8159   23.4334 C   0  0  0  0  0  0
  -21.9180   -4.6998   22.3390 C   0  0  0  0  0  0
  -22.7887  -13.5239   21.1808 C   0  0  0  0  0  0
  -22.1666   -4.2184   21.0964 F   0  0  0  0  0  0
  -21.5608   -3.4544   25.7715 F   0  0  0  0  0  0
  -30.0246  -13.3094   20.4765 N   0  0  0  0  0  0
  -26.3059  -12.9391   20.3424 N   0  0  0  0  0  0
  -25.9402  -11.6527   20.5783 N   0  0  0  0  0  0
  -22.0542  -12.8260   22.0406 N   0  0  0  0  0  0
  -25.4213  -15.1899   20.4144 N   0  0  0  0  0  0
  -31.7901  -14.6953   20.0933 O   0  0  0  0  0  0
  -21.6637   -6.8928   21.4258 O   0  0  0  0  0  0
  -22.3598  -14.5523   20.6629 O   0  0  0  0  0  0
  -24.6231  -31.8615   23.2093 C   0  0  0  0  0  0
  -25.9156  -32.4759   23.8318 C   0  0  1  0  0  0
  -27.2057  -27.3802   20.1000 C   0  0  0  0  0  0
  -25.6047  -33.8564   24.2280 N   0  0  0  0  0  0
  -23.4050  -30.4970   21.5512 C   0  0  2  0  0  0
  -24.8424  -28.9624   20.1041 C   0  0  0  0  0  0
  -22.7418  -29.4686   22.4969 C   0  0  0  0  0  0
  -18.0250  -28.1266   22.8404 C   0  0  0  0  0  0
  -24.1498  -36.7283   23.2615 C   0  0  0  0  0  0
  -25.9404  -30.8081   21.3744 C   0  0  0  0  0  0
  -26.0066  -29.4461   20.7127 C   0  0  0  0  0  0
  -27.1887  -28.6598   20.7153 C   0  0  0  0  0  0
  -26.0284  -26.9424   19.4458 C   0  0  0  0  0  0
  -24.8520  -27.7124   19.4669 C   0  0  0  0  0  0
  -23.6078  -29.8381   20.1630 C   0  0  0  0  0  0
  -25.4127  -36.3058   24.0302 C   0  0  1  0  0  0
  -20.5852  -28.3675   23.1267 C   0  0  2  0  0  0
  -20.6896  -26.9431   22.5275 C   0  0  0  0  0  0
  -19.5827  -26.6082   21.5221 C   0  0  0  0  0  0
  -18.1966  -26.7787   22.1531 C   0  0  0  0  0  0
  -19.1486  -28.8763   23.2799 C   0  0  0  0  0  0
  -18.9383  -30.1394   23.8741 C   0  0  0  0  0  0
  -17.6375  -30.6508   24.0387 C   0  0  0  0  0  0
  -25.9088  -34.9434   23.5074 C   0  0  0  0  0  0
  -16.5276  -29.8988   23.6175 C   0  0  0  0  0  0
  -16.7228  -28.6404   23.0204 C   0  0  0  0  0  0
  -26.4559  -31.6539   25.0645 C   0  0  0  0  0  0
  -25.3799  -31.3741   26.1380 C   0  0  0  0  0  0
  -27.0439  -30.2955   24.6119 C   0  0  0  0  0  0
  -27.6112  -32.4274   25.7447 C   0  0  0  0  0  0
  -27.5575  -37.1811   24.8454 C   0  0  0  0  0  0
  -21.4127  -29.3176   22.3821 N   0  0  0  0  0  0
  -26.4292  -37.3768   23.9392 N   0  0  0  0  0  0
  -24.6745  -31.0683   22.1021 N   0  0  0  0  0  0
  -23.4188  -28.8107   23.2922 O   0  0  0  0  0  0
  -28.3416  -26.5798   20.1455 O   0  0  0  0  0  0
  -26.5597  -34.8912   22.4600 O   0  0  0  0  0  0
  -23.5442  -32.1436   23.7488 O   0  0  0  0  0  0
  -27.9198  -17.6716   21.7438 C   0  0  0  0  0  0
  -29.1670  -18.0318   21.1862 C   0  0  0  0  0  0
  -27.1798  -19.8651   21.6135 C   0  0  0  0  0  0
  -28.4356  -20.2741   21.0645 C   0  0  0  0  0  0
  -23.6381  -21.4469   22.3069 C   0  0  0  0  0  0
  -29.0272  -25.2158   22.5423 C   0  0  0  0  0  0
  -26.0613  -20.8542   21.9127 C   0  0  0  0  0  0
  -28.7468  -21.7373   20.6072 C   0  0  0  0  0  0
  -30.2878  -16.9835   20.9617 C   0  0  0  0  0  0
  -24.6285  -20.3013   22.0229 C   0  0  0  0  0  0
  -28.4639  -22.9288   21.5997 C   0  0  0  0  0  0
  -28.1448  -25.1331   20.1718 C   0  0  0  0  0  0
  -28.9884  -24.3721   21.2472 C   0  0  1  0  0  0
  -26.9400  -18.5783   21.9692 N   0  0  0  0  0  0
  -29.4193  -19.3394   20.8565 N   0  0  0  0  0  0
  -29.9117  -15.5475   21.0029 N   0  0  0  0  0  0
  -31.4773  -12.3599   19.2259 H   0  0  0  0  0  0
  -30.2505  -11.2972   19.8536 H   0  0  0  0  0  0
  -29.7692  -11.8486   17.4387 H   0  0  0  0  0  0
  -29.7284  -13.5437   17.8443 H   0  0  0  0  0  0
  -27.8068  -11.3628   18.7583 H   0  0  0  0  0  0
  -27.4112  -12.7532   17.7825 H   0  0  0  0  0  0
  -27.7013  -14.2812   19.6280 H   0  0  0  0  0  0
  -28.6633  -11.9749   21.3854 H   0  0  0  0  0  0
  -28.4606  -13.6192   21.8989 H   0  0  0  0  0  0
  -25.2844   -9.5558   22.4859 H   0  0  0  0  0  0
  -23.9966   -7.4589   22.7539 H   0  0  0  0  0  0
  -21.0885   -8.8905   19.9033 H   0  0  0  0  0  0
  -22.3883  -10.9733   19.6243 H   0  0  0  0  0  0
  -21.2104   -7.6185   23.9757 H   0  0  0  0  0  0
  -21.1462   -6.0528   25.9077 H   0  0  0  0  0  0
  -22.0619   -2.7632   23.2801 H   0  0  0  0  0  0
  -22.4054  -11.9813   22.4656 H   0  0  0  0  0  0
  -21.1241  -13.1453   22.2763 H   0  0  0  0  0  0
  -24.6481  -15.8321   20.5547 H   0  0  0  0  0  0
  -26.2439  -15.6480   20.0434 H   0  0  0  0  0  0
  -26.7220  -32.5396   23.1052 H   0  0  0  0  0  0
  -25.0282  -33.9708   25.0481 H   0  0  0  0  0  0
  -22.6960  -31.3169   21.4190 H   0  0  0  0  0  0
  -23.3740  -35.9634   23.3291 H   0  0  0  0  0  0
  -24.3590  -36.8893   22.2031 H   0  0  0  0  0  0
  -23.7304  -37.6506   23.6635 H   0  0  0  0  0  0
  -26.0717  -31.5773   20.6139 H   0  0  0  0  0  0
  -26.8270  -30.8407   21.9982 H   0  0  0  0  0  0
  -28.0759  -29.0102   21.2193 H   0  0  0  0  0  0
  -25.9888  -25.9969   18.9208 H   0  0  0  0  0  0
  -23.9623  -27.3426   18.9713 H   0  0  0  0  0  0
  -23.7169  -30.6166   19.4068 H   0  0  0  0  0  0
  -22.7242  -29.2704   19.8655 H   0  0  0  0  0  0
  -25.1310  -36.1885   25.0800 H   0  0  0  0  0  0
  -20.9869  -28.3229   24.1416 H   0  0  0  0  0  0
  -21.6726  -26.7683   22.0873 H   0  0  0  0  0  0
  -20.6112  -26.2219   23.3402 H   0  0  0  0  0  0
  -19.6983  -25.5794   21.1780 H   0  0  0  0  0  0
  -19.6798  -27.2396   20.6374 H   0  0  0  0  0  0
  -17.4331  -26.6453   21.3846 H   0  0  0  0  0  0
  -18.0333  -25.9960   22.8929 H   0  0  0  0  0  0
  -19.7900  -30.7259   24.1885 H   0  0  0  0  0  0
  -17.4893  -31.6243   24.4834 H   0  0  0  0  0  0
  -15.5235  -30.2842   23.7406 H   0  0  0  0  0  0
  -15.8620  -28.0836   22.6818 H   0  0  0  0  0  0
  -24.5937  -30.7125   25.7718 H   0  0  0  0  0  0
  -24.9042  -32.2962   26.4735 H   0  0  0  0  0  0
  -25.8128  -30.8941   27.0164 H   0  0  0  0  0  0
  -26.3043  -29.6642   24.1181 H   0  0  0  0  0  0
  -27.4204  -29.7273   25.4635 H   0  0  0  0  0  0
  -27.8857  -30.4223   23.9308 H   0  0  0  0  0  0
  -27.2692  -33.3553   26.2046 H   0  0  0  0  0  0
  -28.3946  -32.6885   25.0306 H   0  0  0  0  0  0
  -28.0730  -31.8358   26.5364 H   0  0  0  0  0  0
  -28.2585  -38.0103   24.7481 H   0  0  0  0  0  0
  -28.1107  -36.2661   24.6336 H   0  0  0  0  0  0
  -27.2285  -37.1487   25.8846 H   0  0  0  0  0  0
  -20.9262  -29.9301   21.7461 H   0  0  0  0  0  0
  -26.0157  -38.2818   24.1455 H   0  0  0  0  0  0
  -27.7041  -16.6534   22.0286 H   0  0  0  0  0  0
  -22.6294  -21.0700   22.4742 H   0  0  0  0  0  0
  -23.6038  -22.1555   21.4745 H   0  0  0  0  0  0
  -23.9348  -22.0030   23.1989 H   0  0  0  0  0  0
  -29.6362  -24.7430   23.3148 H   0  0  0  0  0  0
  -28.0287  -25.3548   22.9533 H   0  0  0  0  0  0
  -29.4479  -26.2104   22.3765 H   0  0  0  0  0  0
  -26.0408  -21.5713   21.0927 H   0  0  0  0  0  0
  -26.3145  -21.3872   22.8296 H   0  0  0  0  0  0
  -28.2049  -21.9060   19.6767 H   0  0  0  0  0  0
  -29.8025  -21.7811   20.3379 H   0  0  0  0  0  0
  -31.0481  -17.1536   21.7226 H   0  0  0  0  0  0
  -30.7651  -17.1930   20.0026 H   0  0  0  0  0  0
  -24.3477  -19.7889   21.1027 H   0  0  0  0  0  0
  -24.5698  -19.5614   22.8242 H   0  0  0  0  0  0
  -28.8742  -22.6403   22.5681 H   0  0  0  0  0  0
  -27.3994  -23.0449   21.7801 H   0  0  0  0  0  0
  -27.1079  -24.8688   20.3747 H   0  0  0  0  0  0
  -28.3678  -24.7345   19.1787 H   0  0  0  0  0  0
  -30.0117  -24.2830   20.8807 H   0  0  0  0  0  0
  -28.9910  -15.3194   21.3427 H   0  0  0  0  0  0
  1 25  1  0  0  0
  1 30  2  0  0  0
  1 86  1  0  0  0
  2  3  1  0  0  0
  2 25  1  0  0  0
  2 87  1  0  0  0
  2 88  1  0  0  0
  3  4  1  0  0  0
  3 89  1  0  0  0
  3 90  1  0  0  0
  4  5  1  0  0  0
  4 91  1  0  0  0
  4 92  1  0  0  0
  5  6  1  0  0  0
  5 26  1  0  0  0
  5 93  1  0  0  0
  6 25  1  0  0  0
  6 94  1  0  0  0
  6 95  1  0  0  0
  7  8  2  0  0  0
  7 26  1  0  0  0
  7 29  1  0  0  0
  8  9  1  0  0  0
  8 22  1  0  0  0
  9 10  1  0  0  0
  9 27  2  0  0  0
 10 11  2  0  0  0
 10 15  1  0  0  0
 11 12  1  0  0  0
 11 96  1  0  0  0
 12 13  2  0  0  0
 12 97  1  0  0  0
 13 14  1  0  0  0
 13 31  1  0  0  0
 14 15  2  0  0  0
 14 98  1  0  0  0
 15 99  1  0  0  0
 16 17  2  0  0  0
 16 21  1  0  0  0
 16 31  1  0  0  0
 17 18  1  0  0  0
 17100  1  0  0  0
 18 19  2  0  0  0
 18101  1  0  0  0
 19 20  1  0  0  0
 19 24  1  0  0  0
 20 21  2  0  0  0
 20102  1  0  0  0
 21 23  1  0  0  0
 22 28  1  0  0  0
 22 32  2  0  0  0
 26 27  1  0  0  0
 28103  1  0  0  0
 28104  1  0  0  0
 29105  1  0  0  0
 29106  1  0  0  0
 33 34  1  0  0  0
 33 66  1  0  0  0
 33 70  2  0  0  0
 34 36  1  0  0  0
 34 59  1  0  0  0
 34107  1  0  0  0
 35 44  2  0  0  0
 35 45  1  0  0  0
 35 68  1  0  0  0
 36 56  1  0  0  0
 36108  1  0  0  0
 37 39  1  0  0  0
 37 47  1  0  0  0
 37 66  1  0  0  0
 37109  1  0  0  0
 38 43  2  0  0  0
 38 46  1  0  0  0
 38 47  1  0  0  0
 39 64  1  0  0  0
 39 67  2  0  0  0
 40 52  1  0  0  0
 40 53  2  0  0  0
 40 58  1  0  0  0
 41110  1  0  0  0
 41111  1  0  0  0
 41112  1  0  0  0
 41 48  1  0  0  0
 42 43  1  0  0  0
 42 66  1  0  0  0
 42113  1  0  0  0
 42114  1  0  0  0
 43 44  1  0  0  0
 44115  1  0  0  0
 45 46  2  0  0  0
 45116  1  0  0  0
 46117  1  0  0  0
 47118  1  0  0  0
 47119  1  0  0  0
 48 56  1  0  0  0
 48 65  1  0  0  0
 48120  1  0  0  0
 49 50  1  0  0  0
 49 53  1  0  0  0
 49 64  1  0  0  0
 49121  1  0  0  0
 50 51  1  0  0  0
 50122  1  0  0  0
 50123  1  0  0  0
 51 52  1  0  0  0
 51124  1  0  0  0
 51125  1  0  0  0
 52126  1  0  0  0
 52127  1  0  0  0
 53 54  1  0  0  0
 54 55  2  0  0  0
 54128  1  0  0  0
 55 57  1  0  0  0
 55129  1  0  0  0
 56 69  2  0  0  0
 57 58  2  0  0  0
 57130  1  0  0  0
 58131  1  0  0  0
 59 60  1  0  0  0
 59 61  1  0  0  0
 59 62  1  0  0  0
 60132  1  0  0  0
 60133  1  0  0  0
 60134  1  0  0  0
 61135  1  0  0  0
 61136  1  0  0  0
 61137  1  0  0  0
 62138  1  0  0  0
 62139  1  0  0  0
 62140  1  0  0  0
 63 65  1  0  0  0
 63141  1  0  0  0
 63142  1  0  0  0
 63143  1  0  0  0
 64144  1  0  0  0
 65145  1  0  0  0
 68 82  1  0  0  0
 71 72  2  0  0  0
 71 84  1  0  0  0
 71146  1  0  0  0
 72 79  1  0  0  0
 72 85  1  0  0  0
 73 74  1  0  0  0
 73 77  1  0  0  0
 73 84  2  0  0  0
 74 78  1  0  0  0
 74 85  2  0  0  0
 75 80  1  0  0  0
 75147  1  0  0  0
 75148  1  0  0  0
 75149  1  0  0  0
 76150  1  0  0  0
 76151  1  0  0  0
 76152  1  0  0  0
 76 83  1  0  0  0
 77 80  1  0  0  0
 77153  1  0  0  0
 77154  1  0  0  0
 78 81  1  0  0  0
 78155  1  0  0  0
 78156  1  0  0  0
 79 86  1  0  0  0
 79157  1  0  0  0
 79158  1  0  0  0
 80159  1  0  0  0
 80160  1  0  0  0
 81 83  1  0  0  0
 81161  1  0  0  0
 81162  1  0  0  0
 82 83  1  0  0  0
 82163  1  0  0  0
 82164  1  0  0  0
 83165  1  0  0  0
 86166  1  0  0  0
M  ISO  4   1 100  68 101  82 101  86 100
M  END
> <chiral flag>
0

> <version>
0

> <s_m_source_file>
/data/baiqing/PycharmProjects/Reinvent-master-3.2/result/LINK_invent/BTK/process_docking_weight1_custom_sum_contain_oxygen_bond_distance_aromatic_linkinvent_7_9_3/rearranged_h_0084.sdf

> <i_m_source_file_index>
74

> <r_mmod_Potential_Energy-OPLS-2005>
19.5766849517822

> <r_mmod_Stretch_Energy-OPLS-2005>
58.7811584472656

> <r_mmod_Bend_Energy-OPLS-2005>
119.567047119141

> <r_mmod_Torsional_Energy-OPLS-2005>
213.849166870117

> <r_mmod_Improper_Torsional_Energy-OPLS-2005>
4.43098163604736

> <r_mmod_Van_der_Waal_Energy-OPLS-2005>
158.238830566406

> <r_mmod_Electrostatic_Energy-OPLS-2005>
-347.264373779297

> <r_mmod_Solvation_Energy-OPLS-2005>
-211.825637817383

> <b_mmod_Minimization_Converged-OPLS-2005>
0

> <r_mmod_RMS_Derivative-OPLS-2005>
6.38182640075684

$$$$
74
                    3D
 Structure written by MMmdl.
169177  0  0  1  0            999 V2000
  -30.7185  -14.5922   20.5553 C   0  0  0  0  0  0
  -30.3953  -12.3906   19.4633 C   0  0  0  0  0  0
  -29.4887  -12.5117   18.2236 C   0  0  0  0  0  0
  -28.0159  -12.3385   18.6357 C   0  0  0  0  0  0
  -27.6347  -13.2128   19.8544 C   0  0  2  0  0  0
  -28.6758  -13.1068   20.9933 C   0  0  0  0  0  0
  -25.2333  -13.7967   20.5381 C   0  0  0  0  0  0
  -24.1743  -13.0293   20.9246 C   0  0  0  0  0  0
  -24.6379  -11.6800   20.8871 C   0  0  0  0  0  0
  -23.9069  -10.4212   21.0506 C   0  0  0  0  0  0
  -24.3650   -9.4106   21.9241 C   0  0  0  0  0  0
  -23.6340   -8.2131   22.0757 C   0  0  0  0  0  0
  -22.4310   -8.0223   21.3542 C   0  0  0  0  0  0
  -21.9934   -9.0205   20.4660 C   0  0  0  0  0  0
  -22.7248  -10.2098   20.3134 C   0  0  0  0  0  0
  -21.6839   -6.0763   22.5307 C   0  0  0  0  0  0
  -21.3990   -6.5656   23.8248 C   0  0  0  0  0  0
  -21.3664   -5.6806   24.9209 C   0  0  0  0  0  0
  -21.6079   -4.3076   24.7258 C   0  0  0  0  0  0
  -21.8794   -3.8167   23.4362 C   0  0  0  0  0  0
  -21.9170   -4.6991   22.3414 C   0  0  0  0  0  0
  -22.7760  -13.5099   21.1906 C   0  0  0  0  0  0
  -22.1659   -4.2183   21.0999 F   0  0  0  0  0  0
  -21.5636   -3.4564   25.7780 F   0  0  0  0  0  0
  -29.9904  -13.4359   20.4308 N   0  0  0  0  0  0
  -26.2867  -12.9230   20.3265 N   0  0  0  0  0  0
  -25.9317  -11.6399   20.5874 N   0  0  0  0  0  0
  -22.0418  -12.8176   22.0531 N   0  0  0  0  0  0
  -25.3745  -15.1569   20.3123 N   0  0  0  0  0  0
  -31.8672  -14.6546   20.1192 O   0  0  0  0  0  0
  -21.6584   -6.8898   21.4284 O   0  0  0  0  0  0
  -22.3474  -14.5406   20.6716 O   0  0  0  0  0  0
  -24.6202  -31.8618   23.2066 C   0  0  0  0  0  0
  -25.9072  -32.4781   23.8367 C   0  0  1  0  0  0
  -27.2361  -27.3742   20.1181 C   0  0  0  0  0  0
  -25.5911  -33.8576   24.2297 N   0  0  0  0  0  0
  -23.4114  -30.4872   21.5461 C   0  0  2  0  0  0
  -24.8603  -28.9440   20.1155 C   0  0  0  0  0  0
  -22.7423  -29.4640   22.4922 C   0  0  0  0  0  0
  -18.0277  -28.1403   22.8456 C   0  0  0  0  0  0
  -24.1488  -36.7306   23.2640 C   0  0  0  0  0  0
  -25.9447  -30.8097   21.3667 C   0  0  0  0  0  0
  -26.0206  -29.4378   20.7204 C   0  0  0  0  0  0
  -27.2095  -28.6588   20.7225 C   0  0  0  0  0  0
  -26.0557  -26.9228   19.4839 C   0  0  0  0  0  0
  -24.8729  -27.6839   19.4965 C   0  0  0  0  0  0
  -23.6262  -29.8176   20.1631 C   0  0  0  0  0  0
  -25.4107  -36.3081   24.0336 C   0  0  1  0  0  0
  -20.5863  -28.3704   23.1279 C   0  0  2  0  0  0
  -20.6771  -26.9424   22.5417 C   0  0  0  0  0  0
  -19.5775  -26.6405   21.5198 C   0  0  0  0  0  0
  -18.1947  -26.7948   22.1593 C   0  0  0  0  0  0
  -19.1526  -28.8868   23.2867 C   0  0  0  0  0  0
  -18.9456  -30.1462   23.8907 C   0  0  0  0  0  0
  -17.6469  -30.6601   24.0561 C   0  0  0  0  0  0
  -25.9045  -34.9449   23.5111 C   0  0  0  0  0  0
  -16.5354  -29.9113   23.6320 C   0  0  0  0  0  0
  -16.7272  -28.6527   23.0332 C   0  0  0  0  0  0
  -26.4505  -31.6553   25.0691 C   0  0  0  0  0  0
  -25.3803  -31.3641   26.1462 C   0  0  0  0  0  0
  -27.0343  -30.2991   24.6084 C   0  0  0  0  0  0
  -27.6082  -32.4267   25.7458 C   0  0  0  0  0  0
  -27.5570  -37.1798   24.8469 C   0  0  0  0  0  0
  -21.4141  -29.3067   22.3663 N   0  0  0  0  0  0
  -26.4279  -37.3779   23.9428 N   0  0  0  0  0  0
  -24.6775  -31.0695   22.0988 N   0  0  0  0  0  0
  -23.4151  -28.8159   23.2975 O   0  0  0  0  0  0
  -28.3800  -26.5777   20.1449 O   0  0  0  0  0  0
  -26.5602  -34.8900   22.4665 O   0  0  0  0  0  0
  -23.5379  -32.1363   23.7447 O   0  0  0  0  0  0
  -29.6826  -18.8265   20.7912 C   0  0  0  0  0  0
  -27.9099  -19.9938   21.3984 C   0  0  0  0  0  0
  -28.7721  -17.8970   21.2805 C   0  0  0  0  0  0
  -27.6290  -18.6881   21.6981 C   0  0  0  0  0  0
  -29.7894  -24.3261   18.7705 C   0  0  0  0  0  0
  -25.2174  -18.3491   21.1903 C   0  0  0  0  0  0
  -25.8574  -19.3816   23.3675 C   0  0  0  0  0  0
  -26.2697  -16.9538   23.0323 C   0  0  0  0  0  0
  -28.9090  -16.3385   21.3446 C   0  0  0  0  0  0
  -28.8179  -22.6761   20.5238 C   0  0  0  0  0  0
  -29.7825  -21.4231   20.4444 C   0  0  0  0  0  0
  -28.1861  -25.1910   20.5648 C   0  0  0  0  0  0
  -29.3134  -24.1468   20.2234 C   0  0  2  0  0  0
  -26.2715  -18.3182   22.3152 C   0  0  0  0  0  0
  -29.1612  -20.1255   20.8528 N   0  0  0  0  0  0
  -30.2408  -15.7390   21.1259 N   0  0  0  0  0  0
  -31.4401  -12.4672   19.1635 H   0  0  0  0  0  0
  -30.2943  -11.4059   19.9222 H   0  0  0  0  0  0
  -29.7501  -11.7595   17.4802 H   0  0  0  0  0  0
  -29.6370  -13.4776   17.7393 H   0  0  0  0  0  0
  -27.8703  -11.2874   18.8847 H   0  0  0  0  0  0
  -27.3515  -12.5545   17.7954 H   0  0  0  0  0  0
  -27.6338  -14.2338   19.4812 H   0  0  0  0  0  0
  -28.6783  -12.0940   21.4031 H   0  0  0  0  0  0
  -28.4248  -13.7548   21.8316 H   0  0  0  0  0  0
  -25.2771   -9.5596   22.4868 H   0  0  0  0  0  0
  -24.0050   -7.4541   22.7482 H   0  0  0  0  0  0
  -21.0829   -8.8760   19.9021 H   0  0  0  0  0  0
  -22.3654  -10.9698   19.6343 H   0  0  0  0  0  0
  -21.1967   -7.6150   23.9779 H   0  0  0  0  0  0
  -21.1520   -6.0523   25.9120 H   0  0  0  0  0  0
  -22.0565   -2.7621   23.2839 H   0  0  0  0  0  0
  -22.3898  -11.9703   22.4783 H   0  0  0  0  0  0
  -21.1105  -13.1373   22.2798 H   0  0  0  0  0  0
  -24.5727  -15.7735   20.3600 H   0  0  0  0  0  0
  -26.1888  -15.5976   19.9105 H   0  0  0  0  0  0
  -26.7101  -32.5480   23.1086 H   0  0  0  0  0  0
  -25.0069  -33.9730   25.0445 H   0  0  0  0  0  0
  -22.7041  -31.3055   21.4029 H   0  0  0  0  0  0
  -23.3730  -35.9654   23.3297 H   0  0  0  0  0  0
  -24.3573  -36.8945   22.2055 H   0  0  0  0  0  0
  -23.7263  -37.6519   23.6660 H   0  0  0  0  0  0
  -26.0608  -31.5635   20.5864 H   0  0  0  0  0  0
  -26.8290  -30.8644   21.9882 H   0  0  0  0  0  0
  -28.0996  -29.0298   21.2086 H   0  0  0  0  0  0
  -26.0300  -25.9759   18.9652 H   0  0  0  0  0  0
  -23.9788  -27.2967   19.0281 H   0  0  0  0  0  0
  -23.7476  -30.5903   19.4058 H   0  0  0  0  0  0
  -22.7492  -29.2475   19.8603 H   0  0  0  0  0  0
  -25.1270  -36.1918   25.0827 H   0  0  0  0  0  0
  -20.9930  -28.3292   24.1409 H   0  0  0  0  0  0
  -20.5665  -26.2312   23.3611 H   0  0  0  0  0  0
  -21.6649  -26.7489   22.1221 H   0  0  0  0  0  0
  -19.6948  -25.6319   21.1244 H   0  0  0  0  0  0
  -19.6732  -27.3197   20.6715 H   0  0  0  0  0  0
  -17.4203  -26.6641   21.4008 H   0  0  0  0  0  0
  -18.0381  -26.0109   22.9016 H   0  0  0  0  0  0
  -19.7941  -30.7252   24.2290 H   0  0  0  0  0  0
  -17.5048  -31.6291   24.5160 H   0  0  0  0  0  0
  -15.5369  -30.3039   23.7688 H   0  0  0  0  0  0
  -15.8640  -28.0892   22.7055 H   0  0  0  0  0  0
  -24.5996  -30.6954   25.7812 H   0  0  0  0  0  0
  -24.8986  -32.2793   26.4926 H   0  0  0  0  0  0
  -25.8208  -30.8812   27.0205 H   0  0  0  0  0  0
  -26.2885  -29.6720   24.1188 H   0  0  0  0  0  0
  -27.4169  -29.7249   25.4539 H   0  0  0  0  0  0
  -27.8693  -30.4308   23.9192 H   0  0  0  0  0  0
  -27.2714  -33.3561   26.2065 H   0  0  0  0  0  0
  -28.3892  -32.6839   25.0283 H   0  0  0  0  0  0
  -28.0747  -31.8366   26.5366 H   0  0  0  0  0  0
  -28.2577  -38.0102   24.7498 H   0  0  0  0  0  0
  -28.1064  -36.2629   24.6286 H   0  0  0  0  0  0
  -27.2284  -37.1446   25.8871 H   0  0  0  0  0  0
  -20.9287  -29.8777   21.6873 H   0  0  0  0  0  0
  -26.0146  -38.2842   24.1436 H   0  0  0  0  0  0
  -30.6756  -18.6830   20.3847 H   0  0  0  0  0  0
  -27.2846  -20.8618   21.5398 H   0  0  0  0  0  0
  -30.6455  -23.6935   18.5395 H   0  0  0  0  0  0
  -30.1004  -25.3569   18.5871 H   0  0  0  0  0  0
  -29.0010  -24.0960   18.0512 H   0  0  0  0  0  0
  -25.0435  -19.3686   20.8404 H   0  0  0  0  0  0
  -24.2507  -17.9518   21.5031 H   0  0  0  0  0  0
  -25.5491  -17.7848   20.3186 H   0  0  0  0  0  0
  -25.6303  -20.3535   22.9289 H   0  0  0  0  0  0
  -26.6456  -19.5419   24.1028 H   0  0  0  0  0  0
  -24.9555  -19.0891   23.9050 H   0  0  0  0  0  0
  -25.3045  -16.7720   23.5060 H   0  0  0  0  0  0
  -27.0287  -16.9078   23.8123 H   0  0  0  0  0  0
  -26.4345  -16.1185   22.3622 H   0  0  0  0  0  0
  -28.1926  -15.9175   20.6459 H   0  0  0  0  0  0
  -28.6231  -16.0122   22.3420 H   0  0  0  0  0  0
  -28.4232  -22.7049   21.5397 H   0  0  0  0  0  0
  -27.9705  -22.4803   19.8626 H   0  0  0  0  0  0
  -30.6522  -21.5911   21.0808 H   0  0  0  0  0  0
  -30.1585  -21.3104   19.4264 H   0  0  0  0  0  0
  -28.0477  -25.1966   21.6484 H   0  0  0  0  0  0
  -27.2561  -24.7820   20.1763 H   0  0  0  0  0  0
  -30.1629  -24.3637   20.8740 H   0  0  0  0  0  0
  -30.9791  -16.4164   21.2451 H   0  0  0  0  0  0
  1 25  1  0  0  0
  1 30  2  0  0  0
  1 86  1  0  0  0
  2  3  1  0  0  0
  2 25  1  0  0  0
  2 87  1  0  0  0
  2 88  1  0  0  0
  3  4  1  0  0  0
  3 89  1  0  0  0
  3 90  1  0  0  0
  4  5  1  0  0  0
  4 91  1  0  0  0
  4 92  1  0  0  0
  5  6  1  0  0  0
  5 26  1  0  0  0
  5 93  1  0  0  0
  6 25  1  0  0  0
  6 94  1  0  0  0
  6 95  1  0  0  0
  7  8  2  0  0  0
  7 26  1  0  0  0
  7 29  1  0  0  0
  8  9  1  0  0  0
  8 22  1  0  0  0
  9 10  1  0  0  0
  9 27  2  0  0  0
 10 11  2  0  0  0
 10 15  1  0  0  0
 11 12  1  0  0  0
 11 96  1  0  0  0
 12 13  2  0  0  0
 12 97  1  0  0  0
 13 14  1  0  0  0
 13 31  1  0  0  0
 14 15  2  0  0  0
 14 98  1  0  0  0
 15 99  1  0  0  0
 16 17  2  0  0  0
 16 21  1  0  0  0
 16 31  1  0  0  0
 17 18  1  0  0  0
 17100  1  0  0  0
 18 19  2  0  0  0
 18101  1  0  0  0
 19 20  1  0  0  0
 19 24  1  0  0  0
 20 21  2  0  0  0
 20102  1  0  0  0
 21 23  1  0  0  0
 22 28  1  0  0  0
 22 32  2  0  0  0
 26 27  1  0  0  0
 28103  1  0  0  0
 28104  1  0  0  0
 29105  1  0  0  0
 29106  1  0  0  0
 33 34  1  0  0  0
 33 66  1  0  0  0
 33 70  2  0  0  0
 34 36  1  0  0  0
 34 59  1  0  0  0
 34107  1  0  0  0
 35 44  2  0  0  0
 35 45  1  0  0  0
 35 68  1  0  0  0
 36 56  1  0  0  0
 36108  1  0  0  0
 37 39  1  0  0  0
 37 47  1  0  0  0
 37 66  1  0  0  0
 37109  1  0  0  0
 38 43  2  0  0  0
 38 46  1  0  0  0
 38 47  1  0  0  0
 39 64  1  0  0  0
 39 67  2  0  0  0
 40 52  1  0  0  0
 40 53  2  0  0  0
 40 58  1  0  0  0
 41110  1  0  0  0
 41111  1  0  0  0
 41112  1  0  0  0
 41 48  1  0  0  0
 42 43  1  0  0  0
 42 66  1  0  0  0
 42113  1  0  0  0
 42114  1  0  0  0
 43 44  1  0  0  0
 44115  1  0  0  0
 45 46  2  0  0  0
 45116  1  0  0  0
 46117  1  0  0  0
 47118  1  0  0  0
 47119  1  0  0  0
 48 56  1  0  0  0
 48 65  1  0  0  0
 48120  1  0  0  0
 49 50  1  0  0  0
 49 53  1  0  0  0
 49 64  1  0  0  0
 49121  1  0  0  0
 50 51  1  0  0  0
 50122  1  0  0  0
 50123  1  0  0  0
 51 52  1  0  0  0
 51124  1  0  0  0
 51125  1  0  0  0
 52126  1  0  0  0
 52127  1  0  0  0
 53 54  1  0  0  0
 54 55  2  0  0  0
 54128  1  0  0  0
 55 57  1  0  0  0
 55129  1  0  0  0
 56 69  2  0  0  0
 57 58  2  0  0  0
 57130  1  0  0  0
 58131  1  0  0  0
 59 60  1  0  0  0
 59 61  1  0  0  0
 59 62  1  0  0  0
 60132  1  0  0  0
 60133  1  0  0  0
 60134  1  0  0  0
 61135  1  0  0  0
 61136  1  0  0  0
 61137  1  0  0  0
 62138  1  0  0  0
 62139  1  0  0  0
 62140  1  0  0  0
 63 65  1  0  0  0
 63141  1  0  0  0
 63142  1  0  0  0
 63143  1  0  0  0
 64144  1  0  0  0
 65145  1  0  0  0
 68 82  1  0  0  0
 71 73  2  0  0  0
 71 85  1  0  0  0
 71146  1  0  0  0
 72 74  2  0  0  0
 72 85  1  0  0  0
 72147  1  0  0  0
 73 74  1  0  0  0
 73 79  1  0  0  0
 74 84  1  0  0  0
 75148  1  0  0  0
 75149  1  0  0  0
 75150  1  0  0  0
 75 83  1  0  0  0
 76151  1  0  0  0
 76152  1  0  0  0
 76153  1  0  0  0
 76 84  1  0  0  0
 77 84  1  0  0  0
 77154  1  0  0  0
 77155  1  0  0  0
 77156  1  0  0  0
 78 84  1  0  0  0
 78157  1  0  0  0
 78158  1  0  0  0
 78159  1  0  0  0
 79 86  1  0  0  0
 79160  1  0  0  0
 79161  1  0  0  0
 80 81  1  0  0  0
 80 83  1  0  0  0
 80162  1  0  0  0
 80163  1  0  0  0
 81 85  1  0  0  0
 81164  1  0  0  0
 81165  1  0  0  0
 82 83  1  0  0  0
 82166  1  0  0  0
 82167  1  0  0  0
 83168  1  0  0  0
 86169  1  0  0  0
M  ISO  4   1 100  68 101  82 101  86 100
M  END
> <chiral flag>
0

> <version>
0

> <s_m_source_file>
/data/baiqing/PycharmProjects/Reinvent-master-3.2/result/LINK_invent/BTK/process_docking_weight1_custom_sum_contain_oxygen_bond_distance_aromatic_linkinvent_7_9_3/rearranged_h_0084.sdf

> <i_m_source_file_index>
75

> <r_mmod_Potential_Energy-OPLS-2005>
21.4372940063477

> <r_mmod_Stretch_Energy-OPLS-2005>
63.473461151123

> <r_mmod_Bend_Energy-OPLS-2005>
173.850158691406

> <r_mmod_Torsional_Energy-OPLS-2005>
269.712158203125

> <r_mmod_Improper_Torsional_Energy-OPLS-2005>
2.9249472618103

> <r_mmod_Van_der_Waal_Energy-OPLS-2005>
132.328521728516

> <r_mmod_Electrostatic_Energy-OPLS-2005>
-468.780364990234

> <r_mmod_Solvation_Energy-OPLS-2005>
-187.675155639648

> <b_mmod_Minimization_Converged-OPLS-2005>
0

> <r_mmod_RMS_Derivative-OPLS-2005>
5.33594799041748

$$$$
75
                    3D
 Structure written by MMmdl.
170178  0  0  1  0            999 V2000
  -30.6419  -14.7250   20.4601 C   0  0  0  0  0  0
  -30.4333  -12.4410   19.4817 C   0  0  0  0  0  0
  -29.5102  -12.4913   18.2451 C   0  0  0  0  0  0
  -28.0355  -12.3335   18.6587 C   0  0  0  0  0  0
  -27.6481  -13.2352   19.8626 C   0  0  2  0  0  0
  -28.6957  -13.1747   20.9965 C   0  0  0  0  0  0
  -25.2540  -13.8217   20.5750 C   0  0  0  0  0  0
  -24.1851  -13.0469   20.9210 C   0  0  0  0  0  0
  -24.6433  -11.6925   20.8791 C   0  0  0  0  0  0
  -23.9100  -10.4309   21.0436 C   0  0  0  0  0  0
  -24.3633   -9.4207   21.9199 C   0  0  0  0  0  0
  -23.6306   -8.2253   22.0753 C   0  0  0  0  0  0
  -22.4274   -8.0310   21.3558 C   0  0  0  0  0  0
  -21.9926   -9.0276   20.4658 C   0  0  0  0  0  0
  -22.7259  -10.2163   20.3075 C   0  0  0  0  0  0
  -21.6858   -6.0755   22.5271 C   0  0  0  0  0  0
  -21.4026   -6.5655   23.8200 C   0  0  0  0  0  0
  -21.3644   -5.6819   24.9156 C   0  0  0  0  0  0
  -21.6043   -4.3076   24.7232 C   0  0  0  0  0  0
  -21.8813   -3.8153   23.4350 C   0  0  0  0  0  0
  -21.9201   -4.6978   22.3397 C   0  0  0  0  0  0
  -22.7851  -13.5241   21.1855 C   0  0  0  0  0  0
  -22.1672   -4.2165   21.0981 F   0  0  0  0  0  0
  -21.5611   -3.4550   25.7735 F   0  0  0  0  0  0
  -29.9952  -13.5110   20.4077 N   0  0  0  0  0  0
  -26.2978  -12.9430   20.3359 N   0  0  0  0  0  0
  -25.9388  -11.6554   20.5843 N   0  0  0  0  0  0
  -22.0498  -12.8246   22.0403 N   0  0  0  0  0  0
  -25.4284  -15.1960   20.4145 N   0  0  0  0  0  0
  -31.8177  -14.7998   20.0975 O   0  0  0  0  0  0
  -21.6657   -6.8896   21.4228 O   0  0  0  0  0  0
  -22.3544  -14.5539   20.6689 O   0  0  0  0  0  0
  -24.6340  -31.8536   23.1981 C   0  0  0  0  0  0
  -25.9164  -32.4727   23.8300 C   0  0  1  0  0  0
  -27.1895  -27.2334   20.1290 C   0  0  0  0  0  0
  -25.5949  -33.8540   24.2181 N   0  0  0  0  0  0
  -23.4237  -30.4824   21.5435 C   0  0  2  0  0  0
  -24.8667  -28.9244   20.1075 C   0  0  0  0  0  0
  -22.7446  -29.4646   22.4917 C   0  0  0  0  0  0
  -18.0268  -28.1367   22.8468 C   0  0  0  0  0  0
  -24.1473  -36.7272   23.2632 C   0  0  0  0  0  0
  -25.9775  -30.7553   21.3791 C   0  0  0  0  0  0
  -26.0436  -29.3822   20.7139 C   0  0  0  0  0  0
  -27.2164  -28.5523   20.7059 C   0  0  0  0  0  0
  -25.9960  -26.8591   19.4803 C   0  0  0  0  0  0
  -24.8492  -27.6729   19.4793 C   0  0  0  0  0  0
  -23.6398  -29.8167   20.1587 C   0  0  0  0  0  0
  -25.4112  -36.3035   24.0280 C   0  0  1  0  0  0
  -20.5865  -28.3707   23.1236 C   0  0  2  0  0  0
  -20.6761  -26.9437   22.5387 C   0  0  0  0  0  0
  -19.5747  -26.6381   21.5169 C   0  0  0  0  0  0
  -18.1926  -26.7903   22.1597 C   0  0  0  0  0  0
  -19.1523  -28.8841   23.2833 C   0  0  0  0  0  0
  -18.9468  -30.1417   23.8891 C   0  0  0  0  0  0
  -17.6477  -30.6585   24.0541 C   0  0  0  0  0  0
  -25.9077  -34.9426   23.5023 C   0  0  0  0  0  0
  -16.5353  -29.9081   23.6328 C   0  0  0  0  0  0
  -16.7259  -28.6474   23.0389 C   0  0  0  0  0  0
  -26.4530  -31.6592   25.0722 C   0  0  0  0  0  0
  -25.3725  -31.3805   26.1423 C   0  0  0  0  0  0
  -27.0349  -30.2948   24.6301 C   0  0  0  0  0  0
  -27.6034  -32.4405   25.7548 C   0  0  0  0  0  0
  -27.5551  -37.1782   24.8451 C   0  0  0  0  0  0
  -21.4165  -29.3036   22.3613 N   0  0  0  0  0  0
  -26.4263  -37.3748   23.9397 N   0  0  0  0  0  0
  -24.6989  -31.0463   22.0975 N   0  0  0  0  0  0
  -23.4129  -28.8207   23.3038 O   0  0  0  0  0  0
  -28.2499  -26.2955   20.1588 O   0  0  0  0  0  0
  -26.5672  -34.8939   22.4600 O   0  0  0  0  0  0
  -23.5490  -32.1415   23.7250 O   0  0  0  0  0  0
  -27.6179  -21.1048   18.2366 C   0  0  0  0  0  0
  -28.3671  -20.8143   19.4073 C   0  0  0  0  0  0
  -27.3994  -20.1458   17.2222 C   0  0  0  0  0  0
  -28.8454  -19.4213   19.5257 C   0  0  0  0  0  0
  -28.1241  -18.9406   17.3348 C   0  0  0  0  0  0
  -28.2986  -17.9720   16.1716 C   0  0  0  0  0  0
  -25.6533  -21.7196   16.0540 C   0  0  0  0  0  0
  -25.2570  -19.2764   16.2084 C   0  0  0  0  0  0
  -31.4853  -17.5120   21.7565 C   0  0  0  0  0  0
  -28.4287  -22.0207   20.4434 C   0  0  0  0  0  0
  -29.3316  -18.5938   20.7903 C   0  0  0  0  0  0
  -28.7105  -23.5562   19.9274 C   0  0  0  0  0  0
  -27.9471  -24.8568   20.5501 C   0  0  0  0  0  0
  -26.3611  -20.3486   16.0911 C   0  0  0  0  0  0
  -30.3908  -17.3406   20.6683 C   0  0  1  0  0  0
  -28.7504  -18.5833   18.4683 N   0  0  0  0  0  0
  -29.9188  -15.8774   20.7402 N   0  0  0  0  0  0
  -31.4742  -12.5523   19.1706 H   0  0  0  0  0  0
  -30.3831  -11.4680   19.9732 H   0  0  0  0  0  0
  -29.7797  -11.7045   17.5383 H   0  0  0  0  0  0
  -29.6470  -13.4381   17.7228 H   0  0  0  0  0  0
  -27.8756  -11.2856   18.9171 H   0  0  0  0  0  0
  -27.3793  -12.5364   17.8114 H   0  0  0  0  0  0
  -27.6442  -14.2579   19.4853 H   0  0  0  0  0  0
  -28.7277  -12.1879   21.4586 H   0  0  0  0  0  0
  -28.4409  -13.8731   21.7960 H   0  0  0  0  0  0
  -25.2770   -9.5696   22.4789 H   0  0  0  0  0  0
  -24.0013   -7.4646   22.7497 H   0  0  0  0  0  0
  -21.0839   -8.8816   19.8982 H   0  0  0  0  0  0
  -22.3698  -10.9725   19.6208 H   0  0  0  0  0  0
  -21.2025   -7.6171   23.9711 H   0  0  0  0  0  0
  -21.1461   -6.0548   25.9079 H   0  0  0  0  0  0
  -22.0604   -2.7628   23.2842 H   0  0  0  0  0  0
  -22.4137  -11.9894   22.4747 H   0  0  0  0  0  0
  -21.1134  -13.1272   22.2661 H   0  0  0  0  0  0
  -24.6588  -15.8479   20.5189 H   0  0  0  0  0  0
  -26.2677  -15.6245   20.0449 H   0  0  0  0  0  0
  -26.7230  -32.5301   23.1047 H   0  0  0  0  0  0
  -25.0042  -33.9705   25.0282 H   0  0  0  0  0  0
  -22.7209  -31.3071   21.3970 H   0  0  0  0  0  0
  -23.3712  -35.9620   23.3304 H   0  0  0  0  0  0
  -24.3553  -36.8894   22.2042 H   0  0  0  0  0  0
  -23.7275  -37.6483   23.6692 H   0  0  0  0  0  0
  -26.1231  -31.5199   20.6134 H   0  0  0  0  0  0
  -26.8507  -30.7983   22.0181 H   0  0  0  0  0  0
  -28.1186  -28.9015   21.1883 H   0  0  0  0  0  0
  -25.9239  -25.9027   18.9806 H   0  0  0  0  0  0
  -23.9492  -27.3136   18.9959 H   0  0  0  0  0  0
  -23.7621  -30.5933   19.4035 H   0  0  0  0  0  0
  -22.7525  -29.2574   19.8566 H   0  0  0  0  0  0
  -25.1307  -36.1840   25.0766 H   0  0  0  0  0  0
  -20.9970  -28.3297   24.1334 H   0  0  0  0  0  0
  -20.5610  -26.2349   23.3591 H   0  0  0  0  0  0
  -21.6652  -26.7453   22.1207 H   0  0  0  0  0  0
  -19.6958  -25.6284   21.1201 H   0  0  0  0  0  0
  -19.6672  -27.3176   20.6663 H   0  0  0  0  0  0
  -17.4197  -26.6594   21.4004 H   0  0  0  0  0  0
  -18.0395  -26.0050   22.9005 H   0  0  0  0  0  0
  -19.7946  -30.7180   24.2330 H   0  0  0  0  0  0
  -17.5051  -31.6307   24.5092 H   0  0  0  0  0  0
  -15.5358  -30.3001   23.7658 H   0  0  0  0  0  0
  -15.8641  -28.0753   22.7201 H   0  0  0  0  0  0
  -24.5939  -30.7106   25.7764 H   0  0  0  0  0  0
  -24.8920  -32.3014   26.4736 H   0  0  0  0  0  0
  -25.8044  -30.9087   27.0251 H   0  0  0  0  0  0
  -26.2938  -29.6727   24.1278 H   0  0  0  0  0  0
  -27.3849  -29.7221   25.4897 H   0  0  0  0  0  0
  -27.8912  -30.4090   23.9654 H   0  0  0  0  0  0
  -27.2539  -33.3698   26.2070 H   0  0  0  0  0  0
  -28.3916  -32.6986   25.0463 H   0  0  0  0  0  0
  -28.0636  -31.8595   26.5553 H   0  0  0  0  0  0
  -28.2560  -38.0091   24.7509 H   0  0  0  0  0  0
  -28.1063  -36.2624   24.6260 H   0  0  0  0  0  0
  -27.2283  -37.1400   25.8860 H   0  0  0  0  0  0
  -20.9372  -29.8715   21.6773 H   0  0  0  0  0  0
  -26.0101  -38.2780   24.1463 H   0  0  0  0  0  0
  -27.1617  -22.0770   18.1394 H   0  0  0  0  0  0
  -27.5022  -17.2341   16.0933 H   0  0  0  0  0  0
  -29.2367  -17.4249   16.2610 H   0  0  0  0  0  0
  -28.3625  -18.5278   15.2378 H   0  0  0  0  0  0
  -26.3419  -22.5406   15.8594 H   0  0  0  0  0  0
  -25.1141  -21.9271   16.9804 H   0  0  0  0  0  0
  -24.9122  -21.7347   15.2500 H   0  0  0  0  0  0
  -25.6267  -18.2653   16.0697 H   0  0  0  0  0  0
  -24.4606  -19.4087   15.4744 H   0  0  0  0  0  0
  -24.8057  -19.3196   17.1995 H   0  0  0  0  0  0
  -32.3464  -16.8666   21.5810 H   0  0  0  0  0  0
  -31.0966  -17.2731   22.7489 H   0  0  0  0  0  0
  -31.8783  -18.5292   21.7972 H   0  0  0  0  0  0
  -29.1693  -21.7611   21.2003 H   0  0  0  0  0  0
  -27.4788  -22.0097   20.9810 H   0  0  0  0  0  0
  -28.4535  -18.2555   21.3416 H   0  0  0  0  0  0
  -29.7761  -19.3546   21.4349 H   0  0  0  0  0  0
  -28.5830  -23.6065   18.8477 H   0  0  0  0  0  0
  -29.7769  -23.7185   20.0739 H   0  0  0  0  0  0
  -28.1337  -24.8245   21.6242 H   0  0  0  0  0  0
  -26.8807  -24.6535   20.4713 H   0  0  0  0  0  0
  -26.8713  -20.2328   15.1320 H   0  0  0  0  0  0
  -30.9019  -17.4561   19.7134 H   0  0  0  0  0  0
  -28.9527  -15.7303   20.9882 H   0  0  0  0  0  0
  1 25  1  0  0  0
  1 30  2  0  0  0
  1 87  1  0  0  0
  2  3  1  0  0  0
  2 25  1  0  0  0
  2 88  1  0  0  0
  2 89  1  0  0  0
  3  4  1  0  0  0
  3 90  1  0  0  0
  3 91  1  0  0  0
  4  5  1  0  0  0
  4 92  1  0  0  0
  4 93  1  0  0  0
  5  6  1  0  0  0
  5 26  1  0  0  0
  5 94  1  0  0  0
  6 25  1  0  0  0
  6 95  1  0  0  0
  6 96  1  0  0  0
  7  8  2  0  0  0
  7 26  1  0  0  0
  7 29  1  0  0  0
  8  9  1  0  0  0
  8 22  1  0  0  0
  9 10  1  0  0  0
  9 27  2  0  0  0
 10 11  2  0  0  0
 10 15  1  0  0  0
 11 12  1  0  0  0
 11 97  1  0  0  0
 12 13  2  0  0  0
 12 98  1  0  0  0
 13 14  1  0  0  0
 13 31  1  0  0  0
 14 15  2  0  0  0
 14 99  1  0  0  0
 15100  1  0  0  0
 16 17  2  0  0  0
 16 21  1  0  0  0
 16 31  1  0  0  0
 17 18  1  0  0  0
 17101  1  0  0  0
 18 19  2  0  0  0
 18102  1  0  0  0
 19 20  1  0  0  0
 19 24  1  0  0  0
 20 21  2  0  0  0
 20103  1  0  0  0
 21 23  1  0  0  0
 22 28  1  0  0  0
 22 32  2  0  0  0
 26 27  1  0  0  0
 28104  1  0  0  0
 28105  1  0  0  0
 29106  1  0  0  0
 29107  1  0  0  0
 33 34  1  0  0  0
 33 66  1  0  0  0
 33 70  2  0  0  0
 34 36  1  0  0  0
 34 59  1  0  0  0
 34108  1  0  0  0
 35 44  2  0  0  0
 35 45  1  0  0  0
 35 68  1  0  0  0
 36 56  1  0  0  0
 36109  1  0  0  0
 37 39  1  0  0  0
 37 47  1  0  0  0
 37 66  1  0  0  0
 37110  1  0  0  0
 38 43  2  0  0  0
 38 46  1  0  0  0
 38 47  1  0  0  0
 39 64  1  0  0  0
 39 67  2  0  0  0
 40 52  1  0  0  0
 40 53  2  0  0  0
 40 58  1  0  0  0
 41111  1  0  0  0
 41112  1  0  0  0
 41113  1  0  0  0
 41 48  1  0  0  0
 42 43  1  0  0  0
 42 66  1  0  0  0
 42114  1  0  0  0
 42115  1  0  0  0
 43 44  1  0  0  0
 44116  1  0  0  0
 45 46  2  0  0  0
 45117  1  0  0  0
 46118  1  0  0  0
 47119  1  0  0  0
 47120  1  0  0  0
 48 56  1  0  0  0
 48 65  1  0  0  0
 48121  1  0  0  0
 49 50  1  0  0  0
 49 53  1  0  0  0
 49 64  1  0  0  0
 49122  1  0  0  0
 50 51  1  0  0  0
 50123  1  0  0  0
 50124  1  0  0  0
 51 52  1  0  0  0
 51125  1  0  0  0
 51126  1  0  0  0
 52127  1  0  0  0
 52128  1  0  0  0
 53 54  1  0  0  0
 54 55  2  0  0  0
 54129  1  0  0  0
 55 57  1  0  0  0
 55130  1  0  0  0
 56 69  2  0  0  0
 57 58  2  0  0  0
 57131  1  0  0  0
 58132  1  0  0  0
 59 60  1  0  0  0
 59 61  1  0  0  0
 59 62  1  0  0  0
 60133  1  0  0  0
 60134  1  0  0  0
 60135  1  0  0  0
 61136  1  0  0  0
 61137  1  0  0  0
 61138  1  0  0  0
 62139  1  0  0  0
 62140  1  0  0  0
 62141  1  0  0  0
 63 65  1  0  0  0
 63142  1  0  0  0
 63143  1  0  0  0
 63144  1  0  0  0
 64145  1  0  0  0
 65146  1  0  0  0
 68 83  1  0  0  0
 71 72  2  0  0  0
 71 73  1  0  0  0
 71147  1  0  0  0
 72 74  1  0  0  0
 72 80  1  0  0  0
 73 75  2  0  0  0
 73 84  1  0  0  0
 74 81  1  0  0  0
 74 86  2  0  0  0
 75 76  1  0  0  0
 75 86  1  0  0  0
 76148  1  0  0  0
 76149  1  0  0  0
 76150  1  0  0  0
 77151  1  0  0  0
 77152  1  0  0  0
 77153  1  0  0  0
 77 84  1  0  0  0
 78 84  1  0  0  0
 78154  1  0  0  0
 78155  1  0  0  0
 78156  1  0  0  0
 79157  1  0  0  0
 79158  1  0  0  0
 79159  1  0  0  0
 79 85  1  0  0  0
 80 82  1  0  0  0
 80160  1  0  0  0
 80161  1  0  0  0
 81 85  1  0  0  0
 81162  1  0  0  0
 81163  1  0  0  0
 82 83  1  0  0  0
 82164  1  0  0  0
 82165  1  0  0  0
 83166  1  0  0  0
 83167  1  0  0  0
 84168  1  0  0  0
 85 87  1  0  0  0
 85169  1  0  0  0
 87170  1  0  0  0
M  ISO  4   1 100  68 101  83 101  87 100
M  END
> <chiral flag>
0

> <version>
0

> <s_m_source_file>
/data/baiqing/PycharmProjects/Reinvent-master-3.2/result/LINK_invent/BTK/process_docking_weight1_custom_sum_contain_oxygen_bond_distance_aromatic_linkinvent_7_9_3/rearranged_h_0084.sdf

> <i_m_source_file_index>
76

> <r_mmod_Potential_Energy-OPLS-2005>
183.239074707031

> <r_mmod_Stretch_Energy-OPLS-2005>
154.084884643555

> <r_mmod_Bend_Energy-OPLS-2005>
210.388320922852

> <r_mmod_Torsional_Energy-OPLS-2005>
257.655059814453

> <r_mmod_Improper_Torsional_Energy-OPLS-2005>
5.18579530715942

> <r_mmod_Van_der_Waal_Energy-OPLS-2005>
145.497406005859

> <r_mmod_Electrostatic_Energy-OPLS-2005>
-466.841430664062

> <r_mmod_Solvation_Energy-OPLS-2005>
-214.127639770508

> <b_mmod_Minimization_Converged-OPLS-2005>
0

> <r_mmod_RMS_Derivative-OPLS-2005>
6.63917779922485

$$$$
76
                    3D
 Structure written by MMmdl.
168176  0  0  1  0            999 V2000
  -30.6191  -14.6776   20.4947 C   0  0  0  0  0  0
  -30.4350  -12.4197   19.4548 C   0  0  0  0  0  0
  -29.5064  -12.5016   18.2241 C   0  0  0  0  0  0
  -28.0305  -12.3367   18.6394 C   0  0  0  0  0  0
  -27.6450  -13.2236   19.8546 C   0  0  2  0  0  0
  -28.6906  -13.1153   20.9852 C   0  0  0  0  0  0
  -25.2521  -13.8176   20.5691 C   0  0  0  0  0  0
  -24.1802  -13.0436   20.9212 C   0  0  0  0  0  0
  -24.6382  -11.6912   20.8747 C   0  0  0  0  0  0
  -23.9054  -10.4292   21.0403 C   0  0  0  0  0  0
  -24.3602   -9.4203   21.9190 C   0  0  0  0  0  0
  -23.6279   -8.2238   22.0762 C   0  0  0  0  0  0
  -22.4263   -8.0279   21.3551 C   0  0  0  0  0  0
  -21.9898   -9.0248   20.4658 C   0  0  0  0  0  0
  -22.7221  -10.2128   20.3067 C   0  0  0  0  0  0
  -21.6856   -6.0727   22.5274 C   0  0  0  0  0  0
  -21.4006   -6.5635   23.8206 C   0  0  0  0  0  0
  -21.3662   -5.6790   24.9175 C   0  0  0  0  0  0
  -21.6042   -4.3053   24.7222 C   0  0  0  0  0  0
  -21.8818   -3.8144   23.4347 C   0  0  0  0  0  0
  -21.9192   -4.6957   22.3400 C   0  0  0  0  0  0
  -22.7820  -13.5223   21.1878 C   0  0  0  0  0  0
  -22.1657   -4.2143   21.0978 F   0  0  0  0  0  0
  -21.5632   -3.4542   25.7739 F   0  0  0  0  0  0
  -29.9951  -13.4597   20.4068 N   0  0  0  0  0  0
  -26.2946  -12.9374   20.3298 N   0  0  0  0  0  0
  -25.9308  -11.6525   20.5756 N   0  0  0  0  0  0
  -22.0463  -12.8204   22.0425 N   0  0  0  0  0  0
  -25.4219  -15.1900   20.4075 N   0  0  0  0  0  0
  -31.8052  -14.8072   20.1814 O   0  0  0  0  0  0
  -21.6651   -6.8863   21.4233 O   0  0  0  0  0  0
  -22.3503  -14.5532   20.6736 O   0  0  0  0  0  0
  -24.6304  -31.8562   23.2024 C   0  0  0  0  0  0
  -25.9144  -32.4744   23.8361 C   0  0  1  0  0  0
  -27.2122  -27.2774   20.1260 C   0  0  0  0  0  0
  -25.5944  -33.8557   24.2259 N   0  0  0  0  0  0
  -23.4233  -30.4836   21.5455 C   0  0  2  0  0  0
  -24.8669  -28.9368   20.1066 C   0  0  0  0  0  0
  -22.7473  -29.4623   22.4927 C   0  0  0  0  0  0
  -18.0288  -28.1373   22.8454 C   0  0  0  0  0  0
  -24.1490  -36.7300   23.2640 C   0  0  0  0  0  0
  -25.9686  -30.7739   21.3798 C   0  0  0  0  0  0
  -26.0383  -29.4007   20.7180 C   0  0  0  0  0  0
  -27.2115  -28.5840   20.7180 C   0  0  0  0  0  0
  -26.0239  -26.8921   19.4607 C   0  0  0  0  0  0
  -24.8654  -27.6897   19.4673 C   0  0  0  0  0  0
  -23.6361  -29.8201   20.1591 C   0  0  0  0  0  0
  -25.4119  -36.3066   24.0312 C   0  0  1  0  0  0
  -20.5883  -28.3683   23.1242 C   0  0  2  0  0  0
  -20.6771  -26.9404   22.5376 C   0  0  0  0  0  0
  -19.5757  -26.6364   21.5172 C   0  0  0  0  0  0
  -18.1938  -26.7911   22.1586 C   0  0  0  0  0  0
  -19.1539  -28.8851   23.2837 C   0  0  0  0  0  0
  -18.9470  -30.1448   23.8855 C   0  0  0  0  0  0
  -17.6468  -30.6573   24.0557 C   0  0  0  0  0  0
  -25.9056  -34.9431   23.5082 C   0  0  0  0  0  0
  -16.5366  -29.9065   23.6344 C   0  0  0  0  0  0
  -16.7272  -28.6486   23.0347 C   0  0  0  0  0  0
  -26.4511  -31.6584   25.0765 C   0  0  0  0  0  0
  -25.3717  -31.3722   26.1474 C   0  0  0  0  0  0
  -27.0379  -30.2999   24.6276 C   0  0  0  0  0  0
  -27.6073  -32.4346   25.7508 C   0  0  0  0  0  0
  -27.5575  -37.1804   24.8460 C   0  0  0  0  0  0
  -21.4186  -29.3049   22.3653 N   0  0  0  0  0  0
  -26.4295  -37.3764   23.9393 N   0  0  0  0  0  0
  -24.6938  -31.0551   22.0988 N   0  0  0  0  0  0
  -23.4181  -28.8154   23.3022 O   0  0  0  0  0  0
  -28.3164  -26.4014   20.2249 O   0  0  0  0  0  0
  -26.5621  -34.8893   22.4647 O   0  0  0  0  0  0
  -23.5466  -32.1379   23.7338 O   0  0  0  0  0  0
  -29.0073  -21.5054   22.8314 C   0  0  0  0  0  0
  -29.0387  -21.1553   21.5018 C   0  0  0  0  0  0
  -29.2202  -19.6800   21.5738 C   0  0  0  0  0  0
  -29.3645  -18.8229   19.1624 C   0  0  0  0  0  0
  -28.1507  -17.8301   25.4055 C   0  0  0  0  0  0
  -29.3735  -19.0481   27.2313 C   0  0  0  0  0  0
  -28.8208  -22.2502   20.3865 C   0  0  0  0  0  0
  -28.8336  -23.8132   20.8362 C   0  0  0  0  0  0
  -28.9413  -20.2834   25.0640 C   0  0  0  0  0  0
  -30.2357  -17.2140   21.0061 C   0  0  0  0  0  0
  -28.2124  -24.9431   19.8815 C   0  0  0  0  0  0
  -29.2146  -18.4168   20.6313 C   0  0  1  0  0  0
  -29.2255  -18.8972   25.7078 C   0  0  0  0  0  0
  -29.2162  -19.2967   22.8418 N   0  0  0  0  0  0
  -29.0721  -20.3803   23.6110 N   0  0  0  0  0  0
  -29.8305  -15.7734   20.7589 N   0  0  0  0  0  0
  -31.4743  -12.5507   19.1501 H   0  0  0  0  0  0
  -30.3807  -11.4326   19.9172 H   0  0  0  0  0  0
  -29.7772  -11.7346   17.4977 H   0  0  0  0  0  0
  -29.6412  -13.4603   17.7218 H   0  0  0  0  0  0
  -27.8750  -11.2851   18.8873 H   0  0  0  0  0  0
  -27.3734  -12.5482   17.7941 H   0  0  0  0  0  0
  -27.6518  -14.2521   19.4924 H   0  0  0  0  0  0
  -28.7139  -12.1061   21.3991 H   0  0  0  0  0  0
  -28.4367  -13.7769   21.8145 H   0  0  0  0  0  0
  -25.2734   -9.5688   22.4774 H   0  0  0  0  0  0
  -23.9998   -7.4623   22.7468 H   0  0  0  0  0  0
  -21.0838   -8.8747   19.8948 H   0  0  0  0  0  0
  -22.3670  -10.9662   19.6177 H   0  0  0  0  0  0
  -21.1997   -7.6143   23.9705 H   0  0  0  0  0  0
  -21.1483   -6.0529   25.9074 H   0  0  0  0  0  0
  -22.0600   -2.7610   23.2858 H   0  0  0  0  0  0
  -22.4085  -11.9864   22.4799 H   0  0  0  0  0  0
  -21.1079  -13.1236   22.2640 H   0  0  0  0  0  0
  -24.6532  -15.8433   20.5145 H   0  0  0  0  0  0
  -26.2636  -15.6243   20.0508 H   0  0  0  0  0  0
  -26.7224  -32.5377   23.1117 H   0  0  0  0  0  0
  -25.0109  -33.9718   25.0409 H   0  0  0  0  0  0
  -22.7202  -31.3067   21.4034 H   0  0  0  0  0  0
  -23.3739  -35.9644   23.3300 H   0  0  0  0  0  0
  -24.3580  -36.8934   22.2057 H   0  0  0  0  0  0
  -23.7257  -37.6501   23.6684 H   0  0  0  0  0  0
  -26.1139  -31.5347   20.6124 H   0  0  0  0  0  0
  -26.8467  -30.8144   22.0143 H   0  0  0  0  0  0
  -28.1066  -28.9348   21.2121 H   0  0  0  0  0  0
  -25.9425  -25.9617   18.9248 H   0  0  0  0  0  0
  -23.9739  -27.3345   18.9706 H   0  0  0  0  0  0
  -23.7476  -30.5977   19.4020 H   0  0  0  0  0  0
  -22.7558  -29.2473   19.8610 H   0  0  0  0  0  0
  -25.1292  -36.1926   25.0804 H   0  0  0  0  0  0
  -20.9969  -28.3269   24.1362 H   0  0  0  0  0  0
  -20.5629  -26.2306   23.3582 H   0  0  0  0  0  0
  -21.6648  -26.7404   22.1199 H   0  0  0  0  0  0
  -19.6920  -25.6259   21.1236 H   0  0  0  0  0  0
  -19.6708  -27.3140   20.6679 H   0  0  0  0  0  0
  -17.4196  -26.6633   21.4004 H   0  0  0  0  0  0
  -18.0374  -26.0045   22.8982 H   0  0  0  0  0  0
  -19.7953  -30.7276   24.2194 H   0  0  0  0  0  0
  -17.5032  -31.6249   24.5166 H   0  0  0  0  0  0
  -15.5366  -30.2964   23.7684 H   0  0  0  0  0  0
  -15.8658  -28.0801   22.7085 H   0  0  0  0  0  0
  -24.5900  -30.7072   25.7780 H   0  0  0  0  0  0
  -24.8902  -32.2883   26.4906 H   0  0  0  0  0  0
  -25.8005  -30.8879   27.0254 H   0  0  0  0  0  0
  -26.2977  -29.6733   24.1295 H   0  0  0  0  0  0
  -27.4040  -29.7291   25.4823 H   0  0  0  0  0  0
  -27.8851  -30.4265   23.9532 H   0  0  0  0  0  0
  -27.2698  -33.3676   26.2031 H   0  0  0  0  0  0
  -28.3881  -32.6877   25.0317 H   0  0  0  0  0  0
  -28.0746  -31.8515   26.5455 H   0  0  0  0  0  0
  -28.2582  -38.0112   24.7511 H   0  0  0  0  0  0
  -28.1076  -36.2641   24.6279 H   0  0  0  0  0  0
  -27.2292  -37.1437   25.8862 H   0  0  0  0  0  0
  -20.9375  -29.8784   21.6861 H   0  0  0  0  0  0
  -26.0172  -38.2832   24.1402 H   0  0  0  0  0  0
  -28.8831  -22.4676   23.3060 H   0  0  0  0  0  0
  -28.5741  -19.5129   18.8695 H   0  0  0  0  0  0
  -29.3033  -17.9513   18.5108 H   0  0  0  0  0  0
  -30.3204  -19.3143   18.9847 H   0  0  0  0  0  0
  -28.3598  -16.8981   25.9321 H   0  0  0  0  0  0
  -28.0944  -17.5774   24.3473 H   0  0  0  0  0  0
  -27.1599  -18.1657   25.7133 H   0  0  0  0  0  0
  -29.6439  -18.1033   27.7041 H   0  0  0  0  0  0
  -28.4423  -19.3889   27.6873 H   0  0  0  0  0  0
  -30.1504  -19.7710   27.4820 H   0  0  0  0  0  0
  -27.8654  -22.0581   19.8969 H   0  0  0  0  0  0
  -29.5627  -22.1230   19.5975 H   0  0  0  0  0  0
  -29.8593  -24.0854   21.0866 H   0  0  0  0  0  0
  -28.2740  -23.9076   21.7656 H   0  0  0  0  0  0
  -29.6169  -21.0269   25.4907 H   0  0  0  0  0  0
  -27.9352  -20.6090   25.3317 H   0  0  0  0  0  0
  -30.4246  -17.2313   22.0790 H   0  0  0  0  0  0
  -31.2103  -17.4126   20.5588 H   0  0  0  0  0  0
  -27.1798  -24.6297   19.7766 H   0  0  0  0  0  0
  -28.6561  -24.8339   18.8924 H   0  0  0  0  0  0
  -28.2161  -17.9872   20.7245 H   0  0  0  0  0  0
  -30.1829  -18.5382   25.3245 H   0  0  0  0  0  0
  -28.8586  -15.5596   20.9220 H   0  0  0  0  0  0
  1 25  1  0  0  0
  1 30  2  0  0  0
  1 86  1  0  0  0
  2  3  1  0  0  0
  2 25  1  0  0  0
  2 87  1  0  0  0
  2 88  1  0  0  0
  3  4  1  0  0  0
  3 89  1  0  0  0
  3 90  1  0  0  0
  4  5  1  0  0  0
  4 91  1  0  0  0
  4 92  1  0  0  0
  5  6  1  0  0  0
  5 26  1  0  0  0
  5 93  1  0  0  0
  6 25  1  0  0  0
  6 94  1  0  0  0
  6 95  1  0  0  0
  7  8  2  0  0  0
  7 26  1  0  0  0
  7 29  1  0  0  0
  8  9  1  0  0  0
  8 22  1  0  0  0
  9 10  1  0  0  0
  9 27  2  0  0  0
 10 11  2  0  0  0
 10 15  1  0  0  0
 11 12  1  0  0  0
 11 96  1  0  0  0
 12 13  2  0  0  0
 12 97  1  0  0  0
 13 14  1  0  0  0
 13 31  1  0  0  0
 14 15  2  0  0  0
 14 98  1  0  0  0
 15 99  1  0  0  0
 16 17  2  0  0  0
 16 21  1  0  0  0
 16 31  1  0  0  0
 17 18  1  0  0  0
 17100  1  0  0  0
 18 19  2  0  0  0
 18101  1  0  0  0
 19 20  1  0  0  0
 19 24  1  0  0  0
 20 21  2  0  0  0
 20102  1  0  0  0
 21 23  1  0  0  0
 22 28  1  0  0  0
 22 32  2  0  0  0
 26 27  1  0  0  0
 28103  1  0  0  0
 28104  1  0  0  0
 29105  1  0  0  0
 29106  1  0  0  0
 33 34  1  0  0  0
 33 66  1  0  0  0
 33 70  2  0  0  0
 34 36  1  0  0  0
 34 59  1  0  0  0
 34107  1  0  0  0
 35 44  2  0  0  0
 35 45  1  0  0  0
 35 68  1  0  0  0
 36 56  1  0  0  0
 36108  1  0  0  0
 37 39  1  0  0  0
 37 47  1  0  0  0
 37 66  1  0  0  0
 37109  1  0  0  0
 38 43  2  0  0  0
 38 46  1  0  0  0
 38 47  1  0  0  0
 39 64  1  0  0  0
 39 67  2  0  0  0
 40 52  1  0  0  0
 40 53  2  0  0  0
 40 58  1  0  0  0
 41110  1  0  0  0
 41111  1  0  0  0
 41112  1  0  0  0
 41 48  1  0  0  0
 42 43  1  0  0  0
 42 66  1  0  0  0
 42113  1  0  0  0
 42114  1  0  0  0
 43 44  1  0  0  0
 44115  1  0  0  0
 45 46  2  0  0  0
 45116  1  0  0  0
 46117  1  0  0  0
 47118  1  0  0  0
 47119  1  0  0  0
 48 56  1  0  0  0
 48 65  1  0  0  0
 48120  1  0  0  0
 49 50  1  0  0  0
 49 53  1  0  0  0
 49 64  1  0  0  0
 49121  1  0  0  0
 50 51  1  0  0  0
 50122  1  0  0  0
 50123  1  0  0  0
 51 52  1  0  0  0
 51124  1  0  0  0
 51125  1  0  0  0
 52126  1  0  0  0
 52127  1  0  0  0
 53 54  1  0  0  0
 54 55  2  0  0  0
 54128  1  0  0  0
 55 57  1  0  0  0
 55129  1  0  0  0
 56 69  2  0  0  0
 57 58  2  0  0  0
 57130  1  0  0  0
 58131  1  0  0  0
 59 60  1  0  0  0
 59 61  1  0  0  0
 59 62  1  0  0  0
 60132  1  0  0  0
 60133  1  0  0  0
 60134  1  0  0  0
 61135  1  0  0  0
 61136  1  0  0  0
 61137  1  0  0  0
 62138  1  0  0  0
 62139  1  0  0  0
 62140  1  0  0  0
 63 65  1  0  0  0
 63141  1  0  0  0
 63142  1  0  0  0
 63143  1  0  0  0
 64144  1  0  0  0
 65145  1  0  0  0
 68 81  1  0  0  0
 71 72  2  0  0  0
 71 85  1  0  0  0
 71146  1  0  0  0
 72 73  1  0  0  0
 72 77  1  0  0  0
 73 82  1  0  0  0
 73 84  2  0  0  0
 74147  1  0  0  0
 74148  1  0  0  0
 74149  1  0  0  0
 74 82  1  0  0  0
 75150  1  0  0  0
 75151  1  0  0  0
 75152  1  0  0  0
 75 83  1  0  0  0
 76 83  1  0  0  0
 76153  1  0  0  0
 76154  1  0  0  0
 76155  1  0  0  0
 77 78  1  0  0  0
 77156  1  0  0  0
 77157  1  0  0  0
 78 81  1  0  0  0
 78158  1  0  0  0
 78159  1  0  0  0
 79 83  1  0  0  0
 79 85  1  0  0  0
 79160  1  0  0  0
 79161  1  0  0  0
 80 82  1  0  0  0
 80 86  1  0  0  0
 80162  1  0  0  0
 80163  1  0  0  0
 81164  1  0  0  0
 81165  1  0  0  0
 82166  1  0  0  0
 83167  1  0  0  0
 84 85  1  0  0  0
 86168  1  0  0  0
M  ISO  4   1 100  68 101  81 101  86 100
M  END
> <chiral flag>
0

> <version>
0

> <s_m_source_file>
/data/baiqing/PycharmProjects/Reinvent-master-3.2/result/LINK_invent/BTK/process_docking_weight1_custom_sum_contain_oxygen_bond_distance_aromatic_linkinvent_7_9_3/rearranged_h_0084.sdf

> <i_m_source_file_index>
77

> <r_mmod_Potential_Energy-OPLS-2005>
133.433700561523

> <r_mmod_Stretch_Energy-OPLS-2005>
113.898735046387

> <r_mmod_Bend_Energy-OPLS-2005>
183.785049438477

> <r_mmod_Torsional_Energy-OPLS-2005>
225.789154052734

> <r_mmod_Improper_Torsional_Energy-OPLS-2005>
5.13557481765747

> <r_mmod_Van_der_Waal_Energy-OPLS-2005>
124.841026306152

> <r_mmod_Electrostatic_Energy-OPLS-2005>
-377.965026855469

> <r_mmod_Solvation_Energy-OPLS-2005>
-210.665435791016

> <b_mmod_Minimization_Converged-OPLS-2005>
0

> <r_mmod_RMS_Derivative-OPLS-2005>
2.4538402557373

$$$$
77
                    3D
 Structure written by MMmdl.
175183  0  0  1  0            999 V2000
  -30.6862  -14.4929   20.4545 C   0  0  0  0  0  0
  -30.4166  -12.2832   19.4406 C   0  0  0  0  0  0
  -29.4952  -12.4495   18.2130 C   0  0  0  0  0  0
  -28.0130  -12.3406   18.6219 C   0  0  0  0  0  0
  -27.6561  -13.2051   19.8627 C   0  0  2  0  0  0
  -28.7013  -13.0384   20.9908 C   0  0  0  0  0  0
  -25.2600  -13.8181   20.5695 C   0  0  0  0  0  0
  -24.1847  -13.0468   20.9192 C   0  0  0  0  0  0
  -24.6394  -11.6926   20.8762 C   0  0  0  0  0  0
  -23.9067  -10.4309   21.0431 C   0  0  0  0  0  0
  -24.3614   -9.4224   21.9208 C   0  0  0  0  0  0
  -23.6296   -8.2257   22.0766 C   0  0  0  0  0  0
  -22.4279   -8.0297   21.3554 C   0  0  0  0  0  0
  -21.9930   -9.0262   20.4643 C   0  0  0  0  0  0
  -22.7258  -10.2147   20.3063 C   0  0  0  0  0  0
  -21.6851   -6.0751   22.5291 C   0  0  0  0  0  0
  -21.4006   -6.5644   23.8226 C   0  0  0  0  0  0
  -21.3653   -5.6793   24.9183 C   0  0  0  0  0  0
  -21.6037   -4.3056   24.7226 C   0  0  0  0  0  0
  -21.8817   -3.8161   23.4344 C   0  0  0  0  0  0
  -21.9188   -4.6983   22.3408 C   0  0  0  0  0  0
  -22.7875  -13.5274   21.1865 C   0  0  0  0  0  0
  -22.1663   -4.2176   21.0984 F   0  0  0  0  0  0
  -21.5623   -3.4542   25.7736 F   0  0  0  0  0  0
  -30.0295  -13.3047   20.4238 N   0  0  0  0  0  0
  -26.3010  -12.9329   20.3341 N   0  0  0  0  0  0
  -25.9317  -11.6499   20.5784 N   0  0  0  0  0  0
  -22.0472  -12.8230   22.0359 N   0  0  0  0  0  0
  -25.4354  -15.1894   20.4099 N   0  0  0  0  0  0
  -31.8724  -14.6095   20.1385 O   0  0  0  0  0  0
  -21.6636   -6.8903   21.4251 O   0  0  0  0  0  0
  -22.3578  -14.5603   20.6750 O   0  0  0  0  0  0
  -24.6108  -31.8689   23.2081 C   0  0  0  0  0  0
  -25.9019  -32.4817   23.8392 C   0  0  1  0  0  0
  -27.2388  -27.4400   20.1170 C   0  0  0  0  0  0
  -25.5876  -33.8620   24.2317 N   0  0  0  0  0  0
  -23.4017  -30.4907   21.5450 C   0  0  2  0  0  0
  -24.8535  -28.9518   20.1184 C   0  0  0  0  0  0
  -22.7404  -29.4670   22.4965 C   0  0  0  0  0  0
  -18.0284  -28.1390   22.8464 C   0  0  0  0  0  0
  -24.1495  -36.7304   23.2642 C   0  0  0  0  0  0
  -25.9286  -30.8377   21.3619 C   0  0  0  0  0  0
  -26.0087  -29.4694   20.7170 C   0  0  0  0  0  0
  -27.2067  -28.7200   20.7136 C   0  0  0  0  0  0
  -26.0732  -26.9367   19.5070 C   0  0  0  0  0  0
  -24.8790  -27.6837   19.5113 C   0  0  0  0  0  0
  -23.6129  -29.8154   20.1625 C   0  0  0  0  0  0
  -25.4118  -36.3100   24.0340 C   0  0  1  0  0  0
  -20.5876  -28.3678   23.1308 C   0  0  2  0  0  0
  -20.6790  -26.9427   22.5388 C   0  0  0  0  0  0
  -19.5764  -26.6411   21.5195 C   0  0  0  0  0  0
  -18.1940  -26.7929   22.1603 C   0  0  0  0  0  0
  -19.1531  -28.8847   23.2881 C   0  0  0  0  0  0
  -18.9461  -30.1444   23.8923 C   0  0  0  0  0  0
  -17.6471  -30.6581   24.0576 C   0  0  0  0  0  0
  -25.9052  -34.9466   23.5128 C   0  0  0  0  0  0
  -16.5361  -29.9094   23.6329 C   0  0  0  0  0  0
  -16.7280  -28.6518   23.0332 C   0  0  0  0  0  0
  -26.4453  -31.6592   25.0719 C   0  0  0  0  0  0
  -25.3720  -31.3634   26.1452 C   0  0  0  0  0  0
  -27.0332  -30.3075   24.6040 C   0  0  0  0  0  0
  -27.6002  -32.4335   25.7505 C   0  0  0  0  0  0
  -27.5575  -37.1811   24.8455 C   0  0  0  0  0  0
  -21.4134  -29.3044   22.3705 N   0  0  0  0  0  0
  -26.4289  -37.3785   23.9404 N   0  0  0  0  0  0
  -24.6643  -31.0806   22.0964 N   0  0  0  0  0  0
  -23.4168  -28.8231   23.3029 O   0  0  0  0  0  0
  -28.4077  -26.7187   20.0622 O   0  0  0  0  0  0
  -26.5599  -34.8910   22.4685 O   0  0  0  0  0  0
  -23.5309  -32.1435   23.7478 O   0  0  0  0  0  0
  -29.8856  -19.2898   19.4663 C   0  0  0  0  0  0
  -29.5356  -18.0831   20.1171 C   0  0  0  0  0  0
  -28.3482  -20.4639   20.7282 C   0  0  0  0  0  0
  -28.0223  -19.2598   21.4283 C   0  0  0  0  0  0
  -29.6469  -16.4743   18.1922 C   0  0  0  0  0  0
  -26.7593  -18.7617   25.7372 C   0  0  0  0  0  0
  -25.9356  -16.4716   25.1552 C   0  0  0  0  0  0
  -24.6483  -18.4747   24.3979 C   0  0  0  0  0  0
  -27.5763  -21.7845   20.8630 C   0  0  0  0  0  0
  -26.9777  -19.2298   22.5451 C   0  0  0  0  0  0
  -28.4277  -23.0442   21.1792 C   0  0  0  0  0  0
  -26.9139  -17.9060   23.3502 C   0  0  0  0  0  0
  -27.8093  -24.3499   20.6101 C   0  0  0  0  0  0
  -28.5545  -25.6470   21.0040 C   0  0  0  0  0  0
  -30.1407  -16.7637   19.6270 C   0  0  2  0  0  0
  -26.0638  -17.9208   24.6487 C   0  0  0  0  0  0
  -29.2824  -20.4661   19.7476 N   0  0  0  0  0  0
  -28.5963  -18.0670   21.0952 N   0  0  0  0  0  0
  -29.8842  -15.5752   20.4667 N   0  0  0  0  0  0
  -31.4641  -12.3607   19.1431 H   0  0  0  0  0  0
  -30.3019  -11.2878   19.8733 H   0  0  0  0  0  0
  -29.7288  -11.6890   17.4666 H   0  0  0  0  0  0
  -29.6743  -13.4077   17.7274 H   0  0  0  0  0  0
  -27.8111  -11.2894   18.8328 H   0  0  0  0  0  0
  -27.3713  -12.6076   17.7808 H   0  0  0  0  0  0
  -27.6818  -14.2411   19.5269 H   0  0  0  0  0  0
  -28.6730  -12.0255   21.3954 H   0  0  0  0  0  0
  -28.4863  -13.7063   21.8262 H   0  0  0  0  0  0
  -25.2759   -9.5694   22.4801 H   0  0  0  0  0  0
  -23.9999   -7.4647   22.7492 H   0  0  0  0  0  0
  -21.0876   -8.8781   19.8939 H   0  0  0  0  0  0
  -22.3735  -10.9684   19.6166 H   0  0  0  0  0  0
  -21.1994   -7.6150   23.9745 H   0  0  0  0  0  0
  -21.1471   -6.0515   25.9089 H   0  0  0  0  0  0
  -22.0596   -2.7624   23.2836 H   0  0  0  0  0  0
  -22.4031  -11.9813   22.4650 H   0  0  0  0  0  0
  -21.1103  -13.1275   22.2567 H   0  0  0  0  0  0
  -24.6747  -15.8475   20.5349 H   0  0  0  0  0  0
  -26.2939  -15.6339   20.1138 H   0  0  0  0  0  0
  -26.7094  -32.5561   23.1175 H   0  0  0  0  0  0
  -25.0035  -33.9799   25.0461 H   0  0  0  0  0  0
  -22.6894  -31.3050   21.3985 H   0  0  0  0  0  0
  -23.3777  -35.9611   23.3271 H   0  0  0  0  0  0
  -24.3608  -36.8951   22.2062 H   0  0  0  0  0  0
  -23.7219  -37.6484   23.6693 H   0  0  0  0  0  0
  -26.0391  -31.6016   20.5908 H   0  0  0  0  0  0
  -26.8149  -30.8966   21.9796 H   0  0  0  0  0  0
  -28.1040  -29.1172   21.1680 H   0  0  0  0  0  0
  -26.0909  -25.9709   19.0237 H   0  0  0  0  0  0
  -23.9915  -27.2799   19.0440 H   0  0  0  0  0  0
  -23.7163  -30.5849   19.3968 H   0  0  0  0  0  0
  -22.7415  -29.2269   19.8674 H   0  0  0  0  0  0
  -25.1291  -36.1960   25.0834 H   0  0  0  0  0  0
  -20.9960  -28.3244   24.1428 H   0  0  0  0  0  0
  -20.5768  -26.2272   23.3555 H   0  0  0  0  0  0
  -21.6655  -26.7517   22.1131 H   0  0  0  0  0  0
  -19.6960  -25.6341   21.1178 H   0  0  0  0  0  0
  -19.6715  -27.3258   20.6755 H   0  0  0  0  0  0
  -17.4210  -26.6684   21.3997 H   0  0  0  0  0  0
  -18.0353  -26.0062   22.8998 H   0  0  0  0  0  0
  -19.7949  -30.7237   24.2303 H   0  0  0  0  0  0
  -17.5037  -31.6263   24.5175 H   0  0  0  0  0  0
  -15.5368  -30.3003   23.7660 H   0  0  0  0  0  0
  -15.8670  -28.0864   22.7028 H   0  0  0  0  0  0
  -24.5920  -30.6965   25.7761 H   0  0  0  0  0  0
  -24.8892  -32.2758   26.4955 H   0  0  0  0  0  0
  -25.8072  -30.8754   27.0182 H   0  0  0  0  0  0
  -26.2887  -29.6824   24.1094 H   0  0  0  0  0  0
  -27.4183  -29.7296   25.4453 H   0  0  0  0  0  0
  -27.8660  -30.4479   23.9144 H   0  0  0  0  0  0
  -27.2602  -33.3653   26.2033 H   0  0  0  0  0  0
  -28.3832  -32.6856   25.0347 H   0  0  0  0  0  0
  -28.0626  -31.8493   26.5462 H   0  0  0  0  0  0
  -28.2513  -38.0179   24.7571 H   0  0  0  0  0  0
  -28.1138  -36.2703   24.6194 H   0  0  0  0  0  0
  -27.2286  -37.1347   25.8849 H   0  0  0  0  0  0
  -20.9312  -29.8716   21.6877 H   0  0  0  0  0  0
  -26.0168  -38.2851   24.1421 H   0  0  0  0  0  0
  -30.6107  -19.3014   18.6667 H   0  0  0  0  0  0
  -29.8715  -17.2973   17.5147 H   0  0  0  0  0  0
  -28.5682  -16.3186   18.1640 H   0  0  0  0  0  0
  -30.1262  -15.5955   17.7665 H   0  0  0  0  0  0
  -26.2257  -18.7035   26.6871 H   0  0  0  0  0  0
  -26.8137  -19.8168   25.4683 H   0  0  0  0  0  0
  -27.7783  -18.4160   25.9181 H   0  0  0  0  0  0
  -25.3599  -16.4169   26.0803 H   0  0  0  0  0  0
  -26.9112  -16.0261   25.3543 H   0  0  0  0  0  0
  -25.4319  -15.8355   24.4256 H   0  0  0  0  0  0
  -24.0372  -18.4165   25.3004 H   0  0  0  0  0  0
  -24.1321  -17.9155   23.6169 H   0  0  0  0  0  0
  -24.6665  -19.5232   24.0991 H   0  0  0  0  0  0
  -26.7768  -21.6983   21.5959 H   0  0  0  0  0  0
  -27.0664  -21.9321   19.9097 H   0  0  0  0  0  0
  -26.0042  -19.4461   22.1027 H   0  0  0  0  0  0
  -27.2080  -20.0523   23.2223 H   0  0  0  0  0  0
  -29.4180  -22.9377   20.7347 H   0  0  0  0  0  0
  -28.5929  -23.1191   22.2549 H   0  0  0  0  0  0
  -27.9277  -17.6068   23.6237 H   0  0  0  0  0  0
  -26.5508  -17.1231   22.6810 H   0  0  0  0  0  0
  -26.7656  -24.4305   20.9167 H   0  0  0  0  0  0
  -27.8030  -24.2740   19.5225 H   0  0  0  0  0  0
  -29.6237  -25.4381   21.0566 H   0  0  0  0  0  0
  -28.2624  -25.9680   22.0045 H   0  0  0  0  0  0
  -31.2170  -16.9449   19.5831 H   0  0  0  0  0  0
  -28.9324  -15.4517   20.7739 H   0  0  0  0  0  0
  1 25  1  0  0  0
  1 30  2  0  0  0
  1 89  1  0  0  0
  2  3  1  0  0  0
  2 25  1  0  0  0
  2 90  1  0  0  0
  2 91  1  0  0  0
  3  4  1  0  0  0
  3 92  1  0  0  0
  3 93  1  0  0  0
  4  5  1  0  0  0
  4 94  1  0  0  0
  4 95  1  0  0  0
  5  6  1  0  0  0
  5 26  1  0  0  0
  5 96  1  0  0  0
  6 25  1  0  0  0
  6 97  1  0  0  0
  6 98  1  0  0  0
  7  8  2  0  0  0
  7 26  1  0  0  0
  7 29  1  0  0  0
  8  9  1  0  0  0
  8 22  1  0  0  0
  9 10  1  0  0  0
  9 27  2  0  0  0
 10 11  2  0  0  0
 10 15  1  0  0  0
 11 12  1  0  0  0
 11 99  1  0  0  0
 12 13  2  0  0  0
 12100  1  0  0  0
 13 14  1  0  0  0
 13 31  1  0  0  0
 14 15  2  0  0  0
 14101  1  0  0  0
 15102  1  0  0  0
 16 17  2  0  0  0
 16 21  1  0  0  0
 16 31  1  0  0  0
 17 18  1  0  0  0
 17103  1  0  0  0
 18 19  2  0  0  0
 18104  1  0  0  0
 19 20  1  0  0  0
 19 24  1  0  0  0
 20 21  2  0  0  0
 20105  1  0  0  0
 21 23  1  0  0  0
 22 28  1  0  0  0
 22 32  2  0  0  0
 26 27  1  0  0  0
 28106  1  0  0  0
 28107  1  0  0  0
 29108  1  0  0  0
 29109  1  0  0  0
 33 34  1  0  0  0
 33 66  1  0  0  0
 33 70  2  0  0  0
 34 36  1  0  0  0
 34 59  1  0  0  0
 34110  1  0  0  0
 35 44  2  0  0  0
 35 45  1  0  0  0
 35 68  1  0  0  0
 36 56  1  0  0  0
 36111  1  0  0  0
 37 39  1  0  0  0
 37 47  1  0  0  0
 37 66  1  0  0  0
 37112  1  0  0  0
 38 43  2  0  0  0
 38 46  1  0  0  0
 38 47  1  0  0  0
 39 64  1  0  0  0
 39 67  2  0  0  0
 40 52  1  0  0  0
 40 53  2  0  0  0
 40 58  1  0  0  0
 41113  1  0  0  0
 41114  1  0  0  0
 41115  1  0  0  0
 41 48  1  0  0  0
 42 43  1  0  0  0
 42 66  1  0  0  0
 42116  1  0  0  0
 42117  1  0  0  0
 43 44  1  0  0  0
 44118  1  0  0  0
 45 46  2  0  0  0
 45119  1  0  0  0
 46120  1  0  0  0
 47121  1  0  0  0
 47122  1  0  0  0
 48 56  1  0  0  0
 48 65  1  0  0  0
 48123  1  0  0  0
 49 50  1  0  0  0
 49 53  1  0  0  0
 49 64  1  0  0  0
 49124  1  0  0  0
 50 51  1  0  0  0
 50125  1  0  0  0
 50126  1  0  0  0
 51 52  1  0  0  0
 51127  1  0  0  0
 51128  1  0  0  0
 52129  1  0  0  0
 52130  1  0  0  0
 53 54  1  0  0  0
 54 55  2  0  0  0
 54131  1  0  0  0
 55 57  1  0  0  0
 55132  1  0  0  0
 56 69  2  0  0  0
 57 58  2  0  0  0
 57133  1  0  0  0
 58134  1  0  0  0
 59 60  1  0  0  0
 59 61  1  0  0  0
 59 62  1  0  0  0
 60135  1  0  0  0
 60136  1  0  0  0
 60137  1  0  0  0
 61138  1  0  0  0
 61139  1  0  0  0
 61140  1  0  0  0
 62141  1  0  0  0
 62142  1  0  0  0
 62143  1  0  0  0
 63 65  1  0  0  0
 63144  1  0  0  0
 63145  1  0  0  0
 63146  1  0  0  0
 64147  1  0  0  0
 65148  1  0  0  0
 68 84  1  0  0  0
 71 72  2  0  0  0
 71 87  1  0  0  0
 71149  1  0  0  0
 72 85  1  0  0  0
 72 88  1  0  0  0
 73 74  1  0  0  0
 73 79  1  0  0  0
 73 87  2  0  0  0
 74 80  1  0  0  0
 74 88  2  0  0  0
 75150  1  0  0  0
 75151  1  0  0  0
 75152  1  0  0  0
 75 85  1  0  0  0
 76153  1  0  0  0
 76154  1  0  0  0
 76155  1  0  0  0
 76 86  1  0  0  0
 77 86  1  0  0  0
 77156  1  0  0  0
 77157  1  0  0  0
 77158  1  0  0  0
 78 86  1  0  0  0
 78159  1  0  0  0
 78160  1  0  0  0
 78161  1  0  0  0
 79 81  1  0  0  0
 79162  1  0  0  0
 79163  1  0  0  0
 80 82  1  0  0  0
 80164  1  0  0  0
 80165  1  0  0  0
 81 83  1  0  0  0
 81166  1  0  0  0
 81167  1  0  0  0
 82 86  1  0  0  0
 82168  1  0  0  0
 82169  1  0  0  0
 83 84  1  0  0  0
 83170  1  0  0  0
 83171  1  0  0  0
 84172  1  0  0  0
 84173  1  0  0  0
 85 89  1  0  0  0
 85174  1  0  0  0
 89175  1  0  0  0
M  ISO  4   1 100  68 101  84 101  89 100
M  END
> <chiral flag>
0

> <version>
0

> <s_m_source_file>
/data/baiqing/PycharmProjects/Reinvent-master-3.2/result/LINK_invent/BTK/process_docking_weight1_custom_sum_contain_oxygen_bond_distance_aromatic_linkinvent_7_9_3/rearranged_h_0084.sdf

> <i_m_source_file_index>
78

> <r_mmod_Potential_Energy-OPLS-2005>
3.16745138168335

> <r_mmod_Stretch_Energy-OPLS-2005>
41.4240760803223

> <r_mmod_Bend_Energy-OPLS-2005>
107.166923522949

> <r_mmod_Torsional_Energy-OPLS-2005>
252.820541381836

> <r_mmod_Improper_Torsional_Energy-OPLS-2005>
12.8714828491211

> <r_mmod_Van_der_Waal_Energy-OPLS-2005>
150.180053710938

> <r_mmod_Electrostatic_Energy-OPLS-2005>
-381.231231689453

> <r_mmod_Solvation_Energy-OPLS-2005>
-198.608459472656

> <b_mmod_Minimization_Converged-OPLS-2005>
0

> <r_mmod_RMS_Derivative-OPLS-2005>
2.40511631965637

$$$$
78
                    3D
 Structure written by MMmdl.
170178  0  0  1  0            999 V2000
  -30.6654  -14.6006   20.4381 C   0  0  0  0  0  0
  -30.4151  -12.3601   19.4385 C   0  0  0  0  0  0
  -29.4944  -12.4818   18.2064 C   0  0  0  0  0  0
  -28.0143  -12.3638   18.6224 C   0  0  0  0  0  0
  -27.6488  -13.2284   19.8616 C   0  0  2  0  0  0
  -28.7021  -13.1200   20.9881 C   0  0  0  0  0  0
  -25.2570  -13.8204   20.5729 C   0  0  0  0  0  0
  -24.1808  -13.0460   20.9210 C   0  0  0  0  0  0
  -24.6394  -11.6940   20.8758 C   0  0  0  0  0  0
  -23.9047  -10.4315   21.0432 C   0  0  0  0  0  0
  -24.3588   -9.4226   21.9212 C   0  0  0  0  0  0
  -23.6269   -8.2250   22.0779 C   0  0  0  0  0  0
  -22.4256   -8.0288   21.3559 C   0  0  0  0  0  0
  -21.9884   -9.0266   20.4664 C   0  0  0  0  0  0
  -22.7215  -10.2150   20.3082 C   0  0  0  0  0  0
  -21.6856   -6.0701   22.5253 C   0  0  0  0  0  0
  -21.4016   -6.5616   23.8181 C   0  0  0  0  0  0
  -21.3659   -5.6778   24.9159 C   0  0  0  0  0  0
  -21.6044   -4.3040   24.7211 C   0  0  0  0  0  0
  -21.8818   -3.8116   23.4339 C   0  0  0  0  0  0
  -21.9203   -4.6929   22.3387 C   0  0  0  0  0  0
  -22.7839  -13.5310   21.1810 C   0  0  0  0  0  0
  -22.1680   -4.2119   21.0965 F   0  0  0  0  0  0
  -21.5645   -3.4522   25.7721 F   0  0  0  0  0  0
  -30.0084  -13.4092   20.3881 N   0  0  0  0  0  0
  -26.2982  -12.9395   20.3344 N   0  0  0  0  0  0
  -25.9341  -11.6545   20.5785 N   0  0  0  0  0  0
  -22.0397  -12.8356   22.0366 N   0  0  0  0  0  0
  -25.4381  -15.1890   20.4214 N   0  0  0  0  0  0
  -31.8725  -14.6822   20.2122 O   0  0  0  0  0  0
  -21.6661   -6.8852   21.4215 O   0  0  0  0  0  0
  -22.3580  -14.5606   20.6630 O   0  0  0  0  0  0
  -24.6208  -31.8615   23.2109 C   0  0  0  0  0  0
  -25.9074  -32.4814   23.8402 C   0  0  1  0  0  0
  -27.2429  -27.3875   20.1211 C   0  0  0  0  0  0
  -25.5935  -33.8604   24.2381 N   0  0  0  0  0  0
  -23.4118  -30.4789   21.5553 C   0  0  2  0  0  0
  -24.8643  -28.9357   20.1301 C   0  0  0  0  0  0
  -22.7440  -29.4566   22.5018 C   0  0  0  0  0  0
  -18.0261  -28.1328   22.8510 C   0  0  0  0  0  0
  -24.1483  -36.7270   23.2622 C   0  0  0  0  0  0
  -25.9445  -30.8146   21.3705 C   0  0  0  0  0  0
  -26.0285  -29.4440   20.7205 C   0  0  0  0  0  0
  -27.2242  -28.6793   20.7097 C   0  0  0  0  0  0
  -26.0598  -26.9065   19.5214 C   0  0  0  0  0  0
  -24.8737  -27.6639   19.5308 C   0  0  0  0  0  0
  -23.6307  -29.8086   20.1733 C   0  0  0  0  0  0
  -25.4109  -36.3118   24.0343 C   0  0  1  0  0  0
  -20.5852  -28.3621   23.1301 C   0  0  2  0  0  0
  -20.6767  -26.9390   22.5350 C   0  0  0  0  0  0
  -19.5715  -26.6455   21.5139 C   0  0  0  0  0  0
  -18.1907  -26.7889   22.1613 C   0  0  0  0  0  0
  -19.1500  -28.8807   23.2897 C   0  0  0  0  0  0
  -18.9411  -30.1412   23.8915 C   0  0  0  0  0  0
  -17.6397  -30.6560   24.0533 C   0  0  0  0  0  0
  -25.9019  -34.9472   23.5168 C   0  0  0  0  0  0
  -16.5280  -29.9039   23.6328 C   0  0  0  0  0  0
  -16.7234  -28.6439   23.0391 C   0  0  0  0  0  0
  -26.4539  -31.6595   25.0712 C   0  0  0  0  0  0
  -25.3805  -31.3675   26.1453 C   0  0  0  0  0  0
  -27.0383  -30.3053   24.6061 C   0  0  0  0  0  0
  -27.6186  -32.4264   25.7428 C   0  0  0  0  0  0
  -27.5599  -37.1806   24.8466 C   0  0  0  0  0  0
  -21.4166  -29.2979   22.3723 N   0  0  0  0  0  0
  -26.4314  -37.3792   23.9413 N   0  0  0  0  0  0
  -24.6787  -31.0631   22.1082 N   0  0  0  0  0  0
  -23.4160  -28.8115   23.3091 O   0  0  0  0  0  0
  -28.3874  -26.6020   20.1067 O   0  0  0  0  0  0
  -26.5532  -34.8904   22.4701 O   0  0  0  0  0  0
  -23.5369  -32.1371   23.7470 O   0  0  0  0  0  0
  -27.2640  -22.8533   18.8183 C   0  0  0  0  0  0
  -26.5449  -21.6792   18.5494 C   0  0  0  0  0  0
  -26.9100  -20.4566   19.1851 C   0  0  0  0  0  0
  -28.3355  -22.8290   19.7141 C   0  0  0  0  0  0
  -28.0495  -20.4962   20.0587 C   0  0  0  0  0  0
  -25.3559  -21.8042   17.6056 C   0  0  0  0  0  0
  -25.2638  -18.6941   20.1917 C   0  0  0  0  0  0
  -26.5860  -18.0813   18.0820 C   0  0  0  0  0  0
  -28.8282  -25.4953   22.1639 C   0  0  0  0  0  0
  -29.0925  -24.1518   19.9964 C   0  0  0  0  0  0
  -28.5116  -19.2782   20.9028 C   0  0  0  0  0  0
  -29.3796  -18.1684   20.2151 C   0  0  0  0  0  0
  -29.3268  -16.7487   20.9022 C   0  0  0  0  0  0
  -26.0003  -19.2123   18.9475 C   0  0  0  0  0  0
  -28.2951  -25.2885   20.7371 C   0  0  2  0  0  0
  -28.7313  -21.6618   20.3011 N   0  0  0  0  0  0
  -29.9234  -15.6784   20.0695 N   0  0  0  0  0  0
  -31.4630  -12.4435   19.1467 H   0  0  0  0  0  0
  -30.3083  -11.3752   19.8937 H   0  0  0  0  0  0
  -29.7377  -11.7054   17.4781 H   0  0  0  0  0  0
  -29.6598  -13.4370   17.7039 H   0  0  0  0  0  0
  -27.8236  -11.3108   18.8334 H   0  0  0  0  0  0
  -27.3651  -12.6244   17.7846 H   0  0  0  0  0  0
  -27.6584  -14.2609   19.5177 H   0  0  0  0  0  0
  -28.7053  -12.1314   21.4463 H   0  0  0  0  0  0
  -28.4813  -13.8249   21.7922 H   0  0  0  0  0  0
  -25.2742   -9.5683   22.4793 H   0  0  0  0  0  0
  -23.9952   -7.4649   22.7531 H   0  0  0  0  0  0
  -21.0795   -8.8797   19.9002 H   0  0  0  0  0  0
  -22.3687  -10.9685   19.6182 H   0  0  0  0  0  0
  -21.2009   -7.6122   23.9675 H   0  0  0  0  0  0
  -21.1487   -6.0511   25.9061 H   0  0  0  0  0  0
  -22.0603   -2.7577   23.2834 H   0  0  0  0  0  0
  -22.3946  -12.0050   22.4824 H   0  0  0  0  0  0
  -21.1019  -13.1468   22.2486 H   0  0  0  0  0  0
  -24.6902  -15.8632   20.5546 H   0  0  0  0  0  0
  -26.3070  -15.6152   20.1276 H   0  0  0  0  0  0
  -26.7167  -32.5493   23.1176 H   0  0  0  0  0  0
  -25.0332  -33.9773   25.0701 H   0  0  0  0  0  0
  -22.7053  -31.2996   21.4172 H   0  0  0  0  0  0
  -23.3765  -35.9577   23.3280 H   0  0  0  0  0  0
  -24.3596  -36.8861   22.2038 H   0  0  0  0  0  0
  -23.7193  -37.6466   23.6609 H   0  0  0  0  0  0
  -26.0456  -31.5815   20.6027 H   0  0  0  0  0  0
  -26.8332  -30.8807   21.9822 H   0  0  0  0  0  0
  -28.1226  -29.0651   21.1754 H   0  0  0  0  0  0
  -26.0505  -25.9317   19.0554 H   0  0  0  0  0  0
  -23.9770  -27.2566   19.0821 H   0  0  0  0  0  0
  -23.7601  -30.5862   19.4226 H   0  0  0  0  0  0
  -22.7556  -29.2397   19.8547 H   0  0  0  0  0  0
  -25.1280  -36.2042   25.0836 H   0  0  0  0  0  0
  -20.9920  -28.3166   24.1437 H   0  0  0  0  0  0
  -20.5691  -26.2212   23.3490 H   0  0  0  0  0  0
  -21.6610  -26.7458   22.1032 H   0  0  0  0  0  0
  -19.6878  -25.6424   21.1041 H   0  0  0  0  0  0
  -19.6605  -27.3384   20.6751 H   0  0  0  0  0  0
  -17.4197  -26.6759   21.3976 H   0  0  0  0  0  0
  -18.0250  -25.9934   22.8905 H   0  0  0  0  0  0
  -19.7895  -30.7225   24.2283 H   0  0  0  0  0  0
  -17.4933  -31.6231   24.5137 H   0  0  0  0  0  0
  -15.5261  -30.2922   23.7627 H   0  0  0  0  0  0
  -15.8643  -28.0733   22.7128 H   0  0  0  0  0  0
  -24.6053  -30.6932   25.7791 H   0  0  0  0  0  0
  -24.8851  -32.2778   26.4828 H   0  0  0  0  0  0
  -25.8155  -30.8927   27.0248 H   0  0  0  0  0  0
  -26.2931  -29.6790   24.1139 H   0  0  0  0  0  0
  -27.4257  -29.7321   25.4493 H   0  0  0  0  0  0
  -27.8718  -30.4421   23.9160 H   0  0  0  0  0  0
  -27.2964  -33.3623   26.1999 H   0  0  0  0  0  0
  -28.3993  -32.6712   25.0210 H   0  0  0  0  0  0
  -28.0852  -31.8330   26.5299 H   0  0  0  0  0  0
  -28.2639  -38.0094   24.7544 H   0  0  0  0  0  0
  -28.1098  -36.2631   24.6307 H   0  0  0  0  0  0
  -27.2281  -37.1462   25.8857 H   0  0  0  0  0  0
  -20.9390  -29.8683   21.6898 H   0  0  0  0  0  0
  -26.0210  -38.2870   24.1436 H   0  0  0  0  0  0
  -26.9774  -23.7893   18.3546 H   0  0  0  0  0  0
  -25.3026  -22.7913   17.1439 H   0  0  0  0  0  0
  -24.4231  -21.6561   18.1495 H   0  0  0  0  0  0
  -25.4231  -21.0685   16.8051 H   0  0  0  0  0  0
  -24.9714  -19.5177   20.8437 H   0  0  0  0  0  0
  -25.8453  -17.9820   20.7697 H   0  0  0  0  0  0
  -24.3555  -18.1657   19.8952 H   0  0  0  0  0  0
  -27.1621  -18.4586   17.2342 H   0  0  0  0  0  0
  -25.7784  -17.4737   17.6693 H   0  0  0  0  0  0
  -27.1966  -17.3845   18.6474 H   0  0  0  0  0  0
  -28.1988  -26.1941   22.7145 H   0  0  0  0  0  0
  -29.8426  -25.9019   22.1513 H   0  0  0  0  0  0
  -28.8481  -24.5555   22.7196 H   0  0  0  0  0  0
  -29.4214  -24.5455   19.0345 H   0  0  0  0  0  0
  -30.0138  -23.9214   20.5339 H   0  0  0  0  0  0
  -27.6262  -18.8457   21.3482 H   0  0  0  0  0  0
  -29.0562  -19.6416   21.7753 H   0  0  0  0  0  0
  -30.4111  -18.5165   20.1524 H   0  0  0  0  0  0
  -29.0714  -18.0792   19.1781 H   0  0  0  0  0  0
  -28.2867  -16.4840   21.1006 H   0  0  0  0  0  0
  -29.8208  -16.7986   21.8736 H   0  0  0  0  0  0
  -25.1594  -19.5298   18.3448 H   0  0  0  0  0  0
  -27.2546  -24.9714   20.8138 H   0  0  0  0  0  0
  -30.3897  -16.1119   19.2864 H   0  0  0  0  0  0
  1 25  1  0  0  0
  1 30  2  0  0  0
  1 87  1  0  0  0
  2  3  1  0  0  0
  2 25  1  0  0  0
  2 88  1  0  0  0
  2 89  1  0  0  0
  3  4  1  0  0  0
  3 90  1  0  0  0
  3 91  1  0  0  0
  4  5  1  0  0  0
  4 92  1  0  0  0
  4 93  1  0  0  0
  5  6  1  0  0  0
  5 26  1  0  0  0
  5 94  1  0  0  0
  6 25  1  0  0  0
  6 95  1  0  0  0
  6 96  1  0  0  0
  7  8  2  0  0  0
  7 26  1  0  0  0
  7 29  1  0  0  0
  8  9  1  0  0  0
  8 22  1  0  0  0
  9 10  1  0  0  0
  9 27  2  0  0  0
 10 11  2  0  0  0
 10 15  1  0  0  0
 11 12  1  0  0  0
 11 97  1  0  0  0
 12 13  2  0  0  0
 12 98  1  0  0  0
 13 14  1  0  0  0
 13 31  1  0  0  0
 14 15  2  0  0  0
 14 99  1  0  0  0
 15100  1  0  0  0
 16 17  2  0  0  0
 16 21  1  0  0  0
 16 31  1  0  0  0
 17 18  1  0  0  0
 17101  1  0  0  0
 18 19  2  0  0  0
 18102  1  0  0  0
 19 20  1  0  0  0
 19 24  1  0  0  0
 20 21  2  0  0  0
 20103  1  0  0  0
 21 23  1  0  0  0
 22 28  1  0  0  0
 22 32  2  0  0  0
 26 27  1  0  0  0
 28104  1  0  0  0
 28105  1  0  0  0
 29106  1  0  0  0
 29107  1  0  0  0
 33 34  1  0  0  0
 33 66  1  0  0  0
 33 70  2  0  0  0
 34 36  1  0  0  0
 34 59  1  0  0  0
 34108  1  0  0  0
 35 44  2  0  0  0
 35 45  1  0  0  0
 35 68  1  0  0  0
 36 56  1  0  0  0
 36109  1  0  0  0
 37 39  1  0  0  0
 37 47  1  0  0  0
 37 66  1  0  0  0
 37110  1  0  0  0
 38 43  2  0  0  0
 38 46  1  0  0  0
 38 47  1  0  0  0
 39 64  1  0  0  0
 39 67  2  0  0  0
 40 52  1  0  0  0
 40 53  2  0  0  0
 40 58  1  0  0  0
 41111  1  0  0  0
 41112  1  0  0  0
 41113  1  0  0  0
 41 48  1  0  0  0
 42 43  1  0  0  0
 42 66  1  0  0  0
 42114  1  0  0  0
 42115  1  0  0  0
 43 44  1  0  0  0
 44116  1  0  0  0
 45 46  2  0  0  0
 45117  1  0  0  0
 46118  1  0  0  0
 47119  1  0  0  0
 47120  1  0  0  0
 48 56  1  0  0  0
 48 65  1  0  0  0
 48121  1  0  0  0
 49 50  1  0  0  0
 49 53  1  0  0  0
 49 64  1  0  0  0
 49122  1  0  0  0
 50 51  1  0  0  0
 50123  1  0  0  0
 50124  1  0  0  0
 51 52  1  0  0  0
 51125  1  0  0  0
 51126  1  0  0  0
 52127  1  0  0  0
 52128  1  0  0  0
 53 54  1  0  0  0
 54 55  2  0  0  0
 54129  1  0  0  0
 55 57  1  0  0  0
 55130  1  0  0  0
 56 69  2  0  0  0
 57 58  2  0  0  0
 57131  1  0  0  0
 58132  1  0  0  0
 59 60  1  0  0  0
 59 61  1  0  0  0
 59 62  1  0  0  0
 60133  1  0  0  0
 60134  1  0  0  0
 60135  1  0  0  0
 61136  1  0  0  0
 61137  1  0  0  0
 61138  1  0  0  0
 62139  1  0  0  0
 62140  1  0  0  0
 62141  1  0  0  0
 63 65  1  0  0  0
 63142  1  0  0  0
 63143  1  0  0  0
 63144  1  0  0  0
 64145  1  0  0  0
 65146  1  0  0  0
 68 85  1  0  0  0
 71 72  2  0  0  0
 71 74  1  0  0  0
 71147  1  0  0  0
 72 73  1  0  0  0
 72 76  1  0  0  0
 73 75  2  0  0  0
 73 84  1  0  0  0
 74 80  1  0  0  0
 74 86  2  0  0  0
 75 81  1  0  0  0
 75 86  1  0  0  0
 76148  1  0  0  0
 76149  1  0  0  0
 76150  1  0  0  0
 77151  1  0  0  0
 77152  1  0  0  0
 77153  1  0  0  0
 77 84  1  0  0  0
 78 84  1  0  0  0
 78154  1  0  0  0
 78155  1  0  0  0
 78156  1  0  0  0
 79157  1  0  0  0
 79158  1  0  0  0
 79159  1  0  0  0
 79 85  1  0  0  0
 80 85  1  0  0  0
 80160  1  0  0  0
 80161  1  0  0  0
 81 82  1  0  0  0
 81162  1  0  0  0
 81163  1  0  0  0
 82 83  1  0  0  0
 82164  1  0  0  0
 82165  1  0  0  0
 83 87  1  0  0  0
 83166  1  0  0  0
 83167  1  0  0  0
 84168  1  0  0  0
 85169  1  0  0  0
 87170  1  0  0  0
M  ISO  4   1 100  68 101  85 101  87 100
M  END
> <chiral flag>
0

> <version>
0

> <s_m_source_file>
/data/baiqing/PycharmProjects/Reinvent-master-3.2/result/LINK_invent/BTK/process_docking_weight1_custom_sum_contain_oxygen_bond_distance_aromatic_linkinvent_7_9_3/rearranged_h_0084.sdf

> <i_m_source_file_index>
79

> <r_mmod_Potential_Energy-OPLS-2005>
-7.40811538696289

> <r_mmod_Stretch_Energy-OPLS-2005>
60.424488067627

> <r_mmod_Bend_Energy-OPLS-2005>
142.630355834961

> <r_mmod_Torsional_Energy-OPLS-2005>
304.212005615234

> <r_mmod_Improper_Torsional_Energy-OPLS-2005>
28.9227924346924

> <r_mmod_Van_der_Waal_Energy-OPLS-2005>
138.288162231445

> <r_mmod_Electrostatic_Energy-OPLS-2005>
-510.199462890625

> <r_mmod_Solvation_Energy-OPLS-2005>
-208.745315551758

> <b_mmod_Minimization_Converged-OPLS-2005>
0

> <r_mmod_RMS_Derivative-OPLS-2005>
5.3626127243042

$$$$
79
                    3D
 Structure written by MMmdl.
167175  0  0  1  0            999 V2000
  -30.7255  -14.4260   20.6172 C   0  0  0  0  0  0
  -30.4266  -12.2992   19.3978 C   0  0  0  0  0  0
  -29.4917  -12.5163   18.1911 C   0  0  0  0  0  0
  -28.0135  -12.3760   18.6079 C   0  0  0  0  0  0
  -27.6666  -13.2034   19.8748 C   0  0  2  0  0  0
  -28.7095  -12.9537   20.9865 C   0  0  0  0  0  0
  -25.2613  -13.8149   20.5662 C   0  0  0  0  0  0
  -24.1859  -13.0430   20.9163 C   0  0  0  0  0  0
  -24.6412  -11.6895   20.8728 C   0  0  0  0  0  0
  -23.9076  -10.4282   21.0406 C   0  0  0  0  0  0
  -24.3627   -9.4200   21.9186 C   0  0  0  0  0  0
  -23.6293   -8.2241   22.0756 C   0  0  0  0  0  0
  -22.4280   -8.0278   21.3543 C   0  0  0  0  0  0
  -21.9916   -9.0259   20.4647 C   0  0  0  0  0  0
  -22.7255  -10.2131   20.3052 C   0  0  0  0  0  0
  -21.6849   -6.0743   22.5289 C   0  0  0  0  0  0
  -21.4015   -6.5645   23.8223 C   0  0  0  0  0  0
  -21.3652   -5.6792   24.9181 C   0  0  0  0  0  0
  -21.6039   -4.3053   24.7234 C   0  0  0  0  0  0
  -21.8816   -3.8156   23.4350 C   0  0  0  0  0  0
  -21.9194   -4.6972   22.3413 C   0  0  0  0  0  0
  -22.7877  -13.5232   21.1837 C   0  0  0  0  0  0
  -22.1657   -4.2155   21.0988 F   0  0  0  0  0  0
  -21.5629   -3.4541   25.7744 F   0  0  0  0  0  0
  -30.0433  -13.2643   20.4385 N   0  0  0  0  0  0
  -26.3057  -12.9320   20.3363 N   0  0  0  0  0  0
  -25.9341  -11.6480   20.5756 N   0  0  0  0  0  0
  -22.0513  -12.8221   22.0388 N   0  0  0  0  0  0
  -25.4328  -15.1864   20.4066 N   0  0  0  0  0  0
  -31.8280  -14.6439   20.1138 O   0  0  0  0  0  0
  -21.6633   -6.8893   21.4249 O   0  0  0  0  0  0
  -22.3563  -14.5545   20.6694 O   0  0  0  0  0  0
  -24.6137  -31.8688   23.2095 C   0  0  0  0  0  0
  -25.9028  -32.4825   23.8389 C   0  0  1  0  0  0
  -27.2307  -27.4525   20.0902 C   0  0  0  0  0  0
  -25.5895  -33.8620   24.2314 N   0  0  0  0  0  0
  -23.4013  -30.4915   21.5481 C   0  0  2  0  0  0
  -24.8497  -28.9606   20.1097 C   0  0  0  0  0  0
  -22.7406  -29.4663   22.4972 C   0  0  0  0  0  0
  -18.0280  -28.1383   22.8497 C   0  0  0  0  0  0
  -24.1502  -36.7314   23.2642 C   0  0  0  0  0  0
  -25.9290  -30.8392   21.3593 C   0  0  0  0  0  0
  -26.0082  -29.4760   20.7062 C   0  0  0  0  0  0
  -27.2066  -28.7276   20.6948 C   0  0  0  0  0  0
  -26.0623  -26.9492   19.4826 C   0  0  0  0  0  0
  -24.8705  -27.6957   19.4972 C   0  0  0  0  0  0
  -23.6094  -29.8235   20.1626 C   0  0  0  0  0  0
  -25.4124  -36.3100   24.0318 C   0  0  1  0  0  0
  -20.5868  -28.3662   23.1320 C   0  0  2  0  0  0
  -20.6781  -26.9397   22.5416 C   0  0  0  0  0  0
  -19.5756  -26.6384   21.5221 C   0  0  0  0  0  0
  -18.1927  -26.7933   22.1624 C   0  0  0  0  0  0
  -19.1527  -28.8839   23.2914 C   0  0  0  0  0  0
  -18.9450  -30.1448   23.8915 C   0  0  0  0  0  0
  -17.6449  -30.6588   24.0572 C   0  0  0  0  0  0
  -25.9051  -34.9465   23.5116 C   0  0  0  0  0  0
  -16.5346  -29.9081   23.6337 C   0  0  0  0  0  0
  -16.7268  -28.6510   23.0348 C   0  0  0  0  0  0
  -26.4456  -31.6595   25.0716 C   0  0  0  0  0  0
  -25.3725  -31.3648   26.1461 C   0  0  0  0  0  0
  -27.0283  -30.3060   24.6042 C   0  0  0  0  0  0
  -27.6052  -32.4303   25.7459 C   0  0  0  0  0  0
  -27.5574  -37.1809   24.8460 C   0  0  0  0  0  0
  -21.4132  -29.3029   22.3720 N   0  0  0  0  0  0
  -26.4297  -37.3786   23.9398 N   0  0  0  0  0  0
  -24.6658  -31.0816   22.0968 N   0  0  0  0  0  0
  -23.4189  -28.8202   23.3004 O   0  0  0  0  0  0
  -28.3600  -26.6725   20.1269 O   0  0  0  0  0  0
  -26.5627  -34.8912   22.4684 O   0  0  0  0  0  0
  -23.5332  -32.1379   23.7510 O   0  0  0  0  0  0
  -29.6612  -21.4019   19.9280 C   0  0  0  0  0  0
  -30.2165  -20.1231   19.7362 C   0  0  0  0  0  0
  -28.9585  -21.6770   21.1204 C   0  0  0  0  0  0
  -30.0895  -19.1450   20.7435 C   0  0  0  0  0  0
  -28.8409  -20.6233   22.0611 C   0  0  0  0  0  0
  -28.0827  -21.3961   25.8227 C   0  0  0  0  0  0
  -32.2384  -17.8962   20.3294 C   0  0  0  0  0  0
  -28.3276  -23.0513   21.3932 C   0  0  0  0  0  0
  -28.0372  -20.7542   23.3496 C   0  0  0  0  0  0
  -28.9115  -21.1114   24.5622 C   0  0  0  0  0  0
  -28.7409  -24.2346   20.4801 C   0  0  0  0  0  0
  -30.4653  -16.7164   21.7188 C   0  0  0  0  0  0
  -28.2299  -25.5765   21.0447 C   0  0  0  0  0  0
  -30.7191  -17.7439   20.5597 C   0  0  1  0  0  0
  -29.4215  -19.4150   21.8862 N   0  0  0  0  0  0
  -30.0639  -15.3590   21.3158 N   0  0  0  0  0  0
  -31.4698  -12.4038   19.0925 H   0  0  0  0  0  0
  -30.3297  -11.2809   19.7775 H   0  0  0  0  0  0
  -29.7250  -11.8020   17.4001 H   0  0  0  0  0  0
  -29.6620  -13.5074   17.7670 H   0  0  0  0  0  0
  -27.8220  -11.3185   18.7938 H   0  0  0  0  0  0
  -27.3617  -12.6600   17.7807 H   0  0  0  0  0  0
  -27.7187  -14.2558   19.5952 H   0  0  0  0  0  0
  -28.6836  -11.9081   21.2959 H   0  0  0  0  0  0
  -28.4677  -13.5213   21.8856 H   0  0  0  0  0  0
  -25.2772   -9.5666   22.4755 H   0  0  0  0  0  0
  -23.9998   -7.4630   22.7469 H   0  0  0  0  0  0
  -21.0853   -8.8784   19.8952 H   0  0  0  0  0  0
  -22.3729  -10.9668   19.6154 H   0  0  0  0  0  0
  -21.2002   -7.6149   23.9731 H   0  0  0  0  0  0
  -21.1473   -6.0520   25.9080 H   0  0  0  0  0  0
  -22.0602   -2.7618   23.2855 H   0  0  0  0  0  0
  -22.4106  -11.9868   22.4764 H   0  0  0  0  0  0
  -21.1123  -13.1243   22.2579 H   0  0  0  0  0  0
  -24.6677  -15.8436   20.5131 H   0  0  0  0  0  0
  -26.2918  -15.6277   20.1004 H   0  0  0  0  0  0
  -26.7105  -32.5544   23.1156 H   0  0  0  0  0  0
  -25.0062  -33.9796   25.0463 H   0  0  0  0  0  0
  -22.6899  -31.3077   21.4082 H   0  0  0  0  0  0
  -23.3748  -35.9668   23.3329 H   0  0  0  0  0  0
  -24.3599  -36.8925   22.2056 H   0  0  0  0  0  0
  -23.7274  -37.6525   23.6657 H   0  0  0  0  0  0
  -26.0441  -31.6035   20.5888 H   0  0  0  0  0  0
  -26.8172  -30.8906   21.9772 H   0  0  0  0  0  0
  -28.0990  -29.1090   21.1690 H   0  0  0  0  0  0
  -26.0729  -25.9713   19.0207 H   0  0  0  0  0  0
  -23.9761  -27.2924   19.0427 H   0  0  0  0  0  0
  -23.7118  -30.5983   19.4017 H   0  0  0  0  0  0
  -22.7346  -29.2402   19.8694 H   0  0  0  0  0  0
  -25.1305  -36.1957   25.0801 H   0  0  0  0  0  0
  -20.9975  -28.3238   24.1439 H   0  0  0  0  0  0
  -20.5717  -26.2261   23.3603 H   0  0  0  0  0  0
  -21.6645  -26.7471   22.1177 H   0  0  0  0  0  0
  -19.6930  -25.6303   21.1232 H   0  0  0  0  0  0
  -19.6715  -27.3230   20.6780 H   0  0  0  0  0  0
  -17.4206  -26.6715   21.4016 H   0  0  0  0  0  0
  -18.0315  -26.0056   22.8993 H   0  0  0  0  0  0
  -19.7921  -30.7275   24.2283 H   0  0  0  0  0  0
  -17.4992  -31.6268   24.5177 H   0  0  0  0  0  0
  -15.5345  -30.2988   23.7643 H   0  0  0  0  0  0
  -15.8670  -28.0837   22.7043 H   0  0  0  0  0  0
  -24.5946  -30.6947   25.7775 H   0  0  0  0  0  0
  -24.8844  -32.2770   26.4907 H   0  0  0  0  0  0
  -25.8074  -30.8817   27.0223 H   0  0  0  0  0  0
  -26.2805  -29.6852   24.1094 H   0  0  0  0  0  0
  -27.4098  -29.7260   25.4459 H   0  0  0  0  0  0
  -27.8617  -30.4431   23.9146 H   0  0  0  0  0  0
  -27.2721  -33.3635   26.2006 H   0  0  0  0  0  0
  -28.3855  -32.6811   25.0260 H   0  0  0  0  0  0
  -28.0709  -31.8424   26.5379 H   0  0  0  0  0  0
  -28.2585  -38.0113   24.7511 H   0  0  0  0  0  0
  -28.1070  -36.2639   24.6278 H   0  0  0  0  0  0
  -27.2284  -37.1442   25.8860 H   0  0  0  0  0  0
  -20.9287  -29.8718   21.6923 H   0  0  0  0  0  0
  -26.0181  -38.2860   24.1394 H   0  0  0  0  0  0
  -29.7747  -22.1479   19.1549 H   0  0  0  0  0  0
  -30.7446  -19.9041   18.8184 H   0  0  0  0  0  0
  -28.7237  -21.6625   26.6634 H   0  0  0  0  0  0
  -27.4970  -20.5250   26.1176 H   0  0  0  0  0  0
  -27.3926  -22.2244   25.6609 H   0  0  0  0  0  0
  -32.4570  -18.5078   19.4549 H   0  0  0  0  0  0
  -32.7296  -16.9399   20.1686 H   0  0  0  0  0  0
  -32.7184  -18.3673   21.1875 H   0  0  0  0  0  0
  -28.5637  -23.3253   22.4232 H   0  0  0  0  0  0
  -27.2423  -22.9389   21.3513 H   0  0  0  0  0  0
  -27.5272  -19.8076   23.5367 H   0  0  0  0  0  0
  -27.2406  -21.4870   23.2257 H   0  0  0  0  0  0
  -29.6137  -20.3005   24.7582 H   0  0  0  0  0  0
  -29.5119  -21.9892   24.3249 H   0  0  0  0  0  0
  -28.3453  -24.0823   19.4749 H   0  0  0  0  0  0
  -29.8261  -24.2881   20.3917 H   0  0  0  0  0  0
  -29.6452  -17.0358   22.3581 H   0  0  0  0  0  0
  -31.3306  -16.6651   22.3820 H   0  0  0  0  0  0
  -28.7867  -25.8280   21.9482 H   0  0  0  0  0  0
  -27.1964  -25.4390   21.3731 H   0  0  0  0  0  0
  -30.2754  -17.3451   19.6469 H   0  0  0  0  0  0
  -29.1574  -15.0633   21.6444 H   0  0  0  0  0  0
  1 25  1  0  0  0
  1 30  2  0  0  0
  1 86  1  0  0  0
  2  3  1  0  0  0
  2 25  1  0  0  0
  2 87  1  0  0  0
  2 88  1  0  0  0
  3  4  1  0  0  0
  3 89  1  0  0  0
  3 90  1  0  0  0
  4  5  1  0  0  0
  4 91  1  0  0  0
  4 92  1  0  0  0
  5  6  1  0  0  0
  5 26  1  0  0  0
  5 93  1  0  0  0
  6 25  1  0  0  0
  6 94  1  0  0  0
  6 95  1  0  0  0
  7  8  2  0  0  0
  7 26  1  0  0  0
  7 29  1  0  0  0
  8  9  1  0  0  0
  8 22  1  0  0  0
  9 10  1  0  0  0
  9 27  2  0  0  0
 10 11  2  0  0  0
 10 15  1  0  0  0
 11 12  1  0  0  0
 11 96  1  0  0  0
 12 13  2  0  0  0
 12 97  1  0  0  0
 13 14  1  0  0  0
 13 31  1  0  0  0
 14 15  2  0  0  0
 14 98  1  0  0  0
 15 99  1  0  0  0
 16 17  2  0  0  0
 16 21  1  0  0  0
 16 31  1  0  0  0
 17 18  1  0  0  0
 17100  1  0  0  0
 18 19  2  0  0  0
 18101  1  0  0  0
 19 20  1  0  0  0
 19 24  1  0  0  0
 20 21  2  0  0  0
 20102  1  0  0  0
 21 23  1  0  0  0
 22 28  1  0  0  0
 22 32  2  0  0  0
 26 27  1  0  0  0
 28103  1  0  0  0
 28104  1  0  0  0
 29105  1  0  0  0
 29106  1  0  0  0
 33 34  1  0  0  0
 33 66  1  0  0  0
 33 70  2  0  0  0
 34 36  1  0  0  0
 34 59  1  0  0  0
 34107  1  0  0  0
 35 44  2  0  0  0
 35 45  1  0  0  0
 35 68  1  0  0  0
 36 56  1  0  0  0
 36108  1  0  0  0
 37 39  1  0  0  0
 37 47  1  0  0  0
 37 66  1  0  0  0
 37109  1  0  0  0
 38 43  2  0  0  0
 38 46  1  0  0  0
 38 47  1  0  0  0
 39 64  1  0  0  0
 39 67  2  0  0  0
 40 52  1  0  0  0
 40 53  2  0  0  0
 40 58  1  0  0  0
 41110  1  0  0  0
 41111  1  0  0  0
 41112  1  0  0  0
 41 48  1  0  0  0
 42 43  1  0  0  0
 42 66  1  0  0  0
 42113  1  0  0  0
 42114  1  0  0  0
 43 44  1  0  0  0
 44115  1  0  0  0
 45 46  2  0  0  0
 45116  1  0  0  0
 46117  1  0  0  0
 47118  1  0  0  0
 47119  1  0  0  0
 48 56  1  0  0  0
 48 65  1  0  0  0
 48120  1  0  0  0
 49 50  1  0  0  0
 49 53  1  0  0  0
 49 64  1  0  0  0
 49121  1  0  0  0
 50 51  1  0  0  0
 50122  1  0  0  0
 50123  1  0  0  0
 51 52  1  0  0  0
 51124  1  0  0  0
 51125  1  0  0  0
 52126  1  0  0  0
 52127  1  0  0  0
 53 54  1  0  0  0
 54 55  2  0  0  0
 54128  1  0  0  0
 55 57  1  0  0  0
 55129  1  0  0  0
 56 69  2  0  0  0
 57 58  2  0  0  0
 57130  1  0  0  0
 58131  1  0  0  0
 59 60  1  0  0  0
 59 61  1  0  0  0
 59 62  1  0  0  0
 60132  1  0  0  0
 60133  1  0  0  0
 60134  1  0  0  0
 61135  1  0  0  0
 61136  1  0  0  0
 61137  1  0  0  0
 62138  1  0  0  0
 62139  1  0  0  0
 62140  1  0  0  0
 63 65  1  0  0  0
 63141  1  0  0  0
 63142  1  0  0  0
 63143  1  0  0  0
 64144  1  0  0  0
 65145  1  0  0  0
 68 83  1  0  0  0
 71 72  2  0  0  0
 71 73  1  0  0  0
 71146  1  0  0  0
 72 74  1  0  0  0
 72147  1  0  0  0
 73 75  2  0  0  0
 73 78  1  0  0  0
 74 84  1  0  0  0
 74 85  2  0  0  0
 75 79  1  0  0  0
 75 85  1  0  0  0
 76 80  1  0  0  0
 76148  1  0  0  0
 76149  1  0  0  0
 76150  1  0  0  0
 77151  1  0  0  0
 77152  1  0  0  0
 77153  1  0  0  0
 77 84  1  0  0  0
 78 81  1  0  0  0
 78154  1  0  0  0
 78155  1  0  0  0
 79 80  1  0  0  0
 79156  1  0  0  0
 79157  1  0  0  0
 80158  1  0  0  0
 80159  1  0  0  0
 81 83  1  0  0  0
 81160  1  0  0  0
 81161  1  0  0  0
 82 84  1  0  0  0
 82 86  1  0  0  0
 82162  1  0  0  0
 82163  1  0  0  0
 83164  1  0  0  0
 83165  1  0  0  0
 84166  1  0  0  0
 86167  1  0  0  0
M  ISO  4   1 100  68 101  83 101  86 100
M  END
> <chiral flag>
0

> <version>
0

> <s_m_source_file>
/data/baiqing/PycharmProjects/Reinvent-master-3.2/result/LINK_invent/BTK/process_docking_weight1_custom_sum_contain_oxygen_bond_distance_aromatic_linkinvent_7_9_3/rearranged_h_0084.sdf

> <i_m_source_file_index>
80

> <r_mmod_Potential_Energy-OPLS-2005>
-175.165145874023

> <r_mmod_Stretch_Energy-OPLS-2005>
38.2186813354492

> <r_mmod_Bend_Energy-OPLS-2005>
104.248779296875

> <r_mmod_Torsional_Energy-OPLS-2005>
235.875030517578

> <r_mmod_Improper_Torsional_Energy-OPLS-2005>
2.26183938980103

> <r_mmod_Van_der_Waal_Energy-OPLS-2005>
160.869369506836

> <r_mmod_Electrostatic_Energy-OPLS-2005>
-522.31787109375

> <r_mmod_Solvation_Energy-OPLS-2005>
-204.80029296875

> <b_mmod_Minimization_Converged-OPLS-2005>
0

> <r_mmod_RMS_Derivative-OPLS-2005>
2.25795292854309

$$$$
80
                    3D
 Structure written by MMmdl.
176184  0  0  1  0            999 V2000
  -30.6851  -14.5008   20.4755 C   0  0  0  0  0  0
  -30.4153  -12.3012   19.4337 C   0  0  0  0  0  0
  -29.4955  -12.4888   18.2089 C   0  0  0  0  0  0
  -28.0177  -12.3433   18.6170 C   0  0  0  0  0  0
  -27.6510  -13.2031   19.8577 C   0  0  2  0  0  0
  -28.6944  -13.0408   20.9878 C   0  0  0  0  0  0
  -25.2539  -13.8115   20.5673 C   0  0  0  0  0  0
  -24.1813  -13.0417   20.9172 C   0  0  0  0  0  0
  -24.6363  -11.6886   20.8760 C   0  0  0  0  0  0
  -23.9039  -10.4291   21.0416 C   0  0  0  0  0  0
  -24.3589   -9.4213   21.9181 C   0  0  0  0  0  0
  -23.6265   -8.2251   22.0763 C   0  0  0  0  0  0
  -22.4257   -8.0259   21.3552 C   0  0  0  0  0  0
  -21.9879   -9.0236   20.4665 C   0  0  0  0  0  0
  -22.7215  -10.2125   20.3073 C   0  0  0  0  0  0
  -21.6868   -6.0686   22.5264 C   0  0  0  0  0  0
  -21.4028   -6.5602   23.8193 C   0  0  0  0  0  0
  -21.3660   -5.6770   24.9167 C   0  0  0  0  0  0
  -21.6047   -4.3028   24.7225 C   0  0  0  0  0  0
  -21.8832   -3.8118   23.4346 C   0  0  0  0  0  0
  -21.9207   -4.6921   22.3394 C   0  0  0  0  0  0
  -22.7863  -13.5257   21.1772 C   0  0  0  0  0  0
  -22.1705   -4.2101   21.0990 F   0  0  0  0  0  0
  -21.5626   -3.4521   25.7758 F   0  0  0  0  0  0
  -30.0195  -13.3203   20.4177 N   0  0  0  0  0  0
  -26.2982  -12.9280   20.3309 N   0  0  0  0  0  0
  -25.9296  -11.6457   20.5805 N   0  0  0  0  0  0
  -22.0487  -12.8315   22.0335 N   0  0  0  0  0  0
  -25.4225  -15.1823   20.4128 N   0  0  0  0  0  0
  -31.8665  -14.6142   20.1441 O   0  0  0  0  0  0
  -21.6656   -6.8846   21.4235 O   0  0  0  0  0  0
  -22.3572  -14.5560   20.6589 O   0  0  0  0  0  0
  -24.6096  -31.8688   23.2092 C   0  0  0  0  0  0
  -25.8994  -32.4839   23.8408 C   0  0  1  0  0  0
  -27.2730  -27.4765   20.1303 C   0  0  0  0  0  0
  -25.5858  -33.8636   24.2337 N   0  0  0  0  0  0
  -23.3995  -30.4840   21.5470 C   0  0  2  0  0  0
  -24.8580  -28.9528   20.1133 C   0  0  0  0  0  0
  -22.7406  -29.4649   22.5027 C   0  0  0  0  0  0
  -18.0266  -28.1374   22.8494 C   0  0  0  0  0  0
  -24.1483  -36.7327   23.2643 C   0  0  0  0  0  0
  -25.9172  -30.8541   21.3505 C   0  0  0  0  0  0
  -26.0048  -29.4880   20.7090 C   0  0  0  0  0  0
  -27.2100  -28.7618   20.7115 C   0  0  0  0  0  0
  -26.1175  -26.9549   19.5061 C   0  0  0  0  0  0
  -24.9093  -27.6856   19.5013 C   0  0  0  0  0  0
  -23.6094  -29.8046   20.1647 C   0  0  0  0  0  0
  -25.4103  -36.3128   24.0348 C   0  0  1  0  0  0
  -20.5852  -28.3663   23.1332 C   0  0  2  0  0  0
  -20.6755  -26.9403   22.5429 C   0  0  0  0  0  0
  -19.5741  -26.6387   21.5213 C   0  0  0  0  0  0
  -18.1913  -26.7924   22.1616 C   0  0  0  0  0  0
  -19.1510  -28.8834   23.2904 C   0  0  0  0  0  0
  -18.9439  -30.1437   23.8915 C   0  0  0  0  0  0
  -17.6448  -30.6588   24.0561 C   0  0  0  0  0  0
  -25.9025  -34.9491   23.5144 C   0  0  0  0  0  0
  -16.5338  -29.9091   23.6323 C   0  0  0  0  0  0
  -16.7256  -28.6501   23.0355 C   0  0  0  0  0  0
  -26.4453  -31.6598   25.0705 C   0  0  0  0  0  0
  -25.3746  -31.3658   26.1473 C   0  0  0  0  0  0
  -27.0275  -30.3059   24.5998 C   0  0  0  0  0  0
  -27.6045  -32.4302   25.7450 C   0  0  0  0  0  0
  -27.5581  -37.1820   24.8471 C   0  0  0  0  0  0
  -21.4140  -29.3018   22.3747 N   0  0  0  0  0  0
  -26.4301  -37.3795   23.9409 N   0  0  0  0  0  0
  -24.6593  -31.0831   22.0954 N   0  0  0  0  0  0
  -23.4181  -28.8211   23.3080 O   0  0  0  0  0  0
  -28.4301  -26.7284   20.1611 O   0  0  0  0  0  0
  -26.5593  -34.8922   22.4704 O   0  0  0  0  0  0
  -23.5295  -32.1416   23.7499 O   0  0  0  0  0  0
  -31.2268  -23.5756   21.8398 C   0  0  0  0  0  0
  -30.2842  -24.2371   19.7169 C   0  0  0  0  0  0
  -30.6248  -24.5722   21.0410 C   0  0  0  0  0  0
  -31.4561  -22.3023   21.2852 C   0  0  0  0  0  0
  -30.5107  -22.9291   19.2552 C   0  0  0  0  0  0
  -32.1208  -21.2006   22.0881 C   0  0  0  0  0  0
  -31.4441  -26.9542   20.9831 C   0  0  0  0  0  0
  -28.4018  -18.5431   20.6351 C   0  0  0  0  0  0
  -28.4716  -17.1193   18.5616 C   0  0  0  0  0  0
  -30.0955  -22.5428   17.8398 C   0  0  0  0  0  0
  -30.3665  -16.9666   20.3006 C   0  0  0  0  0  0
  -30.2424  -21.0493   17.4613 C   0  0  0  0  0  0
  -30.1658  -18.9849   18.8338 C   0  0  0  0  0  0
  -28.9584  -26.5172   21.4876 C   0  0  0  0  0  0
  -30.4139  -25.9841   21.5797 C   0  0  1  0  0  0
  -29.3311  -17.8984   19.5814 C   0  0  0  0  0  0
  -31.0927  -21.9829   20.0250 N   0  0  0  0  0  0
  -29.9166  -15.6004   20.6443 N   0  0  0  0  0  0
  -29.4023  -20.1222   18.2666 N   0  3  0  0  0  0
  -31.4650  -12.3839   19.1388 H   0  0  0  0  0  0
  -30.2984  -11.3023   19.8529 H   0  0  0  0  0  0
  -29.7394  -11.7521   17.4423 H   0  0  0  0  0  0
  -29.6624  -13.4698   17.7590 H   0  0  0  0  0  0
  -27.8306  -11.2882   18.8228 H   0  0  0  0  0  0
  -27.3688  -12.6032   17.7804 H   0  0  0  0  0  0
  -27.6767  -14.2381   19.5247 H   0  0  0  0  0  0
  -28.6665  -12.0252   21.3868 H   0  0  0  0  0  0
  -28.4644  -13.6992   21.8278 H   0  0  0  0  0  0
  -25.2752   -9.5683   22.4720 H   0  0  0  0  0  0
  -23.9941   -7.4652   22.7500 H   0  0  0  0  0  0
  -21.0787   -8.8760   19.8992 H   0  0  0  0  0  0
  -22.3641  -10.9631   19.6168 H   0  0  0  0  0  0
  -21.2036   -7.6131   23.9674 H   0  0  0  0  0  0
  -21.1475   -6.0524   25.9059 H   0  0  0  0  0  0
  -22.0602   -2.7564   23.2877 H   0  0  0  0  0  0
  -22.4195  -12.0032   22.4767 H   0  0  0  0  0  0
  -21.1111  -13.1355   22.2539 H   0  0  0  0  0  0
  -24.6387  -15.8209   20.4995 H   0  0  0  0  0  0
  -26.2549  -15.6166   20.0415 H   0  0  0  0  0  0
  -26.7088  -32.5606   23.1210 H   0  0  0  0  0  0
  -25.0014  -33.9799   25.0484 H   0  0  0  0  0  0
  -22.6874  -31.2979   21.4018 H   0  0  0  0  0  0
  -23.3732  -35.9685   23.3352 H   0  0  0  0  0  0
  -24.3561  -36.8880   22.2052 H   0  0  0  0  0  0
  -23.7267  -37.6557   23.6615 H   0  0  0  0  0  0
  -26.0070  -31.6155   20.5745 H   0  0  0  0  0  0
  -26.8125  -30.9271   21.9562 H   0  0  0  0  0  0
  -28.0912  -29.1987   21.1591 H   0  0  0  0  0  0
  -26.1541  -25.9792   19.0424 H   0  0  0  0  0  0
  -24.0305  -27.2684   19.0288 H   0  0  0  0  0  0
  -23.7058  -30.5720   19.3969 H   0  0  0  0  0  0
  -22.7416  -29.2090   19.8785 H   0  0  0  0  0  0
  -25.1283  -36.2010   25.0850 H   0  0  0  0  0  0
  -20.9920  -28.3219   24.1458 H   0  0  0  0  0  0
  -20.5647  -26.2273   23.3616 H   0  0  0  0  0  0
  -21.6630  -26.7451   22.1222 H   0  0  0  0  0  0
  -19.6907  -25.6299   21.1236 H   0  0  0  0  0  0
  -19.6679  -27.3207   20.6747 H   0  0  0  0  0  0
  -17.4188  -26.6679   21.4007 H   0  0  0  0  0  0
  -18.0309  -26.0058   22.9001 H   0  0  0  0  0  0
  -19.7916  -30.7240   24.2308 H   0  0  0  0  0  0
  -17.5003  -31.6270   24.5165 H   0  0  0  0  0  0
  -15.5342  -30.3004   23.7627 H   0  0  0  0  0  0
  -15.8657  -28.0829   22.7070 H   0  0  0  0  0  0
  -24.5904  -30.7024   25.7797 H   0  0  0  0  0  0
  -24.8958  -32.2804   26.4992 H   0  0  0  0  0  0
  -25.8129  -30.8771   27.0185 H   0  0  0  0  0  0
  -26.2779  -29.6822   24.1108 H   0  0  0  0  0  0
  -27.4156  -29.7274   25.4392 H   0  0  0  0  0  0
  -27.8565  -30.4422   23.9042 H   0  0  0  0  0  0
  -27.2682  -33.3579   26.2089 H   0  0  0  0  0  0
  -28.3813  -32.6902   25.0245 H   0  0  0  0  0  0
  -28.0769  -31.8396   26.5306 H   0  0  0  0  0  0
  -28.2634  -38.0077   24.7474 H   0  0  0  0  0  0
  -28.1033  -36.2612   24.6355 H   0  0  0  0  0  0
  -27.2288  -37.1553   25.8868 H   0  0  0  0  0  0
  -20.9316  -29.8731   21.6956 H   0  0  0  0  0  0
  -26.0203  -38.2886   24.1365 H   0  0  0  0  0  0
  -31.5236  -23.7885   22.8600 H   0  0  0  0  0  0
  -29.8568  -24.9801   19.0581 H   0  0  0  0  0  0
  -32.9106  -21.6043   22.7186 H   0  0  0  0  0  0
  -32.5683  -20.4456   21.4378 H   0  0  0  0  0  0
  -31.3904  -20.7065   22.7273 H   0  0  0  0  0  0
  -32.4589  -26.6073   21.1861 H   0  0  0  0  0  0
  -31.3527  -27.9524   21.4121 H   0  0  0  0  0  0
  -31.3312  -27.0388   19.9017 H   0  0  0  0  0  0
  -27.9591  -17.7936   21.2901 H   0  0  0  0  0  0
  -27.5755  -19.0860   20.1759 H   0  0  0  0  0  0
  -28.9422  -19.2480   21.2657 H   0  0  0  0  0  0
  -27.8109  -16.4153   19.0620 H   0  0  0  0  0  0
  -29.0820  -16.5615   17.8465 H   0  0  0  0  0  0
  -27.8248  -17.7905   17.9936 H   0  0  0  0  0  0
  -30.7096  -23.1344   17.1617 H   0  0  0  0  0  0
  -29.0666  -22.8707   17.6752 H   0  0  0  0  0  0
  -30.7285  -17.4550   21.2036 H   0  0  0  0  0  0
  -31.2519  -16.8973   19.6618 H   0  0  0  0  0  0
  -31.2957  -20.7765   17.5296 H   0  0  0  0  0  0
  -29.9744  -20.9219   16.4122 H   0  0  0  0  0  0
  -30.7396  -18.5125   18.0334 H   0  0  0  0  0  0
  -30.9024  -19.3952   19.5231 H   0  0  0  0  0  0
  -28.9391  -27.4369   22.0744 H   0  0  0  0  0  0
  -28.2944  -25.8274   22.0119 H   0  0  0  0  0  0
  -30.6326  -25.9323   22.6503 H   0  0  0  0  0  0
  -28.9516  -15.4623   20.9055 H   0  0  0  0  0  0
  -28.6599  -19.7782   17.6765 H   0  0  0  0  0  0
  -28.9938  -20.6373   19.0298 H   0  0  0  0  0  0
  1 25  1  0  0  0
  1 30  2  0  0  0
  1 88  1  0  0  0
  2  3  1  0  0  0
  2 25  1  0  0  0
  2 90  1  0  0  0
  2 91  1  0  0  0
  3  4  1  0  0  0
  3 92  1  0  0  0
  3 93  1  0  0  0
  4  5  1  0  0  0
  4 94  1  0  0  0
  4 95  1  0  0  0
  5  6  1  0  0  0
  5 26  1  0  0  0
  5 96  1  0  0  0
  6 25  1  0  0  0
  6 97  1  0  0  0
  6 98  1  0  0  0
  7  8  2  0  0  0
  7 26  1  0  0  0
  7 29  1  0  0  0
  8  9  1  0  0  0
  8 22  1  0  0  0
  9 10  1  0  0  0
  9 27  2  0  0  0
 10 11  2  0  0  0
 10 15  1  0  0  0
 11 12  1  0  0  0
 11 99  1  0  0  0
 12 13  2  0  0  0
 12100  1  0  0  0
 13 14  1  0  0  0
 13 31  1  0  0  0
 14 15  2  0  0  0
 14101  1  0  0  0
 15102  1  0  0  0
 16 17  2  0  0  0
 16 21  1  0  0  0
 16 31  1  0  0  0
 17 18  1  0  0  0
 17103  1  0  0  0
 18 19  2  0  0  0
 18104  1  0  0  0
 19 20  1  0  0  0
 19 24  1  0  0  0
 20 21  2  0  0  0
 20105  1  0  0  0
 21 23  1  0  0  0
 22 28  1  0  0  0
 22 32  2  0  0  0
 26 27  1  0  0  0
 28106  1  0  0  0
 28107  1  0  0  0
 29108  1  0  0  0
 29109  1  0  0  0
 33 34  1  0  0  0
 33 66  1  0  0  0
 33 70  2  0  0  0
 34 36  1  0  0  0
 34 59  1  0  0  0
 34110  1  0  0  0
 35 44  2  0  0  0
 35 45  1  0  0  0
 35 68  1  0  0  0
 36 56  1  0  0  0
 36111  1  0  0  0
 37 39  1  0  0  0
 37 47  1  0  0  0
 37 66  1  0  0  0
 37112  1  0  0  0
 38 43  2  0  0  0
 38 46  1  0  0  0
 38 47  1  0  0  0
 39 64  1  0  0  0
 39 67  2  0  0  0
 40 52  1  0  0  0
 40 53  2  0  0  0
 40 58  1  0  0  0
 41113  1  0  0  0
 41114  1  0  0  0
 41115  1  0  0  0
 41 48  1  0  0  0
 42 43  1  0  0  0
 42 66  1  0  0  0
 42116  1  0  0  0
 42117  1  0  0  0
 43 44  1  0  0  0
 44118  1  0  0  0
 45 46  2  0  0  0
 45119  1  0  0  0
 46120  1  0  0  0
 47121  1  0  0  0
 47122  1  0  0  0
 48 56  1  0  0  0
 48 65  1  0  0  0
 48123  1  0  0  0
 49 50  1  0  0  0
 49 53  1  0  0  0
 49 64  1  0  0  0
 49124  1  0  0  0
 50 51  1  0  0  0
 50125  1  0  0  0
 50126  1  0  0  0
 51 52  1  0  0  0
 51127  1  0  0  0
 51128  1  0  0  0
 52129  1  0  0  0
 52130  1  0  0  0
 53 54  1  0  0  0
 54 55  2  0  0  0
 54131  1  0  0  0
 55 57  1  0  0  0
 55132  1  0  0  0
 56 69  2  0  0  0
 57 58  2  0  0  0
 57133  1  0  0  0
 58134  1  0  0  0
 59 60  1  0  0  0
 59 61  1  0  0  0
 59 62  1  0  0  0
 60135  1  0  0  0
 60136  1  0  0  0
 60137  1  0  0  0
 61138  1  0  0  0
 61139  1  0  0  0
 61140  1  0  0  0
 62141  1  0  0  0
 62142  1  0  0  0
 62143  1  0  0  0
 63 65  1  0  0  0
 63144  1  0  0  0
 63145  1  0  0  0
 63146  1  0  0  0
 64147  1  0  0  0
 65148  1  0  0  0
 68 84  1  0  0  0
 71 73  2  0  0  0
 71 74  1  0  0  0
 71149  1  0  0  0
 72 73  1  0  0  0
 72 75  2  0  0  0
 72150  1  0  0  0
 73 85  1  0  0  0
 74 76  1  0  0  0
 74 87  2  0  0  0
 75 80  1  0  0  0
 75 87  1  0  0  0
 76151  1  0  0  0
 76152  1  0  0  0
 76153  1  0  0  0
 77154  1  0  0  0
 77155  1  0  0  0
 77156  1  0  0  0
 77 85  1  0  0  0
 78157  1  0  0  0
 78158  1  0  0  0
 78159  1  0  0  0
 78 86  1  0  0  0
 79 86  1  0  0  0
 79160  1  0  0  0
 79161  1  0  0  0
 79162  1  0  0  0
 80 82  1  0  0  0
 80163  1  0  0  0
 80164  1  0  0  0
 81 86  1  0  0  0
 81 88  1  0  0  0
 81165  1  0  0  0
 81166  1  0  0  0
 82 89  1  0  0  0
 82167  1  0  0  0
 82168  1  0  0  0
 83 86  1  0  0  0
 83 89  1  0  0  0
 83169  1  0  0  0
 83170  1  0  0  0
 84 85  1  0  0  0
 84171  1  0  0  0
 84172  1  0  0  0
 85173  1  0  0  0
 88174  1  0  0  0
 89175  1  0  0  0
 89176  1  0  0  0
M  CHG  1  89   1
M  ISO  4   1 100  68 101  84 101  88 100
M  END
> <chiral flag>
0

> <version>
0

> <s_m_source_file>
/data/baiqing/PycharmProjects/Reinvent-master-3.2/result/LINK_invent/BTK/process_docking_weight1_custom_sum_contain_oxygen_bond_distance_aromatic_linkinvent_7_9_3/rearranged_h_0084.sdf

> <i_m_source_file_index>
81

> <r_mmod_Potential_Energy-OPLS-2005>
-361.186645507812

> <r_mmod_Stretch_Energy-OPLS-2005>
38.6737518310547

> <r_mmod_Bend_Energy-OPLS-2005>
109.397956848145

> <r_mmod_Torsional_Energy-OPLS-2005>
278.945770263672

> <r_mmod_Improper_Torsional_Energy-OPLS-2005>
7.10204410552979

> <r_mmod_Van_der_Waal_Energy-OPLS-2005>
153.295303344727

> <r_mmod_Electrostatic_Energy-OPLS-2005>
-534.394775390625

> <r_mmod_Solvation_Energy-OPLS-2005>
-433.270904541016

> <b_mmod_Minimization_Converged-OPLS-2005>
0

> <r_mmod_RMS_Derivative-OPLS-2005>
5.11245632171631

$$$$
81
                    3D
 Structure written by MMmdl.
167175  0  0  1  0            999 V2000
  -30.4242  -15.7515   20.4671 C   0  0  0  0  0  0
  -30.4272  -13.0750   19.6862 C   0  0  0  0  0  0
  -29.5911  -12.7148   18.4104 C   0  0  0  0  0  0
  -28.1636  -12.3175   18.7916 C   0  0  0  0  0  0
  -27.6228  -13.3174   19.8260 C   0  0  2  0  0  0
  -28.6057  -13.6530   20.9818 C   0  0  0  0  0  0
  -25.2424  -13.8291   20.5709 C   0  0  0  0  0  0
  -24.1782  -13.0434   20.9179 C   0  0  0  0  0  0
  -24.6483  -11.6956   20.8667 C   0  0  0  0  0  0
  -23.9149  -10.4300   21.0341 C   0  0  0  0  0  0
  -24.3698   -9.4217   21.9129 C   0  0  0  0  0  0
  -23.6339   -8.2265   22.0741 C   0  0  0  0  0  0
  -22.4321   -8.0280   21.3531 C   0  0  0  0  0  0
  -21.9963   -9.0263   20.4633 C   0  0  0  0  0  0
  -22.7308  -10.2130   20.3004 C   0  0  0  0  0  0
  -21.6871   -6.0746   22.5276 C   0  0  0  0  0  0
  -21.4013   -6.5646   23.8207 C   0  0  0  0  0  0
  -21.3675   -5.6799   24.9156 C   0  0  0  0  0  0
  -21.6048   -4.3070   24.7216 C   0  0  0  0  0  0
  -21.8820   -3.8161   23.4343 C   0  0  0  0  0  0
  -21.9199   -4.6968   22.3389 C   0  0  0  0  0  0
  -22.7805  -13.5180   21.1879 C   0  0  0  0  0  0
  -22.1669   -4.2160   21.0971 F   0  0  0  0  0  0
  -21.5640   -3.4541   25.7730 F   0  0  0  0  0  0
  -29.8791  -14.3101   20.4911 N   0  0  0  0  0  0
  -26.2891  -12.9642   20.3135 N   0  0  0  0  0  0
  -25.9440  -11.6714   20.5614 N   0  0  0  0  0  0
  -22.0512  -12.8139   22.0462 N   0  0  0  0  0  0
  -25.4107  -15.2026   20.4263 N   0  0  0  0  0  0
  -31.1687  -15.4918   19.4737 O   0  0  0  0  0  0
  -21.6659   -6.8905   21.4245 O   0  0  0  0  0  0
  -22.3436  -14.5474   20.6749 O   0  0  0  0  0  0
  -24.6859  -31.7938   23.1433 C   0  0  0  0  0  0
  -25.9431  -32.4432   23.8001 C   0  0  1  0  0  0
  -27.2343  -26.6429   20.2299 C   0  0  0  0  0  0
  -25.5979  -33.8263   24.1884 N   0  0  0  0  0  0
  -23.5158  -30.3924   21.5014 C   0  0  2  0  0  0
  -24.9721  -28.7199   20.1235 C   0  0  0  0  0  0
  -22.7766  -29.4285   22.4688 C   0  0  0  0  0  0
  -18.0346  -28.1428   22.8454 C   0  0  0  0  0  0
  -24.1523  -36.7141   23.2655 C   0  0  0  0  0  0
  -26.0984  -30.5070   21.4190 C   0  0  0  0  0  0
  -26.1622  -29.0637   20.7741 C   0  0  0  0  0  0
  -27.2713  -28.0553   20.7949 C   0  0  0  0  0  0
  -26.0101  -26.5237   19.5167 C   0  0  0  0  0  0
  -24.9382  -27.4720   19.4713 C   0  0  0  0  0  0
  -23.7716  -29.6846   20.1411 C   0  0  0  0  0  0
  -25.4178  -36.2882   24.0274 C   0  0  1  0  0  0
  -20.5988  -28.3813   23.1110 C   0  0  2  0  0  0
  -20.6837  -26.9465   22.5401 C   0  0  0  0  0  0
  -19.5813  -26.6376   21.5228 C   0  0  0  0  0  0
  -18.1989  -26.7955   22.1612 C   0  0  0  0  0  0
  -19.1614  -28.8944   23.2767 C   0  0  0  0  0  0
  -18.9520  -30.1527   23.8822 C   0  0  0  0  0  0
  -17.6509  -30.6613   24.0569 C   0  0  0  0  0  0
  -25.9143  -34.9264   23.4927 C   0  0  0  0  0  0
  -16.5401  -29.9098   23.6359 C   0  0  0  0  0  0
  -16.7325  -28.6518   23.0371 C   0  0  0  0  0  0
  -26.4594  -31.6477   25.0628 C   0  0  0  0  0  0
  -25.3625  -31.3815   26.1209 C   0  0  0  0  0  0
  -27.0531  -30.2800   24.6596 C   0  0  0  0  0  0
  -27.6060  -32.4328   25.7422 C   0  0  0  0  0  0
  -27.5584  -37.1712   24.8454 C   0  0  0  0  0  0
  -21.4411  -29.3034   22.3408 N   0  0  0  0  0  0
  -26.4304  -37.3637   23.9384 N   0  0  0  0  0  0
  -24.7916  -30.9321   22.0735 N   0  0  0  0  0  0
  -23.4161  -28.7915   23.3086 O   0  0  0  0  0  0
  -28.2035  -25.4054   20.3182 O   0  0  0  0  0  0
  -26.5811  -34.8856   22.4552 O   0  0  0  0  0  0
  -23.5872  -32.1064   23.6340 O   0  0  0  0  0  0
  -31.5388  -15.3542   22.5240 C   0  0  0  0  0  0
  -31.5415  -17.8923   20.1085 C   0  0  0  0  0  0
  -32.5391  -16.5466   21.2416 C   0  0  0  0  0  0
  -29.5954  -15.7192   22.7225 C   0  0  0  0  0  0
  -29.6623  -18.2390   20.4534 C   0  0  0  0  0  0
  -28.9009  -15.9876   26.5098 C   0  0  0  0  0  0
  -34.3897  -18.2911   21.4419 C   0  0  0  0  0  0
  -28.9065  -15.2953   24.0054 C   0  0  0  0  0  0
  -28.9052  -19.9499   20.1139 C   0  0  0  0  0  0
  -29.6965  -15.8599   25.2060 C   0  0  0  0  0  0
  -29.0317  -21.8950   20.4436 C   0  0  0  0  0  0
  -32.1324  -18.0813   22.7050 C   0  0  0  0  0  0
  -28.0882  -23.6187   20.1482 C   0  0  0  0  0  0
  -33.3730  -17.3632   22.1245 C   0  0  1  0  0  0
  -28.7549  -17.0640   21.6379 N   0  0  0  0  0  0
  -30.8680  -17.4256   22.1615 N   0  0  0  0  0  0
  -31.4697  -13.2081   19.3936 H   0  0  0  0  0  0
  -30.4881  -12.1995   20.3345 H   0  0  0  0  0  0
  -30.0678  -11.9036   17.8566 H   0  0  0  0  0  0
  -29.5662  -13.5753   17.7414 H   0  0  0  0  0  0
  -28.1924  -11.3199   19.2308 H   0  0  0  0  0  0
  -27.5169  -12.2618   17.9147 H   0  0  0  0  0  0
  -27.5047  -14.2415   19.2603 H   0  0  0  0  0  0
  -28.8000  -12.7882   21.6194 H   0  0  0  0  0  0
  -28.0203  -14.3344   21.5912 H   0  0  0  0  0  0
  -25.2849   -9.5686   22.4667 H   0  0  0  0  0  0
  -24.0047   -7.4673   22.7469 H   0  0  0  0  0  0
  -21.0886   -8.8771   19.8942 H   0  0  0  0  0  0
  -22.3758  -10.9645   19.6092 H   0  0  0  0  0  0
  -21.1988   -7.6148   23.9712 H   0  0  0  0  0  0
  -21.1500   -6.0523   25.9075 H   0  0  0  0  0  0
  -22.0591   -2.7611   23.2827 H   0  0  0  0  0  0
  -22.4247  -11.9798   22.4786 H   0  0  0  0  0  0
  -21.1119  -13.1059   22.2712 H   0  0  0  0  0  0
  -24.6648  -15.8700   20.5871 H   0  0  0  0  0  0
  -26.2990  -15.6442   20.2257 H   0  0  0  0  0  0
  -26.7506  -32.4899   23.0702 H   0  0  0  0  0  0
  -25.0029  -33.9316   24.9984 H   0  0  0  0  0  0
  -22.8469  -31.2353   21.3085 H   0  0  0  0  0  0
  -23.3800  -35.9446   23.3247 H   0  0  0  0  0  0
  -24.3616  -36.8876   22.2082 H   0  0  0  0  0  0
  -23.7266  -37.6290   23.6786 H   0  0  0  0  0  0
  -26.3185  -31.2290   20.6320 H   0  0  0  0  0  0
  -26.9418  -30.5668   22.0948 H   0  0  0  0  0  0
  -28.1629  -28.3315   21.3410 H   0  0  0  0  0  0
  -25.8376  -25.5883   19.0035 H   0  0  0  0  0  0
  -24.0413  -27.1965   18.9350 H   0  0  0  0  0  0
  -23.9405  -30.4421   19.3740 H   0  0  0  0  0  0
  -22.8757  -29.1517   19.8237 H   0  0  0  0  0  0
  -25.1402  -36.1648   25.0768 H   0  0  0  0  0  0
  -21.0102  -28.3492   24.1225 H   0  0  0  0  0  0
  -20.5744  -26.2450   23.3684 H   0  0  0  0  0  0
  -21.6701  -26.7442   22.1211 H   0  0  0  0  0  0
  -19.6997  -25.6274   21.1309 H   0  0  0  0  0  0
  -19.6767  -27.3154   20.6735 H   0  0  0  0  0  0
  -17.4275  -26.6707   21.4000 H   0  0  0  0  0  0
  -18.0364  -26.0118   22.9015 H   0  0  0  0  0  0
  -19.8005  -30.7360   24.2155 H   0  0  0  0  0  0
  -17.5067  -31.6289   24.5174 H   0  0  0  0  0  0
  -15.5400  -30.2974   23.7729 H   0  0  0  0  0  0
  -15.8729  -28.0814   22.7122 H   0  0  0  0  0  0
  -24.5849  -30.7147   25.7463 H   0  0  0  0  0  0
  -24.8770  -32.3041   26.4384 H   0  0  0  0  0  0
  -25.7752  -30.9101   27.0140 H   0  0  0  0  0  0
  -26.3263  -29.6373   24.1618 H   0  0  0  0  0  0
  -27.3945  -29.7301   25.5377 H   0  0  0  0  0  0
  -27.9256  -30.3882   24.0157 H   0  0  0  0  0  0
  -27.2653  -33.3734   26.1764 H   0  0  0  0  0  0
  -28.3976  -32.6705   25.0301 H   0  0  0  0  0  0
  -28.0617  -31.8585   26.5500 H   0  0  0  0  0  0
  -28.2547  -38.0057   24.7530 H   0  0  0  0  0  0
  -28.1134  -36.2568   24.6268 H   0  0  0  0  0  0
  -27.2280  -37.1344   25.8852 H   0  0  0  0  0  0
  -20.9718  -29.8621   21.6426 H   0  0  0  0  0  0
  -26.0119  -38.2680   24.1396 H   0  0  0  0  0  0
  -32.0554  -14.7724   23.2697 H   0  0  0  0  0  0
  -32.1041  -18.6583   19.5983 H   0  0  0  0  0  0
  -29.5120  -16.4542   27.2836 H   0  0  0  0  0  0
  -28.5702  -15.0207   26.8878 H   0  0  0  0  0  0
  -28.0235  -16.6187   26.3733 H   0  0  0  0  0  0
  -35.0116  -17.7582   20.7254 H   0  0  0  0  0  0
  -35.0582  -18.7221   22.1903 H   0  0  0  0  0  0
  -33.9158  -19.1242   20.9220 H   0  0  0  0  0  0
  -28.8484  -14.2074   24.0629 H   0  0  0  0  0  0
  -27.8853  -15.6768   24.0005 H   0  0  0  0  0  0
  -27.8831  -19.7523   20.4326 H   0  0  0  0  0  0
  -28.8415  -19.9082   19.0264 H   0  0  0  0  0  0
  -30.5928  -15.2625   25.3722 H   0  0  0  0  0  0
  -30.0590  -16.8583   24.9556 H   0  0  0  0  0  0
  -30.0190  -22.1049   20.0281 H   0  0  0  0  0  0
  -29.1960  -21.9209   21.5203 H   0  0  0  0  0  0
  -32.1194  -19.1403   22.4392 H   0  0  0  0  0  0
  -32.1432  -18.0334   23.7942 H   0  0  0  0  0  0
  -27.1433  -23.4348   20.6594 H   0  0  0  0  0  0
  -27.8195  -23.5431   19.0921 H   0  0  0  0  0  0
  -33.8603  -16.7063   22.8472 H   0  0  0  0  0  0
  -30.0021  -17.6156   22.6536 H   0  0  0  0  0  0
  1 25  1  0  0  0
  1 30  2  0  0  0
  1 86  1  0  0  0
  2  3  1  0  0  0
  2 25  1  0  0  0
  2 87  1  0  0  0
  2 88  1  0  0  0
  3  4  1  0  0  0
  3 89  1  0  0  0
  3 90  1  0  0  0
  4  5  1  0  0  0
  4 91  1  0  0  0
  4 92  1  0  0  0
  5  6  1  0  0  0
  5 26  1  0  0  0
  5 93  1  0  0  0
  6 25  1  0  0  0
  6 94  1  0  0  0
  6 95  1  0  0  0
  7  8  2  0  0  0
  7 26  1  0  0  0
  7 29  1  0  0  0
  8  9  1  0  0  0
  8 22  1  0  0  0
  9 10  1  0  0  0
  9 27  2  0  0  0
 10 11  2  0  0  0
 10 15  1  0  0  0
 11 12  1  0  0  0
 11 96  1  0  0  0
 12 13  2  0  0  0
 12 97  1  0  0  0
 13 14  1  0  0  0
 13 31  1  0  0  0
 14 15  2  0  0  0
 14 98  1  0  0  0
 15 99  1  0  0  0
 16 17  2  0  0  0
 16 21  1  0  0  0
 16 31  1  0  0  0
 17 18  1  0  0  0
 17100  1  0  0  0
 18 19  2  0  0  0
 18101  1  0  0  0
 19 20  1  0  0  0
 19 24  1  0  0  0
 20 21  2  0  0  0
 20102  1  0  0  0
 21 23  1  0  0  0
 22 28  1  0  0  0
 22 32  2  0  0  0
 26 27  1  0  0  0
 28103  1  0  0  0
 28104  1  0  0  0
 29105  1  0  0  0
 29106  1  0  0  0
 33 34  1  0  0  0
 33 66  1  0  0  0
 33 70  2  0  0  0
 34 36  1  0  0  0
 34 59  1  0  0  0
 34107  1  0  0  0
 35 44  2  0  0  0
 35 45  1  0  0  0
 35 68  1  0  0  0
 36 56  1  0  0  0
 36108  1  0  0  0
 37 39  1  0  0  0
 37 47  1  0  0  0
 37 66  1  0  0  0
 37109  1  0  0  0
 38 43  2  0  0  0
 38 46  1  0  0  0
 38 47  1  0  0  0
 39 64  1  0  0  0
 39 67  2  0  0  0
 40 52  1  0  0  0
 40 53  2  0  0  0
 40 58  1  0  0  0
 41110  1  0  0  0
 41111  1  0  0  0
 41112  1  0  0  0
 41 48  1  0  0  0
 42 43  1  0  0  0
 42 66  1  0  0  0
 42113  1  0  0  0
 42114  1  0  0  0
 43 44  1  0  0  0
 44115  1  0  0  0
 45 46  2  0  0  0
 45116  1  0  0  0
 46117  1  0  0  0
 47118  1  0  0  0
 47119  1  0  0  0
 48 56  1  0  0  0
 48 65  1  0  0  0
 48120  1  0  0  0
 49 50  1  0  0  0
 49 53  1  0  0  0
 49 64  1  0  0  0
 49121  1  0  0  0
 50 51  1  0  0  0
 50122  1  0  0  0
 50123  1  0  0  0
 51 52  1  0  0  0
 51124  1  0  0  0
 51125  1  0  0  0
 52126  1  0  0  0
 52127  1  0  0  0
 53 54  1  0  0  0
 54 55  2  0  0  0
 54128  1  0  0  0
 55 57  1  0  0  0
 55129  1  0  0  0
 56 69  2  0  0  0
 57 58  2  0  0  0
 57130  1  0  0  0
 58131  1  0  0  0
 59 60  1  0  0  0
 59 61  1  0  0  0
 59 62  1  0  0  0
 60132  1  0  0  0
 60133  1  0  0  0
 60134  1  0  0  0
 61135  1  0  0  0
 61136  1  0  0  0
 61137  1  0  0  0
 62138  1  0  0  0
 62139  1  0  0  0
 62140  1  0  0  0
 63 65  1  0  0  0
 63141  1  0  0  0
 63142  1  0  0  0
 63143  1  0  0  0
 64144  1  0  0  0
 65145  1  0  0  0
 68 83  1  0  0  0
 71 73  2  0  0  0
 71 74  1  0  0  0
 71146  1  0  0  0
 72 73  1  0  0  0
 72 75  2  0  0  0
 72147  1  0  0  0
 73 84  1  0  0  0
 74 78  1  0  0  0
 74 85  2  0  0  0
 75 79  1  0  0  0
 75 85  1  0  0  0
 76 80  1  0  0  0
 76148  1  0  0  0
 76149  1  0  0  0
 76150  1  0  0  0
 77151  1  0  0  0
 77152  1  0  0  0
 77153  1  0  0  0
 77 84  1  0  0  0
 78 80  1  0  0  0
 78154  1  0  0  0
 78155  1  0  0  0
 79 81  1  0  0  0
 79156  1  0  0  0
 79157  1  0  0  0
 80158  1  0  0  0
 80159  1  0  0  0
 81 83  1  0  0  0
 81160  1  0  0  0
 81161  1  0  0  0
 82 84  1  0  0  0
 82 86  1  0  0  0
 82162  1  0  0  0
 82163  1  0  0  0
 83164  1  0  0  0
 83165  1  0  0  0
 84166  1  0  0  0
 86167  1  0  0  0
M  ISO  4   1 100  68 101  83 101  86 100
M  END
> <chiral flag>
0

> <version>
0

> <s_m_source_file>
/data/baiqing/PycharmProjects/Reinvent-master-3.2/result/LINK_invent/BTK/process_docking_weight1_custom_sum_contain_oxygen_bond_distance_aromatic_linkinvent_7_9_3/rearranged_h_0084.sdf

> <i_m_source_file_index>
82

> <r_mmod_Potential_Energy-OPLS-2005>
12261.9384765625

> <r_mmod_Stretch_Energy-OPLS-2005>
7680.94921875

> <r_mmod_Bend_Energy-OPLS-2005>
829.381469726562

> <r_mmod_Torsional_Energy-OPLS-2005>
377.179016113281

> <r_mmod_Improper_Torsional_Energy-OPLS-2005>
71.9553604125977

> <r_mmod_Van_der_Waal_Energy-OPLS-2005>
2969.5107421875

> <r_mmod_Electrostatic_Energy-OPLS-2005>
-501.000122070312

> <r_mmod_Solvation_Energy-OPLS-2005>
-200.29069519043

> <b_mmod_Minimization_Converged-OPLS-2005>
0

> <r_mmod_RMS_Derivative-OPLS-2005>
8.70890235900879

$$$$
82
                    3D
 Structure written by MMmdl.
164172  0  0  1  0            999 V2000
  -30.6677  -14.5485   20.5344 C   0  0  0  0  0  0
  -30.4412  -12.3405   19.4443 C   0  0  0  0  0  0
  -29.5108  -12.5050   18.2216 C   0  0  0  0  0  0
  -28.0304  -12.3613   18.6281 C   0  0  0  0  0  0
  -27.6678  -13.2089   19.8769 C   0  0  2  0  0  0
  -28.7123  -13.0144   21.0032 C   0  0  0  0  0  0
  -25.2623  -13.8157   20.5664 C   0  0  0  0  0  0
  -24.1868  -13.0440   20.9154 C   0  0  0  0  0  0
  -24.6428  -11.6906   20.8731 C   0  0  0  0  0  0
  -23.9090  -10.4290   21.0407 C   0  0  0  0  0  0
  -24.3634   -9.4204   21.9190 C   0  0  0  0  0  0
  -23.6295   -8.2247   22.0769 C   0  0  0  0  0  0
  -22.4281   -8.0287   21.3556 C   0  0  0  0  0  0
  -21.9919   -9.0267   20.4659 C   0  0  0  0  0  0
  -22.7262  -10.2135   20.3058 C   0  0  0  0  0  0
  -21.6853   -6.0738   22.5282 C   0  0  0  0  0  0
  -21.4022   -6.5645   23.8218 C   0  0  0  0  0  0
  -21.3650   -5.6798   24.9175 C   0  0  0  0  0  0
  -21.6040   -4.3058   24.7229 C   0  0  0  0  0  0
  -21.8823   -3.8151   23.4350 C   0  0  0  0  0  0
  -21.9196   -4.6966   22.3405 C   0  0  0  0  0  0
  -22.7892  -13.5240   21.1818 C   0  0  0  0  0  0
  -22.1663   -4.2150   21.0981 F   0  0  0  0  0  0
  -21.5615   -3.4540   25.7741 F   0  0  0  0  0  0
  -30.0426  -13.3361   20.4545 N   0  0  0  0  0  0
  -26.3070  -12.9332   20.3368 N   0  0  0  0  0  0
  -25.9359  -11.6494   20.5773 N   0  0  0  0  0  0
  -22.0525  -12.8235   22.0364 N   0  0  0  0  0  0
  -25.4339  -15.1881   20.4075 N   0  0  0  0  0  0
  -31.7738  -14.7600   20.0327 O   0  0  0  0  0  0
  -21.6646   -6.8883   21.4248 O   0  0  0  0  0  0
  -22.3577  -14.5547   20.6659 O   0  0  0  0  0  0
  -24.6218  -31.8652   23.2068 C   0  0  0  0  0  0
  -25.9086  -32.4811   23.8375 C   0  0  1  0  0  0
  -27.2325  -27.3700   20.1006 C   0  0  0  0  0  0
  -25.5922  -33.8609   24.2314 N   0  0  0  0  0  0
  -23.4125  -30.4890   21.5501 C   0  0  2  0  0  0
  -24.8596  -28.9571   20.1099 C   0  0  0  0  0  0
  -22.7464  -29.4627   22.4974 C   0  0  0  0  0  0
  -18.0286  -28.1360   22.8499 C   0  0  0  0  0  0
  -24.1497  -36.7296   23.2640 C   0  0  0  0  0  0
  -25.9507  -30.8112   21.3719 C   0  0  0  0  0  0
  -26.0263  -29.4437   20.7123 C   0  0  0  0  0  0
  -27.2144  -28.6610   20.7015 C   0  0  0  0  0  0
  -26.0368  -26.9273   19.4804 C   0  0  0  0  0  0
  -24.8634  -27.7007   19.4884 C   0  0  0  0  0  0
  -23.6231  -29.8280   20.1639 C   0  0  0  0  0  0
  -25.4122  -36.3104   24.0337 C   0  0  1  0  0  0
  -20.5886  -28.3658   23.1309 C   0  0  2  0  0  0
  -20.6776  -26.9387   22.5418 C   0  0  0  0  0  0
  -19.5745  -26.6369   21.5227 C   0  0  0  0  0  0
  -18.1921  -26.7908   22.1637 C   0  0  0  0  0  0
  -19.1540  -28.8833   23.2893 C   0  0  0  0  0  0
  -18.9460  -30.1440   23.8893 C   0  0  0  0  0  0
  -17.6456  -30.6568   24.0564 C   0  0  0  0  0  0
  -25.9058  -34.9469   23.5122 C   0  0  0  0  0  0
  -16.5347  -29.9063   23.6331 C   0  0  0  0  0  0
  -16.7274  -28.6482   23.0351 C   0  0  0  0  0  0
  -26.4481  -31.6594   25.0716 C   0  0  0  0  0  0
  -25.3732  -31.3703   26.1453 C   0  0  0  0  0  0
  -27.0320  -30.3030   24.6117 C   0  0  0  0  0  0
  -27.6048  -32.4330   25.7478 C   0  0  0  0  0  0
  -27.5590  -37.1803   24.8471 C   0  0  0  0  0  0
  -21.4191  -29.3014   22.3703 N   0  0  0  0  0  0
  -26.4310  -37.3789   23.9407 N   0  0  0  0  0  0
  -24.6798  -31.0698   22.1003 N   0  0  0  0  0  0
  -23.4214  -28.8170   23.3037 O   0  0  0  0  0  0
  -28.3723  -26.5583   20.1443 O   0  0  0  0  0  0
  -26.5620  -34.8926   22.4684 O   0  0  0  0  0  0
  -23.5391  -32.1431   23.7416 O   0  0  0  0  0  0
  -29.5160  -20.2375   20.8403 C   0  0  0  0  0  0
  -29.7408  -21.4176   20.1647 C   0  0  0  0  0  0
  -32.4670  -19.1887   22.7224 C   0  0  0  0  0  0
  -32.2674  -16.7264   22.8190 C   0  0  0  0  0  0
  -30.3204  -18.1601   23.4985 C   0  0  0  0  0  0
  -28.8067  -22.6134   19.9427 C   0  0  0  0  0  0
  -29.2867  -24.0811   20.2510 C   0  0  0  0  0  0
  -29.8392  -16.9859   20.6197 C   0  0  0  0  0  0
  -28.1747  -25.1321   19.8899 C   0  0  0  0  0  0
  -30.9577  -18.0262   21.0056 C   0  0  2  0  0  0
  -31.4804  -18.0167   22.4924 C   0  0  0  0  0  0
  -30.9468  -21.2616   19.4797 N   0  0  0  0  0  0
  -31.4566  -20.0860   19.7297 N   0  0  0  0  0  0
  -30.6031  -19.4099   20.5458 N   0  0  0  0  0  0
  -29.9113  -15.5533   21.0332 N   0  0  0  0  0  0
  -31.4846  -12.4531   19.1434 H   0  0  0  0  0  0
  -30.3589  -11.3342   19.8579 H   0  0  0  0  0  0
  -29.7599  -11.7625   17.4615 H   0  0  0  0  0  0
  -29.6731  -13.4814   17.7607 H   0  0  0  0  0  0
  -27.8446  -11.3055   18.8299 H   0  0  0  0  0  0
  -27.3836  -12.6268   17.7913 H   0  0  0  0  0  0
  -27.7043  -14.2536   19.5679 H   0  0  0  0  0  0
  -28.7002  -11.9821   21.3561 H   0  0  0  0  0  0
  -28.4635  -13.6210   21.8755 H   0  0  0  0  0  0
  -25.2786   -9.5665   22.4763 H   0  0  0  0  0  0
  -23.9995   -7.4643   22.7500 H   0  0  0  0  0  0
  -21.0845   -8.8802   19.8973 H   0  0  0  0  0  0
  -22.3740  -10.9676   19.6162 H   0  0  0  0  0  0
  -21.2029   -7.6154   23.9719 H   0  0  0  0  0  0
  -21.1460   -6.0526   25.9076 H   0  0  0  0  0  0
  -22.0608   -2.7611   23.2857 H   0  0  0  0  0  0
  -22.4134  -11.9892   22.4749 H   0  0  0  0  0  0
  -21.1151  -13.1277   22.2574 H   0  0  0  0  0  0
  -24.6670  -15.8425   20.5149 H   0  0  0  0  0  0
  -26.2858  -15.6268   20.0807 H   0  0  0  0  0  0
  -26.7154  -32.5516   23.1131 H   0  0  0  0  0  0
  -25.0069  -33.9746   25.0452 H   0  0  0  0  0  0
  -22.7031  -31.3090   21.4132 H   0  0  0  0  0  0
  -23.3762  -35.9625   23.3315 H   0  0  0  0  0  0
  -24.3590  -36.8905   22.2055 H   0  0  0  0  0  0
  -23.7240  -37.6498   23.6649 H   0  0  0  0  0  0
  -26.0775  -31.5802   20.6082 H   0  0  0  0  0  0
  -26.8327  -30.8564   21.9988 H   0  0  0  0  0  0
  -28.1108  -29.0309   21.1797 H   0  0  0  0  0  0
  -25.9716  -25.9708   18.9850 H   0  0  0  0  0  0
  -23.9684  -27.3194   19.0168 H   0  0  0  0  0  0
  -23.7318  -30.6071   19.4081 H   0  0  0  0  0  0
  -22.7457  -29.2507   19.8682 H   0  0  0  0  0  0
  -25.1291  -36.1969   25.0831 H   0  0  0  0  0  0
  -20.9977  -28.3229   24.1432 H   0  0  0  0  0  0
  -20.5711  -26.2259   23.3611 H   0  0  0  0  0  0
  -21.6640  -26.7435   22.1191 H   0  0  0  0  0  0
  -19.6910  -25.6290   21.1233 H   0  0  0  0  0  0
  -19.6681  -27.3216   20.6782 H   0  0  0  0  0  0
  -17.4202  -26.6687   21.4019 H   0  0  0  0  0  0
  -18.0288  -26.0030   22.9016 H   0  0  0  0  0  0
  -19.7931  -30.7250   24.2262 H   0  0  0  0  0  0
  -17.5008  -31.6255   24.5149 H   0  0  0  0  0  0
  -15.5344  -30.2953   23.7645 H   0  0  0  0  0  0
  -15.8681  -28.0795   22.7055 H   0  0  0  0  0  0
  -24.5908  -30.7052   25.7771 H   0  0  0  0  0  0
  -24.8905  -32.2857   26.4889 H   0  0  0  0  0  0
  -25.8058  -30.8870   27.0222 H   0  0  0  0  0  0
  -26.2871  -29.6787   24.1168 H   0  0  0  0  0  0
  -27.4081  -29.7262   25.4575 H   0  0  0  0  0  0
  -27.8710  -30.4333   23.9280 H   0  0  0  0  0  0
  -27.2660  -33.3635   26.2043 H   0  0  0  0  0  0
  -28.3844  -32.6897   25.0295 H   0  0  0  0  0  0
  -28.0730  -31.8474   26.5402 H   0  0  0  0  0  0
  -28.2608  -38.0099   24.7519 H   0  0  0  0  0  0
  -28.1083  -36.2626   24.6295 H   0  0  0  0  0  0
  -27.2303  -37.1450   25.8875 H   0  0  0  0  0  0
  -20.9354  -29.8745   21.6928 H   0  0  0  0  0  0
  -26.0199  -38.2871   24.1390 H   0  0  0  0  0  0
  -28.6856  -19.9164   21.4556 H   0  0  0  0  0  0
  -32.9369  -19.1392   23.7053 H   0  0  0  0  0  0
  -31.9792  -20.1621   22.6604 H   0  0  0  0  0  0
  -33.2694  -19.1770   21.9835 H   0  0  0  0  0  0
  -32.8319  -16.8181   23.7479 H   0  0  0  0  0  0
  -32.9856  -16.4837   22.0351 H   0  0  0  0  0  0
  -31.6172  -15.8646   22.9532 H   0  0  0  0  0  0
  -30.6829  -18.1559   24.5272 H   0  0  0  0  0  0
  -29.6051  -17.3429   23.4059 H   0  0  0  0  0  0
  -29.7705  -19.0884   23.3563 H   0  0  0  0  0  0
  -27.8973  -22.4432   20.5194 H   0  0  0  0  0  0
  -28.4749  -22.5869   18.9045 H   0  0  0  0  0  0
  -29.5488  -24.1649   21.3062 H   0  0  0  0  0  0
  -30.1927  -24.2973   19.6837 H   0  0  0  0  0  0
  -29.7180  -17.0040   19.5359 H   0  0  0  0  0  0
  -28.8919  -17.3552   21.0121 H   0  0  0  0  0  0
  -27.2833  -24.8120   20.4320 H   0  0  0  0  0  0
  -27.9537  -25.0181   18.8284 H   0  0  0  0  0  0
  -31.8166  -17.7343   20.3984 H   0  0  0  0  0  0
  -29.0813  -15.2243   21.5024 H   0  0  0  0  0  0
  1 25  1  0  0  0
  1 30  2  0  0  0
  1 85  1  0  0  0
  2  3  1  0  0  0
  2 25  1  0  0  0
  2 86  1  0  0  0
  2 87  1  0  0  0
  3  4  1  0  0  0
  3 88  1  0  0  0
  3 89  1  0  0  0
  4  5  1  0  0  0
  4 90  1  0  0  0
  4 91  1  0  0  0
  5  6  1  0  0  0
  5 26  1  0  0  0
  5 92  1  0  0  0
  6 25  1  0  0  0
  6 93  1  0  0  0
  6 94  1  0  0  0
  7  8  2  0  0  0
  7 26  1  0  0  0
  7 29  1  0  0  0
  8  9  1  0  0  0
  8 22  1  0  0  0
  9 10  1  0  0  0
  9 27  2  0  0  0
 10 11  2  0  0  0
 10 15  1  0  0  0
 11 12  1  0  0  0
 11 95  1  0  0  0
 12 13  2  0  0  0
 12 96  1  0  0  0
 13 14  1  0  0  0
 13 31  1  0  0  0
 14 15  2  0  0  0
 14 97  1  0  0  0
 15 98  1  0  0  0
 16 17  2  0  0  0
 16 21  1  0  0  0
 16 31  1  0  0  0
 17 18  1  0  0  0
 17 99  1  0  0  0
 18 19  2  0  0  0
 18100  1  0  0  0
 19 20  1  0  0  0
 19 24  1  0  0  0
 20 21  2  0  0  0
 20101  1  0  0  0
 21 23  1  0  0  0
 22 28  1  0  0  0
 22 32  2  0  0  0
 26 27  1  0  0  0
 28102  1  0  0  0
 28103  1  0  0  0
 29104  1  0  0  0
 29105  1  0  0  0
 33 34  1  0  0  0
 33 66  1  0  0  0
 33 70  2  0  0  0
 34 36  1  0  0  0
 34 59  1  0  0  0
 34106  1  0  0  0
 35 44  2  0  0  0
 35 45  1  0  0  0
 35 68  1  0  0  0
 36 56  1  0  0  0
 36107  1  0  0  0
 37 39  1  0  0  0
 37 47  1  0  0  0
 37 66  1  0  0  0
 37108  1  0  0  0
 38 43  2  0  0  0
 38 46  1  0  0  0
 38 47  1  0  0  0
 39 64  1  0  0  0
 39 67  2  0  0  0
 40 52  1  0  0  0
 40 53  2  0  0  0
 40 58  1  0  0  0
 41109  1  0  0  0
 41110  1  0  0  0
 41111  1  0  0  0
 41 48  1  0  0  0
 42 43  1  0  0  0
 42 66  1  0  0  0
 42112  1  0  0  0
 42113  1  0  0  0
 43 44  1  0  0  0
 44114  1  0  0  0
 45 46  2  0  0  0
 45115  1  0  0  0
 46116  1  0  0  0
 47117  1  0  0  0
 47118  1  0  0  0
 48 56  1  0  0  0
 48 65  1  0  0  0
 48119  1  0  0  0
 49 50  1  0  0  0
 49 53  1  0  0  0
 49 64  1  0  0  0
 49120  1  0  0  0
 50 51  1  0  0  0
 50121  1  0  0  0
 50122  1  0  0  0
 51 52  1  0  0  0
 51123  1  0  0  0
 51124  1  0  0  0
 52125  1  0  0  0
 52126  1  0  0  0
 53 54  1  0  0  0
 54 55  2  0  0  0
 54127  1  0  0  0
 55 57  1  0  0  0
 55128  1  0  0  0
 56 69  2  0  0  0
 57 58  2  0  0  0
 57129  1  0  0  0
 58130  1  0  0  0
 59 60  1  0  0  0
 59 61  1  0  0  0
 59 62  1  0  0  0
 60131  1  0  0  0
 60132  1  0  0  0
 60133  1  0  0  0
 61134  1  0  0  0
 61135  1  0  0  0
 61136  1  0  0  0
 62137  1  0  0  0
 62138  1  0  0  0
 62139  1  0  0  0
 63 65  1  0  0  0
 63140  1  0  0  0
 63141  1  0  0  0
 63142  1  0  0  0
 64143  1  0  0  0
 65144  1  0  0  0
 68 79  1  0  0  0
 71 72  2  0  0  0
 71 84  1  0  0  0
 71145  1  0  0  0
 72 76  1  0  0  0
 72 82  1  0  0  0
 73146  1  0  0  0
 73147  1  0  0  0
 73148  1  0  0  0
 73 81  1  0  0  0
 74 81  1  0  0  0
 74149  1  0  0  0
 74150  1  0  0  0
 74151  1  0  0  0
 75 81  1  0  0  0
 75152  1  0  0  0
 75153  1  0  0  0
 75154  1  0  0  0
 76 77  1  0  0  0
 76155  1  0  0  0
 76156  1  0  0  0
 77 79  1  0  0  0
 77157  1  0  0  0
 77158  1  0  0  0
 78 85  1  0  0  0
 78159  1  0  0  0
 78160  1  0  0  0
 78 80  1  0  0  0
 79161  1  0  0  0
 79162  1  0  0  0
 80 81  1  0  0  0
 80 84  1  0  0  0
 80163  1  0  0  0
 82 83  2  0  0  0
 83 84  1  0  0  0
 85164  1  0  0  0
M  ISO  4   1 100  68 101  79 101  85 100
M  END
> <chiral flag>
0

> <version>
0

> <s_m_source_file>
/data/baiqing/PycharmProjects/Reinvent-master-3.2/result/LINK_invent/BTK/process_docking_weight1_custom_sum_contain_oxygen_bond_distance_aromatic_linkinvent_7_9_3/rearranged_h_0084.sdf

> <i_m_source_file_index>
83

> <r_mmod_Potential_Energy-OPLS-2005>
-7.15034055709839

> <r_mmod_Stretch_Energy-OPLS-2005>
60.1229705810547

> <r_mmod_Bend_Energy-OPLS-2005>
140.558395385742

> <r_mmod_Torsional_Energy-OPLS-2005>
232.708892822266

> <r_mmod_Improper_Torsional_Energy-OPLS-2005>
6.57984352111816

> <r_mmod_Van_der_Waal_Energy-OPLS-2005>
129.193252563477

> <r_mmod_Electrostatic_Energy-OPLS-2005>
-381.165344238281

> <r_mmod_Solvation_Energy-OPLS-2005>
-221.635360717773

> <b_mmod_Minimization_Converged-OPLS-2005>
0

> <r_mmod_RMS_Derivative-OPLS-2005>
1.8036208152771

$$$$
83
                    3D
 Structure written by MMmdl.
172180  0  0  1  0            999 V2000
  -30.6748  -14.5555   20.4673 C   0  0  0  0  0  0
  -30.4248  -12.3259   19.4494 C   0  0  0  0  0  0
  -29.5027  -12.4876   18.2194 C   0  0  0  0  0  0
  -28.0217  -12.3588   18.6242 C   0  0  0  0  0  0
  -27.6594  -13.2164   19.8671 C   0  0  2  0  0  0
  -28.7069  -13.0545   20.9959 C   0  0  0  0  0  0
  -25.2572  -13.8179   20.5626 C   0  0  0  0  0  0
  -24.1851  -13.0458   20.9133 C   0  0  0  0  0  0
  -24.6410  -11.6909   20.8686 C   0  0  0  0  0  0
  -23.9073  -10.4288   21.0362 C   0  0  0  0  0  0
  -24.3635   -9.4222   21.9144 C   0  0  0  0  0  0
  -23.6299   -8.2272   22.0760 C   0  0  0  0  0  0
  -22.4294   -8.0275   21.3559 C   0  0  0  0  0  0
  -21.9897   -9.0241   20.4677 C   0  0  0  0  0  0
  -22.7222  -10.2110   20.3053 C   0  0  0  0  0  0
  -21.6884   -6.0702   22.5235 C   0  0  0  0  0  0
  -21.4041   -6.5616   23.8158 C   0  0  0  0  0  0
  -21.3673   -5.6791   24.9126 C   0  0  0  0  0  0
  -21.6060   -4.3043   24.7173 C   0  0  0  0  0  0
  -21.8840   -3.8117   23.4305 C   0  0  0  0  0  0
  -21.9215   -4.6930   22.3355 C   0  0  0  0  0  0
  -22.7850  -13.5212   21.1748 C   0  0  0  0  0  0
  -22.1677   -4.2121   21.0929 F   0  0  0  0  0  0
  -21.5635   -3.4523   25.7685 F   0  0  0  0  0  0
  -30.0364  -13.3481   20.4381 N   0  0  0  0  0  0
  -26.3045  -12.9378   20.3334 N   0  0  0  0  0  0
  -25.9370  -11.6530   20.5758 N   0  0  0  0  0  0
  -22.0553  -12.8259   22.0356 N   0  0  0  0  0  0
  -25.4253  -15.1916   20.3944 N   0  0  0  0  0  0
  -31.8354  -14.6970   20.0786 O   0  0  0  0  0  0
  -21.6707   -6.8846   21.4203 O   0  0  0  0  0  0
  -22.3518  -14.5496   20.6532 O   0  0  0  0  0  0
  -24.6276  -31.8676   23.2089 C   0  0  0  0  0  0
  -25.9080  -32.4859   23.8472 C   0  0  1  0  0  0
  -27.2180  -27.3652   20.0759 C   0  0  0  0  0  0
  -25.5889  -33.8667   24.2384 N   0  0  0  0  0  0
  -23.4264  -30.4954   21.5492 C   0  0  2  0  0  0
  -24.8667  -28.9671   20.1045 C   0  0  0  0  0  0
  -22.7528  -29.4677   22.4930 C   0  0  0  0  0  0
  -18.0300  -28.1407   22.8491 C   0  0  0  0  0  0
  -24.1476  -36.7321   23.2654 C   0  0  0  0  0  0
  -25.9657  -30.8105   21.3739 C   0  0  0  0  0  0
  -26.0361  -29.4436   20.7071 C   0  0  0  0  0  0
  -27.2210  -28.6591   20.6724 C   0  0  0  0  0  0
  -26.0148  -26.9237   19.4751 C   0  0  0  0  0  0
  -24.8561  -27.7167   19.4740 C   0  0  0  0  0  0
  -23.6414  -29.8479   20.1586 C   0  0  0  0  0  0
  -25.4100  -36.3152   24.0361 C   0  0  1  0  0  0
  -20.5908  -28.3723   23.1248 C   0  0  2  0  0  0
  -20.6774  -26.9446   22.5381 C   0  0  0  0  0  0
  -19.5729  -26.6405   21.5207 C   0  0  0  0  0  0
  -18.1926  -26.7951   22.1644 C   0  0  0  0  0  0
  -19.1555  -28.8873   23.2875 C   0  0  0  0  0  0
  -18.9469  -30.1464   23.8916 C   0  0  0  0  0  0
  -17.6466  -30.6584   24.0583 C   0  0  0  0  0  0
  -25.9022  -34.9505   23.5168 C   0  0  0  0  0  0
  -16.5362  -29.9086   23.6310 C   0  0  0  0  0  0
  -16.7295  -28.6512   23.0330 C   0  0  0  0  0  0
  -26.4444  -31.6638   25.0824 C   0  0  0  0  0  0
  -25.3681  -31.3713   26.1549 C   0  0  0  0  0  0
  -27.0254  -30.3080   24.6216 C   0  0  0  0  0  0
  -27.6095  -32.4312   25.7521 C   0  0  0  0  0  0
  -27.5585  -37.1825   24.8479 C   0  0  0  0  0  0
  -21.4246  -29.3098   22.3678 N   0  0  0  0  0  0
  -26.4301  -37.3824   23.9423 N   0  0  0  0  0  0
  -24.6935  -31.0696   22.1037 N   0  0  0  0  0  0
  -23.4235  -28.8211   23.3016 O   0  0  0  0  0  0
  -28.3662  -26.5740   20.0650 O   0  0  0  0  0  0
  -26.5609  -34.8943   22.4746 O   0  0  0  0  0  0
  -23.5416  -32.1471   23.7370 O   0  0  0  0  0  0
  -29.0095  -19.3292   20.2896 C   0  0  0  0  0  0
  -29.8452  -18.2259   20.3252 C   0  0  0  0  0  0
  -30.9576  -20.0391   21.0523 C   0  0  0  0  0  0
  -31.9648  -24.8779   23.8434 C   0  0  0  0  0  0
  -30.3487  -16.7149   18.3873 C   0  0  0  0  0  0
  -32.1137  -20.8924   21.4881 C   0  0  0  0  0  0
  -32.4924  -23.6078   23.1674 C   0  0  0  0  0  0
  -32.3057  -21.0276   23.0165 C   0  0  0  0  0  0
  -31.8054  -22.3285   23.6831 C   0  0  0  0  0  0
  -29.4532  -22.7670   19.6416 C   0  0  0  0  0  0
  -29.5351  -24.3247   19.8743 C   0  0  0  0  0  0
  -29.2047  -21.8450   20.8740 C   0  0  0  0  0  0
  -28.2020  -25.1246   19.9903 C   0  0  0  0  0  0
  -29.6651  -16.8137   19.7669 C   0  0  2  0  0  0
  -29.7064  -20.4330   20.7395 N   0  0  0  0  0  0
  -31.0252  -18.7128   20.8281 N   0  3  0  0  0  0
  -29.8652  -15.6288   20.6584 N   0  0  0  0  0  0
  -31.4716  -12.4025   19.1536 H   0  0  0  0  0  0
  -30.3073  -11.3286   19.8752 H   0  0  0  0  0  0
  -29.7440  -11.7413   17.4593 H   0  0  0  0  0  0
  -29.6721  -13.4591   17.7573 H   0  0  0  0  0  0
  -27.8285  -11.3059   18.8307 H   0  0  0  0  0  0
  -27.3739  -12.6214   17.7858 H   0  0  0  0  0  0
  -27.6802  -14.2543   19.5395 H   0  0  0  0  0  0
  -28.6905  -12.0372   21.3860 H   0  0  0  0  0  0
  -28.4773  -13.7061   21.8413 H   0  0  0  0  0  0
  -25.2803   -9.5705   22.4662 H   0  0  0  0  0  0
  -24.0034   -7.4702   22.7508 H   0  0  0  0  0  0
  -21.0819   -8.8725   19.9006 H   0  0  0  0  0  0
  -22.3665  -10.9620   19.6143 H   0  0  0  0  0  0
  -21.2063   -7.6131   23.9618 H   0  0  0  0  0  0
  -21.1488   -6.0533   25.9024 H   0  0  0  0  0  0
  -22.0625   -2.7571   23.2796 H   0  0  0  0  0  0
  -22.4251  -11.9972   22.4794 H   0  0  0  0  0  0
  -21.1149  -13.1223   22.2536 H   0  0  0  0  0  0
  -24.6392  -15.8289   20.4714 H   0  0  0  0  0  0
  -26.2539  -15.6205   20.0048 H   0  0  0  0  0  0
  -26.7218  -32.5528   23.1303 H   0  0  0  0  0  0
  -25.0015  -33.9859   25.0508 H   0  0  0  0  0  0
  -22.7244  -31.3184   21.4062 H   0  0  0  0  0  0
  -23.3766  -35.9623   23.3324 H   0  0  0  0  0  0
  -24.3617  -36.8916   22.2076 H   0  0  0  0  0  0
  -23.7157  -37.6512   23.6636 H   0  0  0  0  0  0
  -26.0923  -31.5838   20.6133 H   0  0  0  0  0  0
  -26.8521  -30.8595   21.9961 H   0  0  0  0  0  0
  -28.1344  -29.0351   21.1125 H   0  0  0  0  0  0
  -25.9273  -25.9753   18.9709 H   0  0  0  0  0  0
  -23.9608  -27.3647   18.9808 H   0  0  0  0  0  0
  -23.7729  -30.6304   19.4092 H   0  0  0  0  0  0
  -22.7646  -29.2810   19.8475 H   0  0  0  0  0  0
  -25.1251  -36.2102   25.0856 H   0  0  0  0  0  0
  -21.0005  -28.3280   24.1366 H   0  0  0  0  0  0
  -20.5634  -26.2368   23.3601 H   0  0  0  0  0  0
  -21.6636  -26.7440   22.1189 H   0  0  0  0  0  0
  -19.6863  -25.6309   21.1244 H   0  0  0  0  0  0
  -19.6604  -27.3219   20.6735 H   0  0  0  0  0  0
  -17.4173  -26.6712   21.4075 H   0  0  0  0  0  0
  -18.0317  -26.0100   22.9045 H   0  0  0  0  0  0
  -19.7942  -30.7290   24.2297 H   0  0  0  0  0  0
  -17.5006  -31.6268   24.5213 H   0  0  0  0  0  0
  -15.5357  -30.2996   23.7595 H   0  0  0  0  0  0
  -15.8713  -28.0845   22.6990 H   0  0  0  0  0  0
  -24.5928  -30.6984   25.7867 H   0  0  0  0  0  0
  -24.8744  -32.2797   26.5008 H   0  0  0  0  0  0
  -25.8009  -30.8907   27.0326 H   0  0  0  0  0  0
  -26.2793  -29.6911   24.1202 H   0  0  0  0  0  0
  -27.3930  -29.7294   25.4699 H   0  0  0  0  0  0
  -27.8682  -30.4438   23.9445 H   0  0  0  0  0  0
  -27.2866  -33.3681   26.2078 H   0  0  0  0  0  0
  -28.3855  -32.6756   25.0253 H   0  0  0  0  0  0
  -28.0800  -31.8419   26.5404 H   0  0  0  0  0  0
  -28.2619  -38.0112   24.7536 H   0  0  0  0  0  0
  -28.1043  -36.2646   24.6263 H   0  0  0  0  0  0
  -27.2313  -37.1432   25.8885 H   0  0  0  0  0  0
  -20.9432  -29.8925   21.6979 H   0  0  0  0  0  0
  -26.0216  -38.2921   24.1404 H   0  0  0  0  0  0
  -27.9903  -19.4144   19.9380 H   0  0  0  0  0  0
  -32.5547  -25.7519   23.5631 H   0  0  0  0  0  0
  -31.9987  -24.8018   24.9295 H   0  0  0  0  0  0
  -30.9309  -25.0719   23.5674 H   0  0  0  0  0  0
  -31.4291  -16.8369   18.4479 H   0  0  0  0  0  0
  -29.9809  -17.4900   17.7150 H   0  0  0  0  0  0
  -30.1478  -15.7610   17.9031 H   0  0  0  0  0  0
  -32.0320  -21.8430   20.9678 H   0  0  0  0  0  0
  -32.9947  -20.4004   21.0718 H   0  0  0  0  0  0
  -33.5644  -23.5366   23.3492 H   0  0  0  0  0  0
  -32.3725  -23.7187   22.0890 H   0  0  0  0  0  0
  -33.3753  -20.9631   23.2151 H   0  0  0  0  0  0
  -31.8762  -20.1597   23.5126 H   0  0  0  0  0  0
  -30.7249  -22.4141   23.5983 H   0  0  0  0  0  0
  -31.9995  -22.2577   24.7565 H   0  0  0  0  0  0
  -30.4133  -22.4613   19.2303 H   0  0  0  0  0  0
  -28.7295  -22.5318   18.8614 H   0  0  0  0  0  0
  -30.1776  -24.5430   20.7272 H   0  0  0  0  0  0
  -30.0634  -24.7439   19.0152 H   0  0  0  0  0  0
  -28.1397  -21.8043   21.1097 H   0  0  0  0  0  0
  -29.6834  -22.2825   21.7423 H   0  0  0  0  0  0
  -27.6536  -24.7820   20.8703 H   0  0  0  0  0  0
  -27.6195  -24.8415   19.1155 H   0  0  0  0  0  0
  -28.6008  -16.7430   19.5383 H   0  0  0  0  0  0
  -31.8643  -18.1550   20.9474 H   0  0  0  0  0  0
  -29.0281  -15.3931   21.1636 H   0  0  0  0  0  0
  1 25  1  0  0  0
  1 30  2  0  0  0
  1 87  1  0  0  0
  2  3  1  0  0  0
  2 25  1  0  0  0
  2 88  1  0  0  0
  2 89  1  0  0  0
  3  4  1  0  0  0
  3 90  1  0  0  0
  3 91  1  0  0  0
  4  5  1  0  0  0
  4 92  1  0  0  0
  4 93  1  0  0  0
  5  6  1  0  0  0
  5 26  1  0  0  0
  5 94  1  0  0  0
  6 25  1  0  0  0
  6 95  1  0  0  0
  6 96  1  0  0  0
  7  8  2  0  0  0
  7 26  1  0  0  0
  7 29  1  0  0  0
  8  9  1  0  0  0
  8 22  1  0  0  0
  9 10  1  0  0  0
  9 27  2  0  0  0
 10 11  2  0  0  0
 10 15  1  0  0  0
 11 12  1  0  0  0
 11 97  1  0  0  0
 12 13  2  0  0  0
 12 98  1  0  0  0
 13 14  1  0  0  0
 13 31  1  0  0  0
 14 15  2  0  0  0
 14 99  1  0  0  0
 15100  1  0  0  0
 16 17  2  0  0  0
 16 21  1  0  0  0
 16 31  1  0  0  0
 17 18  1  0  0  0
 17101  1  0  0  0
 18 19  2  0  0  0
 18102  1  0  0  0
 19 20  1  0  0  0
 19 24  1  0  0  0
 20 21  2  0  0  0
 20103  1  0  0  0
 21 23  1  0  0  0
 22 28  1  0  0  0
 22 32  2  0  0  0
 26 27  1  0  0  0
 28104  1  0  0  0
 28105  1  0  0  0
 29106  1  0  0  0
 29107  1  0  0  0
 33 34  1  0  0  0
 33 66  1  0  0  0
 33 70  2  0  0  0
 34 36  1  0  0  0
 34 59  1  0  0  0
 34108  1  0  0  0
 35 44  2  0  0  0
 35 45  1  0  0  0
 35 68  1  0  0  0
 36 56  1  0  0  0
 36109  1  0  0  0
 37 39  1  0  0  0
 37 47  1  0  0  0
 37 66  1  0  0  0
 37110  1  0  0  0
 38 43  2  0  0  0
 38 46  1  0  0  0
 38 47  1  0  0  0
 39 64  1  0  0  0
 39 67  2  0  0  0
 40 52  1  0  0  0
 40 53  2  0  0  0
 40 58  1  0  0  0
 41111  1  0  0  0
 41112  1  0  0  0
 41113  1  0  0  0
 41 48  1  0  0  0
 42 43  1  0  0  0
 42 66  1  0  0  0
 42114  1  0  0  0
 42115  1  0  0  0
 43 44  1  0  0  0
 44116  1  0  0  0
 45 46  2  0  0  0
 45117  1  0  0  0
 46118  1  0  0  0
 47119  1  0  0  0
 47120  1  0  0  0
 48 56  1  0  0  0
 48 65  1  0  0  0
 48121  1  0  0  0
 49 50  1  0  0  0
 49 53  1  0  0  0
 49 64  1  0  0  0
 49122  1  0  0  0
 50 51  1  0  0  0
 50123  1  0  0  0
 50124  1  0  0  0
 51 52  1  0  0  0
 51125  1  0  0  0
 51126  1  0  0  0
 52127  1  0  0  0
 52128  1  0  0  0
 53 54  1  0  0  0
 54 55  2  0  0  0
 54129  1  0  0  0
 55 57  1  0  0  0
 55130  1  0  0  0
 56 69  2  0  0  0
 57 58  2  0  0  0
 57131  1  0  0  0
 58132  1  0  0  0
 59 60  1  0  0  0
 59 61  1  0  0  0
 59 62  1  0  0  0
 60133  1  0  0  0
 60134  1  0  0  0
 60135  1  0  0  0
 61136  1  0  0  0
 61137  1  0  0  0
 61138  1  0  0  0
 62139  1  0  0  0
 62140  1  0  0  0
 62141  1  0  0  0
 63 65  1  0  0  0
 63142  1  0  0  0
 63143  1  0  0  0
 63144  1  0  0  0
 64145  1  0  0  0
 65146  1  0  0  0
 68 83  1  0  0  0
 71 72  2  0  0  0
 71 85  1  0  0  0
 71147  1  0  0  0
 72 84  1  0  0  0
 72 86  1  0  0  0
 73 76  1  0  0  0
 73 85  1  0  0  0
 73 86  2  0  0  0
 74 77  1  0  0  0
 74148  1  0  0  0
 74149  1  0  0  0
 74150  1  0  0  0
 75151  1  0  0  0
 75152  1  0  0  0
 75153  1  0  0  0
 75 84  1  0  0  0
 76 78  1  0  0  0
 76154  1  0  0  0
 76155  1  0  0  0
 77 79  1  0  0  0
 77156  1  0  0  0
 77157  1  0  0  0
 78 79  1  0  0  0
 78158  1  0  0  0
 78159  1  0  0  0
 79160  1  0  0  0
 79161  1  0  0  0
 80 81  1  0  0  0
 80 82  1  0  0  0
 80162  1  0  0  0
 80163  1  0  0  0
 81 83  1  0  0  0
 81164  1  0  0  0
 81165  1  0  0  0
 82 85  1  0  0  0
 82166  1  0  0  0
 82167  1  0  0  0
 83168  1  0  0  0
 83169  1  0  0  0
 84 87  1  0  0  0
 84170  1  0  0  0
 86171  1  0  0  0
 87172  1  0  0  0
M  CHG  1  86   1
M  ISO  4   1 100  68 101  83 101  87 100
M  END
> <chiral flag>
0

> <version>
0

> <s_m_source_file>
/data/baiqing/PycharmProjects/Reinvent-master-3.2/result/LINK_invent/BTK/process_docking_weight1_custom_sum_contain_oxygen_bond_distance_aromatic_linkinvent_7_9_3/rearranged_h_0084.sdf

> <i_m_source_file_index>
84

> <r_mmod_Potential_Energy-OPLS-2005>
-79.5438842773438

> <r_mmod_Stretch_Energy-OPLS-2005>
54.0497016906738

> <r_mmod_Bend_Energy-OPLS-2005>
130.814544677734

> <r_mmod_Torsional_Energy-OPLS-2005>
273.130554199219

> <r_mmod_Improper_Torsional_Energy-OPLS-2005>
11.1896057128906

> <r_mmod_Van_der_Waal_Energy-OPLS-2005>
115.052635192871

> <r_mmod_Electrostatic_Energy-OPLS-2005>
-283.511779785156

> <r_mmod_Solvation_Energy-OPLS-2005>
-410.017578125

> <b_mmod_Minimization_Converged-OPLS-2005>
0

> <r_mmod_RMS_Derivative-OPLS-2005>
5.94842100143433

$$$$
84
                    3D
 Structure written by MMmdl.
167175  0  0  1  0            999 V2000
  -30.7296  -14.4444   20.5941 C   0  0  0  0  0  0
  -30.4200  -12.3013   19.4136 C   0  0  0  0  0  0
  -29.4901  -12.5040   18.2011 C   0  0  0  0  0  0
  -28.0137  -12.3640   18.6189 C   0  0  0  0  0  0
  -27.6630  -13.2065   19.8742 C   0  0  2  0  0  0
  -28.7054  -12.9880   20.9933 C   0  0  0  0  0  0
  -25.2600  -13.8163   20.5686 C   0  0  0  0  0  0
  -24.1846  -13.0441   20.9169 C   0  0  0  0  0  0
  -24.6402  -11.6909   20.8738 C   0  0  0  0  0  0
  -23.9067  -10.4293   21.0405 C   0  0  0  0  0  0
  -24.3616   -9.4209   21.9187 C   0  0  0  0  0  0
  -23.6285   -8.2246   22.0760 C   0  0  0  0  0  0
  -22.4272   -8.0283   21.3544 C   0  0  0  0  0  0
  -21.9909   -9.0260   20.4648 C   0  0  0  0  0  0
  -22.7238  -10.2137   20.3052 C   0  0  0  0  0  0
  -21.6848   -6.0732   22.5274 C   0  0  0  0  0  0
  -21.4018   -6.5637   23.8212 C   0  0  0  0  0  0
  -21.3660   -5.6792   24.9179 C   0  0  0  0  0  0
  -21.6038   -4.3054   24.7226 C   0  0  0  0  0  0
  -21.8819   -3.8147   23.4348 C   0  0  0  0  0  0
  -21.9197   -4.6963   22.3402 C   0  0  0  0  0  0
  -22.7869  -13.5237   21.1834 C   0  0  0  0  0  0
  -22.1661   -4.2148   21.0979 F   0  0  0  0  0  0
  -21.5629   -3.4540   25.7741 F   0  0  0  0  0  0
  -30.0362  -13.2854   20.4367 N   0  0  0  0  0  0
  -26.3037  -12.9335   20.3368 N   0  0  0  0  0  0
  -25.9328  -11.6496   20.5767 N   0  0  0  0  0  0
  -22.0509  -12.8228   22.0392 N   0  0  0  0  0  0
  -25.4344  -15.1877   20.4109 N   0  0  0  0  0  0
  -31.8491  -14.6228   20.1148 O   0  0  0  0  0  0
  -21.6635   -6.8880   21.4237 O   0  0  0  0  0  0
  -22.3562  -14.5547   20.6689 O   0  0  0  0  0  0
  -24.6120  -31.8687   23.2100 C   0  0  0  0  0  0
  -25.9010  -32.4835   23.8400 C   0  0  1  0  0  0
  -27.2374  -27.4476   20.0960 C   0  0  0  0  0  0
  -25.5860  -33.8631   24.2317 N   0  0  0  0  0  0
  -23.4021  -30.4898   21.5503 C   0  0  2  0  0  0
  -24.8527  -28.9580   20.1120 C   0  0  0  0  0  0
  -22.7416  -29.4645   22.4994 C   0  0  0  0  0  0
  -18.0271  -28.1371   22.8500 C   0  0  0  0  0  0
  -24.1478  -36.7338   23.2641 C   0  0  0  0  0  0
  -25.9291  -30.8383   21.3609 C   0  0  0  0  0  0
  -26.0107  -29.4728   20.7106 C   0  0  0  0  0  0
  -27.2096  -28.7232   20.7021 C   0  0  0  0  0  0
  -26.0693  -26.9459   19.4871 C   0  0  0  0  0  0
  -24.8761  -27.6939   19.4956 C   0  0  0  0  0  0
  -23.6121  -29.8217   20.1649 C   0  0  0  0  0  0
  -25.4099  -36.3124   24.0332 C   0  0  1  0  0  0
  -20.5864  -28.3662   23.1333 C   0  0  2  0  0  0
  -20.6762  -26.9400   22.5430 C   0  0  0  0  0  0
  -19.5740  -26.6390   21.5221 C   0  0  0  0  0  0
  -18.1917  -26.7916   22.1629 C   0  0  0  0  0  0
  -19.1521  -28.8832   23.2909 C   0  0  0  0  0  0
  -18.9447  -30.1438   23.8923 C   0  0  0  0  0  0
  -17.6448  -30.6582   24.0566 C   0  0  0  0  0  0
  -25.9027  -34.9486   23.5132 C   0  0  0  0  0  0
  -16.5338  -29.9094   23.6313 C   0  0  0  0  0  0
  -16.7259  -28.6504   23.0347 C   0  0  0  0  0  0
  -26.4435  -31.6616   25.0722 C   0  0  0  0  0  0
  -25.3695  -31.3700   26.1466 C   0  0  0  0  0  0
  -27.0273  -30.3074   24.6077 C   0  0  0  0  0  0
  -27.6023  -32.4334   25.7480 C   0  0  0  0  0  0
  -27.5583  -37.1814   24.8455 C   0  0  0  0  0  0
  -21.4146  -29.3028   22.3743 N   0  0  0  0  0  0
  -26.4293  -37.3805   23.9401 N   0  0  0  0  0  0
  -24.6660  -31.0790   22.0997 N   0  0  0  0  0  0
  -23.4189  -28.8179   23.3027 O   0  0  0  0  0  0
  -28.3793  -26.6788   20.1130 O   0  0  0  0  0  0
  -26.5622  -34.8932   22.4713 O   0  0  0  0  0  0
  -23.5315  -32.1431   23.7499 O   0  0  0  0  0  0
  -28.5883  -20.9041   19.8697 C   0  0  0  0  0  0
  -29.1451  -19.6242   19.6677 C   0  0  0  0  0  0
  -30.1493  -19.1497   20.5610 C   0  0  0  0  0  0
  -29.0280  -21.6891   20.9443 C   0  0  0  0  0  0
  -30.5515  -20.0444   21.5989 C   0  0  0  0  0  0
  -28.6338  -18.8054   18.4927 C   0  0  0  0  0  0
  -32.8890  -20.6151   22.4291 C   0  0  0  0  0  0
  -32.2381  -17.8667   19.8938 C   0  0  0  0  0  0
  -28.3759  -23.0284   21.2784 C   0  0  0  0  0  0
  -31.6372  -19.7494   22.6289 C   0  0  0  0  0  0
  -28.8089  -24.2338   20.4107 C   0  0  0  0  0  0
  -30.5797  -16.7710   21.5648 C   0  0  0  0  0  0
  -28.2910  -25.5607   21.0100 C   0  0  0  0  0  0
  -30.7722  -17.7425   20.3563 C   0  0  1  0  0  0
  -29.9980  -21.2667   21.7755 N   0  0  0  0  0  0
  -30.0754  -15.4315   21.2258 N   0  0  0  0  0  0
  -31.4641  -12.3958   19.1090 H   0  0  0  0  0  0
  -30.3178  -11.2902   19.8097 H   0  0  0  0  0  0
  -29.7262  -11.7801   17.4200 H   0  0  0  0  0  0
  -29.6594  -13.4902   17.7651 H   0  0  0  0  0  0
  -27.8283  -11.3090   18.8215 H   0  0  0  0  0  0
  -27.3588  -12.6334   17.7900 H   0  0  0  0  0  0
  -27.7085  -14.2539   19.5758 H   0  0  0  0  0  0
  -28.6790  -11.9538   21.3401 H   0  0  0  0  0  0
  -28.4668  -13.5910   21.8701 H   0  0  0  0  0  0
  -25.2761   -9.5681   22.4767 H   0  0  0  0  0  0
  -23.9991   -7.4640   22.7484 H   0  0  0  0  0  0
  -21.0842   -8.8777   19.8957 H   0  0  0  0  0  0
  -22.3698  -10.9676   19.6164 H   0  0  0  0  0  0
  -21.2007   -7.6149   23.9714 H   0  0  0  0  0  0
  -21.1478   -6.0525   25.9078 H   0  0  0  0  0  0
  -22.0598   -2.7607   23.2850 H   0  0  0  0  0  0
  -22.4119  -11.9875   22.4758 H   0  0  0  0  0  0
  -21.1137  -13.1270   22.2609 H   0  0  0  0  0  0
  -24.6728  -15.8480   20.5217 H   0  0  0  0  0  0
  -26.2956  -15.6248   20.1072 H   0  0  0  0  0  0
  -26.7087  -32.5559   23.1184 H   0  0  0  0  0  0
  -24.9934  -33.9788   25.0415 H   0  0  0  0  0  0
  -22.6877  -31.3043   21.4099 H   0  0  0  0  0  0
  -23.3737  -35.9674   23.3297 H   0  0  0  0  0  0
  -24.3563  -36.8973   22.2055 H   0  0  0  0  0  0
  -23.7242  -37.6541   23.6672 H   0  0  0  0  0  0
  -26.0316  -31.6004   20.5869 H   0  0  0  0  0  0
  -26.8204  -30.9015   21.9731 H   0  0  0  0  0  0
  -28.1021  -29.1087   21.1749 H   0  0  0  0  0  0
  -26.0838  -25.9737   19.0141 H   0  0  0  0  0  0
  -23.9880  -27.2939   19.0253 H   0  0  0  0  0  0
  -23.7144  -30.5945   19.4024 H   0  0  0  0  0  0
  -22.7380  -29.2359   19.8737 H   0  0  0  0  0  0
  -25.1278  -36.1998   25.0827 H   0  0  0  0  0  0
  -20.9943  -28.3234   24.1458 H   0  0  0  0  0  0
  -20.5677  -26.2269   23.3613 H   0  0  0  0  0  0
  -21.6637  -26.7455   22.1215 H   0  0  0  0  0  0
  -19.6902  -25.6307   21.1234 H   0  0  0  0  0  0
  -19.6677  -27.3216   20.6757 H   0  0  0  0  0  0
  -17.4193  -26.6674   21.4024 H   0  0  0  0  0  0
  -18.0302  -26.0055   22.9016 H   0  0  0  0  0  0
  -19.7922  -30.7240   24.2324 H   0  0  0  0  0  0
  -17.5007  -31.6261   24.5174 H   0  0  0  0  0  0
  -15.5344  -30.3004   23.7625 H   0  0  0  0  0  0
  -15.8653  -28.0830   22.7056 H   0  0  0  0  0  0
  -24.5883  -30.7040   25.7793 H   0  0  0  0  0  0
  -24.8854  -32.2837   26.4924 H   0  0  0  0  0  0
  -25.8042  -30.8864   27.0228 H   0  0  0  0  0  0
  -26.2821  -29.6836   24.1129 H   0  0  0  0  0  0
  -27.4069  -29.7302   25.4520 H   0  0  0  0  0  0
  -27.8636  -30.4419   23.9208 H   0  0  0  0  0  0
  -27.2670  -33.3651   26.2051 H   0  0  0  0  0  0
  -28.3826  -32.6871   25.0294 H   0  0  0  0  0  0
  -28.0689  -31.8453   26.5389 H   0  0  0  0  0  0
  -28.2596  -38.0119   24.7542 H   0  0  0  0  0  0
  -28.1084  -36.2658   24.6242 H   0  0  0  0  0  0
  -27.2294  -37.1428   25.8854 H   0  0  0  0  0  0
  -20.9309  -29.8775   21.6984 H   0  0  0  0  0  0
  -26.0182  -38.2886   24.1417 H   0  0  0  0  0  0
  -27.8110  -21.2793   19.2184 H   0  0  0  0  0  0
  -27.8913  -19.3560   17.9139 H   0  0  0  0  0  0
  -28.1615  -17.8855   18.8384 H   0  0  0  0  0  0
  -29.4486  -18.5491   17.8143 H   0  0  0  0  0  0
  -33.6556  -20.3598   23.1603 H   0  0  0  0  0  0
  -32.6542  -21.6734   22.5478 H   0  0  0  0  0  0
  -33.3110  -20.4771   21.4336 H   0  0  0  0  0  0
  -32.3186  -18.5351   19.0356 H   0  0  0  0  0  0
  -32.6507  -16.9105   19.5830 H   0  0  0  0  0  0
  -32.8963  -18.2517   20.6697 H   0  0  0  0  0  0
  -28.5802  -23.2527   22.3267 H   0  0  0  0  0  0
  -27.2936  -22.9044   21.2158 H   0  0  0  0  0  0
  -31.9331  -18.7084   22.6352 H   0  0  0  0  0  0
  -31.2262  -19.9301   23.6229 H   0  0  0  0  0  0
  -28.4269  -24.0987   19.3994 H   0  0  0  0  0  0
  -29.8961  -24.2715   20.3336 H   0  0  0  0  0  0
  -29.8567  -17.1962   22.2622 H   0  0  0  0  0  0
  -31.5061  -16.6479   22.1275 H   0  0  0  0  0  0
  -28.8745  -25.8040   21.8994 H   0  0  0  0  0  0
  -27.2691  -25.4113   21.3656 H   0  0  0  0  0  0
  -30.2683  -17.2623   19.5223 H   0  0  0  0  0  0
  -29.1467  -15.2070   21.5502 H   0  0  0  0  0  0
  1 25  1  0  0  0
  1 30  2  0  0  0
  1 86  1  0  0  0
  2  3  1  0  0  0
  2 25  1  0  0  0
  2 87  1  0  0  0
  2 88  1  0  0  0
  3  4  1  0  0  0
  3 89  1  0  0  0
  3 90  1  0  0  0
  4  5  1  0  0  0
  4 91  1  0  0  0
  4 92  1  0  0  0
  5  6  1  0  0  0
  5 26  1  0  0  0
  5 93  1  0  0  0
  6 25  1  0  0  0
  6 94  1  0  0  0
  6 95  1  0  0  0
  7  8  2  0  0  0
  7 26  1  0  0  0
  7 29  1  0  0  0
  8  9  1  0  0  0
  8 22  1  0  0  0
  9 10  1  0  0  0
  9 27  2  0  0  0
 10 11  2  0  0  0
 10 15  1  0  0  0
 11 12  1  0  0  0
 11 96  1  0  0  0
 12 13  2  0  0  0
 12 97  1  0  0  0
 13 14  1  0  0  0
 13 31  1  0  0  0
 14 15  2  0  0  0
 14 98  1  0  0  0
 15 99  1  0  0  0
 16 17  2  0  0  0
 16 21  1  0  0  0
 16 31  1  0  0  0
 17 18  1  0  0  0
 17100  1  0  0  0
 18 19  2  0  0  0
 18101  1  0  0  0
 19 20  1  0  0  0
 19 24  1  0  0  0
 20 21  2  0  0  0
 20102  1  0  0  0
 21 23  1  0  0  0
 22 28  1  0  0  0
 22 32  2  0  0  0
 26 27  1  0  0  0
 28103  1  0  0  0
 28104  1  0  0  0
 29105  1  0  0  0
 29106  1  0  0  0
 33 34  1  0  0  0
 33 66  1  0  0  0
 33 70  2  0  0  0
 34 36  1  0  0  0
 34 59  1  0  0  0
 34107  1  0  0  0
 35 44  2  0  0  0
 35 45  1  0  0  0
 35 68  1  0  0  0
 36 56  1  0  0  0
 36108  1  0  0  0
 37 39  1  0  0  0
 37 47  1  0  0  0
 37 66  1  0  0  0
 37109  1  0  0  0
 38 43  2  0  0  0
 38 46  1  0  0  0
 38 47  1  0  0  0
 39 64  1  0  0  0
 39 67  2  0  0  0
 40 52  1  0  0  0
 40 53  2  0  0  0
 40 58  1  0  0  0
 41110  1  0  0  0
 41111  1  0  0  0
 41112  1  0  0  0
 41 48  1  0  0  0
 42 43  1  0  0  0
 42 66  1  0  0  0
 42113  1  0  0  0
 42114  1  0  0  0
 43 44  1  0  0  0
 44115  1  0  0  0
 45 46  2  0  0  0
 45116  1  0  0  0
 46117  1  0  0  0
 47118  1  0  0  0
 47119  1  0  0  0
 48 56  1  0  0  0
 48 65  1  0  0  0
 48120  1  0  0  0
 49 50  1  0  0  0
 49 53  1  0  0  0
 49 64  1  0  0  0
 49121  1  0  0  0
 50 51  1  0  0  0
 50122  1  0  0  0
 50123  1  0  0  0
 51 52  1  0  0  0
 51124  1  0  0  0
 51125  1  0  0  0
 52126  1  0  0  0
 52127  1  0  0  0
 53 54  1  0  0  0
 54 55  2  0  0  0
 54128  1  0  0  0
 55 57  1  0  0  0
 55129  1  0  0  0
 56 69  2  0  0  0
 57 58  2  0  0  0
 57130  1  0  0  0
 58131  1  0  0  0
 59 60  1  0  0  0
 59 61  1  0  0  0
 59 62  1  0  0  0
 60132  1  0  0  0
 60133  1  0  0  0
 60134  1  0  0  0
 61135  1  0  0  0
 61136  1  0  0  0
 61137  1  0  0  0
 62138  1  0  0  0
 62139  1  0  0  0
 62140  1  0  0  0
 63 65  1  0  0  0
 63141  1  0  0  0
 63142  1  0  0  0
 63143  1  0  0  0
 64144  1  0  0  0
 65145  1  0  0  0
 68 83  1  0  0  0
 71 72  2  0  0  0
 71 74  1  0  0  0
 71146  1  0  0  0
 72 73  1  0  0  0
 72 76  1  0  0  0
 73 75  2  0  0  0
 73 84  1  0  0  0
 74 79  1  0  0  0
 74 85  2  0  0  0
 75 80  1  0  0  0
 75 85  1  0  0  0
 76147  1  0  0  0
 76148  1  0  0  0
 76149  1  0  0  0
 77 80  1  0  0  0
 77150  1  0  0  0
 77151  1  0  0  0
 77152  1  0  0  0
 78153  1  0  0  0
 78154  1  0  0  0
 78155  1  0  0  0
 78 84  1  0  0  0
 79 81  1  0  0  0
 79156  1  0  0  0
 79157  1  0  0  0
 80158  1  0  0  0
 80159  1  0  0  0
 81 83  1  0  0  0
 81160  1  0  0  0
 81161  1  0  0  0
 82 84  1  0  0  0
 82 86  1  0  0  0
 82162  1  0  0  0
 82163  1  0  0  0
 83164  1  0  0  0
 83165  1  0  0  0
 84166  1  0  0  0
 86167  1  0  0  0
M  ISO  4   1 100  68 101  83 101  86 100
M  END
> <chiral flag>
0

> <version>
0

> <s_m_source_file>
/data/baiqing/PycharmProjects/Reinvent-master-3.2/result/LINK_invent/BTK/process_docking_weight1_custom_sum_contain_oxygen_bond_distance_aromatic_linkinvent_7_9_3/rearranged_h_0084.sdf

> <i_m_source_file_index>
85

> <r_mmod_Potential_Energy-OPLS-2005>
-284.654052734375

> <r_mmod_Stretch_Energy-OPLS-2005>
39.781867980957

> <r_mmod_Bend_Energy-OPLS-2005>
101.706192016602

> <r_mmod_Torsional_Energy-OPLS-2005>
230.338012695312

> <r_mmod_Improper_Torsional_Energy-OPLS-2005>
2.47586750984192

> <r_mmod_Van_der_Waal_Energy-OPLS-2005>
157.247650146484

> <r_mmod_Electrostatic_Energy-OPLS-2005>
-614.651489257812

> <r_mmod_Solvation_Energy-OPLS-2005>
-213.064346313477

> <b_mmod_Minimization_Converged-OPLS-2005>
0

> <r_mmod_RMS_Derivative-OPLS-2005>
1.65658497810364

$$$$
85
                    3D
 Structure written by MMmdl.
169177  0  0  1  0            999 V2000
  -30.6929  -14.4880   20.4681 C   0  0  0  0  0  0
  -30.4104  -12.2922   19.4302 C   0  0  0  0  0  0
  -29.4923  -12.4802   18.2053 C   0  0  0  0  0  0
  -28.0119  -12.3534   18.6169 C   0  0  0  0  0  0
  -27.6527  -13.2091   19.8623 C   0  0  2  0  0  0
  -28.6972  -13.0434   20.9890 C   0  0  0  0  0  0
  -25.2566  -13.8170   20.5700 C   0  0  0  0  0  0
  -24.1832  -13.0442   20.9216 C   0  0  0  0  0  0
  -24.6388  -11.6907   20.8742 C   0  0  0  0  0  0
  -23.9059  -10.4287   21.0394 C   0  0  0  0  0  0
  -24.3611   -9.4204   21.9177 C   0  0  0  0  0  0
  -23.6286   -8.2242   22.0758 C   0  0  0  0  0  0
  -22.4270   -8.0278   21.3545 C   0  0  0  0  0  0
  -21.9897   -9.0245   20.4646 C   0  0  0  0  0  0
  -22.7224  -10.2126   20.3050 C   0  0  0  0  0  0
  -21.6857   -6.0729   22.5266 C   0  0  0  0  0  0
  -21.4014   -6.5632   23.8199 C   0  0  0  0  0  0
  -21.3665   -5.6790   24.9165 C   0  0  0  0  0  0
  -21.6052   -4.3052   24.7213 C   0  0  0  0  0  0
  -21.8819   -3.8137   23.4336 C   0  0  0  0  0  0
  -21.9195   -4.6955   22.3391 C   0  0  0  0  0  0
  -22.7849  -13.5233   21.1864 C   0  0  0  0  0  0
  -22.1664   -4.2146   21.0968 F   0  0  0  0  0  0
  -21.5635   -3.4535   25.7724 F   0  0  0  0  0  0
  -30.0247  -13.3089   20.4190 N   0  0  0  0  0  0
  -26.2981  -12.9332   20.3322 N   0  0  0  0  0  0
  -25.9310  -11.6491   20.5753 N   0  0  0  0  0  0
  -22.0473  -12.8230   22.0409 N   0  0  0  0  0  0
  -25.4286  -15.1889   20.4044 N   0  0  0  0  0  0
  -31.8939  -14.5854   20.2063 O   0  0  0  0  0  0
  -21.6638   -6.8874   21.4235 O   0  0  0  0  0  0
  -22.3545  -14.5547   20.6723 O   0  0  0  0  0  0
  -24.6127  -31.8712   23.2132 C   0  0  0  0  0  0
  -25.9029  -32.4839   23.8420 C   0  0  1  0  0  0
  -27.2302  -27.4443   20.1018 C   0  0  0  0  0  0
  -25.5894  -33.8634   24.2353 N   0  0  0  0  0  0
  -23.4006  -30.4946   21.5521 C   0  0  2  0  0  0
  -24.8485  -28.9603   20.1218 C   0  0  0  0  0  0
  -22.7400  -29.4680   22.5000 C   0  0  0  0  0  0
  -18.0296  -28.1370   22.8503 C   0  0  0  0  0  0
  -24.1488  -36.7320   23.2639 C   0  0  0  0  0  0
  -25.9296  -30.8375   21.3688 C   0  0  0  0  0  0
  -26.0081  -29.4698   20.7223 C   0  0  0  0  0  0
  -27.2040  -28.7169   20.7151 C   0  0  0  0  0  0
  -26.0629  -26.9553   19.4836 C   0  0  0  0  0  0
  -24.8693  -27.6994   19.5006 C   0  0  0  0  0  0
  -23.6109  -29.8270   20.1674 C   0  0  0  0  0  0
  -25.4108  -36.3124   24.0344 C   0  0  1  0  0  0
  -20.5869  -28.3692   23.1332 C   0  0  2  0  0  0
  -20.6795  -26.9427   22.5429 C   0  0  0  0  0  0
  -19.5765  -26.6394   21.5243 C   0  0  0  0  0  0
  -18.1938  -26.7921   22.1642 C   0  0  0  0  0  0
  -19.1531  -28.8845   23.2909 C   0  0  0  0  0  0
  -18.9449  -30.1457   23.8910 C   0  0  0  0  0  0
  -17.6449  -30.6583   24.0570 C   0  0  0  0  0  0
  -25.9030  -34.9486   23.5142 C   0  0  0  0  0  0
  -16.5354  -29.9082   23.6307 C   0  0  0  0  0  0
  -16.7282  -28.6504   23.0335 C   0  0  0  0  0  0
  -26.4468  -31.6601   25.0734 C   0  0  0  0  0  0
  -25.3745  -31.3678   26.1485 C   0  0  0  0  0  0
  -27.0296  -30.3050   24.6083 C   0  0  0  0  0  0
  -27.6055  -32.4311   25.7484 C   0  0  0  0  0  0
  -27.5583  -37.1818   24.8466 C   0  0  0  0  0  0
  -21.4131  -29.3075   22.3745 N   0  0  0  0  0  0
  -26.4301  -37.3799   23.9404 N   0  0  0  0  0  0
  -24.6658  -31.0814   22.1023 N   0  0  0  0  0  0
  -23.4148  -28.8213   23.3053 O   0  0  0  0  0  0
  -28.3874  -26.7053   20.0370 O   0  0  0  0  0  0
  -26.5589  -34.8921   22.4698 O   0  0  0  0  0  0
  -23.5322  -32.1448   23.7525 O   0  0  0  0  0  0
  -28.2370  -18.2453   20.7232 C   0  0  0  0  0  0
  -29.3667  -18.0112   19.9705 C   0  0  0  0  0  0
  -28.4967  -19.9898   19.3738 C   0  0  0  0  0  0
  -28.3048  -21.2066   18.5283 C   0  0  0  0  0  0
  -30.4998  -16.6045   18.2638 C   0  0  0  0  0  0
  -26.9321  -21.4613   23.3037 C   0  0  0  0  0  0
  -27.5144  -24.4890   20.8733 C   0  0  0  0  0  0
  -27.8670  -23.2611   21.7482 C   0  0  0  0  0  0
  -26.1175  -21.5122   20.8510 C   0  0  0  0  0  0
  -26.3765  -19.9762   20.7385 C   0  0  0  0  0  0
  -28.5325  -25.6502   20.9967 C   0  0  0  0  0  0
  -30.3166  -16.8424   19.7880 C   0  0  2  0  0  0
  -26.6733  -22.3215   22.0577 C   0  0  1  0  0  0
  -27.7079  -19.4614   20.3273 N   0  0  0  0  0  0
  -29.5227  -19.1514   19.2261 N   0  3  0  0  0  0
  -29.9060  -15.5825   20.4359 N   0  0  0  0  0  0
  -31.4572  -12.3732   19.1321 H   0  0  0  0  0  0
  -30.2912  -11.2929   19.8508 H   0  0  0  0  0  0
  -29.7304  -11.7393   17.4414 H   0  0  0  0  0  0
  -29.6707  -13.4555   17.7484 H   0  0  0  0  0  0
  -27.8191  -11.3000   18.8233 H   0  0  0  0  0  0
  -27.3655  -12.6210   17.7786 H   0  0  0  0  0  0
  -27.6774  -14.2481   19.5357 H   0  0  0  0  0  0
  -28.6649  -12.0318   21.3954 H   0  0  0  0  0  0
  -28.4811  -13.7139   21.8225 H   0  0  0  0  0  0
  -25.2759   -9.5692   22.4747 H   0  0  0  0  0  0
  -23.9996   -7.4637   22.7479 H   0  0  0  0  0  0
  -21.0828   -8.8751   19.8955 H   0  0  0  0  0  0
  -22.3669  -10.9658   19.6158 H   0  0  0  0  0  0
  -21.2005   -7.6140   23.9697 H   0  0  0  0  0  0
  -21.1491   -6.0521   25.9072 H   0  0  0  0  0  0
  -22.0597   -2.7599   23.2826 H   0  0  0  0  0  0
  -22.4065  -11.9886   22.4802 H   0  0  0  0  0  0
  -21.1089  -13.1254   22.2600 H   0  0  0  0  0  0
  -24.6478  -15.8311   20.4831 H   0  0  0  0  0  0
  -26.2376  -15.6032   19.9627 H   0  0  0  0  0  0
  -26.7109  -32.5557   23.1195 H   0  0  0  0  0  0
  -25.0057  -33.9801   25.0506 H   0  0  0  0  0  0
  -22.6891  -31.3111   21.4112 H   0  0  0  0  0  0
  -23.3753  -35.9652   23.3321 H   0  0  0  0  0  0
  -24.3588  -36.8910   22.2051 H   0  0  0  0  0  0
  -23.7241  -37.6530   23.6638 H   0  0  0  0  0  0
  -26.0419  -31.6036   20.6001 H   0  0  0  0  0  0
  -26.8184  -30.8923   21.9857 H   0  0  0  0  0  0
  -28.1008  -29.1064   21.1753 H   0  0  0  0  0  0
  -26.0766  -25.9961   18.9872 H   0  0  0  0  0  0
  -23.9819  -27.3037   19.0257 H   0  0  0  0  0  0
  -23.7206  -30.6019   19.4068 H   0  0  0  0  0  0
  -22.7374  -29.2439   19.8703 H   0  0  0  0  0  0
  -25.1289  -36.2002   25.0841 H   0  0  0  0  0  0
  -20.9938  -28.3259   24.1468 H   0  0  0  0  0  0
  -20.5728  -26.2273   23.3606 H   0  0  0  0  0  0
  -21.6663  -26.7523   22.1169 H   0  0  0  0  0  0
  -19.6946  -25.6314   21.1263 H   0  0  0  0  0  0
  -19.6687  -27.3220   20.6789 H   0  0  0  0  0  0
  -17.4197  -26.6675   21.4054 H   0  0  0  0  0  0
  -18.0317  -26.0065   22.9034 H   0  0  0  0  0  0
  -19.7912  -30.7282   24.2291 H   0  0  0  0  0  0
  -17.4981  -31.6249   24.5190 H   0  0  0  0  0  0
  -15.5336  -30.2969   23.7610 H   0  0  0  0  0  0
  -15.8696  -28.0807   22.7046 H   0  0  0  0  0  0
  -24.5920  -30.7026   25.7806 H   0  0  0  0  0  0
  -24.8928  -32.2820   26.4966 H   0  0  0  0  0  0
  -25.8109  -30.8817   27.0221 H   0  0  0  0  0  0
  -26.2822  -29.6815   24.1155 H   0  0  0  0  0  0
  -27.4106  -29.7275   25.4519 H   0  0  0  0  0  0
  -27.8646  -30.4385   23.9199 H   0  0  0  0  0  0
  -27.2690  -33.3601   26.2096 H   0  0  0  0  0  0
  -28.3836  -32.6889   25.0286 H   0  0  0  0  0  0
  -28.0757  -31.8415   26.5363 H   0  0  0  0  0  0
  -28.2620  -38.0097   24.7513 H   0  0  0  0  0  0
  -28.1068  -36.2639   24.6307 H   0  0  0  0  0  0
  -27.2305  -37.1478   25.8869 H   0  0  0  0  0  0
  -20.9285  -29.8768   21.6949 H   0  0  0  0  0  0
  -26.0206  -38.2885   24.1385 H   0  0  0  0  0  0
  -27.7404  -17.6171   21.4490 H   0  0  0  0  0  0
  -28.5207  -22.0926   19.1197 H   0  0  0  0  0  0
  -27.2847  -21.2173   18.1457 H   0  0  0  0  0  0
  -28.9947  -21.1605   17.6862 H   0  0  0  0  0  0
  -30.9099  -17.4766   17.7554 H   0  0  0  0  0  0
  -29.5527  -16.3560   17.7840 H   0  0  0  0  0  0
  -31.1918  -15.7917   18.0448 H   0  0  0  0  0  0
  -27.2258  -22.0781   24.1555 H   0  0  0  0  0  0
  -27.7291  -20.7380   23.1358 H   0  0  0  0  0  0
  -26.0345  -20.9194   23.6021 H   0  0  0  0  0  0
  -26.5358  -24.8649   21.1726 H   0  0  0  0  0  0
  -27.4248  -24.1800   19.8330 H   0  0  0  0  0  0
  -28.2442  -23.6456   22.6963 H   0  0  0  0  0  0
  -28.6960  -22.7053   21.3127 H   0  0  0  0  0  0
  -25.0319  -21.5885   20.9327 H   0  0  0  0  0  0
  -26.3116  -22.0306   19.9197 H   0  0  0  0  0  0
  -25.6764  -19.5747   20.0059 H   0  0  0  0  0  0
  -26.1082  -19.4871   21.6755 H   0  0  0  0  0  0
  -29.5372  -25.2469   20.8682 H   0  0  0  0  0  0
  -28.5041  -26.0680   22.0042 H   0  0  0  0  0  0
  -31.2785  -17.1400   20.2120 H   0  0  0  0  0  0
  -25.8613  -22.9883   22.3554 H   0  0  0  0  0  0
  -30.2846  -19.3087   18.5769 H   0  0  0  0  0  0
  -28.9229  -15.4528   20.6085 H   0  0  0  0  0  0
  1 25  1  0  0  0
  1 30  2  0  0  0
  1 86  1  0  0  0
  2  3  1  0  0  0
  2 25  1  0  0  0
  2 87  1  0  0  0
  2 88  1  0  0  0
  3  4  1  0  0  0
  3 89  1  0  0  0
  3 90  1  0  0  0
  4  5  1  0  0  0
  4 91  1  0  0  0
  4 92  1  0  0  0
  5  6  1  0  0  0
  5 26  1  0  0  0
  5 93  1  0  0  0
  6 25  1  0  0  0
  6 94  1  0  0  0
  6 95  1  0  0  0
  7  8  2  0  0  0
  7 26  1  0  0  0
  7 29  1  0  0  0
  8  9  1  0  0  0
  8 22  1  0  0  0
  9 10  1  0  0  0
  9 27  2  0  0  0
 10 11  2  0  0  0
 10 15  1  0  0  0
 11 12  1  0  0  0
 11 96  1  0  0  0
 12 13  2  0  0  0
 12 97  1  0  0  0
 13 14  1  0  0  0
 13 31  1  0  0  0
 14 15  2  0  0  0
 14 98  1  0  0  0
 15 99  1  0  0  0
 16 17  2  0  0  0
 16 21  1  0  0  0
 16 31  1  0  0  0
 17 18  1  0  0  0
 17100  1  0  0  0
 18 19  2  0  0  0
 18101  1  0  0  0
 19 20  1  0  0  0
 19 24  1  0  0  0
 20 21  2  0  0  0
 20102  1  0  0  0
 21 23  1  0  0  0
 22 28  1  0  0  0
 22 32  2  0  0  0
 26 27  1  0  0  0
 28103  1  0  0  0
 28104  1  0  0  0
 29105  1  0  0  0
 29106  1  0  0  0
 33 34  1  0  0  0
 33 66  1  0  0  0
 33 70  2  0  0  0
 34 36  1  0  0  0
 34 59  1  0  0  0
 34107  1  0  0  0
 35 44  2  0  0  0
 35 45  1  0  0  0
 35 68  1  0  0  0
 36 56  1  0  0  0
 36108  1  0  0  0
 37 39  1  0  0  0
 37 47  1  0  0  0
 37 66  1  0  0  0
 37109  1  0  0  0
 38 43  2  0  0  0
 38 46  1  0  0  0
 38 47  1  0  0  0
 39 64  1  0  0  0
 39 67  2  0  0  0
 40 52  1  0  0  0
 40 53  2  0  0  0
 40 58  1  0  0  0
 41110  1  0  0  0
 41111  1  0  0  0
 41112  1  0  0  0
 41 48  1  0  0  0
 42 43  1  0  0  0
 42 66  1  0  0  0
 42113  1  0  0  0
 42114  1  0  0  0
 43 44  1  0  0  0
 44115  1  0  0  0
 45 46  2  0  0  0
 45116  1  0  0  0
 46117  1  0  0  0
 47118  1  0  0  0
 47119  1  0  0  0
 48 56  1  0  0  0
 48 65  1  0  0  0
 48120  1  0  0  0
 49 50  1  0  0  0
 49 53  1  0  0  0
 49 64  1  0  0  0
 49121  1  0  0  0
 50 51  1  0  0  0
 50122  1  0  0  0
 50123  1  0  0  0
 51 52  1  0  0  0
 51124  1  0  0  0
 51125  1  0  0  0
 52126  1  0  0  0
 52127  1  0  0  0
 53 54  1  0  0  0
 54 55  2  0  0  0
 54128  1  0  0  0
 55 57  1  0  0  0
 55129  1  0  0  0
 56 69  2  0  0  0
 57 58  2  0  0  0
 57130  1  0  0  0
 58131  1  0  0  0
 59 60  1  0  0  0
 59 61  1  0  0  0
 59 62  1  0  0  0
 60132  1  0  0  0
 60133  1  0  0  0
 60134  1  0  0  0
 61135  1  0  0  0
 61136  1  0  0  0
 61137  1  0  0  0
 62138  1  0  0  0
 62139  1  0  0  0
 62140  1  0  0  0
 63 65  1  0  0  0
 63141  1  0  0  0
 63142  1  0  0  0
 63143  1  0  0  0
 64144  1  0  0  0
 65145  1  0  0  0
 68 81  1  0  0  0
 71 72  2  0  0  0
 71 84  1  0  0  0
 71146  1  0  0  0
 72 82  1  0  0  0
 72 85  1  0  0  0
 73 74  1  0  0  0
 73 84  1  0  0  0
 73 85  2  0  0  0
 74147  1  0  0  0
 74148  1  0  0  0
 74149  1  0  0  0
 75150  1  0  0  0
 75151  1  0  0  0
 75152  1  0  0  0
 75 82  1  0  0  0
 76153  1  0  0  0
 76154  1  0  0  0
 76155  1  0  0  0
 76 83  1  0  0  0
 77 78  1  0  0  0
 77 81  1  0  0  0
 77156  1  0  0  0
 77157  1  0  0  0
 78 83  1  0  0  0
 78158  1  0  0  0
 78159  1  0  0  0
 79 80  1  0  0  0
 79 83  1  0  0  0
 79160  1  0  0  0
 79161  1  0  0  0
 80 84  1  0  0  0
 80162  1  0  0  0
 80163  1  0  0  0
 81164  1  0  0  0
 81165  1  0  0  0
 82 86  1  0  0  0
 82166  1  0  0  0
 83167  1  0  0  0
 85168  1  0  0  0
 86169  1  0  0  0
M  CHG  1  85   1
M  ISO  4   1 100  68 101  81 101  86 100
M  END
> <chiral flag>
0

> <version>
0

> <s_m_source_file>
/data/baiqing/PycharmProjects/Reinvent-master-3.2/result/LINK_invent/BTK/process_docking_weight1_custom_sum_contain_oxygen_bond_distance_aromatic_linkinvent_7_9_3/rearranged_h_0084.sdf

> <i_m_source_file_index>
86

> <r_mmod_Potential_Energy-OPLS-2005>
-124.703987121582

> <r_mmod_Stretch_Energy-OPLS-2005>
37.2655372619629

> <r_mmod_Bend_Energy-OPLS-2005>
121.249145507812

> <r_mmod_Torsional_Energy-OPLS-2005>
271.184875488281

> <r_mmod_Improper_Torsional_Energy-OPLS-2005>
13.4443607330322

> <r_mmod_Van_der_Waal_Energy-OPLS-2005>
125.362495422363

> <r_mmod_Electrostatic_Energy-OPLS-2005>
-298.072631835938

> <r_mmod_Solvation_Energy-OPLS-2005>
-415.027496337891

> <b_mmod_Minimization_Converged-OPLS-2005>
0

> <r_mmod_RMS_Derivative-OPLS-2005>
2.7299325466156

$$$$
86
                    3D
 Structure written by MMmdl.
163171  0  0  1  0            999 V2000
  -30.5111  -14.9710   20.4025 C   0  0  0  0  0  0
  -30.4372  -12.5969   19.5078 C   0  0  0  0  0  0
  -29.5232  -12.5323   18.2608 C   0  0  0  0  0  0
  -28.0548  -12.3162   18.6740 C   0  0  0  0  0  0
  -27.6267  -13.2466   19.8385 C   0  0  2  0  0  0
  -28.6660  -13.2752   20.9794 C   0  0  0  0  0  0
  -25.2442  -13.8208   20.5707 C   0  0  0  0  0  0
  -24.1765  -13.0441   20.9241 C   0  0  0  0  0  0
  -24.6367  -11.6923   20.8757 C   0  0  0  0  0  0
  -23.9055  -10.4296   21.0403 C   0  0  0  0  0  0
  -24.3603   -9.4208   21.9178 C   0  0  0  0  0  0
  -23.6289   -8.2238   22.0744 C   0  0  0  0  0  0
  -22.4278   -8.0267   21.3533 C   0  0  0  0  0  0
  -21.9904   -9.0238   20.4638 C   0  0  0  0  0  0
  -22.7228  -10.2122   20.3051 C   0  0  0  0  0  0
  -21.6855   -6.0722   22.5274 C   0  0  0  0  0  0
  -21.4018   -6.5631   23.8206 C   0  0  0  0  0  0
  -21.3667   -5.6786   24.9173 C   0  0  0  0  0  0
  -21.6041   -4.3046   24.7229 C   0  0  0  0  0  0
  -21.8822   -3.8135   23.4355 C   0  0  0  0  0  0
  -21.9195   -4.6948   22.3407 C   0  0  0  0  0  0
  -22.7787  -13.5209   21.1902 C   0  0  0  0  0  0
  -22.1662   -4.2132   21.0983 F   0  0  0  0  0  0
  -21.5631   -3.4537   25.7745 F   0  0  0  0  0  0
  -29.9402  -13.6966   20.3859 N   0  0  0  0  0  0
  -26.2851  -12.9432   20.3219 N   0  0  0  0  0  0
  -25.9291  -11.6565   20.5723 N   0  0  0  0  0  0
  -22.0438  -12.8182   22.0449 N   0  0  0  0  0  0
  -25.4102  -15.1935   20.4091 N   0  0  0  0  0  0
  -31.7090  -15.0474   20.1096 O   0  0  0  0  0  0
  -21.6643   -6.8863   21.4237 O   0  0  0  0  0  0
  -22.3472  -14.5522   20.6758 O   0  0  0  0  0  0
  -24.6456  -31.8432   23.1843 C   0  0  0  0  0  0
  -25.9202  -32.4710   23.8242 C   0  0  1  0  0  0
  -27.2127  -27.1000   20.1550 C   0  0  0  0  0  0
  -25.5934  -33.8513   24.2170 N   0  0  0  0  0  0
  -23.4523  -30.4620   21.5295 C   0  0  2  0  0  0
  -24.9014  -28.8808   20.1077 C   0  0  0  0  0  0
  -22.7592  -29.4561   22.4834 C   0  0  0  0  0  0
  -18.0321  -28.1420   22.8523 C   0  0  0  0  0  0
  -24.1477  -36.7235   23.2642 C   0  0  0  0  0  0
  -26.0101  -30.7043   21.3898 C   0  0  0  0  0  0
  -26.0795  -29.3112   20.7321 C   0  0  0  0  0  0
  -27.2347  -28.4372   20.7368 C   0  0  0  0  0  0
  -26.0116  -26.7848   19.4835 C   0  0  0  0  0  0
  -24.8813  -27.6332   19.4675 C   0  0  0  0  0  0
  -23.6809  -29.7879   20.1502 C   0  0  0  0  0  0
  -25.4123  -36.3046   24.0322 C   0  0  1  0  0  0
  -20.5950  -28.3753   23.1242 C   0  0  2  0  0  0
  -20.6800  -26.9455   22.5425 C   0  0  0  0  0  0
  -19.5748  -26.6414   21.5249 C   0  0  0  0  0  0
  -18.1937  -26.7966   22.1664 C   0  0  0  0  0  0
  -19.1588  -28.8906   23.2878 C   0  0  0  0  0  0
  -18.9490  -30.1499   23.8920 C   0  0  0  0  0  0
  -17.6481  -30.6615   24.0582 C   0  0  0  0  0  0
  -25.9083  -34.9430   23.5071 C   0  0  0  0  0  0
  -16.5375  -29.9117   23.6337 C   0  0  0  0  0  0
  -16.7305  -28.6525   23.0392 C   0  0  0  0  0  0
  -26.4511  -31.6582   25.0691 C   0  0  0  0  0  0
  -25.3663  -31.3783   26.1363 C   0  0  0  0  0  0
  -27.0373  -30.2971   24.6288 C   0  0  0  0  0  0
  -27.6044  -32.4347   25.7475 C   0  0  0  0  0  0
  -27.5571  -37.1787   24.8472 C   0  0  0  0  0  0
  -21.4280  -29.3070   22.3581 N   0  0  0  0  0  0
  -26.4283  -37.3765   23.9415 N   0  0  0  0  0  0
  -24.7226  -31.0266   22.0888 N   0  0  0  0  0  0
  -23.4223  -28.8115   23.3007 O   0  0  0  0  0  0
  -28.2500  -26.0891   20.2492 O   0  0  0  0  0  0
  -26.5678  -34.8933   22.4652 O   0  0  0  0  0  0
  -23.5571  -32.1317   23.7051 O   0  0  0  0  0  0
  -28.2428  -20.4996   22.2328 C   0  0  0  0  0  0
  -28.2272  -19.3493   22.9729 C   0  0  0  0  0  0
  -29.1930  -18.8653   20.9925 C   0  0  0  0  0  0
  -27.1275  -20.2972   25.0158 C   0  0  0  0  0  0
  -28.6701  -18.2915   25.2127 C   0  0  0  0  0  0
  -29.4059  -17.8134   18.6393 C   0  0  0  0  0  0
  -28.8708  -23.1954   20.5551 C   0  0  0  0  0  0
  -28.8370  -21.5508   20.0339 C   0  0  0  0  0  0
  -28.0210  -24.5550   19.9648 C   0  0  0  0  0  0
  -27.6532  -19.0297   24.3249 C   0  0  0  0  0  0
  -29.8667  -17.6750   20.0952 C   0  0  2  0  0  0
  -28.8467  -20.2726   21.0143 N   0  0  0  0  0  0
  -28.8334  -18.4101   22.1954 N   0  3  0  0  0  0
  -29.6999  -16.1415   20.5262 N   0  0  0  0  0  0
  -31.4724  -12.7540   19.2023 H   0  0  0  0  0  0
  -30.4275  -11.6453   20.0410 H   0  0  0  0  0  0
  -29.8460  -11.7317   17.5936 H   0  0  0  0  0  0
  -29.6100  -13.4590   17.6936 H   0  0  0  0  0  0
  -27.9491  -11.2754   18.9772 H   0  0  0  0  0  0
  -27.3944  -12.4476   17.8160 H   0  0  0  0  0  0
  -27.5903  -14.2488   19.4098 H   0  0  0  0  0  0
  -28.7540  -12.2961   21.4518 H   0  0  0  0  0  0
  -28.3587  -13.9679   21.7642 H   0  0  0  0  0  0
  -25.2742   -9.5695   22.4757 H   0  0  0  0  0  0
  -24.0003   -7.4631   22.7457 H   0  0  0  0  0  0
  -21.0836   -8.8750   19.8936 H   0  0  0  0  0  0
  -22.3675  -10.9656   19.6160 H   0  0  0  0  0  0
  -21.2011   -7.6140   23.9708 H   0  0  0  0  0  0
  -21.1487   -6.0517   25.9073 H   0  0  0  0  0  0
  -22.0594   -2.7598   23.2861 H   0  0  0  0  0  0
  -22.4063  -11.9849   22.4848 H   0  0  0  0  0  0
  -21.1035  -13.1159   22.2647 H   0  0  0  0  0  0
  -24.6285  -15.8340   20.4992 H   0  0  0  0  0  0
  -26.2255  -15.6227   19.9936 H   0  0  0  0  0  0
  -26.7267  -32.5324   23.0970 H   0  0  0  0  0  0
  -25.0034  -33.9599   25.0289 H   0  0  0  0  0  0
  -22.7566  -31.2891   21.3746 H   0  0  0  0  0  0
  -23.3765  -35.9541   23.3314 H   0  0  0  0  0  0
  -24.3534  -36.8856   22.2047 H   0  0  0  0  0  0
  -23.7220  -37.6429   23.6665 H   0  0  0  0  0  0
  -26.1727  -31.4584   20.6182 H   0  0  0  0  0  0
  -26.8772  -30.7571   22.0377 H   0  0  0  0  0  0
  -28.1299  -28.7601   21.2491 H   0  0  0  0  0  0
  -25.9101  -25.8343   18.9842 H   0  0  0  0  0  0
  -23.9825  -27.3023   18.9651 H   0  0  0  0  0  0
  -23.8192  -30.5587   19.3909 H   0  0  0  0  0  0
  -22.7950  -29.2289   19.8403 H   0  0  0  0  0  0
  -25.1329  -36.1874   25.0823 H   0  0  0  0  0  0
  -21.0070  -28.3365   24.1349 H   0  0  0  0  0  0
  -20.5721  -26.2380   23.3659 H   0  0  0  0  0  0
  -21.6653  -26.7471   22.1198 H   0  0  0  0  0  0
  -19.6880  -25.6319   21.1283 H   0  0  0  0  0  0
  -19.6650  -27.3233   20.6779 H   0  0  0  0  0  0
  -17.4211  -26.6775   21.4050 H   0  0  0  0  0  0
  -18.0282  -26.0104   22.9047 H   0  0  0  0  0  0
  -19.7957  -30.7326   24.2295 H   0  0  0  0  0  0
  -17.5024  -31.6291   24.5183 H   0  0  0  0  0  0
  -15.5373  -30.3022   23.7628 H   0  0  0  0  0  0
  -15.8711  -28.0817   22.7128 H   0  0  0  0  0  0
  -24.5862  -30.7125   25.7648 H   0  0  0  0  0  0
  -24.8812  -32.2971   26.4668 H   0  0  0  0  0  0
  -25.7911  -30.9014   27.0206 H   0  0  0  0  0  0
  -26.2982  -29.6696   24.1294 H   0  0  0  0  0  0
  -27.3966  -29.7285   25.4871 H   0  0  0  0  0  0
  -27.8908  -30.4191   23.9618 H   0  0  0  0  0  0
  -27.2647  -33.3686   26.1962 H   0  0  0  0  0  0
  -28.3901  -32.6849   25.0334 H   0  0  0  0  0  0
  -28.0649  -31.8515   26.5457 H   0  0  0  0  0  0
  -28.2634  -38.0045   24.7545 H   0  0  0  0  0  0
  -28.1047  -36.2604   24.6317 H   0  0  0  0  0  0
  -27.2283  -37.1450   25.8869 H   0  0  0  0  0  0
  -20.9480  -29.8752   21.6740 H   0  0  0  0  0  0
  -26.0157  -38.2838   24.1415 H   0  0  0  0  0  0
  -27.8298  -21.4609   22.4958 H   0  0  0  0  0  0
  -26.3592  -20.7825   24.4127 H   0  0  0  0  0  0
  -27.9289  -21.0169   25.1840 H   0  0  0  0  0  0
  -26.6809  -20.0625   25.9821 H   0  0  0  0  0  0
  -28.9771  -17.3413   24.7727 H   0  0  0  0  0  0
  -28.2431  -18.0627   26.1909 H   0  0  0  0  0  0
  -29.5661  -18.8898   25.3753 H   0  0  0  0  0  0
  -29.6436  -18.8009   18.2437 H   0  0  0  0  0  0
  -28.3274  -17.6760   18.5540 H   0  0  0  0  0  0
  -29.8846  -17.0746   17.9963 H   0  0  0  0  0  0
  -29.9224  -23.4722   20.4751 H   0  0  0  0  0  0
  -28.7015  -23.2076   21.6287 H   0  0  0  0  0  0
  -29.6572  -21.3975   19.3325 H   0  0  0  0  0  0
  -27.9355  -21.4246   19.4342 H   0  0  0  0  0  0
  -28.0284  -24.4692   18.8772 H   0  0  0  0  0  0
  -26.9882  -24.3594   20.2521 H   0  0  0  0  0  0
  -26.8041  -18.3632   24.1650 H   0  0  0  0  0  0
  -30.9347  -17.8925   20.1355 H   0  0  0  0  0  0
  -28.9896  -17.4518   22.4824 H   0  0  0  0  0  0
  -28.7453  -15.8998   20.7406 H   0  0  0  0  0  0
  1 25  1  0  0  0
  1 30  2  0  0  0
  1 84  1  0  0  0
  2  3  1  0  0  0
  2 25  1  0  0  0
  2 85  1  0  0  0
  2 86  1  0  0  0
  3  4  1  0  0  0
  3 87  1  0  0  0
  3 88  1  0  0  0
  4  5  1  0  0  0
  4 89  1  0  0  0
  4 90  1  0  0  0
  5  6  1  0  0  0
  5 26  1  0  0  0
  5 91  1  0  0  0
  6 25  1  0  0  0
  6 92  1  0  0  0
  6 93  1  0  0  0
  7  8  2  0  0  0
  7 26  1  0  0  0
  7 29  1  0  0  0
  8  9  1  0  0  0
  8 22  1  0  0  0
  9 10  1  0  0  0
  9 27  2  0  0  0
 10 11  2  0  0  0
 10 15  1  0  0  0
 11 12  1  0  0  0
 11 94  1  0  0  0
 12 13  2  0  0  0
 12 95  1  0  0  0
 13 14  1  0  0  0
 13 31  1  0  0  0
 14 15  2  0  0  0
 14 96  1  0  0  0
 15 97  1  0  0  0
 16 17  2  0  0  0
 16 21  1  0  0  0
 16 31  1  0  0  0
 17 18  1  0  0  0
 17 98  1  0  0  0
 18 19  2  0  0  0
 18 99  1  0  0  0
 19 20  1  0  0  0
 19 24  1  0  0  0
 20 21  2  0  0  0
 20100  1  0  0  0
 21 23  1  0  0  0
 22 28  1  0  0  0
 22 32  2  0  0  0
 26 27  1  0  0  0
 28101  1  0  0  0
 28102  1  0  0  0
 29103  1  0  0  0
 29104  1  0  0  0
 33 34  1  0  0  0
 33 66  1  0  0  0
 33 70  2  0  0  0
 34 36  1  0  0  0
 34 59  1  0  0  0
 34105  1  0  0  0
 35 44  2  0  0  0
 35 45  1  0  0  0
 35 68  1  0  0  0
 36 56  1  0  0  0
 36106  1  0  0  0
 37 39  1  0  0  0
 37 47  1  0  0  0
 37 66  1  0  0  0
 37107  1  0  0  0
 38 43  2  0  0  0
 38 46  1  0  0  0
 38 47  1  0  0  0
 39 64  1  0  0  0
 39 67  2  0  0  0
 40 52  1  0  0  0
 40 53  2  0  0  0
 40 58  1  0  0  0
 41108  1  0  0  0
 41109  1  0  0  0
 41110  1  0  0  0
 41 48  1  0  0  0
 42 43  1  0  0  0
 42 66  1  0  0  0
 42111  1  0  0  0
 42112  1  0  0  0
 43 44  1  0  0  0
 44113  1  0  0  0
 45 46  2  0  0  0
 45114  1  0  0  0
 46115  1  0  0  0
 47116  1  0  0  0
 47117  1  0  0  0
 48 56  1  0  0  0
 48 65  1  0  0  0
 48118  1  0  0  0
 49 50  1  0  0  0
 49 53  1  0  0  0
 49 64  1  0  0  0
 49119  1  0  0  0
 50 51  1  0  0  0
 50120  1  0  0  0
 50121  1  0  0  0
 51 52  1  0  0  0
 51122  1  0  0  0
 51123  1  0  0  0
 52124  1  0  0  0
 52125  1  0  0  0
 53 54  1  0  0  0
 54 55  2  0  0  0
 54126  1  0  0  0
 55 57  1  0  0  0
 55127  1  0  0  0
 56 69  2  0  0  0
 57 58  2  0  0  0
 57128  1  0  0  0
 58129  1  0  0  0
 59 60  1  0  0  0
 59 61  1  0  0  0
 59 62  1  0  0  0
 60130  1  0  0  0
 60131  1  0  0  0
 60132  1  0  0  0
 61133  1  0  0  0
 61134  1  0  0  0
 61135  1  0  0  0
 62136  1  0  0  0
 62137  1  0  0  0
 62138  1  0  0  0
 63 65  1  0  0  0
 63139  1  0  0  0
 63140  1  0  0  0
 63141  1  0  0  0
 64142  1  0  0  0
 65143  1  0  0  0
 68 79  1  0  0  0
 71 72  2  0  0  0
 71 82  1  0  0  0
 71144  1  0  0  0
 72 80  1  0  0  0
 72 83  1  0  0  0
 73 81  1  0  0  0
 73 82  1  0  0  0
 73 83  2  0  0  0
 74145  1  0  0  0
 74146  1  0  0  0
 74147  1  0  0  0
 74 80  1  0  0  0
 75 80  1  0  0  0
 75148  1  0  0  0
 75149  1  0  0  0
 75150  1  0  0  0
 76151  1  0  0  0
 76152  1  0  0  0
 76153  1  0  0  0
 76 81  1  0  0  0
 77 78  1  0  0  0
 77 79  1  0  0  0
 77154  1  0  0  0
 77155  1  0  0  0
 78 82  1  0  0  0
 78156  1  0  0  0
 78157  1  0  0  0
 79158  1  0  0  0
 79159  1  0  0  0
 80160  1  0  0  0
 81 84  1  0  0  0
 81161  1  0  0  0
 83162  1  0  0  0
 84163  1  0  0  0
M  CHG  1  83   1
M  ISO  4   1 100  68 101  79 101  84 100
M  END
> <chiral flag>
0

> <version>
0

> <s_m_source_file>
/data/baiqing/PycharmProjects/Reinvent-master-3.2/result/LINK_invent/BTK/process_docking_weight1_custom_sum_contain_oxygen_bond_distance_aromatic_linkinvent_7_9_3/rearranged_h_0084.sdf

> <i_m_source_file_index>
87

> <r_mmod_Potential_Energy-OPLS-2005>
514.841430664062

> <r_mmod_Stretch_Energy-OPLS-2005>
319.494415283203

> <r_mmod_Bend_Energy-OPLS-2005>
328.510070800781

> <r_mmod_Torsional_Energy-OPLS-2005>
232.485046386719

> <r_mmod_Improper_Torsional_Energy-OPLS-2005>
6.62948560714722

> <r_mmod_Van_der_Waal_Energy-OPLS-2005>
107.578437805176

> <r_mmod_Electrostatic_Energy-OPLS-2005>
-273.085021972656

> <r_mmod_Solvation_Energy-OPLS-2005>
-425.757476806641

> <b_mmod_Minimization_Converged-OPLS-2005>
0

> <r_mmod_RMS_Derivative-OPLS-2005>
2.35867953300476

$$$$
87
                    3D
 Structure written by MMmdl.
164171  0  0  1  0            999 V2000
  -30.6532  -14.5147   20.5611 C   0  0  0  0  0  0
  -30.4385  -12.3326   19.4180 C   0  0  0  0  0  0
  -29.5019  -12.5164   18.2043 C   0  0  0  0  0  0
  -28.0211  -12.3728   18.6116 C   0  0  0  0  0  0
  -27.6638  -13.2053   19.8715 C   0  0  2  0  0  0
  -28.7083  -12.9756   20.9885 C   0  0  0  0  0  0
  -25.2624  -13.8151   20.5660 C   0  0  0  0  0  0
  -24.1872  -13.0434   20.9160 C   0  0  0  0  0  0
  -24.6422  -11.6896   20.8720 C   0  0  0  0  0  0
  -23.9081  -10.4287   21.0400 C   0  0  0  0  0  0
  -24.3635   -9.4202   21.9178 C   0  0  0  0  0  0
  -23.6300   -8.2243   22.0752 C   0  0  0  0  0  0
  -22.4282   -8.0278   21.3544 C   0  0  0  0  0  0
  -21.9917   -9.0256   20.4651 C   0  0  0  0  0  0
  -22.7254  -10.2130   20.3052 C   0  0  0  0  0  0
  -21.6852   -6.0731   22.5266 C   0  0  0  0  0  0
  -21.4020   -6.5638   23.8204 C   0  0  0  0  0  0
  -21.3665   -5.6791   24.9163 C   0  0  0  0  0  0
  -21.6040   -4.3053   24.7214 C   0  0  0  0  0  0
  -21.8832   -3.8143   23.4338 C   0  0  0  0  0  0
  -21.9204   -4.6956   22.3392 C   0  0  0  0  0  0
  -22.7892  -13.5241   21.1806 C   0  0  0  0  0  0
  -22.1669   -4.2146   21.0964 F   0  0  0  0  0  0
  -21.5624   -3.4534   25.7727 F   0  0  0  0  0  0
  -30.0340  -13.3080   20.4408 N   0  0  0  0  0  0
  -26.3049  -12.9317   20.3337 N   0  0  0  0  0  0
  -25.9351  -11.6480   20.5756 N   0  0  0  0  0  0
  -22.0530  -12.8249   22.0372 N   0  0  0  0  0  0
  -25.4352  -15.1874   20.4067 N   0  0  0  0  0  0
  -31.7868  -14.7375   20.1240 O   0  0  0  0  0  0
  -21.6646   -6.8873   21.4231 O   0  0  0  0  0  0
  -22.3577  -14.5533   20.6628 O   0  0  0  0  0  0
  -24.6176  -31.8677   23.2090 C   0  0  0  0  0  0
  -25.9066  -32.4830   23.8383 C   0  0  1  0  0  0
  -27.2297  -27.4020   20.1057 C   0  0  0  0  0  0
  -25.5929  -33.8623   24.2324 N   0  0  0  0  0  0
  -23.4062  -30.4913   21.5511 C   0  0  2  0  0  0
  -24.8514  -28.9534   20.1169 C   0  0  0  0  0  0
  -22.7420  -29.4657   22.4990 C   0  0  0  0  0  0
  -18.0269  -28.1385   22.8495 C   0  0  0  0  0  0
  -24.1479  -36.7296   23.2639 C   0  0  0  0  0  0
  -25.9386  -30.8230   21.3643 C   0  0  0  0  0  0
  -26.0147  -29.4538   20.7144 C   0  0  0  0  0  0
  -27.2098  -28.6906   20.6994 C   0  0  0  0  0  0
  -26.0438  -26.9239   19.5092 C   0  0  0  0  0  0
  -24.8632  -27.6877   19.5080 C   0  0  0  0  0  0
  -23.6156  -29.8255   20.1655 C   0  0  0  0  0  0
  -25.4105  -36.3116   24.0346 C   0  0  1  0  0  0
  -20.5861  -28.3668   23.1324 C   0  0  2  0  0  0
  -20.6757  -26.9408   22.5419 C   0  0  0  0  0  0
  -19.5728  -26.6392   21.5220 C   0  0  0  0  0  0
  -18.1906  -26.7925   22.1636 C   0  0  0  0  0  0
  -19.1518  -28.8843   23.2904 C   0  0  0  0  0  0
  -18.9455  -30.1456   23.8902 C   0  0  0  0  0  0
  -17.6455  -30.6595   24.0581 C   0  0  0  0  0  0
  -25.9045  -34.9489   23.5130 C   0  0  0  0  0  0
  -16.5351  -29.9106   23.6343 C   0  0  0  0  0  0
  -16.7255  -28.6527   23.0339 C   0  0  0  0  0  0
  -26.4486  -31.6604   25.0713 C   0  0  0  0  0  0
  -25.3745  -31.3708   26.1456 C   0  0  0  0  0  0
  -27.0316  -30.3050   24.6087 C   0  0  0  0  0  0
  -27.6069  -32.4316   25.7475 C   0  0  0  0  0  0
  -27.5575  -37.1803   24.8480 C   0  0  0  0  0  0
  -21.4147  -29.3041   22.3737 N   0  0  0  0  0  0
  -26.4285  -37.3813   23.9430 N   0  0  0  0  0  0
  -24.6732  -31.0751   22.1001 N   0  0  0  0  0  0
  -23.4188  -28.8202   23.3039 O   0  0  0  0  0  0
  -28.3866  -26.6407   20.0719 O   0  0  0  0  0  0
  -26.5606  -34.8948   22.4691 O   0  0  0  0  0  0
  -23.5359  -32.1437   23.7465 O   0  0  0  0  0  0
  -31.1232  -20.3528   19.8808 C   0  0  0  0  0  0
  -27.6603  -23.9540   18.5636 C   0  0  0  0  0  0
  -30.0787  -24.4708   18.9855 C   0  0  0  0  0  0
  -29.6879  -17.6443   19.6973 C   0  0  0  0  0  0
  -28.9293  -19.0128   19.7167 C   0  0  0  0  0  0
  -30.0516  -16.9647   21.0463 C   0  0  0  0  0  0
  -28.9075  -22.7771   20.4804 C   0  0  0  0  0  0
  -28.3195  -25.2951   20.6157 C   0  0  0  0  0  0
  -29.6245  -20.3192   20.2236 C   0  0  2  0  0  0
  -28.7363  -24.1167   19.6584 C   0  0  0  0  0  0
  -29.8581  -15.4992   21.0309 N   0  0  0  0  0  0
  -28.9466  -21.5284   19.6557 N   0  3  0  0  0  0
  -31.4794  -12.4581   19.1163 H   0  0  0  0  0  0
  -30.3637  -11.3198   19.8147 H   0  0  0  0  0  0
  -29.7455  -11.7891   17.4288 H   0  0  0  0  0  0
  -29.6654  -13.4999   17.7611 H   0  0  0  0  0  0
  -27.8298  -11.3163   18.7989 H   0  0  0  0  0  0
  -27.3738  -12.6534   17.7800 H   0  0  0  0  0  0
  -27.7071  -14.2541   19.5781 H   0  0  0  0  0  0
  -28.6991  -11.9328   21.3106 H   0  0  0  0  0  0
  -28.4670  -13.5545   21.8808 H   0  0  0  0  0  0
  -25.2787   -9.5666   22.4749 H   0  0  0  0  0  0
  -23.9993   -7.4645   22.7487 H   0  0  0  0  0  0
  -21.0832   -8.8794   19.8980 H   0  0  0  0  0  0
  -22.3721  -10.9666   19.6154 H   0  0  0  0  0  0
  -21.2015   -7.6148   23.9703 H   0  0  0  0  0  0
  -21.1468   -6.0515   25.9066 H   0  0  0  0  0  0
  -22.0610   -2.7601   23.2836 H   0  0  0  0  0  0
  -22.4145  -11.9923   22.4775 H   0  0  0  0  0  0
  -21.1147  -13.1286   22.2560 H   0  0  0  0  0  0
  -24.6659  -15.8406   20.5093 H   0  0  0  0  0  0
  -26.2864  -15.6264   20.0773 H   0  0  0  0  0  0
  -26.7130  -32.5533   23.1132 H   0  0  0  0  0  0
  -25.0124  -33.9806   25.0495 H   0  0  0  0  0  0
  -22.6934  -31.3068   21.4121 H   0  0  0  0  0  0
  -23.3764  -35.9610   23.3326 H   0  0  0  0  0  0
  -24.3563  -36.8878   22.2048 H   0  0  0  0  0  0
  -23.7202  -37.6496   23.6631 H   0  0  0  0  0  0
  -26.0484  -31.5814   20.5881 H   0  0  0  0  0  0
  -26.8287  -30.8814   21.9795 H   0  0  0  0  0  0
  -28.1078  -29.0800   21.1585 H   0  0  0  0  0  0
  -26.0161  -25.9589   19.0339 H   0  0  0  0  0  0
  -23.9733  -27.2948   19.0363 H   0  0  0  0  0  0
  -23.7294  -30.6022   19.4076 H   0  0  0  0  0  0
  -22.7388  -29.2481   19.8663 H   0  0  0  0  0  0
  -25.1271  -36.1977   25.0837 H   0  0  0  0  0  0
  -20.9940  -28.3218   24.1449 H   0  0  0  0  0  0
  -20.5664  -26.2280   23.3604 H   0  0  0  0  0  0
  -21.6632  -26.7460   22.1212 H   0  0  0  0  0  0
  -19.6911  -25.6307   21.1234 H   0  0  0  0  0  0
  -19.6671  -27.3222   20.6758 H   0  0  0  0  0  0
  -17.4188  -26.6671   21.4036 H   0  0  0  0  0  0
  -18.0323  -26.0060   22.9020 H   0  0  0  0  0  0
  -19.7935  -30.7269   24.2260 H   0  0  0  0  0  0
  -17.5028  -31.6275   24.5183 H   0  0  0  0  0  0
  -15.5355  -30.3023   23.7668 H   0  0  0  0  0  0
  -15.8645  -28.0879   22.7022 H   0  0  0  0  0  0
  -24.5938  -30.7046   25.7772 H   0  0  0  0  0  0
  -24.8928  -32.2859   26.4905 H   0  0  0  0  0  0
  -25.8096  -30.8867   27.0206 H   0  0  0  0  0  0
  -26.2850  -29.6810   24.1162 H   0  0  0  0  0  0
  -27.4103  -29.7301   25.4547 H   0  0  0  0  0  0
  -27.8684  -30.4388   23.9229 H   0  0  0  0  0  0
  -27.2716  -33.3617   26.2076 H   0  0  0  0  0  0
  -28.3867  -32.6858   25.0287 H   0  0  0  0  0  0
  -28.0751  -31.8416   26.5362 H   0  0  0  0  0  0
  -28.2614  -38.0081   24.7528 H   0  0  0  0  0  0
  -28.1040  -36.2614   24.6292 H   0  0  0  0  0  0
  -27.2301  -37.1443   25.8886 H   0  0  0  0  0  0
  -20.9296  -29.8788   21.6987 H   0  0  0  0  0  0
  -26.0170  -38.2890   24.1440 H   0  0  0  0  0  0
  -31.5953  -21.2717   20.2291 H   0  0  0  0  0  0
  -31.2908  -20.2764   18.8065 H   0  0  0  0  0  0
  -31.6529  -19.5267   20.3547 H   0  0  0  0  0  0
  -27.9003  -23.1667   17.8493 H   0  0  0  0  0  0
  -27.5651  -24.8669   17.9753 H   0  0  0  0  0  0
  -26.6833  -23.7234   18.9908 H   0  0  0  0  0  0
  -30.4022  -23.6970   18.2888 H   0  0  0  0  0  0
  -30.8727  -24.6069   19.7206 H   0  0  0  0  0  0
  -30.0047  -25.3995   18.4177 H   0  0  0  0  0  0
  -30.5842  -17.7287   19.0813 H   0  0  0  0  0  0
  -29.0409  -16.9596   19.1458 H   0  0  0  0  0  0
  -27.9938  -18.8834   20.2629 H   0  0  0  0  0  0
  -28.6265  -19.1842   18.6826 H   0  0  0  0  0  0
  -29.4125  -17.3622   21.8349 H   0  0  0  0  0  0
  -31.0754  -17.2078   21.3330 H   0  0  0  0  0  0
  -28.0869  -22.6654   21.1902 H   0  0  0  0  0  0
  -29.8135  -22.8382   21.0863 H   0  0  0  0  0  0
  -28.9937  -25.2912   21.4731 H   0  0  0  0  0  0
  -27.3340  -25.0889   21.0379 H   0  0  0  0  0  0
  -29.5224  -20.3431   21.3096 H   0  0  0  0  0  0
  -28.9578  -15.1814   21.3584 H   0  0  0  0  0  0
  -29.3805  -21.7344   18.7716 H   0  0  0  0  0  0
  -27.9875  -21.2845   19.4660 H   0  0  0  0  0  0
  1 25  1  0  0  0
  1 30  2  0  0  0
  1 81  1  0  0  0
  2  3  1  0  0  0
  2 25  1  0  0  0
  2 83  1  0  0  0
  2 84  1  0  0  0
  3  4  1  0  0  0
  3 85  1  0  0  0
  3 86  1  0  0  0
  4  5  1  0  0  0
  4 87  1  0  0  0
  4 88  1  0  0  0
  5  6  1  0  0  0
  5 26  1  0  0  0
  5 89  1  0  0  0
  6 25  1  0  0  0
  6 90  1  0  0  0
  6 91  1  0  0  0
  7  8  2  0  0  0
  7 26  1  0  0  0
  7 29  1  0  0  0
  8  9  1  0  0  0
  8 22  1  0  0  0
  9 10  1  0  0  0
  9 27  2  0  0  0
 10 11  2  0  0  0
 10 15  1  0  0  0
 11 12  1  0  0  0
 11 92  1  0  0  0
 12 13  2  0  0  0
 12 93  1  0  0  0
 13 14  1  0  0  0
 13 31  1  0  0  0
 14 15  2  0  0  0
 14 94  1  0  0  0
 15 95  1  0  0  0
 16 17  2  0  0  0
 16 21  1  0  0  0
 16 31  1  0  0  0
 17 18  1  0  0  0
 17 96  1  0  0  0
 18 19  2  0  0  0
 18 97  1  0  0  0
 19 20  1  0  0  0
 19 24  1  0  0  0
 20 21  2  0  0  0
 20 98  1  0  0  0
 21 23  1  0  0  0
 22 28  1  0  0  0
 22 32  2  0  0  0
 26 27  1  0  0  0
 28 99  1  0  0  0
 28100  1  0  0  0
 29101  1  0  0  0
 29102  1  0  0  0
 33 34  1  0  0  0
 33 66  1  0  0  0
 33 70  2  0  0  0
 34 36  1  0  0  0
 34 59  1  0  0  0
 34103  1  0  0  0
 35 44  2  0  0  0
 35 45  1  0  0  0
 35 68  1  0  0  0
 36 56  1  0  0  0
 36104  1  0  0  0
 37 39  1  0  0  0
 37 47  1  0  0  0
 37 66  1  0  0  0
 37105  1  0  0  0
 38 43  2  0  0  0
 38 46  1  0  0  0
 38 47  1  0  0  0
 39 64  1  0  0  0
 39 67  2  0  0  0
 40 52  1  0  0  0
 40 53  2  0  0  0
 40 58  1  0  0  0
 41106  1  0  0  0
 41107  1  0  0  0
 41108  1  0  0  0
 41 48  1  0  0  0
 42 43  1  0  0  0
 42 66  1  0  0  0
 42109  1  0  0  0
 42110  1  0  0  0
 43 44  1  0  0  0
 44111  1  0  0  0
 45 46  2  0  0  0
 45112  1  0  0  0
 46113  1  0  0  0
 47114  1  0  0  0
 47115  1  0  0  0
 48 56  1  0  0  0
 48 65  1  0  0  0
 48116  1  0  0  0
 49 50  1  0  0  0
 49 53  1  0  0  0
 49 64  1  0  0  0
 49117  1  0  0  0
 50 51  1  0  0  0
 50118  1  0  0  0
 50119  1  0  0  0
 51 52  1  0  0  0
 51120  1  0  0  0
 51121  1  0  0  0
 52122  1  0  0  0
 52123  1  0  0  0
 53 54  1  0  0  0
 54 55  2  0  0  0
 54124  1  0  0  0
 55 57  1  0  0  0
 55125  1  0  0  0
 56 69  2  0  0  0
 57 58  2  0  0  0
 57126  1  0  0  0
 58127  1  0  0  0
 59 60  1  0  0  0
 59 61  1  0  0  0
 59 62  1  0  0  0
 60128  1  0  0  0
 60129  1  0  0  0
 60130  1  0  0  0
 61131  1  0  0  0
 61132  1  0  0  0
 61133  1  0  0  0
 62134  1  0  0  0
 62135  1  0  0  0
 62136  1  0  0  0
 63 65  1  0  0  0
 63137  1  0  0  0
 63138  1  0  0  0
 63139  1  0  0  0
 64140  1  0  0  0
 65141  1  0  0  0
 68 78  1  0  0  0
 71142  1  0  0  0
 71143  1  0  0  0
 71144  1  0  0  0
 71 79  1  0  0  0
 72145  1  0  0  0
 72146  1  0  0  0
 72147  1  0  0  0
 72 80  1  0  0  0
 73 80  1  0  0  0
 73148  1  0  0  0
 73149  1  0  0  0
 73150  1  0  0  0
 74 75  1  0  0  0
 74 76  1  0  0  0
 74151  1  0  0  0
 74152  1  0  0  0
 75 79  1  0  0  0
 75153  1  0  0  0
 75154  1  0  0  0
 76 81  1  0  0  0
 76155  1  0  0  0
 76156  1  0  0  0
 77 80  1  0  0  0
 77 82  1  0  0  0
 77157  1  0  0  0
 77158  1  0  0  0
 78 80  1  0  0  0
 78159  1  0  0  0
 78160  1  0  0  0
 79 82  1  0  0  0
 79161  1  0  0  0
 81162  1  0  0  0
 82163  1  0  0  0
 82164  1  0  0  0
M  CHG  1  82   1
M  ISO  4   1 100  68 101  78 101  81 100
M  END
> <chiral flag>
0

> <version>
0

> <s_m_source_file>
/data/baiqing/PycharmProjects/Reinvent-master-3.2/result/LINK_invent/BTK/process_docking_weight1_custom_sum_contain_oxygen_bond_distance_aromatic_linkinvent_7_9_3/rearranged_h_0084.sdf

> <i_m_source_file_index>
88

> <r_mmod_Potential_Energy-OPLS-2005>
-157.252532958984

> <r_mmod_Stretch_Energy-OPLS-2005>
46.8420791625977

> <r_mmod_Bend_Energy-OPLS-2005>
118.363433837891

> <r_mmod_Torsional_Energy-OPLS-2005>
263.131225585938

> <r_mmod_Improper_Torsional_Energy-OPLS-2005>
4.13963842391968

> <r_mmod_Van_der_Waal_Energy-OPLS-2005>
126.586166381836

> <r_mmod_Electrostatic_Energy-OPLS-2005>
-275.920349121094

> <r_mmod_Solvation_Energy-OPLS-2005>
-457.91455078125

> <b_mmod_Minimization_Converged-OPLS-2005>
0

> <r_mmod_RMS_Derivative-OPLS-2005>
2.21837592124939

$$$$
88
                    3D
 Structure written by MMmdl.
159167  0  0  1  0            999 V2000
  -30.5400  -14.9313   20.4143 C   0  0  0  0  0  0
  -30.4377  -12.5702   19.5085 C   0  0  0  0  0  0
  -29.5230  -12.5315   18.2619 C   0  0  0  0  0  0
  -28.0537  -12.3237   18.6741 C   0  0  0  0  0  0
  -27.6326  -13.2491   19.8460 C   0  0  2  0  0  0
  -28.6728  -13.2629   20.9873 C   0  0  0  0  0  0
  -25.2463  -13.8221   20.5716 C   0  0  0  0  0  0
  -24.1778  -13.0441   20.9222 C   0  0  0  0  0  0
  -24.6396  -11.6927   20.8751 C   0  0  0  0  0  0
  -23.9079  -10.4295   21.0405 C   0  0  0  0  0  0
  -24.3627   -9.4210   21.9183 C   0  0  0  0  0  0
  -23.6301   -8.2245   22.0754 C   0  0  0  0  0  0
  -22.4282   -8.0283   21.3545 C   0  0  0  0  0  0
  -21.9920   -9.0257   20.4645 C   0  0  0  0  0  0
  -22.7250  -10.2136   20.3054 C   0  0  0  0  0  0
  -21.6856   -6.0739   22.5279 C   0  0  0  0  0  0
  -21.4016   -6.5640   23.8213 C   0  0  0  0  0  0
  -21.3661   -5.6793   24.9174 C   0  0  0  0  0  0
  -21.6045   -4.3056   24.7224 C   0  0  0  0  0  0
  -21.8818   -3.8147   23.4344 C   0  0  0  0  0  0
  -21.9194   -4.6965   22.3402 C   0  0  0  0  0  0
  -22.7795  -13.5208   21.1879 C   0  0  0  0  0  0
  -22.1662   -4.2150   21.0978 F   0  0  0  0  0  0
  -21.5629   -3.4539   25.7736 F   0  0  0  0  0  0
  -29.9549  -13.6666   20.3971 N   0  0  0  0  0  0
  -26.2897  -12.9457   20.3275 N   0  0  0  0  0  0
  -25.9331  -11.6584   20.5751 N   0  0  0  0  0  0
  -22.0453  -12.8191   22.0436 N   0  0  0  0  0  0
  -25.4123  -15.1949   20.4139 N   0  0  0  0  0  0
  -31.7323  -15.0057   20.0979 O   0  0  0  0  0  0
  -21.6644   -6.8882   21.4240 O   0  0  0  0  0  0
  -22.3472  -14.5512   20.6727 O   0  0  0  0  0  0
  -24.6429  -31.8436   23.1878 C   0  0  0  0  0  0
  -25.9201  -32.4691   23.8268 C   0  0  1  0  0  0
  -27.2132  -27.1269   20.1479 C   0  0  0  0  0  0
  -25.5947  -33.8499   24.2182 N   0  0  0  0  0  0
  -23.4469  -30.4632   21.5331 C   0  0  2  0  0  0
  -24.8963  -28.8912   20.1053 C   0  0  0  0  0  0
  -22.7565  -29.4544   22.4854 C   0  0  0  0  0  0
  -18.0308  -28.1402   22.8480 C   0  0  0  0  0  0
  -24.1491  -36.7253   23.2645 C   0  0  0  0  0  0
  -26.0032  -30.7122   21.3905 C   0  0  0  0  0  0
  -26.0717  -29.3232   20.7314 C   0  0  0  0  0  0
  -27.2272  -28.4547   20.7413 C   0  0  0  0  0  0
  -26.0187  -26.8097   19.4621 C   0  0  0  0  0  0
  -24.8837  -27.6487   19.4552 C   0  0  0  0  0  0
  -23.6731  -29.7938   20.1512 C   0  0  0  0  0  0
  -25.4125  -36.3033   24.0316 C   0  0  1  0  0  0
  -20.5919  -28.3725   23.1235 C   0  0  2  0  0  0
  -20.6791  -26.9428   22.5405 C   0  0  0  0  0  0
  -19.5764  -26.6383   21.5215 C   0  0  0  0  0  0
  -18.1944  -26.7941   22.1625 C   0  0  0  0  0  0
  -19.1565  -28.8880   23.2850 C   0  0  0  0  0  0
  -18.9482  -30.1478   23.8875 C   0  0  0  0  0  0
  -17.6479  -30.6597   24.0564 C   0  0  0  0  0  0
  -25.9074  -34.9407   23.5060 C   0  0  0  0  0  0
  -16.5369  -29.9092   23.6338 C   0  0  0  0  0  0
  -16.7291  -28.6511   23.0355 C   0  0  0  0  0  0
  -26.4519  -31.6565   25.0716 C   0  0  0  0  0  0
  -25.3694  -31.3761   26.1403 C   0  0  0  0  0  0
  -27.0391  -30.2959   24.6311 C   0  0  0  0  0  0
  -27.6047  -32.4332   25.7498 C   0  0  0  0  0  0
  -27.5576  -37.1784   24.8470 C   0  0  0  0  0  0
  -21.4257  -29.3050   22.3602 N   0  0  0  0  0  0
  -26.4289  -37.3745   23.9409 N   0  0  0  0  0  0
  -24.7173  -31.0282   22.0918 N   0  0  0  0  0  0
  -23.4205  -28.8092   23.3007 O   0  0  0  0  0  0
  -28.2652  -26.1409   20.2579 O   0  0  0  0  0  0
  -26.5668  -34.8907   22.4645 O   0  0  0  0  0  0
  -23.5546  -32.1322   23.7089 O   0  0  0  0  0  0
  -28.1224  -20.4479   22.1138 C   0  0  0  0  0  0
  -28.8285  -20.3188   20.9446 C   0  0  0  0  0  0
  -29.1780  -18.8197   20.9809 C   0  0  0  0  0  0
  -27.9290  -17.7977   24.8073 C   0  0  0  0  0  0
  -29.6535  -17.7735   18.6808 C   0  0  0  0  0  0
  -28.9241  -21.6939   20.0353 C   0  0  0  0  0  0
  -28.7597  -23.2727   20.6542 C   0  0  0  0  0  0
  -27.3083  -18.9406   23.9861 C   0  0  0  0  0  0
  -28.1373  -24.6315   19.8651 C   0  0  0  0  0  0
  -29.9508  -17.6244   20.1783 C   0  0  2  0  0  0
  -28.6457  -18.2769   22.0700 N   0  0  0  0  0  0
  -28.0349  -19.2463   22.7623 N   0  0  0  0  0  0
  -29.7515  -16.1005   20.5646 N   0  0  0  0  0  0
  -31.4749  -12.7166   19.2036 H   0  0  0  0  0  0
  -30.4167  -11.6139   20.0334 H   0  0  0  0  0  0
  -29.8382  -11.7378   17.5834 H   0  0  0  0  0  0
  -29.6197  -13.4660   17.7072 H   0  0  0  0  0  0
  -27.9412  -11.2803   18.9711 H   0  0  0  0  0  0
  -27.3940  -12.4696   17.8180 H   0  0  0  0  0  0
  -27.6013  -14.2555   19.4274 H   0  0  0  0  0  0
  -28.7501  -12.2836   21.4619 H   0  0  0  0  0  0
  -28.3760  -13.9632   21.7697 H   0  0  0  0  0  0
  -25.2771   -9.5687   22.4762 H   0  0  0  0  0  0
  -24.0009   -7.4636   22.7473 H   0  0  0  0  0  0
  -21.0853   -8.8775   19.8949 H   0  0  0  0  0  0
  -22.3708  -10.9674   19.6165 H   0  0  0  0  0  0
  -21.2009   -7.6150   23.9716 H   0  0  0  0  0  0
  -21.1484   -6.0524   25.9078 H   0  0  0  0  0  0
  -22.0597   -2.7610   23.2843 H   0  0  0  0  0  0
  -22.4085  -11.9857   22.4819 H   0  0  0  0  0  0
  -21.1069  -13.1200   22.2646 H   0  0  0  0  0  0
  -24.6450  -15.8469   20.5341 H   0  0  0  0  0  0
  -26.2616  -15.6408   20.0923 H   0  0  0  0  0  0
  -26.7262  -32.5290   23.0992 H   0  0  0  0  0  0
  -25.0063  -33.9614   25.0307 H   0  0  0  0  0  0
  -22.7505  -31.2902   21.3791 H   0  0  0  0  0  0
  -23.3760  -35.9580   23.3300 H   0  0  0  0  0  0
  -24.3582  -36.8891   22.2063 H   0  0  0  0  0  0
  -23.7233  -37.6442   23.6685 H   0  0  0  0  0  0
  -26.1637  -31.4661   20.6186 H   0  0  0  0  0  0
  -26.8720  -30.7601   22.0350 H   0  0  0  0  0  0
  -28.1175  -28.7763   21.2635 H   0  0  0  0  0  0
  -25.9170  -25.8752   18.9346 H   0  0  0  0  0  0
  -23.9899  -27.3178   18.9441 H   0  0  0  0  0  0
  -23.8091  -30.5692   19.3964 H   0  0  0  0  0  0
  -22.7877  -29.2364   19.8399 H   0  0  0  0  0  0
  -25.1313  -36.1864   25.0806 H   0  0  0  0  0  0
  -21.0017  -28.3316   24.1355 H   0  0  0  0  0  0
  -20.5690  -26.2338   23.3626 H   0  0  0  0  0  0
  -21.6656  -26.7437   22.1202 H   0  0  0  0  0  0
  -19.6928  -25.6288   21.1260 H   0  0  0  0  0  0
  -19.6702  -27.3182   20.6738 H   0  0  0  0  0  0
  -17.4216  -26.6687   21.4028 H   0  0  0  0  0  0
  -18.0345  -26.0091   22.9030 H   0  0  0  0  0  0
  -19.7957  -30.7303   24.2231 H   0  0  0  0  0  0
  -17.5033  -31.6275   24.5172 H   0  0  0  0  0  0
  -15.5368  -30.2990   23.7675 H   0  0  0  0  0  0
  -15.8690  -28.0824   22.7081 H   0  0  0  0  0  0
  -24.5891  -30.7090   25.7719 H   0  0  0  0  0  0
  -24.8861  -32.2944   26.4748 H   0  0  0  0  0  0
  -25.7967  -30.8989   27.0231 H   0  0  0  0  0  0
  -26.3015  -29.6671   24.1313 H   0  0  0  0  0  0
  -27.3994  -29.7270   25.4893 H   0  0  0  0  0  0
  -27.8927  -30.4197   23.9642 H   0  0  0  0  0  0
  -27.2646  -33.3662   26.2005 H   0  0  0  0  0  0
  -28.3892  -32.6838   25.0344 H   0  0  0  0  0  0
  -28.0676  -31.8501   26.5470 H   0  0  0  0  0  0
  -28.2586  -38.0087   24.7517 H   0  0  0  0  0  0
  -28.1075  -36.2615   24.6295 H   0  0  0  0  0  0
  -27.2297  -37.1432   25.8873 H   0  0  0  0  0  0
  -20.9471  -29.8757   21.6773 H   0  0  0  0  0  0
  -26.0158  -38.2813   24.1408 H   0  0  0  0  0  0
  -27.6352  -21.3127   22.5405 H   0  0  0  0  0  0
  -27.3810  -17.6509   25.7382 H   0  0  0  0  0  0
  -28.9664  -18.0138   25.0629 H   0  0  0  0  0  0
  -27.9050  -16.8540   24.2612 H   0  0  0  0  0  0
  -29.9264  -18.7691   18.3298 H   0  0  0  0  0  0
  -28.5921  -17.6305   18.4763 H   0  0  0  0  0  0
  -30.2133  -17.0507   18.0866 H   0  0  0  0  0  0
  -28.1567  -21.6142   19.2646 H   0  0  0  0  0  0
  -29.8529  -21.6756   19.4644 H   0  0  0  0  0  0
  -29.7436  -23.5500   21.0321 H   0  0  0  0  0  0
  -28.1500  -23.1998   21.5524 H   0  0  0  0  0  0
  -27.2662  -19.8453   24.5941 H   0  0  0  0  0  0
  -26.2794  -18.6964   23.7186 H   0  0  0  0  0  0
  -28.5150  -24.5891   18.8435 H   0  0  0  0  0  0
  -27.0803  -24.3954   19.7755 H   0  0  0  0  0  0
  -31.0195  -17.8028   20.3049 H   0  0  0  0  0  0
  -28.8197  -15.9198   20.9059 H   0  0  0  0  0  0
  1 25  1  0  0  0
  1 30  2  0  0  0
  1 83  1  0  0  0
  2  3  1  0  0  0
  2 25  1  0  0  0
  2 84  1  0  0  0
  2 85  1  0  0  0
  3  4  1  0  0  0
  3 86  1  0  0  0
  3 87  1  0  0  0
  4  5  1  0  0  0
  4 88  1  0  0  0
  4 89  1  0  0  0
  5  6  1  0  0  0
  5 26  1  0  0  0
  5 90  1  0  0  0
  6 25  1  0  0  0
  6 91  1  0  0  0
  6 92  1  0  0  0
  7  8  2  0  0  0
  7 26  1  0  0  0
  7 29  1  0  0  0
  8  9  1  0  0  0
  8 22  1  0  0  0
  9 10  1  0  0  0
  9 27  2  0  0  0
 10 11  2  0  0  0
 10 15  1  0  0  0
 11 12  1  0  0  0
 11 93  1  0  0  0
 12 13  2  0  0  0
 12 94  1  0  0  0
 13 14  1  0  0  0
 13 31  1  0  0  0
 14 15  2  0  0  0
 14 95  1  0  0  0
 15 96  1  0  0  0
 16 17  2  0  0  0
 16 21  1  0  0  0
 16 31  1  0  0  0
 17 18  1  0  0  0
 17 97  1  0  0  0
 18 19  2  0  0  0
 18 98  1  0  0  0
 19 20  1  0  0  0
 19 24  1  0  0  0
 20 21  2  0  0  0
 20 99  1  0  0  0
 21 23  1  0  0  0
 22 28  1  0  0  0
 22 32  2  0  0  0
 26 27  1  0  0  0
 28100  1  0  0  0
 28101  1  0  0  0
 29102  1  0  0  0
 29103  1  0  0  0
 33 34  1  0  0  0
 33 66  1  0  0  0
 33 70  2  0  0  0
 34 36  1  0  0  0
 34 59  1  0  0  0
 34104  1  0  0  0
 35 44  2  0  0  0
 35 45  1  0  0  0
 35 68  1  0  0  0
 36 56  1  0  0  0
 36105  1  0  0  0
 37 39  1  0  0  0
 37 47  1  0  0  0
 37 66  1  0  0  0
 37106  1  0  0  0
 38 43  2  0  0  0
 38 46  1  0  0  0
 38 47  1  0  0  0
 39 64  1  0  0  0
 39 67  2  0  0  0
 40 52  1  0  0  0
 40 53  2  0  0  0
 40 58  1  0  0  0
 41107  1  0  0  0
 41108  1  0  0  0
 41109  1  0  0  0
 41 48  1  0  0  0
 42 43  1  0  0  0
 42 66  1  0  0  0
 42110  1  0  0  0
 42111  1  0  0  0
 43 44  1  0  0  0
 44112  1  0  0  0
 45 46  2  0  0  0
 45113  1  0  0  0
 46114  1  0  0  0
 47115  1  0  0  0
 47116  1  0  0  0
 48 56  1  0  0  0
 48 65  1  0  0  0
 48117  1  0  0  0
 49 50  1  0  0  0
 49 53  1  0  0  0
 49 64  1  0  0  0
 49118  1  0  0  0
 50 51  1  0  0  0
 50119  1  0  0  0
 50120  1  0  0  0
 51 52  1  0  0  0
 51121  1  0  0  0
 51122  1  0  0  0
 52123  1  0  0  0
 52124  1  0  0  0
 53 54  1  0  0  0
 54 55  2  0  0  0
 54125  1  0  0  0
 55 57  1  0  0  0
 55126  1  0  0  0
 56 69  2  0  0  0
 57 58  2  0  0  0
 57127  1  0  0  0
 58128  1  0  0  0
 59 60  1  0  0  0
 59 61  1  0  0  0
 59 62  1  0  0  0
 60129  1  0  0  0
 60130  1  0  0  0
 60131  1  0  0  0
 61132  1  0  0  0
 61133  1  0  0  0
 61134  1  0  0  0
 62135  1  0  0  0
 62136  1  0  0  0
 62137  1  0  0  0
 63 65  1  0  0  0
 63138  1  0  0  0
 63139  1  0  0  0
 63140  1  0  0  0
 64141  1  0  0  0
 65142  1  0  0  0
 68 79  1  0  0  0
 71 72  2  0  0  0
 71 82  1  0  0  0
 71143  1  0  0  0
 72 73  1  0  0  0
 72 76  1  0  0  0
 73 80  1  0  0  0
 73 81  2  0  0  0
 74 78  1  0  0  0
 74144  1  0  0  0
 74145  1  0  0  0
 74146  1  0  0  0
 75147  1  0  0  0
 75148  1  0  0  0
 75149  1  0  0  0
 75 80  1  0  0  0
 76 77  1  0  0  0
 76150  1  0  0  0
 76151  1  0  0  0
 77 79  1  0  0  0
 77152  1  0  0  0
 77153  1  0  0  0
 78 82  1  0  0  0
 78154  1  0  0  0
 78155  1  0  0  0
 79156  1  0  0  0
 79157  1  0  0  0
 80 83  1  0  0  0
 80158  1  0  0  0
 81 82  1  0  0  0
 83159  1  0  0  0
M  ISO  4   1 100  68 101  79 101  83 100
M  END
> <chiral flag>
0

> <version>
0

> <s_m_source_file>
/data/baiqing/PycharmProjects/Reinvent-master-3.2/result/LINK_invent/BTK/process_docking_weight1_custom_sum_contain_oxygen_bond_distance_aromatic_linkinvent_7_9_3/rearranged_h_0084.sdf

> <i_m_source_file_index>
89

> <r_mmod_Potential_Energy-OPLS-2005>
411.749816894531

> <r_mmod_Stretch_Energy-OPLS-2005>
277.028839111328

> <r_mmod_Bend_Energy-OPLS-2005>
287.482177734375

> <r_mmod_Torsional_Energy-OPLS-2005>
215.830184936523

> <r_mmod_Improper_Torsional_Energy-OPLS-2005>
5.42635202407837

> <r_mmod_Van_der_Waal_Energy-OPLS-2005>
111.262710571289

> <r_mmod_Electrostatic_Energy-OPLS-2005>
-464.594848632812

> <r_mmod_Solvation_Energy-OPLS-2005>
-211.121566772461

> <b_mmod_Minimization_Converged-OPLS-2005>
0

> <r_mmod_RMS_Derivative-OPLS-2005>
0.499666720628738

$$$$
89
                    3D
 Structure written by MMmdl.
161169  0  0  1  0            999 V2000
  -30.6823  -14.4740   20.5562 C   0  0  0  0  0  0
  -30.4219  -12.3068   19.4207 C   0  0  0  0  0  0
  -29.4953  -12.5189   18.2049 C   0  0  0  0  0  0
  -28.0142  -12.3763   18.6119 C   0  0  0  0  0  0
  -27.6605  -13.2033   19.8763 C   0  0  2  0  0  0
  -28.7020  -12.9800   20.9966 C   0  0  0  0  0  0
  -25.2589  -13.8153   20.5678 C   0  0  0  0  0  0
  -24.1842  -13.0438   20.9186 C   0  0  0  0  0  0
  -24.6392  -11.6908   20.8755 C   0  0  0  0  0  0
  -23.9063  -10.4299   21.0411 C   0  0  0  0  0  0
  -24.3628   -9.4217   21.9179 C   0  0  0  0  0  0
  -23.6308   -8.2255   22.0744 C   0  0  0  0  0  0
  -22.4280   -8.0292   21.3546 C   0  0  0  0  0  0
  -21.9925   -9.0252   20.4641 C   0  0  0  0  0  0
  -22.7238  -10.2139   20.3049 C   0  0  0  0  0  0
  -21.6844   -6.0753   22.5287 C   0  0  0  0  0  0
  -21.4008   -6.5652   23.8220 C   0  0  0  0  0  0
  -21.3662   -5.6798   24.9179 C   0  0  0  0  0  0
  -21.6050   -4.3061   24.7214 C   0  0  0  0  0  0
  -21.8821   -3.8164   23.4330 C   0  0  0  0  0  0
  -21.9196   -4.6992   22.3397 C   0  0  0  0  0  0
  -22.7872  -13.5236   21.1848 C   0  0  0  0  0  0
  -22.1657   -4.2191   21.0971 F   0  0  0  0  0  0
  -21.5637   -3.4538   25.7718 F   0  0  0  0  0  0
  -30.0310  -13.2862   20.4443 N   0  0  0  0  0  0
  -26.3026  -12.9319   20.3368 N   0  0  0  0  0  0
  -25.9311  -11.6490   20.5772 N   0  0  0  0  0  0
  -22.0518  -12.8216   22.0407 N   0  0  0  0  0  0
  -25.4326  -15.1863   20.4063 N   0  0  0  0  0  0
  -31.8195  -14.6579   20.1147 O   0  0  0  0  0  0
  -21.6631   -6.8895   21.4247 O   0  0  0  0  0  0
  -22.3570  -14.5544   20.6684 O   0  0  0  0  0  0
  -24.6139  -31.8681   23.2119 C   0  0  0  0  0  0
  -25.9049  -32.4826   23.8379 C   0  0  1  0  0  0
  -27.1983  -27.4176   20.1162 C   0  0  0  0  0  0
  -25.5921  -33.8623   24.2313 N   0  0  0  0  0  0
  -23.3987  -30.4963   21.5532 C   0  0  2  0  0  0
  -24.8409  -28.9718   20.1015 C   0  0  0  0  0  0
  -22.7398  -29.4656   22.4980 C   0  0  0  0  0  0
  -18.0278  -28.1365   22.8491 C   0  0  0  0  0  0
  -24.1502  -36.7308   23.2633 C   0  0  0  0  0  0
  -25.9294  -30.8297   21.3677 C   0  0  0  0  0  0
  -26.0014  -29.4689   20.7081 C   0  0  0  0  0  0
  -27.1900  -28.7004   20.7102 C   0  0  0  0  0  0
  -26.0296  -26.9440   19.4861 C   0  0  0  0  0  0
  -24.8517  -27.7128   19.4787 C   0  0  0  0  0  0
  -23.6035  -29.8420   20.1607 C   0  0  0  0  0  0
  -25.4118  -36.3104   24.0330 C   0  0  1  0  0  0
  -20.5859  -28.3640   23.1311 C   0  0  2  0  0  0
  -20.6778  -26.9380   22.5407 C   0  0  0  0  0  0
  -19.5768  -26.6369   21.5201 C   0  0  0  0  0  0
  -18.1936  -26.7914   22.1604 C   0  0  0  0  0  0
  -19.1521  -28.8818   23.2910 C   0  0  0  0  0  0
  -18.9453  -30.1423   23.8928 C   0  0  0  0  0  0
  -17.6456  -30.6584   24.0555 C   0  0  0  0  0  0
  -25.9034  -34.9475   23.5117 C   0  0  0  0  0  0
  -16.5351  -29.9086   23.6323 C   0  0  0  0  0  0
  -16.7257  -28.6495   23.0355 C   0  0  0  0  0  0
  -26.4467  -31.6609   25.0712 C   0  0  0  0  0  0
  -25.3722  -31.3749   26.1453 C   0  0  0  0  0  0
  -27.0294  -30.3055   24.6088 C   0  0  0  0  0  0
  -27.6050  -32.4313   25.7483 C   0  0  0  0  0  0
  -27.5590  -37.1808   24.8460 C   0  0  0  0  0  0
  -21.4118  -29.3020   22.3729 N   0  0  0  0  0  0
  -26.4308  -37.3783   23.9396 N   0  0  0  0  0  0
  -24.6660  -31.0768   22.1039 N   0  0  0  0  0  0
  -23.4189  -28.8179   23.2997 O   0  0  0  0  0  0
  -28.3115  -26.6099   20.1711 O   0  0  0  0  0  0
  -26.5588  -34.8925   22.4669 O   0  0  0  0  0  0
  -23.5337  -32.1444   23.7518 O   0  0  0  0  0  0
  -30.6589  -21.8461   19.6326 C   0  0  0  0  0  0
  -29.0078  -20.3114   20.4915 C   0  0  0  0  0  0
  -29.4641  -21.6470   20.3519 C   0  0  0  0  0  0
  -31.3212  -20.7413   19.0731 C   0  0  0  0  0  0
  -29.7571  -19.2484   19.9244 C   0  0  0  0  0  0
  -32.5726  -20.9366   18.2467 C   0  0  0  0  0  0
  -29.1290  -17.1475   18.6462 C   0  0  0  0  0  0
  -28.7267  -22.8356   20.9914 C   0  0  0  0  0  0
  -28.7276  -24.1555   20.1633 C   0  0  0  0  0  0
  -30.2734  -16.9314   20.9560 C   0  0  0  0  0  0
  -28.0959  -25.3692   20.8852 C   0  0  0  0  0  0
  -29.3272  -17.7733   20.0428 C   0  0  1  0  0  0
  -30.8910  -19.4735   19.2231 N   0  0  0  0  0  0
  -29.9340  -15.4933   21.0171 N   0  0  0  0  0  0
  -31.4668  -12.4054   19.1236 H   0  0  0  0  0  0
  -30.3178  -11.2929   19.8128 H   0  0  0  0  0  0
  -29.7406  -11.8098   17.4135 H   0  0  0  0  0  0
  -29.6614  -13.5126   17.7842 H   0  0  0  0  0  0
  -27.8137  -11.3175   18.7870 H   0  0  0  0  0  0
  -27.3694  -12.6741   17.7838 H   0  0  0  0  0  0
  -27.7002  -14.2519   19.5881 H   0  0  0  0  0  0
  -28.6781  -11.9421   21.3293 H   0  0  0  0  0  0
  -28.4692  -13.5781   21.8797 H   0  0  0  0  0  0
  -25.2782   -9.5689   22.4746 H   0  0  0  0  0  0
  -24.0046   -7.4636   22.7428 H   0  0  0  0  0  0
  -21.0874   -8.8737   19.8929 H   0  0  0  0  0  0
  -22.3685  -10.9674   19.6167 H   0  0  0  0  0  0
  -21.1980   -7.6151   23.9732 H   0  0  0  0  0  0
  -21.1494   -6.0520   25.9081 H   0  0  0  0  0  0
  -22.0604   -2.7632   23.2794 H   0  0  0  0  0  0
  -22.4113  -11.9874   22.4804 H   0  0  0  0  0  0
  -21.1129  -13.1236   22.2601 H   0  0  0  0  0  0
  -24.6625  -15.8392   20.4993 H   0  0  0  0  0  0
  -26.2784  -15.6214   20.0630 H   0  0  0  0  0  0
  -26.7111  -32.5510   23.1122 H   0  0  0  0  0  0
  -25.0130  -33.9784   25.0499 H   0  0  0  0  0  0
  -22.6876  -31.3159   21.4246 H   0  0  0  0  0  0
  -23.3765  -35.9645   23.3310 H   0  0  0  0  0  0
  -24.3598  -36.8900   22.2046 H   0  0  0  0  0  0
  -23.7259  -37.6521   23.6630 H   0  0  0  0  0  0
  -26.0443  -31.5996   20.6038 H   0  0  0  0  0  0
  -26.8156  -30.8728   21.9893 H   0  0  0  0  0  0
  -28.0799  -29.0710   21.1995 H   0  0  0  0  0  0
  -26.0198  -25.9700   19.0196 H   0  0  0  0  0  0
  -23.9632  -27.3292   18.9973 H   0  0  0  0  0  0
  -23.7097  -30.6275   19.4115 H   0  0  0  0  0  0
  -22.7237  -29.2692   19.8611 H   0  0  0  0  0  0
  -25.1306  -36.1970   25.0828 H   0  0  0  0  0  0
  -20.9932  -28.3187   24.1438 H   0  0  0  0  0  0
  -20.5677  -26.2239   23.3579 H   0  0  0  0  0  0
  -21.6649  -26.7444   22.1200 H   0  0  0  0  0  0
  -19.6934  -25.6275   21.1244 H   0  0  0  0  0  0
  -19.6736  -27.3173   20.6731 H   0  0  0  0  0  0
  -17.4209  -26.6655   21.4005 H   0  0  0  0  0  0
  -18.0356  -26.0045   22.8994 H   0  0  0  0  0  0
  -19.7932  -30.7221   24.2323 H   0  0  0  0  0  0
  -17.5023  -31.6280   24.5128 H   0  0  0  0  0  0
  -15.5350  -30.3007   23.7630 H   0  0  0  0  0  0
  -15.8654  -28.0818   22.7071 H   0  0  0  0  0  0
  -24.5863  -30.7145   25.7769 H   0  0  0  0  0  0
  -24.8969  -32.2942   26.4893 H   0  0  0  0  0  0
  -25.8040  -30.8895   27.0213 H   0  0  0  0  0  0
  -26.2844  -29.6838   24.1115 H   0  0  0  0  0  0
  -27.4046  -29.7265   25.4534 H   0  0  0  0  0  0
  -27.8685  -30.4391   23.9257 H   0  0  0  0  0  0
  -27.2670  -33.3580   26.2131 H   0  0  0  0  0  0
  -28.3833  -32.6919   25.0301 H   0  0  0  0  0  0
  -28.0750  -31.8401   26.5352 H   0  0  0  0  0  0
  -28.2602  -38.0109   24.7496 H   0  0  0  0  0  0
  -28.1094  -36.2637   24.6307 H   0  0  0  0  0  0
  -27.2303  -37.1474   25.8862 H   0  0  0  0  0  0
  -20.9244  -29.8775   21.6997 H   0  0  0  0  0  0
  -26.0204  -38.2865   24.1398 H   0  0  0  0  0  0
  -31.0765  -22.8324   19.5011 H   0  0  0  0  0  0
  -28.0989  -20.0967   21.0379 H   0  0  0  0  0  0
  -33.0686  -21.8731   18.5058 H   0  0  0  0  0  0
  -32.3285  -20.9698   17.1847 H   0  0  0  0  0  0
  -33.2761  -20.1217   18.4171 H   0  0  0  0  0  0
  -28.4729  -17.7677   18.0353 H   0  0  0  0  0  0
  -28.6792  -16.1585   18.7062 H   0  0  0  0  0  0
  -30.0758  -17.0475   18.1132 H   0  0  0  0  0  0
  -29.1821  -23.0200   21.9655 H   0  0  0  0  0  0
  -27.6980  -22.5383   21.1970 H   0  0  0  0  0  0
  -28.2104  -23.9891   19.2179 H   0  0  0  0  0  0
  -29.7483  -24.4350   19.9179 H   0  0  0  0  0  0
  -30.2390  -17.3291   21.9712 H   0  0  0  0  0  0
  -31.3027  -17.0670   20.6218 H   0  0  0  0  0  0
  -28.5416  -25.4831   21.8741 H   0  0  0  0  0  0
  -27.0425  -25.1555   21.0775 H   0  0  0  0  0  0
  -28.3471  -17.7766   20.5177 H   0  0  0  0  0  0
  -29.0148  -15.2558   21.3577 H   0  0  0  0  0  0
  1 25  1  0  0  0
  1 30  2  0  0  0
  1 84  1  0  0  0
  2  3  1  0  0  0
  2 25  1  0  0  0
  2 85  1  0  0  0
  2 86  1  0  0  0
  3  4  1  0  0  0
  3 87  1  0  0  0
  3 88  1  0  0  0
  4  5  1  0  0  0
  4 89  1  0  0  0
  4 90  1  0  0  0
  5  6  1  0  0  0
  5 26  1  0  0  0
  5 91  1  0  0  0
  6 25  1  0  0  0
  6 92  1  0  0  0
  6 93  1  0  0  0
  7  8  2  0  0  0
  7 26  1  0  0  0
  7 29  1  0  0  0
  8  9  1  0  0  0
  8 22  1  0  0  0
  9 10  1  0  0  0
  9 27  2  0  0  0
 10 11  2  0  0  0
 10 15  1  0  0  0
 11 12  1  0  0  0
 11 94  1  0  0  0
 12 13  2  0  0  0
 12 95  1  0  0  0
 13 14  1  0  0  0
 13 31  1  0  0  0
 14 15  2  0  0  0
 14 96  1  0  0  0
 15 97  1  0  0  0
 16 17  2  0  0  0
 16 21  1  0  0  0
 16 31  1  0  0  0
 17 18  1  0  0  0
 17 98  1  0  0  0
 18 19  2  0  0  0
 18 99  1  0  0  0
 19 20  1  0  0  0
 19 24  1  0  0  0
 20 21  2  0  0  0
 20100  1  0  0  0
 21 23  1  0  0  0
 22 28  1  0  0  0
 22 32  2  0  0  0
 26 27  1  0  0  0
 28101  1  0  0  0
 28102  1  0  0  0
 29103  1  0  0  0
 29104  1  0  0  0
 33 34  1  0  0  0
 33 66  1  0  0  0
 33 70  2  0  0  0
 34 36  1  0  0  0
 34 59  1  0  0  0
 34105  1  0  0  0
 35 44  2  0  0  0
 35 45  1  0  0  0
 35 68  1  0  0  0
 36 56  1  0  0  0
 36106  1  0  0  0
 37 39  1  0  0  0
 37 47  1  0  0  0
 37 66  1  0  0  0
 37107  1  0  0  0
 38 43  2  0  0  0
 38 46  1  0  0  0
 38 47  1  0  0  0
 39 64  1  0  0  0
 39 67  2  0  0  0
 40 52  1  0  0  0
 40 53  2  0  0  0
 40 58  1  0  0  0
 41108  1  0  0  0
 41109  1  0  0  0
 41110  1  0  0  0
 41 48  1  0  0  0
 42 43  1  0  0  0
 42 66  1  0  0  0
 42111  1  0  0  0
 42112  1  0  0  0
 43 44  1  0  0  0
 44113  1  0  0  0
 45 46  2  0  0  0
 45114  1  0  0  0
 46115  1  0  0  0
 47116  1  0  0  0
 47117  1  0  0  0
 48 56  1  0  0  0
 48 65  1  0  0  0
 48118  1  0  0  0
 49 50  1  0  0  0
 49 53  1  0  0  0
 49 64  1  0  0  0
 49119  1  0  0  0
 50 51  1  0  0  0
 50120  1  0  0  0
 50121  1  0  0  0
 51 52  1  0  0  0
 51122  1  0  0  0
 51123  1  0  0  0
 52124  1  0  0  0
 52125  1  0  0  0
 53 54  1  0  0  0
 54 55  2  0  0  0
 54126  1  0  0  0
 55 57  1  0  0  0
 55127  1  0  0  0
 56 69  2  0  0  0
 57 58  2  0  0  0
 57128  1  0  0  0
 58129  1  0  0  0
 59 60  1  0  0  0
 59 61  1  0  0  0
 59 62  1  0  0  0
 60130  1  0  0  0
 60131  1  0  0  0
 60132  1  0  0  0
 61133  1  0  0  0
 61134  1  0  0  0
 61135  1  0  0  0
 62136  1  0  0  0
 62137  1  0  0  0
 62138  1  0  0  0
 63 65  1  0  0  0
 63139  1  0  0  0
 63140  1  0  0  0
 63141  1  0  0  0
 64142  1  0  0  0
 65143  1  0  0  0
 68 81  1  0  0  0
 71 73  2  0  0  0
 71 74  1  0  0  0
 71144  1  0  0  0
 72 73  1  0  0  0
 72 75  2  0  0  0
 72145  1  0  0  0
 73 78  1  0  0  0
 74 76  1  0  0  0
 74 83  2  0  0  0
 75 82  1  0  0  0
 75 83  1  0  0  0
 76146  1  0  0  0
 76147  1  0  0  0
 76148  1  0  0  0
 77149  1  0  0  0
 77150  1  0  0  0
 77151  1  0  0  0
 77 82  1  0  0  0
 78 79  1  0  0  0
 78152  1  0  0  0
 78153  1  0  0  0
 79 81  1  0  0  0
 79154  1  0  0  0
 79155  1  0  0  0
 80 82  1  0  0  0
 80 84  1  0  0  0
 80156  1  0  0  0
 80157  1  0  0  0
 81158  1  0  0  0
 81159  1  0  0  0
 82160  1  0  0  0
 84161  1  0  0  0
M  ISO  4   1 100  68 101  81 101  84 100
M  END
> <chiral flag>
0

> <version>
0

> <s_m_source_file>
/data/baiqing/PycharmProjects/Reinvent-master-3.2/result/LINK_invent/BTK/process_docking_weight1_custom_sum_contain_oxygen_bond_distance_aromatic_linkinvent_7_9_3/rearranged_h_0084.sdf

> <i_m_source_file_index>
90

> <r_mmod_Potential_Energy-OPLS-2005>
-259.954864501953

> <r_mmod_Stretch_Energy-OPLS-2005>
39.0413551330566

> <r_mmod_Bend_Energy-OPLS-2005>
89.8553085327148

> <r_mmod_Torsional_Energy-OPLS-2005>
210.275512695312

> <r_mmod_Improper_Torsional_Energy-OPLS-2005>
4.32397079467773

> <r_mmod_Van_der_Waal_Energy-OPLS-2005>
152.904174804688

> <r_mmod_Electrostatic_Energy-OPLS-2005>
-553.132751464844

> <r_mmod_Solvation_Energy-OPLS-2005>
-221.301162719727

> <b_mmod_Minimization_Converged-OPLS-2005>
0

> <r_mmod_RMS_Derivative-OPLS-2005>
3.33321523666382

$$$$
90
                    3D
 Structure written by MMmdl.
167175  0  0  1  0            999 V2000
  -30.6891  -14.5032   20.5303 C   0  0  0  0  0  0
  -30.4244  -12.3093   19.4390 C   0  0  0  0  0  0
  -29.5000  -12.4899   18.2162 C   0  0  0  0  0  0
  -28.0222  -12.3504   18.6286 C   0  0  0  0  0  0
  -27.6632  -13.2055   19.8741 C   0  0  2  0  0  0
  -28.7054  -13.0186   21.0016 C   0  0  0  0  0  0
  -25.2626  -13.8166   20.5679 C   0  0  0  0  0  0
  -24.1870  -13.0456   20.9173 C   0  0  0  0  0  0
  -24.6412  -11.6922   20.8738 C   0  0  0  0  0  0
  -23.9077  -10.4310   21.0410 C   0  0  0  0  0  0
  -24.3635   -9.4206   21.9171 C   0  0  0  0  0  0
  -23.6302   -8.2242   22.0741 C   0  0  0  0  0  0
  -22.4282   -8.0284   21.3545 C   0  0  0  0  0  0
  -21.9924   -9.0261   20.4649 C   0  0  0  0  0  0
  -22.7250  -10.2141   20.3059 C   0  0  0  0  0  0
  -21.6856   -6.0748   22.5289 C   0  0  0  0  0  0
  -21.4013   -6.5642   23.8226 C   0  0  0  0  0  0
  -21.3657   -5.6776   24.9177 C   0  0  0  0  0  0
  -21.6044   -4.3042   24.7209 C   0  0  0  0  0  0
  -21.8831   -3.8152   23.4321 C   0  0  0  0  0  0
  -21.9194   -4.6980   22.3391 C   0  0  0  0  0  0
  -22.7886  -13.5249   21.1808 C   0  0  0  0  0  0
  -22.1670   -4.2179   21.0964 F   0  0  0  0  0  0
  -21.5623   -3.4521   25.7717 F   0  0  0  0  0  0
  -30.0347  -13.3130   20.4445 N   0  0  0  0  0  0
  -26.3055  -12.9332   20.3375 N   0  0  0  0  0  0
  -25.9346  -11.6496   20.5788 N   0  0  0  0  0  0
  -22.0505  -12.8299   22.0388 N   0  0  0  0  0  0
  -25.4367  -15.1891   20.4075 N   0  0  0  0  0  0
  -31.8260  -14.6722   20.0843 O   0  0  0  0  0  0
  -21.6631   -6.8895   21.4254 O   0  0  0  0  0  0
  -22.3582  -14.5528   20.6591 O   0  0  0  0  0  0
  -24.6217  -31.8640   23.2074 C   0  0  0  0  0  0
  -25.9094  -32.4796   23.8393 C   0  0  1  0  0  0
  -27.2443  -27.3886   20.0965 C   0  0  0  0  0  0
  -25.5935  -33.8599   24.2312 N   0  0  0  0  0  0
  -23.4122  -30.4863   21.5487 C   0  0  2  0  0  0
  -24.8573  -28.9378   20.1192 C   0  0  0  0  0  0
  -22.7447  -29.4659   22.4983 C   0  0  0  0  0  0
  -18.0285  -28.1398   22.8489 C   0  0  0  0  0  0
  -24.1491  -36.7298   23.2635 C   0  0  0  0  0  0
  -25.9471  -30.8099   21.3707 C   0  0  0  0  0  0
  -26.0198  -29.4430   20.7110 C   0  0  0  0  0  0
  -27.2117  -28.6776   20.6906 C   0  0  0  0  0  0
  -26.0535  -26.8982   19.5125 C   0  0  0  0  0  0
  -24.8694  -27.6646   19.5217 C   0  0  0  0  0  0
  -23.6242  -29.8144   20.1646 C   0  0  0  0  0  0
  -25.4110  -36.3091   24.0337 C   0  0  1  0  0  0
  -20.5878  -28.3695   23.1290 C   0  0  2  0  0  0
  -20.6779  -26.9426   22.5406 C   0  0  0  0  0  0
  -19.5748  -26.6400   21.5212 C   0  0  0  0  0  0
  -18.1929  -26.7947   22.1619 C   0  0  0  0  0  0
  -19.1537  -28.8865   23.2889 C   0  0  0  0  0  0
  -18.9466  -30.1468   23.8902 C   0  0  0  0  0  0
  -17.6466  -30.6601   24.0571 C   0  0  0  0  0  0
  -25.9050  -34.9462   23.5122 C   0  0  0  0  0  0
  -16.5359  -29.9099   23.6334 C   0  0  0  0  0  0
  -16.7274  -28.6517   23.0350 C   0  0  0  0  0  0
  -26.4498  -31.6604   25.0752 C   0  0  0  0  0  0
  -25.3761  -31.3739   26.1504 C   0  0  0  0  0  0
  -27.0343  -30.3030   24.6211 C   0  0  0  0  0  0
  -27.6083  -32.4339   25.7496 C   0  0  0  0  0  0
  -27.5589  -37.1790   24.8457 C   0  0  0  0  0  0
  -21.4173  -29.3050   22.3704 N   0  0  0  0  0  0
  -26.4281  -37.3792   23.9431 N   0  0  0  0  0  0
  -24.6788  -31.0703   22.0982 N   0  0  0  0  0  0
  -23.4187  -28.8212   23.3070 O   0  0  0  0  0  0
  -28.4340  -26.6709   20.1164 O   0  0  0  0  0  0
  -26.5609  -34.8918   22.4681 O   0  0  0  0  0  0
  -23.5399  -32.1436   23.7427 O   0  0  0  0  0  0
  -28.3859  -21.6093   18.8167 C   0  0  0  0  0  0
  -28.4010  -19.2006   18.9544 C   0  0  0  0  0  0
  -28.0881  -20.3665   18.2200 C   0  0  0  0  0  0
  -28.9712  -21.6546   20.0913 C   0  0  0  0  0  0
  -28.9876  -19.3033   20.2285 C   0  0  0  0  0  0
  -27.4344  -18.9117   16.2134 C   0  0  0  0  0  0
  -28.0090  -21.3103   15.8685 C   0  0  0  0  0  0
  -25.8968  -20.6821   17.0894 C   0  0  0  0  0  0
  -29.2982  -23.0173   20.7337 C   0  0  0  0  0  0
  -29.1909  -18.0109   21.0567 C   0  0  0  0  0  0
  -28.2365  -24.1698   20.5861 C   0  0  0  0  0  0
  -30.1852  -16.9576   20.4722 C   0  0  0  0  0  0
  -28.5533  -25.3262   19.5800 C   0  0  0  0  0  0
  -27.3729  -20.3126   16.8608 C   0  0  0  0  0  0
  -29.2771  -20.5159   20.7837 N   0  0  0  0  0  0
  -29.9418  -15.5601   20.9134 N   0  0  0  0  0  0
  -31.4687  -12.4076   19.1351 H   0  0  0  0  0  0
  -30.3247  -11.3047   19.8536 H   0  0  0  0  0  0
  -29.7428  -11.7535   17.4477 H   0  0  0  0  0  0
  -29.6690  -13.4678   17.7642 H   0  0  0  0  0  0
  -27.8411  -11.2959   18.8406 H   0  0  0  0  0  0
  -27.3666  -12.6057   17.7943 H   0  0  0  0  0  0
  -27.6986  -14.2477   19.5568 H   0  0  0  0  0  0
  -28.6818  -11.9952   21.3764 H   0  0  0  0  0  0
  -28.4739  -13.6507   21.8596 H   0  0  0  0  0  0
  -25.2793   -9.5663   22.4728 H   0  0  0  0  0  0
  -24.0016   -7.4633   22.7460 H   0  0  0  0  0  0
  -21.0841   -8.8785   19.8955 H   0  0  0  0  0  0
  -22.3719  -10.9678   19.6163 H   0  0  0  0  0  0
  -21.2015   -7.6154   23.9756 H   0  0  0  0  0  0
  -21.1469   -6.0484   25.9087 H   0  0  0  0  0  0
  -22.0619   -2.7615   23.2795 H   0  0  0  0  0  0
  -22.4080  -11.9993   22.4871 H   0  0  0  0  0  0
  -21.1133  -13.1380   22.2551 H   0  0  0  0  0  0
  -24.6659  -15.8402   20.5034 H   0  0  0  0  0  0
  -26.2865  -15.6281   20.0787 H   0  0  0  0  0  0
  -26.7171  -32.5460   23.1156 H   0  0  0  0  0  0
  -25.0104  -33.9759   25.0472 H   0  0  0  0  0  0
  -22.7061  -31.3069   21.4046 H   0  0  0  0  0  0
  -23.3759  -35.9619   23.3278 H   0  0  0  0  0  0
  -24.3593  -36.8935   22.2050 H   0  0  0  0  0  0
  -23.7223  -37.6492   23.6663 H   0  0  0  0  0  0
  -26.0876  -31.5795   20.6101 H   0  0  0  0  0  0
  -26.8237  -30.8442   22.0067 H   0  0  0  0  0  0
  -28.1124  -29.0714   21.1402 H   0  0  0  0  0  0
  -26.0114  -25.9201   19.0584 H   0  0  0  0  0  0
  -23.9708  -27.2610   19.0769 H   0  0  0  0  0  0
  -23.7523  -30.5906   19.4097 H   0  0  0  0  0  0
  -22.7444  -29.2480   19.8537 H   0  0  0  0  0  0
  -25.1279  -36.1950   25.0828 H   0  0  0  0  0  0
  -20.9971  -28.3266   24.1408 H   0  0  0  0  0  0
  -20.5696  -26.2311   23.3604 H   0  0  0  0  0  0
  -21.6649  -26.7477   22.1187 H   0  0  0  0  0  0
  -19.6911  -25.6309   21.1245 H   0  0  0  0  0  0
  -19.6681  -27.3216   20.6740 H   0  0  0  0  0  0
  -17.4205  -26.6707   21.4016 H   0  0  0  0  0  0
  -18.0319  -26.0089   22.9005 H   0  0  0  0  0  0
  -19.7941  -30.7286   24.2274 H   0  0  0  0  0  0
  -17.5019  -31.6273   24.5184 H   0  0  0  0  0  0
  -15.5359  -30.2999   23.7666 H   0  0  0  0  0  0
  -15.8670  -28.0841   22.7057 H   0  0  0  0  0  0
  -24.5902  -30.7124   25.7845 H   0  0  0  0  0  0
  -24.8989  -32.2898   26.4996 H   0  0  0  0  0  0
  -25.8092  -30.8873   27.0248 H   0  0  0  0  0  0
  -26.2905  -29.6767   24.1267 H   0  0  0  0  0  0
  -27.4071  -29.7310   25.4719 H   0  0  0  0  0  0
  -27.8770  -30.4329   23.9417 H   0  0  0  0  0  0
  -27.2710  -33.3615   26.2142 H   0  0  0  0  0  0
  -28.3833  -32.6951   25.0276 H   0  0  0  0  0  0
  -28.0834  -31.8441   26.5349 H   0  0  0  0  0  0
  -28.2583  -38.0113   24.7556 H   0  0  0  0  0  0
  -28.1110  -36.2652   24.6208 H   0  0  0  0  0  0
  -27.2328  -37.1345   25.8863 H   0  0  0  0  0  0
  -20.9381  -29.8753   21.6873 H   0  0  0  0  0  0
  -26.0169  -38.2863   24.1463 H   0  0  0  0  0  0
  -28.1485  -22.5333   18.3126 H   0  0  0  0  0  0
  -28.1644  -18.2183   18.5735 H   0  0  0  0  0  0
  -28.4639  -18.5676   16.1071 H   0  0  0  0  0  0
  -26.9881  -18.9136   15.2176 H   0  0  0  0  0  0
  -26.8889  -18.1688   16.7955 H   0  0  0  0  0  0
  -29.0790  -21.1306   15.7637 H   0  0  0  0  0  0
  -27.8812  -22.3473   16.1760 H   0  0  0  0  0  0
  -27.5659  -21.2273   14.8761 H   0  0  0  0  0  0
  -25.4558  -20.0531   17.8641 H   0  0  0  0  0  0
  -25.3039  -20.5564   16.1835 H   0  0  0  0  0  0
  -25.7881  -21.7164   17.4187 H   0  0  0  0  0  0
  -30.2719  -23.3463   20.3685 H   0  0  0  0  0  0
  -29.4461  -22.8367   21.7985 H   0  0  0  0  0  0
  -28.2071  -17.5487   21.1518 H   0  0  0  0  0  0
  -29.4961  -18.2673   22.0723 H   0  0  0  0  0  0
  -28.1541  -24.6335   21.5687 H   0  0  0  0  0  0
  -27.2465  -23.7530   20.4005 H   0  0  0  0  0  0
  -31.2134  -17.2539   20.6858 H   0  0  0  0  0  0
  -30.0935  -16.9532   19.3852 H   0  0  0  0  0  0
  -28.0020  -25.2096   18.6469 H   0  0  0  0  0  0
  -29.5962  -25.2354   19.2741 H   0  0  0  0  0  0
  -29.0348  -15.3458   21.3017 H   0  0  0  0  0  0
  1 25  1  0  0  0
  1 30  2  0  0  0
  1 86  1  0  0  0
  2  3  1  0  0  0
  2 25  1  0  0  0
  2 87  1  0  0  0
  2 88  1  0  0  0
  3  4  1  0  0  0
  3 89  1  0  0  0
  3 90  1  0  0  0
  4  5  1  0  0  0
  4 91  1  0  0  0
  4 92  1  0  0  0
  5  6  1  0  0  0
  5 26  1  0  0  0
  5 93  1  0  0  0
  6 25  1  0  0  0
  6 94  1  0  0  0
  6 95  1  0  0  0
  7  8  2  0  0  0
  7 26  1  0  0  0
  7 29  1  0  0  0
  8  9  1  0  0  0
  8 22  1  0  0  0
  9 10  1  0  0  0
  9 27  2  0  0  0
 10 11  2  0  0  0
 10 15  1  0  0  0
 11 12  1  0  0  0
 11 96  1  0  0  0
 12 13  2  0  0  0
 12 97  1  0  0  0
 13 14  1  0  0  0
 13 31  1  0  0  0
 14 15  2  0  0  0
 14 98  1  0  0  0
 15 99  1  0  0  0
 16 17  2  0  0  0
 16 21  1  0  0  0
 16 31  1  0  0  0
 17 18  1  0  0  0
 17100  1  0  0  0
 18 19  2  0  0  0
 18101  1  0  0  0
 19 20  1  0  0  0
 19 24  1  0  0  0
 20 21  2  0  0  0
 20102  1  0  0  0
 21 23  1  0  0  0
 22 28  1  0  0  0
 22 32  2  0  0  0
 26 27  1  0  0  0
 28103  1  0  0  0
 28104  1  0  0  0
 29105  1  0  0  0
 29106  1  0  0  0
 33 34  1  0  0  0
 33 66  1  0  0  0
 33 70  2  0  0  0
 34 36  1  0  0  0
 34 59  1  0  0  0
 34107  1  0  0  0
 35 44  2  0  0  0
 35 45  1  0  0  0
 35 68  1  0  0  0
 36 56  1  0  0  0
 36108  1  0  0  0
 37 39  1  0  0  0
 37 47  1  0  0  0
 37 66  1  0  0  0
 37109  1  0  0  0
 38 43  2  0  0  0
 38 46  1  0  0  0
 38 47  1  0  0  0
 39 64  1  0  0  0
 39 67  2  0  0  0
 40 52  1  0  0  0
 40 53  2  0  0  0
 40 58  1  0  0  0
 41110  1  0  0  0
 41111  1  0  0  0
 41112  1  0  0  0
 41 48  1  0  0  0
 42 43  1  0  0  0
 42 66  1  0  0  0
 42113  1  0  0  0
 42114  1  0  0  0
 43 44  1  0  0  0
 44115  1  0  0  0
 45 46  2  0  0  0
 45116  1  0  0  0
 46117  1  0  0  0
 47118  1  0  0  0
 47119  1  0  0  0
 48 56  1  0  0  0
 48 65  1  0  0  0
 48120  1  0  0  0
 49 50  1  0  0  0
 49 53  1  0  0  0
 49 64  1  0  0  0
 49121  1  0  0  0
 50 51  1  0  0  0
 50122  1  0  0  0
 50123  1  0  0  0
 51 52  1  0  0  0
 51124  1  0  0  0
 51125  1  0  0  0
 52126  1  0  0  0
 52127  1  0  0  0
 53 54  1  0  0  0
 54 55  2  0  0  0
 54128  1  0  0  0
 55 57  1  0  0  0
 55129  1  0  0  0
 56 69  2  0  0  0
 57 58  2  0  0  0
 57130  1  0  0  0
 58131  1  0  0  0
 59 60  1  0  0  0
 59 61  1  0  0  0
 59 62  1  0  0  0
 60132  1  0  0  0
 60133  1  0  0  0
 60134  1  0  0  0
 61135  1  0  0  0
 61136  1  0  0  0
 61137  1  0  0  0
 62138  1  0  0  0
 62139  1  0  0  0
 62140  1  0  0  0
 63 65  1  0  0  0
 63141  1  0  0  0
 63142  1  0  0  0
 63143  1  0  0  0
 64144  1  0  0  0
 65145  1  0  0  0
 68 83  1  0  0  0
 71 73  2  0  0  0
 71 74  1  0  0  0
 71146  1  0  0  0
 72 73  1  0  0  0
 72 75  2  0  0  0
 72147  1  0  0  0
 73 84  1  0  0  0
 74 79  1  0  0  0
 74 85  2  0  0  0
 75 80  1  0  0  0
 75 85  1  0  0  0
 76148  1  0  0  0
 76149  1  0  0  0
 76150  1  0  0  0
 76 84  1  0  0  0
 77 84  1  0  0  0
 77151  1  0  0  0
 77152  1  0  0  0
 77153  1  0  0  0
 78 84  1  0  0  0
 78154  1  0  0  0
 78155  1  0  0  0
 78156  1  0  0  0
 79 81  1  0  0  0
 79157  1  0  0  0
 79158  1  0  0  0
 80 82  1  0  0  0
 80159  1  0  0  0
 80160  1  0  0  0
 81 83  1  0  0  0
 81161  1  0  0  0
 81162  1  0  0  0
 82 86  1  0  0  0
 82163  1  0  0  0
 82164  1  0  0  0
 83165  1  0  0  0
 83166  1  0  0  0
 86167  1  0  0  0
M  ISO  4   1 100  68 101  83 101  86 100
M  END
> <chiral flag>
0

> <version>
0

> <s_m_source_file>
/data/baiqing/PycharmProjects/Reinvent-master-3.2/result/LINK_invent/BTK/process_docking_weight1_custom_sum_contain_oxygen_bond_distance_aromatic_linkinvent_7_9_3/rearranged_h_0084.sdf

> <i_m_source_file_index>
91

> <r_mmod_Potential_Energy-OPLS-2005>
-231.818145751953

> <r_mmod_Stretch_Energy-OPLS-2005>
50.0146369934082

> <r_mmod_Bend_Energy-OPLS-2005>
122.642868041992

> <r_mmod_Torsional_Energy-OPLS-2005>
220.095916748047

> <r_mmod_Improper_Torsional_Energy-OPLS-2005>
6.64826631546021

> <r_mmod_Van_der_Waal_Energy-OPLS-2005>
154.3330078125

> <r_mmod_Electrostatic_Energy-OPLS-2005>
-587.619018554688

> <r_mmod_Solvation_Energy-OPLS-2005>
-217.136962890625

> <b_mmod_Minimization_Converged-OPLS-2005>
0

> <r_mmod_RMS_Derivative-OPLS-2005>
2.74020528793335

$$$$
91
                    3D
 Structure written by MMmdl.
173181  0  0  1  0            999 V2000
  -30.9761  -13.0538   20.4719 C   0  0  0  0  0  0
  -30.5552  -13.9892   18.6671 C   0  0  0  0  0  0
  -29.8682  -15.6281   19.3834 C   0  0  0  0  0  0
  -27.7899  -15.5035   20.3288 C   0  0  0  0  0  0
  -27.2294  -13.5071   20.4499 C   0  0  2  0  0  0
  -28.4570  -12.2727   19.7708 C   0  0  0  0  0  0
  -24.9106  -13.8624   20.6114 C   0  0  0  0  0  0
  -23.9268  -13.0136   20.9501 C   0  0  0  0  0  0
  -24.4725  -11.6981   20.8845 C   0  0  0  0  0  0
  -23.8036  -10.4187   21.0610 C   0  0  0  0  0  0
  -24.2805   -9.4267   21.9589 C   0  0  0  0  0  0
  -23.5876   -8.2064   22.0912 C   0  0  0  0  0  0
  -22.4032   -7.9909   21.3573 C   0  0  0  0  0  0
  -21.9540   -8.9685   20.4732 C   0  0  0  0  0  0
  -22.6420  -10.1701   20.3180 C   0  0  0  0  0  0
  -21.6777   -6.0471   22.5353 C   0  0  0  0  0  0
  -21.3850   -6.5512   23.8223 C   0  0  0  0  0  0
  -21.3556   -5.6762   24.9332 C   0  0  0  0  0  0
  -21.5996   -4.2993   24.7451 C   0  0  0  0  0  0
  -21.8825   -3.7956   23.4661 C   0  0  0  0  0  0
  -21.9207   -4.6705   22.3633 C   0  0  0  0  0  0
  -22.5595  -13.4701   21.2394 C   0  0  0  0  0  0
  -22.1670   -4.1857   21.1203 F   0  0  0  0  0  0
  -21.5726   -3.4558   25.8049 F   0  0  0  0  0  0
  -30.1267  -12.6736   19.4325 N   0  0  0  0  0  0
  -25.9575  -13.0543   20.3783 N   0  0  0  0  0  0
  -25.7407  -11.7306   20.5699 N   0  0  0  0  0  0
  -21.8628  -12.7902   22.1544 N   0  0  0  0  0  0
  -24.9877  -15.2282   20.5298 N   0  0  0  0  0  0
  -32.0595  -13.7225   20.4675 O   0  0  0  0  0  0
  -21.6500   -6.8374   21.4241 O   0  0  0  0  0  0
  -22.1146  -14.4957   20.7049 O   0  0  0  0  0  0
  -24.6804  -31.8051   23.1730 C   0  0  0  0  0  0
  -25.9384  -32.4539   23.8177 C   0  0  1  0  0  0
  -27.0502  -26.7699   19.9277 C   0  0  0  0  0  0
  -25.5985  -33.8397   24.1977 N   0  0  0  0  0  0
  -23.4880  -30.4381   21.5353 C   0  0  2  0  0  0
  -24.8911  -28.8167   20.0913 C   0  0  0  0  0  0
  -22.7704  -29.4370   22.4804 C   0  0  0  0  0  0
  -18.0309  -28.1393   22.8476 C   0  0  0  0  0  0
  -24.1477  -36.7267   23.2629 C   0  0  0  0  0  0
  -26.0827  -30.5210   21.4426 C   0  0  0  0  0  0
  -26.1084  -29.1245   20.7109 C   0  0  0  0  0  0
  -27.1983  -28.1156   20.6069 C   0  0  0  0  0  0
  -25.8000  -26.6553   19.3230 C   0  0  0  0  0  0
  -24.7651  -27.6047   19.4048 C   0  0  0  0  0  0
  -23.7262  -29.7942   20.1506 C   0  0  0  0  0  0
  -25.4121  -36.2987   24.0250 C   0  0  1  0  0  0
  -20.5947  -28.3745   23.1246 C   0  0  2  0  0  0
  -20.6810  -26.9424   22.5473 C   0  0  0  0  0  0
  -19.5789  -26.6332   21.5270 C   0  0  0  0  0  0
  -18.1947  -26.7931   22.1605 C   0  0  0  0  0  0
  -19.1575  -28.8892   23.2827 C   0  0  0  0  0  0
  -18.9469  -30.1490   23.8861 C   0  0  0  0  0  0
  -17.6465  -30.6607   24.0559 C   0  0  0  0  0  0
  -25.9086  -34.9354   23.4918 C   0  0  0  0  0  0
  -16.5362  -29.9099   23.6351 C   0  0  0  0  0  0
  -16.7282  -28.6512   23.0370 C   0  0  0  0  0  0
  -26.4523  -31.6737   25.0899 C   0  0  0  0  0  0
  -25.3637  -31.4231   26.1601 C   0  0  0  0  0  0
  -27.0549  -30.3094   24.6992 C   0  0  0  0  0  0
  -27.5898  -32.4713   25.7740 C   0  0  0  0  0  0
  -27.5546  -37.1853   24.8405 C   0  0  0  0  0  0
  -21.4354  -29.3051   22.3641 N   0  0  0  0  0  0
  -26.4235  -37.3752   23.9386 N   0  0  0  0  0  0
  -24.7759  -30.9497   22.1010 N   0  0  0  0  0  0
  -23.4235  -28.7859   23.2989 O   0  0  0  0  0  0
  -27.8952  -25.5222   19.7129 O   0  0  0  0  0  0
  -26.5671  -34.8870   22.4497 O   0  0  0  0  0  0
  -23.5842  -32.1153   23.6660 O   0  0  0  0  0  0
  -28.2114  -15.6387   17.5543 C   0  0  0  0  0  0
  -26.8063  -14.5478   17.9704 C   0  0  0  0  0  0
  -27.3744  -16.8589   17.7750 C   0  0  0  0  0  0
  -26.3154  -15.8488   17.5553 C   0  0  0  0  0  0
  -24.7718  -15.1403   15.5862 C   0  0  0  0  0  0
  -24.6922  -17.4815   16.1613 C   0  0  0  0  0  0
  -23.6461  -15.7728   17.7024 C   0  0  0  0  0  0
  -29.6558  -11.7113   22.2990 C   0  0  0  0  0  0
  -31.0144  -13.7078   22.9412 C   0  0  0  0  0  0
  -27.3633  -18.7505   17.7036 C   0  0  0  0  0  0
  -27.4439  -20.3779   18.7320 C   0  0  0  0  0  0
  -27.6035  -22.2705   18.5037 C   0  0  0  0  0  0
  -29.3771  -14.0954   20.9522 C   0  0  0  0  0  0
  -27.4252  -23.8576   19.5448 C   0  0  0  0  0  0
  -24.9068  -16.0832   16.8304 C   0  0  0  0  0  0
  -30.2467  -13.0414   21.7274 C   0  0  0  0  0  0
  -28.2045  -14.3501   18.4888 N   0  0  0  0  0  0
  -31.5989  -14.0794   18.3388 H   0  0  0  0  0  0
  -30.2236  -13.8002   17.6331 H   0  0  0  0  0  0
  -29.9790  -16.5065   18.7367 H   0  0  0  0  0  0
  -30.6168  -16.0455   20.0700 H   0  0  0  0  0  0
  -27.0636  -16.2358   19.9840 H   0  0  0  0  0  0
  -27.7720  -15.9226   21.3455 H   0  0  0  0  0  0
  -27.1807  -13.3302   21.5317 H   0  0  0  0  0  0
  -28.0815  -11.9072   18.8005 H   0  0  0  0  0  0
  -28.3326  -11.3476   20.3128 H   0  0  0  0  0  0
  -25.1587   -9.6220   22.5582 H   0  0  0  0  0  0
  -23.9502   -7.4560   22.7754 H   0  0  0  0  0  0
  -21.0447   -8.7735   19.9181 H   0  0  0  0  0  0
  -22.2483  -10.9117   19.6300 H   0  0  0  0  0  0
  -21.1603   -7.5971   23.9634 H   0  0  0  0  0  0
  -21.1479   -6.0603   25.9177 H   0  0  0  0  0  0
  -22.0730   -2.7450   23.3343 H   0  0  0  0  0  0
  -22.2210  -11.9510   22.5747 H   0  0  0  0  0  0
  -20.9421  -13.0939   22.4103 H   0  0  0  0  0  0
  -24.0923  -15.6274   20.2691 H   0  0  0  0  0  0
  -25.7228  -15.5078   19.8838 H   0  0  0  0  0  0
  -26.7388  -32.4872   23.0792 H   0  0  0  0  0  0
  -25.0312  -33.9561   25.0247 H   0  0  0  0  0  0
  -22.8040  -31.2802   21.3828 H   0  0  0  0  0  0
  -23.3764  -35.9576   23.3167 H   0  0  0  0  0  0
  -24.3548  -36.9095   22.2076 H   0  0  0  0  0  0
  -23.7199  -37.6391   23.6809 H   0  0  0  0  0  0
  -26.3558  -31.2926   20.7234 H   0  0  0  0  0  0
  -26.8951  -30.4973   22.1561 H   0  0  0  0  0  0
  -28.1397  -28.3208   21.0981 H   0  0  0  0  0  0
  -25.5863  -25.7718   18.7475 H   0  0  0  0  0  0
  -23.8305  -27.3862   18.9082 H   0  0  0  0  0  0
  -23.9556  -30.5860   19.4377 H   0  0  0  0  0  0
  -22.8122  -29.3325   19.7837 H   0  0  0  0  0  0
  -25.1325  -36.1763   25.0753 H   0  0  0  0  0  0
  -20.9929  -28.3328   24.1390 H   0  0  0  0  0  0
  -20.5714  -26.2354   23.3711 H   0  0  0  0  0  0
  -21.6683  -26.7445   22.1256 H   0  0  0  0  0  0
  -19.6950  -25.6198   21.1410 H   0  0  0  0  0  0
  -19.6765  -27.3070   20.6743 H   0  0  0  0  0  0
  -17.4258  -26.6737   21.3955 H   0  0  0  0  0  0
  -18.0232  -26.0086   22.8984 H   0  0  0  0  0  0
  -19.7962  -30.7314   24.2209 H   0  0  0  0  0  0
  -17.5033  -31.6275   24.5159 H   0  0  0  0  0  0
  -15.5366  -30.2968   23.7699 H   0  0  0  0  0  0
  -15.8681  -28.0803   22.7093 H   0  0  0  0  0  0
  -24.5720  -30.7565   25.8132 H   0  0  0  0  0  0
  -24.8913  -32.3577   26.4714 H   0  0  0  0  0  0
  -25.7859  -30.9747   27.0602 H   0  0  0  0  0  0
  -26.3198  -29.6418   24.2474 H   0  0  0  0  0  0
  -27.4481  -29.7935   25.5748 H   0  0  0  0  0  0
  -27.9007  -30.4233   24.0212 H   0  0  0  0  0  0
  -27.2352  -33.4157   26.1885 H   0  0  0  0  0  0
  -28.3972  -32.7059   25.0805 H   0  0  0  0  0  0
  -28.0230  -31.9189   26.6093 H   0  0  0  0  0  0
  -28.2434  -38.0262   24.7481 H   0  0  0  0  0  0
  -28.1156  -36.2768   24.6156 H   0  0  0  0  0  0
  -27.2263  -37.1406   25.8803 H   0  0  0  0  0  0
  -20.9552  -29.9012   21.7062 H   0  0  0  0  0  0
  -26.0039  -38.2783   24.1467 H   0  0  0  0  0  0
  -29.1608  -15.6795   17.0368 H   0  0  0  0  0  0
  -26.1742  -13.6912   17.9725 H   0  0  0  0  0  0
  -25.5204  -15.3939   14.8272 H   0  0  0  0  0  0
  -23.8076  -15.2418   15.0828 H   0  0  0  0  0  0
  -24.9353  -14.0849   15.8023 H   0  0  0  0  0  0
  -25.4611  -17.7009   15.4183 H   0  0  0  0  0  0
  -24.6582  -18.3224   16.8339 H   0  0  0  0  0  0
  -23.7268  -17.5693   15.6536 H   0  0  0  0  0  0
  -23.5951  -14.7212   17.9925 H   0  0  0  0  0  0
  -22.7104  -15.9620   17.1736 H   0  0  0  0  0  0
  -23.6013  -16.3780   18.6045 H   0  0  0  0  0  0
  -30.0827  -11.4598   23.2841 H   0  0  0  0  0  0
  -29.8557  -10.8236   21.6808 H   0  0  0  0  0  0
  -28.5791  -11.7938   22.4745 H   0  0  0  0  0  0
  -30.3350  -13.9892   23.7586 H   0  0  0  0  0  0
  -31.5401  -14.6336   22.6707 H   0  0  0  0  0  0
  -31.7699  -13.0378   23.3690 H   0  0  0  0  0  0
  -26.3038  -18.8532   17.6473 H   0  0  0  0  0  0
  -27.6228  -18.9912   16.6792 H   0  0  0  0  0  0
  -26.5084  -20.3948   19.3031 H   0  0  0  0  0  0
  -28.2044  -20.1513   19.4723 H   0  0  0  0  0  0
  -26.8756  -22.4709   17.7132 H   0  0  0  0  0  0
  -28.5643  -22.3998   17.9974 H   0  0  0  0  0  0
  -29.7389  -15.0009   21.4743 H   0  0  0  0  0  0
  -28.7876  -14.1743   21.8762 H   0  0  0  0  0  0
  -26.3479  -23.9391   19.6454 H   0  0  0  0  0  0
  -27.7670  -23.4924   20.5157 H   0  0  0  0  0  0
  1 25  1  0  0  0
  1 30  2  0  0  0
  1 86  1  0  0  0
  2  3  1  0  0  0
  2 25  1  0  0  0
  2 88  1  0  0  0
  2 89  1  0  0  0
  3  4  1  0  0  0
  3 90  1  0  0  0
  3 91  1  0  0  0
  4  5  1  0  0  0
  4 92  1  0  0  0
  4 93  1  0  0  0
  5  6  1  0  0  0
  5 26  1  0  0  0
  5 94  1  0  0  0
  6 25  1  0  0  0
  6 95  1  0  0  0
  6 96  1  0  0  0
  7  8  2  0  0  0
  7 26  1  0  0  0
  7 29  1  0  0  0
  8  9  1  0  0  0
  8 22  1  0  0  0
  9 10  1  0  0  0
  9 27  2  0  0  0
 10 11  2  0  0  0
 10 15  1  0  0  0
 11 12  1  0  0  0
 11 97  1  0  0  0
 12 13  2  0  0  0
 12 98  1  0  0  0
 13 14  1  0  0  0
 13 31  1  0  0  0
 14 15  2  0  0  0
 14 99  1  0  0  0
 15100  1  0  0  0
 16 17  2  0  0  0
 16 21  1  0  0  0
 16 31  1  0  0  0
 17 18  1  0  0  0
 17101  1  0  0  0
 18 19  2  0  0  0
 18102  1  0  0  0
 19 20  1  0  0  0
 19 24  1  0  0  0
 20 21  2  0  0  0
 20103  1  0  0  0
 21 23  1  0  0  0
 22 28  1  0  0  0
 22 32  2  0  0  0
 26 27  1  0  0  0
 28104  1  0  0  0
 28105  1  0  0  0
 29106  1  0  0  0
 29107  1  0  0  0
 33 34  1  0  0  0
 33 66  1  0  0  0
 33 70  2  0  0  0
 34 36  1  0  0  0
 34 59  1  0  0  0
 34108  1  0  0  0
 35 44  2  0  0  0
 35 45  1  0  0  0
 35 68  1  0  0  0
 36 56  1  0  0  0
 36109  1  0  0  0
 37 39  1  0  0  0
 37 47  1  0  0  0
 37 66  1  0  0  0
 37110  1  0  0  0
 38 43  2  0  0  0
 38 46  1  0  0  0
 38 47  1  0  0  0
 39 64  1  0  0  0
 39 67  2  0  0  0
 40 52  1  0  0  0
 40 53  2  0  0  0
 40 58  1  0  0  0
 41111  1  0  0  0
 41112  1  0  0  0
 41113  1  0  0  0
 41 48  1  0  0  0
 42 43  1  0  0  0
 42 66  1  0  0  0
 42114  1  0  0  0
 42115  1  0  0  0
 43 44  1  0  0  0
 44116  1  0  0  0
 45 46  2  0  0  0
 45117  1  0  0  0
 46118  1  0  0  0
 47119  1  0  0  0
 47120  1  0  0  0
 48 56  1  0  0  0
 48 65  1  0  0  0
 48121  1  0  0  0
 49 50  1  0  0  0
 49 53  1  0  0  0
 49 64  1  0  0  0
 49122  1  0  0  0
 50 51  1  0  0  0
 50123  1  0  0  0
 50124  1  0  0  0
 51 52  1  0  0  0
 51125  1  0  0  0
 51126  1  0  0  0
 52127  1  0  0  0
 52128  1  0  0  0
 53 54  1  0  0  0
 54 55  2  0  0  0
 54129  1  0  0  0
 55 57  1  0  0  0
 55130  1  0  0  0
 56 69  2  0  0  0
 57 58  2  0  0  0
 57131  1  0  0  0
 58132  1  0  0  0
 59 60  1  0  0  0
 59 61  1  0  0  0
 59 62  1  0  0  0
 60133  1  0  0  0
 60134  1  0  0  0
 60135  1  0  0  0
 61136  1  0  0  0
 61137  1  0  0  0
 61138  1  0  0  0
 62139  1  0  0  0
 62140  1  0  0  0
 62141  1  0  0  0
 63 65  1  0  0  0
 63142  1  0  0  0
 63143  1  0  0  0
 63144  1  0  0  0
 64145  1  0  0  0
 65146  1  0  0  0
 68 84  1  0  0  0
 71 73  2  0  0  0
 71 87  1  0  0  0
 71147  1  0  0  0
 72 74  2  0  0  0
 72 87  1  0  0  0
 72148  1  0  0  0
 73 74  1  0  0  0
 73 80  1  0  0  0
 74 85  1  0  0  0
 75149  1  0  0  0
 75150  1  0  0  0
 75151  1  0  0  0
 75 85  1  0  0  0
 76 85  1  0  0  0
 76152  1  0  0  0
 76153  1  0  0  0
 76154  1  0  0  0
 77 85  1  0  0  0
 77155  1  0  0  0
 77156  1  0  0  0
 77157  1  0  0  0
 78158  1  0  0  0
 78159  1  0  0  0
 78160  1  0  0  0
 78 86  1  0  0  0
 79 86  1  0  0  0
 79161  1  0  0  0
 79162  1  0  0  0
 79163  1  0  0  0
 80 81  1  0  0  0
 80164  1  0  0  0
 80165  1  0  0  0
 81 82  1  0  0  0
 81166  1  0  0  0
 81167  1  0  0  0
 82 84  1  0  0  0
 82168  1  0  0  0
 82169  1  0  0  0
 83 86  1  0  0  0
 83 87  1  0  0  0
 83170  1  0  0  0
 83171  1  0  0  0
 84172  1  0  0  0
 84173  1  0  0  0
M  ISO  4   1 100  68 101  84 101  86 100
M  END
> <chiral flag>
0

> <version>
0

> <s_m_source_file>
/data/baiqing/PycharmProjects/Reinvent-master-3.2/result/LINK_invent/BTK/process_docking_weight1_custom_sum_contain_oxygen_bond_distance_aromatic_linkinvent_7_9_3/rearranged_h_0084.sdf

> <i_m_source_file_index>
92

> <r_mmod_Potential_Energy-OPLS-2005>
12307.45703125

> <r_mmod_Stretch_Energy-OPLS-2005>
4867.8388671875

> <r_mmod_Bend_Energy-OPLS-2005>
1330.58557128906

> <r_mmod_Torsional_Energy-OPLS-2005>
520.21142578125

> <r_mmod_Improper_Torsional_Energy-OPLS-2005>
68.9041366577148

> <r_mmod_Van_der_Waal_Energy-OPLS-2005>
2186.89599609375

> <r_mmod_Electrostatic_Energy-OPLS-2005>
-375.995513916016

> <r_mmod_Solvation_Energy-OPLS-2005>
-167.786666870117

> <b_mmod_Minimization_Converged-OPLS-2005>
0

> <r_mmod_RMS_Derivative-OPLS-2005>
36.8048324584961

$$$$
92
                    3D
 Structure written by MMmdl.
166174  0  0  1  0            999 V2000
  -30.7477  -14.3982   20.6390 C   0  0  0  0  0  0
  -30.4135  -12.2879   19.4055 C   0  0  0  0  0  0
  -29.4853  -12.5133   18.1967 C   0  0  0  0  0  0
  -28.0091  -12.3713   18.6127 C   0  0  0  0  0  0
  -27.6634  -13.2039   19.8758 C   0  0  2  0  0  0
  -28.7012  -12.9618   20.9938 C   0  0  0  0  0  0
  -25.2596  -13.8159   20.5671 C   0  0  0  0  0  0
  -24.1845  -13.0447   20.9167 C   0  0  0  0  0  0
  -24.6390  -11.6908   20.8725 C   0  0  0  0  0  0
  -23.9059  -10.4296   21.0404 C   0  0  0  0  0  0
  -24.3613   -9.4211   21.9183 C   0  0  0  0  0  0
  -23.6289   -8.2250   22.0759 C   0  0  0  0  0  0
  -22.4276   -8.0282   21.3548 C   0  0  0  0  0  0
  -21.9907   -9.0254   20.4650 C   0  0  0  0  0  0
  -22.7233  -10.2134   20.3052 C   0  0  0  0  0  0
  -21.6850   -6.0738   22.5284 C   0  0  0  0  0  0
  -21.4013   -6.5645   23.8216 C   0  0  0  0  0  0
  -21.3657   -5.6797   24.9179 C   0  0  0  0  0  0
  -21.6046   -4.3059   24.7229 C   0  0  0  0  0  0
  -21.8817   -3.8152   23.4348 C   0  0  0  0  0  0
  -21.9191   -4.6968   22.3406 C   0  0  0  0  0  0
  -22.7866  -13.5243   21.1830 C   0  0  0  0  0  0
  -22.1659   -4.2152   21.0982 F   0  0  0  0  0  0
  -21.5629   -3.4540   25.7741 F   0  0  0  0  0  0
  -30.0403  -13.2534   20.4507 N   0  0  0  0  0  0
  -26.3033  -12.9327   20.3364 N   0  0  0  0  0  0
  -25.9312  -11.6487   20.5748 N   0  0  0  0  0  0
  -22.0508  -12.8243   22.0386 N   0  0  0  0  0  0
  -25.4331  -15.1882   20.4091 N   0  0  0  0  0  0
  -31.8168  -14.6335   20.0686 O   0  0  0  0  0  0
  -21.6638   -6.8881   21.4246 O   0  0  0  0  0  0
  -22.3556  -14.5556   20.6684 O   0  0  0  0  0  0
  -24.6119  -31.8711   23.2109 C   0  0  0  0  0  0
  -25.9027  -32.4835   23.8401 C   0  0  1  0  0  0
  -27.2353  -27.4502   20.0926 C   0  0  0  0  0  0
  -25.5876  -33.8630   24.2337 N   0  0  0  0  0  0
  -23.3991  -30.4939   21.5513 C   0  0  2  0  0  0
  -24.8449  -28.9580   20.1182 C   0  0  0  0  0  0
  -22.7406  -29.4674   22.5005 C   0  0  0  0  0  0
  -18.0283  -28.1361   22.8505 C   0  0  0  0  0  0
  -24.1494  -36.7316   23.2636 C   0  0  0  0  0  0
  -25.9268  -30.8391   21.3649 C   0  0  0  0  0  0
  -26.0038  -29.4760   20.7091 C   0  0  0  0  0  0
  -27.2016  -28.7299   20.6888 C   0  0  0  0  0  0
  -26.0572  -26.9391   19.5022 C   0  0  0  0  0  0
  -24.8656  -27.6885   19.5132 C   0  0  0  0  0  0
  -23.6066  -29.8228   20.1671 C   0  0  0  0  0  0
  -25.4114  -36.3122   24.0343 C   0  0  1  0  0  0
  -20.5870  -28.3654   23.1329 C   0  0  2  0  0  0
  -20.6781  -26.9397   22.5411 C   0  0  0  0  0  0
  -19.5753  -26.6382   21.5209 C   0  0  0  0  0  0
  -18.1932  -26.7908   22.1628 C   0  0  0  0  0  0
  -19.1529  -28.8824   23.2916 C   0  0  0  0  0  0
  -18.9455  -30.1428   23.8929 C   0  0  0  0  0  0
  -17.6459  -30.6580   24.0558 C   0  0  0  0  0  0
  -25.9031  -34.9483   23.5143 C   0  0  0  0  0  0
  -16.5351  -29.9076   23.6317 C   0  0  0  0  0  0
  -16.7271  -28.6481   23.0360 C   0  0  0  0  0  0
  -26.4451  -31.6603   25.0723 C   0  0  0  0  0  0
  -25.3695  -31.3703   26.1452 C   0  0  0  0  0  0
  -27.0280  -30.3047   24.6088 C   0  0  0  0  0  0
  -27.6046  -32.4303   25.7469 C   0  0  0  0  0  0
  -27.5593  -37.1817   24.8465 C   0  0  0  0  0  0
  -21.4139  -29.3027   22.3738 N   0  0  0  0  0  0
  -26.4315  -37.3797   23.9402 N   0  0  0  0  0  0
  -24.6636  -31.0830   22.0997 N   0  0  0  0  0  0
  -23.4196  -28.8227   23.3045 O   0  0  0  0  0  0
  -28.4253  -26.7563   20.0906 O   0  0  0  0  0  0
  -26.5610  -34.8934   22.4716 O   0  0  0  0  0  0
  -23.5320  -32.1455   23.7522 O   0  0  0  0  0  0
  -27.5925  -21.7105   22.7212 C   0  0  0  0  0  0
  -27.6019  -20.3207   22.5001 C   0  0  0  0  0  0
  -28.5897  -22.4794   22.0903 C   0  0  0  0  0  0
  -28.6060  -19.7927   21.6621 C   0  0  0  0  0  0
  -28.8746  -17.8916   20.0179 C   0  0  0  0  0  0
  -30.7356  -18.6492   23.1859 C   0  0  0  0  0  0
  -29.0654  -16.8721   23.6206 C   0  0  0  0  0  0
  -28.7602  -23.9518   22.4342 C   0  0  0  0  0  0
  -27.8694  -24.9368   21.6522 C   0  0  0  0  0  0
  -30.8003  -16.5852   21.8087 C   0  0  0  0  0  0
  -28.3913  -25.3328   20.2533 C   0  0  0  0  0  0
  -28.7691  -18.2703   21.5106 C   0  0  1  0  0  0
  -29.8305  -17.6010   22.4904 C   0  0  0  0  0  0
  -29.4926  -21.9273   21.2410 N   0  0  0  0  0  0
  -29.5050  -20.6022   21.0362 N   0  0  0  0  0  0
  -30.1959  -15.2948   21.4669 N   0  0  0  0  0  0
  -31.4590  -12.3773   19.1046 H   0  0  0  0  0  0
  -30.3033  -11.2710   19.7856 H   0  0  0  0  0  0
  -29.7196  -11.8016   17.4042 H   0  0  0  0  0  0
  -29.6565  -13.5062   17.7779 H   0  0  0  0  0  0
  -27.8193  -11.3143   18.8025 H   0  0  0  0  0  0
  -27.3557  -12.6513   17.7857 H   0  0  0  0  0  0
  -27.7168  -14.2550   19.5915 H   0  0  0  0  0  0
  -28.6663  -11.9212   21.3206 H   0  0  0  0  0  0
  -28.4549  -13.5476   21.8799 H   0  0  0  0  0  0
  -25.2758   -9.5695   22.4752 H   0  0  0  0  0  0
  -24.0002   -7.4646   22.7480 H   0  0  0  0  0  0
  -21.0835   -8.8765   19.8952 H   0  0  0  0  0  0
  -22.3686  -10.9671   19.6157 H   0  0  0  0  0  0
  -21.2004   -7.6150   23.9721 H   0  0  0  0  0  0
  -21.1482   -6.0527   25.9083 H   0  0  0  0  0  0
  -22.0598   -2.7612   23.2848 H   0  0  0  0  0  0
  -22.4117  -11.9892   22.4764 H   0  0  0  0  0  0
  -21.1126  -13.1269   22.2591 H   0  0  0  0  0  0
  -24.6666  -15.8434   20.5146 H   0  0  0  0  0  0
  -26.2881  -15.6251   20.0896 H   0  0  0  0  0  0
  -26.7104  -32.5553   23.1168 H   0  0  0  0  0  0
  -25.0003  -33.9784   25.0465 H   0  0  0  0  0  0
  -22.6855  -31.3088   21.4126 H   0  0  0  0  0  0
  -23.3760  -35.9643   23.3306 H   0  0  0  0  0  0
  -24.3585  -36.8909   22.2048 H   0  0  0  0  0  0
  -23.7243  -37.6521   23.6647 H   0  0  0  0  0  0
  -26.0442  -31.6096   20.6021 H   0  0  0  0  0  0
  -26.8120  -30.8871   21.9874 H   0  0  0  0  0  0
  -28.0992  -29.1253   21.1441 H   0  0  0  0  0  0
  -26.0450  -25.9732   19.0201 H   0  0  0  0  0  0
  -23.9738  -27.2851   19.0527 H   0  0  0  0  0  0
  -23.7131  -30.5955   19.4044 H   0  0  0  0  0  0
  -22.7320  -29.2380   19.8755 H   0  0  0  0  0  0
  -25.1290  -36.2007   25.0837 H   0  0  0  0  0  0
  -20.9968  -28.3228   24.1448 H   0  0  0  0  0  0
  -20.5701  -26.2256   23.3593 H   0  0  0  0  0  0
  -21.6651  -26.7460   22.1188 H   0  0  0  0  0  0
  -19.6914  -25.6298   21.1217 H   0  0  0  0  0  0
  -19.6690  -27.3215   20.6755 H   0  0  0  0  0  0
  -17.4202  -26.6672   21.4025 H   0  0  0  0  0  0
  -18.0332  -26.0032   22.9008 H   0  0  0  0  0  0
  -19.7936  -30.7223   24.2324 H   0  0  0  0  0  0
  -17.5022  -31.6267   24.5149 H   0  0  0  0  0  0
  -15.5349  -30.2995   23.7611 H   0  0  0  0  0  0
  -15.8669  -28.0797   22.7078 H   0  0  0  0  0  0
  -24.5873  -30.7062   25.7754 H   0  0  0  0  0  0
  -24.8871  -32.2853   26.4907 H   0  0  0  0  0  0
  -25.8005  -30.8848   27.0213 H   0  0  0  0  0  0
  -26.2835  -29.6825   24.1108 H   0  0  0  0  0  0
  -27.4015  -29.7271   25.4554 H   0  0  0  0  0  0
  -27.8685  -30.4360   23.9263 H   0  0  0  0  0  0
  -27.2695  -33.3601   26.2080 H   0  0  0  0  0  0
  -28.3828  -32.6857   25.0262 H   0  0  0  0  0  0
  -28.0746  -31.8395   26.5340 H   0  0  0  0  0  0
  -28.2619  -38.0112   24.7519 H   0  0  0  0  0  0
  -28.1088  -36.2642   24.6297 H   0  0  0  0  0  0
  -27.2307  -37.1460   25.8868 H   0  0  0  0  0  0
  -20.9313  -29.8714   21.6923 H   0  0  0  0  0  0
  -26.0216  -38.2884   24.1376 H   0  0  0  0  0  0
  -26.8793  -22.1641   23.3944 H   0  0  0  0  0  0
  -26.8944  -19.6771   23.0030 H   0  0  0  0  0  0
  -28.0574  -18.3397   19.4529 H   0  0  0  0  0  0
  -28.8079  -16.8170   19.8615 H   0  0  0  0  0  0
  -29.8060  -18.2446   19.5757 H   0  0  0  0  0  0
  -31.4338  -18.1816   23.8810 H   0  0  0  0  0  0
  -30.1629  -19.3710   23.7698 H   0  0  0  0  0  0
  -31.3352  -19.2045   22.4638 H   0  0  0  0  0  0
  -29.7472  -16.3568   24.2978 H   0  0  0  0  0  0
  -28.3649  -16.1302   23.2370 H   0  0  0  0  0  0
  -28.4850  -17.5734   24.2205 H   0  0  0  0  0  0
  -29.8100  -24.2305   22.3339 H   0  0  0  0  0  0
  -28.5416  -24.0570   23.4973 H   0  0  0  0  0  0
  -27.8256  -25.8431   22.2576 H   0  0  0  0  0  0
  -26.8416  -24.5774   21.5988 H   0  0  0  0  0  0
  -31.6264  -16.3554   22.4843 H   0  0  0  0  0  0
  -31.2694  -17.0374   20.9331 H   0  0  0  0  0  0
  -27.8346  -24.8335   19.4611 H   0  0  0  0  0  0
  -29.4192  -24.9886   20.1365 H   0  0  0  0  0  0
  -27.7927  -17.8705   21.7896 H   0  0  0  0  0  0
  -29.3220  -15.0496   21.9056 H   0  0  0  0  0  0
  1 25  1  0  0  0
  1 30  2  0  0  0
  1 86  1  0  0  0
  2  3  1  0  0  0
  2 25  1  0  0  0
  2 87  1  0  0  0
  2 88  1  0  0  0
  3  4  1  0  0  0
  3 89  1  0  0  0
  3 90  1  0  0  0
  4  5  1  0  0  0
  4 91  1  0  0  0
  4 92  1  0  0  0
  5  6  1  0  0  0
  5 26  1  0  0  0
  5 93  1  0  0  0
  6 25  1  0  0  0
  6 94  1  0  0  0
  6 95  1  0  0  0
  7  8  2  0  0  0
  7 26  1  0  0  0
  7 29  1  0  0  0
  8  9  1  0  0  0
  8 22  1  0  0  0
  9 10  1  0  0  0
  9 27  2  0  0  0
 10 11  2  0  0  0
 10 15  1  0  0  0
 11 12  1  0  0  0
 11 96  1  0  0  0
 12 13  2  0  0  0
 12 97  1  0  0  0
 13 14  1  0  0  0
 13 31  1  0  0  0
 14 15  2  0  0  0
 14 98  1  0  0  0
 15 99  1  0  0  0
 16 17  2  0  0  0
 16 21  1  0  0  0
 16 31  1  0  0  0
 17 18  1  0  0  0
 17100  1  0  0  0
 18 19  2  0  0  0
 18101  1  0  0  0
 19 20  1  0  0  0
 19 24  1  0  0  0
 20 21  2  0  0  0
 20102  1  0  0  0
 21 23  1  0  0  0
 22 28  1  0  0  0
 22 32  2  0  0  0
 26 27  1  0  0  0
 28103  1  0  0  0
 28104  1  0  0  0
 29105  1  0  0  0
 29106  1  0  0  0
 33 34  1  0  0  0
 33 66  1  0  0  0
 33 70  2  0  0  0
 34 36  1  0  0  0
 34 59  1  0  0  0
 34107  1  0  0  0
 35 44  2  0  0  0
 35 45  1  0  0  0
 35 68  1  0  0  0
 36 56  1  0  0  0
 36108  1  0  0  0
 37 39  1  0  0  0
 37 47  1  0  0  0
 37 66  1  0  0  0
 37109  1  0  0  0
 38 43  2  0  0  0
 38 46  1  0  0  0
 38 47  1  0  0  0
 39 64  1  0  0  0
 39 67  2  0  0  0
 40 52  1  0  0  0
 40 53  2  0  0  0
 40 58  1  0  0  0
 41110  1  0  0  0
 41111  1  0  0  0
 41112  1  0  0  0
 41 48  1  0  0  0
 42 43  1  0  0  0
 42 66  1  0  0  0
 42113  1  0  0  0
 42114  1  0  0  0
 43 44  1  0  0  0
 44115  1  0  0  0
 45 46  2  0  0  0
 45116  1  0  0  0
 46117  1  0  0  0
 47118  1  0  0  0
 47119  1  0  0  0
 48 56  1  0  0  0
 48 65  1  0  0  0
 48120  1  0  0  0
 49 50  1  0  0  0
 49 53  1  0  0  0
 49 64  1  0  0  0
 49121  1  0  0  0
 50 51  1  0  0  0
 50122  1  0  0  0
 50123  1  0  0  0
 51 52  1  0  0  0
 51124  1  0  0  0
 51125  1  0  0  0
 52126  1  0  0  0
 52127  1  0  0  0
 53 54  1  0  0  0
 54 55  2  0  0  0
 54128  1  0  0  0
 55 57  1  0  0  0
 55129  1  0  0  0
 56 69  2  0  0  0
 57 58  2  0  0  0
 57130  1  0  0  0
 58131  1  0  0  0
 59 60  1  0  0  0
 59 61  1  0  0  0
 59 62  1  0  0  0
 60132  1  0  0  0
 60133  1  0  0  0
 60134  1  0  0  0
 61135  1  0  0  0
 61136  1  0  0  0
 61137  1  0  0  0
 62138  1  0  0  0
 62139  1  0  0  0
 62140  1  0  0  0
 63 65  1  0  0  0
 63141  1  0  0  0
 63142  1  0  0  0
 63143  1  0  0  0
 64144  1  0  0  0
 65145  1  0  0  0
 68 81  1  0  0  0
 71 72  2  0  0  0
 71 73  1  0  0  0
 71146  1  0  0  0
 72 74  1  0  0  0
 72147  1  0  0  0
 73 78  1  0  0  0
 73 84  2  0  0  0
 74 82  1  0  0  0
 74 85  2  0  0  0
 75148  1  0  0  0
 75149  1  0  0  0
 75150  1  0  0  0
 75 82  1  0  0  0
 76151  1  0  0  0
 76152  1  0  0  0
 76153  1  0  0  0
 76 83  1  0  0  0
 77 83  1  0  0  0
 77154  1  0  0  0
 77155  1  0  0  0
 77156  1  0  0  0
 78 79  1  0  0  0
 78157  1  0  0  0
 78158  1  0  0  0
 79 81  1  0  0  0
 79159  1  0  0  0
 79160  1  0  0  0
 80 83  1  0  0  0
 80 86  1  0  0  0
 80161  1  0  0  0
 80162  1  0  0  0
 81163  1  0  0  0
 81164  1  0  0  0
 82 83  1  0  0  0
 82165  1  0  0  0
 84 85  1  0  0  0
 86166  1  0  0  0
M  ISO  4   1 100  68 101  81 101  86 100
M  END
> <chiral flag>
0

> <version>
0

> <s_m_source_file>
/data/baiqing/PycharmProjects/Reinvent-master-3.2/result/LINK_invent/BTK/process_docking_weight1_custom_sum_contain_oxygen_bond_distance_aromatic_linkinvent_7_9_3/rearranged_h_0084.sdf

> <i_m_source_file_index>
93

> <r_mmod_Potential_Energy-OPLS-2005>
-69.3087615966797

> <r_mmod_Stretch_Energy-OPLS-2005>
41.5707359313965

> <r_mmod_Bend_Energy-OPLS-2005>
114.880752563477

> <r_mmod_Torsional_Energy-OPLS-2005>
215.623046875

> <r_mmod_Improper_Torsional_Energy-OPLS-2005>
2.33156991004944

> <r_mmod_Van_der_Waal_Energy-OPLS-2005>
164.799789428711

> <r_mmod_Electrostatic_Energy-OPLS-2005>
-395.67626953125

> <r_mmod_Solvation_Energy-OPLS-2005>
-221.072357177734

> <b_mmod_Minimization_Converged-OPLS-2005>
0

> <r_mmod_RMS_Derivative-OPLS-2005>
1.29789781570435

$$$$
93
                    3D
 Structure written by MMmdl.
171179  0  0  1  0            999 V2000
  -30.7058  -14.8426   20.4447 C   0  0  0  0  0  0
  -30.4375  -12.5349   19.4893 C   0  0  0  0  0  0
  -29.5163  -12.5198   18.2523 C   0  0  0  0  0  0
  -28.0621  -12.2881   18.6888 C   0  0  0  0  0  0
  -27.6366  -13.2517   19.8289 C   0  0  2  0  0  0
  -28.6912  -13.3042   20.9641 C   0  0  0  0  0  0
  -25.2471  -13.8186   20.5765 C   0  0  0  0  0  0
  -24.1807  -13.0452   20.9282 C   0  0  0  0  0  0
  -24.6373  -11.6912   20.8730 C   0  0  0  0  0  0
  -23.9079  -10.4292   21.0359 C   0  0  0  0  0  0
  -24.3600   -9.4213   21.9162 C   0  0  0  0  0  0
  -23.6290   -8.2231   22.0722 C   0  0  0  0  0  0
  -22.4282   -8.0219   21.3506 C   0  0  0  0  0  0
  -21.9900   -9.0217   20.4645 C   0  0  0  0  0  0
  -22.7210  -10.2104   20.3052 C   0  0  0  0  0  0
  -21.6839   -6.0706   22.5264 C   0  0  0  0  0  0
  -21.3990   -6.5625   23.8204 C   0  0  0  0  0  0
  -21.3690   -5.6776   24.9178 C   0  0  0  0  0  0
  -21.6052   -4.3030   24.7215 C   0  0  0  0  0  0
  -21.8824   -3.8129   23.4335 C   0  0  0  0  0  0
  -21.9191   -4.6949   22.3394 C   0  0  0  0  0  0
  -22.7784  -13.5185   21.1952 C   0  0  0  0  0  0
  -22.1657   -4.2124   21.0972 F   0  0  0  0  0  0
  -21.5658   -3.4533   25.7745 F   0  0  0  0  0  0
  -29.9971  -13.6518   20.3675 N   0  0  0  0  0  0
  -26.2924  -12.9467   20.3233 N   0  0  0  0  0  0
  -25.9321  -11.6589   20.5730 N   0  0  0  0  0  0
  -22.0436  -12.8189   22.0494 N   0  0  0  0  0  0
  -25.4205  -15.1929   20.4157 N   0  0  0  0  0  0
  -31.8995  -14.8408   20.1367 O   0  0  0  0  0  0
  -21.6628   -6.8817   21.4210 O   0  0  0  0  0  0
  -22.3454  -14.5502   20.6774 O   0  0  0  0  0  0
  -24.6310  -31.8490   23.1953 C   0  0  0  0  0  0
  -25.9187  -32.4686   23.8255 C   0  0  1  0  0  0
  -27.2845  -27.2520   20.0403 C   0  0  0  0  0  0
  -25.6019  -33.8497   24.2159 N   0  0  0  0  0  0
  -23.4320  -30.4585   21.5460 C   0  0  2  0  0  0
  -24.8948  -28.9089   20.0975 C   0  0  0  0  0  0
  -22.7478  -29.4516   22.5009 C   0  0  0  0  0  0
  -18.0275  -28.1401   22.8543 C   0  0  0  0  0  0
  -24.1490  -36.7168   23.2664 C   0  0  0  0  0  0
  -25.9829  -30.7362   21.3977 C   0  0  0  0  0  0
  -26.0634  -29.3591   20.7249 C   0  0  0  0  0  0
  -27.2441  -28.5400   20.6914 C   0  0  0  0  0  0
  -26.0998  -26.9014   19.3490 C   0  0  0  0  0  0
  -24.9289  -27.6924   19.3926 C   0  0  0  0  0  0
  -23.6514  -29.7824   20.1669 C   0  0  0  0  0  0
  -25.4166  -36.2979   24.0268 C   0  0  1  0  0  0
  -20.5859  -28.3612   23.1365 C   0  0  2  0  0  0
  -20.6730  -26.9362   22.5480 C   0  0  0  0  0  0
  -19.5700  -26.6381   21.5313 C   0  0  0  0  0  0
  -18.1887  -26.7964   22.1676 C   0  0  0  0  0  0
  -19.1545  -28.8851   23.2905 C   0  0  0  0  0  0
  -18.9460  -30.1505   23.8832 C   0  0  0  0  0  0
  -17.6443  -30.6626   24.0610 C   0  0  0  0  0  0
  -25.9107  -34.9399   23.5014 C   0  0  0  0  0  0
  -16.5336  -29.9112   23.6409 C   0  0  0  0  0  0
  -16.7249  -28.6544   23.0359 C   0  0  0  0  0  0
  -26.4639  -31.6566   25.0672 C   0  0  0  0  0  0
  -25.3897  -31.3712   26.1405 C   0  0  0  0  0  0
  -27.0444  -30.2919   24.6248 C   0  0  0  0  0  0
  -27.6154  -32.4388   25.7474 C   0  0  0  0  0  0
  -27.5556  -37.1727   24.8479 C   0  0  0  0  0  0
  -21.4173  -29.2960   22.3754 N   0  0  0  0  0  0
  -26.4282  -37.3732   23.9425 N   0  0  0  0  0  0
  -24.7007  -31.0348   22.0990 N   0  0  0  0  0  0
  -23.4181  -28.8178   23.3213 O   0  0  0  0  0  0
  -28.4426  -26.4057   20.0742 O   0  0  0  0  0  0
  -26.5666  -34.8887   22.4560 O   0  0  0  0  0  0
  -23.5461  -32.1403   23.7167 O   0  0  0  0  0  0
  -29.9398  -21.4951   20.0333 C   0  0  0  0  0  0
  -30.1210  -22.6952   20.7512 C   0  0  0  0  0  0
  -30.6013  -22.1551   22.0163 C   0  0  0  0  0  0
  -31.2308  -24.9138   19.8182 C   0  0  0  0  0  0
  -30.1798  -23.9900   23.8286 C   0  0  0  0  0  0
  -32.5146  -23.4153   23.2156 C   0  0  0  0  0  0
  -31.1129  -21.8393   24.5237 C   0  0  0  0  0  0
  -28.6617  -24.6987   18.2042 C   0  0  0  0  0  0
  -27.3629  -24.1013   20.3078 C   0  0  0  0  0  0
  -29.7341  -18.8428   20.7590 C   0  0  0  0  0  0
  -30.6837  -17.5230   20.5077 C   0  0  0  0  0  0
  -29.9271  -24.2661   20.3854 C   0  0  1  0  0  0
  -31.0868  -22.8414   23.3364 C   0  0  0  0  0  0
  -28.5664  -24.9105   19.7466 C   0  0  0  0  0  0
  -30.6541  -20.8060   22.0004 N   0  0  0  0  0  0
  -30.1837  -20.3325   20.8235 N   0  0  0  0  0  0
  -30.0873  -16.0830   20.6344 N   0  0  0  0  0  0
  -31.4743  -12.6384   19.1687 H   0  0  0  0  0  0
  -30.3901  -11.5855   20.0270 H   0  0  0  0  0  0
  -29.8331  -11.7373   17.5638 H   0  0  0  0  0  0
  -29.6056  -13.4581   17.7046 H   0  0  0  0  0  0
  -28.0097  -11.2588   19.0475 H   0  0  0  0  0  0
  -27.3754  -12.3483   17.8419 H   0  0  0  0  0  0
  -27.5963  -14.2475   19.3840 H   0  0  0  0  0  0
  -28.7460  -12.3532   21.4907 H   0  0  0  0  0  0
  -28.4014  -14.0509   21.7012 H   0  0  0  0  0  0
  -25.2742   -9.5680   22.4739 H   0  0  0  0  0  0
  -24.0029   -7.4600   22.7381 H   0  0  0  0  0  0
  -21.0842   -8.8667   19.8963 H   0  0  0  0  0  0
  -22.3603  -10.9609   19.6150 H   0  0  0  0  0  0
  -21.1937   -7.6121   23.9690 H   0  0  0  0  0  0
  -21.1541   -6.0513   25.9076 H   0  0  0  0  0  0
  -22.0587   -2.7589   23.2840 H   0  0  0  0  0  0
  -22.4074  -11.9894   22.4932 H   0  0  0  0  0  0
  -21.0987  -13.1114   22.2642 H   0  0  0  0  0  0
  -24.6644  -15.8571   20.5443 H   0  0  0  0  0  0
  -26.2703  -15.6221   20.0720 H   0  0  0  0  0  0
  -26.7227  -32.5413   23.0964 H   0  0  0  0  0  0
  -25.0255  -33.9713   25.0336 H   0  0  0  0  0  0
  -22.7357  -31.2858   21.3970 H   0  0  0  0  0  0
  -23.3759  -35.9471   23.3313 H   0  0  0  0  0  0
  -24.3577  -36.8833   22.2076 H   0  0  0  0  0  0
  -23.7187  -37.6342   23.6709 H   0  0  0  0  0  0
  -26.1509  -31.5043   20.6362 H   0  0  0  0  0  0
  -26.8518  -30.7815   22.0455 H   0  0  0  0  0  0
  -28.1375  -28.8894   21.1881 H   0  0  0  0  0  0
  -26.0894  -26.0276   18.7158 H   0  0  0  0  0  0
  -24.0658  -27.4007   18.8122 H   0  0  0  0  0  0
  -23.7266  -30.5579   19.4030 H   0  0  0  0  0  0
  -22.7756  -29.1918   19.8912 H   0  0  0  0  0  0
  -25.1341  -36.1778   25.0727 H   0  0  0  0  0  0
  -20.9987  -28.3152   24.1458 H   0  0  0  0  0  0
  -20.5733  -26.2177   23.3618 H   0  0  0  0  0  0
  -21.6559  -26.7457   22.1247 H   0  0  0  0  0  0
  -19.6829  -25.6318   21.1288 H   0  0  0  0  0  0
  -19.6668  -27.3203   20.6863 H   0  0  0  0  0  0
  -17.4194  -26.6799   21.4054 H   0  0  0  0  0  0
  -18.0211  -26.0121   22.9011 H   0  0  0  0  0  0
  -19.7898  -30.7447   24.2072 H   0  0  0  0  0  0
  -17.4954  -31.6318   24.5191 H   0  0  0  0  0  0
  -15.5306  -30.2942   23.7872 H   0  0  0  0  0  0
  -15.8631  -28.0938   22.6954 H   0  0  0  0  0  0
  -24.6072  -30.7076   25.7728 H   0  0  0  0  0  0
  -24.9156  -32.2890   26.4896 H   0  0  0  0  0  0
  -25.8330  -30.8862   27.0109 H   0  0  0  0  0  0
  -26.2936  -29.6646   24.1416 H   0  0  0  0  0  0
  -27.4153  -29.7279   25.4830 H   0  0  0  0  0  0
  -27.8857  -30.4065   23.9405 H   0  0  0  0  0  0
  -27.2688  -33.3728   26.1937 H   0  0  0  0  0  0
  -28.4048  -32.6928   25.0362 H   0  0  0  0  0  0
  -28.0706  -31.8593   26.5545 H   0  0  0  0  0  0
  -28.2590  -38.0014   24.7537 H   0  0  0  0  0  0
  -28.1030  -36.2539   24.6278 H   0  0  0  0  0  0
  -27.2266  -37.1324   25.8889 H   0  0  0  0  0  0
  -20.9313  -29.8455   21.6779 H   0  0  0  0  0  0
  -26.0088  -38.2739   24.1544 H   0  0  0  0  0  0
  -29.5856  -21.3865   19.0139 H   0  0  0  0  0  0
  -32.1101  -24.6249   20.3912 H   0  0  0  0  0  0
  -31.1745  -25.9998   19.8950 H   0  0  0  0  0  0
  -31.4652  -24.6790   18.7760 H   0  0  0  0  0  0
  -30.3072  -24.9123   23.2669 H   0  0  0  0  0  0
  -30.4242  -24.2788   24.8525 H   0  0  0  0  0  0
  -29.1257  -23.7096   23.8266 H   0  0  0  0  0  0
  -32.5928  -24.1837   22.4420 H   0  0  0  0  0  0
  -33.2482  -22.6361   23.0077 H   0  0  0  0  0  0
  -32.8085  -23.8913   24.1545 H   0  0  0  0  0  0
  -30.1293  -21.4316   24.7497 H   0  0  0  0  0  0
  -31.4870  -22.3140   25.4315 H   0  0  0  0  0  0
  -31.7788  -20.9974   24.3289 H   0  0  0  0  0  0
  -27.7039  -24.7762   17.6974 H   0  0  0  0  0  0
  -29.0610  -23.7149   17.9377 H   0  0  0  0  0  0
  -29.3379  -25.4374   17.7662 H   0  0  0  0  0  0
  -27.2366  -24.2751   21.3767 H   0  0  0  0  0  0
  -27.4793  -23.0236   20.1691 H   0  0  0  0  0  0
  -26.4076  -24.3211   19.8417 H   0  0  0  0  0  0
  -29.3219  -18.6769   21.7552 H   0  0  0  0  0  0
  -28.8605  -18.7886   20.1067 H   0  0  0  0  0  0
  -31.5377  -17.5738   21.1888 H   0  0  0  0  0  0
  -31.1150  -17.6101   19.5080 H   0  0  0  0  0  0
  -29.8512  -24.7419   21.3463 H   0  0  0  0  0  0
  -29.0951  -16.0392   20.8242 H   0  0  0  0  0  0
  1 25  1  0  0  0
  1 30  2  0  0  0
  1 87  1  0  0  0
  2  3  1  0  0  0
  2 25  1  0  0  0
  2 88  1  0  0  0
  2 89  1  0  0  0
  3  4  1  0  0  0
  3 90  1  0  0  0
  3 91  1  0  0  0
  4  5  1  0  0  0
  4 92  1  0  0  0
  4 93  1  0  0  0
  5  6  1  0  0  0
  5 26  1  0  0  0
  5 94  1  0  0  0
  6 25  1  0  0  0
  6 95  1  0  0  0
  6 96  1  0  0  0
  7  8  2  0  0  0
  7 26  1  0  0  0
  7 29  1  0  0  0
  8  9  1  0  0  0
  8 22  1  0  0  0
  9 10  1  0  0  0
  9 27  2  0  0  0
 10 11  2  0  0  0
 10 15  1  0  0  0
 11 12  1  0  0  0
 11 97  1  0  0  0
 12 13  2  0  0  0
 12 98  1  0  0  0
 13 14  1  0  0  0
 13 31  1  0  0  0
 14 15  2  0  0  0
 14 99  1  0  0  0
 15100  1  0  0  0
 16 17  2  0  0  0
 16 21  1  0  0  0
 16 31  1  0  0  0
 17 18  1  0  0  0
 17101  1  0  0  0
 18 19  2  0  0  0
 18102  1  0  0  0
 19 20  1  0  0  0
 19 24  1  0  0  0
 20 21  2  0  0  0
 20103  1  0  0  0
 21 23  1  0  0  0
 22 28  1  0  0  0
 22 32  2  0  0  0
 26 27  1  0  0  0
 28104  1  0  0  0
 28105  1  0  0  0
 29106  1  0  0  0
 29107  1  0  0  0
 33 34  1  0  0  0
 33 66  1  0  0  0
 33 70  2  0  0  0
 34 36  1  0  0  0
 34 59  1  0  0  0
 34108  1  0  0  0
 35 44  2  0  0  0
 35 45  1  0  0  0
 35 68  1  0  0  0
 36 56  1  0  0  0
 36109  1  0  0  0
 37 39  1  0  0  0
 37 47  1  0  0  0
 37 66  1  0  0  0
 37110  1  0  0  0
 38 43  2  0  0  0
 38 46  1  0  0  0
 38 47  1  0  0  0
 39 64  1  0  0  0
 39 67  2  0  0  0
 40 52  1  0  0  0
 40 53  2  0  0  0
 40 58  1  0  0  0
 41111  1  0  0  0
 41112  1  0  0  0
 41113  1  0  0  0
 41 48  1  0  0  0
 42 43  1  0  0  0
 42 66  1  0  0  0
 42114  1  0  0  0
 42115  1  0  0  0
 43 44  1  0  0  0
 44116  1  0  0  0
 45 46  2  0  0  0
 45117  1  0  0  0
 46118  1  0  0  0
 47119  1  0  0  0
 47120  1  0  0  0
 48 56  1  0  0  0
 48 65  1  0  0  0
 48121  1  0  0  0
 49 50  1  0  0  0
 49 53  1  0  0  0
 49 64  1  0  0  0
 49122  1  0  0  0
 50 51  1  0  0  0
 50123  1  0  0  0
 50124  1  0  0  0
 51 52  1  0  0  0
 51125  1  0  0  0
 51126  1  0  0  0
 52127  1  0  0  0
 52128  1  0  0  0
 53 54  1  0  0  0
 54 55  2  0  0  0
 54129  1  0  0  0
 55 57  1  0  0  0
 55130  1  0  0  0
 56 69  2  0  0  0
 57 58  2  0  0  0
 57131  1  0  0  0
 58132  1  0  0  0
 59 60  1  0  0  0
 59 61  1  0  0  0
 59 62  1  0  0  0
 60133  1  0  0  0
 60134  1  0  0  0
 60135  1  0  0  0
 61136  1  0  0  0
 61137  1  0  0  0
 61138  1  0  0  0
 62139  1  0  0  0
 62140  1  0  0  0
 62141  1  0  0  0
 63 65  1  0  0  0
 63142  1  0  0  0
 63143  1  0  0  0
 63144  1  0  0  0
 64145  1  0  0  0
 65146  1  0  0  0
 68 84  1  0  0  0
 71 72  2  0  0  0
 71 86  1  0  0  0
 71147  1  0  0  0
 72 73  1  0  0  0
 72 82  1  0  0  0
 73 83  1  0  0  0
 73 85  2  0  0  0
 74148  1  0  0  0
 74149  1  0  0  0
 74150  1  0  0  0
 74 82  1  0  0  0
 75151  1  0  0  0
 75152  1  0  0  0
 75153  1  0  0  0
 75 83  1  0  0  0
 76 83  1  0  0  0
 76154  1  0  0  0
 76155  1  0  0  0
 76156  1  0  0  0
 77 83  1  0  0  0
 77157  1  0  0  0
 77158  1  0  0  0
 77159  1  0  0  0
 78160  1  0  0  0
 78161  1  0  0  0
 78162  1  0  0  0
 78 84  1  0  0  0
 79 84  1  0  0  0
 79163  1  0  0  0
 79164  1  0  0  0
 79165  1  0  0  0
 80 81  1  0  0  0
 80 86  1  0  0  0
 80166  1  0  0  0
 80167  1  0  0  0
 81 87  1  0  0  0
 81168  1  0  0  0
 81169  1  0  0  0
 82 84  1  0  0  0
 82170  1  0  0  0
 85 86  1  0  0  0
 87171  1  0  0  0
M  ISO  4   1 100  68 101  84 101  87 100
M  END
> <chiral flag>
0

> <version>
0

> <s_m_source_file>
/data/baiqing/PycharmProjects/Reinvent-master-3.2/result/LINK_invent/BTK/process_docking_weight1_custom_sum_contain_oxygen_bond_distance_aromatic_linkinvent_7_9_3/rearranged_h_0084.sdf

> <i_m_source_file_index>
94

> <r_mmod_Potential_Energy-OPLS-2005>
257.941009521484

> <r_mmod_Stretch_Energy-OPLS-2005>
189.218872070312

> <r_mmod_Bend_Energy-OPLS-2005>
259.268646240234

> <r_mmod_Torsional_Energy-OPLS-2005>
230.021453857422

> <r_mmod_Improper_Torsional_Energy-OPLS-2005>
6.81848239898682

> <r_mmod_Van_der_Waal_Energy-OPLS-2005>
122.064079284668

> <r_mmod_Electrostatic_Energy-OPLS-2005>
-458.769317626953

> <r_mmod_Solvation_Energy-OPLS-2005>
-213.01838684082

> <b_mmod_Minimization_Converged-OPLS-2005>
0

> <r_mmod_RMS_Derivative-OPLS-2005>
11.3061656951904

$$$$
94
                    3D
 Structure written by MMmdl.
174182  0  0  1  0            999 V2000
  -30.7158  -14.4138   20.5907 C   0  0  0  0  0  0
  -30.4198  -12.2847   19.4025 C   0  0  0  0  0  0
  -29.4897  -12.5186   18.1951 C   0  0  0  0  0  0
  -28.0087  -12.3826   18.6025 C   0  0  0  0  0  0
  -27.6615  -13.2000   19.8759 C   0  0  2  0  0  0
  -28.7018  -12.9556   20.9916 C   0  0  0  0  0  0
  -25.2592  -13.8149   20.5672 C   0  0  0  0  0  0
  -24.1833  -13.0449   20.9179 C   0  0  0  0  0  0
  -24.6374  -11.6904   20.8729 C   0  0  0  0  0  0
  -23.9043  -10.4301   21.0389 C   0  0  0  0  0  0
  -24.3614   -9.4223   21.9173 C   0  0  0  0  0  0
  -23.6295   -8.2258   22.0746 C   0  0  0  0  0  0
  -22.4280   -8.0285   21.3539 C   0  0  0  0  0  0
  -21.9901   -9.0258   20.4643 C   0  0  0  0  0  0
  -22.7216  -10.2140   20.3039 C   0  0  0  0  0  0
  -21.6855   -6.0744   22.5291 C   0  0  0  0  0  0
  -21.4017   -6.5650   23.8224 C   0  0  0  0  0  0
  -21.3648   -5.6808   24.9194 C   0  0  0  0  0  0
  -21.6033   -4.3068   24.7237 C   0  0  0  0  0  0
  -21.8825   -3.8152   23.4363 C   0  0  0  0  0  0
  -21.9201   -4.6973   22.3420 C   0  0  0  0  0  0
  -22.7853  -13.5251   21.1866 C   0  0  0  0  0  0
  -22.1666   -4.2155   21.0995 F   0  0  0  0  0  0
  -21.5620   -3.4547   25.7743 F   0  0  0  0  0  0
  -30.0384  -13.2487   20.4432 N   0  0  0  0  0  0
  -26.3016  -12.9298   20.3363 N   0  0  0  0  0  0
  -25.9291  -11.6471   20.5751 N   0  0  0  0  0  0
  -22.0499  -12.8223   22.0410 N   0  0  0  0  0  0
  -25.4360  -15.1862   20.4072 N   0  0  0  0  0  0
  -31.8416  -14.6111   20.1226 O   0  0  0  0  0  0
  -21.6648   -6.8879   21.4243 O   0  0  0  0  0  0
  -22.3529  -14.5571   20.6734 O   0  0  0  0  0  0
  -24.6116  -31.8710   23.2107 C   0  0  0  0  0  0
  -25.9020  -32.4847   23.8383 C   0  0  1  0  0  0
  -27.2450  -27.4714   20.0841 C   0  0  0  0  0  0
  -25.5886  -33.8640   24.2321 N   0  0  0  0  0  0
  -23.3965  -30.4928   21.5514 C   0  0  2  0  0  0
  -24.8409  -28.9523   20.1238 C   0  0  0  0  0  0
  -22.7379  -29.4687   22.5022 C   0  0  0  0  0  0
  -18.0265  -28.1372   22.8492 C   0  0  0  0  0  0
  -24.1474  -36.7325   23.2640 C   0  0  0  0  0  0
  -25.9199  -30.8444   21.3556 C   0  0  0  0  0  0
  -25.9981  -29.4779   20.7106 C   0  0  0  0  0  0
  -27.1997  -28.7429   20.6879 C   0  0  0  0  0  0
  -26.0673  -26.9429   19.5039 C   0  0  0  0  0  0
  -24.8672  -27.6791   19.5258 C   0  0  0  0  0  0
  -23.6018  -29.8172   20.1690 C   0  0  0  0  0  0
  -25.4104  -36.3136   24.0333 C   0  0  1  0  0  0
  -20.5856  -28.3640   23.1328 C   0  0  2  0  0  0
  -20.6750  -26.9376   22.5417 C   0  0  0  0  0  0
  -19.5731  -26.6366   21.5216 C   0  0  0  0  0  0
  -18.1908  -26.7911   22.1626 C   0  0  0  0  0  0
  -19.1516  -28.8826   23.2904 C   0  0  0  0  0  0
  -18.9454  -30.1444   23.8897 C   0  0  0  0  0  0
  -17.6457  -30.6578   24.0570 C   0  0  0  0  0  0
  -25.9027  -34.9492   23.5127 C   0  0  0  0  0  0
  -16.5344  -29.9084   23.6335 C   0  0  0  0  0  0
  -16.7255  -28.6510   23.0334 C   0  0  0  0  0  0
  -26.4440  -31.6639   25.0717 C   0  0  0  0  0  0
  -25.3711  -31.3739   26.1484 C   0  0  0  0  0  0
  -27.0258  -30.3089   24.6070 C   0  0  0  0  0  0
  -27.6021  -32.4367   25.7472 C   0  0  0  0  0  0
  -27.5573  -37.1822   24.8464 C   0  0  0  0  0  0
  -21.4118  -29.3027   22.3748 N   0  0  0  0  0  0
  -26.4293  -37.3818   23.9403 N   0  0  0  0  0  0
  -24.6610  -31.0835   22.0988 N   0  0  0  0  0  0
  -23.4177  -28.8234   23.3046 O   0  0  0  0  0  0
  -28.4581  -26.8220   20.0615 O   0  0  0  0  0  0
  -26.5599  -34.8945   22.4693 O   0  0  0  0  0  0
  -23.5319  -32.1447   23.7528 O   0  0  0  0  0  0
  -28.1196  -21.8998   20.5942 C   0  0  0  0  0  0
  -27.0461  -22.7450   20.6260 C   0  0  0  0  0  0
  -26.1714  -22.2174   19.6303 C   0  0  0  0  0  0
  -23.6820  -22.0340   19.9579 C   0  0  0  0  0  0
  -27.6573  -18.2045   20.7995 C   0  0  0  0  0  0
  -29.5018  -16.8278   18.7436 C   0  0  0  0  0  0
  -31.3688  -18.3156   19.4504 C   0  0  0  0  0  0
  -26.8513  -23.9582   21.5021 C   0  0  0  0  0  0
  -24.8202  -22.7300   19.2072 C   0  0  0  0  0  0
  -28.0829  -24.8798   21.5029 C   0  0  0  0  0  0
  -28.7533  -19.8639   19.2120 C   0  0  0  0  0  0
  -30.4114  -16.8139   21.1903 C   0  0  0  0  0  0
  -28.4808  -25.4005   20.1049 C   0  0  0  0  0  0
  -29.0038  -18.7890   20.3122 C   0  0  2  0  0  0
  -30.0430  -17.6744   19.9241 C   0  0  0  0  0  0
  -26.6716  -21.1330   19.0492 N   0  0  0  0  0  0
  -27.8726  -20.9406   19.6409 N   0  0  0  0  0  0
  -30.0052  -15.4089   21.1381 N   0  0  0  0  0  0
  -31.4632  -12.3905   19.0984 H   0  0  0  0  0  0
  -30.3208  -11.2659   19.7785 H   0  0  0  0  0  0
  -29.7249  -11.8166   17.3953 H   0  0  0  0  0  0
  -29.6628  -13.5144   17.7829 H   0  0  0  0  0  0
  -27.8053  -11.3256   18.7727 H   0  0  0  0  0  0
  -27.3662  -12.6852   17.7743 H   0  0  0  0  0  0
  -27.7126  -14.2516   19.5973 H   0  0  0  0  0  0
  -28.6650  -11.9166   21.3231 H   0  0  0  0  0  0
  -28.4674  -13.5474   21.8772 H   0  0  0  0  0  0
  -25.2766   -9.5708   22.4743 H   0  0  0  0  0  0
  -24.0019   -7.4647   22.7448 H   0  0  0  0  0  0
  -21.0841   -8.8753   19.8948 H   0  0  0  0  0  0
  -22.3664  -10.9674   19.6142 H   0  0  0  0  0  0
  -21.2009   -7.6155   23.9723 H   0  0  0  0  0  0
  -21.1454   -6.0543   25.9095 H   0  0  0  0  0  0
  -22.0607   -2.7609   23.2868 H   0  0  0  0  0  0
  -22.4124  -11.9883   22.4793 H   0  0  0  0  0  0
  -21.1112  -13.1208   22.2627 H   0  0  0  0  0  0
  -24.6746  -15.8476   20.5089 H   0  0  0  0  0  0
  -26.2966  -15.6179   20.0973 H   0  0  0  0  0  0
  -26.7096  -32.5580   23.1148 H   0  0  0  0  0  0
  -25.0046  -33.9799   25.0470 H   0  0  0  0  0  0
  -22.6854  -31.3087   21.4083 H   0  0  0  0  0  0
  -23.3735  -35.9662   23.3337 H   0  0  0  0  0  0
  -24.3527  -36.8909   22.2044 H   0  0  0  0  0  0
  -23.7231  -37.6540   23.6627 H   0  0  0  0  0  0
  -26.0192  -31.6022   20.5782 H   0  0  0  0  0  0
  -26.8135  -30.9067   21.9649 H   0  0  0  0  0  0
  -28.0966  -29.1482   21.1340 H   0  0  0  0  0  0
  -26.0610  -25.9799   19.0162 H   0  0  0  0  0  0
  -23.9762  -27.2650   19.0759 H   0  0  0  0  0  0
  -23.7058  -30.5859   19.4010 H   0  0  0  0  0  0
  -22.7257  -29.2329   19.8837 H   0  0  0  0  0  0
  -25.1278  -36.2000   25.0824 H   0  0  0  0  0  0
  -20.9951  -28.3188   24.1453 H   0  0  0  0  0  0
  -20.5635  -26.2237   23.3586 H   0  0  0  0  0  0
  -21.6623  -26.7416   22.1220 H   0  0  0  0  0  0
  -19.6881  -25.6274   21.1255 H   0  0  0  0  0  0
  -19.6679  -27.3172   20.6741 H   0  0  0  0  0  0
  -17.4180  -26.6668   21.4021 H   0  0  0  0  0  0
  -18.0300  -26.0053   22.9027 H   0  0  0  0  0  0
  -19.7935  -30.7264   24.2239 H   0  0  0  0  0  0
  -17.5021  -31.6264   24.5164 H   0  0  0  0  0  0
  -15.5345  -30.2989   23.7669 H   0  0  0  0  0  0
  -15.8656  -28.0857   22.7013 H   0  0  0  0  0  0
  -24.5894  -30.7058   25.7846 H   0  0  0  0  0  0
  -24.8873  -32.2881   26.4940 H   0  0  0  0  0  0
  -25.8082  -30.8935   27.0247 H   0  0  0  0  0  0
  -26.2788  -29.6875   24.1124 H   0  0  0  0  0  0
  -27.4022  -29.7311   25.4521 H   0  0  0  0  0  0
  -27.8609  -30.4405   23.9189 H   0  0  0  0  0  0
  -27.2644  -33.3672   26.2050 H   0  0  0  0  0  0
  -28.3821  -32.6941   25.0292 H   0  0  0  0  0  0
  -28.0693  -31.8496   26.5392 H   0  0  0  0  0  0
  -28.2635  -38.0087   24.7519 H   0  0  0  0  0  0
  -28.1033  -36.2625   24.6296 H   0  0  0  0  0  0
  -27.2274  -37.1488   25.8865 H   0  0  0  0  0  0
  -20.9254  -29.8774   21.7010 H   0  0  0  0  0  0
  -26.0190  -38.2891   24.1426 H   0  0  0  0  0  0
  -29.0423  -21.9068   21.1576 H   0  0  0  0  0  0
  -22.7141  -22.4356   19.6588 H   0  0  0  0  0  0
  -23.7848  -22.1727   21.0348 H   0  0  0  0  0  0
  -23.6790  -20.9626   19.7536 H   0  0  0  0  0  0
  -27.0507  -18.9648   21.2954 H   0  0  0  0  0  0
  -27.7824  -17.3899   21.5113 H   0  0  0  0  0  0
  -27.0731  -17.8209   19.9633 H   0  0  0  0  0  0
  -30.2291  -16.0871   18.4119 H   0  0  0  0  0  0
  -29.2837  -17.4410   17.8713 H   0  0  0  0  0  0
  -28.5875  -16.2955   18.9991 H   0  0  0  0  0  0
  -32.1270  -17.5517   19.2641 H   0  0  0  0  0  0
  -31.7789  -18.9990   20.1945 H   0  0  0  0  0  0
  -31.2576  -18.8657   18.5178 H   0  0  0  0  0  0
  -26.6440  -23.6529   22.5283 H   0  0  0  0  0  0
  -25.9805  -24.5362   21.1932 H   0  0  0  0  0  0
  -24.6832  -22.5932   18.1344 H   0  0  0  0  0  0
  -24.7556  -23.8044   19.3738 H   0  0  0  0  0  0
  -28.9272  -24.3412   21.9339 H   0  0  0  0  0  0
  -27.9111  -25.7161   22.1829 H   0  0  0  0  0  0
  -28.3334  -19.4102   18.3139 H   0  0  0  0  0  0
  -29.6849  -20.3405   18.9099 H   0  0  0  0  0  0
  -31.4833  -16.8447   21.3909 H   0  0  0  0  0  0
  -29.9778  -17.2468   22.0921 H   0  0  0  0  0  0
  -27.9023  -24.9540   19.2977 H   0  0  0  0  0  0
  -29.5104  -25.1004   19.9092 H   0  0  0  0  0  0
  -29.4328  -19.3244   21.1614 H   0  0  0  0  0  0
  -29.0818  -15.1779   21.4723 H   0  0  0  0  0  0
  1 25  1  0  0  0
  1 30  2  0  0  0
  1 88  1  0  0  0
  2  3  1  0  0  0
  2 25  1  0  0  0
  2 89  1  0  0  0
  2 90  1  0  0  0
  3  4  1  0  0  0
  3 91  1  0  0  0
  3 92  1  0  0  0
  4  5  1  0  0  0
  4 93  1  0  0  0
  4 94  1  0  0  0
  5  6  1  0  0  0
  5 26  1  0  0  0
  5 95  1  0  0  0
  6 25  1  0  0  0
  6 96  1  0  0  0
  6 97  1  0  0  0
  7  8  2  0  0  0
  7 26  1  0  0  0
  7 29  1  0  0  0
  8  9  1  0  0  0
  8 22  1  0  0  0
  9 10  1  0  0  0
  9 27  2  0  0  0
 10 11  2  0  0  0
 10 15  1  0  0  0
 11 12  1  0  0  0
 11 98  1  0  0  0
 12 13  2  0  0  0
 12 99  1  0  0  0
 13 14  1  0  0  0
 13 31  1  0  0  0
 14 15  2  0  0  0
 14100  1  0  0  0
 15101  1  0  0  0
 16 17  2  0  0  0
 16 21  1  0  0  0
 16 31  1  0  0  0
 17 18  1  0  0  0
 17102  1  0  0  0
 18 19  2  0  0  0
 18103  1  0  0  0
 19 20  1  0  0  0
 19 24  1  0  0  0
 20 21  2  0  0  0
 20104  1  0  0  0
 21 23  1  0  0  0
 22 28  1  0  0  0
 22 32  2  0  0  0
 26 27  1  0  0  0
 28105  1  0  0  0
 28106  1  0  0  0
 29107  1  0  0  0
 29108  1  0  0  0
 33 34  1  0  0  0
 33 66  1  0  0  0
 33 70  2  0  0  0
 34 36  1  0  0  0
 34 59  1  0  0  0
 34109  1  0  0  0
 35 44  2  0  0  0
 35 45  1  0  0  0
 35 68  1  0  0  0
 36 56  1  0  0  0
 36110  1  0  0  0
 37 39  1  0  0  0
 37 47  1  0  0  0
 37 66  1  0  0  0
 37111  1  0  0  0
 38 43  2  0  0  0
 38 46  1  0  0  0
 38 47  1  0  0  0
 39 64  1  0  0  0
 39 67  2  0  0  0
 40 52  1  0  0  0
 40 53  2  0  0  0
 40 58  1  0  0  0
 41112  1  0  0  0
 41113  1  0  0  0
 41114  1  0  0  0
 41 48  1  0  0  0
 42 43  1  0  0  0
 42 66  1  0  0  0
 42115  1  0  0  0
 42116  1  0  0  0
 43 44  1  0  0  0
 44117  1  0  0  0
 45 46  2  0  0  0
 45118  1  0  0  0
 46119  1  0  0  0
 47120  1  0  0  0
 47121  1  0  0  0
 48 56  1  0  0  0
 48 65  1  0  0  0
 48122  1  0  0  0
 49 50  1  0  0  0
 49 53  1  0  0  0
 49 64  1  0  0  0
 49123  1  0  0  0
 50 51  1  0  0  0
 50124  1  0  0  0
 50125  1  0  0  0
 51 52  1  0  0  0
 51126  1  0  0  0
 51127  1  0  0  0
 52128  1  0  0  0
 52129  1  0  0  0
 53 54  1  0  0  0
 54 55  2  0  0  0
 54130  1  0  0  0
 55 57  1  0  0  0
 55131  1  0  0  0
 56 69  2  0  0  0
 57 58  2  0  0  0
 57132  1  0  0  0
 58133  1  0  0  0
 59 60  1  0  0  0
 59 61  1  0  0  0
 59 62  1  0  0  0
 60134  1  0  0  0
 60135  1  0  0  0
 60136  1  0  0  0
 61137  1  0  0  0
 61138  1  0  0  0
 61139  1  0  0  0
 62140  1  0  0  0
 62141  1  0  0  0
 62142  1  0  0  0
 63 65  1  0  0  0
 63143  1  0  0  0
 63144  1  0  0  0
 63145  1  0  0  0
 64146  1  0  0  0
 65147  1  0  0  0
 68 83  1  0  0  0
 71 72  2  0  0  0
 71 87  1  0  0  0
 71148  1  0  0  0
 72 73  1  0  0  0
 72 78  1  0  0  0
 73 79  1  0  0  0
 73 86  2  0  0  0
 74 79  1  0  0  0
 74149  1  0  0  0
 74150  1  0  0  0
 74151  1  0  0  0
 75152  1  0  0  0
 75153  1  0  0  0
 75154  1  0  0  0
 75 84  1  0  0  0
 76155  1  0  0  0
 76156  1  0  0  0
 76157  1  0  0  0
 76 85  1  0  0  0
 77 85  1  0  0  0
 77158  1  0  0  0
 77159  1  0  0  0
 77160  1  0  0  0
 78 80  1  0  0  0
 78161  1  0  0  0
 78162  1  0  0  0
 79163  1  0  0  0
 79164  1  0  0  0
 80 83  1  0  0  0
 80165  1  0  0  0
 80166  1  0  0  0
 81 84  1  0  0  0
 81 87  1  0  0  0
 81167  1  0  0  0
 81168  1  0  0  0
 82 85  1  0  0  0
 82 88  1  0  0  0
 82169  1  0  0  0
 82170  1  0  0  0
 83171  1  0  0  0
 83172  1  0  0  0
 84 85  1  0  0  0
 84173  1  0  0  0
 86 87  1  0  0  0
 88174  1  0  0  0
M  ISO  4   1 100  68 101  83 101  88 100
M  END
> <chiral flag>
0

> <version>
0

> <s_m_source_file>
/data/baiqing/PycharmProjects/Reinvent-master-3.2/result/LINK_invent/BTK/process_docking_weight1_custom_sum_contain_oxygen_bond_distance_aromatic_linkinvent_7_9_3/rearranged_h_0084.sdf

> <i_m_source_file_index>
95

> <r_mmod_Potential_Energy-OPLS-2005>
-115.814552307129

> <r_mmod_Stretch_Energy-OPLS-2005>
36.635082244873

> <r_mmod_Bend_Energy-OPLS-2005>
106.50740814209

> <r_mmod_Torsional_Energy-OPLS-2005>
247.152130126953

> <r_mmod_Improper_Torsional_Energy-OPLS-2005>
3.82169842720032

> <r_mmod_Van_der_Waal_Energy-OPLS-2005>
131.052947998047

> <r_mmod_Electrostatic_Energy-OPLS-2005>
-445.264709472656

> <r_mmod_Solvation_Energy-OPLS-2005>
-205.791381835938

> <b_mmod_Minimization_Converged-OPLS-2005>
0

> <r_mmod_RMS_Derivative-OPLS-2005>
2.41918587684631

$$$$
95
                    3D
 Structure written by MMmdl.
155162  0  0  1  0            999 V2000
  -30.3310  -15.5911   20.3174 C   0  0  0  0  0  0
  -30.4264  -13.0477   19.5191 C   0  0  0  0  0  0
  -29.5452  -12.6282   18.3092 C   0  0  0  0  0  0
  -28.1230  -12.2612   18.7640 C   0  0  0  0  0  0
  -27.5921  -13.2724   19.8034 C   0  0  2  0  0  0
  -28.6148  -13.6291   20.9110 C   0  0  0  0  0  0
  -25.2299  -13.8150   20.5717 C   0  0  0  0  0  0
  -24.1686  -13.0358   20.9274 C   0  0  0  0  0  0
  -24.6378  -11.6879   20.8792 C   0  0  0  0  0  0
  -23.9084  -10.4259   21.0414 C   0  0  0  0  0  0
  -24.3641   -9.4197   21.9196 C   0  0  0  0  0  0
  -23.6314   -8.2244   22.0772 C   0  0  0  0  0  0
  -22.4298   -8.0284   21.3563 C   0  0  0  0  0  0
  -21.9932   -9.0245   20.4659 C   0  0  0  0  0  0
  -22.7263  -10.2116   20.3056 C   0  0  0  0  0  0
  -21.6860   -6.0757   22.5292 C   0  0  0  0  0  0
  -21.4022   -6.5655   23.8227 C   0  0  0  0  0  0
  -21.3655   -5.6794   24.9176 C   0  0  0  0  0  0
  -21.6038   -4.3058   24.7219 C   0  0  0  0  0  0
  -21.8818   -3.8164   23.4338 C   0  0  0  0  0  0
  -21.9189   -4.6986   22.3402 C   0  0  0  0  0  0
  -22.7715  -13.5143   21.1898 C   0  0  0  0  0  0
  -22.1661   -4.2179   21.0977 F   0  0  0  0  0  0
  -21.5612   -3.4531   25.7726 F   0  0  0  0  0  0
  -29.7932  -14.2343   20.2446 N   0  0  0  0  0  0
  -26.2747  -12.9441   20.3211 N   0  0  0  0  0  0
  -25.9317  -11.6562   20.5745 N   0  0  0  0  0  0
  -22.0357  -12.8157   22.0459 N   0  0  0  0  0  0
  -25.3740  -15.1873   20.4057 N   0  0  0  0  0  0
  -31.5718  -15.5177   20.2362 O   0  0  0  0  0  0
  -21.6653   -6.8895   21.4258 O   0  0  0  0  0  0
  -22.3419  -14.5453   20.6723 O   0  0  0  0  0  0
  -24.6799  -31.8043   23.1550 C   0  0  0  0  0  0
  -25.9396  -32.4497   23.8083 C   0  0  1  0  0  0
  -27.2230  -26.7468   20.2083 C   0  0  0  0  0  0
  -25.5984  -33.8318   24.1972 N   0  0  0  0  0  0
  -23.5039  -30.4087   21.5080 C   0  0  2  0  0  0
  -24.9590  -28.7573   20.1170 C   0  0  0  0  0  0
  -22.7754  -29.4338   22.4720 C   0  0  0  0  0  0
  -18.0336  -28.1410   22.8455 C   0  0  0  0  0  0
  -24.1495  -36.7171   23.2652 C   0  0  0  0  0  0
  -26.0825  -30.5515   21.4115 C   0  0  0  0  0  0
  -26.1480  -29.1213   20.7609 C   0  0  0  0  0  0
  -27.2675  -28.1436   20.7717 C   0  0  0  0  0  0
  -26.0008  -26.5778   19.5109 C   0  0  0  0  0  0
  -24.9222  -27.5116   19.4674 C   0  0  0  0  0  0
  -23.7549  -29.7090   20.1418 C   0  0  0  0  0  0
  -25.4143  -36.2916   24.0284 C   0  0  1  0  0  0
  -20.5970  -28.3767   23.1150 C   0  0  2  0  0  0
  -20.6803  -26.9431   22.5402 C   0  0  0  0  0  0
  -19.5778  -26.6364   21.5215 C   0  0  0  0  0  0
  -18.1961  -26.7938   22.1619 C   0  0  0  0  0  0
  -19.1601  -28.8914   23.2785 C   0  0  0  0  0  0
  -18.9504  -30.1495   23.8834 C   0  0  0  0  0  0
  -17.6495  -30.6596   24.0550 C   0  0  0  0  0  0
  -25.9115  -34.9304   23.4971 C   0  0  0  0  0  0
  -16.5386  -29.9080   23.6343 C   0  0  0  0  0  0
  -16.7315  -28.6500   23.0366 C   0  0  0  0  0  0
  -26.4581  -31.6508   25.0687 C   0  0  0  0  0  0
  -25.3652  -31.3818   26.1304 C   0  0  0  0  0  0
  -27.0499  -30.2850   24.6551 C   0  0  0  0  0  0
  -27.6035  -32.4357   25.7511 C   0  0  0  0  0  0
  -27.5570  -37.1744   24.8461 C   0  0  0  0  0  0
  -21.4404  -29.3029   22.3479 N   0  0  0  0  0  0
  -26.4275  -37.3673   23.9407 N   0  0  0  0  0  0
  -24.7788  -30.9534   22.0780 N   0  0  0  0  0  0
  -23.4213  -28.7931   23.3044 O   0  0  0  0  0  0
  -28.2027  -25.5585   20.2803 O   0  0  0  0  0  0
  -26.5756  -34.8875   22.4583 O   0  0  0  0  0  0
  -23.5825  -32.1091   23.6533 O   0  0  0  0  0  0
  -27.6169  -20.0787   21.2723 C   0  0  0  0  0  0
  -30.0975  -22.4192   19.2515 C   0  0  0  0  0  0
  -29.6974  -22.3784   21.7142 C   0  0  0  0  0  0
  -28.1685  -16.8234   19.9431 C   0  0  0  0  0  0
  -29.8155  -18.7042   20.3684 C   0  0  0  0  0  0
  -28.0100  -23.8310   20.1782 C   0  0  0  0  0  0
  -28.7602  -20.3119   20.2715 C   0  0  2  0  0  0
  -29.0352  -22.2125   20.3380 C   0  0  0  0  0  0
  -29.5711  -16.9593   20.2913 N   0  0  0  0  0  0
  -31.4211  -13.3065   19.1516 H   0  0  0  0  0  0
  -30.5803  -12.2091   20.2003 H   0  0  0  0  0  0
  -29.9998  -11.7885   17.7798 H   0  0  0  0  0  0
  -29.4974  -13.4538   17.5974 H   0  0  0  0  0  0
  -28.1563  -11.2662   19.2087 H   0  0  0  0  0  0
  -27.4509  -12.1928   17.9061 H   0  0  0  0  0  0
  -27.4320  -14.1577   19.2006 H   0  0  0  0  0  0
  -28.8718  -12.7639   21.5239 H   0  0  0  0  0  0
  -28.1821  -14.3632   21.5920 H   0  0  0  0  0  0
  -25.2779   -9.5692   22.4771 H   0  0  0  0  0  0
  -24.0019   -7.4647   22.7515 H   0  0  0  0  0  0
  -21.0857   -8.8777   19.8973 H   0  0  0  0  0  0
  -22.3731  -10.9662   19.6169 H   0  0  0  0  0  0
  -21.2041   -7.6168   23.9744 H   0  0  0  0  0  0
  -21.1462   -6.0518   25.9078 H   0  0  0  0  0  0
  -22.0598   -2.7630   23.2820 H   0  0  0  0  0  0
  -22.3968  -11.9827   22.4876 H   0  0  0  0  0  0
  -21.0987  -13.1219   22.2668 H   0  0  0  0  0  0
  -24.5894  -15.8179   20.5262 H   0  0  0  0  0  0
  -26.2038  -15.6472   20.0564 H   0  0  0  0  0  0
  -26.7474  -32.4979   23.0791 H   0  0  0  0  0  0
  -25.0046  -33.9360   25.0070 H   0  0  0  0  0  0
  -22.8272  -31.2450   21.3229 H   0  0  0  0  0  0
  -23.3779  -35.9480   23.3260 H   0  0  0  0  0  0
  -24.3570  -36.8886   22.2079 H   0  0  0  0  0  0
  -23.7232  -37.6330   23.6759 H   0  0  0  0  0  0
  -26.2806  -31.2785   20.6223 H   0  0  0  0  0  0
  -26.9363  -30.6182   22.0737 H   0  0  0  0  0  0
  -28.1666  -28.4287   21.2997 H   0  0  0  0  0  0
  -25.8400  -25.6320   19.0133 H   0  0  0  0  0  0
  -24.0237  -27.2279   18.9356 H   0  0  0  0  0  0
  -23.9294  -30.4712   19.3812 H   0  0  0  0  0  0
  -22.8596  -29.1757   19.8178 H   0  0  0  0  0  0
  -25.1352  -36.1694   25.0776 H   0  0  0  0  0  0
  -21.0052  -28.3388   24.1276 H   0  0  0  0  0  0
  -20.5668  -26.2391   23.3658 H   0  0  0  0  0  0
  -21.6663  -26.7378   22.1222 H   0  0  0  0  0  0
  -19.6936  -25.6260   21.1287 H   0  0  0  0  0  0
  -19.6724  -27.3138   20.6715 H   0  0  0  0  0  0
  -17.4232  -26.6676   21.4022 H   0  0  0  0  0  0
  -18.0354  -26.0098   22.9029 H   0  0  0  0  0  0
  -19.7980  -30.7321   24.2187 H   0  0  0  0  0  0
  -17.5046  -31.6269   24.5164 H   0  0  0  0  0  0
  -15.5383  -30.2960   23.7707 H   0  0  0  0  0  0
  -15.8713  -28.0796   22.7118 H   0  0  0  0  0  0
  -24.5848  -30.7158   25.7600 H   0  0  0  0  0  0
  -24.8825  -32.3040   26.4554 H   0  0  0  0  0  0
  -25.7828  -30.9089   27.0200 H   0  0  0  0  0  0
  -26.3185  -29.6471   24.1576 H   0  0  0  0  0  0
  -27.3972  -29.7298   25.5273 H   0  0  0  0  0  0
  -27.9157  -30.3983   24.0025 H   0  0  0  0  0  0
  -27.2570  -33.3713   26.1914 H   0  0  0  0  0  0
  -28.3941  -32.6829   25.0415 H   0  0  0  0  0  0
  -28.0592  -31.8601   26.5575 H   0  0  0  0  0  0
  -28.2548  -38.0077   24.7528 H   0  0  0  0  0  0
  -28.1103  -36.2603   24.6263 H   0  0  0  0  0  0
  -27.2284  -37.1350   25.8860 H   0  0  0  0  0  0
  -20.9697  -29.8686   21.6555 H   0  0  0  0  0  0
  -26.0109  -38.2724   24.1421 H   0  0  0  0  0  0
  -27.0440  -19.1807   21.0514 H   0  0  0  0  0  0
  -26.9120  -20.9104   21.2737 H   0  0  0  0  0  0
  -28.0030  -19.9759   22.2856 H   0  0  0  0  0  0
  -30.5316  -23.4183   19.3019 H   0  0  0  0  0  0
  -29.6581  -22.3051   18.2597 H   0  0  0  0  0  0
  -30.9110  -21.6990   19.3372 H   0  0  0  0  0  0
  -30.1912  -23.3451   21.8150 H   0  0  0  0  0  0
  -30.4426  -21.6023   21.8941 H   0  0  0  0  0  0
  -28.9560  -22.3051   22.5108 H   0  0  0  0  0  0
  -27.5987  -16.5215   20.8199 H   0  0  0  0  0  0
  -28.0487  -16.1122   19.1310 H   0  0  0  0  0  0
  -27.7387  -17.7450   19.5577 H   0  0  0  0  0  0
  -30.3459  -18.8069   21.3158 H   0  0  0  0  0  0
  -30.5998  -18.8615   19.6283 H   0  0  0  0  0  0
  -27.1789  -23.6678   20.8652 H   0  0  0  0  0  0
  -27.5415  -23.7257   19.1987 H   0  0  0  0  0  0
  -28.2997  -20.2074   19.2880 H   0  0  0  0  0  0
  1 25  1  0  0  0
  1 30  2  0  0  0
  1 79  1  0  0  0
  2  3  1  0  0  0
  2 25  1  0  0  0
  2 80  1  0  0  0
  2 81  1  0  0  0
  3  4  1  0  0  0
  3 82  1  0  0  0
  3 83  1  0  0  0
  4  5  1  0  0  0
  4 84  1  0  0  0
  4 85  1  0  0  0
  5  6  1  0  0  0
  5 26  1  0  0  0
  5 86  1  0  0  0
  6 25  1  0  0  0
  6 87  1  0  0  0
  6 88  1  0  0  0
  7  8  2  0  0  0
  7 26  1  0  0  0
  7 29  1  0  0  0
  8  9  1  0  0  0
  8 22  1  0  0  0
  9 10  1  0  0  0
  9 27  2  0  0  0
 10 11  2  0  0  0
 10 15  1  0  0  0
 11 12  1  0  0  0
 11 89  1  0  0  0
 12 13  2  0  0  0
 12 90  1  0  0  0
 13 14  1  0  0  0
 13 31  1  0  0  0
 14 15  2  0  0  0
 14 91  1  0  0  0
 15 92  1  0  0  0
 16 17  2  0  0  0
 16 21  1  0  0  0
 16 31  1  0  0  0
 17 18  1  0  0  0
 17 93  1  0  0  0
 18 19  2  0  0  0
 18 94  1  0  0  0
 19 20  1  0  0  0
 19 24  1  0  0  0
 20 21  2  0  0  0
 20 95  1  0  0  0
 21 23  1  0  0  0
 22 28  1  0  0  0
 22 32  2  0  0  0
 26 27  1  0  0  0
 28 96  1  0  0  0
 28 97  1  0  0  0
 29 98  1  0  0  0
 29 99  1  0  0  0
 33 34  1  0  0  0
 33 66  1  0  0  0
 33 70  2  0  0  0
 34 36  1  0  0  0
 34 59  1  0  0  0
 34100  1  0  0  0
 35 44  2  0  0  0
 35 45  1  0  0  0
 35 68  1  0  0  0
 36 56  1  0  0  0
 36101  1  0  0  0
 37 39  1  0  0  0
 37 47  1  0  0  0
 37 66  1  0  0  0
 37102  1  0  0  0
 38 43  2  0  0  0
 38 46  1  0  0  0
 38 47  1  0  0  0
 39 64  1  0  0  0
 39 67  2  0  0  0
 40 52  1  0  0  0
 40 53  2  0  0  0
 40 58  1  0  0  0
 41103  1  0  0  0
 41104  1  0  0  0
 41105  1  0  0  0
 41 48  1  0  0  0
 42 43  1  0  0  0
 42 66  1  0  0  0
 42106  1  0  0  0
 42107  1  0  0  0
 43 44  1  0  0  0
 44108  1  0  0  0
 45 46  2  0  0  0
 45109  1  0  0  0
 46110  1  0  0  0
 47111  1  0  0  0
 47112  1  0  0  0
 48 56  1  0  0  0
 48 65  1  0  0  0
 48113  1  0  0  0
 49 50  1  0  0  0
 49 53  1  0  0  0
 49 64  1  0  0  0
 49114  1  0  0  0
 50 51  1  0  0  0
 50115  1  0  0  0
 50116  1  0  0  0
 51 52  1  0  0  0
 51117  1  0  0  0
 51118  1  0  0  0
 52119  1  0  0  0
 52120  1  0  0  0
 53 54  1  0  0  0
 54 55  2  0  0  0
 54121  1  0  0  0
 55 57  1  0  0  0
 55122  1  0  0  0
 56 69  2  0  0  0
 57 58  2  0  0  0
 57123  1  0  0  0
 58124  1  0  0  0
 59 60  1  0  0  0
 59 61  1  0  0  0
 59 62  1  0  0  0
 60125  1  0  0  0
 60126  1  0  0  0
 60127  1  0  0  0
 61128  1  0  0  0
 61129  1  0  0  0
 61130  1  0  0  0
 62131  1  0  0  0
 62132  1  0  0  0
 62133  1  0  0  0
 63 65  1  0  0  0
 63134  1  0  0  0
 63135  1  0  0  0
 63136  1  0  0  0
 64137  1  0  0  0
 65138  1  0  0  0
 68 76  1  0  0  0
 71139  1  0  0  0
 71140  1  0  0  0
 71141  1  0  0  0
 71 77  1  0  0  0
 72142  1  0  0  0
 72143  1  0  0  0
 72144  1  0  0  0
 72 78  1  0  0  0
 73 78  1  0  0  0
 73145  1  0  0  0
 73146  1  0  0  0
 73147  1  0  0  0
 74 79  1  0  0  0
 74148  1  0  0  0
 74149  1  0  0  0
 74150  1  0  0  0
 75 77  1  0  0  0
 75 79  1  0  0  0
 75151  1  0  0  0
 75152  1  0  0  0
 76 78  1  0  0  0
 76153  1  0  0  0
 76154  1  0  0  0
 77 78  1  0  0  0
 77155  1  0  0  0
M  ISO  4   1 100  68 101  76 101  79 100
M  END
> <chiral flag>
0

> <version>
0

> <s_m_source_file>
/data/baiqing/PycharmProjects/Reinvent-master-3.2/result/LINK_invent/BTK/process_docking_weight1_custom_sum_contain_oxygen_bond_distance_aromatic_linkinvent_7_9_3/rearranged_h_0084.sdf

> <i_m_source_file_index>
96

> <r_mmod_Potential_Energy-OPLS-2005>
2442.2568359375

> <r_mmod_Stretch_Energy-OPLS-2005>
1100.42663574219

> <r_mmod_Bend_Energy-OPLS-2005>
606.024475097656

> <r_mmod_Torsional_Energy-OPLS-2005>
292.824859619141

> <r_mmod_Improper_Torsional_Energy-OPLS-2005>
4.15268993377686

> <r_mmod_Van_der_Waal_Energy-OPLS-2005>
110.531715393066

> <r_mmod_Electrostatic_Energy-OPLS-2005>
-297.468353271484

> <r_mmod_Solvation_Energy-OPLS-2005>
-200.030227661133

> <b_mmod_Minimization_Converged-OPLS-2005>
0

> <r_mmod_RMS_Derivative-OPLS-2005>
2.11850810050964

$$$$
